
     RDKit          3D

154170  0  0  0  0  0  0  0  0999 V2000
   -5.0321   -0.5092   -6.2797 C   0  0  0  0  0  0  0  0  0  0  0  0
   -5.7407   -0.3110   -5.1529 C   0  0  0  0  0  0  0  0  0  0  0  0
   -5.2614   -0.5866   -3.7927 C   0  0  0  0  0  0  0  0  0  0  0  0
   -4.0654   -0.5398   -3.3957 O   0  0  0  0  0  0  0  0  0  0  0  0
   -6.4024   -0.8728   -2.9575 C   0  0  0  0  0  0  0  0  0  0  0  0
   -6.4010   -1.4204   -1.6777 C   0  0  0  0  0  0  0  0  0  0  0  0
   -7.6282   -1.7946   -1.1096 C   0  0  0  0  0  0  0  0  0  0  0  0
   -7.6701   -2.3872    0.1613 C   0  0  0  0  0  0  0  0  0  0  0  0
   -8.8916   -2.7941    0.7046 C   0  0  0  0  0  0  0  0  0  0  0  0
  -10.0785   -2.6097   -0.0111 C   0  0  0  0  0  0  0  0  0  0  0  0
  -11.2572   -3.0142    0.5236 F   0  0  0  0  0  0  0  0  0  0  0  0
  -10.0548   -2.0192   -1.2791 C   0  0  0  0  0  0  0  0  0  0  0  0
   -8.8372   -1.6098   -1.8435 C   0  0  0  0  0  0  0  0  0  0  0  0
   -8.8006   -1.0509   -3.1392 C   0  0  0  0  0  0  0  0  0  0  0  0
   -7.5640   -0.6677   -3.6813 C   0  0  0  0  0  0  0  0  0  0  0  0
   -7.2192   -0.1622   -5.0421 C   0  0  0  0  0  0  0  0  0  0  0  0
   -8.0344    0.4958   -5.9019 C   0  0  0  0  0  0  0  0  0  0  0  0
   -7.5269    1.1541   -7.0781 C   0  0  0  0  0  0  0  0  0  0  0  0
   -7.1248    1.6901   -8.0220 N   0  0  0  0  0  0  0  0  0  0  0  0
   -9.4302    0.7116   -5.6234 C   0  0  0  0  0  0  0  0  0  0  0  0
  -10.5539    0.8925   -5.4130 N   0  0  0  0  0  0  0  0  0  0  0  0
   -3.6932   -1.1124   -6.2514 C   0  0  0  0  0  0  0  0  0  0  0  0
   -2.5034   -0.4821   -6.5647 C   0  0  0  0  0  0  0  0  0  0  0  0
   -1.3670   -1.2025   -6.1568 C   0  0  0  0  0  0  0  0  0  0  0  0
    0.2750   -0.5028   -6.3737 S   0  0  0  0  0  0  0  0  0  0  0  0
    0.2713    0.4222   -4.7931 C   0  0  0  0  0  0  0  0  0  0  0  0
   -0.0248    1.8934   -5.0406 C   0  0  0  0  0  0  0  0  0  0  0  0
   -1.6585   -2.4343   -5.5317 C   0  0  0  0  0  0  0  0  0  0  0  0
   -3.3353   -2.5735   -5.5227 S   0  0  0  0  0  0  0  0  0  0  0  0
   -0.7463   -3.3194   -4.7478 C   0  0  0  0  0  0  0  0  0  0  0  0
   -1.1217   -4.4403   -3.9593 C   0  0  0  0  0  0  0  0  0  0  0  0
   -2.4682   -5.0371   -3.8987 C   0  0  0  0  0  0  0  0  0  0  0  0
   -2.9646   -5.7712   -4.9860 C   0  0  0  0  0  0  0  0  0  0  0  0
   -4.2541   -6.3056   -4.9400 C   0  0  0  0  0  0  0  0  0  0  0  0
   -5.0535   -6.1146   -3.8106 C   0  0  0  0  0  0  0  0  0  0  0  0
   -4.5704   -5.3818   -2.7143 C   0  0  0  0  0  0  0  0  0  0  0  0
   -5.4184   -5.2093   -1.4830 C   0  0  0  0  0  0  0  0  0  0  0  0
   -5.2623   -6.4045   -0.5500 C   0  0  0  0  0  0  0  0  0  0  0  0
   -3.2692   -4.8569   -2.7593 C   0  0  0  0  0  0  0  0  0  0  0  0
   -0.0965   -4.8268   -3.0878 C   0  0  0  0  0  0  0  0  0  0  0  0
   -0.1064   -5.7814   -1.6814 S   0  0  0  0  0  0  0  0  0  0  0  0
    1.4413   -5.2421   -1.2365 C   0  0  0  0  0  0  0  0  0  0  0  0
    2.0243   -5.0024   -0.0225 C   0  0  0  0  0  0  0  0  0  0  0  0
    1.5293   -5.3067    1.2547 C   0  0  0  0  0  0  0  0  0  0  0  0
    2.0236   -4.5838    2.3770 C   0  0  0  0  0  0  0  0  0  0  0  0
    1.4649   -4.8535    3.5845 N   0  0  0  0  0  0  0  0  0  0  0  0
    0.3610   -6.0009    3.1277 S   0  0  0  0  0  0  0  0  0  0  0  0
    0.5277   -6.1901    1.4908 N   0  0  0  0  0  0  0  0  0  0  0  0
    3.0409   -3.6518    2.1726 C   0  0  0  0  0  0  0  0  0  0  0  0
    3.6514   -2.7844    3.0306 C   0  0  0  0  0  0  0  0  0  0  0  0
    3.2522   -2.0197    4.4929 S   0  0  0  0  0  0  0  0  0  0  0  0
    4.3561   -0.7547    4.1658 C   0  0  0  0  0  0  0  0  0  0  0  0
    4.4550    0.5397    4.6821 C   0  0  0  0  0  0  0  0  0  0  0  0
    3.5821    1.0256    5.7608 C   0  0  0  0  0  0  0  0  0  0  0  0
    2.3131    1.5288    5.4501 C   0  0  0  0  0  0  0  0  0  0  0  0
    1.4705    1.9855    6.4648 C   0  0  0  0  0  0  0  0  0  0  0  0
    1.8953    1.9510    7.7953 C   0  0  0  0  0  0  0  0  0  0  0  0
    3.1729    1.4677    8.1168 C   0  0  0  0  0  0  0  0  0  0  0  0
    3.6299    1.4264    9.5497 C   0  0  0  0  0  0  0  0  0  0  0  0
    3.2815    0.0850   10.1873 C   0  0  0  0  0  0  0  0  0  0  0  0
    4.0051    0.9802    7.0944 C   0  0  0  0  0  0  0  0  0  0  0  0
    5.1830    1.3788    3.8129 C   0  0  0  0  0  0  0  0  0  0  0  0
    5.6409    0.5028    2.4221 S   0  0  0  0  0  0  0  0  0  0  0  0
    4.9717   -0.9350    2.9519 C   0  0  0  0  0  0  0  0  0  0  0  0
    4.5536   -2.0846    2.3054 C   0  0  0  0  0  0  0  0  0  0  0  0
    4.5858   -2.4413    1.0012 N   0  0  0  0  0  0  0  0  0  0  0  0
    3.5825   -3.3788    0.9030 C   0  0  0  0  0  0  0  0  0  0  0  0
    2.9686   -3.9779   -0.2364 C   0  0  0  0  0  0  0  0  0  0  0  0
    2.8627   -3.5020   -1.5255 N   0  0  0  0  0  0  0  0  0  0  0  0
    1.9352   -4.3134   -2.1033 C   0  0  0  0  0  0  0  0  0  0  0  0
    1.0533   -4.0909   -3.1657 C   0  0  0  0  0  0  0  0  0  0  0  0
    0.8439   -2.8942   -4.3125 S   0  0  0  0  0  0  0  0  0  0  0  0
    3.1679   -2.1505   -2.0134 C   0  0  0  0  0  0  0  0  0  0  0  0
    2.2397   -1.1135   -1.3866 C   0  0  0  0  0  0  0  0  0  0  0  0
    5.7859   -2.2276    0.1746 C   0  0  0  0  0  0  0  0  0  0  0  0
    6.2073   -3.4798   -0.5979 C   0  0  0  0  0  0  0  0  0  0  0  0
    5.2968    2.8433    3.9091 C   0  0  0  0  0  0  0  0  0  0  0  0
    5.3301    3.6086    5.0725 C   0  0  0  0  0  0  0  0  0  0  0  0
    5.3417    4.9882    4.8259 C   0  0  0  0  0  0  0  0  0  0  0  0
    5.3718    6.2128    6.1381 S   0  0  0  0  0  0  0  0  0  0  0  0
    3.5591    6.4353    6.1973 C   0  0  0  0  0  0  0  0  0  0  0  0
    2.9185    5.3852    7.0943 C   0  0  0  0  0  0  0  0  0  0  0  0
    5.3079    5.3069    3.4732 C   0  0  0  0  0  0  0  0  0  0  0  0
    5.3094    3.8812    2.5829 S   0  0  0  0  0  0  0  0  0  0  0  0
    5.2990    6.6600    2.9021 C   0  0  0  0  0  0  0  0  0  0  0  0
    4.2973    7.1240    2.1311 C   0  0  0  0  0  0  0  0  0  0  0  0
    3.0967    6.3727    1.7419 C   0  0  0  0  0  0  0  0  0  0  0  0
    2.6422    5.3402    2.3017 O   0  0  0  0  0  0  0  0  0  0  0  0
    2.4721    7.0562    0.6324 C   0  0  0  0  0  0  0  0  0  0  0  0
    1.3757    6.6435   -0.1246 C   0  0  0  0  0  0  0  0  0  0  0  0
    0.9675    7.4393   -1.2093 C   0  0  0  0  0  0  0  0  0  0  0  0
   -0.1868    7.0080   -2.0656 C   0  0  0  0  0  0  0  0  0  0  0  0
    1.7003    8.5998   -1.5350 C   0  0  0  0  0  0  0  0  0  0  0  0
    2.8048    8.9915   -0.7611 C   0  0  0  0  0  0  0  0  0  0  0  0
    3.1677    8.2195    0.3545 C   0  0  0  0  0  0  0  0  0  0  0  0
    4.2673    8.3967    1.3471 C   0  0  0  0  0  0  0  0  0  0  0  0
    4.9407    9.5468    1.6188 C   0  0  0  0  0  0  0  0  0  0  0  0
    5.7810    9.6933    2.7785 C   0  0  0  0  0  0  0  0  0  0  0  0
    6.4570    9.8246    3.7098 N   0  0  0  0  0  0  0  0  0  0  0  0
    4.7498   10.7561    0.8609 C   0  0  0  0  0  0  0  0  0  0  0  0
    4.6090   11.7387    0.2662 N   0  0  0  0  0  0  0  0  0  0  0  0
   -5.4836   -0.3879   -7.2501 H   0  0  0  0  0  0  0  0  0  0  0  0
   -5.4647   -1.5913   -1.1590 H   0  0  0  0  0  0  0  0  0  0  0  0
   -6.7591   -2.5463    0.7265 H   0  0  0  0  0  0  0  0  0  0  0  0
   -8.9165   -3.2553    1.6830 H   0  0  0  0  0  0  0  0  0  0  0  0
  -10.9842   -1.8899   -1.8230 H   0  0  0  0  0  0  0  0  0  0  0  0
   -9.7101   -0.9768   -3.7136 H   0  0  0  0  0  0  0  0  0  0  0  0
   -2.4565    0.5047   -7.0066 H   0  0  0  0  0  0  0  0  0  0  0  0
    1.2758    0.3315   -4.3294 H   0  0  0  0  0  0  0  0  0  0  0  0
   -0.4693    0.0065   -4.0780 H   0  0  0  0  0  0  0  0  0  0  0  0
   -1.0089    2.0120   -5.5365 H   0  0  0  0  0  0  0  0  0  0  0  0
    0.7653    2.3366   -5.6812 H   0  0  0  0  0  0  0  0  0  0  0  0
   -0.0438    2.4368   -4.0731 H   0  0  0  0  0  0  0  0  0  0  0  0
   -2.3597   -5.9144   -5.8711 H   0  0  0  0  0  0  0  0  0  0  0  0
   -4.6358   -6.8662   -5.7820 H   0  0  0  0  0  0  0  0  0  0  0  0
   -6.0472   -6.5424   -3.7830 H   0  0  0  0  0  0  0  0  0  0  0  0
   -6.4881   -5.1009   -1.7683 H   0  0  0  0  0  0  0  0  0  0  0  0
   -5.1267   -4.2849   -0.9404 H   0  0  0  0  0  0  0  0  0  0  0  0
   -5.5909   -7.3379   -1.0567 H   0  0  0  0  0  0  0  0  0  0  0  0
   -4.1998   -6.5141   -0.2360 H   0  0  0  0  0  0  0  0  0  0  0  0
   -5.8849   -6.2543    0.3574 H   0  0  0  0  0  0  0  0  0  0  0  0
   -2.8816   -4.2965   -1.9163 H   0  0  0  0  0  0  0  0  0  0  0  0
    1.9759    1.5658    4.4214 H   0  0  0  0  0  0  0  0  0  0  0  0
    0.4890    2.3689    6.2196 H   0  0  0  0  0  0  0  0  0  0  0  0
    1.2358    2.3165    8.5709 H   0  0  0  0  0  0  0  0  0  0  0  0
    3.1481    2.2455   10.1268 H   0  0  0  0  0  0  0  0  0  0  0  0
    4.7292    1.5835    9.6039 H   0  0  0  0  0  0  0  0  0  0  0  0
    3.6180    0.0781   11.2459 H   0  0  0  0  0  0  0  0  0  0  0  0
    2.1832   -0.0793   10.1603 H   0  0  0  0  0  0  0  0  0  0  0  0
    3.7907   -0.7406    9.6470 H   0  0  0  0  0  0  0  0  0  0  0  0
    4.9867    0.5883    7.3349 H   0  0  0  0  0  0  0  0  0  0  0  0
    3.0832   -2.1102   -3.1158 H   0  0  0  0  0  0  0  0  0  0  0  0
    4.2069   -1.8859   -1.8338 H   0  0  0  0  0  0  0  0  0  0  0  0
    1.1838   -1.4340   -1.4889 H   0  0  0  0  0  0  0  0  0  0  0  0
    2.3714   -0.1392   -1.8959 H   0  0  0  0  0  0  0  0  0  0  0  0
    2.4777   -0.9873   -0.3105 H   0  0  0  0  0  0  0  0  0  0  0  0
    5.6746   -1.3369   -0.4703 H   0  0  0  0  0  0  0  0  0  0  0  0
    6.6444   -1.9808    0.8386 H   0  0  0  0  0  0  0  0  0  0  0  0
    6.3189   -4.3378    0.0999 H   0  0  0  0  0  0  0  0  0  0  0  0
    7.1835   -3.2934   -1.0932 H   0  0  0  0  0  0  0  0  0  0  0  0
    5.4794   -3.7492   -1.3842 H   0  0  0  0  0  0  0  0  0  0  0  0
    5.3477    3.1893    6.0666 H   0  0  0  0  0  0  0  0  0  0  0  0
    3.1187    6.3900    5.1770 H   0  0  0  0  0  0  0  0  0  0  0  0
    3.3470    7.4422    6.6165 H   0  0  0  0  0  0  0  0  0  0  0  0
    3.1402    4.3706    6.7123 H   0  0  0  0  0  0  0  0  0  0  0  0
    1.8176    5.5296    7.1070 H   0  0  0  0  0  0  0  0  0  0  0  0
    3.3069    5.4789    8.1298 H   0  0  0  0  0  0  0  0  0  0  0  0
    6.1800    7.2490    3.0869 H   0  0  0  0  0  0  0  0  0  0  0  0
    0.8638    5.7182    0.1125 H   0  0  0  0  0  0  0  0  0  0  0  0
   -0.7249    7.8920   -2.4694 H   0  0  0  0  0  0  0  0  0  0  0  0
    0.1905    6.3962   -2.9114 H   0  0  0  0  0  0  0  0  0  0  0  0
   -0.9094    6.4044   -1.4738 H   0  0  0  0  0  0  0  0  0  0  0  0
    1.4232    9.1928   -2.3979 H   0  0  0  0  0  0  0  0  0  0  0  0
    3.3649    9.8576   -1.0658 H   0  0  0  0  0  0  0  0  0  0  0  0
  1  2  2  3
  2  3  1  0
  3  4  2  0
  3  5  1  0
  5  6  2  0
  6  7  1  0
  7  8  2  0
  8  9  1  0
  9 10  2  0
 10 11  1  0
 10 12  1  0
 12 13  2  0
 13 14  1  0
 14 15  2  0
 15 16  1  0
 16 17  2  3
 17 18  1  0
 18 19  3  0
 17 20  1  0
 20 21  3  0
  1 22  1  0
 22 23  2  0
 23 24  1  0
 24 25  1  0
 25 26  1  0
 26 27  1  0
 24 28  2  0
 28 29  1  0
 28 30  1  0
 30 31  2  0
 31 32  1  0
 32 33  2  0
 33 34  1  0
 34 35  2  0
 35 36  1  0
 36 37  1  0
 37 38  1  0
 36 39  2  0
 31 40  1  0
 40 41  1  0
 41 42  1  0
 42 43  1  0
 43 44  1  0
 44 45  1  0
 45 46  2  0
 46 47  1  0
 47 48  1  0
 45 49  1  0
 49 50  1  0
 50 51  1  0
 51 52  1  0
 52 53  1  0
 53 54  1  0
 54 55  2  0
 55 56  1  0
 56 57  2  0
 57 58  1  0
 58 59  1  0
 59 60  1  0
 58 61  2  0
 53 62  2  0
 62 63  1  0
 63 64  1  0
 64 65  1  0
 65 66  1  0
 66 67  1  0
 67 68  1  0
 68 69  1  0
 69 70  1  0
 70 71  1  0
 71 72  1  0
 69 73  1  0
 73 74  1  0
 66 75  1  0
 75 76  1  0
 62 77  1  0
 77 78  2  0
 78 79  1  0
 79 80  1  0
 80 81  1  0
 81 82  1  0
 79 83  2  0
 83 84  1  0
 83 85  1  0
 85 86  2  3
 86 87  1  0
 87 88  2  0
 87 89  1  0
 89 90  2  0
 90 91  1  0
 91 92  1  0
 91 93  2  0
 93 94  1  0
 94 95  2  0
 95 96  1  0
 96 97  2  3
 97 98  1  0
 98 99  3  0
 97100  1  0
100101  3  0
 16  2  1  0
 29 22  1  0
 72 30  1  0
 84 77  1  0
 96 86  1  0
 15  5  1  0
 39 32  1  0
 71 40  2  0
 95 89  1  0
 13  7  1  0
 70 42  2  0
 68 43  2  0
 48 44  2  0
 67 49  2  0
 65 50  2  0
 64 52  2  0
 61 54  1  0
  1102  1  0
  6103  1  0
  8104  1  0
  9105  1  0
 12106  1  0
 14107  1  0
 23108  1  0
 26109  1  0
 26110  1  0
 27111  1  0
 27112  1  0
 27113  1  0
 33114  1  0
 34115  1  0
 35116  1  0
 37117  1  0
 37118  1  0
 38119  1  0
 38120  1  0
 38121  1  0
 39122  1  0
 55123  1  0
 56124  1  0
 57125  1  0
 59126  1  0
 59127  1  0
 60128  1  0
 60129  1  0
 60130  1  0
 61131  1  0
 73132  1  0
 73133  1  0
 74134  1  0
 74135  1  0
 74136  1  0
 75137  1  0
 75138  1  0
 76139  1  0
 76140  1  0
 76141  1  0
 78142  1  0
 81143  1  0
 81144  1  0
 82145  1  0
 82146  1  0
 82147  1  0
 85148  1  0
 90149  1  0
 92150  1  0
 92151  1  0
 92152  1  0
 93153  1  0
 94154  1  0
M  END

