
     RDKit          3D

180196  0  0  0  0  0  0  0  0999 V2000
    3.7761    7.4612   -6.0370 C   0  0  0  0  0  0  0  0  0  0  0  0
    4.7461    6.6367   -5.5929 C   0  0  0  0  0  0  0  0  0  0  0  0
    4.9723    6.2452   -4.1937 C   0  0  0  0  0  0  0  0  0  0  0  0
    4.2591    6.5631   -3.2032 O   0  0  0  0  0  0  0  0  0  0  0  0
    6.2443    5.5596   -4.1091 C   0  0  0  0  0  0  0  0  0  0  0  0
    6.8568    5.0259   -2.9714 C   0  0  0  0  0  0  0  0  0  0  0  0
    8.1211    4.4305   -3.1069 C   0  0  0  0  0  0  0  0  0  0  0  0
    8.7536    3.8421   -2.0009 C   0  0  0  0  0  0  0  0  0  0  0  0
   10.0094    3.2461   -2.1499 C   0  0  0  0  0  0  0  0  0  0  0  0
   10.6487    3.2366   -3.3922 C   0  0  0  0  0  0  0  0  0  0  0  0
   11.8603    2.6453   -3.5259 F   0  0  0  0  0  0  0  0  0  0  0  0
   10.0273    3.8123   -4.5043 C   0  0  0  0  0  0  0  0  0  0  0  0
    8.7617    4.4061   -4.3759 C   0  0  0  0  0  0  0  0  0  0  0  0
    8.1199    4.9681   -5.5007 C   0  0  0  0  0  0  0  0  0  0  0  0
    6.8315    5.5070   -5.3600 C   0  0  0  0  0  0  0  0  0  0  0  0
    5.9090    6.1004   -6.3726 C   0  0  0  0  0  0  0  0  0  0  0  0
    5.9496    5.9040   -7.7169 C   0  0  0  0  0  0  0  0  0  0  0  0
    4.8581    6.2682   -8.5845 C   0  0  0  0  0  0  0  0  0  0  0  0
    3.9828    6.5583   -9.2836 N   0  0  0  0  0  0  0  0  0  0  0  0
    6.9879    5.1369   -8.3558 C   0  0  0  0  0  0  0  0  0  0  0  0
    7.8052    4.5109   -8.8823 N   0  0  0  0  0  0  0  0  0  0  0  0
    2.5040    7.6755   -5.3285 C   0  0  0  0  0  0  0  0  0  0  0  0
    1.7647    8.8541   -5.2900 C   0  0  0  0  0  0  0  0  0  0  0  0
    0.5609    8.7305   -4.5666 C   0  0  0  0  0  0  0  0  0  0  0  0
   -0.5702   10.1111   -4.3410 S   0  0  0  0  0  0  0  0  0  0  0  0
   -0.0381   10.5377   -2.6451 C   0  0  0  0  0  0  0  0  0  0  0  0
    1.3500   11.1680   -2.6248 C   0  0  0  0  0  0  0  0  0  0  0  0
    0.3267    7.4435   -4.0883 C   0  0  0  0  0  0  0  0  0  0  0  0
    1.6227    6.4789   -4.5482 S   0  0  0  0  0  0  0  0  0  0  0  0
   -0.5959    7.0542   -3.0129 C   0  0  0  0  0  0  0  0  0  0  0  0
   -2.1364    6.3856   -3.2839 S   0  0  0  0  0  0  0  0  0  0  0  0
   -2.2737    5.7116   -1.7499 C   0  0  0  0  0  0  0  0  0  0  0  0
   -2.8997    4.4981   -1.2663 C   0  0  0  0  0  0  0  0  0  0  0  0
   -2.0404    3.8937   -0.3858 C   0  0  0  0  0  0  0  0  0  0  0  0
   -0.8594    4.7844   -0.0325 C   0  0  0  0  0  0  0  0  0  0  0  0
   -1.0833    5.8639   -1.0843 C   0  0  0  0  0  0  0  0  0  0  0  0
   -0.1466    6.6800   -1.7383 C   0  0  0  0  0  0  0  0  0  0  0  0
    1.2556    6.9091   -1.2451 C   0  0  0  0  0  0  0  0  0  0  0  0
   -1.1120    5.3506    1.3797 C   0  0  0  0  0  0  0  0  0  0  0  0
   -0.9664    6.7248    1.6740 C   0  0  0  0  0  0  0  0  0  0  0  0
   -1.1210    7.2015    2.9734 C   0  0  0  0  0  0  0  0  0  0  0  0
   -1.4171    6.3230    4.0226 C   0  0  0  0  0  0  0  0  0  0  0  0
   -1.5188    6.8379    5.4357 C   0  0  0  0  0  0  0  0  0  0  0  0
   -0.1314    6.9925    6.0482 C   0  0  0  0  0  0  0  0  0  0  0  0
   -1.5678    4.9583    3.7519 C   0  0  0  0  0  0  0  0  0  0  0  0
   -1.4149    4.4776    2.4506 C   0  0  0  0  0  0  0  0  0  0  0  0
    0.5159    4.0716   -0.2029 C   0  0  0  0  0  0  0  0  0  0  0  0
    1.4424    4.1021    0.8691 C   0  0  0  0  0  0  0  0  0  0  0  0
    2.6702    3.4500    0.7942 C   0  0  0  0  0  0  0  0  0  0  0  0
    3.0386    2.7669   -0.3612 C   0  0  0  0  0  0  0  0  0  0  0  0
    4.3428    2.0154   -0.4151 C   0  0  0  0  0  0  0  0  0  0  0  0
    4.1341    0.5517   -0.0408 C   0  0  0  0  0  0  0  0  0  0  0  0
    2.1635    2.7345   -1.4463 C   0  0  0  0  0  0  0  0  0  0  0  0
    0.9144    3.3781   -1.3991 C   0  0  0  0  0  0  0  0  0  0  0  0
    0.0874    3.3253   -2.6639 C   0  0  0  0  0  0  0  0  0  0  0  0
   -2.2704    2.5174   -0.2637 C   0  0  0  0  0  0  0  0  0  0  0  0
   -1.3644    1.5750    0.2389 C   0  0  0  0  0  0  0  0  0  0  0  0
   -1.6212    0.2384   -0.0416 C   0  0  0  0  0  0  0  0  0  0  0  0
   -0.5464   -1.0450    0.1521 S   0  0  0  0  0  0  0  0  0  0  0  0
   -1.6175   -2.1454   -0.5403 C   0  0  0  0  0  0  0  0  0  0  0  0
   -1.7887   -3.5242   -0.2751 C   0  0  0  0  0  0  0  0  0  0  0  0
   -3.1142   -3.8266   -0.2029 C   0  0  0  0  0  0  0  0  0  0  0  0
   -3.9745   -2.5931   -0.4984 C   0  0  0  0  0  0  0  0  0  0  0  0
   -4.7439   -2.1090    0.7475 C   0  0  0  0  0  0  0  0  0  0  0  0
   -5.9413   -1.3674    0.6197 C   0  0  0  0  0  0  0  0  0  0  0  0
   -6.5727   -0.8199    1.7412 C   0  0  0  0  0  0  0  0  0  0  0  0
   -6.0090   -0.9652    3.0182 C   0  0  0  0  0  0  0  0  0  0  0  0
   -6.6665   -0.3346    4.2219 C   0  0  0  0  0  0  0  0  0  0  0  0
   -7.8527   -1.1635    4.7023 C   0  0  0  0  0  0  0  0  0  0  0  0
   -4.8132   -1.6833    3.1582 C   0  0  0  0  0  0  0  0  0  0  0  0
   -4.1818   -2.2312    2.0376 C   0  0  0  0  0  0  0  0  0  0  0  0
   -4.8866   -2.8711   -1.6957 C   0  0  0  0  0  0  0  0  0  0  0  0
   -5.9794   -3.7421   -1.5328 C   0  0  0  0  0  0  0  0  0  0  0  0
   -6.8881   -3.9544   -2.5729 C   0  0  0  0  0  0  0  0  0  0  0  0
   -6.7107   -3.3228   -3.8104 C   0  0  0  0  0  0  0  0  0  0  0  0
   -7.7139   -3.5305   -4.9193 C   0  0  0  0  0  0  0  0  0  0  0  0
   -7.5394   -4.9021   -5.5644 C   0  0  0  0  0  0  0  0  0  0  0  0
   -5.5870   -2.5061   -4.0044 C   0  0  0  0  0  0  0  0  0  0  0  0
   -4.6838   -2.2820   -2.9604 C   0  0  0  0  0  0  0  0  0  0  0  0
   -2.8491   -1.5830   -0.7854 C   0  0  0  0  0  0  0  0  0  0  0  0
   -2.8264   -0.1908   -0.6106 C   0  0  0  0  0  0  0  0  0  0  0  0
   -3.7593    0.7458   -1.0892 C   0  0  0  0  0  0  0  0  0  0  0  0
   -3.4066    2.1006   -0.9831 C   0  0  0  0  0  0  0  0  0  0  0  0
   -4.0112    3.3980   -1.9001 S   0  0  0  0  0  0  0  0  0  0  0  0
   -3.3657   -5.0272    0.4842 C   0  0  0  0  0  0  0  0  0  0  0  0
   -2.1639   -5.6170    0.9384 C   0  0  0  0  0  0  0  0  0  0  0  0
   -0.8481   -4.6247    0.5375 S   0  0  0  0  0  0  0  0  0  0  0  0
   -2.0140   -6.7753    1.8306 C   0  0  0  0  0  0  0  0  0  0  0  0
   -2.9604   -7.7416    2.1480 C   0  0  0  0  0  0  0  0  0  0  0  0
   -2.4904   -8.6861    3.0774 C   0  0  0  0  0  0  0  0  0  0  0  0
   -3.5379   -9.9917    3.7314 S   0  0  0  0  0  0  0  0  0  0  0  0
   -2.8213  -11.3190    2.7011 C   0  0  0  0  0  0  0  0  0  0  0  0
   -3.2925  -11.2204    1.2532 C   0  0  0  0  0  0  0  0  0  0  0  0
   -1.1660   -8.4874    3.4764 C   0  0  0  0  0  0  0  0  0  0  0  0
   -0.6137   -7.1060    2.6983 S   0  0  0  0  0  0  0  0  0  0  0  0
   -0.4877   -9.1973    4.5837 C   0  0  0  0  0  0  0  0  0  0  0  0
    0.8567   -9.3094    4.7527 C   0  0  0  0  0  0  0  0  0  0  0  0
    1.8412   -8.9219    3.7153 C   0  0  0  0  0  0  0  0  0  0  0  0
    1.5842   -9.0895    2.4913 O   0  0  0  0  0  0  0  0  0  0  0  0
    3.1331   -8.4348    4.1257 N   0  0  0  0  0  0  0  0  0  0  0  0
    3.9728   -7.6647    3.2013 C   0  0  0  0  0  0  0  0  0  0  0  0
    3.5510   -6.1988    3.2108 C   0  0  0  0  0  0  0  0  0  0  0  0
    3.5381   -8.6373    5.4920 C   0  0  0  0  0  0  0  0  0  0  0  0
    4.6484   -8.1954    5.8972 O   0  0  0  0  0  0  0  0  0  0  0  0
    2.6771   -9.4040    6.4239 C   0  0  0  0  0  0  0  0  0  0  0  0
    1.4244   -9.7817    6.0606 C   0  0  0  0  0  0  0  0  0  0  0  0
    0.5875  -10.6553    6.9782 C   0  0  0  0  0  0  0  0  0  0  0  0
    3.2254   -9.7547    7.7176 C   0  0  0  0  0  0  0  0  0  0  0  0
    3.6688  -10.0379    8.7492 N   0  0  0  0  0  0  0  0  0  0  0  0
    3.8839    7.9673   -6.9817 H   0  0  0  0  0  0  0  0  0  0  0  0
    6.3518    5.0583   -2.0114 H   0  0  0  0  0  0  0  0  0  0  0  0
    8.2729    3.8246   -1.0316 H   0  0  0  0  0  0  0  0  0  0  0  0
   10.4866    2.7783   -1.2938 H   0  0  0  0  0  0  0  0  0  0  0  0
   10.5266    3.7803   -5.4673 H   0  0  0  0  0  0  0  0  0  0  0  0
    8.6322    4.9808   -6.4472 H   0  0  0  0  0  0  0  0  0  0  0  0
    2.0927    9.7766   -5.7534 H   0  0  0  0  0  0  0  0  0  0  0  0
   -0.0584    9.6401   -1.9967 H   0  0  0  0  0  0  0  0  0  0  0  0
   -0.7697   11.2642   -2.2388 H   0  0  0  0  0  0  0  0  0  0  0  0
    2.1176   10.4194   -2.9150 H   0  0  0  0  0  0  0  0  0  0  0  0
    1.3903   12.0342   -3.3208 H   0  0  0  0  0  0  0  0  0  0  0  0
    1.5756   11.5203   -1.5990 H   0  0  0  0  0  0  0  0  0  0  0  0
    1.9341    6.1459   -1.6740 H   0  0  0  0  0  0  0  0  0  0  0  0
    1.3072    6.8415   -0.1414 H   0  0  0  0  0  0  0  0  0  0  0  0
    1.6077    7.9198   -1.5444 H   0  0  0  0  0  0  0  0  0  0  0  0
   -0.7331    7.4426    0.9048 H   0  0  0  0  0  0  0  0  0  0  0  0
   -0.9952    8.2596    3.1684 H   0  0  0  0  0  0  0  0  0  0  0  0
   -2.0400    7.8214    5.4422 H   0  0  0  0  0  0  0  0  0  0  0  0
   -2.1182    6.1411    6.0586 H   0  0  0  0  0  0  0  0  0  0  0  0
   -0.2321    7.3337    7.1016 H   0  0  0  0  0  0  0  0  0  0  0  0
    0.4587    7.7510    5.4872 H   0  0  0  0  0  0  0  0  0  0  0  0
    0.4098    6.0220    6.0359 H   0  0  0  0  0  0  0  0  0  0  0  0
   -1.7861    4.2620    4.5520 H   0  0  0  0  0  0  0  0  0  0  0  0
   -1.5196    3.4168    2.2887 H   0  0  0  0  0  0  0  0  0  0  0  0
    1.2393    4.6285    1.7903 H   0  0  0  0  0  0  0  0  0  0  0  0
    3.3320    3.4741    1.6552 H   0  0  0  0  0  0  0  0  0  0  0  0
    5.0825    2.4689    0.2810 H   0  0  0  0  0  0  0  0  0  0  0  0
    4.7686    2.0756   -1.4384 H   0  0  0  0  0  0  0  0  0  0  0  0
    5.1112    0.0263   -0.0288 H   0  0  0  0  0  0  0  0  0  0  0  0
    3.6736    0.4759    0.9734 H   0  0  0  0  0  0  0  0  0  0  0  0
    3.4664    0.0545   -0.7794 H   0  0  0  0  0  0  0  0  0  0  0  0
    2.4657    2.1982   -2.3363 H   0  0  0  0  0  0  0  0  0  0  0  0
   -0.9087    2.8831   -2.4980 H   0  0  0  0  0  0  0  0  0  0  0  0
    0.0004    4.3294   -3.1123 H   0  0  0  0  0  0  0  0  0  0  0  0
    0.5650    2.6885   -3.4390 H   0  0  0  0  0  0  0  0  0  0  0  0
   -0.4387    1.8553    0.7233 H   0  0  0  0  0  0  0  0  0  0  0  0
   -6.3868   -1.1869   -0.3525 H   0  0  0  0  0  0  0  0  0  0  0  0
   -7.4981   -0.2658    1.6159 H   0  0  0  0  0  0  0  0  0  0  0  0
   -5.9302   -0.2252    5.0479 H   0  0  0  0  0  0  0  0  0  0  0  0
   -7.0194    0.6853    3.9585 H   0  0  0  0  0  0  0  0  0  0  0  0
   -8.6403   -1.1873    3.9209 H   0  0  0  0  0  0  0  0  0  0  0  0
   -7.5376   -2.1986    4.9452 H   0  0  0  0  0  0  0  0  0  0  0  0
   -8.2790   -0.6952    5.6165 H   0  0  0  0  0  0  0  0  0  0  0  0
   -4.3479   -1.7972    4.1313 H   0  0  0  0  0  0  0  0  0  0  0  0
   -3.2300   -2.7267    2.1831 H   0  0  0  0  0  0  0  0  0  0  0  0
   -6.1561   -4.2269   -0.5777 H   0  0  0  0  0  0  0  0  0  0  0  0
   -7.7432   -4.6017   -2.4032 H   0  0  0  0  0  0  0  0  0  0  0  0
   -7.6018   -2.7472   -5.6977 H   0  0  0  0  0  0  0  0  0  0  0  0
   -8.7434   -3.4453   -4.5097 H   0  0  0  0  0  0  0  0  0  0  0  0
   -6.5234   -4.9891   -6.0045 H   0  0  0  0  0  0  0  0  0  0  0  0
   -8.2911   -5.0352   -6.3693 H   0  0  0  0  0  0  0  0  0  0  0  0
   -7.6884   -5.7046   -4.8101 H   0  0  0  0  0  0  0  0  0  0  0  0
   -5.4193   -2.0246   -4.9588 H   0  0  0  0  0  0  0  0  0  0  0  0
   -3.8468   -1.6231   -3.1462 H   0  0  0  0  0  0  0  0  0  0  0  0
   -4.6292    0.4318   -1.6497 H   0  0  0  0  0  0  0  0  0  0  0  0
   -4.3537   -5.3852    0.7386 H   0  0  0  0  0  0  0  0  0  0  0  0
   -3.9639   -7.7584    1.7429 H   0  0  0  0  0  0  0  0  0  0  0  0
   -3.1401  -12.2971    3.1215 H   0  0  0  0  0  0  0  0  0  0  0  0
   -1.7118  -11.2805    2.7406 H   0  0  0  0  0  0  0  0  0  0  0  0
   -2.9964  -12.1399    0.7044 H   0  0  0  0  0  0  0  0  0  0  0  0
   -2.8240  -10.3481    0.7533 H   0  0  0  0  0  0  0  0  0  0  0  0
   -4.3994  -11.1226    1.2036 H   0  0  0  0  0  0  0  0  0  0  0  0
   -1.1451   -9.5286    5.3739 H   0  0  0  0  0  0  0  0  0  0  0  0
    3.8804   -8.0580    2.1654 H   0  0  0  0  0  0  0  0  0  0  0  0
    5.0502   -7.7317    3.4833 H   0  0  0  0  0  0  0  0  0  0  0  0
    4.2022   -5.6152    2.5284 H   0  0  0  0  0  0  0  0  0  0  0  0
    2.4972   -6.1141    2.8531 H   0  0  0  0  0  0  0  0  0  0  0  0
    3.6214   -5.7724    4.2376 H   0  0  0  0  0  0  0  0  0  0  0  0
    1.2114  -11.3903    7.5259 H   0  0  0  0  0  0  0  0  0  0  0  0
    0.0495  -10.0137    7.7033 H   0  0  0  0  0  0  0  0  0  0  0  0
   -0.1459  -11.2524    6.3992 H   0  0  0  0  0  0  0  0  0  0  0  0
  1  2  2  3
  2  3  1  0
  3  4  2  0
  3  5  1  0
  5  6  2  0
  6  7  1  0
  7  8  2  0
  8  9  1  0
  9 10  2  0
 10 11  1  0
 10 12  1  0
 12 13  2  0
 13 14  1  0
 14 15  2  0
 15 16  1  0
 16 17  2  3
 17 18  1  0
 18 19  3  0
 17 20  1  0
 20 21  3  0
  1 22  1  0
 22 23  2  0
 23 24  1  0
 24 25  1  0
 25 26  1  0
 26 27  1  0
 24 28  2  0
 28 29  1  0
 28 30  1  0
 30 31  1  0
 31 32  1  0
 32 33  1  0
 33 34  2  0
 34 35  1  0
 35 36  1  0
 36 37  1  0
 37 38  1  0
 35 39  1  0
 39 40  2  0
 40 41  1  0
 41 42  2  0
 42 43  1  0
 43 44  1  0
 42 45  1  0
 45 46  2  0
 35 47  1  0
 47 48  2  0
 48 49  1  0
 49 50  2  0
 50 51  1  0
 51 52  1  0
 50 53  1  0
 53 54  2  0
 54 55  1  0
 34 56  1  0
 56 57  2  0
 57 58  1  0
 58 59  1  0
 59 60  1  0
 60 61  1  0
 61 62  2  0
 62 63  1  0
 63 64  1  0
 64 65  2  0
 65 66  1  0
 66 67  2  0
 67 68  1  0
 68 69  1  0
 67 70  1  0
 70 71  2  0
 63 72  1  0
 72 73  2  0
 73 74  1  0
 74 75  2  0
 75 76  1  0
 76 77  1  0
 75 78  1  0
 78 79  2  0
 63 80  1  0
 80 81  1  0
 81 82  1  0
 82 83  2  0
 83 84  1  0
 62 85  1  0
 85 86  2  0
 86 87  1  0
 86 88  1  0
 88 89  2  0
 89 90  1  0
 90 91  1  0
 91 92  1  0
 92 93  1  0
 90 94  2  0
 94 95  1  0
 94 96  1  0
 96 97  2  3
 97 98  1  0
 98 99  2  0
 98100  1  0
100101  1  0
101102  1  0
100103  1  0
103104  2  0
103105  1  0
105106  2  0
106107  1  0
105108  1  0
108109  3  0
 16  2  1  0
 29 22  1  0
 37 30  2  0
 46 39  1  0
 54 47  1  0
 83 56  1  0
 95 88  1  0
106 97  1  0
 15  5  1  0
 36 32  2  0
 81 58  2  0
 13  7  1  0
 84 33  1  0
 80 60  2  0
 87 61  1  0
 71 64  1  0
 79 72  1  0
  1110  1  0
  6111  1  0
  8112  1  0
  9113  1  0
 12114  1  0
 14115  1  0
 23116  1  0
 26117  1  0
 26118  1  0
 27119  1  0
 27120  1  0
 27121  1  0
 38122  1  0
 38123  1  0
 38124  1  0
 40125  1  0
 41126  1  0
 43127  1  0
 43128  1  0
 44129  1  0
 44130  1  0
 44131  1  0
 45132  1  0
 46133  1  0
 48134  1  0
 49135  1  0
 51136  1  0
 51137  1  0
 52138  1  0
 52139  1  0
 52140  1  0
 53141  1  0
 55142  1  0
 55143  1  0
 55144  1  0
 57145  1  0
 65146  1  0
 66147  1  0
 68148  1  0
 68149  1  0
 69150  1  0
 69151  1  0
 69152  1  0
 70153  1  0
 71154  1  0
 73155  1  0
 74156  1  0
 76157  1  0
 76158  1  0
 77159  1  0
 77160  1  0
 77161  1  0
 78162  1  0
 79163  1  0
 82164  1  0
 85165  1  0
 89166  1  0
 92167  1  0
 92168  1  0
 93169  1  0
 93170  1  0
 93171  1  0
 96172  1  0
101173  1  0
101174  1  0
102175  1  0
102176  1  0
102177  1  0
107178  1  0
107179  1  0
107180  1  0
M  END

