
     RDKit          3D

157174  0  0  0  0  0  0  0  0999 V2000
   -2.0991   -7.8483    2.1291 C   0  0  0  0  0  0  0  0  0  0  0  0
   -2.1915   -8.6577    1.0462 C   0  0  0  0  0  0  0  0  0  0  0  0
   -3.4085   -8.9248    0.2607 C   0  0  0  0  0  0  0  0  0  0  0  0
   -4.5614   -9.1330    0.7168 O   0  0  0  0  0  0  0  0  0  0  0  0
   -3.0380   -9.0593   -1.1329 C   0  0  0  0  0  0  0  0  0  0  0  0
   -3.8895   -9.0847   -2.2347 C   0  0  0  0  0  0  0  0  0  0  0  0
   -3.3265   -8.9531   -3.5117 C   0  0  0  0  0  0  0  0  0  0  0  0
   -4.1392   -8.9330   -4.6569 C   0  0  0  0  0  0  0  0  0  0  0  0
   -3.5800   -8.7299   -5.9200 C   0  0  0  0  0  0  0  0  0  0  0  0
   -2.2051   -8.5358   -6.0516 C   0  0  0  0  0  0  0  0  0  0  0  0
   -1.6665   -8.3227   -7.2750 F   0  0  0  0  0  0  0  0  0  0  0  0
   -1.3726   -8.5647   -4.9283 C   0  0  0  0  0  0  0  0  0  0  0  0
   -1.9199   -8.7846   -3.6551 C   0  0  0  0  0  0  0  0  0  0  0  0
   -1.0882   -8.8025   -2.5129 C   0  0  0  0  0  0  0  0  0  0  0  0
   -1.6690   -8.9700   -1.2490 C   0  0  0  0  0  0  0  0  0  0  0  0
   -1.0588   -8.8941    0.1078 C   0  0  0  0  0  0  0  0  0  0  0  0
    0.2257   -9.1571    0.4435 C   0  0  0  0  0  0  0  0  0  0  0  0
    0.6629   -9.2487    1.8133 C   0  0  0  0  0  0  0  0  0  0  0  0
    1.0351   -9.3216    2.9106 N   0  0  0  0  0  0  0  0  0  0  0  0
    1.2234   -9.4941   -0.5450 C   0  0  0  0  0  0  0  0  0  0  0  0
    2.0281   -9.7627   -1.3343 N   0  0  0  0  0  0  0  0  0  0  0  0
   -3.1536   -6.8886    2.5070 C   0  0  0  0  0  0  0  0  0  0  0  0
   -4.4993   -7.1010    2.7604 C   0  0  0  0  0  0  0  0  0  0  0  0
   -5.2565   -5.9187    2.8342 C   0  0  0  0  0  0  0  0  0  0  0  0
   -7.0331   -6.0135    3.0510 S   0  0  0  0  0  0  0  0  0  0  0  0
   -6.9564   -5.9475    4.8748 C   0  0  0  0  0  0  0  0  0  0  0  0
   -8.2960   -6.3460    5.4587 C   0  0  0  0  0  0  0  0  0  0  0  0
   -4.4872   -4.7498    2.7030 C   0  0  0  0  0  0  0  0  0  0  0  0
   -2.8857   -5.2414    2.4552 S   0  0  0  0  0  0  0  0  0  0  0  0
   -4.8707   -3.3172    2.5155 C   0  0  0  0  0  0  0  0  0  0  0  0
   -5.8809   -2.8449    1.6425 C   0  0  0  0  0  0  0  0  0  0  0  0
   -7.3120   -3.1101    1.8708 C   0  0  0  0  0  0  0  0  0  0  0  0
   -8.1913   -3.3661    0.8085 C   0  0  0  0  0  0  0  0  0  0  0  0
   -9.5670   -3.4530    1.0428 C   0  0  0  0  0  0  0  0  0  0  0  0
  -10.0736   -3.2677    2.3359 C   0  0  0  0  0  0  0  0  0  0  0  0
   -9.2054   -2.9925    3.4051 C   0  0  0  0  0  0  0  0  0  0  0  0
   -9.7389   -2.7563    4.7962 C   0  0  0  0  0  0  0  0  0  0  0  0
   -9.7145   -1.2762    5.1484 C   0  0  0  0  0  0  0  0  0  0  0  0
   -7.8343   -2.9066    3.1618 C   0  0  0  0  0  0  0  0  0  0  0  0
   -5.5340   -1.6091    1.0951 C   0  0  0  0  0  0  0  0  0  0  0  0
   -6.0467   -0.8017   -0.3222 S   0  0  0  0  0  0  0  0  0  0  0  0
   -4.8052    0.3521   -0.1721 C   0  0  0  0  0  0  0  0  0  0  0  0
   -4.0807    1.1595   -1.0143 C   0  0  0  0  0  0  0  0  0  0  0  0
   -4.1295    1.2916   -2.4153 C   0  0  0  0  0  0  0  0  0  0  0  0
   -3.0154    1.8856   -3.0933 C   0  0  0  0  0  0  0  0  0  0  0  0
   -3.0690    1.9433   -4.4468 N   0  0  0  0  0  0  0  0  0  0  0  0
   -4.5304    1.2112   -4.7022 S   0  0  0  0  0  0  0  0  0  0  0  0
   -5.1170    0.8075   -3.2019 N   0  0  0  0  0  0  0  0  0  0  0  0
   -1.9415    2.3623   -2.3295 C   0  0  0  0  0  0  0  0  0  0  0  0
   -0.7493    2.9715   -2.6630 C   0  0  0  0  0  0  0  0  0  0  0  0
    0.2613    3.3352   -3.9868 S   0  0  0  0  0  0  0  0  0  0  0  0
    1.4910    3.9252   -2.9545 C   0  0  0  0  0  0  0  0  0  0  0  0
    2.8418    4.2719   -3.1198 C   0  0  0  0  0  0  0  0  0  0  0  0
    3.4948    4.3321   -4.4397 C   0  0  0  0  0  0  0  0  0  0  0  0
    3.0665    5.2647   -5.3943 C   0  0  0  0  0  0  0  0  0  0  0  0
    3.7115    5.3465   -6.6283 C   0  0  0  0  0  0  0  0  0  0  0  0
    4.7816    4.5043   -6.9250 C   0  0  0  0  0  0  0  0  0  0  0  0
    5.2191    3.5573   -5.9833 C   0  0  0  0  0  0  0  0  0  0  0  0
    6.4249    2.6969   -6.2713 C   0  0  0  0  0  0  0  0  0  0  0  0
    7.6840    3.5460   -6.4129 C   0  0  0  0  0  0  0  0  0  0  0  0
    4.5474    3.4494   -4.7495 C   0  0  0  0  0  0  0  0  0  0  0  0
    3.4758    4.4708   -1.8636 C   0  0  0  0  0  0  0  0  0  0  0  0
    2.3376    4.1770   -0.6174 S   0  0  0  0  0  0  0  0  0  0  0  0
    1.0927    3.8411   -1.6504 C   0  0  0  0  0  0  0  0  0  0  0  0
   -0.1527    3.2891   -1.4859 C   0  0  0  0  0  0  0  0  0  0  0  0
   -0.8594    2.9175   -0.3977 N   0  0  0  0  0  0  0  0  0  0  0  0
   -1.9398    2.2748   -0.9299 C   0  0  0  0  0  0  0  0  0  0  0  0
   -2.9471    1.5377   -0.2772 C   0  0  0  0  0  0  0  0  0  0  0  0
   -2.8762    0.8381    0.9009 N   0  0  0  0  0  0  0  0  0  0  0  0
   -4.0275    0.1300    0.9250 C   0  0  0  0  0  0  0  0  0  0  0  0
   -4.4122   -1.0215    1.6035 C   0  0  0  0  0  0  0  0  0  0  0  0
   -3.6737   -2.0977    2.6405 S   0  0  0  0  0  0  0  0  0  0  0  0
   -1.6934    0.5454    1.7192 C   0  0  0  0  0  0  0  0  0  0  0  0
   -1.9094    0.9615    3.1741 C   0  0  0  0  0  0  0  0  0  0  0  0
   -0.8098    3.6385    0.8807 C   0  0  0  0  0  0  0  0  0  0  0  0
   -1.2361    5.0957    0.7005 C   0  0  0  0  0  0  0  0  0  0  0  0
    4.8802    4.7856   -1.5227 C   0  0  0  0  0  0  0  0  0  0  0  0
    6.0096    4.9814   -2.3302 C   0  0  0  0  0  0  0  0  0  0  0  0
    7.1982    5.2083   -1.5962 C   0  0  0  0  0  0  0  0  0  0  0  0
    8.7984    5.4488   -2.3815 S   0  0  0  0  0  0  0  0  0  0  0  0
    9.4502    3.7913   -1.9717 C   0  0  0  0  0  0  0  0  0  0  0  0
    8.8487    2.6997   -2.8390 C   0  0  0  0  0  0  0  0  0  0  0  0
    6.9957    5.2387   -0.2215 C   0  0  0  0  0  0  0  0  0  0  0  0
    5.3781    4.9087    0.0685 S   0  0  0  0  0  0  0  0  0  0  0  0
    7.9411    5.6006    0.8441 C   0  0  0  0  0  0  0  0  0  0  0  0
    7.6248    6.5874    1.6973 C   0  0  0  0  0  0  0  0  0  0  0  0
    6.5727    7.5594    1.3871 C   0  0  0  0  0  0  0  0  0  0  0  0
    6.4609    8.1589    0.2827 O   0  0  0  0  0  0  0  0  0  0  0  0
    5.6792    7.6778    2.5280 C   0  0  0  0  0  0  0  0  0  0  0  0
    6.2430    6.9740    3.5873 C   0  0  0  0  0  0  0  0  0  0  0  0
    5.4982    6.7577    4.7619 C   0  0  0  0  0  0  0  0  0  0  0  0
    4.1874    7.2389    4.8433 C   0  0  0  0  0  0  0  0  0  0  0  0
    3.5979    7.9114    3.7571 C   0  0  0  0  0  0  0  0  0  0  0  0
    2.2515    8.3180    3.8264 C   0  0  0  0  0  0  0  0  0  0  0  0
    1.6404    8.9089    2.7199 C   0  0  0  0  0  0  0  0  0  0  0  0
    2.3639    9.1069    1.5374 C   0  0  0  0  0  0  0  0  0  0  0  0
    3.7119    8.7369    1.4633 C   0  0  0  0  0  0  0  0  0  0  0  0
    4.3469    8.1397    2.5714 C   0  0  0  0  0  0  0  0  0  0  0  0
    7.5476    6.3845    3.1706 C   0  0  0  0  0  0  0  0  0  0  0  0
    8.5084    5.8395    3.9409 C   0  0  0  0  0  0  0  0  0  0  0  0
    8.3815    5.7143    5.3723 C   0  0  0  0  0  0  0  0  0  0  0  0
    8.2935    5.5926    6.5257 N   0  0  0  0  0  0  0  0  0  0  0  0
    9.7927    5.4503    3.3960 C   0  0  0  0  0  0  0  0  0  0  0  0
   10.8236    5.1419    2.9537 N   0  0  0  0  0  0  0  0  0  0  0  0
   -1.1196   -7.5638    2.4598 H   0  0  0  0  0  0  0  0  0  0  0  0
   -4.9641   -9.1507   -2.0945 H   0  0  0  0  0  0  0  0  0  0  0  0
   -5.2104   -9.0789   -4.5716 H   0  0  0  0  0  0  0  0  0  0  0  0
   -4.2129   -8.7142   -6.7934 H   0  0  0  0  0  0  0  0  0  0  0  0
   -0.3055   -8.4310   -5.0535 H   0  0  0  0  0  0  0  0  0  0  0  0
   -0.0250   -8.6235   -2.6237 H   0  0  0  0  0  0  0  0  0  0  0  0
   -4.9335   -8.0851    2.8718 H   0  0  0  0  0  0  0  0  0  0  0  0
   -6.1752   -6.6492    5.2502 H   0  0  0  0  0  0  0  0  0  0  0  0
   -6.6985   -4.9142    5.1966 H   0  0  0  0  0  0  0  0  0  0  0  0
   -9.1146   -5.7285    5.0332 H   0  0  0  0  0  0  0  0  0  0  0  0
   -8.5029   -7.4133    5.2532 H   0  0  0  0  0  0  0  0  0  0  0  0
   -8.2796   -6.2104    6.5654 H   0  0  0  0  0  0  0  0  0  0  0  0
   -7.8160   -3.4804   -0.2028 H   0  0  0  0  0  0  0  0  0  0  0  0
  -10.2473   -3.6537    0.2247 H   0  0  0  0  0  0  0  0  0  0  0  0
  -11.1417   -3.3145    2.4971 H   0  0  0  0  0  0  0  0  0  0  0  0
   -9.1171   -3.3055    5.5344 H   0  0  0  0  0  0  0  0  0  0  0  0
  -10.7751   -3.1398    4.8903 H   0  0  0  0  0  0  0  0  0  0  0  0
   -8.6714   -0.8913    5.1583 H   0  0  0  0  0  0  0  0  0  0  0  0
  -10.1470   -1.1160    6.1585 H   0  0  0  0  0  0  0  0  0  0  0  0
  -10.3079   -0.6884    4.4141 H   0  0  0  0  0  0  0  0  0  0  0  0
   -7.1606   -2.6646    3.9743 H   0  0  0  0  0  0  0  0  0  0  0  0
    2.2495    5.9443   -5.1758 H   0  0  0  0  0  0  0  0  0  0  0  0
    3.4029    6.0879   -7.3549 H   0  0  0  0  0  0  0  0  0  0  0  0
    5.2863    4.5964   -7.8740 H   0  0  0  0  0  0  0  0  0  0  0  0
    6.2557    2.1334   -7.2130 H   0  0  0  0  0  0  0  0  0  0  0  0
    6.5891    1.9602   -5.4581 H   0  0  0  0  0  0  0  0  0  0  0  0
    8.5635    2.8869   -6.5577 H   0  0  0  0  0  0  0  0  0  0  0  0
    7.6109    4.2287   -7.2851 H   0  0  0  0  0  0  0  0  0  0  0  0
    7.8460    4.1568   -5.4961 H   0  0  0  0  0  0  0  0  0  0  0  0
    4.8758    2.7290   -4.0044 H   0  0  0  0  0  0  0  0  0  0  0  0
   -0.7868    1.0324    1.3117 H   0  0  0  0  0  0  0  0  0  0  0  0
   -1.4732   -0.5423    1.6751 H   0  0  0  0  0  0  0  0  0  0  0  0
   -2.3849    1.9690    3.2382 H   0  0  0  0  0  0  0  0  0  0  0  0
   -2.5821    0.2495    3.6958 H   0  0  0  0  0  0  0  0  0  0  0  0
   -0.9354    0.9927    3.7065 H   0  0  0  0  0  0  0  0  0  0  0  0
    0.2190    3.5956    1.2965 H   0  0  0  0  0  0  0  0  0  0  0  0
   -1.5097    3.1951    1.6077 H   0  0  0  0  0  0  0  0  0  0  0  0
   -2.2740    5.1426    0.2991 H   0  0  0  0  0  0  0  0  0  0  0  0
   -1.2005    5.6181    1.6767 H   0  0  0  0  0  0  0  0  0  0  0  0
   -0.5599    5.6207   -0.0059 H   0  0  0  0  0  0  0  0  0  0  0  0
    6.0062    5.0016   -3.4041 H   0  0  0  0  0  0  0  0  0  0  0  0
    9.2805    3.5685   -0.8984 H   0  0  0  0  0  0  0  0  0  0  0  0
   10.5536    3.8161   -2.1326 H   0  0  0  0  0  0  0  0  0  0  0  0
    9.2063    1.7065   -2.4788 H   0  0  0  0  0  0  0  0  0  0  0  0
    7.7309    2.7202   -2.7769 H   0  0  0  0  0  0  0  0  0  0  0  0
    9.1679    2.8317   -3.8987 H   0  0  0  0  0  0  0  0  0  0  0  0
    8.6412    4.8245    1.1302 H   0  0  0  0  0  0  0  0  0  0  0  0
    5.8752    6.1585    5.5792 H   0  0  0  0  0  0  0  0  0  0  0  0
    3.5996    7.0307    5.7367 H   0  0  0  0  0  0  0  0  0  0  0  0
    1.6689    8.1451    4.7164 H   0  0  0  0  0  0  0  0  0  0  0  0
    0.5954    9.1889    2.7695 H   0  0  0  0  0  0  0  0  0  0  0  0
    1.8812    9.5452    0.6828 H   0  0  0  0  0  0  0  0  0  0  0  0
    4.2174    8.8959    0.5263 H   0  0  0  0  0  0  0  0  0  0  0  0
  1  2  2  3
  2  3  1  0
  3  4  2  0
  3  5  1  0
  5  6  2  0
  6  7  1  0
  7  8  2  0
  8  9  1  0
  9 10  2  0
 10 11  1  0
 10 12  1  0
 12 13  2  0
 13 14  1  0
 14 15  2  0
 15 16  1  0
 16 17  2  3
 17 18  1  0
 18 19  3  0
 17 20  1  0
 20 21  3  0
  1 22  1  0
 22 23  2  0
 23 24  1  0
 24 25  1  0
 25 26  1  0
 26 27  1  0
 24 28  2  0
 28 29  1  0
 28 30  1  0
 30 31  2  0
 31 32  1  0
 32 33  2  0
 33 34  1  0
 34 35  2  0
 35 36  1  0
 36 37  1  0
 37 38  1  0
 36 39  2  0
 31 40  1  0
 40 41  1  0
 41 42  1  0
 42 43  1  0
 43 44  1  0
 44 45  1  0
 45 46  2  0
 46 47  1  0
 47 48  1  0
 45 49  1  0
 49 50  1  0
 50 51  1  0
 51 52  1  0
 52 53  1  0
 53 54  1  0
 54 55  2  0
 55 56  1  0
 56 57  2  0
 57 58  1  0
 58 59  1  0
 59 60  1  0
 58 61  2  0
 53 62  2  0
 62 63  1  0
 63 64  1  0
 64 65  1  0
 65 66  1  0
 66 67  1  0
 67 68  1  0
 68 69  1  0
 69 70  1  0
 70 71  1  0
 71 72  1  0
 69 73  1  0
 73 74  1  0
 66 75  1  0
 75 76  1  0
 62 77  1  0
 77 78  2  0
 78 79  1  0
 79 80  1  0
 80 81  1  0
 81 82  1  0
 79 83  2  0
 83 84  1  0
 83 85  1  0
 85 86  2  3
 86 87  1  0
 87 88  2  0
 87 89  1  0
 89 90  2  0
 90 91  1  0
 91 92  2  0
 92 93  1  0
 93 94  2  0
 94 95  1  0
 95 96  2  0
 96 97  1  0
 97 98  2  0
 90 99  1  0
 99100  2  3
100101  1  0
101102  3  0
100103  1  0
103104  3  0
 16  2  1  0
 29 22  1  0
 72 30  1  0
 84 77  1  0
 99 86  1  0
 15  5  1  0
 39 32  1  0
 71 40  2  0
 98 89  1  0
 13  7  1  0
 70 42  2  0
 98 93  1  0
 68 43  2  0
 48 44  2  0
 67 49  2  0
 65 50  2  0
 64 52  2  0
 61 54  1  0
  1105  1  0
  6106  1  0
  8107  1  0
  9108  1  0
 12109  1  0
 14110  1  0
 23111  1  0
 26112  1  0
 26113  1  0
 27114  1  0
 27115  1  0
 27116  1  0
 33117  1  0
 34118  1  0
 35119  1  0
 37120  1  0
 37121  1  0
 38122  1  0
 38123  1  0
 38124  1  0
 39125  1  0
 55126  1  0
 56127  1  0
 57128  1  0
 59129  1  0
 59130  1  0
 60131  1  0
 60132  1  0
 60133  1  0
 61134  1  0
 73135  1  0
 73136  1  0
 74137  1  0
 74138  1  0
 74139  1  0
 75140  1  0
 75141  1  0
 76142  1  0
 76143  1  0
 76144  1  0
 78145  1  0
 81146  1  0
 81147  1  0
 82148  1  0
 82149  1  0
 82150  1  0
 85151  1  0
 91152  1  0
 92153  1  0
 94154  1  0
 95155  1  0
 96156  1  0
 97157  1  0
M  END

