
     RDKit          3D

130141  0  0  0  0  0  0  0  0999 V2000
    0.7507    4.7151    7.0520 C   0  0  0  0  0  0  0  0  0  0  0  0
    2.0549    4.6596    7.3879 C   0  0  0  0  0  0  0  0  0  0  0  0
    2.6342    3.6810    8.3097 C   0  0  0  0  0  0  0  0  0  0  0  0
    1.9915    2.9297    9.0941 O   0  0  0  0  0  0  0  0  0  0  0  0
    4.0716    3.8038    8.2632 C   0  0  0  0  0  0  0  0  0  0  0  0
    5.0091    3.0821    9.0015 C   0  0  0  0  0  0  0  0  0  0  0  0
    6.3712    3.3549    8.8048 C   0  0  0  0  0  0  0  0  0  0  0  0
    7.3504    2.6550    9.5252 C   0  0  0  0  0  0  0  0  0  0  0  0
    8.7049    2.9036    9.2864 C   0  0  0  0  0  0  0  0  0  0  0  0
    9.0947    3.8401    8.3220 C   0  0  0  0  0  0  0  0  0  0  0  0
   10.4134    4.0635    8.0900 F   0  0  0  0  0  0  0  0  0  0  0  0
    8.1310    4.5550    7.6058 C   0  0  0  0  0  0  0  0  0  0  0  0
    6.7661    4.3347    7.8478 C   0  0  0  0  0  0  0  0  0  0  0  0
    5.7923    5.0700    7.1458 C   0  0  0  0  0  0  0  0  0  0  0  0
    4.4308    4.8063    7.3746 C   0  0  0  0  0  0  0  0  0  0  0  0
    3.1989    5.4401    6.8027 C   0  0  0  0  0  0  0  0  0  0  0  0
    3.1399    6.4022    5.8332 C   0  0  0  0  0  0  0  0  0  0  0  0
    1.9068    6.9486    5.3291 C   0  0  0  0  0  0  0  0  0  0  0  0
    0.9286    7.4096    4.9100 N   0  0  0  0  0  0  0  0  0  0  0  0
    4.3081    6.9328    5.1835 C   0  0  0  0  0  0  0  0  0  0  0  0
    5.2355    7.3587    4.6286 N   0  0  0  0  0  0  0  0  0  0  0  0
   -0.1064    3.5168    6.9409 C   0  0  0  0  0  0  0  0  0  0  0  0
   -1.4298    3.5648    6.5213 C   0  0  0  0  0  0  0  0  0  0  0  0
   -1.8926    2.3760    5.9299 C   0  0  0  0  0  0  0  0  0  0  0  0
   -3.4742    2.3325    5.0822 S   0  0  0  0  0  0  0  0  0  0  0  0
   -2.9157    3.2561    3.6028 C   0  0  0  0  0  0  0  0  0  0  0  0
   -1.9613    2.4349    2.7416 C   0  0  0  0  0  0  0  0  0  0  0  0
   -0.9432    1.3483    5.9198 C   0  0  0  0  0  0  0  0  0  0  0  0
    0.4675    1.9780    6.5830 S   0  0  0  0  0  0  0  0  0  0  0  0
   -0.9661    0.0759    5.1610 C   0  0  0  0  0  0  0  0  0  0  0  0
   -2.0881   -0.5997    4.6488 C   0  0  0  0  0  0  0  0  0  0  0  0
   -1.7212   -1.6263    3.7623 C   0  0  0  0  0  0  0  0  0  0  0  0
   -2.4623   -2.3962    2.6740 C   0  0  0  0  0  0  0  0  0  0  0  0
   -3.3958   -3.4513    3.3272 C   0  0  0  0  0  0  0  0  0  0  0  0
   -4.0314   -4.4356    2.3412 C   0  0  0  0  0  0  0  0  0  0  0  0
   -3.1663   -1.4265    1.6753 C   0  0  0  0  0  0  0  0  0  0  0  0
   -4.5165   -0.8573    2.1300 C   0  0  0  0  0  0  0  0  0  0  0  0
   -1.2538   -3.0285    1.9665 C   0  0  0  0  0  0  0  0  0  0  0  0
   -0.0485   -2.6325    2.5568 C   0  0  0  0  0  0  0  0  0  0  0  0
   -0.3800   -1.8037    3.6715 C   0  0  0  0  0  0  0  0  0  0  0  0
    0.4477   -0.6466    4.5448 S   0  0  0  0  0  0  0  0  0  0  0  0
    1.1937   -2.8065    1.9452 C   0  0  0  0  0  0  0  0  0  0  0  0
    1.2030   -3.4086    0.6798 C   0  0  0  0  0  0  0  0  0  0  0  0
    2.3687   -3.5060   -0.3063 C   0  0  0  0  0  0  0  0  0  0  0  0
    3.4698   -4.4410    0.2596 C   0  0  0  0  0  0  0  0  0  0  0  0
    4.6378   -4.6876   -0.7007 C   0  0  0  0  0  0  0  0  0  0  0  0
    2.8588   -2.0965   -0.7686 C   0  0  0  0  0  0  0  0  0  0  0  0
    3.6353   -1.2812    0.2694 C   0  0  0  0  0  0  0  0  0  0  0  0
    1.6395   -4.1752   -1.4602 C   0  0  0  0  0  0  0  0  0  0  0  0
    0.3351   -4.4273   -1.1663 C   0  0  0  0  0  0  0  0  0  0  0  0
    0.0175   -3.9104    0.1361 C   0  0  0  0  0  0  0  0  0  0  0  0
   -1.2338   -3.7100    0.7361 C   0  0  0  0  0  0  0  0  0  0  0  0
   -0.5552   -4.6997   -2.5566 S   0  0  0  0  0  0  0  0  0  0  0  0
    0.7947   -4.5665   -3.5769 C   0  0  0  0  0  0  0  0  0  0  0  0
    1.9237   -4.2275   -2.8290 C   0  0  0  0  0  0  0  0  0  0  0  0
    0.6784   -4.3717   -5.0161 C   0  0  0  0  0  0  0  0  0  0  0  0
    0.2909   -5.3226   -5.9481 C   0  0  0  0  0  0  0  0  0  0  0  0
    0.0830   -4.7834   -7.2265 C   0  0  0  0  0  0  0  0  0  0  0  0
   -0.3487   -5.7875   -8.6485 S   0  0  0  0  0  0  0  0  0  0  0  0
   -2.1524   -5.5433   -8.4992 C   0  0  0  0  0  0  0  0  0  0  0  0
   -2.7497   -6.5019   -7.4777 C   0  0  0  0  0  0  0  0  0  0  0  0
    0.2590   -3.4026   -7.2769 C   0  0  0  0  0  0  0  0  0  0  0  0
    0.7343   -2.8651   -5.7552 S   0  0  0  0  0  0  0  0  0  0  0  0
   -0.0375   -2.5286   -8.4220 C   0  0  0  0  0  0  0  0  0  0  0  0
   -1.0139   -1.6003   -8.3893 C   0  0  0  0  0  0  0  0  0  0  0  0
   -1.8853   -1.3183   -7.2372 C   0  0  0  0  0  0  0  0  0  0  0  0
   -2.1179   -2.0855   -6.2638 O   0  0  0  0  0  0  0  0  0  0  0  0
   -2.5222   -0.0391   -7.4503 C   0  0  0  0  0  0  0  0  0  0  0  0
   -3.3299    0.6721   -6.5683 C   0  0  0  0  0  0  0  0  0  0  0  0
   -3.8110    1.9244   -6.9660 C   0  0  0  0  0  0  0  0  0  0  0  0
   -3.4637    2.4590   -8.2290 C   0  0  0  0  0  0  0  0  0  0  0  0
   -3.9327    3.7095   -8.6647 O   0  0  0  0  0  0  0  0  0  0  0  0
   -4.8063    4.5476   -7.9121 C   0  0  0  0  0  0  0  0  0  0  0  0
   -2.6286    1.7224   -9.0880 C   0  0  0  0  0  0  0  0  0  0  0  0
   -2.1795    0.4495   -8.6979 C   0  0  0  0  0  0  0  0  0  0  0  0
   -1.3159   -0.5434   -9.4069 C   0  0  0  0  0  0  0  0  0  0  0  0
   -1.0631   -0.5939  -10.7417 C   0  0  0  0  0  0  0  0  0  0  0  0
   -1.5522    0.4005  -11.6611 C   0  0  0  0  0  0  0  0  0  0  0  0
   -1.9451    1.1906  -12.4115 N   0  0  0  0  0  0  0  0  0  0  0  0
   -0.4193   -1.7218  -11.3644 C   0  0  0  0  0  0  0  0  0  0  0  0
    0.0907   -2.6269  -11.8765 N   0  0  0  0  0  0  0  0  0  0  0  0
    0.3293    5.6046    6.6299 H   0  0  0  0  0  0  0  0  0  0  0  0
    4.6851    2.3143    9.6903 H   0  0  0  0  0  0  0  0  0  0  0  0
    7.0700    1.9118   10.2638 H   0  0  0  0  0  0  0  0  0  0  0  0
    9.4588    2.3580    9.8426 H   0  0  0  0  0  0  0  0  0  0  0  0
    8.4492    5.2729    6.8543 H   0  0  0  0  0  0  0  0  0  0  0  0
    6.1185    5.8355    6.4678 H   0  0  0  0  0  0  0  0  0  0  0  0
   -1.9991    4.4791    6.5022 H   0  0  0  0  0  0  0  0  0  0  0  0
   -2.4282    4.2089    3.9016 H   0  0  0  0  0  0  0  0  0  0  0  0
   -3.8141    3.5028    3.0016 H   0  0  0  0  0  0  0  0  0  0  0  0
   -0.9726    2.3364    3.2369 H   0  0  0  0  0  0  0  0  0  0  0  0
   -1.8129    2.9454    1.7667 H   0  0  0  0  0  0  0  0  0  0  0  0
   -2.3876    1.4295    2.5569 H   0  0  0  0  0  0  0  0  0  0  0  0
   -3.1090   -0.3314    4.8659 H   0  0  0  0  0  0  0  0  0  0  0  0
   -2.8303   -4.0397    4.0798 H   0  0  0  0  0  0  0  0  0  0  0  0
   -4.2022   -2.9312    3.8797 H   0  0  0  0  0  0  0  0  0  0  0  0
   -4.4000   -3.9247    1.4319 H   0  0  0  0  0  0  0  0  0  0  0  0
   -3.2977   -5.2151    2.0554 H   0  0  0  0  0  0  0  0  0  0  0  0
   -4.8912   -4.9429    2.8247 H   0  0  0  0  0  0  0  0  0  0  0  0
   -3.3426   -1.9372    0.7064 H   0  0  0  0  0  0  0  0  0  0  0  0
   -2.4812   -0.5850    1.4446 H   0  0  0  0  0  0  0  0  0  0  0  0
   -5.3080   -1.6277    2.0640 H   0  0  0  0  0  0  0  0  0  0  0  0
   -4.7929   -0.0052    1.4823 H   0  0  0  0  0  0  0  0  0  0  0  0
   -4.4801   -0.4863    3.1663 H   0  0  0  0  0  0  0  0  0  0  0  0
    2.0948   -2.4333    2.4103 H   0  0  0  0  0  0  0  0  0  0  0  0
    3.8714   -4.0209    1.2061 H   0  0  0  0  0  0  0  0  0  0  0  0
    3.0229   -5.4244    0.5153 H   0  0  0  0  0  0  0  0  0  0  0  0
    5.3708   -5.3645   -0.2145 H   0  0  0  0  0  0  0  0  0  0  0  0
    5.1582   -3.7412   -0.9519 H   0  0  0  0  0  0  0  0  0  0  0  0
    4.2857   -5.1808   -1.6280 H   0  0  0  0  0  0  0  0  0  0  0  0
    1.9821   -1.4920   -1.0910 H   0  0  0  0  0  0  0  0  0  0  0  0
    3.5106   -2.2045   -1.6606 H   0  0  0  0  0  0  0  0  0  0  0  0
    4.4607   -1.8681    0.7201 H   0  0  0  0  0  0  0  0  0  0  0  0
    4.0927   -0.3985   -0.2261 H   0  0  0  0  0  0  0  0  0  0  0  0
    2.9643   -0.8983    1.0604 H   0  0  0  0  0  0  0  0  0  0  0  0
   -2.1412   -3.9909    0.2205 H   0  0  0  0  0  0  0  0  0  0  0  0
    2.8583   -3.9053   -3.2682 H   0  0  0  0  0  0  0  0  0  0  0  0
    0.1511   -6.3686   -5.7094 H   0  0  0  0  0  0  0  0  0  0  0  0
   -2.6081   -5.7540   -9.4886 H   0  0  0  0  0  0  0  0  0  0  0  0
   -2.3885   -4.4922   -8.2263 H   0  0  0  0  0  0  0  0  0  0  0  0
   -2.4527   -7.5486   -7.7019 H   0  0  0  0  0  0  0  0  0  0  0  0
   -3.8583   -6.4339   -7.5102 H   0  0  0  0  0  0  0  0  0  0  0  0
   -2.4123   -6.2353   -6.4554 H   0  0  0  0  0  0  0  0  0  0  0  0
    0.6011   -2.6433   -9.2813 H   0  0  0  0  0  0  0  0  0  0  0  0
   -3.5712    0.2731   -5.5891 H   0  0  0  0  0  0  0  0  0  0  0  0
   -4.4411    2.4753   -6.2801 H   0  0  0  0  0  0  0  0  0  0  0  0
   -4.3153    4.8626   -6.9683 H   0  0  0  0  0  0  0  0  0  0  0  0
   -5.7525    4.0095   -7.6867 H   0  0  0  0  0  0  0  0  0  0  0  0
   -5.0458    5.4520   -8.5099 H   0  0  0  0  0  0  0  0  0  0  0  0
   -2.3435    2.1702  -10.0270 H   0  0  0  0  0  0  0  0  0  0  0  0
  1  2  2  3
  2  3  1  0
  3  4  2  0
  3  5  1  0
  5  6  2  0
  6  7  1  0
  7  8  2  0
  8  9  1  0
  9 10  2  0
 10 11  1  0
 10 12  1  0
 12 13  2  0
 13 14  1  0
 14 15  2  0
 15 16  1  0
 16 17  2  3
 17 18  1  0
 18 19  3  0
 17 20  1  0
 20 21  3  0
  1 22  1  0
 22 23  2  0
 23 24  1  0
 24 25  1  0
 25 26  1  0
 26 27  1  0
 24 28  2  0
 28 29  1  0
 28 30  1  0
 30 31  2  0
 31 32  1  0
 32 33  1  0
 33 34  1  0
 34 35  1  0
 33 36  1  0
 36 37  1  0
 33 38  1  0
 38 39  2  0
 39 40  1  0
 40 41  1  0
 39 42  1  0
 42 43  2  0
 43 44  1  0
 44 45  1  0
 45 46  1  0
 44 47  1  0
 47 48  1  0
 44 49  1  0
 49 50  2  0
 50 51  1  0
 51 52  2  0
 50 53  1  0
 53 54  1  0
 54 55  2  0
 54 56  1  0
 56 57  2  0
 57 58  1  0
 58 59  1  0
 59 60  1  0
 60 61  1  0
 58 62  2  0
 62 63  1  0
 62 64  1  0
 64 65  2  3
 65 66  1  0
 66 67  2  0
 66 68  1  0
 68 69  2  0
 69 70  1  0
 70 71  2  0
 71 72  1  0
 72 73  1  0
 71 74  1  0
 74 75  2  0
 75 76  1  0
 76 77  2  3
 77 78  1  0
 78 79  3  0
 77 80  1  0
 80 81  3  0
 16  2  1  0
 29 22  1  0
 41 30  1  0
 51 43  1  0
 63 56  1  0
 76 65  1  0
 15  5  1  0
 40 32  2  0
 55 49  1  0
 75 68  1  0
 13  7  1  0
 52 38  1  0
  1 82  1  0
  6 83  1  0
  8 84  1  0
  9 85  1  0
 12 86  1  0
 14 87  1  0
 23 88  1  0
 26 89  1  0
 26 90  1  0
 27 91  1  0
 27 92  1  0
 27 93  1  0
 31 94  1  0
 34 95  1  0
 34 96  1  0
 35 97  1  0
 35 98  1  0
 35 99  1  0
 36100  1  0
 36101  1  0
 37102  1  0
 37103  1  0
 37104  1  0
 42105  1  0
 45106  1  0
 45107  1  0
 46108  1  0
 46109  1  0
 46110  1  0
 47111  1  0
 47112  1  0
 48113  1  0
 48114  1  0
 48115  1  0
 52116  1  0
 55117  1  0
 57118  1  0
 60119  1  0
 60120  1  0
 61121  1  0
 61122  1  0
 61123  1  0
 64124  1  0
 69125  1  0
 70126  1  0
 73127  1  0
 73128  1  0
 73129  1  0
 74130  1  0
M  END

