
     RDKit          3D

170188  0  0  0  0  0  0  0  0999 V2000
   -7.2811   -5.2012    1.1316 C   0  0  0  0  0  0  0  0  0  0  0  0
   -7.2553   -6.4934    1.5211 C   0  0  0  0  0  0  0  0  0  0  0  0
   -6.0721   -7.3634    1.5475 C   0  0  0  0  0  0  0  0  0  0  0  0
   -4.8700   -6.9913    1.5718 O   0  0  0  0  0  0  0  0  0  0  0  0
   -6.5124   -8.7369    1.6493 C   0  0  0  0  0  0  0  0  0  0  0  0
   -5.7373   -9.8931    1.5754 C   0  0  0  0  0  0  0  0  0  0  0  0
   -6.3833  -11.1393    1.6424 C   0  0  0  0  0  0  0  0  0  0  0  0
   -5.6431  -12.3277    1.5657 C   0  0  0  0  0  0  0  0  0  0  0  0
   -6.2913  -13.5635    1.6328 C   0  0  0  0  0  0  0  0  0  0  0  0
   -7.6816  -13.6254    1.7711 C   0  0  0  0  0  0  0  0  0  0  0  0
   -8.2968  -14.8315    1.8299 F   0  0  0  0  0  0  0  0  0  0  0  0
   -8.4366  -12.4507    1.8381 C   0  0  0  0  0  0  0  0  0  0  0  0
   -7.7990  -11.1989    1.7720 C   0  0  0  0  0  0  0  0  0  0  0  0
   -8.5531  -10.0083    1.8281 C   0  0  0  0  0  0  0  0  0  0  0  0
   -7.8892   -8.7714    1.7866 C   0  0  0  0  0  0  0  0  0  0  0  0
   -8.4238   -7.3764    1.8300 C   0  0  0  0  0  0  0  0  0  0  0  0
   -9.6462   -6.9882    2.2832 C   0  0  0  0  0  0  0  0  0  0  0  0
   -9.9818   -5.6102    2.5338 C   0  0  0  0  0  0  0  0  0  0  0  0
  -10.2621   -4.5080    2.7446 N   0  0  0  0  0  0  0  0  0  0  0  0
  -10.6580   -7.9250    2.6934 C   0  0  0  0  0  0  0  0  0  0  0  0
  -11.4845   -8.6613    3.0340 N   0  0  0  0  0  0  0  0  0  0  0  0
   -6.0888   -4.4507    0.7056 C   0  0  0  0  0  0  0  0  0  0  0  0
   -5.6437   -3.2652    1.2747 C   0  0  0  0  0  0  0  0  0  0  0  0
   -4.4513   -2.8005    0.7047 C   0  0  0  0  0  0  0  0  0  0  0  0
   -3.5997   -1.3311    1.2914 S   0  0  0  0  0  0  0  0  0  0  0  0
   -4.4551   -0.1883    0.1524 C   0  0  0  0  0  0  0  0  0  0  0  0
   -5.5847    0.5231    0.8844 C   0  0  0  0  0  0  0  0  0  0  0  0
   -3.9895   -3.5921   -0.3429 C   0  0  0  0  0  0  0  0  0  0  0  0
   -5.0445   -4.8838   -0.5398 S   0  0  0  0  0  0  0  0  0  0  0  0
   -2.6543   -3.5316   -0.9462 C   0  0  0  0  0  0  0  0  0  0  0  0
   -2.3503   -3.4426   -2.3173 C   0  0  0  0  0  0  0  0  0  0  0  0
   -3.3156   -3.0457   -3.3549 C   0  0  0  0  0  0  0  0  0  0  0  0
   -3.2615   -1.7462   -3.8829 C   0  0  0  0  0  0  0  0  0  0  0  0
   -4.2125   -1.3318   -4.8171 C   0  0  0  0  0  0  0  0  0  0  0  0
   -5.2208   -2.2067   -5.2316 C   0  0  0  0  0  0  0  0  0  0  0  0
   -5.2702   -3.5152   -4.7277 C   0  0  0  0  0  0  0  0  0  0  0  0
   -6.3976   -4.4307   -5.1240 C   0  0  0  0  0  0  0  0  0  0  0  0
   -7.6446   -4.1526   -4.2877 C   0  0  0  0  0  0  0  0  0  0  0  0
   -4.3137   -3.9311   -3.7843 C   0  0  0  0  0  0  0  0  0  0  0  0
   -0.9711   -3.5146   -2.5224 C   0  0  0  0  0  0  0  0  0  0  0  0
    0.0289   -3.3678   -3.8962 S   0  0  0  0  0  0  0  0  0  0  0  0
    1.4255   -3.5418   -2.9389 C   0  0  0  0  0  0  0  0  0  0  0  0
    2.7434   -3.2016   -3.0440 C   0  0  0  0  0  0  0  0  0  0  0  0
    3.4591   -2.6692   -4.1216 C   0  0  0  0  0  0  0  0  0  0  0  0
    4.7490   -2.1095   -3.8851 C   0  0  0  0  0  0  0  0  0  0  0  0
    5.3799   -1.5456   -4.9440 N   0  0  0  0  0  0  0  0  0  0  0  0
    4.2400   -1.8008   -6.1182 S   0  0  0  0  0  0  0  0  0  0  0  0
    2.9753   -2.5811   -5.3844 N   0  0  0  0  0  0  0  0  0  0  0  0
    5.2781   -2.1644   -2.5896 C   0  0  0  0  0  0  0  0  0  0  0  0
    6.4047   -1.5912   -2.0450 C   0  0  0  0  0  0  0  0  0  0  0  0
    7.1895   -0.1331   -2.3944 S   0  0  0  0  0  0  0  0  0  0  0  0
    7.4292    0.2320   -0.7488 C   0  0  0  0  0  0  0  0  0  0  0  0
    7.5194    1.4861   -0.1256 C   0  0  0  0  0  0  0  0  0  0  0  0
    8.1525    2.6723   -0.7464 C   0  0  0  0  0  0  0  0  0  0  0  0
    7.7699    3.1303   -2.0187 C   0  0  0  0  0  0  0  0  0  0  0  0
    8.3900    4.2489   -2.5828 C   0  0  0  0  0  0  0  0  0  0  0  0
    9.4058    4.9138   -1.8916 C   0  0  0  0  0  0  0  0  0  0  0  0
    9.8018    4.4690   -0.6213 C   0  0  0  0  0  0  0  0  0  0  0  0
   10.8686    5.2050    0.1407 C   0  0  0  0  0  0  0  0  0  0  0  0
   10.2503    6.2850    1.0228 C   0  0  0  0  0  0  0  0  0  0  0  0
    9.1569    3.3607   -0.0473 C   0  0  0  0  0  0  0  0  0  0  0  0
    6.9455    1.4672    1.1716 C   0  0  0  0  0  0  0  0  0  0  0  0
    6.4196   -0.1161    1.4904 S   0  0  0  0  0  0  0  0  0  0  0  0
    6.8972   -0.7678    0.0326 C   0  0  0  0  0  0  0  0  0  0  0  0
    6.3292   -1.8054   -0.6967 C   0  0  0  0  0  0  0  0  0  0  0  0
    5.2525   -2.5516   -0.3544 N   0  0  0  0  0  0  0  0  0  0  0  0
    4.5588   -2.7076   -1.5168 C   0  0  0  0  0  0  0  0  0  0  0  0
    3.2283   -3.1545   -1.7263 C   0  0  0  0  0  0  0  0  0  0  0  0
    2.2055   -3.3403   -0.8239 N   0  0  0  0  0  0  0  0  0  0  0  0
    1.1412   -3.6356   -1.6126 C   0  0  0  0  0  0  0  0  0  0  0  0
   -0.2259   -3.6259   -1.3777 C   0  0  0  0  0  0  0  0  0  0  0  0
   -1.2224   -3.6575   -0.0359 S   0  0  0  0  0  0  0  0  0  0  0  0
    2.0641   -2.7315    0.5097 C   0  0  0  0  0  0  0  0  0  0  0  0
    1.8739   -3.7895    1.6028 C   0  0  0  0  0  0  0  0  0  0  0  0
    5.1491   -3.3536    0.8742 C   0  0  0  0  0  0  0  0  0  0  0  0
    6.4505   -4.0974    1.1756 C   0  0  0  0  0  0  0  0  0  0  0  0
    6.2620    2.6062    1.8410 C   0  0  0  0  0  0  0  0  0  0  0  0
    5.7082    3.6432    1.0611 C   0  0  0  0  0  0  0  0  0  0  0  0
    4.6076    4.3557    1.5407 C   0  0  0  0  0  0  0  0  0  0  0  0
    3.6910    5.2803    0.7570 C   0  0  0  0  0  0  0  0  0  0  0  0
    3.0683    4.5721   -0.4907 C   0  0  0  0  0  0  0  0  0  0  0  0
    4.0094    4.2817   -1.6672 C   0  0  0  0  0  0  0  0  0  0  0  0
    4.4448    6.6076    0.4604 C   0  0  0  0  0  0  0  0  0  0  0  0
    3.6311    7.6585   -0.3009 C   0  0  0  0  0  0  0  0  0  0  0  0
    2.6076    5.4913    1.8044 C   0  0  0  0  0  0  0  0  0  0  0  0
    2.9124    4.8625    2.9984 C   0  0  0  0  0  0  0  0  0  0  0  0
    4.1631    4.1556    2.8320 C   0  0  0  0  0  0  0  0  0  0  0  0
    4.7812    3.2444    3.6868 C   0  0  0  0  0  0  0  0  0  0  0  0
    5.8320    2.4636    3.1817 C   0  0  0  0  0  0  0  0  0  0  0  0
    1.9840    4.7728    4.0378 C   0  0  0  0  0  0  0  0  0  0  0  0
    0.7120    5.3348    3.8530 C   0  0  0  0  0  0  0  0  0  0  0  0
    0.3727    5.9630    2.6357 C   0  0  0  0  0  0  0  0  0  0  0  0
    1.3343    6.0376    1.6065 C   0  0  0  0  0  0  0  0  0  0  0  0
   -1.0330    6.3321    2.3670 C   0  0  0  0  0  0  0  0  0  0  0  0
   -1.4082    7.3627    1.5918 C   0  0  0  0  0  0  0  0  0  0  0  0
   -0.6445    8.6007    1.3838 C   0  0  0  0  0  0  0  0  0  0  0  0
    0.5398    8.8200    1.7461 O   0  0  0  0  0  0  0  0  0  0  0  0
   -1.5413    9.5922    0.8268 C   0  0  0  0  0  0  0  0  0  0  0  0
   -1.2632   10.9260    0.5222 C   0  0  0  0  0  0  0  0  0  0  0  0
   -2.3037   11.7312    0.0430 C   0  0  0  0  0  0  0  0  0  0  0  0
   -3.5976   11.2019   -0.1034 C   0  0  0  0  0  0  0  0  0  0  0  0
   -5.1653   12.4378   -0.7940 I   0  0  0  0  0  0  0  0  0  0  0  0
   -3.8610    9.8618    0.2237 C   0  0  0  0  0  0  0  0  0  0  0  0
   -2.8074    9.0503    0.6765 C   0  0  0  0  0  0  0  0  0  0  0  0
   -2.7782    7.6105    1.0574 C   0  0  0  0  0  0  0  0  0  0  0  0
   -3.6735    6.6525    0.6982 C   0  0  0  0  0  0  0  0  0  0  0  0
   -3.3593    5.2499    0.7867 C   0  0  0  0  0  0  0  0  0  0  0  0
   -3.1071    4.1227    0.8453 N   0  0  0  0  0  0  0  0  0  0  0  0
   -4.9477    6.9589    0.1018 C   0  0  0  0  0  0  0  0  0  0  0  0
   -5.9815    7.1955   -0.3564 N   0  0  0  0  0  0  0  0  0  0  0  0
   -8.2052   -4.6545    1.0794 H   0  0  0  0  0  0  0  0  0  0  0  0
   -4.6626   -9.8216    1.4561 H   0  0  0  0  0  0  0  0  0  0  0  0
   -4.5649  -12.3011    1.4522 H   0  0  0  0  0  0  0  0  0  0  0  0
   -5.7121  -14.4754    1.5806 H   0  0  0  0  0  0  0  0  0  0  0  0
   -9.5117  -12.5204    1.9394 H   0  0  0  0  0  0  0  0  0  0  0  0
   -9.6270  -10.0702    1.8755 H   0  0  0  0  0  0  0  0  0  0  0  0
   -6.1397   -2.7819    2.1068 H   0  0  0  0  0  0  0  0  0  0  0  0
   -4.8663   -0.7190   -0.7378 H   0  0  0  0  0  0  0  0  0  0  0  0
   -3.7249    0.5688   -0.2091 H   0  0  0  0  0  0  0  0  0  0  0  0
   -6.2995   -0.2127    1.3151 H   0  0  0  0  0  0  0  0  0  0  0  0
   -5.1617    1.1499    1.7032 H   0  0  0  0  0  0  0  0  0  0  0  0
   -6.1380    1.1822    0.1843 H   0  0  0  0  0  0  0  0  0  0  0  0
   -2.5045   -1.0505   -3.5496 H   0  0  0  0  0  0  0  0  0  0  0  0
   -4.1846   -0.3218   -5.2016 H   0  0  0  0  0  0  0  0  0  0  0  0
   -5.9637   -1.8635   -5.9440 H   0  0  0  0  0  0  0  0  0  0  0  0
   -6.0977   -5.4929   -4.9903 H   0  0  0  0  0  0  0  0  0  0  0  0
   -6.6348   -4.2865   -6.2008 H   0  0  0  0  0  0  0  0  0  0  0  0
   -8.4595   -4.8428   -4.5955 H   0  0  0  0  0  0  0  0  0  0  0  0
   -7.4298   -4.3127   -3.2101 H   0  0  0  0  0  0  0  0  0  0  0  0
   -7.9901   -3.1079   -4.4429 H   0  0  0  0  0  0  0  0  0  0  0  0
   -4.3443   -4.9397   -3.3928 H   0  0  0  0  0  0  0  0  0  0  0  0
    6.9670    2.6511   -2.5623 H   0  0  0  0  0  0  0  0  0  0  0  0
    8.0847    4.6016   -3.5589 H   0  0  0  0  0  0  0  0  0  0  0  0
    9.8800    5.7746   -2.3451 H   0  0  0  0  0  0  0  0  0  0  0  0
   11.5895    5.6734   -0.5634 H   0  0  0  0  0  0  0  0  0  0  0  0
   11.4411    4.4948    0.7789 H   0  0  0  0  0  0  0  0  0  0  0  0
    9.5461    5.8302    1.7514 H   0  0  0  0  0  0  0  0  0  0  0  0
    9.7085    7.0284    0.3993 H   0  0  0  0  0  0  0  0  0  0  0  0
   11.0515    6.8132    1.5807 H   0  0  0  0  0  0  0  0  0  0  0  0
    9.4489    3.0237    0.9375 H   0  0  0  0  0  0  0  0  0  0  0  0
    2.9263   -2.0790    0.7401 H   0  0  0  0  0  0  0  0  0  0  0  0
    1.1920   -2.0409    0.5172 H   0  0  0  0  0  0  0  0  0  0  0  0
    2.4103   -3.4806    2.5247 H   0  0  0  0  0  0  0  0  0  0  0  0
    2.2546   -4.7826    1.2796 H   0  0  0  0  0  0  0  0  0  0  0  0
    0.8024   -3.8990    1.8635 H   0  0  0  0  0  0  0  0  0  0  0  0
    4.9012   -2.6987    1.7365 H   0  0  0  0  0  0  0  0  0  0  0  0
    4.3693   -4.1281    0.7500 H   0  0  0  0  0  0  0  0  0  0  0  0
    7.2784   -3.3833    1.3774 H   0  0  0  0  0  0  0  0  0  0  0  0
    6.7261   -4.7430    0.3185 H   0  0  0  0  0  0  0  0  0  0  0  0
    6.3126   -4.7334    2.0706 H   0  0  0  0  0  0  0  0  0  0  0  0
    6.0264    3.8130    0.0540 H   0  0  0  0  0  0  0  0  0  0  0  0
    2.6049    3.6104   -0.1726 H   0  0  0  0  0  0  0  0  0  0  0  0
    2.2350    5.1898   -0.8880 H   0  0  0  0  0  0  0  0  0  0  0  0
    3.4068    4.1531   -2.5912 H   0  0  0  0  0  0  0  0  0  0  0  0
    4.7248    5.1078   -1.8461 H   0  0  0  0  0  0  0  0  0  0  0  0
    4.5530    3.3284   -1.5105 H   0  0  0  0  0  0  0  0  0  0  0  0
    4.7746    7.0640    1.4203 H   0  0  0  0  0  0  0  0  0  0  0  0
    5.3744    6.3979   -0.1106 H   0  0  0  0  0  0  0  0  0  0  0  0
    4.2802    8.5332   -0.5173 H   0  0  0  0  0  0  0  0  0  0  0  0
    2.7816    8.0160    0.3142 H   0  0  0  0  0  0  0  0  0  0  0  0
    3.2594    7.2592   -1.2657 H   0  0  0  0  0  0  0  0  0  0  0  0
    4.4041    3.0708    4.6857 H   0  0  0  0  0  0  0  0  0  0  0  0
    6.2361    1.6725    3.7998 H   0  0  0  0  0  0  0  0  0  0  0  0
    2.2173    4.2341    4.9479 H   0  0  0  0  0  0  0  0  0  0  0  0
   -0.0332    5.2164    4.6326 H   0  0  0  0  0  0  0  0  0  0  0  0
    1.0563    6.4239    0.6384 H   0  0  0  0  0  0  0  0  0  0  0  0
   -1.7894    5.6729    2.7714 H   0  0  0  0  0  0  0  0  0  0  0  0
   -0.2697   11.3301    0.6552 H   0  0  0  0  0  0  0  0  0  0  0  0
   -2.1078   12.7689   -0.1975 H   0  0  0  0  0  0  0  0  0  0  0  0
   -4.8666    9.4990    0.1416 H   0  0  0  0  0  0  0  0  0  0  0  0
  1  2  2  3
  2  3  1  0
  3  4  2  0
  3  5  1  0
  5  6  2  0
  6  7  1  0
  7  8  2  0
  8  9  1  0
  9 10  2  0
 10 11  1  0
 10 12  1  0
 12 13  2  0
 13 14  1  0
 14 15  2  0
 15 16  1  0
 16 17  2  3
 17 18  1  0
 18 19  3  0
 17 20  1  0
 20 21  3  0
  1 22  1  0
 22 23  2  0
 23 24  1  0
 24 25  1  0
 25 26  1  0
 26 27  1  0
 24 28  2  0
 28 29  1  0
 28 30  1  0
 30 31  2  0
 31 32  1  0
 32 33  2  0
 33 34  1  0
 34 35  2  0
 35 36  1  0
 36 37  1  0
 37 38  1  0
 36 39  2  0
 31 40  1  0
 40 41  1  0
 41 42  1  0
 42 43  1  0
 43 44  1  0
 44 45  1  0
 45 46  2  0
 46 47  1  0
 47 48  1  0
 45 49  1  0
 49 50  1  0
 50 51  1  0
 51 52  1  0
 52 53  1  0
 53 54  1  0
 54 55  2  0
 55 56  1  0
 56 57  2  0
 57 58  1  0
 58 59  1  0
 59 60  1  0
 58 61  2  0
 53 62  2  0
 62 63  1  0
 63 64  1  0
 64 65  1  0
 65 66  1  0
 66 67  1  0
 67 68  1  0
 68 69  1  0
 69 70  1  0
 70 71  1  0
 71 72  1  0
 69 73  1  0
 73 74  1  0
 66 75  1  0
 75 76  1  0
 62 77  1  0
 77 78  2  0
 78 79  1  0
 79 80  1  0
 80 81  1  0
 81 82  1  0
 80 83  1  0
 83 84  1  0
 80 85  1  0
 85 86  2  0
 86 87  1  0
 87 88  1  0
 88 89  2  0
 86 90  1  0
 90 91  2  0
 91 92  1  0
 92 93  2  0
 92 94  1  0
 94 95  2  3
 95 96  1  0
 96 97  2  0
 96 98  1  0
 98 99  2  0
 99100  1  0
100101  2  0
101102  1  0
101103  1  0
103104  2  0
104105  1  0
105106  2  3
106107  1  0
107108  3  0
106109  1  0
109110  3  0
 16  2  1  0
 29 22  1  0
 72 30  1  0
 89 77  1  0
105 95  1  0
 15  5  1  0
 39 32  1  0
 71 40  2  0
 87 79  2  0
104 98  1  0
 13  7  1  0
 70 42  2  0
 93 85  1  0
 68 43  2  0
 48 44  2  0
 67 49  2  0
 65 50  2  0
 64 52  2  0
 61 54  1  0
  1111  1  0
  6112  1  0
  8113  1  0
  9114  1  0
 12115  1  0
 14116  1  0
 23117  1  0
 26118  1  0
 26119  1  0
 27120  1  0
 27121  1  0
 27122  1  0
 33123  1  0
 34124  1  0
 35125  1  0
 37126  1  0
 37127  1  0
 38128  1  0
 38129  1  0
 38130  1  0
 39131  1  0
 55132  1  0
 56133  1  0
 57134  1  0
 59135  1  0
 59136  1  0
 60137  1  0
 60138  1  0
 60139  1  0
 61140  1  0
 73141  1  0
 73142  1  0
 74143  1  0
 74144  1  0
 74145  1  0
 75146  1  0
 75147  1  0
 76148  1  0
 76149  1  0
 76150  1  0
 78151  1  0
 81152  1  0
 81153  1  0
 82154  1  0
 82155  1  0
 82156  1  0
 83157  1  0
 83158  1  0
 84159  1  0
 84160  1  0
 84161  1  0
 88162  1  0
 89163  1  0
 90164  1  0
 91165  1  0
 93166  1  0
 94167  1  0
 99168  1  0
100169  1  0
103170  1  0
M  END

