
     RDKit          3D

169187  0  0  0  0  0  0  0  0999 V2000
    5.5321    0.5316   -5.4689 C   0  0  0  0  0  0  0  0  0  0  0  0
    6.1522    0.0033   -4.3931 C   0  0  0  0  0  0  0  0  0  0  0  0
    5.9067    0.3865   -2.9918 C   0  0  0  0  0  0  0  0  0  0  0  0
    5.0941    1.2572   -2.5843 O   0  0  0  0  0  0  0  0  0  0  0  0
    6.6185   -0.5343   -2.1312 C   0  0  0  0  0  0  0  0  0  0  0  0
    6.6454   -0.5519   -0.7363 C   0  0  0  0  0  0  0  0  0  0  0  0
    7.3754   -1.5596   -0.0896 C   0  0  0  0  0  0  0  0  0  0  0  0
    7.4636   -1.5948    1.3102 C   0  0  0  0  0  0  0  0  0  0  0  0
    8.1980   -2.6001    1.9434 C   0  0  0  0  0  0  0  0  0  0  0  0
    8.8456   -3.5846    1.1894 C   0  0  0  0  0  0  0  0  0  0  0  0
    9.5690   -4.5479    1.8094 F   0  0  0  0  0  0  0  0  0  0  0  0
    8.7538   -3.5744   -0.2077 C   0  0  0  0  0  0  0  0  0  0  0  0
    8.0283   -2.5637   -0.8608 C   0  0  0  0  0  0  0  0  0  0  0  0
    7.9565   -2.5331   -2.2668 C   0  0  0  0  0  0  0  0  0  0  0  0
    7.2749   -1.4784   -2.8975 C   0  0  0  0  0  0  0  0  0  0  0  0
    7.0862   -1.1702   -4.3504 C   0  0  0  0  0  0  0  0  0  0  0  0
    7.8246   -1.6609   -5.3814 C   0  0  0  0  0  0  0  0  0  0  0  0
    8.8888   -2.6124   -5.1907 C   0  0  0  0  0  0  0  0  0  0  0  0
    9.7614   -3.3613   -5.0566 N   0  0  0  0  0  0  0  0  0  0  0  0
    7.7092   -1.1659   -6.7286 C   0  0  0  0  0  0  0  0  0  0  0  0
    7.6292   -0.7724   -7.8147 N   0  0  0  0  0  0  0  0  0  0  0  0
    4.8203    1.8191   -5.4444 C   0  0  0  0  0  0  0  0  0  0  0  0
    5.2678    2.9944   -4.8547 C   0  0  0  0  0  0  0  0  0  0  0  0
    4.3194    4.0244   -4.8715 C   0  0  0  0  0  0  0  0  0  0  0  0
    4.6152    5.5465   -3.9565 S   0  0  0  0  0  0  0  0  0  0  0  0
    4.2499    4.8654   -2.2993 C   0  0  0  0  0  0  0  0  0  0  0  0
    2.7517    4.7211   -2.0643 C   0  0  0  0  0  0  0  0  0  0  0  0
    3.1420    3.6961   -5.5677 C   0  0  0  0  0  0  0  0  0  0  0  0
    3.2847    2.0902   -6.0699 S   0  0  0  0  0  0  0  0  0  0  0  0
    1.8441    4.4081   -5.5180 C   0  0  0  0  0  0  0  0  0  0  0  0
    1.6334    5.7992   -5.3730 C   0  0  0  0  0  0  0  0  0  0  0  0
    2.5180    6.8454   -5.9431 C   0  0  0  0  0  0  0  0  0  0  0  0
    2.7593    8.0599   -5.2756 C   0  0  0  0  0  0  0  0  0  0  0  0
    3.5300    9.0576   -5.8780 C   0  0  0  0  0  0  0  0  0  0  0  0
    4.0603    8.8632   -7.1552 C   0  0  0  0  0  0  0  0  0  0  0  0
    3.8445    7.6524   -7.8312 C   0  0  0  0  0  0  0  0  0  0  0  0
    4.3599    7.4648   -9.2313 C   0  0  0  0  0  0  0  0  0  0  0  0
    3.3542    7.9809  -10.2593 C   0  0  0  0  0  0  0  0  0  0  0  0
    3.0733    6.6499   -7.2193 C   0  0  0  0  0  0  0  0  0  0  0  0
    0.3609    6.0575   -4.8346 C   0  0  0  0  0  0  0  0  0  0  0  0
   -0.0988    7.2310   -3.6861 S   0  0  0  0  0  0  0  0  0  0  0  0
   -1.3666    6.2884   -3.0849 C   0  0  0  0  0  0  0  0  0  0  0  0
   -1.7832    6.0427   -1.7970 C   0  0  0  0  0  0  0  0  0  0  0  0
   -1.7661    6.8425   -0.6461 C   0  0  0  0  0  0  0  0  0  0  0  0
   -2.1350    6.2607    0.6057 C   0  0  0  0  0  0  0  0  0  0  0  0
   -2.0987    7.0667    1.6950 N   0  0  0  0  0  0  0  0  0  0  0  0
   -1.6119    8.4774    0.9757 S   0  0  0  0  0  0  0  0  0  0  0  0
   -1.4249    8.1541   -0.6368 N   0  0  0  0  0  0  0  0  0  0  0  0
   -2.4358    4.8938    0.6512 C   0  0  0  0  0  0  0  0  0  0  0  0
   -2.5987    4.0354    1.7057 C   0  0  0  0  0  0  0  0  0  0  0  0
   -2.5596    4.0328    3.4112 S   0  0  0  0  0  0  0  0  0  0  0  0
   -2.6051    2.3194    3.4518 C   0  0  0  0  0  0  0  0  0  0  0  0
   -2.6607    1.3483    4.4643 C   0  0  0  0  0  0  0  0  0  0  0  0
   -2.4270    1.6271    5.9019 C   0  0  0  0  0  0  0  0  0  0  0  0
   -1.3870    2.4946    6.2819 C   0  0  0  0  0  0  0  0  0  0  0  0
   -1.1125    2.7217    7.6323 C   0  0  0  0  0  0  0  0  0  0  0  0
   -1.8700    2.0876    8.6194 C   0  0  0  0  0  0  0  0  0  0  0  0
   -2.9241    1.2360    8.2631 C   0  0  0  0  0  0  0  0  0  0  0  0
   -3.7114    0.5170    9.3236 C   0  0  0  0  0  0  0  0  0  0  0  0
   -3.1166   -0.8648    9.6017 C   0  0  0  0  0  0  0  0  0  0  0  0
   -3.1918    1.0019    6.9036 C   0  0  0  0  0  0  0  0  0  0  0  0
   -2.8037    0.0652    3.8903 C   0  0  0  0  0  0  0  0  0  0  0  0
   -2.7880    0.1631    2.1943 S   0  0  0  0  0  0  0  0  0  0  0  0
   -2.6205    1.8168    2.1782 C   0  0  0  0  0  0  0  0  0  0  0  0
   -2.5867    2.7843    1.1947 C   0  0  0  0  0  0  0  0  0  0  0  0
   -2.3415    2.7426   -0.1365 N   0  0  0  0  0  0  0  0  0  0  0  0
   -2.3595    4.0733   -0.4916 C   0  0  0  0  0  0  0  0  0  0  0  0
   -2.1159    4.6831   -1.7481 C   0  0  0  0  0  0  0  0  0  0  0  0
   -1.9882    4.1180   -2.9805 N   0  0  0  0  0  0  0  0  0  0  0  0
   -1.4475    5.0933   -3.7455 C   0  0  0  0  0  0  0  0  0  0  0  0
   -0.4459    4.9489   -4.6953 C   0  0  0  0  0  0  0  0  0  0  0  0
    0.4256    3.5805   -5.0886 S   0  0  0  0  0  0  0  0  0  0  0  0
   -2.6378    2.9096   -3.4990 C   0  0  0  0  0  0  0  0  0  0  0  0
   -3.4347    3.1879   -4.7711 C   0  0  0  0  0  0  0  0  0  0  0  0
   -1.5668    1.6453   -0.7564 C   0  0  0  0  0  0  0  0  0  0  0  0
   -0.0981    2.0353   -0.9535 C   0  0  0  0  0  0  0  0  0  0  0  0
   -2.8917   -1.2503    4.5414 C   0  0  0  0  0  0  0  0  0  0  0  0
   -4.1631   -1.7492    4.8805 C   0  0  0  0  0  0  0  0  0  0  0  0
   -5.2344   -0.9185    4.9164 F   0  0  0  0  0  0  0  0  0  0  0  0
   -4.3693   -3.1258    5.0061 C   0  0  0  0  0  0  0  0  0  0  0  0
   -5.6291   -3.5892    5.1949 F   0  0  0  0  0  0  0  0  0  0  0  0
   -3.3211   -4.0258    4.7568 C   0  0  0  0  0  0  0  0  0  0  0  0
   -2.0283   -3.5325    4.5078 C   0  0  0  0  0  0  0  0  0  0  0  0
   -0.9976   -4.3781    4.2510 N   0  0  0  0  0  0  0  0  0  0  0  0
    0.2363   -3.9327    3.8858 C   0  0  0  0  0  0  0  0  0  0  0  0
    1.3497   -4.9333    3.6606 C   0  0  0  0  0  0  0  0  0  0  0  0
    0.8375   -6.3519    3.3973 C   0  0  0  0  0  0  0  0  0  0  0  0
    0.4496   -2.5371    3.7858 C   0  0  0  0  0  0  0  0  0  0  0  0
   -0.5884   -1.6961    4.0359 N   0  0  0  0  0  0  0  0  0  0  0  0
   -1.8163   -2.1451    4.4014 C   0  0  0  0  0  0  0  0  0  0  0  0
    1.7476   -1.9327    3.3241 C   0  0  0  0  0  0  0  0  0  0  0  0
    1.7481   -1.7497    1.8070 C   0  0  0  0  0  0  0  0  0  0  0  0
   -3.6521   -5.4258    4.4327 C   0  0  0  0  0  0  0  0  0  0  0  0
   -3.9739   -5.7951    3.1732 C   0  0  0  0  0  0  0  0  0  0  0  0
   -4.1034   -4.8776    2.0311 C   0  0  0  0  0  0  0  0  0  0  0  0
   -3.6274   -3.7136    1.9401 O   0  0  0  0  0  0  0  0  0  0  0  0
   -4.9170   -5.5171    1.0235 C   0  0  0  0  0  0  0  0  0  0  0  0
   -5.4260   -4.9513   -0.1434 C   0  0  0  0  0  0  0  0  0  0  0  0
   -6.3294   -5.7000   -0.9162 C   0  0  0  0  0  0  0  0  0  0  0  0
   -6.8821   -5.1580   -2.0869 C   0  0  0  0  0  0  0  0  0  0  0  0
   -7.8217   -5.8870   -2.8197 C   0  0  0  0  0  0  0  0  0  0  0  0
   -8.2121   -7.1609   -2.3967 C   0  0  0  0  0  0  0  0  0  0  0  0
   -9.1401   -7.8513   -3.1057 F   0  0  0  0  0  0  0  0  0  0  0  0
   -7.6613   -7.7204   -1.2385 C   0  0  0  0  0  0  0  0  0  0  0  0
   -6.7184   -7.0014   -0.4880 C   0  0  0  0  0  0  0  0  0  0  0  0
   -6.1775   -7.5467    0.6992 C   0  0  0  0  0  0  0  0  0  0  0  0
   -5.2491   -6.7938    1.4384 C   0  0  0  0  0  0  0  0  0  0  0  0
   -4.5728   -7.0904    2.7349 C   0  0  0  0  0  0  0  0  0  0  0  0
   -4.3390   -8.3144    3.2712 C   0  0  0  0  0  0  0  0  0  0  0  0
   -4.8325   -9.5274    2.6700 C   0  0  0  0  0  0  0  0  0  0  0  0
   -5.2234  -10.5052    2.1852 N   0  0  0  0  0  0  0  0  0  0  0  0
   -3.4485   -8.5008    4.3880 C   0  0  0  0  0  0  0  0  0  0  0  0
   -2.7280   -8.6546    5.2799 N   0  0  0  0  0  0  0  0  0  0  0  0
    5.5134    0.0013   -6.4057 H   0  0  0  0  0  0  0  0  0  0  0  0
    6.1205    0.2130   -0.1732 H   0  0  0  0  0  0  0  0  0  0  0  0
    6.9720   -0.8393    1.9117 H   0  0  0  0  0  0  0  0  0  0  0  0
    8.2757   -2.6115    3.0233 H   0  0  0  0  0  0  0  0  0  0  0  0
    9.2611   -4.3444   -0.7760 H   0  0  0  0  0  0  0  0  0  0  0  0
    8.4131   -3.3293   -2.8317 H   0  0  0  0  0  0  0  0  0  0  0  0
    6.2248    3.0813   -4.3558 H   0  0  0  0  0  0  0  0  0  0  0  0
    4.7532    3.8877   -2.1588 H   0  0  0  0  0  0  0  0  0  0  0  0
    4.6633    5.5693   -1.5464 H   0  0  0  0  0  0  0  0  0  0  0  0
    2.5676    4.4165   -1.0137 H   0  0  0  0  0  0  0  0  0  0  0  0
    2.3319    3.9402   -2.7292 H   0  0  0  0  0  0  0  0  0  0  0  0
    2.2369    5.6872   -2.2518 H   0  0  0  0  0  0  0  0  0  0  0  0
    2.3773    8.2360   -4.2820 H   0  0  0  0  0  0  0  0  0  0  0  0
    3.7113    9.9878   -5.3559 H   0  0  0  0  0  0  0  0  0  0  0  0
    4.6391    9.6524   -7.6151 H   0  0  0  0  0  0  0  0  0  0  0  0
    5.3239    8.0095   -9.3573 H   0  0  0  0  0  0  0  0  0  0  0  0
    4.5590    6.3893   -9.4257 H   0  0  0  0  0  0  0  0  0  0  0  0
    3.1819    9.0682  -10.1160 H   0  0  0  0  0  0  0  0  0  0  0  0
    2.3871    7.4424  -10.1507 H   0  0  0  0  0  0  0  0  0  0  0  0
    3.7453    7.8139  -11.2814 H   0  0  0  0  0  0  0  0  0  0  0  0
    2.8730    5.7330   -7.7632 H   0  0  0  0  0  0  0  0  0  0  0  0
   -0.7647    2.9733    5.5357 H   0  0  0  0  0  0  0  0  0  0  0  0
   -0.2997    3.3764    7.9159 H   0  0  0  0  0  0  0  0  0  0  0  0
   -1.6355    2.2599    9.6625 H   0  0  0  0  0  0  0  0  0  0  0  0
   -4.7700    0.4045    9.0023 H   0  0  0  0  0  0  0  0  0  0  0  0
   -3.7140    1.1096   10.2632 H   0  0  0  0  0  0  0  0  0  0  0  0
   -2.0350   -0.7729    9.8309 H   0  0  0  0  0  0  0  0  0  0  0  0
   -3.6313   -1.3250   10.4704 H   0  0  0  0  0  0  0  0  0  0  0  0
   -3.2443   -1.5214    8.7156 H   0  0  0  0  0  0  0  0  0  0  0  0
   -4.0032    0.3459    6.6368 H   0  0  0  0  0  0  0  0  0  0  0  0
   -3.3731    2.5347   -2.7576 H   0  0  0  0  0  0  0  0  0  0  0  0
   -1.8684    2.1379   -3.7233 H   0  0  0  0  0  0  0  0  0  0  0  0
   -4.2128    3.9583   -4.5771 H   0  0  0  0  0  0  0  0  0  0  0  0
   -2.7739    3.5318   -5.5947 H   0  0  0  0  0  0  0  0  0  0  0  0
   -3.9420    2.2563   -5.1048 H   0  0  0  0  0  0  0  0  0  0  0  0
   -1.5712    0.7501   -0.1111 H   0  0  0  0  0  0  0  0  0  0  0  0
   -2.0166    1.2797   -1.6843 H   0  0  0  0  0  0  0  0  0  0  0  0
    0.0068    2.9123   -1.6246 H   0  0  0  0  0  0  0  0  0  0  0  0
    0.4538    1.1794   -1.4021 H   0  0  0  0  0  0  0  0  0  0  0  0
    0.3591    2.2689    0.0317 H   0  0  0  0  0  0  0  0  0  0  0  0
    1.9623   -4.6332    2.7877 H   0  0  0  0  0  0  0  0  0  0  0  0
    2.0042   -4.9408    4.5568 H   0  0  0  0  0  0  0  0  0  0  0  0
    1.6969   -7.0281    3.2055 H   0  0  0  0  0  0  0  0  0  0  0  0
    0.2845   -6.7354    4.2821 H   0  0  0  0  0  0  0  0  0  0  0  0
    0.1716   -6.3630    2.5076 H   0  0  0  0  0  0  0  0  0  0  0  0
    2.6181   -2.5490    3.6341 H   0  0  0  0  0  0  0  0  0  0  0  0
    1.8733   -0.9366    3.8006 H   0  0  0  0  0  0  0  0  0  0  0  0
    1.6743   -2.7324    1.2976 H   0  0  0  0  0  0  0  0  0  0  0  0
    0.8891   -1.1128    1.4934 H   0  0  0  0  0  0  0  0  0  0  0  0
    2.6914   -1.2572    1.4892 H   0  0  0  0  0  0  0  0  0  0  0  0
   -3.7639   -6.1130    5.2573 H   0  0  0  0  0  0  0  0  0  0  0  0
   -5.1475   -3.9448   -0.4266 H   0  0  0  0  0  0  0  0  0  0  0  0
   -6.5993   -4.1688   -2.4242 H   0  0  0  0  0  0  0  0  0  0  0  0
   -8.2577   -5.4565   -3.7125 H   0  0  0  0  0  0  0  0  0  0  0  0
   -7.9802   -8.7082   -0.9248 H   0  0  0  0  0  0  0  0  0  0  0  0
   -6.5227   -8.5108    1.0442 H   0  0  0  0  0  0  0  0  0  0  0  0
  1  2  2  3
  2  3  1  0
  3  4  2  0
  3  5  1  0
  5  6  2  0
  6  7  1  0
  7  8  2  0
  8  9  1  0
  9 10  2  0
 10 11  1  0
 10 12  1  0
 12 13  2  0
 13 14  1  0
 14 15  2  0
 15 16  1  0
 16 17  2  3
 17 18  1  0
 18 19  3  0
 17 20  1  0
 20 21  3  0
  1 22  1  0
 22 23  2  0
 23 24  1  0
 24 25  1  0
 25 26  1  0
 26 27  1  0
 24 28  2  0
 28 29  1  0
 28 30  1  0
 30 31  2  0
 31 32  1  0
 32 33  2  0
 33 34  1  0
 34 35  2  0
 35 36  1  0
 36 37  1  0
 37 38  1  0
 36 39  2  0
 31 40  1  0
 40 41  1  0
 41 42  1  0
 42 43  1  0
 43 44  1  0
 44 45  1  0
 45 46  2  0
 46 47  1  0
 47 48  1  0
 45 49  1  0
 49 50  1  0
 50 51  1  0
 51 52  1  0
 52 53  1  0
 53 54  1  0
 54 55  2  0
 55 56  1  0
 56 57  2  0
 57 58  1  0
 58 59  1  0
 59 60  1  0
 58 61  2  0
 53 62  2  0
 62 63  1  0
 63 64  1  0
 64 65  1  0
 65 66  1  0
 66 67  1  0
 67 68  1  0
 68 69  1  0
 69 70  1  0
 70 71  1  0
 71 72  1  0
 69 73  1  0
 73 74  1  0
 66 75  1  0
 75 76  1  0
 62 77  1  0
 77 78  2  0
 78 79  1  0
 78 80  1  0
 80 81  1  0
 80 82  2  0
 82 83  1  0
 83 84  2  0
 84 85  1  0
 85 86  1  0
 86 87  1  0
 85 88  2  0
 88 89  1  0
 89 90  2  0
 88 91  1  0
 91 92  1  0
 82 93  1  0
 93 94  2  3
 94 95  1  0
 95 96  2  0
 95 97  1  0
 97 98  2  0
 98 99  1  0
 99100  2  0
100101  1  0
101102  2  0
102103  1  0
102104  1  0
104105  2  0
105106  1  0
106107  2  0
107108  1  0
108109  2  3
109110  1  0
110111  3  0
109112  1  0
112113  3  0
 16  2  1  0
 29 22  1  0
 72 30  1  0
 90 77  1  0
108 94  1  0
 15  5  1  0
 39 32  1  0
 71 40  2  0
 90 83  1  0
107 97  1  0
 13  7  1  0
 70 42  2  0
105 99  1  0
 68 43  2  0
 48 44  2  0
 67 49  2  0
 65 50  2  0
 64 52  2  0
 61 54  1  0
  1114  1  0
  6115  1  0
  8116  1  0
  9117  1  0
 12118  1  0
 14119  1  0
 23120  1  0
 26121  1  0
 26122  1  0
 27123  1  0
 27124  1  0
 27125  1  0
 33126  1  0
 34127  1  0
 35128  1  0
 37129  1  0
 37130  1  0
 38131  1  0
 38132  1  0
 38133  1  0
 39134  1  0
 55135  1  0
 56136  1  0
 57137  1  0
 59138  1  0
 59139  1  0
 60140  1  0
 60141  1  0
 60142  1  0
 61143  1  0
 73144  1  0
 73145  1  0
 74146  1  0
 74147  1  0
 74148  1  0
 75149  1  0
 75150  1  0
 76151  1  0
 76152  1  0
 76153  1  0
 86154  1  0
 86155  1  0
 87156  1  0
 87157  1  0
 87158  1  0
 91159  1  0
 91160  1  0
 92161  1  0
 92162  1  0
 92163  1  0
 93164  1  0
 98165  1  0
100166  1  0
101167  1  0
104168  1  0
106169  1  0
M  END

