
     RDKit          3D

148164  0  0  0  0  0  0  0  0999 V2000
   -0.2287   -9.0508    2.1986 C   0  0  0  0  0  0  0  0  0  0  0  0
    0.9302   -8.9162    1.5237 C   0  0  0  0  0  0  0  0  0  0  0  0
    1.3813   -9.8590    0.5030 C   0  0  0  0  0  0  0  0  0  0  0  0
    0.9605  -11.0387    0.3476 O   0  0  0  0  0  0  0  0  0  0  0  0
    2.3146   -9.1674   -0.3666 C   0  0  0  0  0  0  0  0  0  0  0  0
    2.9034   -9.6207   -1.5466 C   0  0  0  0  0  0  0  0  0  0  0  0
    3.6749   -8.7164   -2.2964 C   0  0  0  0  0  0  0  0  0  0  0  0
    4.3024   -9.1325   -3.4846 C   0  0  0  0  0  0  0  0  0  0  0  0
    5.0322   -8.2181   -4.2480 C   0  0  0  0  0  0  0  0  0  0  0  0
    5.1501   -6.8870   -3.8348 C   0  0  0  0  0  0  0  0  0  0  0  0
    5.8465   -6.0052   -4.5940 F   0  0  0  0  0  0  0  0  0  0  0  0
    4.5471   -6.4606   -2.6458 C   0  0  0  0  0  0  0  0  0  0  0  0
    3.8113   -7.3650   -1.8631 C   0  0  0  0  0  0  0  0  0  0  0  0
    3.2137   -6.9445   -0.6539 C   0  0  0  0  0  0  0  0  0  0  0  0
    2.5026   -7.8799    0.1037 C   0  0  0  0  0  0  0  0  0  0  0  0
    1.8090   -7.7218    1.4048 C   0  0  0  0  0  0  0  0  0  0  0  0
    2.2740   -6.9846    2.4423 C   0  0  0  0  0  0  0  0  0  0  0  0
    1.9189   -7.3160    3.8036 C   0  0  0  0  0  0  0  0  0  0  0  0
    1.6383   -7.5979    4.8895 N   0  0  0  0  0  0  0  0  0  0  0  0
    3.3163   -6.0024    2.2904 C   0  0  0  0  0  0  0  0  0  0  0  0
    4.1661   -5.2235    2.1966 N   0  0  0  0  0  0  0  0  0  0  0  0
   -0.9576   -7.9502    2.8677 C   0  0  0  0  0  0  0  0  0  0  0  0
   -1.9131   -8.1232    3.8667 C   0  0  0  0  0  0  0  0  0  0  0  0
   -2.4903   -6.9194    4.3014 C   0  0  0  0  0  0  0  0  0  0  0  0
   -3.8300   -6.8769    5.4994 S   0  0  0  0  0  0  0  0  0  0  0  0
   -5.1184   -6.6759    4.2229 C   0  0  0  0  0  0  0  0  0  0  0  0
   -6.4971   -6.6545    4.8663 C   0  0  0  0  0  0  0  0  0  0  0  0
   -2.0027   -5.7996    3.6320 C   0  0  0  0  0  0  0  0  0  0  0  0
   -0.9055   -6.3149    2.4724 S   0  0  0  0  0  0  0  0  0  0  0  0
   -2.3640   -4.3944    3.8566 C   0  0  0  0  0  0  0  0  0  0  0  0
   -2.3147   -3.7055    5.0818 C   0  0  0  0  0  0  0  0  0  0  0  0
   -1.8575   -4.2612    6.3643 C   0  0  0  0  0  0  0  0  0  0  0  0
   -2.6905   -4.1816    7.4898 C   0  0  0  0  0  0  0  0  0  0  0  0
   -2.2201   -4.5818    8.7427 C   0  0  0  0  0  0  0  0  0  0  0  0
   -0.9046   -5.0290    8.8882 C   0  0  0  0  0  0  0  0  0  0  0  0
   -0.0592   -5.1120    7.7682 C   0  0  0  0  0  0  0  0  0  0  0  0
    1.3872   -5.4988    7.9417 C   0  0  0  0  0  0  0  0  0  0  0  0
    2.2922   -4.2757    7.8172 C   0  0  0  0  0  0  0  0  0  0  0  0
   -0.5457   -4.7408    6.5025 C   0  0  0  0  0  0  0  0  0  0  0  0
   -2.5056   -2.3368    4.8987 C   0  0  0  0  0  0  0  0  0  0  0  0
   -2.0226   -1.0256    5.8640 S   0  0  0  0  0  0  0  0  0  0  0  0
   -2.2111    0.0601    4.5755 C   0  0  0  0  0  0  0  0  0  0  0  0
   -1.5277    1.1892    4.2136 C   0  0  0  0  0  0  0  0  0  0  0  0
   -0.5054    1.8473    4.9140 C   0  0  0  0  0  0  0  0  0  0  0  0
    0.4008    2.6820    4.1947 C   0  0  0  0  0  0  0  0  0  0  0  0
    1.4140    3.2476    4.8941 N   0  0  0  0  0  0  0  0  0  0  0  0
    1.0903    2.6254    6.3964 S   0  0  0  0  0  0  0  0  0  0  0  0
   -0.2557    1.6744    6.2345 N   0  0  0  0  0  0  0  0  0  0  0  0
    0.2040    2.8499    2.8238 C   0  0  0  0  0  0  0  0  0  0  0  0
    0.8526    3.6152    1.9031 C   0  0  0  0  0  0  0  0  0  0  0  0
    2.1890    4.6522    1.7873 S   0  0  0  0  0  0  0  0  0  0  0  0
    1.7879    5.0262    0.1654 C   0  0  0  0  0  0  0  0  0  0  0  0
    2.3704    5.8363   -0.8240 C   0  0  0  0  0  0  0  0  0  0  0  0
    3.6819    6.5168   -0.6767 C   0  0  0  0  0  0  0  0  0  0  0  0
    3.8815    7.8220   -1.1585 C   0  0  0  0  0  0  0  0  0  0  0  0
    5.1079    8.4673   -0.9591 C   0  0  0  0  0  0  0  0  0  0  0  0
    6.1414    7.8221   -0.2743 C   0  0  0  0  0  0  0  0  0  0  0  0
    5.9615    6.5153    0.1999 C   0  0  0  0  0  0  0  0  0  0  0  0
    7.0448    5.8387    1.0000 C   0  0  0  0  0  0  0  0  0  0  0  0
    6.8427    6.0893    2.4906 C   0  0  0  0  0  0  0  0  0  0  0  0
    4.7356    5.8668   -0.0114 C   0  0  0  0  0  0  0  0  0  0  0  0
    1.5375    5.8686   -1.9682 C   0  0  0  0  0  0  0  0  0  0  0  0
    0.1792    4.8676   -1.7388 S   0  0  0  0  0  0  0  0  0  0  0  0
    0.6230    4.4027   -0.2063 C   0  0  0  0  0  0  0  0  0  0  0  0
    0.1250    3.5580    0.7663 C   0  0  0  0  0  0  0  0  0  0  0  0
   -0.9629    2.7533    0.8596 N   0  0  0  0  0  0  0  0  0  0  0  0
   -0.8649    2.2552    2.1345 C   0  0  0  0  0  0  0  0  0  0  0  0
   -1.6626    1.2963    2.8179 C   0  0  0  0  0  0  0  0  0  0  0  0
   -2.2688    0.1682    2.3160 N   0  0  0  0  0  0  0  0  0  0  0  0
   -2.5876   -0.5608    3.4188 C   0  0  0  0  0  0  0  0  0  0  0  0
   -2.7257   -1.9387    3.6021 C   0  0  0  0  0  0  0  0  0  0  0  0
   -2.6215   -3.2786    2.5985 S   0  0  0  0  0  0  0  0  0  0  0  0
   -2.1803   -0.3855    0.9605 C   0  0  0  0  0  0  0  0  0  0  0  0
   -0.7539   -0.8176    0.6278 C   0  0  0  0  0  0  0  0  0  0  0  0
   -2.1671    2.8776    0.0218 C   0  0  0  0  0  0  0  0  0  0  0  0
   -1.9601    2.2561   -1.3701 C   0  0  0  0  0  0  0  0  0  0  0  0
    1.7541    6.5405   -3.2498 C   0  0  0  0  0  0  0  0  0  0  0  0
    2.7979    6.1535   -4.0987 C   0  0  0  0  0  0  0  0  0  0  0  0
    2.7362    6.4996   -5.4520 C   0  0  0  0  0  0  0  0  0  0  0  0
    1.6294    7.2146   -5.9183 C   0  0  0  0  0  0  0  0  0  0  0  0
    0.6997    7.6516   -5.0273 N   0  0  0  0  0  0  0  0  0  0  0  0
    0.7539    7.3167   -3.7408 N   0  0  0  0  0  0  0  0  0  0  0  0
    1.3673    7.3675   -7.3622 C   0  0  0  0  0  0  0  0  0  0  0  0
    0.2430    6.8825   -7.9365 C   0  0  0  0  0  0  0  0  0  0  0  0
   -0.8230    6.1428   -7.2425 C   0  0  0  0  0  0  0  0  0  0  0  0
   -0.7287    5.5539   -6.1312 O   0  0  0  0  0  0  0  0  0  0  0  0
   -2.0041    6.1471   -8.0701 C   0  0  0  0  0  0  0  0  0  0  0  0
   -3.2769    5.6880   -7.7413 C   0  0  0  0  0  0  0  0  0  0  0  0
   -4.3101    5.8676   -8.6685 C   0  0  0  0  0  0  0  0  0  0  0  0
   -4.0644    6.5196   -9.8944 C   0  0  0  0  0  0  0  0  0  0  0  0
   -5.1905    6.7703  -10.8535 C   0  0  0  0  0  0  0  0  0  0  0  0
   -2.7667    6.9888  -10.1940 C   0  0  0  0  0  0  0  0  0  0  0  0
   -1.7236    6.7668   -9.2768 C   0  0  0  0  0  0  0  0  0  0  0  0
   -0.2779    7.1534   -9.3159 C   0  0  0  0  0  0  0  0  0  0  0  0
    0.4441    7.4713  -10.4224 C   0  0  0  0  0  0  0  0  0  0  0  0
   -0.1551    7.6047  -11.7244 C   0  0  0  0  0  0  0  0  0  0  0  0
   -0.6229    7.7166  -12.7774 N   0  0  0  0  0  0  0  0  0  0  0  0
    1.8777    7.5760  -10.4012 C   0  0  0  0  0  0  0  0  0  0  0  0
    3.0337    7.6518  -10.4044 N   0  0  0  0  0  0  0  0  0  0  0  0
   -0.7258  -10.0121    2.1722 H   0  0  0  0  0  0  0  0  0  0  0  0
    2.7514  -10.6397   -1.8840 H   0  0  0  0  0  0  0  0  0  0  0  0
    4.2208  -10.1585   -3.8210 H   0  0  0  0  0  0  0  0  0  0  0  0
    5.5088   -8.5444   -5.1642 H   0  0  0  0  0  0  0  0  0  0  0  0
    4.6469   -5.4254   -2.3438 H   0  0  0  0  0  0  0  0  0  0  0  0
    3.2915   -5.9128   -0.3348 H   0  0  0  0  0  0  0  0  0  0  0  0
   -2.1902   -9.0946    4.2584 H   0  0  0  0  0  0  0  0  0  0  0  0
   -5.0565   -7.5195    3.4959 H   0  0  0  0  0  0  0  0  0  0  0  0
   -4.9558   -5.7202    3.6845 H   0  0  0  0  0  0  0  0  0  0  0  0
   -6.5582   -5.8199    5.5989 H   0  0  0  0  0  0  0  0  0  0  0  0
   -7.2716   -6.5002    4.0833 H   0  0  0  0  0  0  0  0  0  0  0  0
   -6.6931   -7.6183    5.3801 H   0  0  0  0  0  0  0  0  0  0  0  0
   -3.7009   -3.8022    7.3960 H   0  0  0  0  0  0  0  0  0  0  0  0
   -2.8676   -4.5184    9.6071 H   0  0  0  0  0  0  0  0  0  0  0  0
   -0.5510   -5.3048    9.8705 H   0  0  0  0  0  0  0  0  0  0  0  0
    1.6709   -6.2467    7.1725 H   0  0  0  0  0  0  0  0  0  0  0  0
    1.5491   -5.9617    8.9384 H   0  0  0  0  0  0  0  0  0  0  0  0
    3.3516   -4.5709    7.9890 H   0  0  0  0  0  0  0  0  0  0  0  0
    2.2135   -3.8334    6.7992 H   0  0  0  0  0  0  0  0  0  0  0  0
    2.0095   -3.5053    8.5678 H   0  0  0  0  0  0  0  0  0  0  0  0
    0.1100   -4.7712    5.6400 H   0  0  0  0  0  0  0  0  0  0  0  0
    3.0864    8.3532   -1.6631 H   0  0  0  0  0  0  0  0  0  0  0  0
    5.2530    9.4759   -1.3250 H   0  0  0  0  0  0  0  0  0  0  0  0
    7.0739    8.3457   -0.1068 H   0  0  0  0  0  0  0  0  0  0  0  0
    7.0341    4.7413    0.8070 H   0  0  0  0  0  0  0  0  0  0  0  0
    8.0460    6.2201    0.6952 H   0  0  0  0  0  0  0  0  0  0  0  0
    5.8471    5.7143    2.8174 H   0  0  0  0  0  0  0  0  0  0  0  0
    7.6275    5.5593    3.0707 H   0  0  0  0  0  0  0  0  0  0  0  0
    6.9084    7.1772    2.7110 H   0  0  0  0  0  0  0  0  0  0  0  0
    4.6105    4.8508    0.3469 H   0  0  0  0  0  0  0  0  0  0  0  0
   -2.5470    0.3267    0.2246 H   0  0  0  0  0  0  0  0  0  0  0  0
   -2.8659   -1.2501    0.8511 H   0  0  0  0  0  0  0  0  0  0  0  0
   -0.0834    0.0666    0.5856 H   0  0  0  0  0  0  0  0  0  0  0  0
   -0.7346   -1.3126   -0.3662 H   0  0  0  0  0  0  0  0  0  0  0  0
   -0.3709   -1.5223    1.3910 H   0  0  0  0  0  0  0  0  0  0  0  0
   -3.0408    2.4269    0.5316 H   0  0  0  0  0  0  0  0  0  0  0  0
   -2.4225    3.9524   -0.0935 H   0  0  0  0  0  0  0  0  0  0  0  0
   -1.0530    1.6127   -1.3924 H   0  0  0  0  0  0  0  0  0  0  0  0
   -1.8584    3.0439   -2.1449 H   0  0  0  0  0  0  0  0  0  0  0  0
   -2.8403    1.6397   -1.6477 H   0  0  0  0  0  0  0  0  0  0  0  0
    3.5899    5.5037   -3.7470 H   0  0  0  0  0  0  0  0  0  0  0  0
    3.4881    6.1329   -6.1387 H   0  0  0  0  0  0  0  0  0  0  0  0
    2.0773    7.9479   -7.9244 H   0  0  0  0  0  0  0  0  0  0  0  0
   -3.4671    5.2176   -6.7805 H   0  0  0  0  0  0  0  0  0  0  0  0
   -5.3041    5.5255   -8.4158 H   0  0  0  0  0  0  0  0  0  0  0  0
   -5.5260    7.8240  -10.7555 H   0  0  0  0  0  0  0  0  0  0  0  0
   -4.8497    6.5873  -11.8921 H   0  0  0  0  0  0  0  0  0  0  0  0
   -6.0471    6.0939  -10.6449 H   0  0  0  0  0  0  0  0  0  0  0  0
   -2.6132    7.5422  -11.1035 H   0  0  0  0  0  0  0  0  0  0  0  0
  1  2  2  3
  2  3  1  0
  3  4  2  0
  3  5  1  0
  5  6  2  0
  6  7  1  0
  7  8  2  0
  8  9  1  0
  9 10  2  0
 10 11  1  0
 10 12  1  0
 12 13  2  0
 13 14  1  0
 14 15  2  0
 15 16  1  0
 16 17  2  3
 17 18  1  0
 18 19  3  0
 17 20  1  0
 20 21  3  0
  1 22  1  0
 22 23  2  0
 23 24  1  0
 24 25  1  0
 25 26  1  0
 26 27  1  0
 24 28  2  0
 28 29  1  0
 28 30  1  0
 30 31  2  0
 31 32  1  0
 32 33  2  0
 33 34  1  0
 34 35  2  0
 35 36  1  0
 36 37  1  0
 37 38  1  0
 36 39  2  0
 31 40  1  0
 40 41  1  0
 41 42  1  0
 42 43  1  0
 43 44  1  0
 44 45  1  0
 45 46  2  0
 46 47  1  0
 47 48  1  0
 45 49  1  0
 49 50  1  0
 50 51  1  0
 51 52  1  0
 52 53  1  0
 53 54  1  0
 54 55  2  0
 55 56  1  0
 56 57  2  0
 57 58  1  0
 58 59  1  0
 59 60  1  0
 58 61  2  0
 53 62  2  0
 62 63  1  0
 63 64  1  0
 64 65  1  0
 65 66  1  0
 66 67  1  0
 67 68  1  0
 68 69  1  0
 69 70  1  0
 70 71  1  0
 71 72  1  0
 69 73  1  0
 73 74  1  0
 66 75  1  0
 75 76  1  0
 62 77  1  0
 77 78  2  0
 78 79  1  0
 79 80  2  0
 80 81  1  0
 81 82  2  0
 80 83  1  0
 83 84  2  3
 84 85  1  0
 85 86  2  0
 85 87  1  0
 87 88  2  0
 88 89  1  0
 89 90  2  0
 90 91  1  0
 90 92  1  0
 92 93  2  0
 93 94  1  0
 94 95  2  3
 95 96  1  0
 96 97  3  0
 95 98  1  0
 98 99  3  0
 16  2  1  0
 29 22  1  0
 72 30  1  0
 82 77  1  0
 94 84  1  0
 15  5  1  0
 39 32  1  0
 71 40  2  0
 93 87  1  0
 13  7  1  0
 70 42  2  0
 68 43  2  0
 48 44  2  0
 67 49  2  0
 65 50  2  0
 64 52  2  0
 61 54  1  0
  1100  1  0
  6101  1  0
  8102  1  0
  9103  1  0
 12104  1  0
 14105  1  0
 23106  1  0
 26107  1  0
 26108  1  0
 27109  1  0
 27110  1  0
 27111  1  0
 33112  1  0
 34113  1  0
 35114  1  0
 37115  1  0
 37116  1  0
 38117  1  0
 38118  1  0
 38119  1  0
 39120  1  0
 55121  1  0
 56122  1  0
 57123  1  0
 59124  1  0
 59125  1  0
 60126  1  0
 60127  1  0
 60128  1  0
 61129  1  0
 73130  1  0
 73131  1  0
 74132  1  0
 74133  1  0
 74134  1  0
 75135  1  0
 75136  1  0
 76137  1  0
 76138  1  0
 76139  1  0
 78140  1  0
 79141  1  0
 83142  1  0
 88143  1  0
 89144  1  0
 91145  1  0
 91146  1  0
 91147  1  0
 92148  1  0
M  END

