
     RDKit          3D

151167  0  0  0  0  0  0  0  0999 V2000
    5.1741   -9.0885    2.0978 C   0  0  0  0  0  0  0  0  0  0  0  0
    5.7561   -9.8124    1.1192 C   0  0  0  0  0  0  0  0  0  0  0  0
    5.1316  -10.2342   -0.1391 C   0  0  0  0  0  0  0  0  0  0  0  0
    3.9276  -10.5725   -0.2917 O   0  0  0  0  0  0  0  0  0  0  0  0
    6.1501  -10.2939   -1.1637 C   0  0  0  0  0  0  0  0  0  0  0  0
    5.9773  -10.4400   -2.5385 C   0  0  0  0  0  0  0  0  0  0  0  0
    7.0994  -10.2917   -3.3715 C   0  0  0  0  0  0  0  0  0  0  0  0
    6.9749  -10.4193   -4.7627 C   0  0  0  0  0  0  0  0  0  0  0  0
    8.0820  -10.2122   -5.5888 C   0  0  0  0  0  0  0  0  0  0  0  0
    9.3221   -9.8794   -5.0370 C   0  0  0  0  0  0  0  0  0  0  0  0
   10.3864   -9.6626   -5.8480 F   0  0  0  0  0  0  0  0  0  0  0  0
    9.4671   -9.7575   -3.6516 C   0  0  0  0  0  0  0  0  0  0  0  0
    8.3671   -9.9690   -2.8049 C   0  0  0  0  0  0  0  0  0  0  0  0
    8.5049   -9.8437   -1.4077 C   0  0  0  0  0  0  0  0  0  0  0  0
    7.3827  -10.0469   -0.5914 C   0  0  0  0  0  0  0  0  0  0  0  0
    7.2273   -9.9010    0.8833 C   0  0  0  0  0  0  0  0  0  0  0  0
    8.1977  -10.0368    1.8183 C   0  0  0  0  0  0  0  0  0  0  0  0
    7.9055  -10.1002    3.2282 C   0  0  0  0  0  0  0  0  0  0  0  0
    7.6802  -10.1520    4.3638 N   0  0  0  0  0  0  0  0  0  0  0  0
    9.5766  -10.2607    1.4670 C   0  0  0  0  0  0  0  0  0  0  0  0
   10.6873  -10.4417    1.1937 N   0  0  0  0  0  0  0  0  0  0  0  0
    3.8729   -8.3998    1.9600 C   0  0  0  0  0  0  0  0  0  0  0  0
    3.2131   -7.7404    2.9930 C   0  0  0  0  0  0  0  0  0  0  0  0
    2.2325   -6.8261    2.5602 C   0  0  0  0  0  0  0  0  0  0  0  0
    1.3261   -5.8067    3.7352 S   0  0  0  0  0  0  0  0  0  0  0  0
    2.6578   -4.5743    3.9602 C   0  0  0  0  0  0  0  0  0  0  0  0
    2.7362   -3.6166    2.7794 C   0  0  0  0  0  0  0  0  0  0  0  0
    2.1216   -6.7467    1.1639 C   0  0  0  0  0  0  0  0  0  0  0  0
    3.2509   -7.8092    0.5195 S   0  0  0  0  0  0  0  0  0  0  0  0
    1.3004   -5.8258    0.3380 C   0  0  0  0  0  0  0  0  0  0  0  0
    1.6102   -5.4111   -0.9758 C   0  0  0  0  0  0  0  0  0  0  0  0
    2.9041   -5.6278   -1.6458 C   0  0  0  0  0  0  0  0  0  0  0  0
    4.0524   -4.9696   -1.1772 C   0  0  0  0  0  0  0  0  0  0  0  0
    5.2901   -5.1955   -1.7836 C   0  0  0  0  0  0  0  0  0  0  0  0
    5.3878   -6.0693   -2.8694 C   0  0  0  0  0  0  0  0  0  0  0  0
    4.2479   -6.7373   -3.3471 C   0  0  0  0  0  0  0  0  0  0  0  0
    4.3506   -7.6524   -4.5382 C   0  0  0  0  0  0  0  0  0  0  0  0
    4.0093   -6.9055   -5.8210 C   0  0  0  0  0  0  0  0  0  0  0  0
    3.0015   -6.4982   -2.7412 C   0  0  0  0  0  0  0  0  0  0  0  0
    0.6709   -4.5072   -1.4606 C   0  0  0  0  0  0  0  0  0  0  0  0
    0.7605   -3.4230   -2.7550 S   0  0  0  0  0  0  0  0  0  0  0  0
   -0.5745   -2.5455   -2.1821 C   0  0  0  0  0  0  0  0  0  0  0  0
   -0.8327   -1.2065   -2.1992 C   0  0  0  0  0  0  0  0  0  0  0  0
   -0.1420   -0.2168   -2.9119 C   0  0  0  0  0  0  0  0  0  0  0  0
   -0.1816    1.1193   -2.4423 C   0  0  0  0  0  0  0  0  0  0  0  0
    0.5436    2.0399   -3.1265 N   0  0  0  0  0  0  0  0  0  0  0  0
    1.2062    1.0656   -4.2889 S   0  0  0  0  0  0  0  0  0  0  0  0
    0.6379   -0.4592   -3.9943 N   0  0  0  0  0  0  0  0  0  0  0  0
   -0.9630    1.4065   -1.3255 C   0  0  0  0  0  0  0  0  0  0  0  0
   -1.2481    2.5908   -0.7345 C   0  0  0  0  0  0  0  0  0  0  0  0
   -0.8552    4.2236   -0.9364 S   0  0  0  0  0  0  0  0  0  0  0  0
   -2.0403    4.6479    0.2129 C   0  0  0  0  0  0  0  0  0  0  0  0
   -2.4652    5.8730    0.7139 C   0  0  0  0  0  0  0  0  0  0  0  0
   -1.8091    7.1571    0.3967 C   0  0  0  0  0  0  0  0  0  0  0  0
   -1.3555    7.9874    1.4355 C   0  0  0  0  0  0  0  0  0  0  0  0
   -0.6531    9.1586    1.1470 C   0  0  0  0  0  0  0  0  0  0  0  0
   -0.3939    9.5104   -0.1799 C   0  0  0  0  0  0  0  0  0  0  0  0
   -0.8569    8.7004   -1.2319 C   0  0  0  0  0  0  0  0  0  0  0  0
   -0.4958    9.0316   -2.6552 C   0  0  0  0  0  0  0  0  0  0  0  0
    0.8818    8.4724   -2.9943 C   0  0  0  0  0  0  0  0  0  0  0  0
   -1.5622    7.5223   -0.9356 C   0  0  0  0  0  0  0  0  0  0  0  0
   -3.5280    5.7029    1.6199 C   0  0  0  0  0  0  0  0  0  0  0  0
   -3.8995    4.0470    1.7859 S   0  0  0  0  0  0  0  0  0  0  0  0
   -2.7046    3.5538    0.7083 C   0  0  0  0  0  0  0  0  0  0  0  0
   -2.2312    2.3650    0.1641 C   0  0  0  0  0  0  0  0  0  0  0  0
   -2.6137    1.0651    0.2131 N   0  0  0  0  0  0  0  0  0  0  0  0
   -1.7457    0.4434   -0.6652 C   0  0  0  0  0  0  0  0  0  0  0  0
   -1.5794   -0.9251   -1.0370 C   0  0  0  0  0  0  0  0  0  0  0  0
   -1.6796   -2.0637   -0.2657 N   0  0  0  0  0  0  0  0  0  0  0  0
   -1.0424   -3.0256   -0.9921 C   0  0  0  0  0  0  0  0  0  0  0  0
   -0.3304   -4.1627   -0.5874 C   0  0  0  0  0  0  0  0  0  0  0  0
   -0.1018   -5.0009    0.8512 S   0  0  0  0  0  0  0  0  0  0  0  0
   -1.9945   -2.1800    1.1623 C   0  0  0  0  0  0  0  0  0  0  0  0
   -0.9752   -1.4394    2.0219 C   0  0  0  0  0  0  0  0  0  0  0  0
   -3.8968    0.6031    0.7653 C   0  0  0  0  0  0  0  0  0  0  0  0
   -4.7183   -0.1775   -0.2635 C   0  0  0  0  0  0  0  0  0  0  0  0
   -4.3528    6.8065    2.1166 C   0  0  0  0  0  0  0  0  0  0  0  0
   -4.3147    7.3318    3.4043 C   0  0  0  0  0  0  0  0  0  0  0  0
   -4.8970    8.6076    3.4888 C   0  0  0  0  0  0  0  0  0  0  0  0
   -4.9468    9.5550    5.0139 S   0  0  0  0  0  0  0  0  0  0  0  0
   -3.3177   10.3515    4.7798 C   0  0  0  0  0  0  0  0  0  0  0  0
   -2.2046    9.4756    5.3423 C   0  0  0  0  0  0  0  0  0  0  0  0
   -5.3656    9.0905    2.2686 C   0  0  0  0  0  0  0  0  0  0  0  0
   -5.1007    7.9151    1.0993 S   0  0  0  0  0  0  0  0  0  0  0  0
   -6.0125   10.3929    2.0300 C   0  0  0  0  0  0  0  0  0  0  0  0
   -5.5930   11.2691    1.0933 C   0  0  0  0  0  0  0  0  0  0  0  0
   -4.4266   11.0925    0.2140 C   0  0  0  0  0  0  0  0  0  0  0  0
   -3.4728   10.2878    0.3838 O   0  0  0  0  0  0  0  0  0  0  0  0
   -4.5139   12.0431   -0.8667 C   0  0  0  0  0  0  0  0  0  0  0  0
   -3.6794   12.1600   -1.9765 C   0  0  0  0  0  0  0  0  0  0  0  0
   -3.9933   13.1122   -2.9512 C   0  0  0  0  0  0  0  0  0  0  0  0
   -5.1356   13.9219   -2.8048 C   0  0  0  0  0  0  0  0  0  0  0  0
   -5.5780   15.1846   -4.1689 Br  0  0  0  0  0  0  0  0  0  0  0  0
   -5.9634   13.7889   -1.6761 C   0  0  0  0  0  0  0  0  0  0  0  0
   -5.6215   12.8535   -0.6840 C   0  0  0  0  0  0  0  0  0  0  0  0
   -6.2959   12.4995    0.6022 C   0  0  0  0  0  0  0  0  0  0  0  0
   -7.1878   13.2685    1.2857 C   0  0  0  0  0  0  0  0  0  0  0  0
   -7.6224   12.9565    2.6244 C   0  0  0  0  0  0  0  0  0  0  0  0
   -7.9752   12.7157    3.7013 N   0  0  0  0  0  0  0  0  0  0  0  0
   -7.6554   14.5368    0.7873 C   0  0  0  0  0  0  0  0  0  0  0  0
   -8.0311   15.5623    0.4007 N   0  0  0  0  0  0  0  0  0  0  0  0
    5.7530   -8.7878    2.9554 H   0  0  0  0  0  0  0  0  0  0  0  0
    4.9900  -10.6243   -2.9508 H   0  0  0  0  0  0  0  0  0  0  0  0
    6.0191  -10.6684   -5.2109 H   0  0  0  0  0  0  0  0  0  0  0  0
    7.9762  -10.3090   -6.6629 H   0  0  0  0  0  0  0  0  0  0  0  0
   10.4354   -9.4945   -3.2435 H   0  0  0  0  0  0  0  0  0  0  0  0
    9.4544   -9.5436   -0.9895 H   0  0  0  0  0  0  0  0  0  0  0  0
    3.4830   -7.8589    4.0325 H   0  0  0  0  0  0  0  0  0  0  0  0
    3.6363   -5.0764    4.1108 H   0  0  0  0  0  0  0  0  0  0  0  0
    2.4331   -3.9908    4.8760 H   0  0  0  0  0  0  0  0  0  0  0  0
    3.4999   -2.8367    2.9807 H   0  0  0  0  0  0  0  0  0  0  0  0
    3.0286   -4.1637    1.8622 H   0  0  0  0  0  0  0  0  0  0  0  0
    1.7535   -3.1293    2.6235 H   0  0  0  0  0  0  0  0  0  0  0  0
    3.9901   -4.2872   -0.3407 H   0  0  0  0  0  0  0  0  0  0  0  0
    6.1716   -4.6867   -1.4198 H   0  0  0  0  0  0  0  0  0  0  0  0
    6.3548   -6.2276   -3.3366 H   0  0  0  0  0  0  0  0  0  0  0  0
    5.3830   -8.0616   -4.6168 H   0  0  0  0  0  0  0  0  0  0  0  0
    3.6598   -8.5152   -4.4130 H   0  0  0  0  0  0  0  0  0  0  0  0
    2.9746   -6.4975   -5.7696 H   0  0  0  0  0  0  0  0  0  0  0  0
    4.0775   -7.6022   -6.6846 H   0  0  0  0  0  0  0  0  0  0  0  0
    4.7249   -6.0695   -5.9799 H   0  0  0  0  0  0  0  0  0  0  0  0
    2.1166   -7.0018   -3.1104 H   0  0  0  0  0  0  0  0  0  0  0  0
   -1.5167    7.7078    2.4669 H   0  0  0  0  0  0  0  0  0  0  0  0
   -0.2920    9.7853    1.9533 H   0  0  0  0  0  0  0  0  0  0  0  0
    0.1742   10.4086   -0.3898 H   0  0  0  0  0  0  0  0  0  0  0  0
   -1.2490    8.6043   -3.3511 H   0  0  0  0  0  0  0  0  0  0  0  0
   -0.4951   10.1333   -2.7998 H   0  0  0  0  0  0  0  0  0  0  0  0
    1.6555    8.9378   -2.3467 H   0  0  0  0  0  0  0  0  0  0  0  0
    0.8995    7.3710   -2.8490 H   0  0  0  0  0  0  0  0  0  0  0  0
    1.1246    8.7011   -4.0539 H   0  0  0  0  0  0  0  0  0  0  0  0
   -1.8982    6.8807   -1.7429 H   0  0  0  0  0  0  0  0  0  0  0  0
   -3.0213   -1.8571    1.3647 H   0  0  0  0  0  0  0  0  0  0  0  0
   -2.0108   -3.2440    1.4690 H   0  0  0  0  0  0  0  0  0  0  0  0
    0.0530   -1.6811    1.6850 H   0  0  0  0  0  0  0  0  0  0  0  0
   -1.0922   -1.7388    3.0860 H   0  0  0  0  0  0  0  0  0  0  0  0
   -1.1276   -0.3449    1.9513 H   0  0  0  0  0  0  0  0  0  0  0  0
   -3.7481    0.0571    1.7134 H   0  0  0  0  0  0  0  0  0  0  0  0
   -4.5186    1.4778    1.0450 H   0  0  0  0  0  0  0  0  0  0  0  0
   -5.7283   -0.3780    0.1470 H   0  0  0  0  0  0  0  0  0  0  0  0
   -4.2485   -1.1531   -0.5033 H   0  0  0  0  0  0  0  0  0  0  0  0
   -4.8201    0.4166   -1.1937 H   0  0  0  0  0  0  0  0  0  0  0  0
   -3.8249    6.8420    4.2360 H   0  0  0  0  0  0  0  0  0  0  0  0
   -3.3284   11.3135    5.3318 H   0  0  0  0  0  0  0  0  0  0  0  0
   -3.1283   10.5764    3.7064 H   0  0  0  0  0  0  0  0  0  0  0  0
   -2.0317    8.6027    4.6815 H   0  0  0  0  0  0  0  0  0  0  0  0
   -1.2674   10.0633    5.4143 H   0  0  0  0  0  0  0  0  0  0  0  0
   -2.4765    9.1119    6.3558 H   0  0  0  0  0  0  0  0  0  0  0  0
   -6.9104   10.5714    2.5963 H   0  0  0  0  0  0  0  0  0  0  0  0
   -2.8202   11.5115   -2.0975 H   0  0  0  0  0  0  0  0  0  0  0  0
   -3.3679   13.2063   -3.8325 H   0  0  0  0  0  0  0  0  0  0  0  0
   -6.8498   14.4015   -1.6147 H   0  0  0  0  0  0  0  0  0  0  0  0
  1  2  2  3
  2  3  1  0
  3  4  2  0
  3  5  1  0
  5  6  2  0
  6  7  1  0
  7  8  2  0
  8  9  1  0
  9 10  2  0
 10 11  1  0
 10 12  1  0
 12 13  2  0
 13 14  1  0
 14 15  2  0
 15 16  1  0
 16 17  2  3
 17 18  1  0
 18 19  3  0
 17 20  1  0
 20 21  3  0
  1 22  1  0
 22 23  2  0
 23 24  1  0
 24 25  1  0
 25 26  1  0
 26 27  1  0
 24 28  2  0
 28 29  1  0
 28 30  1  0
 30 31  2  0
 31 32  1  0
 32 33  2  0
 33 34  1  0
 34 35  2  0
 35 36  1  0
 36 37  1  0
 37 38  1  0
 36 39  2  0
 31 40  1  0
 40 41  1  0
 41 42  1  0
 42 43  1  0
 43 44  1  0
 44 45  1  0
 45 46  2  0
 46 47  1  0
 47 48  1  0
 45 49  1  0
 49 50  1  0
 50 51  1  0
 51 52  1  0
 52 53  1  0
 53 54  1  0
 54 55  2  0
 55 56  1  0
 56 57  2  0
 57 58  1  0
 58 59  1  0
 59 60  1  0
 58 61  2  0
 53 62  2  0
 62 63  1  0
 63 64  1  0
 64 65  1  0
 65 66  1  0
 66 67  1  0
 67 68  1  0
 68 69  1  0
 69 70  1  0
 70 71  1  0
 71 72  1  0
 69 73  1  0
 73 74  1  0
 66 75  1  0
 75 76  1  0
 62 77  1  0
 77 78  2  0
 78 79  1  0
 79 80  1  0
 80 81  1  0
 81 82  1  0
 79 83  2  0
 83 84  1  0
 83 85  1  0
 85 86  2  3
 86 87  1  0
 87 88  2  0
 87 89  1  0
 89 90  2  0
 90 91  1  0
 91 92  2  0
 92 93  1  0
 92 94  1  0
 94 95  2  0
 95 96  1  0
 96 97  2  3
 97 98  1  0
 98 99  3  0
 97100  1  0
100101  3  0
 16  2  1  0
 29 22  1  0
 72 30  1  0
 84 77  1  0
 96 86  1  0
 15  5  1  0
 39 32  1  0
 71 40  2  0
 95 89  1  0
 13  7  1  0
 70 42  2  0
 68 43  2  0
 48 44  2  0
 67 49  2  0
 65 50  2  0
 64 52  2  0
 61 54  1  0
  1102  1  0
  6103  1  0
  8104  1  0
  9105  1  0
 12106  1  0
 14107  1  0
 23108  1  0
 26109  1  0
 26110  1  0
 27111  1  0
 27112  1  0
 27113  1  0
 33114  1  0
 34115  1  0
 35116  1  0
 37117  1  0
 37118  1  0
 38119  1  0
 38120  1  0
 38121  1  0
 39122  1  0
 55123  1  0
 56124  1  0
 57125  1  0
 59126  1  0
 59127  1  0
 60128  1  0
 60129  1  0
 60130  1  0
 61131  1  0
 73132  1  0
 73133  1  0
 74134  1  0
 74135  1  0
 74136  1  0
 75137  1  0
 75138  1  0
 76139  1  0
 76140  1  0
 76141  1  0
 78142  1  0
 81143  1  0
 81144  1  0
 82145  1  0
 82146  1  0
 82147  1  0
 85148  1  0
 90149  1  0
 91150  1  0
 94151  1  0
M  END

