
     RDKit          3D

159175  0  0  0  0  0  0  0  0999 V2000
   -4.8876   -6.7611   -0.3330 C   0  0  0  0  0  0  0  0  0  0  0  0
   -3.7616   -7.4879   -0.4720 C   0  0  0  0  0  0  0  0  0  0  0  0
   -3.5147   -8.3400   -1.6340 C   0  0  0  0  0  0  0  0  0  0  0  0
   -4.3790   -8.7409   -2.4591 O   0  0  0  0  0  0  0  0  0  0  0  0
   -2.0864   -8.5560   -1.7390 C   0  0  0  0  0  0  0  0  0  0  0  0
   -1.3828   -9.1799   -2.7671 C   0  0  0  0  0  0  0  0  0  0  0  0
    0.0220   -9.1799   -2.7182 C   0  0  0  0  0  0  0  0  0  0  0  0
    0.7713   -9.7900   -3.7355 C   0  0  0  0  0  0  0  0  0  0  0  0
    2.1682   -9.7589   -3.6953 C   0  0  0  0  0  0  0  0  0  0  0  0
    2.8280   -9.1222   -2.6389 C   0  0  0  0  0  0  0  0  0  0  0  0
    4.1838   -9.0934   -2.6087 F   0  0  0  0  0  0  0  0  0  0  0  0
    2.0986   -8.5109   -1.6166 C   0  0  0  0  0  0  0  0  0  0  0  0
    0.6955   -8.5324   -1.6420 C   0  0  0  0  0  0  0  0  0  0  0  0
   -0.0464   -7.9074   -0.6191 C   0  0  0  0  0  0  0  0  0  0  0  0
   -1.4477   -7.9483   -0.6709 C   0  0  0  0  0  0  0  0  0  0  0  0
   -2.4624   -7.3830    0.2590 C   0  0  0  0  0  0  0  0  0  0  0  0
   -2.3117   -7.2488    1.6014 C   0  0  0  0  0  0  0  0  0  0  0  0
   -1.0276   -7.3250    2.2490 C   0  0  0  0  0  0  0  0  0  0  0  0
   -0.0031   -7.3814    2.7827 N   0  0  0  0  0  0  0  0  0  0  0  0
   -3.4425   -7.1769    2.4894 C   0  0  0  0  0  0  0  0  0  0  0  0
   -4.3466   -7.1208    3.2085 N   0  0  0  0  0  0  0  0  0  0  0  0
   -5.0020   -5.5438    0.4851 C   0  0  0  0  0  0  0  0  0  0  0  0
   -6.1239   -5.1718    1.2099 C   0  0  0  0  0  0  0  0  0  0  0  0
   -5.9366   -4.0052    1.9662 C   0  0  0  0  0  0  0  0  0  0  0  0
   -7.1677   -3.4720    3.1546 S   0  0  0  0  0  0  0  0  0  0  0  0
   -6.4144   -4.3804    4.5442 C   0  0  0  0  0  0  0  0  0  0  0  0
   -7.1170   -4.0145    5.8408 C   0  0  0  0  0  0  0  0  0  0  0  0
   -4.6788   -3.4091    1.7825 C   0  0  0  0  0  0  0  0  0  0  0  0
   -3.8125   -4.3791    0.7138 S   0  0  0  0  0  0  0  0  0  0  0  0
   -4.0359   -2.3547    2.5912 C   0  0  0  0  0  0  0  0  0  0  0  0
   -4.5966   -1.1704    3.1233 C   0  0  0  0  0  0  0  0  0  0  0  0
   -5.8989   -0.5881    2.7580 C   0  0  0  0  0  0  0  0  0  0  0  0
   -6.8101   -0.2214    3.7632 C   0  0  0  0  0  0  0  0  0  0  0  0
   -8.0210    0.3841    3.4244 C   0  0  0  0  0  0  0  0  0  0  0  0
   -8.3160    0.6654    2.0866 C   0  0  0  0  0  0  0  0  0  0  0  0
   -7.4078    0.3166    1.0720 C   0  0  0  0  0  0  0  0  0  0  0  0
   -7.6829    0.7099   -0.3568 C   0  0  0  0  0  0  0  0  0  0  0  0
   -6.9761    2.0208   -0.6954 C   0  0  0  0  0  0  0  0  0  0  0  0
   -6.2034   -0.3189    1.4132 C   0  0  0  0  0  0  0  0  0  0  0  0
   -3.6502   -0.4649    3.8776 C   0  0  0  0  0  0  0  0  0  0  0  0
   -3.6318    1.0997    4.5592 S   0  0  0  0  0  0  0  0  0  0  0  0
   -1.9780    0.9653    4.9342 C   0  0  0  0  0  0  0  0  0  0  0  0
   -0.9478    1.8500    5.0936 C   0  0  0  0  0  0  0  0  0  0  0  0
   -0.9535    3.2494    5.1959 C   0  0  0  0  0  0  0  0  0  0  0  0
    0.2781    3.9522    5.0270 C   0  0  0  0  0  0  0  0  0  0  0  0
    0.2286    5.3055    5.0800 N   0  0  0  0  0  0  0  0  0  0  0  0
   -1.3956    5.5124    5.3324 S   0  0  0  0  0  0  0  0  0  0  0  0
   -2.0685    3.9985    5.3793 N   0  0  0  0  0  0  0  0  0  0  0  0
    1.4495    3.2169    4.8141 C   0  0  0  0  0  0  0  0  0  0  0  0
    2.7267    3.6053    4.5246 C   0  0  0  0  0  0  0  0  0  0  0  0
    3.2967    4.9371    3.6494 S   0  0  0  0  0  0  0  0  0  0  0  0
    4.4808    3.9991    2.8802 C   0  0  0  0  0  0  0  0  0  0  0  0
    5.1663    4.2082    1.6767 C   0  0  0  0  0  0  0  0  0  0  0  0
    5.3334    5.5271    1.0317 C   0  0  0  0  0  0  0  0  0  0  0  0
    6.6178    5.9654    0.6781 C   0  0  0  0  0  0  0  0  0  0  0  0
    6.7952    7.2077    0.0641 C   0  0  0  0  0  0  0  0  0  0  0  0
    5.6909    8.0209   -0.2015 C   0  0  0  0  0  0  0  0  0  0  0  0
    4.3976    7.5911    0.1371 C   0  0  0  0  0  0  0  0  0  0  0  0
    3.2061    8.4506   -0.1981 C   0  0  0  0  0  0  0  0  0  0  0  0
    2.8623    8.3489   -1.6802 C   0  0  0  0  0  0  0  0  0  0  0  0
    4.2234    6.3372    0.7427 C   0  0  0  0  0  0  0  0  0  0  0  0
    5.5987    2.9899    1.1182 C   0  0  0  0  0  0  0  0  0  0  0  0
    5.1118    1.7110    2.1304 S   0  0  0  0  0  0  0  0  0  0  0  0
    4.4082    2.6889    3.2920 C   0  0  0  0  0  0  0  0  0  0  0  0
    3.4285    2.4555    4.2591 C   0  0  0  0  0  0  0  0  0  0  0  0
    2.6907    1.3289    4.4495 N   0  0  0  0  0  0  0  0  0  0  0  0
    1.4450    1.8254    4.7030 C   0  0  0  0  0  0  0  0  0  0  0  0
    0.2142    1.1317    4.7726 C   0  0  0  0  0  0  0  0  0  0  0  0
   -0.0941   -0.1236    4.3121 N   0  0  0  0  0  0  0  0  0  0  0  0
   -1.4387   -0.2000    4.4827 C   0  0  0  0  0  0  0  0  0  0  0  0
   -2.3970   -1.0192    3.9005 C   0  0  0  0  0  0  0  0  0  0  0  0
   -2.3858   -2.4328    3.0154 S   0  0  0  0  0  0  0  0  0  0  0  0
    0.6387   -0.8940    3.2946 C   0  0  0  0  0  0  0  0  0  0  0  0
    0.3761   -0.3383    1.8938 C   0  0  0  0  0  0  0  0  0  0  0  0
    3.2243    0.2180    5.2573 C   0  0  0  0  0  0  0  0  0  0  0  0
    4.3802   -0.5028    4.5751 C   0  0  0  0  0  0  0  0  0  0  0  0
    5.9464    2.7774   -0.2977 C   0  0  0  0  0  0  0  0  0  0  0  0
    6.5661    1.6407   -0.8108 C   0  0  0  0  0  0  0  0  0  0  0  0
    6.4511    1.5311   -2.2031 C   0  0  0  0  0  0  0  0  0  0  0  0
    7.0709    0.1197   -3.1200 S   0  0  0  0  0  0  0  0  0  0  0  0
    8.6422    0.9444   -3.5357 C   0  0  0  0  0  0  0  0  0  0  0  0
    9.5450   -0.0156   -4.2958 C   0  0  0  0  0  0  0  0  0  0  0  0
    5.7288    2.5676   -2.7832 C   0  0  0  0  0  0  0  0  0  0  0  0
    5.2402    3.6188   -1.5752 S   0  0  0  0  0  0  0  0  0  0  0  0
    5.2236    2.6060   -4.1612 C   0  0  0  0  0  0  0  0  0  0  0  0
    4.0480    2.0470   -4.5109 C   0  0  0  0  0  0  0  0  0  0  0  0
    3.0812    1.4359   -3.5888 C   0  0  0  0  0  0  0  0  0  0  0  0
    3.2924    1.1047   -2.3886 O   0  0  0  0  0  0  0  0  0  0  0  0
    1.8118    1.3233   -4.2690 C   0  0  0  0  0  0  0  0  0  0  0  0
    0.5892    0.9142   -3.7429 C   0  0  0  0  0  0  0  0  0  0  0  0
   -0.5603    0.9870   -4.5564 C   0  0  0  0  0  0  0  0  0  0  0  0
   -1.8244    0.5829   -4.0955 O   0  0  0  0  0  0  0  0  0  0  0  0
   -2.0804    0.0726   -2.7911 C   0  0  0  0  0  0  0  0  0  0  0  0
   -0.4596    1.4994   -5.8672 C   0  0  0  0  0  0  0  0  0  0  0  0
   -1.6302    1.5954   -6.6357 O   0  0  0  0  0  0  0  0  0  0  0  0
   -1.7104    2.2186   -7.9109 C   0  0  0  0  0  0  0  0  0  0  0  0
    0.7987    1.9047   -6.3723 C   0  0  0  0  0  0  0  0  0  0  0  0
    1.9392    1.7792   -5.5654 C   0  0  0  0  0  0  0  0  0  0  0  0
    3.3607    2.1404   -5.8350 C   0  0  0  0  0  0  0  0  0  0  0  0
    3.9540    2.2584   -7.0506 C   0  0  0  0  0  0  0  0  0  0  0  0
    5.3841    2.3477   -7.2036 C   0  0  0  0  0  0  0  0  0  0  0  0
    6.5327    2.4154   -7.3379 N   0  0  0  0  0  0  0  0  0  0  0  0
    3.2173    2.1533   -8.2834 C   0  0  0  0  0  0  0  0  0  0  0  0
    2.6368    2.0647   -9.2824 N   0  0  0  0  0  0  0  0  0  0  0  0
   -5.7521   -7.0206   -0.9346 H   0  0  0  0  0  0  0  0  0  0  0  0
   -1.9161   -9.6393   -3.5921 H   0  0  0  0  0  0  0  0  0  0  0  0
    0.2752  -10.2844   -4.5638 H   0  0  0  0  0  0  0  0  0  0  0  0
    2.7413  -10.2249   -4.4876 H   0  0  0  0  0  0  0  0  0  0  0  0
    2.6283   -8.0219   -0.8077 H   0  0  0  0  0  0  0  0  0  0  0  0
    0.4714   -7.3751    0.1667 H   0  0  0  0  0  0  0  0  0  0  0  0
   -7.0246   -5.7691    1.2552 H   0  0  0  0  0  0  0  0  0  0  0  0
   -5.3376   -4.1210    4.6301 H   0  0  0  0  0  0  0  0  0  0  0  0
   -6.5131   -5.4727    4.3660 H   0  0  0  0  0  0  0  0  0  0  0  0
   -8.1886   -4.3039    5.7888 H   0  0  0  0  0  0  0  0  0  0  0  0
   -6.6412   -4.5538    6.6876 H   0  0  0  0  0  0  0  0  0  0  0  0
   -7.0402   -2.9213    6.0218 H   0  0  0  0  0  0  0  0  0  0  0  0
   -6.5843   -0.4162    4.8038 H   0  0  0  0  0  0  0  0  0  0  0  0
   -8.7284    0.6485    4.1991 H   0  0  0  0  0  0  0  0  0  0  0  0
   -9.2456    1.1678    1.8461 H   0  0  0  0  0  0  0  0  0  0  0  0
   -8.7748    0.8344   -0.5163 H   0  0  0  0  0  0  0  0  0  0  0  0
   -7.3368   -0.0911   -1.0422 H   0  0  0  0  0  0  0  0  0  0  0  0
   -5.8758    1.8993   -0.6079 H   0  0  0  0  0  0  0  0  0  0  0  0
   -7.3122    2.8313   -0.0136 H   0  0  0  0  0  0  0  0  0  0  0  0
   -7.2173    2.3158   -1.7411 H   0  0  0  0  0  0  0  0  0  0  0  0
   -5.4802   -0.5585    0.6402 H   0  0  0  0  0  0  0  0  0  0  0  0
    7.4837    5.3439    0.8798 H   0  0  0  0  0  0  0  0  0  0  0  0
    7.7892    7.5396   -0.2072 H   0  0  0  0  0  0  0  0  0  0  0  0
    5.8433    8.9804   -0.6806 H   0  0  0  0  0  0  0  0  0  0  0  0
    3.4264    9.5089    0.0559 H   0  0  0  0  0  0  0  0  0  0  0  0
    2.3251    8.1409    0.4014 H   0  0  0  0  0  0  0  0  0  0  0  0
    2.6619    7.2932   -1.9610 H   0  0  0  0  0  0  0  0  0  0  0  0
    1.9530    8.9539   -1.8913 H   0  0  0  0  0  0  0  0  0  0  0  0
    3.6970    8.7422   -2.2978 H   0  0  0  0  0  0  0  0  0  0  0  0
    3.2238    5.9856    0.9693 H   0  0  0  0  0  0  0  0  0  0  0  0
    0.3384   -1.9607    3.3420 H   0  0  0  0  0  0  0  0  0  0  0  0
    1.7210   -0.8777    3.4620 H   0  0  0  0  0  0  0  0  0  0  0  0
   -0.7133   -0.2429    1.7050 H   0  0  0  0  0  0  0  0  0  0  0  0
    0.8424    0.6640    1.7900 H   0  0  0  0  0  0  0  0  0  0  0  0
    0.7974   -1.0230    1.1336 H   0  0  0  0  0  0  0  0  0  0  0  0
    2.4271   -0.5155    5.5013 H   0  0  0  0  0  0  0  0  0  0  0  0
    3.5768    0.6152    6.2337 H   0  0  0  0  0  0  0  0  0  0  0  0
    4.6516   -1.4023    5.1648 H   0  0  0  0  0  0  0  0  0  0  0  0
    4.1035   -0.8243    3.5510 H   0  0  0  0  0  0  0  0  0  0  0  0
    5.2736    0.1550    4.5334 H   0  0  0  0  0  0  0  0  0  0  0  0
    7.0325    0.8823   -0.1937 H   0  0  0  0  0  0  0  0  0  0  0  0
    8.4400    1.8342   -4.1697 H   0  0  0  0  0  0  0  0  0  0  0  0
    9.1525    1.2708   -2.6053 H   0  0  0  0  0  0  0  0  0  0  0  0
   10.5061    0.4869   -4.5455 H   0  0  0  0  0  0  0  0  0  0  0  0
    9.7572   -0.9123   -3.6745 H   0  0  0  0  0  0  0  0  0  0  0  0
    9.0550   -0.3319   -5.2407 H   0  0  0  0  0  0  0  0  0  0  0  0
    5.7841    3.2033   -4.8595 H   0  0  0  0  0  0  0  0  0  0  0  0
    0.5399    0.5701   -2.7165 H   0  0  0  0  0  0  0  0  0  0  0  0
   -3.1600   -0.1613   -2.7003 H   0  0  0  0  0  0  0  0  0  0  0  0
   -1.4977   -0.8576   -2.6228 H   0  0  0  0  0  0  0  0  0  0  0  0
   -1.8172    0.8316   -2.0258 H   0  0  0  0  0  0  0  0  0  0  0  0
   -1.0573    1.6951   -8.6389 H   0  0  0  0  0  0  0  0  0  0  0  0
   -1.4151    3.2851   -7.8326 H   0  0  0  0  0  0  0  0  0  0  0  0
   -2.7568    2.1662   -8.2773 H   0  0  0  0  0  0  0  0  0  0  0  0
    0.8639    2.3408   -7.3543 H   0  0  0  0  0  0  0  0  0  0  0  0
  1  2  2  3
  2  3  1  0
  3  4  2  0
  3  5  1  0
  5  6  2  0
  6  7  1  0
  7  8  2  0
  8  9  1  0
  9 10  2  0
 10 11  1  0
 10 12  1  0
 12 13  2  0
 13 14  1  0
 14 15  2  0
 15 16  1  0
 16 17  2  3
 17 18  1  0
 18 19  3  0
 17 20  1  0
 20 21  3  0
  1 22  1  0
 22 23  2  0
 23 24  1  0
 24 25  1  0
 25 26  1  0
 26 27  1  0
 24 28  2  0
 28 29  1  0
 28 30  1  0
 30 31  2  0
 31 32  1  0
 32 33  2  0
 33 34  1  0
 34 35  2  0
 35 36  1  0
 36 37  1  0
 37 38  1  0
 36 39  2  0
 31 40  1  0
 40 41  1  0
 41 42  1  0
 42 43  1  0
 43 44  1  0
 44 45  1  0
 45 46  2  0
 46 47  1  0
 47 48  1  0
 45 49  1  0
 49 50  1  0
 50 51  1  0
 51 52  1  0
 52 53  1  0
 53 54  1  0
 54 55  2  0
 55 56  1  0
 56 57  2  0
 57 58  1  0
 58 59  1  0
 59 60  1  0
 58 61  2  0
 53 62  2  0
 62 63  1  0
 63 64  1  0
 64 65  1  0
 65 66  1  0
 66 67  1  0
 67 68  1  0
 68 69  1  0
 69 70  1  0
 70 71  1  0
 71 72  1  0
 69 73  1  0
 73 74  1  0
 66 75  1  0
 75 76  1  0
 62 77  1  0
 77 78  2  0
 78 79  1  0
 79 80  1  0
 80 81  1  0
 81 82  1  0
 79 83  2  0
 83 84  1  0
 83 85  1  0
 85 86  2  3
 86 87  1  0
 87 88  2  0
 87 89  1  0
 89 90  2  0
 90 91  1  0
 91 92  1  0
 92 93  1  0
 91 94  2  0
 94 95  1  0
 95 96  1  0
 94 97  1  0
 97 98  2  0
 98 99  1  0
 99100  2  3
100101  1  0
101102  3  0
100103  1  0
103104  3  0
 16  2  1  0
 29 22  1  0
 72 30  1  0
 84 77  1  0
 99 86  1  0
 15  5  1  0
 39 32  1  0
 71 40  2  0
 98 89  1  0
 13  7  1  0
 70 42  2  0
 68 43  2  0
 48 44  2  0
 67 49  2  0
 65 50  2  0
 64 52  2  0
 61 54  1  0
  1105  1  0
  6106  1  0
  8107  1  0
  9108  1  0
 12109  1  0
 14110  1  0
 23111  1  0
 26112  1  0
 26113  1  0
 27114  1  0
 27115  1  0
 27116  1  0
 33117  1  0
 34118  1  0
 35119  1  0
 37120  1  0
 37121  1  0
 38122  1  0
 38123  1  0
 38124  1  0
 39125  1  0
 55126  1  0
 56127  1  0
 57128  1  0
 59129  1  0
 59130  1  0
 60131  1  0
 60132  1  0
 60133  1  0
 61134  1  0
 73135  1  0
 73136  1  0
 74137  1  0
 74138  1  0
 74139  1  0
 75140  1  0
 75141  1  0
 76142  1  0
 76143  1  0
 76144  1  0
 78145  1  0
 81146  1  0
 81147  1  0
 82148  1  0
 82149  1  0
 82150  1  0
 85151  1  0
 90152  1  0
 93153  1  0
 93154  1  0
 93155  1  0
 96156  1  0
 96157  1  0
 96158  1  0
 97159  1  0
M  END

