
     RDKit          3D

186205  0  0  0  0  0  0  0  0999 V2000
    4.0037   -2.8829    7.8199 C   0  0  0  0  0  0  0  0  0  0  0  0
    3.3124   -1.7200    7.8340 C   0  0  0  0  0  0  0  0  0  0  0  0
    1.9330   -1.5589    7.3404 C   0  0  0  0  0  0  0  0  0  0  0  0
    1.1452   -2.4745    6.9791 O   0  0  0  0  0  0  0  0  0  0  0  0
    1.6194   -0.1543    7.2780 C   0  0  0  0  0  0  0  0  0  0  0  0
    0.4298    0.4248    6.8397 C   0  0  0  0  0  0  0  0  0  0  0  0
    0.3136    1.8207    6.8605 C   0  0  0  0  0  0  0  0  0  0  0  0
   -0.8610    2.4435    6.4198 C   0  0  0  0  0  0  0  0  0  0  0  0
   -0.9715    3.8364    6.4555 C   0  0  0  0  0  0  0  0  0  0  0  0
    0.0826    4.6152    6.9371 C   0  0  0  0  0  0  0  0  0  0  0  0
   -0.0370    5.9649    6.9743 F   0  0  0  0  0  0  0  0  0  0  0  0
    1.2619    4.0082    7.3776 C   0  0  0  0  0  0  0  0  0  0  0  0
    1.3975    2.6122    7.3390 C   0  0  0  0  0  0  0  0  0  0  0  0
    2.5847    1.9911    7.7765 C   0  0  0  0  0  0  0  0  0  0  0  0
    2.6995    0.5905    7.7180 C   0  0  0  0  0  0  0  0  0  0  0  0
    3.8224   -0.3281    8.1053 C   0  0  0  0  0  0  0  0  0  0  0  0
    5.0268    0.0230    8.6381 C   0  0  0  0  0  0  0  0  0  0  0  0
    5.4811    1.3895    8.6983 C   0  0  0  0  0  0  0  0  0  0  0  0
    5.8704    2.4813    8.7384 N   0  0  0  0  0  0  0  0  0  0  0  0
    5.9740   -0.9415    9.1325 C   0  0  0  0  0  0  0  0  0  0  0  0
    6.7488   -1.7109    9.5145 N   0  0  0  0  0  0  0  0  0  0  0  0
    3.3950   -4.1618    7.4373 C   0  0  0  0  0  0  0  0  0  0  0  0
    2.3505   -4.7885    8.1075 C   0  0  0  0  0  0  0  0  0  0  0  0
    1.6687   -5.7410    7.3250 C   0  0  0  0  0  0  0  0  0  0  0  0
    0.4030   -6.3907    7.7631 C   0  0  0  0  0  0  0  0  0  0  0  0
   -0.2429   -7.1162    6.9603 O   0  0  0  0  0  0  0  0  0  0  0  0
   -0.1584   -6.1844    9.1431 C   0  0  0  0  0  0  0  0  0  0  0  0
   -1.0162   -4.9243    9.1952 C   0  0  0  0  0  0  0  0  0  0  0  0
    2.2376   -5.9013    6.0492 C   0  0  0  0  0  0  0  0  0  0  0  0
    3.5110   -4.8124    5.9037 S   0  0  0  0  0  0  0  0  0  0  0  0
    1.5260   -6.3463    4.8507 C   0  0  0  0  0  0  0  0  0  0  0  0
    1.7429   -7.5358    4.1242 C   0  0  0  0  0  0  0  0  0  0  0  0
    2.6102   -8.6520    4.5692 C   0  0  0  0  0  0  0  0  0  0  0  0
    3.5458   -9.2247    3.6892 C   0  0  0  0  0  0  0  0  0  0  0  0
    4.3539  -10.2843    4.1085 C   0  0  0  0  0  0  0  0  0  0  0  0
    4.2493  -10.7735    5.4129 C   0  0  0  0  0  0  0  0  0  0  0  0
    3.3407  -10.1971    6.3112 C   0  0  0  0  0  0  0  0  0  0  0  0
    3.2013  -10.7407    7.7088 C   0  0  0  0  0  0  0  0  0  0  0  0
    2.0622  -11.7535    7.7886 C   0  0  0  0  0  0  0  0  0  0  0  0
    2.5169   -9.1448    5.8798 C   0  0  0  0  0  0  0  0  0  0  0  0
    1.0876   -7.4725    2.8845 C   0  0  0  0  0  0  0  0  0  0  0  0
    1.0206   -8.4802    1.5024 S   0  0  0  0  0  0  0  0  0  0  0  0
    0.1247   -7.3164    0.6416 C   0  0  0  0  0  0  0  0  0  0  0  0
   -0.1195   -7.0073   -0.6721 C   0  0  0  0  0  0  0  0  0  0  0  0
    0.1642   -7.6923   -1.8639 C   0  0  0  0  0  0  0  0  0  0  0  0
    0.0242   -7.0025   -3.1119 C   0  0  0  0  0  0  0  0  0  0  0  0
    0.3331   -7.6961   -4.2364 N   0  0  0  0  0  0  0  0  0  0  0  0
    0.7824   -9.1397   -3.5544 S   0  0  0  0  0  0  0  0  0  0  0  0
    0.6127   -8.9696   -1.9153 N   0  0  0  0  0  0  0  0  0  0  0  0
   -0.4203   -5.6758   -3.0996 C   0  0  0  0  0  0  0  0  0  0  0  0
   -0.5949   -4.7370   -4.0904 C   0  0  0  0  0  0  0  0  0  0  0  0
   -0.3093   -4.4695   -5.7504 S   0  0  0  0  0  0  0  0  0  0  0  0
   -0.6771   -2.7944   -5.5869 C   0  0  0  0  0  0  0  0  0  0  0  0
   -0.5267   -1.6593   -6.4024 C   0  0  0  0  0  0  0  0  0  0  0  0
   -0.4443   -1.7063   -7.8782 C   0  0  0  0  0  0  0  0  0  0  0  0
    0.4553   -2.5645   -8.5284 C   0  0  0  0  0  0  0  0  0  0  0  0
    0.5257   -2.5828   -9.9252 C   0  0  0  0  0  0  0  0  0  0  0  0
   -0.3022   -1.7499  -10.6814 C   0  0  0  0  0  0  0  0  0  0  0  0
   -1.2011   -0.8795  -10.0437 C   0  0  0  0  0  0  0  0  0  0  0  0
   -2.1268   -0.0105  -10.8548 C   0  0  0  0  0  0  0  0  0  0  0  0
   -3.4535   -0.7173  -11.1077 C   0  0  0  0  0  0  0  0  0  0  0  0
   -1.2733   -0.8700   -8.6452 C   0  0  0  0  0  0  0  0  0  0  0  0
   -0.6270   -0.4663   -5.6336 C   0  0  0  0  0  0  0  0  0  0  0  0
   -0.9812   -0.8870   -4.0154 S   0  0  0  0  0  0  0  0  0  0  0  0
   -1.0141   -2.5138   -4.2937 C   0  0  0  0  0  0  0  0  0  0  0  0
   -0.9953   -3.6071   -3.4676 C   0  0  0  0  0  0  0  0  0  0  0  0
   -1.1696   -3.7401   -2.1361 N   0  0  0  0  0  0  0  0  0  0  0  0
   -0.7233   -5.0055   -1.8985 C   0  0  0  0  0  0  0  0  0  0  0  0
   -0.4884   -5.6515   -0.6646 C   0  0  0  0  0  0  0  0  0  0  0  0
   -0.3427   -5.1015    0.5842 N   0  0  0  0  0  0  0  0  0  0  0  0
   -0.0587   -6.1781    1.3577 C   0  0  0  0  0  0  0  0  0  0  0  0
    0.4569   -6.2817    2.6380 C   0  0  0  0  0  0  0  0  0  0  0  0
    0.6172   -5.2408    3.9329 S   0  0  0  0  0  0  0  0  0  0  0  0
    0.1383   -3.7446    0.8991 C   0  0  0  0  0  0  0  0  0  0  0  0
    1.6630   -3.6610    0.8288 C   0  0  0  0  0  0  0  0  0  0  0  0
   -2.1718   -2.9895   -1.3589 C   0  0  0  0  0  0  0  0  0  0  0  0
   -3.5539   -3.0379   -2.0189 C   0  0  0  0  0  0  0  0  0  0  0  0
   -0.2163    0.9280   -6.0199 C   0  0  0  0  0  0  0  0  0  0  0  0
    0.8787    1.1480   -6.8873 C   0  0  0  0  0  0  0  0  0  0  0  0
    1.5287    0.1137   -7.4758 F   0  0  0  0  0  0  0  0  0  0  0  0
    1.4309    2.4236   -7.0390 C   0  0  0  0  0  0  0  0  0  0  0  0
    2.5085    2.5835   -7.8474 F   0  0  0  0  0  0  0  0  0  0  0  0
    0.9432    3.5086   -6.2986 C   0  0  0  0  0  0  0  0  0  0  0  0
   -0.1258    3.3081   -5.4089 C   0  0  0  0  0  0  0  0  0  0  0  0
   -0.5204    4.2972   -4.5582 N   0  0  0  0  0  0  0  0  0  0  0  0
   -1.4665    4.1047   -3.5989 C   0  0  0  0  0  0  0  0  0  0  0  0
   -1.7883    5.2229   -2.6815 C   0  0  0  0  0  0  0  0  0  0  0  0
   -3.1086    5.4598   -2.2615 C   0  0  0  0  0  0  0  0  0  0  0  0
   -3.3834    6.4566   -1.3230 C   0  0  0  0  0  0  0  0  0  0  0  0
   -2.3403    7.2476   -0.7969 C   0  0  0  0  0  0  0  0  0  0  0  0
   -2.5578    8.2376    0.1773 O   0  0  0  0  0  0  0  0  0  0  0  0
   -3.7644    8.4160    0.9161 C   0  0  0  0  0  0  0  0  0  0  0  0
   -3.9392    7.3059    1.9473 C   0  0  0  0  0  0  0  0  0  0  0  0
   -1.0363    7.0514   -1.2671 C   0  0  0  0  0  0  0  0  0  0  0  0
   -0.7598    6.0464   -2.1953 C   0  0  0  0  0  0  0  0  0  0  0  0
   -0.0236    7.8227   -0.7967 F   0  0  0  0  0  0  0  0  0  0  0  0
   -2.0537    2.8232   -3.4813 C   0  0  0  0  0  0  0  0  0  0  0  0
   -1.6868    1.8613   -4.3605 N   0  0  0  0  0  0  0  0  0  0  0  0
   -0.7255    2.0380   -5.2997 C   0  0  0  0  0  0  0  0  0  0  0  0
   -2.8149    2.3716   -2.2981 C   0  0  0  0  0  0  0  0  0  0  0  0
   -2.2674    2.5208   -1.0138 C   0  0  0  0  0  0  0  0  0  0  0  0
   -2.8489    1.8793    0.0827 C   0  0  0  0  0  0  0  0  0  0  0  0
   -3.9849    1.0641   -0.0868 C   0  0  0  0  0  0  0  0  0  0  0  0
   -4.5670    0.3514    0.9758 O   0  0  0  0  0  0  0  0  0  0  0  0
   -3.9380    0.0801    2.2320 C   0  0  0  0  0  0  0  0  0  0  0  0
   -2.8025   -0.9251    2.0605 C   0  0  0  0  0  0  0  0  0  0  0  0
   -4.5534    0.9498   -1.3628 C   0  0  0  0  0  0  0  0  0  0  0  0
   -5.6565    0.1813   -1.5465 F   0  0  0  0  0  0  0  0  0  0  0  0
   -3.9616    1.5784   -2.4638 C   0  0  0  0  0  0  0  0  0  0  0  0
    1.7206    4.7666   -6.2778 C   0  0  0  0  0  0  0  0  0  0  0  0
    1.2174    5.9728   -6.5893 C   0  0  0  0  0  0  0  0  0  0  0  0
   -0.0344    6.2114   -7.3160 C   0  0  0  0  0  0  0  0  0  0  0  0
   -0.9496    5.3719   -7.5324 O   0  0  0  0  0  0  0  0  0  0  0  0
    0.0065    7.5568   -7.8519 C   0  0  0  0  0  0  0  0  0  0  0  0
   -0.9046    8.1725   -8.7127 C   0  0  0  0  0  0  0  0  0  0  0  0
   -0.6011    9.4500   -9.2074 C   0  0  0  0  0  0  0  0  0  0  0  0
   -1.4631   10.0696  -10.0536 F   0  0  0  0  0  0  0  0  0  0  0  0
    0.6119   10.0712   -8.8631 C   0  0  0  0  0  0  0  0  0  0  0  0
    0.9195   11.2919   -9.3742 F   0  0  0  0  0  0  0  0  0  0  0  0
    1.5148    9.4360   -7.9929 C   0  0  0  0  0  0  0  0  0  0  0  0
    1.1849    8.1765   -7.4684 C   0  0  0  0  0  0  0  0  0  0  0  0
    1.9553    7.2699   -6.5750 C   0  0  0  0  0  0  0  0  0  0  0  0
    2.9444    7.6216   -5.7131 C   0  0  0  0  0  0  0  0  0  0  0  0
    3.4236    6.7275   -4.6916 C   0  0  0  0  0  0  0  0  0  0  0  0
    3.7999    6.0171   -3.8564 N   0  0  0  0  0  0  0  0  0  0  0  0
    3.4549    8.9635   -5.6369 C   0  0  0  0  0  0  0  0  0  0  0  0
    3.8733   10.0416   -5.5639 N   0  0  0  0  0  0  0  0  0  0  0  0
    5.0692   -2.9046    7.9524 H   0  0  0  0  0  0  0  0  0  0  0  0
   -0.3798   -0.2014    6.4834 H   0  0  0  0  0  0  0  0  0  0  0  0
   -1.6881    1.8559    6.0438 H   0  0  0  0  0  0  0  0  0  0  0  0
   -1.8776    4.3122    6.1070 H   0  0  0  0  0  0  0  0  0  0  0  0
    2.0735    4.6318    7.7397 H   0  0  0  0  0  0  0  0  0  0  0  0
    3.3813    2.6114    8.1480 H   0  0  0  0  0  0  0  0  0  0  0  0
    2.0151   -4.4519    9.0826 H   0  0  0  0  0  0  0  0  0  0  0  0
   -0.7855   -7.0605    9.4236 H   0  0  0  0  0  0  0  0  0  0  0  0
    0.6574   -6.1208    9.8904 H   0  0  0  0  0  0  0  0  0  0  0  0
   -0.4515   -4.0463    8.8232 H   0  0  0  0  0  0  0  0  0  0  0  0
   -1.9289   -5.0623    8.5800 H   0  0  0  0  0  0  0  0  0  0  0  0
   -1.3250   -4.7264   10.2422 H   0  0  0  0  0  0  0  0  0  0  0  0
    3.6638   -8.8414    2.6841 H   0  0  0  0  0  0  0  0  0  0  0  0
    5.0674  -10.7235    3.4230 H   0  0  0  0  0  0  0  0  0  0  0  0
    4.8824  -11.5946    5.7237 H   0  0  0  0  0  0  0  0  0  0  0  0
    2.9995   -9.9094    8.4211 H   0  0  0  0  0  0  0  0  0  0  0  0
    4.1480  -11.2276    8.0312 H   0  0  0  0  0  0  0  0  0  0  0  0
    1.0923  -11.2643    7.5518 H   0  0  0  0  0  0  0  0  0  0  0  0
    2.2343  -12.5893    7.0773 H   0  0  0  0  0  0  0  0  0  0  0  0
    2.0080  -12.1683    8.8172 H   0  0  0  0  0  0  0  0  0  0  0  0
    1.7989   -8.7229    6.5654 H   0  0  0  0  0  0  0  0  0  0  0  0
    1.1197   -3.2026   -7.9596 H   0  0  0  0  0  0  0  0  0  0  0  0
    1.2288   -3.2384  -10.4213 H   0  0  0  0  0  0  0  0  0  0  0  0
   -0.2469   -1.7829  -11.7625 H   0  0  0  0  0  0  0  0  0  0  0  0
   -1.6578    0.2494  -11.8277 H   0  0  0  0  0  0  0  0  0  0  0  0
   -2.3197    0.9442  -10.3194 H   0  0  0  0  0  0  0  0  0  0  0  0
   -3.2892   -1.6627  -11.6700 H   0  0  0  0  0  0  0  0  0  0  0  0
   -3.9575   -0.9470  -10.1441 H   0  0  0  0  0  0  0  0  0  0  0  0
   -4.1194   -0.0598  -11.7080 H   0  0  0  0  0  0  0  0  0  0  0  0
   -1.9783   -0.2135   -8.1492 H   0  0  0  0  0  0  0  0  0  0  0  0
   -0.2343   -2.9907    0.1964 H   0  0  0  0  0  0  0  0  0  0  0  0
   -0.2161   -3.4393    1.9035 H   0  0  0  0  0  0  0  0  0  0  0  0
    2.0218   -4.0086   -0.1608 H   0  0  0  0  0  0  0  0  0  0  0  0
    1.9808   -2.6068    0.9651 H   0  0  0  0  0  0  0  0  0  0  0  0
    2.1353   -4.2710    1.6219 H   0  0  0  0  0  0  0  0  0  0  0  0
   -2.2929   -3.4314   -0.3486 H   0  0  0  0  0  0  0  0  0  0  0  0
   -1.8456   -1.9305   -1.2566 H   0  0  0  0  0  0  0  0  0  0  0  0
   -3.8481   -4.0926   -2.2151 H   0  0  0  0  0  0  0  0  0  0  0  0
   -4.3015   -2.5764   -1.3393 H   0  0  0  0  0  0  0  0  0  0  0  0
   -3.5508   -2.4734   -2.9782 H   0  0  0  0  0  0  0  0  0  0  0  0
   -3.9265    4.8697   -2.6545 H   0  0  0  0  0  0  0  0  0  0  0  0
   -4.4087    6.5959   -1.0106 H   0  0  0  0  0  0  0  0  0  0  0  0
   -4.6425    8.4675    0.2385 H   0  0  0  0  0  0  0  0  0  0  0  0
   -3.7073    9.3866    1.4510 H   0  0  0  0  0  0  0  0  0  0  0  0
   -4.9033    7.4416    2.4830 H   0  0  0  0  0  0  0  0  0  0  0  0
   -3.1079    7.3433    2.6831 H   0  0  0  0  0  0  0  0  0  0  0  0
   -3.9403    6.3115    1.4562 H   0  0  0  0  0  0  0  0  0  0  0  0
    0.2641    5.8960   -2.5169 H   0  0  0  0  0  0  0  0  0  0  0  0
   -1.3610    3.0904   -0.8613 H   0  0  0  0  0  0  0  0  0  0  0  0
   -2.3890    2.0049    1.0526 H   0  0  0  0  0  0  0  0  0  0  0  0
   -4.6939   -0.3549    2.9159 H   0  0  0  0  0  0  0  0  0  0  0  0
   -3.5657    1.0181    2.7039 H   0  0  0  0  0  0  0  0  0  0  0  0
   -2.3736   -1.1759    3.0532 H   0  0  0  0  0  0  0  0  0  0  0  0
   -1.9997   -0.5026    1.4207 H   0  0  0  0  0  0  0  0  0  0  0  0
   -3.1868   -1.8525    1.5895 H   0  0  0  0  0  0  0  0  0  0  0  0
   -4.3847    1.4283   -3.4503 H   0  0  0  0  0  0  0  0  0  0  0  0
    2.7699    4.6725   -6.0357 H   0  0  0  0  0  0  0  0  0  0  0  0
   -1.8124    7.6697   -9.0099 H   0  0  0  0  0  0  0  0  0  0  0  0
    2.4525    9.9202   -7.7807 H   0  0  0  0  0  0  0  0  0  0  0  0
  1  2  2  3
  2  3  1  0
  3  4  2  0
  3  5  1  0
  5  6  2  0
  6  7  1  0
  7  8  2  0
  8  9  1  0
  9 10  2  0
 10 11  1  0
 10 12  1  0
 12 13  2  0
 13 14  1  0
 14 15  2  0
 15 16  1  0
 16 17  2  3
 17 18  1  0
 18 19  3  0
 17 20  1  0
 20 21  3  0
  1 22  1  0
 22 23  2  0
 23 24  1  0
 24 25  1  0
 25 26  2  0
 25 27  1  0
 27 28  1  0
 24 29  2  0
 29 30  1  0
 29 31  1  0
 31 32  2  0
 32 33  1  0
 33 34  2  0
 34 35  1  0
 35 36  2  0
 36 37  1  0
 37 38  1  0
 38 39  1  0
 37 40  2  0
 32 41  1  0
 41 42  1  0
 42 43  1  0
 43 44  1  0
 44 45  1  0
 45 46  1  0
 46 47  2  0
 47 48  1  0
 48 49  1  0
 46 50  1  0
 50 51  1  0
 51 52  1  0
 52 53  1  0
 53 54  1  0
 54 55  1  0
 55 56  2  0
 56 57  1  0
 57 58  2  0
 58 59  1  0
 59 60  1  0
 60 61  1  0
 59 62  2  0
 54 63  2  0
 63 64  1  0
 64 65  1  0
 65 66  1  0
 66 67  1  0
 67 68  1  0
 68 69  1  0
 69 70  1  0
 70 71  1  0
 71 72  1  0
 72 73  1  0
 70 74  1  0
 74 75  1  0
 67 76  1  0
 76 77  1  0
 63 78  1  0
 78 79  2  0
 79 80  1  0
 79 81  1  0
 81 82  1  0
 81 83  2  0
 83 84  1  0
 84 85  2  0
 85 86  1  0
 86 87  1  0
 87 88  2  0
 88 89  1  0
 89 90  2  0
 90 91  1  0
 91 92  1  0
 92 93  1  0
 90 94  1  0
 94 95  2  0
 94 96  1  0
 86 97  2  0
 97 98  1  0
 98 99  2  0
 97100  1  0
100101  2  0
101102  1  0
102103  2  0
103104  1  0
104105  1  0
105106  1  0
103107  1  0
107108  1  0
107109  2  0
 83110  1  0
110111  2  3
111112  1  0
112113  2  0
112114  1  0
114115  2  0
115116  1  0
116117  1  0
116118  2  0
118119  1  0
118120  1  0
120121  2  0
121122  1  0
122123  2  3
123124  1  0
124125  3  0
123126  1  0
126127  3  0
 16  2  1  0
 30 22  1  0
 73 31  1  0
 99 78  1  0
109100  1  0
122111  1  0
 15  5  1  0
 40 33  1  0
 72 41  2  0
 99 84  1  0
121114  1  0
 13  7  1  0
 71 43  2  0
 95 87  1  0
 69 44  2  0
 49 45  2  0
 68 50  2  0
 66 51  2  0
 65 53  2  0
 62 55  1  0
  1128  1  0
  6129  1  0
  8130  1  0
  9131  1  0
 12132  1  0
 14133  1  0
 23134  1  0
 27135  1  0
 27136  1  0
 28137  1  0
 28138  1  0
 28139  1  0
 34140  1  0
 35141  1  0
 36142  1  0
 38143  1  0
 38144  1  0
 39145  1  0
 39146  1  0
 39147  1  0
 40148  1  0
 56149  1  0
 57150  1  0
 58151  1  0
 60152  1  0
 60153  1  0
 61154  1  0
 61155  1  0
 61156  1  0
 62157  1  0
 74158  1  0
 74159  1  0
 75160  1  0
 75161  1  0
 75162  1  0
 76163  1  0
 76164  1  0
 77165  1  0
 77166  1  0
 77167  1  0
 88168  1  0
 89169  1  0
 92170  1  0
 92171  1  0
 93172  1  0
 93173  1  0
 93174  1  0
 95175  1  0
101176  1  0
102177  1  0
105178  1  0
105179  1  0
106180  1  0
106181  1  0
106182  1  0
109183  1  0
110184  1  0
115185  1  0
120186  1  0
M  END

