
     RDKit          3D

174190  0  0  0  0  0  0  0  0999 V2000
    2.4265   -4.9477    7.7188 C   0  0  0  0  0  0  0  0  0  0  0  0
    3.3663   -4.0650    8.1215 C   0  0  0  0  0  0  0  0  0  0  0  0
    4.4536   -3.5448    7.2790 C   0  0  0  0  0  0  0  0  0  0  0  0
    4.6650   -3.8176    6.0685 O   0  0  0  0  0  0  0  0  0  0  0  0
    5.3734   -2.8074    8.1110 C   0  0  0  0  0  0  0  0  0  0  0  0
    6.5450   -2.1668    7.7103 C   0  0  0  0  0  0  0  0  0  0  0  0
    7.3223   -1.5213    8.6819 C   0  0  0  0  0  0  0  0  0  0  0  0
    8.5102   -0.8690    8.3186 C   0  0  0  0  0  0  0  0  0  0  0  0
    9.2845   -0.2338    9.2898 C   0  0  0  0  0  0  0  0  0  0  0  0
    8.8742   -0.2306   10.6271 C   0  0  0  0  0  0  0  0  0  0  0  0
    9.6264    0.4038   11.5600 F   0  0  0  0  0  0  0  0  0  0  0  0
    7.6883   -0.8717   11.0035 C   0  0  0  0  0  0  0  0  0  0  0  0
    6.9045   -1.5284   10.0427 C   0  0  0  0  0  0  0  0  0  0  0  0
    5.7150   -2.1929   10.4153 C   0  0  0  0  0  0  0  0  0  0  0  0
    4.9504   -2.8449    9.4285 C   0  0  0  0  0  0  0  0  0  0  0  0
    3.6599   -3.5988    9.5187 C   0  0  0  0  0  0  0  0  0  0  0  0
    2.8405   -3.7033   10.5990 C   0  0  0  0  0  0  0  0  0  0  0  0
    3.2284   -3.2859   11.9211 C   0  0  0  0  0  0  0  0  0  0  0  0
    3.5179   -2.9646   12.9943 N   0  0  0  0  0  0  0  0  0  0  0  0
    1.4832   -4.1732   10.4990 C   0  0  0  0  0  0  0  0  0  0  0  0
    0.3858   -4.5414   10.4291 N   0  0  0  0  0  0  0  0  0  0  0  0
    2.1076   -5.1806    6.3012 C   0  0  0  0  0  0  0  0  0  0  0  0
    2.0073   -6.4139    5.6738 C   0  0  0  0  0  0  0  0  0  0  0  0
    1.8309   -6.3211    4.2731 C   0  0  0  0  0  0  0  0  0  0  0  0
    1.8470   -7.5089    3.3799 C   0  0  0  0  0  0  0  0  0  0  0  0
    2.1378   -7.3678    2.1565 O   0  0  0  0  0  0  0  0  0  0  0  0
    1.6082   -8.8943    3.9259 C   0  0  0  0  0  0  0  0  0  0  0  0
    1.0475   -9.8483    2.8711 C   0  0  0  0  0  0  0  0  0  0  0  0
    1.7611   -4.9899    3.8340 C   0  0  0  0  0  0  0  0  0  0  0  0
    1.8951   -3.9734    5.1615 S   0  0  0  0  0  0  0  0  0  0  0  0
    1.8439   -4.4781    2.4613 C   0  0  0  0  0  0  0  0  0  0  0  0
    2.7182   -3.4525    2.0907 C   0  0  0  0  0  0  0  0  0  0  0  0
    2.4656   -3.0076    0.8012 C   0  0  0  0  0  0  0  0  0  0  0  0
    2.8530   -1.7252    0.1004 C   0  0  0  0  0  0  0  0  0  0  0  0
    4.2901   -1.7238   -0.4459 C   0  0  0  0  0  0  0  0  0  0  0  0
    4.8258   -0.5326   -0.9767 C   0  0  0  0  0  0  0  0  0  0  0  0
    6.1306   -0.4871   -1.4695 C   0  0  0  0  0  0  0  0  0  0  0  0
    6.9304   -1.6390   -1.4591 C   0  0  0  0  0  0  0  0  0  0  0  0
    8.3535   -1.5691   -1.9463 C   0  0  0  0  0  0  0  0  0  0  0  0
    9.2725   -1.0112   -0.8622 C   0  0  0  0  0  0  0  0  0  0  0  0
    6.4144   -2.8296   -0.9273 C   0  0  0  0  0  0  0  0  0  0  0  0
    5.1050   -2.8780   -0.4376 C   0  0  0  0  0  0  0  0  0  0  0  0
    2.5731   -0.5634    1.0660 C   0  0  0  0  0  0  0  0  0  0  0  0
    1.2656   -0.0546    1.2406 C   0  0  0  0  0  0  0  0  0  0  0  0
    0.9908    0.8962    2.2251 C   0  0  0  0  0  0  0  0  0  0  0  0
    2.0080    1.3586    3.0688 C   0  0  0  0  0  0  0  0  0  0  0  0
    1.6909    2.3132    4.1924 C   0  0  0  0  0  0  0  0  0  0  0  0
    1.3127    1.5431    5.4576 C   0  0  0  0  0  0  0  0  0  0  0  0
    3.3005    0.8432    2.9272 C   0  0  0  0  0  0  0  0  0  0  0  0
    3.5792   -0.1122    1.9467 C   0  0  0  0  0  0  0  0  0  0  0  0
    1.8650   -1.7892   -1.0609 C   0  0  0  0  0  0  0  0  0  0  0  0
    1.0283   -2.9091   -0.9749 C   0  0  0  0  0  0  0  0  0  0  0  0
    1.4427   -3.6556    0.1830 C   0  0  0  0  0  0  0  0  0  0  0  0
    0.7204   -4.7706    1.2108 S   0  0  0  0  0  0  0  0  0  0  0  0
   -0.0716   -3.0974   -1.8211 C   0  0  0  0  0  0  0  0  0  0  0  0
   -0.2892   -2.1165   -2.8062 C   0  0  0  0  0  0  0  0  0  0  0  0
   -1.5024   -1.9518   -3.7233 C   0  0  0  0  0  0  0  0  0  0  0  0
   -2.8117   -1.7261   -2.9521 C   0  0  0  0  0  0  0  0  0  0  0  0
   -2.8143   -1.1933   -1.6434 C   0  0  0  0  0  0  0  0  0  0  0  0
   -4.0100   -0.8320   -1.0191 C   0  0  0  0  0  0  0  0  0  0  0  0
   -5.2327   -0.9766   -1.6896 C   0  0  0  0  0  0  0  0  0  0  0  0
   -6.5086   -0.4889   -1.0553 C   0  0  0  0  0  0  0  0  0  0  0  0
   -6.7013    1.0033   -1.3166 C   0  0  0  0  0  0  0  0  0  0  0  0
   -5.2443   -1.4908   -2.9936 C   0  0  0  0  0  0  0  0  0  0  0  0
   -4.0484   -1.8533   -3.6202 C   0  0  0  0  0  0  0  0  0  0  0  0
   -1.5654   -3.1280   -4.7057 C   0  0  0  0  0  0  0  0  0  0  0  0
   -2.1446   -4.3490   -4.3002 C   0  0  0  0  0  0  0  0  0  0  0  0
   -2.2327   -5.4305   -5.1830 C   0  0  0  0  0  0  0  0  0  0  0  0
   -1.7117   -5.3279   -6.4808 C   0  0  0  0  0  0  0  0  0  0  0  0
   -1.8517   -6.4702   -7.4523 C   0  0  0  0  0  0  0  0  0  0  0  0
   -3.1934   -6.4028   -8.1740 C   0  0  0  0  0  0  0  0  0  0  0  0
   -1.1078   -4.1309   -6.8848 C   0  0  0  0  0  0  0  0  0  0  0  0
   -1.0196   -3.0491   -6.0046 C   0  0  0  0  0  0  0  0  0  0  0  0
   -1.1310   -0.6353   -4.3833 C   0  0  0  0  0  0  0  0  0  0  0  0
    0.0412   -0.1430   -3.9064 C   0  0  0  0  0  0  0  0  0  0  0  0
    0.5750   -1.0222   -2.9118 C   0  0  0  0  0  0  0  0  0  0  0  0
    1.6421   -0.8118   -2.0394 C   0  0  0  0  0  0  0  0  0  0  0  0
    0.1860    1.4970   -4.2091 S   0  0  0  0  0  0  0  0  0  0  0  0
   -1.2634    1.5596   -5.0964 C   0  0  0  0  0  0  0  0  0  0  0  0
   -1.8872    0.3049   -5.0871 C   0  0  0  0  0  0  0  0  0  0  0  0
   -1.8993    2.8031   -5.5420 C   0  0  0  0  0  0  0  0  0  0  0  0
   -2.8967    2.9137   -6.5051 C   0  0  0  0  0  0  0  0  0  0  0  0
   -3.4598    4.2029   -6.5836 C   0  0  0  0  0  0  0  0  0  0  0  0
   -4.5459    4.5728   -7.5310 C   0  0  0  0  0  0  0  0  0  0  0  0
   -4.9229    5.7724   -7.6168 O   0  0  0  0  0  0  0  0  0  0  0  0
   -5.1827    3.5663   -8.4492 C   0  0  0  0  0  0  0  0  0  0  0  0
   -4.3569    3.4007   -9.7232 C   0  0  0  0  0  0  0  0  0  0  0  0
   -2.8994    5.0839   -5.6501 C   0  0  0  0  0  0  0  0  0  0  0  0
   -1.7133    4.2838   -4.7769 S   0  0  0  0  0  0  0  0  0  0  0  0
   -3.4104    6.4051   -5.2665 C   0  0  0  0  0  0  0  0  0  0  0  0
   -4.5845    6.5661   -4.6290 C   0  0  0  0  0  0  0  0  0  0  0  0
   -5.4088    5.4774   -4.0775 C   0  0  0  0  0  0  0  0  0  0  0  0
   -5.2754    4.2440   -4.2919 O   0  0  0  0  0  0  0  0  0  0  0  0
   -6.3727    6.0541   -3.1702 C   0  0  0  0  0  0  0  0  0  0  0  0
   -7.2562    5.3768   -2.3314 C   0  0  0  0  0  0  0  0  0  0  0  0
   -8.0205    6.1228   -1.4205 C   0  0  0  0  0  0  0  0  0  0  0  0
   -8.9209    5.4839   -0.5551 C   0  0  0  0  0  0  0  0  0  0  0  0
   -9.6561    6.2335    0.3670 C   0  0  0  0  0  0  0  0  0  0  0  0
   -9.4999    7.6214    0.4357 C   0  0  0  0  0  0  0  0  0  0  0  0
  -10.2105    8.3351    1.3434 F   0  0  0  0  0  0  0  0  0  0  0  0
   -8.6087    8.2732   -0.4216 C   0  0  0  0  0  0  0  0  0  0  0  0
   -7.8635    7.5376   -1.3569 C   0  0  0  0  0  0  0  0  0  0  0  0
   -6.9516    8.1874   -2.2140 C   0  0  0  0  0  0  0  0  0  0  0  0
   -6.2291    7.4296   -3.1471 C   0  0  0  0  0  0  0  0  0  0  0  0
   -5.1812    7.8430   -4.1262 C   0  0  0  0  0  0  0  0  0  0  0  0
   -4.9826    9.0895   -4.6284 C   0  0  0  0  0  0  0  0  0  0  0  0
   -4.0517    9.3599   -5.6913 C   0  0  0  0  0  0  0  0  0  0  0  0
   -3.3039    9.5849   -6.5439 N   0  0  0  0  0  0  0  0  0  0  0  0
   -5.7842   10.2167   -4.2280 C   0  0  0  0  0  0  0  0  0  0  0  0
   -6.4285   11.1287   -3.9260 N   0  0  0  0  0  0  0  0  0  0  0  0
    1.8846   -5.5403    8.4367 H   0  0  0  0  0  0  0  0  0  0  0  0
    6.8438   -2.1785    6.6687 H   0  0  0  0  0  0  0  0  0  0  0  0
    8.8392   -0.8587    7.2853 H   0  0  0  0  0  0  0  0  0  0  0  0
   10.1993    0.2678    9.0023 H   0  0  0  0  0  0  0  0  0  0  0  0
    7.3869   -0.8550   12.0455 H   0  0  0  0  0  0  0  0  0  0  0  0
    5.4276   -2.1933   11.4523 H   0  0  0  0  0  0  0  0  0  0  0  0
    2.1358   -7.3458    6.2067 H   0  0  0  0  0  0  0  0  0  0  0  0
    0.8820   -8.8446    4.7656 H   0  0  0  0  0  0  0  0  0  0  0  0
    2.5651   -9.3029    4.3132 H   0  0  0  0  0  0  0  0  0  0  0  0
    1.7796   -9.9914    2.0474 H   0  0  0  0  0  0  0  0  0  0  0  0
    0.8447  -10.8375    3.3366 H   0  0  0  0  0  0  0  0  0  0  0  0
    0.1006   -9.4476    2.4521 H   0  0  0  0  0  0  0  0  0  0  0  0
    3.4287   -2.9871    2.7600 H   0  0  0  0  0  0  0  0  0  0  0  0
    4.2450    0.3818   -0.9771 H   0  0  0  0  0  0  0  0  0  0  0  0
    6.5232    0.4469   -1.8525 H   0  0  0  0  0  0  0  0  0  0  0  0
    8.4100   -0.9156   -2.8450 H   0  0  0  0  0  0  0  0  0  0  0  0
    8.7091   -2.5793   -2.2481 H   0  0  0  0  0  0  0  0  0  0  0  0
    9.2624   -1.6737    0.0307 H   0  0  0  0  0  0  0  0  0  0  0  0
   10.3089   -0.9510   -1.2534 H   0  0  0  0  0  0  0  0  0  0  0  0
    8.9454    0.0083   -0.5661 H   0  0  0  0  0  0  0  0  0  0  0  0
    7.0268   -3.7208   -0.8863 H   0  0  0  0  0  0  0  0  0  0  0  0
    4.7464   -3.8146   -0.0411 H   0  0  0  0  0  0  0  0  0  0  0  0
    0.4402   -0.4165    0.6438 H   0  0  0  0  0  0  0  0  0  0  0  0
   -0.0243    1.2551    2.3473 H   0  0  0  0  0  0  0  0  0  0  0  0
    2.5693    2.9583    4.4081 H   0  0  0  0  0  0  0  0  0  0  0  0
    0.8477    2.9740    3.8999 H   0  0  0  0  0  0  0  0  0  0  0  0
    1.0983    2.2590    6.2825 H   0  0  0  0  0  0  0  0  0  0  0  0
    2.1476    0.8817    5.7693 H   0  0  0  0  0  0  0  0  0  0  0  0
    0.4046    0.9253    5.2757 H   0  0  0  0  0  0  0  0  0  0  0  0
    4.0929    1.1614    3.5939 H   0  0  0  0  0  0  0  0  0  0  0  0
    4.5780   -0.5235    1.9022 H   0  0  0  0  0  0  0  0  0  0  0  0
   -0.7554   -3.9255   -1.6827 H   0  0  0  0  0  0  0  0  0  0  0  0
   -1.8918   -1.0153   -1.1043 H   0  0  0  0  0  0  0  0  0  0  0  0
   -3.9793   -0.4070   -0.0244 H   0  0  0  0  0  0  0  0  0  0  0  0
   -7.3796   -1.0449   -1.4647 H   0  0  0  0  0  0  0  0  0  0  0  0
   -6.4829   -0.6694    0.0425 H   0  0  0  0  0  0  0  0  0  0  0  0
   -5.8797    1.5868   -0.8465 H   0  0  0  0  0  0  0  0  0  0  0  0
   -6.7114    1.2078   -2.4090 H   0  0  0  0  0  0  0  0  0  0  0  0
   -7.6664    1.3352   -0.8835 H   0  0  0  0  0  0  0  0  0  0  0  0
   -6.1770   -1.5857   -3.5350 H   0  0  0  0  0  0  0  0  0  0  0  0
   -4.0898   -2.1984   -4.6447 H   0  0  0  0  0  0  0  0  0  0  0  0
   -2.5563   -4.4597   -3.3039 H   0  0  0  0  0  0  0  0  0  0  0  0
   -2.7121   -6.3479   -4.8553 H   0  0  0  0  0  0  0  0  0  0  0  0
   -1.0304   -6.4385   -8.2001 H   0  0  0  0  0  0  0  0  0  0  0  0
   -1.7684   -7.4396   -6.9156 H   0  0  0  0  0  0  0  0  0  0  0  0
   -4.0261   -6.5180   -7.4469 H   0  0  0  0  0  0  0  0  0  0  0  0
   -3.2568   -7.2233   -8.9196 H   0  0  0  0  0  0  0  0  0  0  0  0
   -3.2991   -5.4312   -8.7047 H   0  0  0  0  0  0  0  0  0  0  0  0
   -0.7036   -4.0313   -7.8838 H   0  0  0  0  0  0  0  0  0  0  0  0
   -0.5282   -2.1515   -6.3494 H   0  0  0  0  0  0  0  0  0  0  0  0
    2.2275    0.0941   -2.0835 H   0  0  0  0  0  0  0  0  0  0  0  0
   -2.8871    0.1253   -5.4535 H   0  0  0  0  0  0  0  0  0  0  0  0
   -3.2114    2.0736   -7.1111 H   0  0  0  0  0  0  0  0  0  0  0  0
   -6.2033    3.9186   -8.7258 H   0  0  0  0  0  0  0  0  0  0  0  0
   -5.3064    2.5871   -7.9380 H   0  0  0  0  0  0  0  0  0  0  0  0
   -4.8966    2.7490  -10.4367 H   0  0  0  0  0  0  0  0  0  0  0  0
   -4.1854    4.3884  -10.2020 H   0  0  0  0  0  0  0  0  0  0  0  0
   -3.3730    2.9395   -9.4907 H   0  0  0  0  0  0  0  0  0  0  0  0
   -2.7424    7.2381   -5.4112 H   0  0  0  0  0  0  0  0  0  0  0  0
   -7.3248    4.2941   -2.3693 H   0  0  0  0  0  0  0  0  0  0  0  0
   -9.0469    4.4087   -0.5868 H   0  0  0  0  0  0  0  0  0  0  0  0
  -10.3448    5.7347    1.0373 H   0  0  0  0  0  0  0  0  0  0  0  0
   -8.5028    9.3506   -0.3546 H   0  0  0  0  0  0  0  0  0  0  0  0
   -6.7896    9.2475   -2.1072 H   0  0  0  0  0  0  0  0  0  0  0  0
  1  2  2  3
  2  3  1  0
  3  4  2  0
  3  5  1  0
  5  6  2  0
  6  7  1  0
  7  8  2  0
  8  9  1  0
  9 10  2  0
 10 11  1  0
 10 12  1  0
 12 13  2  0
 13 14  1  0
 14 15  2  0
 15 16  1  0
 16 17  2  3
 17 18  1  0
 18 19  3  0
 17 20  1  0
 20 21  3  0
  1 22  1  0
 22 23  2  0
 23 24  1  0
 24 25  1  0
 25 26  2  0
 25 27  1  0
 27 28  1  0
 24 29  2  0
 29 30  1  0
 29 31  1  0
 31 32  2  0
 32 33  1  0
 33 34  1  0
 34 35  1  0
 35 36  2  0
 36 37  1  0
 37 38  2  0
 38 39  1  0
 39 40  1  0
 38 41  1  0
 41 42  2  0
 34 43  1  0
 43 44  2  0
 44 45  1  0
 45 46  2  0
 46 47  1  0
 47 48  1  0
 46 49  1  0
 49 50  2  0
 34 51  1  0
 51 52  2  0
 52 53  1  0
 53 54  1  0
 52 55  1  0
 55 56  2  0
 56 57  1  0
 57 58  1  0
 58 59  2  0
 59 60  1  0
 60 61  2  0
 61 62  1  0
 62 63  1  0
 61 64  1  0
 64 65  2  0
 57 66  1  0
 66 67  2  0
 67 68  1  0
 68 69  2  0
 69 70  1  0
 70 71  1  0
 69 72  1  0
 72 73  2  0
 57 74  1  0
 74 75  2  0
 75 76  1  0
 76 77  2  0
 75 78  1  0
 78 79  1  0
 79 80  2  0
 79 81  1  0
 81 82  2  0
 82 83  1  0
 83 84  1  0
 84 85  2  0
 84 86  1  0
 86 87  1  0
 83 88  2  0
 88 89  1  0
 88 90  1  0
 90 91  2  3
 91 92  1  0
 92 93  2  0
 92 94  1  0
 94 95  2  0
 95 96  1  0
 96 97  2  0
 97 98  1  0
 98 99  2  0
 99100  1  0
 99101  1  0
101102  2  0
102103  1  0
103104  2  0
104105  1  0
105106  2  3
106107  1  0
107108  3  0
106109  1  0
109110  3  0
 16  2  1  0
 30 22  1  0
 54 31  1  0
 76 56  1  0
 89 81  1  0
105 91  1  0
 15  5  1  0
 53 33  2  0
 65 58  1  0
 73 66  1  0
 80 74  1  0
104 94  1  0
 13  7  1  0
 42 35  1  0
 50 43  1  0
 77 51  1  0
102 96  1  0
  1111  1  0
  6112  1  0
  8113  1  0
  9114  1  0
 12115  1  0
 14116  1  0
 23117  1  0
 27118  1  0
 27119  1  0
 28120  1  0
 28121  1  0
 28122  1  0
 32123  1  0
 36124  1  0
 37125  1  0
 39126  1  0
 39127  1  0
 40128  1  0
 40129  1  0
 40130  1  0
 41131  1  0
 42132  1  0
 44133  1  0
 45134  1  0
 47135  1  0
 47136  1  0
 48137  1  0
 48138  1  0
 48139  1  0
 49140  1  0
 50141  1  0
 55142  1  0
 59143  1  0
 60144  1  0
 62145  1  0
 62146  1  0
 63147  1  0
 63148  1  0
 63149  1  0
 64150  1  0
 65151  1  0
 67152  1  0
 68153  1  0
 70154  1  0
 70155  1  0
 71156  1  0
 71157  1  0
 71158  1  0
 72159  1  0
 73160  1  0
 77161  1  0
 80162  1  0
 82163  1  0
 86164  1  0
 86165  1  0
 87166  1  0
 87167  1  0
 87168  1  0
 90169  1  0
 95170  1  0
 97171  1  0
 98172  1  0
101173  1  0
103174  1  0
M  END

