
     RDKit          3D

202221  0  0  0  0  0  0  0  0999 V2000
    4.2609    0.7512    9.0969 C   0  0  0  0  0  0  0  0  0  0  0  0
    4.4306   -0.4667    9.6476 C   0  0  0  0  0  0  0  0  0  0  0  0
    5.5407   -0.7636   10.5587 C   0  0  0  0  0  0  0  0  0  0  0  0
    6.2557    0.0872   11.1559 O   0  0  0  0  0  0  0  0  0  0  0  0
    5.7009   -2.1998   10.6302 C   0  0  0  0  0  0  0  0  0  0  0  0
    6.6894   -2.9259   11.2928 C   0  0  0  0  0  0  0  0  0  0  0  0
    6.6934   -4.3239   11.1646 C   0  0  0  0  0  0  0  0  0  0  0  0
    7.6604   -5.0960   11.8269 C   0  0  0  0  0  0  0  0  0  0  0  0
    7.6737   -6.4889   11.6763 C   0  0  0  0  0  0  0  0  0  0  0  0
    6.7212   -7.1181   10.8717 C   0  0  0  0  0  0  0  0  0  0  0  0
    6.7421   -8.4695   10.7362 F   0  0  0  0  0  0  0  0  0  0  0  0
    5.7461   -6.3608   10.2096 C   0  0  0  0  0  0  0  0  0  0  0  0
    5.7163   -4.9634   10.3452 C   0  0  0  0  0  0  0  0  0  0  0  0
    4.7335   -4.2016    9.6825 C   0  0  0  0  0  0  0  0  0  0  0  0
    4.7190   -2.8107    9.8668 C   0  0  0  0  0  0  0  0  0  0  0  0
    3.7725   -1.7769    9.3522 C   0  0  0  0  0  0  0  0  0  0  0  0
    2.4420   -1.9661    9.1742 C   0  0  0  0  0  0  0  0  0  0  0  0
    1.8555   -3.2785    9.0897 C   0  0  0  0  0  0  0  0  0  0  0  0
    1.3692   -4.3273    9.0164 N   0  0  0  0  0  0  0  0  0  0  0  0
    1.5034   -0.8727    9.2444 C   0  0  0  0  0  0  0  0  0  0  0  0
    0.7457   -0.0009    9.2993 N   0  0  0  0  0  0  0  0  0  0  0  0
    3.4216    1.0960    7.9321 C   0  0  0  0  0  0  0  0  0  0  0  0
    3.0417    0.2717    6.8691 C   0  0  0  0  0  0  0  0  0  0  0  0
    2.2269    0.9348    5.9350 C   0  0  0  0  0  0  0  0  0  0  0  0
    1.6306    0.3670    4.7952 C   0  0  0  0  0  0  0  0  0  0  0  0
    1.9017   -1.0136    4.3643 C   0  0  0  0  0  0  0  0  0  0  0  0
    1.4417   -2.1698    4.9735 C   0  0  0  0  0  0  0  0  0  0  0  0
    1.7233   -3.3281    4.2250 C   0  0  0  0  0  0  0  0  0  0  0  0
    1.2554   -4.9245    4.7818 Cl  0  0  0  0  0  0  0  0  0  0  0  0
    2.3756   -3.0725    3.0206 C   0  0  0  0  0  0  0  0  0  0  0  0
    2.9225   -4.2947    1.7347 Si  0  0  0  0  0  4  0  0  0  0  0  0
    4.2415   -5.3681    2.5472 C   0  0  0  0  0  0  0  0  0  0  0  0
    5.2107   -5.9824    1.5420 C   0  0  0  0  0  0  0  0  0  0  0  0
    3.6404   -3.3705    0.2490 C   0  0  0  0  0  0  0  0  0  0  0  0
    2.5894   -2.5408   -0.4880 C   0  0  0  0  0  0  0  0  0  0  0  0
    1.4317   -5.3313    1.2143 C   0  0  0  0  0  0  0  0  0  0  0  0
    1.7161   -6.1981   -0.0085 C   0  0  0  0  0  0  0  0  0  0  0  0
    2.6357   -1.4158    2.9116 S   0  0  0  0  0  0  0  0  0  0  0  0
    0.7949    1.1976    4.0340 C   0  0  0  0  0  0  0  0  0  0  0  0
    0.5930    2.5471    4.3307 C   0  0  0  0  0  0  0  0  0  0  0  0
    1.2407    3.1377    5.4346 C   0  0  0  0  0  0  0  0  0  0  0  0
    1.1203    4.5794    5.7351 C   0  0  0  0  0  0  0  0  0  0  0  0
    2.3989    5.6667    5.7731 S   0  0  0  0  0  0  0  0  0  0  0  0
    1.4955    7.0169    6.2131 C   0  0  0  0  0  0  0  0  0  0  0  0
    2.2725    8.6720    6.5779 Si  0  0  0  0  0  4  0  0  0  0  0  0
    0.9955   10.0571    6.6321 C   0  0  0  0  0  0  0  0  0  0  0  0
    1.6335   11.4414    6.6749 C   0  0  0  0  0  0  0  0  0  0  0  0
    3.5563    9.0463    5.2501 C   0  0  0  0  0  0  0  0  0  0  0  0
    2.9222    9.1259    3.8676 C   0  0  0  0  0  0  0  0  0  0  0  0
    3.1127    8.5826    8.2612 C   0  0  0  0  0  0  0  0  0  0  0  0
    4.3708    7.7199    8.2424 C   0  0  0  0  0  0  0  0  0  0  0  0
    0.1638    6.6115    6.3538 C   0  0  0  0  0  0  0  0  0  0  0  0
   -0.0446    5.2522    6.0732 C   0  0  0  0  0  0  0  0  0  0  0  0
   -1.1668    7.6475    6.8369 Cl  0  0  0  0  0  0  0  0  0  0  0  0
    2.0318    2.2898    6.2294 C   0  0  0  0  0  0  0  0  0  0  0  0
    2.8304    2.6539    7.6629 S   0  0  0  0  0  0  0  0  0  0  0  0
   -0.2752    3.1855    3.4239 C   0  0  0  0  0  0  0  0  0  0  0  0
   -0.7684    2.3224    2.4413 C   0  0  0  0  0  0  0  0  0  0  0  0
   -0.1134    0.7891    2.6811 S   0  0  0  0  0  0  0  0  0  0  0  0
   -1.6734    2.6544    1.3216 C   0  0  0  0  0  0  0  0  0  0  0  0
   -1.8175    3.8947    0.6766 C   0  0  0  0  0  0  0  0  0  0  0  0
   -1.1959    5.1541    1.1086 C   0  0  0  0  0  0  0  0  0  0  0  0
    0.1596    5.4100    0.8659 C   0  0  0  0  0  0  0  0  0  0  0  0
    0.7432    6.5907    1.3369 C   0  0  0  0  0  0  0  0  0  0  0  0
   -0.0173    7.5091    2.0602 C   0  0  0  0  0  0  0  0  0  0  0  0
   -1.3636    7.2438    2.3486 C   0  0  0  0  0  0  0  0  0  0  0  0
   -2.1748    8.2128    3.1656 C   0  0  0  0  0  0  0  0  0  0  0  0
   -2.9695    9.1557    2.2678 C   0  0  0  0  0  0  0  0  0  0  0  0
   -1.9550    6.0729    1.8490 C   0  0  0  0  0  0  0  0  0  0  0  0
   -2.6082    3.7814   -0.4668 C   0  0  0  0  0  0  0  0  0  0  0  0
   -2.7252    4.7540   -1.8503 S   0  0  0  0  0  0  0  0  0  0  0  0
   -3.5493    3.5286   -2.7008 C   0  0  0  0  0  0  0  0  0  0  0  0
   -3.6010    3.1541   -4.0197 C   0  0  0  0  0  0  0  0  0  0  0  0
   -2.9958    3.7572   -5.1344 C   0  0  0  0  0  0  0  0  0  0  0  0
   -2.7984    2.9862   -6.3210 C   0  0  0  0  0  0  0  0  0  0  0  0
   -2.1278    3.5657   -7.3376 N   0  0  0  0  0  0  0  0  0  0  0  0
   -1.8319    5.0508   -6.6601 S   0  0  0  0  0  0  0  0  0  0  0  0
   -2.4866    5.0153   -5.1417 N   0  0  0  0  0  0  0  0  0  0  0  0
   -3.2594    1.6686   -6.3373 C   0  0  0  0  0  0  0  0  0  0  0  0
   -3.2732    0.7183   -7.3165 C   0  0  0  0  0  0  0  0  0  0  0  0
   -2.7494    0.4789   -8.9147 S   0  0  0  0  0  0  0  0  0  0  0  0
   -3.4465   -1.0839   -8.9314 C   0  0  0  0  0  0  0  0  0  0  0  0
   -3.3590   -2.1630   -9.8113 C   0  0  0  0  0  0  0  0  0  0  0  0
   -2.5402   -2.1299  -11.0323 C   0  0  0  0  0  0  0  0  0  0  0  0
   -2.9908   -1.4598  -12.1776 C   0  0  0  0  0  0  0  0  0  0  0  0
   -2.1921   -1.4181  -13.3236 C   0  0  0  0  0  0  0  0  0  0  0  0
   -0.9376   -2.0375  -13.3341 C   0  0  0  0  0  0  0  0  0  0  0  0
   -0.4724   -2.6984  -12.1817 C   0  0  0  0  0  0  0  0  0  0  0  0
    0.8613   -3.4007  -12.1911 C   0  0  0  0  0  0  0  0  0  0  0  0
    0.7004   -4.8402  -12.6651 C   0  0  0  0  0  0  0  0  0  0  0  0
   -1.2848   -2.7525  -11.0401 C   0  0  0  0  0  0  0  0  0  0  0  0
   -3.9498   -3.3247   -9.2696 C   0  0  0  0  0  0  0  0  0  0  0  0
   -4.5360   -2.9672   -7.6954 S   0  0  0  0  0  0  0  0  0  0  0  0
   -4.0631   -1.3664   -7.7412 C   0  0  0  0  0  0  0  0  0  0  0  0
   -3.9479   -0.3416   -6.8220 C   0  0  0  0  0  0  0  0  0  0  0  0
   -4.3939   -0.1549   -5.5571 N   0  0  0  0  0  0  0  0  0  0  0  0
   -3.8967    1.0794   -5.2360 C   0  0  0  0  0  0  0  0  0  0  0  0
   -3.9509    1.7913   -4.0128 C   0  0  0  0  0  0  0  0  0  0  0  0
   -3.9701    1.3061   -2.7290 N   0  0  0  0  0  0  0  0  0  0  0  0
   -3.7104    2.3996   -1.9605 C   0  0  0  0  0  0  0  0  0  0  0  0
   -3.1310    2.5323   -0.6982 C   0  0  0  0  0  0  0  0  0  0  0  0
   -2.5529    1.4743    0.4619 S   0  0  0  0  0  0  0  0  0  0  0  0
   -3.7899   -0.0816   -2.2784 C   0  0  0  0  0  0  0  0  0  0  0  0
   -4.8900   -0.4843   -1.2902 C   0  0  0  0  0  0  0  0  0  0  0  0
   -5.6068   -0.7834   -5.0202 C   0  0  0  0  0  0  0  0  0  0  0  0
   -6.8311   -0.3842   -5.8424 C   0  0  0  0  0  0  0  0  0  0  0  0
   -3.9014   -4.6640   -9.9195 C   0  0  0  0  0  0  0  0  0  0  0  0
   -4.2648   -5.8341   -9.3680 C   0  0  0  0  0  0  0  0  0  0  0  0
   -4.9431   -5.9674   -8.0697 C   0  0  0  0  0  0  0  0  0  0  0  0
   -4.6234   -6.8821   -7.1325 C   0  0  0  0  0  0  0  0  0  0  0  0
   -5.5105   -7.1841   -6.0154 C   0  0  0  0  0  0  0  0  0  0  0  0
   -6.5309   -6.5256   -5.6795 O   0  0  0  0  0  0  0  0  0  0  0  0
   -5.0419   -8.3938   -5.3701 C   0  0  0  0  0  0  0  0  0  0  0  0
   -5.5394   -8.9853   -4.2059 C   0  0  0  0  0  0  0  0  0  0  0  0
   -4.8496  -10.0709   -3.6643 C   0  0  0  0  0  0  0  0  0  0  0  0
   -3.6701  -10.5479   -4.2786 C   0  0  0  0  0  0  0  0  0  0  0  0
   -2.8819  -11.6603   -3.6526 C   0  0  0  0  0  0  0  0  0  0  0  0
   -3.1969   -9.9362   -5.4592 C   0  0  0  0  0  0  0  0  0  0  0  0
   -3.9022   -8.8524   -6.0090 C   0  0  0  0  0  0  0  0  0  0  0  0
   -3.5306   -7.9052   -7.1084 C   0  0  0  0  0  0  0  0  0  0  0  0
   -2.3109   -7.8186   -7.6866 C   0  0  0  0  0  0  0  0  0  0  0  0
   -1.7373   -6.5646   -8.0876 C   0  0  0  0  0  0  0  0  0  0  0  0
   -1.2113   -5.5843   -8.4178 N   0  0  0  0  0  0  0  0  0  0  0  0
   -1.4170   -8.9414   -7.8010 C   0  0  0  0  0  0  0  0  0  0  0  0
   -0.6684   -9.8221   -7.9060 N   0  0  0  0  0  0  0  0  0  0  0  0
    4.8267    1.5752    9.5189 H   0  0  0  0  0  0  0  0  0  0  0  0
    7.4417   -2.4095   11.8807 H   0  0  0  0  0  0  0  0  0  0  0  0
    8.4061   -4.6282   12.4596 H   0  0  0  0  0  0  0  0  0  0  0  0
    8.4285   -7.0769   12.1857 H   0  0  0  0  0  0  0  0  0  0  0  0
    5.0200   -6.8701    9.5846 H   0  0  0  0  0  0  0  0  0  0  0  0
    4.0299   -4.6846    9.0234 H   0  0  0  0  0  0  0  0  0  0  0  0
    3.3269   -0.7687    6.7794 H   0  0  0  0  0  0  0  0  0  0  0  0
    0.9046   -2.1799    5.9122 H   0  0  0  0  0  0  0  0  0  0  0  0
    3.7370   -6.1753    3.1201 H   0  0  0  0  0  0  0  0  0  0  0  0
    4.8150   -4.7389    3.2603 H   0  0  0  0  0  0  0  0  0  0  0  0
    4.6741   -6.6086    0.8002 H   0  0  0  0  0  0  0  0  0  0  0  0
    5.7817   -5.1881    1.0155 H   0  0  0  0  0  0  0  0  0  0  0  0
    5.9355   -6.6256    2.0847 H   0  0  0  0  0  0  0  0  0  0  0  0
    4.0760   -4.1070   -0.4585 H   0  0  0  0  0  0  0  0  0  0  0  0
    4.4573   -2.7047    0.6066 H   0  0  0  0  0  0  0  0  0  0  0  0
    3.0528   -2.0657   -1.3811 H   0  0  0  0  0  0  0  0  0  0  0  0
    1.7471   -3.1792   -0.8284 H   0  0  0  0  0  0  0  0  0  0  0  0
    2.1938   -1.7338    0.1627 H   0  0  0  0  0  0  0  0  0  0  0  0
    0.5903   -4.6407    0.9901 H   0  0  0  0  0  0  0  0  0  0  0  0
    1.1330   -5.9834    2.0591 H   0  0  0  0  0  0  0  0  0  0  0  0
    2.0563   -5.5772   -0.8656 H   0  0  0  0  0  0  0  0  0  0  0  0
    0.7837   -6.7236   -0.3077 H   0  0  0  0  0  0  0  0  0  0  0  0
    2.4821   -6.9636    0.2269 H   0  0  0  0  0  0  0  0  0  0  0  0
    0.3441    9.9852    5.7363 H   0  0  0  0  0  0  0  0  0  0  0  0
    0.3768    9.9267    7.5422 H   0  0  0  0  0  0  0  0  0  0  0  0
    2.1902   11.6482    5.7372 H   0  0  0  0  0  0  0  0  0  0  0  0
    0.8362   12.2090    6.7813 H   0  0  0  0  0  0  0  0  0  0  0  0
    2.3200   11.5338    7.5416 H   0  0  0  0  0  0  0  0  0  0  0  0
    4.3217    8.2410    5.2478 H   0  0  0  0  0  0  0  0  0  0  0  0
    4.0584   10.0064    5.4876 H   0  0  0  0  0  0  0  0  0  0  0  0
    3.6960    9.4028    3.1209 H   0  0  0  0  0  0  0  0  0  0  0  0
    2.5077    8.1334    3.5875 H   0  0  0  0  0  0  0  0  0  0  0  0
    2.1174    9.8920    3.8436 H   0  0  0  0  0  0  0  0  0  0  0  0
    3.3854    9.6081    8.5823 H   0  0  0  0  0  0  0  0  0  0  0  0
    2.3902    8.1642    8.9938 H   0  0  0  0  0  0  0  0  0  0  0  0
    5.1399    8.1665    7.5773 H   0  0  0  0  0  0  0  0  0  0  0  0
    4.7930    7.6611    9.2681 H   0  0  0  0  0  0  0  0  0  0  0  0
    4.1397    6.6894    7.9043 H   0  0  0  0  0  0  0  0  0  0  0  0
   -1.0137    4.7728    6.1452 H   0  0  0  0  0  0  0  0  0  0  0  0
   -0.5532    4.2231    3.5016 H   0  0  0  0  0  0  0  0  0  0  0  0
    0.7624    4.6939    0.3178 H   0  0  0  0  0  0  0  0  0  0  0  0
    1.7883    6.7917    1.1367 H   0  0  0  0  0  0  0  0  0  0  0  0
    0.4411    8.4233    2.4123 H   0  0  0  0  0  0  0  0  0  0  0  0
   -2.8785    7.6544    3.8191 H   0  0  0  0  0  0  0  0  0  0  0  0
   -1.5100    8.8086    3.8289 H   0  0  0  0  0  0  0  0  0  0  0  0
   -3.5652    9.8539    2.8924 H   0  0  0  0  0  0  0  0  0  0  0  0
   -2.2820    9.7500    1.6263 H   0  0  0  0  0  0  0  0  0  0  0  0
   -3.6629    8.5745    1.6211 H   0  0  0  0  0  0  0  0  0  0  0  0
   -3.0001    5.8633    2.0535 H   0  0  0  0  0  0  0  0  0  0  0  0
   -3.9603   -0.9747  -12.1787 H   0  0  0  0  0  0  0  0  0  0  0  0
   -2.5456   -0.9037  -14.2105 H   0  0  0  0  0  0  0  0  0  0  0  0
   -0.3330   -1.9959  -14.2277 H   0  0  0  0  0  0  0  0  0  0  0  0
    1.5706   -2.8602  -12.8526 H   0  0  0  0  0  0  0  0  0  0  0  0
    1.2972   -3.4053  -11.1677 H   0  0  0  0  0  0  0  0  0  0  0  0
    0.0550   -5.4051  -11.9568 H   0  0  0  0  0  0  0  0  0  0  0  0
    1.6943   -5.3300  -12.7104 H   0  0  0  0  0  0  0  0  0  0  0  0
    0.2468   -4.8658  -13.6811 H   0  0  0  0  0  0  0  0  0  0  0  0
   -0.9312   -3.2657  -10.1518 H   0  0  0  0  0  0  0  0  0  0  0  0
   -2.7963   -0.1842   -1.7915 H   0  0  0  0  0  0  0  0  0  0  0  0
   -3.7626   -0.7896   -3.1230 H   0  0  0  0  0  0  0  0  0  0  0  0
   -4.6692   -1.4931   -0.8845 H   0  0  0  0  0  0  0  0  0  0  0  0
   -4.9509    0.2320   -0.4467 H   0  0  0  0  0  0  0  0  0  0  0  0
   -5.8807   -0.5157   -1.7842 H   0  0  0  0  0  0  0  0  0  0  0  0
   -5.4918   -1.8892   -5.0161 H   0  0  0  0  0  0  0  0  0  0  0  0
   -5.7931   -0.4375   -3.9945 H   0  0  0  0  0  0  0  0  0  0  0  0
   -6.7713   -0.8137   -6.8665 H   0  0  0  0  0  0  0  0  0  0  0  0
   -7.7532   -0.7601   -5.3511 H   0  0  0  0  0  0  0  0  0  0  0  0
   -6.8986    0.7244   -5.9166 H   0  0  0  0  0  0  0  0  0  0  0  0
   -3.4323   -4.7218  -10.8927 H   0  0  0  0  0  0  0  0  0  0  0  0
   -4.0486   -6.7449   -9.9093 H   0  0  0  0  0  0  0  0  0  0  0  0
   -5.8175   -5.3546   -7.9147 H   0  0  0  0  0  0  0  0  0  0  0  0
   -6.4279   -8.5967   -3.7229 H   0  0  0  0  0  0  0  0  0  0  0  0
   -5.2153  -10.5315   -2.7548 H   0  0  0  0  0  0  0  0  0  0  0  0
   -2.7549  -12.4873   -4.3860 H   0  0  0  0  0  0  0  0  0  0  0  0
   -3.3823  -12.0617   -2.7483 H   0  0  0  0  0  0  0  0  0  0  0  0
   -1.8826  -11.2787   -3.3607 H   0  0  0  0  0  0  0  0  0  0  0  0
   -2.2782  -10.2948   -5.8884 H   0  0  0  0  0  0  0  0  0  0  0  0
  1  2  2  3
  2  3  1  0
  3  4  2  0
  3  5  1  0
  5  6  2  0
  6  7  1  0
  7  8  2  0
  8  9  1  0
  9 10  2  0
 10 11  1  0
 10 12  1  0
 12 13  2  0
 13 14  1  0
 14 15  2  0
 15 16  1  0
 16 17  2  3
 17 18  1  0
 18 19  3  0
 17 20  1  0
 20 21  3  0
  1 22  1  0
 22 23  2  0
 23 24  1  0
 24 25  2  0
 25 26  1  0
 26 27  2  0
 27 28  1  0
 28 29  1  0
 28 30  2  0
 30 31  1  0
 31 32  1  0
 32 33  1  0
 31 34  1  0
 34 35  1  0
 31 36  1  0
 36 37  1  0
 30 38  1  0
 25 39  1  0
 39 40  2  0
 40 41  1  0
 41 42  1  0
 42 43  1  0
 43 44  1  0
 44 45  1  0
 45 46  1  0
 46 47  1  0
 45 48  1  0
 48 49  1  0
 45 50  1  0
 50 51  1  0
 44 52  2  0
 52 53  1  0
 52 54  1  0
 41 55  2  0
 55 56  1  0
 40 57  1  0
 57 58  2  0
 58 59  1  0
 58 60  1  0
 60 61  2  0
 61 62  1  0
 62 63  2  0
 63 64  1  0
 64 65  2  0
 65 66  1  0
 66 67  1  0
 67 68  1  0
 66 69  2  0
 61 70  1  0
 70 71  1  0
 71 72  1  0
 72 73  1  0
 73 74  1  0
 74 75  1  0
 75 76  2  0
 76 77  1  0
 77 78  1  0
 75 79  1  0
 79 80  1  0
 80 81  1  0
 81 82  1  0
 82 83  1  0
 83 84  1  0
 84 85  2  0
 85 86  1  0
 86 87  2  0
 87 88  1  0
 88 89  1  0
 89 90  1  0
 88 91  2  0
 83 92  2  0
 92 93  1  0
 93 94  1  0
 94 95  1  0
 95 96  1  0
 96 97  1  0
 97 98  1  0
 98 99  1  0
 99100  1  0
100101  1  0
101102  1  0
 99103  1  0
103104  1  0
 96105  1  0
105106  1  0
 92107  1  0
107108  2  3
108109  1  0
109110  2  3
110111  1  0
111112  2  0
111113  1  0
113114  2  0
114115  1  0
115116  2  0
116117  1  0
116118  1  0
118119  2  0
119120  1  0
120121  2  3
121122  1  0
122123  3  0
121124  1  0
124125  3  0
 16  2  1  0
 56 22  1  0
102 60  1  0
120110  1  0
 15  5  1  0
 55 24  1  0
 69 62  1  0
101 70  2  0
119113  1  0
 13  7  1  0
 38 26  1  0
 59 39  1  0
100 72  2  0
 53 42  2  0
 98 73  2  0
 78 74  2  0
 97 79  2  0
 95 80  2  0
 94 82  2  0
 91 84  1  0
  1126  1  0
  6127  1  0
  8128  1  0
  9129  1  0
 12130  1  0
 14131  1  0
 23132  1  0
 27133  1  0
 32134  1  0
 32135  1  0
 33136  1  0
 33137  1  0
 33138  1  0
 34139  1  0
 34140  1  0
 35141  1  0
 35142  1  0
 35143  1  0
 36144  1  0
 36145  1  0
 37146  1  0
 37147  1  0
 37148  1  0
 46149  1  0
 46150  1  0
 47151  1  0
 47152  1  0
 47153  1  0
 48154  1  0
 48155  1  0
 49156  1  0
 49157  1  0
 49158  1  0
 50159  1  0
 50160  1  0
 51161  1  0
 51162  1  0
 51163  1  0
 53164  1  0
 57165  1  0
 63166  1  0
 64167  1  0
 65168  1  0
 67169  1  0
 67170  1  0
 68171  1  0
 68172  1  0
 68173  1  0
 69174  1  0
 85175  1  0
 86176  1  0
 87177  1  0
 89178  1  0
 89179  1  0
 90180  1  0
 90181  1  0
 90182  1  0
 91183  1  0
103184  1  0
103185  1  0
104186  1  0
104187  1  0
104188  1  0
105189  1  0
105190  1  0
106191  1  0
106192  1  0
106193  1  0
107194  1  0
108195  1  0
109196  1  0
114197  1  0
115198  1  0
117199  1  0
117200  1  0
117201  1  0
118202  1  0
M  END

