
     RDKit          3D

169189  0  0  0  0  0  0  0  0999 V2000
    5.5218   -0.1368   -5.5580 C   0  0  0  0  0  0  0  0  0  0  0  0
    4.4662    0.2203   -6.3047 C   0  0  0  0  0  0  0  0  0  0  0  0
    4.4294   -0.0266   -7.7439 C   0  0  0  0  0  0  0  0  0  0  0  0
    5.1775   -0.8204   -8.3730 O   0  0  0  0  0  0  0  0  0  0  0  0
    3.4566    0.8633   -8.3392 C   0  0  0  0  0  0  0  0  0  0  0  0
    3.1604    1.0179   -9.6901 C   0  0  0  0  0  0  0  0  0  0  0  0
    2.1710    1.9416  -10.0583 C   0  0  0  0  0  0  0  0  0  0  0  0
    1.8450    2.1302  -11.4067 C   0  0  0  0  0  0  0  0  0  0  0  0
    0.8649    3.0577  -11.7686 C   0  0  0  0  0  0  0  0  0  0  0  0
    0.2006    3.7982  -10.7871 C   0  0  0  0  0  0  0  0  0  0  0  0
   -0.7509    4.6974  -11.1434 F   0  0  0  0  0  0  0  0  0  0  0  0
    0.5088    3.6154   -9.4365 C   0  0  0  0  0  0  0  0  0  0  0  0
    1.5032    2.7000   -9.0580 C   0  0  0  0  0  0  0  0  0  0  0  0
    1.8344    2.5286   -7.6986 C   0  0  0  0  0  0  0  0  0  0  0  0
    2.8353    1.6029   -7.3503 C   0  0  0  0  0  0  0  0  0  0  0  0
    3.3579    1.1743   -6.0135 C   0  0  0  0  0  0  0  0  0  0  0  0
    2.7393    1.3613   -4.8258 C   0  0  0  0  0  0  0  0  0  0  0  0
    2.9423    0.4850   -3.7010 C   0  0  0  0  0  0  0  0  0  0  0  0
    3.0758   -0.1997   -2.7750 N   0  0  0  0  0  0  0  0  0  0  0  0
    1.8641    2.4794   -4.5906 C   0  0  0  0  0  0  0  0  0  0  0  0
    1.1953    3.4101   -4.4002 N   0  0  0  0  0  0  0  0  0  0  0  0
    5.9201    0.4538   -4.2720 C   0  0  0  0  0  0  0  0  0  0  0  0
    5.7743    2.0971   -3.8124 S   0  0  0  0  0  0  0  0  0  0  0  0
    6.4974    1.8356   -2.3245 C   0  0  0  0  0  0  0  0  0  0  0  0
    6.4124    2.3811   -1.0734 C   0  0  0  0  0  0  0  0  0  0  0  0
    6.6645    1.3683   -0.1996 C   0  0  0  0  0  0  0  0  0  0  0  0
    6.9270    0.1955   -0.8352 N   0  0  0  0  0  0  0  0  0  0  0  0
    6.9197   -1.1562   -0.2653 C   0  0  0  0  0  0  0  0  0  0  0  0
    8.2461   -1.8605   -0.5383 C   0  0  0  0  0  0  0  0  0  0  0  0
    6.8005    0.5211   -2.1481 C   0  0  0  0  0  0  0  0  0  0  0  0
    6.5057   -0.2926   -3.2396 C   0  0  0  0  0  0  0  0  0  0  0  0
    6.2062    1.5944    1.0944 C   0  0  0  0  0  0  0  0  0  0  0  0
    5.5711    2.8474    1.1957 C   0  0  0  0  0  0  0  0  0  0  0  0
    5.5162    3.5904   -0.3444 S   0  0  0  0  0  0  0  0  0  0  0  0
    4.8109    3.3287    2.3675 C   0  0  0  0  0  0  0  0  0  0  0  0
    4.9289    2.8785    3.7033 C   0  0  0  0  0  0  0  0  0  0  0  0
    5.9196    1.9064    4.1886 C   0  0  0  0  0  0  0  0  0  0  0  0
    7.2756    2.2558    4.2574 C   0  0  0  0  0  0  0  0  0  0  0  0
    8.2243    1.3137    4.6586 C   0  0  0  0  0  0  0  0  0  0  0  0
    7.8285    0.0074    4.9673 C   0  0  0  0  0  0  0  0  0  0  0  0
    6.4756   -0.3629    4.8775 C   0  0  0  0  0  0  0  0  0  0  0  0
    6.0467   -1.7752    5.1777 C   0  0  0  0  0  0  0  0  0  0  0  0
    5.4309   -1.8771    6.5696 C   0  0  0  0  0  0  0  0  0  0  0  0
    5.5206    0.6007    4.5131 C   0  0  0  0  0  0  0  0  0  0  0  0
    3.9078    3.3909    4.5013 C   0  0  0  0  0  0  0  0  0  0  0  0
    3.3174    2.9458    6.0407 S   0  0  0  0  0  0  0  0  0  0  0  0
    1.9268    3.8885    5.8078 C   0  0  0  0  0  0  0  0  0  0  0  0
    0.6465    3.8959    6.2823 C   0  0  0  0  0  0  0  0  0  0  0  0
    0.0811    3.3494    7.4335 C   0  0  0  0  0  0  0  0  0  0  0  0
   -1.3346    3.3752    7.5728 C   0  0  0  0  0  0  0  0  0  0  0  0
   -1.8453    2.8101    8.6918 N   0  0  0  0  0  0  0  0  0  0  0  0
   -0.4459    2.3347    9.4398 S   0  0  0  0  0  0  0  0  0  0  0  0
    0.7938    2.7764    8.4333 N   0  0  0  0  0  0  0  0  0  0  0  0
   -2.1179    3.8619    6.5127 C   0  0  0  0  0  0  0  0  0  0  0  0
   -3.4138    3.5384    6.2106 C   0  0  0  0  0  0  0  0  0  0  0  0
   -4.4450    2.3327    6.8202 S   0  0  0  0  0  0  0  0  0  0  0  0
   -5.1479    2.0707    5.3057 C   0  0  0  0  0  0  0  0  0  0  0  0
   -5.9539    1.0422    4.8088 C   0  0  0  0  0  0  0  0  0  0  0  0
   -6.5663   -0.0148    5.6306 C   0  0  0  0  0  0  0  0  0  0  0  0
   -7.9529   -0.2214    5.5855 C   0  0  0  0  0  0  0  0  0  0  0  0
   -8.5276   -1.2985    6.2637 C   0  0  0  0  0  0  0  0  0  0  0  0
   -7.7179   -2.1931    6.9691 C   0  0  0  0  0  0  0  0  0  0  0  0
   -6.3282   -1.9965    7.0240 C   0  0  0  0  0  0  0  0  0  0  0  0
   -5.4425   -3.0183    7.6872 C   0  0  0  0  0  0  0  0  0  0  0  0
   -4.9926   -4.0693    6.6761 C   0  0  0  0  0  0  0  0  0  0  0  0
   -5.7581   -0.8988    6.3614 C   0  0  0  0  0  0  0  0  0  0  0  0
   -5.9995    1.0689    3.4053 C   0  0  0  0  0  0  0  0  0  0  0  0
   -5.0272    2.3412    2.8306 S   0  0  0  0  0  0  0  0  0  0  0  0
   -4.5679    2.8730    4.3542 C   0  0  0  0  0  0  0  0  0  0  0  0
   -3.5569    3.6988    4.8592 C   0  0  0  0  0  0  0  0  0  0  0  0
   -2.4210    4.1666    4.2686 N   0  0  0  0  0  0  0  0  0  0  0  0
   -1.5408    4.3246    5.3127 C   0  0  0  0  0  0  0  0  0  0  0  0
   -0.1269    4.4704    5.2622 C   0  0  0  0  0  0  0  0  0  0  0  0
    0.6657    4.9142    4.2399 N   0  0  0  0  0  0  0  0  0  0  0  0
    1.9005    4.4933    4.5949 C   0  0  0  0  0  0  0  0  0  0  0  0
    3.0325    4.2218    3.8501 C   0  0  0  0  0  0  0  0  0  0  0  0
    3.4373    4.3395    2.2314 S   0  0  0  0  0  0  0  0  0  0  0  0
    0.4128    6.0734    3.3677 C   0  0  0  0  0  0  0  0  0  0  0  0
    1.3020    7.2655    3.7460 C   0  0  0  0  0  0  0  0  0  0  0  0
   -2.0942    3.9272    2.8506 C   0  0  0  0  0  0  0  0  0  0  0  0
   -1.4351    2.5643    2.6619 C   0  0  0  0  0  0  0  0  0  0  0  0
   -6.4689   -0.0190    2.5366 C   0  0  0  0  0  0  0  0  0  0  0  0
   -7.0532    0.2157    0.9492 S   0  0  0  0  0  0  0  0  0  0  0  0
   -7.0338   -1.4183    0.5936 C   0  0  0  0  0  0  0  0  0  0  0  0
   -6.8339   -2.1571   -0.5417 C   0  0  0  0  0  0  0  0  0  0  0  0
   -6.1529   -3.2690   -0.1649 C   0  0  0  0  0  0  0  0  0  0  0  0
   -5.9170   -3.2895    1.1736 N   0  0  0  0  0  0  0  0  0  0  0  0
   -5.0189   -4.1825    1.9112 C   0  0  0  0  0  0  0  0  0  0  0  0
   -5.8107   -5.3108    2.5572 C   0  0  0  0  0  0  0  0  0  0  0  0
   -6.4780   -2.1328    1.6136 C   0  0  0  0  0  0  0  0  0  0  0  0
   -6.1657   -1.3757    2.7446 C   0  0  0  0  0  0  0  0  0  0  0  0
   -5.4872   -3.9227   -1.2054 C   0  0  0  0  0  0  0  0  0  0  0  0
   -5.6550   -3.2432   -2.4287 C   0  0  0  0  0  0  0  0  0  0  0  0
   -6.6161   -1.8499   -2.1682 S   0  0  0  0  0  0  0  0  0  0  0  0
   -5.0382   -3.7269   -3.6856 C   0  0  0  0  0  0  0  0  0  0  0  0
   -4.7540   -3.0501   -4.8242 C   0  0  0  0  0  0  0  0  0  0  0  0
   -4.7799   -1.5951   -5.0561 C   0  0  0  0  0  0  0  0  0  0  0  0
   -5.4436   -0.7266   -4.4278 O   0  0  0  0  0  0  0  0  0  0  0  0
   -3.9335   -1.2924   -6.1914 C   0  0  0  0  0  0  0  0  0  0  0  0
   -3.5545   -0.0387   -6.6685 C   0  0  0  0  0  0  0  0  0  0  0  0
   -2.6138    0.0390   -7.7128 C   0  0  0  0  0  0  0  0  0  0  0  0
   -2.1798    1.3963   -8.2059 C   0  0  0  0  0  0  0  0  0  0  0  0
   -2.0378   -1.1566   -8.2288 C   0  0  0  0  0  0  0  0  0  0  0  0
   -0.9806   -1.1074   -9.3000 C   0  0  0  0  0  0  0  0  0  0  0  0
   -2.4522   -2.4095   -7.7233 C   0  0  0  0  0  0  0  0  0  0  0  0
   -3.4340   -2.4616   -6.7215 C   0  0  0  0  0  0  0  0  0  0  0  0
   -4.0195   -3.6203   -5.9983 C   0  0  0  0  0  0  0  0  0  0  0  0
   -4.0887   -4.9011   -6.4599 C   0  0  0  0  0  0  0  0  0  0  0  0
   -3.5325   -5.2966   -7.7266 C   0  0  0  0  0  0  0  0  0  0  0  0
   -3.1010   -5.6298   -8.7465 N   0  0  0  0  0  0  0  0  0  0  0  0
   -4.8843   -5.9125   -5.8100 C   0  0  0  0  0  0  0  0  0  0  0  0
   -5.5203   -6.7318   -5.2956 N   0  0  0  0  0  0  0  0  0  0  0  0
    6.2113   -0.8706   -5.9597 H   0  0  0  0  0  0  0  0  0  0  0  0
    3.6887    0.4312  -10.4331 H   0  0  0  0  0  0  0  0  0  0  0  0
    2.3418    1.5586  -12.1815 H   0  0  0  0  0  0  0  0  0  0  0  0
    0.6192    3.2066  -12.8142 H   0  0  0  0  0  0  0  0  0  0  0  0
   -0.0259    4.1903   -8.6885 H   0  0  0  0  0  0  0  0  0  0  0  0
    1.3224    3.1122   -6.9568 H   0  0  0  0  0  0  0  0  0  0  0  0
    6.0882   -1.7419   -0.7147 H   0  0  0  0  0  0  0  0  0  0  0  0
    6.7614   -1.1237    0.8324 H   0  0  0  0  0  0  0  0  0  0  0  0
    8.1788   -2.9195   -0.2162 H   0  0  0  0  0  0  0  0  0  0  0  0
    8.4954   -1.8337   -1.6203 H   0  0  0  0  0  0  0  0  0  0  0  0
    9.0585   -1.3691    0.0364 H   0  0  0  0  0  0  0  0  0  0  0  0
    6.6085   -1.3683   -3.2464 H   0  0  0  0  0  0  0  0  0  0  0  0
    6.2073    0.8389    1.8568 H   0  0  0  0  0  0  0  0  0  0  0  0
    7.5949    3.2573    3.9942 H   0  0  0  0  0  0  0  0  0  0  0  0
    9.2691    1.5892    4.7143 H   0  0  0  0  0  0  0  0  0  0  0  0
    8.5772   -0.7141    5.2687 H   0  0  0  0  0  0  0  0  0  0  0  0
    5.2993   -2.1061    4.4238 H   0  0  0  0  0  0  0  0  0  0  0  0
    6.9095   -2.4727    5.1095 H   0  0  0  0  0  0  0  0  0  0  0  0
    5.1225   -2.9248    6.7671 H   0  0  0  0  0  0  0  0  0  0  0  0
    4.5321   -1.2253    6.6422 H   0  0  0  0  0  0  0  0  0  0  0  0
    6.1676   -1.5652    7.3414 H   0  0  0  0  0  0  0  0  0  0  0  0
    4.4765    0.3230    4.4391 H   0  0  0  0  0  0  0  0  0  0  0  0
   -8.5842    0.4448    5.0102 H   0  0  0  0  0  0  0  0  0  0  0  0
   -9.5965   -1.4552    6.2185 H   0  0  0  0  0  0  0  0  0  0  0  0
   -8.1744   -3.0459    7.4601 H   0  0  0  0  0  0  0  0  0  0  0  0
   -5.9830   -3.5211    8.5201 H   0  0  0  0  0  0  0  0  0  0  0  0
   -4.5486   -2.5215    8.1210 H   0  0  0  0  0  0  0  0  0  0  0  0
   -5.8727   -4.6199    6.2758 H   0  0  0  0  0  0  0  0  0  0  0  0
   -4.3097   -4.7972    7.1634 H   0  0  0  0  0  0  0  0  0  0  0  0
   -4.4530   -3.5856    5.8310 H   0  0  0  0  0  0  0  0  0  0  0  0
   -4.6834   -0.7674    6.3662 H   0  0  0  0  0  0  0  0  0  0  0  0
    0.6048    5.7996    2.3059 H   0  0  0  0  0  0  0  0  0  0  0  0
   -0.6374    6.4206    3.4821 H   0  0  0  0  0  0  0  0  0  0  0  0
    2.3483    7.0673    3.4421 H   0  0  0  0  0  0  0  0  0  0  0  0
    0.9585    8.1716    3.2035 H   0  0  0  0  0  0  0  0  0  0  0  0
    1.2557    7.4508    4.8376 H   0  0  0  0  0  0  0  0  0  0  0  0
   -3.0057    3.9981    2.2286 H   0  0  0  0  0  0  0  0  0  0  0  0
   -1.4492    4.7032    2.4357 H   0  0  0  0  0  0  0  0  0  0  0  0
   -0.4327    2.5573    3.1303 H   0  0  0  0  0  0  0  0  0  0  0  0
   -1.3229    2.3502    1.5804 H   0  0  0  0  0  0  0  0  0  0  0  0
   -2.0576    1.7667    3.1196 H   0  0  0  0  0  0  0  0  0  0  0  0
   -4.4672   -3.6240    2.6963 H   0  0  0  0  0  0  0  0  0  0  0  0
   -4.2547   -4.6148    1.2276 H   0  0  0  0  0  0  0  0  0  0  0  0
   -5.1163   -6.0132    3.0642 H   0  0  0  0  0  0  0  0  0  0  0  0
   -6.5168   -4.8954    3.3062 H   0  0  0  0  0  0  0  0  0  0  0  0
   -6.3838   -5.8615    1.7829 H   0  0  0  0  0  0  0  0  0  0  0  0
   -5.6007   -1.7482    3.5866 H   0  0  0  0  0  0  0  0  0  0  0  0
   -4.8473   -4.7826   -1.0762 H   0  0  0  0  0  0  0  0  0  0  0  0
   -4.6981   -4.7444   -3.6143 H   0  0  0  0  0  0  0  0  0  0  0  0
   -3.9693    0.8532   -6.2177 H   0  0  0  0  0  0  0  0  0  0  0  0
   -2.2310    1.4323   -9.3154 H   0  0  0  0  0  0  0  0  0  0  0  0
   -1.1399    1.5902   -7.8797 H   0  0  0  0  0  0  0  0  0  0  0  0
   -2.8355    2.2020   -7.8092 H   0  0  0  0  0  0  0  0  0  0  0  0
   -0.1318   -0.4734   -8.9614 H   0  0  0  0  0  0  0  0  0  0  0  0
   -0.5766   -2.1178   -9.5276 H   0  0  0  0  0  0  0  0  0  0  0  0
   -1.4069   -0.6894  -10.2360 H   0  0  0  0  0  0  0  0  0  0  0  0
   -1.9735   -3.3105   -8.0780 H   0  0  0  0  0  0  0  0  0  0  0  0
  1  2  2  3
  2  3  1  0
  3  4  2  0
  3  5  1  0
  5  6  2  0
  6  7  1  0
  7  8  2  0
  8  9  1  0
  9 10  2  0
 10 11  1  0
 10 12  1  0
 12 13  2  0
 13 14  1  0
 14 15  2  0
 15 16  1  0
 16 17  2  3
 17 18  1  0
 18 19  3  0
 17 20  1  0
 20 21  3  0
  1 22  1  0
 22 23  1  0
 23 24  1  0
 24 25  1  0
 25 26  2  0
 26 27  1  0
 27 28  1  0
 28 29  1  0
 27 30  1  0
 30 31  1  0
 26 32  1  0
 32 33  2  0
 33 34  1  0
 33 35  1  0
 35 36  2  0
 36 37  1  0
 37 38  2  0
 38 39  1  0
 39 40  2  0
 40 41  1  0
 41 42  1  0
 42 43  1  0
 41 44  2  0
 36 45  1  0
 45 46  1  0
 46 47  1  0
 47 48  1  0
 48 49  1  0
 49 50  1  0
 50 51  2  0
 51 52  1  0
 52 53  1  0
 50 54  1  0
 54 55  1  0
 55 56  1  0
 56 57  1  0
 57 58  1  0
 58 59  1  0
 59 60  2  0
 60 61  1  0
 61 62  2  0
 62 63  1  0
 63 64  1  0
 64 65  1  0
 63 66  2  0
 58 67  2  0
 67 68  1  0
 68 69  1  0
 69 70  1  0
 70 71  1  0
 71 72  1  0
 72 73  1  0
 73 74  1  0
 74 75  1  0
 75 76  1  0
 76 77  1  0
 74 78  1  0
 78 79  1  0
 71 80  1  0
 80 81  1  0
 67 82  1  0
 82 83  1  0
 83 84  1  0
 84 85  1  0
 85 86  2  0
 86 87  1  0
 87 88  1  0
 88 89  1  0
 87 90  1  0
 90 91  1  0
 86 92  1  0
 92 93  2  0
 93 94  1  0
 93 95  1  0
 95 96  2  3
 96 97  1  0
 97 98  2  0
 97 99  1  0
 99100  2  0
100101  1  0
101102  1  0
101103  2  0
103104  1  0
103105  1  0
105106  2  0
106107  1  0
107108  2  3
108109  1  0
109110  3  0
108111  1  0
111112  3  0
 16  2  1  0
 31 22  2  0
 77 35  1  0
 91 82  2  0
107 96  1  0
 15  5  1  0
 30 24  2  0
 44 37  1  0
 76 45  2  0
 90 84  2  0
106 99  1  0
 13  7  1  0
 34 25  1  0
 75 47  2  0
 94 85  1  0
 73 48  2  0
 53 49  2  0
 72 54  2  0
 70 55  2  0
 69 57  2  0
 66 59  1  0
  1113  1  0
  6114  1  0
  8115  1  0
  9116  1  0
 12117  1  0
 14118  1  0
 28119  1  0
 28120  1  0
 29121  1  0
 29122  1  0
 29123  1  0
 31124  1  0
 32125  1  0
 38126  1  0
 39127  1  0
 40128  1  0
 42129  1  0
 42130  1  0
 43131  1  0
 43132  1  0
 43133  1  0
 44134  1  0
 60135  1  0
 61136  1  0
 62137  1  0
 64138  1  0
 64139  1  0
 65140  1  0
 65141  1  0
 65142  1  0
 66143  1  0
 78144  1  0
 78145  1  0
 79146  1  0
 79147  1  0
 79148  1  0
 80149  1  0
 80150  1  0
 81151  1  0
 81152  1  0
 81153  1  0
 88154  1  0
 88155  1  0
 89156  1  0
 89157  1  0
 89158  1  0
 91159  1  0
 92160  1  0
 95161  1  0
100162  1  0
102163  1  0
102164  1  0
102165  1  0
104166  1  0
104167  1  0
104168  1  0
105169  1  0
M  END

