
     RDKit          3D

173192  0  0  0  0  0  0  0  0999 V2000
    4.8742   -7.5752    5.2373 C   0  0  0  0  0  0  0  0  0  0  0  0
    3.8515   -7.4876    6.1161 C   0  0  0  0  0  0  0  0  0  0  0  0
    2.4228   -7.6182    5.7956 C   0  0  0  0  0  0  0  0  0  0  0  0
    1.8825   -7.4216    4.6755 O   0  0  0  0  0  0  0  0  0  0  0  0
    1.7227   -7.9856    7.0074 C   0  0  0  0  0  0  0  0  0  0  0  0
    0.3713   -8.2930    7.1549 C   0  0  0  0  0  0  0  0  0  0  0  0
   -0.0870   -8.6985    8.4204 C   0  0  0  0  0  0  0  0  0  0  0  0
   -1.4396   -9.0102    8.6171 C   0  0  0  0  0  0  0  0  0  0  0  0
   -1.8915   -9.4051    9.8786 C   0  0  0  0  0  0  0  0  0  0  0  0
   -0.9950   -9.5120   10.9466 C   0  0  0  0  0  0  0  0  0  0  0  0
   -1.4401   -9.8988   12.1691 F   0  0  0  0  0  0  0  0  0  0  0  0
    0.3584   -9.2197   10.7640 C   0  0  0  0  0  0  0  0  0  0  0  0
    0.8289   -8.8036    9.5091 C   0  0  0  0  0  0  0  0  0  0  0  0
    2.1875   -8.4747    9.3242 C   0  0  0  0  0  0  0  0  0  0  0  0
    2.6153   -8.0287    8.0635 C   0  0  0  0  0  0  0  0  0  0  0  0
    3.9549   -7.5679    7.5981 C   0  0  0  0  0  0  0  0  0  0  0  0
    4.9541   -7.0730    8.3637 C   0  0  0  0  0  0  0  0  0  0  0  0
    6.0274   -6.2887    7.8055 C   0  0  0  0  0  0  0  0  0  0  0  0
    6.8842   -5.6476    7.3666 N   0  0  0  0  0  0  0  0  0  0  0  0
    4.9505   -7.1747    9.7998 C   0  0  0  0  0  0  0  0  0  0  0  0
    4.9655   -7.2625   10.9551 N   0  0  0  0  0  0  0  0  0  0  0  0
    4.6706   -7.9301    3.8259 C   0  0  0  0  0  0  0  0  0  0  0  0
    5.1407   -6.9504    2.5074 S   0  0  0  0  0  0  0  0  0  0  0  0
    4.4042   -7.9668    1.3897 C   0  0  0  0  0  0  0  0  0  0  0  0
    3.7570   -7.7673    0.2053 C   0  0  0  0  0  0  0  0  0  0  0  0
    2.7540   -8.6916    0.1522 C   0  0  0  0  0  0  0  0  0  0  0  0
    2.7333   -9.4856    1.2577 N   0  0  0  0  0  0  0  0  0  0  0  0
    1.6193  -10.3075    1.7333 C   0  0  0  0  0  0  0  0  0  0  0  0
    2.0807  -11.7357    2.0147 C   0  0  0  0  0  0  0  0  0  0  0  0
    3.7595   -9.0005    2.0044 C   0  0  0  0  0  0  0  0  0  0  0  0
    3.9112   -9.0234    3.3848 C   0  0  0  0  0  0  0  0  0  0  0  0
    1.7300   -8.3842   -0.7409 C   0  0  0  0  0  0  0  0  0  0  0  0
    1.9893   -7.1619   -1.3747 C   0  0  0  0  0  0  0  0  0  0  0  0
    3.4146   -6.4447   -0.7605 S   0  0  0  0  0  0  0  0  0  0  0  0
    1.0583   -6.4559   -2.2494 C   0  0  0  0  0  0  0  0  0  0  0  0
    1.0708   -6.3883   -3.6718 C   0  0  0  0  0  0  0  0  0  0  0  0
    1.8306   -7.2921   -4.6154 C   0  0  0  0  0  0  0  0  0  0  0  0
    1.4194   -7.4318   -5.9631 C   0  0  0  0  0  0  0  0  0  0  0  0
    2.0679   -8.3085   -6.8335 C   0  0  0  0  0  0  0  0  0  0  0  0
    3.0945   -9.1302   -6.3693 C   0  0  0  0  0  0  0  0  0  0  0  0
    3.5038   -9.0484   -5.0316 C   0  0  0  0  0  0  0  0  0  0  0  0
    4.4842  -10.0536   -4.4783 C   0  0  0  0  0  0  0  0  0  0  0  0
    3.7318  -11.2929   -3.9950 C   0  0  0  0  0  0  0  0  0  0  0  0
    2.9059   -8.1067   -4.1824 C   0  0  0  0  0  0  0  0  0  0  0  0
    0.1730   -5.3693   -4.0761 C   0  0  0  0  0  0  0  0  0  0  0  0
   -0.1535   -4.5536   -5.5537 S   0  0  0  0  0  0  0  0  0  0  0  0
   -1.1970   -3.4609   -4.7883 C   0  0  0  0  0  0  0  0  0  0  0  0
   -1.9322   -2.3427   -5.0503 C   0  0  0  0  0  0  0  0  0  0  0  0
   -2.2232   -1.6869   -6.2480 C   0  0  0  0  0  0  0  0  0  0  0  0
   -2.9899   -0.4898   -6.1969 C   0  0  0  0  0  0  0  0  0  0  0  0
   -3.2376    0.1318   -7.3747 N   0  0  0  0  0  0  0  0  0  0  0  0
   -2.4713   -0.9157   -8.4037 S   0  0  0  0  0  0  0  0  0  0  0  0
   -1.8201   -2.1156   -7.4680 N   0  0  0  0  0  0  0  0  0  0  0  0
   -3.3766    0.0138   -4.9450 C   0  0  0  0  0  0  0  0  0  0  0  0
   -3.7717    1.2801   -4.6088 C   0  0  0  0  0  0  0  0  0  0  0  0
   -3.9008    2.7705   -5.4076 S   0  0  0  0  0  0  0  0  0  0  0  0
   -3.7278    3.6268   -3.9467 C   0  0  0  0  0  0  0  0  0  0  0  0
   -3.5400    4.9875   -3.6587 C   0  0  0  0  0  0  0  0  0  0  0  0
   -3.7415    6.0560   -4.6721 C   0  0  0  0  0  0  0  0  0  0  0  0
   -4.8825    6.0243   -5.4924 C   0  0  0  0  0  0  0  0  0  0  0  0
   -5.1176    7.0355   -6.4252 C   0  0  0  0  0  0  0  0  0  0  0  0
   -4.2245    8.1032   -6.5420 C   0  0  0  0  0  0  0  0  0  0  0  0
   -3.0874    8.1640   -5.7229 C   0  0  0  0  0  0  0  0  0  0  0  0
   -2.1413    9.3317   -5.8335 C   0  0  0  0  0  0  0  0  0  0  0  0
   -0.8682    8.9379   -6.5712 C   0  0  0  0  0  0  0  0  0  0  0  0
   -2.8358    7.1247   -4.8076 C   0  0  0  0  0  0  0  0  0  0  0  0
   -3.1260    5.1586   -2.3092 C   0  0  0  0  0  0  0  0  0  0  0  0
   -3.0111    3.6265   -1.5660 S   0  0  0  0  0  0  0  0  0  0  0  0
   -3.5098    2.7637   -2.9036 C   0  0  0  0  0  0  0  0  0  0  0  0
   -3.5545    1.4212   -3.2791 C   0  0  0  0  0  0  0  0  0  0  0  0
   -3.1030    0.2788   -2.6920 N   0  0  0  0  0  0  0  0  0  0  0  0
   -3.0310   -0.6192   -3.7309 C   0  0  0  0  0  0  0  0  0  0  0  0
   -2.3903   -1.8895   -3.7995 C   0  0  0  0  0  0  0  0  0  0  0  0
   -2.0554   -2.7844   -2.8107 N   0  0  0  0  0  0  0  0  0  0  0  0
   -1.2826   -3.6815   -3.4660 C   0  0  0  0  0  0  0  0  0  0  0  0
   -0.5161   -4.7541   -3.0562 C   0  0  0  0  0  0  0  0  0  0  0  0
   -0.0293   -5.3340   -1.5773 S   0  0  0  0  0  0  0  0  0  0  0  0
   -2.7590   -3.1172   -1.5585 C   0  0  0  0  0  0  0  0  0  0  0  0
   -4.2800   -2.9352   -1.6813 C   0  0  0  0  0  0  0  0  0  0  0  0
   -2.4878    0.2221   -1.3583 C   0  0  0  0  0  0  0  0  0  0  0  0
   -0.9624    0.1402   -1.4368 C   0  0  0  0  0  0  0  0  0  0  0  0
   -2.7394    6.4090   -1.6078 C   0  0  0  0  0  0  0  0  0  0  0  0
   -1.6208    6.3844   -0.7558 C   0  0  0  0  0  0  0  0  0  0  0  0
   -1.2174    7.5322   -0.0483 C   0  0  0  0  0  0  0  0  0  0  0  0
   -0.1449    7.4964    0.8608 O   0  0  0  0  0  0  0  0  0  0  0  0
    0.7285    6.3837    1.0435 C   0  0  0  0  0  0  0  0  0  0  0  0
    1.8783    6.7851    1.9473 C   0  0  0  0  0  0  0  0  0  0  0  0
   -1.9001    8.7456   -0.2527 C   0  0  0  0  0  0  0  0  0  0  0  0
   -3.0513    8.7567   -1.0538 C   0  0  0  0  0  0  0  0  0  0  0  0
   -3.4974    7.5884   -1.7095 C   0  0  0  0  0  0  0  0  0  0  0  0
   -4.6951    7.5578   -2.4454 O   0  0  0  0  0  0  0  0  0  0  0  0
   -5.5974    8.6442   -2.6329 C   0  0  0  0  0  0  0  0  0  0  0  0
   -6.4790    8.8263   -1.4028 C   0  0  0  0  0  0  0  0  0  0  0  0
   -1.5276    9.9995    0.4459 C   0  0  0  0  0  0  0  0  0  0  0  0
   -0.2884   10.4755    0.6961 C   0  0  0  0  0  0  0  0  0  0  0  0
   -0.0616   11.5020    1.7165 C   0  0  0  0  0  0  0  0  0  0  0  0
   -0.9494   12.2034    2.2716 O   0  0  0  0  0  0  0  0  0  0  0  0
    1.3484   11.5366    2.0338 C   0  0  0  0  0  0  0  0  0  0  0  0
    1.9968   12.3316    2.9780 C   0  0  0  0  0  0  0  0  0  0  0  0
    3.3919   12.2096    3.1104 C   0  0  0  0  0  0  0  0  0  0  0  0
    4.0966   13.0315    4.0053 C   0  0  0  0  0  0  0  0  0  0  0  0
    5.4829   12.9149    4.1236 C   0  0  0  0  0  0  0  0  0  0  0  0
    6.1788   11.9716    3.3668 C   0  0  0  0  0  0  0  0  0  0  0  0
    7.5308   11.8795    3.4752 F   0  0  0  0  0  0  0  0  0  0  0  0
    5.4942   11.1361    2.4792 C   0  0  0  0  0  0  0  0  0  0  0  0
    4.1005   11.2511    2.3334 C   0  0  0  0  0  0  0  0  0  0  0  0
    3.4066   10.4365    1.4151 C   0  0  0  0  0  0  0  0  0  0  0  0
    2.0221   10.6241    1.2406 C   0  0  0  0  0  0  0  0  0  0  0  0
    1.0707   10.0081    0.2670 C   0  0  0  0  0  0  0  0  0  0  0  0
    1.4071    9.4692   -0.9362 C   0  0  0  0  0  0  0  0  0  0  0  0
    0.4544    9.3160   -2.0019 C   0  0  0  0  0  0  0  0  0  0  0  0
   -0.2978    9.1939   -2.8709 N   0  0  0  0  0  0  0  0  0  0  0  0
    2.7675    9.1599   -1.3046 C   0  0  0  0  0  0  0  0  0  0  0  0
    3.8532    8.8952   -1.6042 N   0  0  0  0  0  0  0  0  0  0  0  0
    5.8972   -7.5297    5.5723 H   0  0  0  0  0  0  0  0  0  0  0  0
   -0.3043   -8.2256    6.3043 H   0  0  0  0  0  0  0  0  0  0  0  0
   -2.1514   -8.9232    7.8023 H   0  0  0  0  0  0  0  0  0  0  0  0
   -2.9404   -9.6415   10.0200 H   0  0  0  0  0  0  0  0  0  0  0  0
    1.0327   -9.2833   11.6100 H   0  0  0  0  0  0  0  0  0  0  0  0
    2.8782   -8.5965   10.1484 H   0  0  0  0  0  0  0  0  0  0  0  0
    1.1920   -9.8531    2.6578 H   0  0  0  0  0  0  0  0  0  0  0  0
    0.8086  -10.3543    0.9700 H   0  0  0  0  0  0  0  0  0  0  0  0
    2.5012  -12.1864    1.0895 H   0  0  0  0  0  0  0  0  0  0  0  0
    2.8518  -11.7508    2.8126 H   0  0  0  0  0  0  0  0  0  0  0  0
    1.2143  -12.3417    2.3474 H   0  0  0  0  0  0  0  0  0  0  0  0
    3.3864   -9.6980    4.0440 H   0  0  0  0  0  0  0  0  0  0  0  0
    0.8055   -8.9270   -0.8548 H   0  0  0  0  0  0  0  0  0  0  0  0
    0.5652   -6.9136   -6.3533 H   0  0  0  0  0  0  0  0  0  0  0  0
    1.7517   -8.3815   -7.8683 H   0  0  0  0  0  0  0  0  0  0  0  0
    3.5540   -9.8485   -7.0397 H   0  0  0  0  0  0  0  0  0  0  0  0
    5.0485   -9.6123   -3.6293 H   0  0  0  0  0  0  0  0  0  0  0  0
    5.2203  -10.3427   -5.2563 H   0  0  0  0  0  0  0  0  0  0  0  0
    3.0376  -11.0215   -3.1731 H   0  0  0  0  0  0  0  0  0  0  0  0
    3.1538  -11.7493   -4.8260 H   0  0  0  0  0  0  0  0  0  0  0  0
    4.4570  -12.0476   -3.6139 H   0  0  0  0  0  0  0  0  0  0  0  0
    3.2989   -8.0486   -3.1842 H   0  0  0  0  0  0  0  0  0  0  0  0
   -5.6043    5.2196   -5.4076 H   0  0  0  0  0  0  0  0  0  0  0  0
   -6.0005    7.0002   -7.0561 H   0  0  0  0  0  0  0  0  0  0  0  0
   -4.4293    8.8840   -7.2623 H   0  0  0  0  0  0  0  0  0  0  0  0
   -2.6207   10.1778   -6.3752 H   0  0  0  0  0  0  0  0  0  0  0  0
   -1.8935    9.7011   -4.8184 H   0  0  0  0  0  0  0  0  0  0  0  0
   -1.0966    8.7152   -7.6363 H   0  0  0  0  0  0  0  0  0  0  0  0
   -0.4069    8.0432   -6.1028 H   0  0  0  0  0  0  0  0  0  0  0  0
   -0.1372    9.7748   -6.5174 H   0  0  0  0  0  0  0  0  0  0  0  0
   -1.9435    7.1555   -4.1964 H   0  0  0  0  0  0  0  0  0  0  0  0
   -2.3113   -2.5848   -0.6991 H   0  0  0  0  0  0  0  0  0  0  0  0
   -2.6079   -4.1923   -1.3155 H   0  0  0  0  0  0  0  0  0  0  0  0
   -4.5617   -1.8626   -1.7329 H   0  0  0  0  0  0  0  0  0  0  0  0
   -4.6407   -3.4422   -2.5993 H   0  0  0  0  0  0  0  0  0  0  0  0
   -4.7849   -3.3827   -0.7993 H   0  0  0  0  0  0  0  0  0  0  0  0
   -2.9159   -0.5877   -0.7611 H   0  0  0  0  0  0  0  0  0  0  0  0
   -2.7631    1.1153   -0.7664 H   0  0  0  0  0  0  0  0  0  0  0  0
   -0.5676    0.8914   -2.1519 H   0  0  0  0  0  0  0  0  0  0  0  0
   -0.6476   -0.8624   -1.7712 H   0  0  0  0  0  0  0  0  0  0  0  0
   -0.5274    0.3181   -0.4300 H   0  0  0  0  0  0  0  0  0  0  0  0
   -1.0638    5.4609   -0.6391 H   0  0  0  0  0  0  0  0  0  0  0  0
    0.1716    5.5408    1.5048 H   0  0  0  0  0  0  0  0  0  0  0  0
    1.1402    6.0654    0.0642 H   0  0  0  0  0  0  0  0  0  0  0  0
    1.4952    7.0860    2.9444 H   0  0  0  0  0  0  0  0  0  0  0  0
    2.5810    5.9299    2.0694 H   0  0  0  0  0  0  0  0  0  0  0  0
    2.4310    7.6384    1.5013 H   0  0  0  0  0  0  0  0  0  0  0  0
   -3.6035    9.6867   -1.1470 H   0  0  0  0  0  0  0  0  0  0  0  0
   -5.0506    9.5769   -2.8788 H   0  0  0  0  0  0  0  0  0  0  0  0
   -6.2512    8.4063   -3.4994 H   0  0  0  0  0  0  0  0  0  0  0  0
   -7.1775    9.6778   -1.5655 H   0  0  0  0  0  0  0  0  0  0  0  0
   -7.0623    7.9007   -1.2204 H   0  0  0  0  0  0  0  0  0  0  0  0
   -5.8621    9.0420   -0.5091 H   0  0  0  0  0  0  0  0  0  0  0  0
   -2.3659   10.5540    0.8599 H   0  0  0  0  0  0  0  0  0  0  0  0
    1.4371   13.0423    3.5761 H   0  0  0  0  0  0  0  0  0  0  0  0
    3.5741   13.7611    4.6097 H   0  0  0  0  0  0  0  0  0  0  0  0
    6.0141   13.5538    4.8173 H   0  0  0  0  0  0  0  0  0  0  0  0
    6.0494   10.4096    1.8974 H   0  0  0  0  0  0  0  0  0  0  0  0
    3.9502    9.6807    0.8714 H   0  0  0  0  0  0  0  0  0  0  0  0
  1  2  2  3
  2  3  1  0
  3  4  2  0
  3  5  1  0
  5  6  2  0
  6  7  1  0
  7  8  2  0
  8  9  1  0
  9 10  2  0
 10 11  1  0
 10 12  1  0
 12 13  2  0
 13 14  1  0
 14 15  2  0
 15 16  1  0
 16 17  2  3
 17 18  1  0
 18 19  3  0
 17 20  1  0
 20 21  3  0
  1 22  1  0
 22 23  1  0
 23 24  1  0
 24 25  1  0
 25 26  2  0
 26 27  1  0
 27 28  1  0
 28 29  1  0
 27 30  1  0
 30 31  1  0
 26 32  1  0
 32 33  2  0
 33 34  1  0
 33 35  1  0
 35 36  2  0
 36 37  1  0
 37 38  2  0
 38 39  1  0
 39 40  2  0
 40 41  1  0
 41 42  1  0
 42 43  1  0
 41 44  2  0
 36 45  1  0
 45 46  1  0
 46 47  1  0
 47 48  1  0
 48 49  1  0
 49 50  1  0
 50 51  2  0
 51 52  1  0
 52 53  1  0
 50 54  1  0
 54 55  1  0
 55 56  1  0
 56 57  1  0
 57 58  1  0
 58 59  1  0
 59 60  2  0
 60 61  1  0
 61 62  2  0
 62 63  1  0
 63 64  1  0
 64 65  1  0
 63 66  2  0
 58 67  2  0
 67 68  1  0
 68 69  1  0
 69 70  1  0
 70 71  1  0
 71 72  1  0
 72 73  1  0
 73 74  1  0
 74 75  1  0
 75 76  1  0
 76 77  1  0
 74 78  1  0
 78 79  1  0
 71 80  1  0
 80 81  1  0
 67 82  1  0
 82 83  2  0
 83 84  1  0
 84 85  1  0
 85 86  1  0
 86 87  1  0
 84 88  2  0
 88 89  1  0
 89 90  2  0
 90 91  1  0
 91 92  1  0
 92 93  1  0
 88 94  1  0
 94 95  2  3
 95 96  1  0
 96 97  2  0
 96 98  1  0
 98 99  2  0
 99100  1  0
100101  2  0
101102  1  0
102103  2  0
103104  1  0
103105  1  0
105106  2  0
106107  1  0
107108  2  0
108109  1  0
109110  2  3
110111  1  0
111112  3  0
110113  1  0
113114  3  0
 16  2  1  0
 31 22  2  0
 77 35  1  0
 90 82  1  0
109 95  1  0
 15  5  1  0
 30 24  2  0
 44 37  1  0
 76 45  2  0
108 98  1  0
 13  7  1  0
 34 25  1  0
 75 47  2  0
106100  1  0
 73 48  2  0
 53 49  2  0
 72 54  2  0
 70 55  2  0
 69 57  2  0
 66 59  1  0
  1115  1  0
  6116  1  0
  8117  1  0
  9118  1  0
 12119  1  0
 14120  1  0
 28121  1  0
 28122  1  0
 29123  1  0
 29124  1  0
 29125  1  0
 31126  1  0
 32127  1  0
 38128  1  0
 39129  1  0
 40130  1  0
 42131  1  0
 42132  1  0
 43133  1  0
 43134  1  0
 43135  1  0
 44136  1  0
 60137  1  0
 61138  1  0
 62139  1  0
 64140  1  0
 64141  1  0
 65142  1  0
 65143  1  0
 65144  1  0
 66145  1  0
 78146  1  0
 78147  1  0
 79148  1  0
 79149  1  0
 79150  1  0
 80151  1  0
 80152  1  0
 81153  1  0
 81154  1  0
 81155  1  0
 83156  1  0
 86157  1  0
 86158  1  0
 87159  1  0
 87160  1  0
 87161  1  0
 89162  1  0
 92163  1  0
 92164  1  0
 93165  1  0
 93166  1  0
 93167  1  0
 94168  1  0
 99169  1  0
101170  1  0
102171  1  0
105172  1  0
107173  1  0
M  END

