
     RDKit          3D

166186  0  0  0  0  0  0  0  0999 V2000
    7.7290   -9.6985   -7.9192 C   0  0  0  0  0  0  0  0  0  0  0  0
    8.2113   -8.8661   -8.8615 C   0  0  0  0  0  0  0  0  0  0  0  0
    9.2464   -9.2562   -9.8266 C   0  0  0  0  0  0  0  0  0  0  0  0
    9.8051  -10.3838   -9.8846 O   0  0  0  0  0  0  0  0  0  0  0  0
    9.5870   -8.0835  -10.6183 C   0  0  0  0  0  0  0  0  0  0  0  0
   10.7970   -7.8786  -11.2792 C   0  0  0  0  0  0  0  0  0  0  0  0
   11.2008   -6.5464  -11.5106 C   0  0  0  0  0  0  0  0  0  0  0  0
   12.5375   -6.2626  -11.7972 C   0  0  0  0  0  0  0  0  0  0  0  0
   12.9877   -4.9394  -11.8015 C   0  0  0  0  0  0  0  0  0  0  0  0
   12.0954   -3.8822  -11.5959 C   0  0  0  0  0  0  0  0  0  0  0  0
   12.5509   -2.6046  -11.5498 F   0  0  0  0  0  0  0  0  0  0  0  0
   10.7460   -4.1411  -11.3691 C   0  0  0  0  0  0  0  0  0  0  0  0
   10.3032   -5.4699  -11.2526 C   0  0  0  0  0  0  0  0  0  0  0  0
    9.0337   -5.7290  -10.7025 C   0  0  0  0  0  0  0  0  0  0  0  0
    8.7372   -7.0368  -10.2679 C   0  0  0  0  0  0  0  0  0  0  0  0
    7.8551   -7.4384   -9.1215 C   0  0  0  0  0  0  0  0  0  0  0  0
    7.4418   -6.5429   -8.1828 C   0  0  0  0  0  0  0  0  0  0  0  0
    8.0397   -6.5328   -6.8716 C   0  0  0  0  0  0  0  0  0  0  0  0
    8.5332   -6.4753   -5.8240 N   0  0  0  0  0  0  0  0  0  0  0  0
    6.7564   -5.3404   -8.5681 C   0  0  0  0  0  0  0  0  0  0  0  0
    6.2307   -4.3639   -8.8898 N   0  0  0  0  0  0  0  0  0  0  0  0
    6.6437   -9.3547   -6.9862 C   0  0  0  0  0  0  0  0  0  0  0  0
    5.0994   -8.8076   -7.4849 S   0  0  0  0  0  0  0  0  0  0  0  0
    4.7350   -8.2694   -5.9399 C   0  0  0  0  0  0  0  0  0  0  0  0
    3.8716   -7.4088   -5.3434 C   0  0  0  0  0  0  0  0  0  0  0  0
    4.4106   -7.0944   -4.1321 C   0  0  0  0  0  0  0  0  0  0  0  0
    5.6038   -7.7227   -3.9361 N   0  0  0  0  0  0  0  0  0  0  0  0
    6.5914   -7.4676   -2.8881 C   0  0  0  0  0  0  0  0  0  0  0  0
    6.3965   -8.4303   -1.7212 C   0  0  0  0  0  0  0  0  0  0  0  0
    5.7576   -8.4613   -5.0720 C   0  0  0  0  0  0  0  0  0  0  0  0
    6.8679   -9.1083   -5.6068 C   0  0  0  0  0  0  0  0  0  0  0  0
    3.7696   -6.0435   -3.4634 C   0  0  0  0  0  0  0  0  0  0  0  0
    2.6575   -5.5749   -4.2180 C   0  0  0  0  0  0  0  0  0  0  0  0
    2.5943   -6.4039   -5.7109 S   0  0  0  0  0  0  0  0  0  0  0  0
    1.6554   -4.5688   -3.7595 C   0  0  0  0  0  0  0  0  0  0  0  0
    0.2628   -4.6901   -3.8910 C   0  0  0  0  0  0  0  0  0  0  0  0
   -0.4493   -5.8464   -4.4814 C   0  0  0  0  0  0  0  0  0  0  0  0
   -0.5071   -6.0155   -5.8733 C   0  0  0  0  0  0  0  0  0  0  0  0
   -1.1901   -7.0994   -6.4272 C   0  0  0  0  0  0  0  0  0  0  0  0
   -1.8556   -8.0014   -5.5889 C   0  0  0  0  0  0  0  0  0  0  0  0
   -1.8435   -7.8228   -4.1903 C   0  0  0  0  0  0  0  0  0  0  0  0
   -2.6685   -8.7145   -3.2964 C   0  0  0  0  0  0  0  0  0  0  0  0
   -4.1169   -8.2349   -3.2568 C   0  0  0  0  0  0  0  0  0  0  0  0
   -1.1262   -6.7494   -3.6442 C   0  0  0  0  0  0  0  0  0  0  0  0
   -0.4155   -3.7180   -3.1636 C   0  0  0  0  0  0  0  0  0  0  0  0
   -2.0342   -3.6745   -2.6182 S   0  0  0  0  0  0  0  0  0  0  0  0
   -1.6610   -2.4118   -1.5609 C   0  0  0  0  0  0  0  0  0  0  0  0
   -2.1751   -1.9903   -0.3711 C   0  0  0  0  0  0  0  0  0  0  0  0
   -3.2807   -2.4697    0.3319 C   0  0  0  0  0  0  0  0  0  0  0  0
   -3.4256   -2.1138    1.7023 C   0  0  0  0  0  0  0  0  0  0  0  0
   -4.4895   -2.6282    2.3630 N   0  0  0  0  0  0  0  0  0  0  0  0
   -5.1693   -3.5263    1.1482 S   0  0  0  0  0  0  0  0  0  0  0  0
   -4.2124   -3.3110   -0.1870 N   0  0  0  0  0  0  0  0  0  0  0  0
   -2.4858   -1.2489    2.2741 C   0  0  0  0  0  0  0  0  0  0  0  0
   -2.5456   -0.5526    3.4481 C   0  0  0  0  0  0  0  0  0  0  0  0
   -3.6937   -0.3442    4.6801 S   0  0  0  0  0  0  0  0  0  0  0  0
   -2.9973    1.1518    5.0876 C   0  0  0  0  0  0  0  0  0  0  0  0
   -3.4283    2.1622    5.9323 C   0  0  0  0  0  0  0  0  0  0  0  0
   -4.2794    1.8832    7.0952 C   0  0  0  0  0  0  0  0  0  0  0  0
   -5.6688    1.7260    6.9725 C   0  0  0  0  0  0  0  0  0  0  0  0
   -6.4275    1.3467    8.0845 C   0  0  0  0  0  0  0  0  0  0  0  0
   -5.8013    1.1004    9.3156 C   0  0  0  0  0  0  0  0  0  0  0  0
   -4.4093    1.2463    9.4434 C   0  0  0  0  0  0  0  0  0  0  0  0
   -3.7029    0.9158   10.7278 C   0  0  0  0  0  0  0  0  0  0  0  0
   -3.2707   -0.5501   10.7466 C   0  0  0  0  0  0  0  0  0  0  0  0
   -3.6568    1.6462    8.3291 C   0  0  0  0  0  0  0  0  0  0  0  0
   -2.7175    3.3585    5.7215 C   0  0  0  0  0  0  0  0  0  0  0  0
   -1.5497    3.1032    4.4981 S   0  0  0  0  0  0  0  0  0  0  0  0
   -1.9479    1.4849    4.2679 C   0  0  0  0  0  0  0  0  0  0  0  0
   -1.6609    0.4722    3.3480 C   0  0  0  0  0  0  0  0  0  0  0  0
   -0.9294    0.4165    2.2023 N   0  0  0  0  0  0  0  0  0  0  0  0
   -1.4147   -0.7035    1.5459 C   0  0  0  0  0  0  0  0  0  0  0  0
   -1.1734   -1.1985    0.2249 C   0  0  0  0  0  0  0  0  0  0  0  0
   -0.0139   -1.2698   -0.5279 N   0  0  0  0  0  0  0  0  0  0  0  0
   -0.3572   -2.0311   -1.5962 C   0  0  0  0  0  0  0  0  0  0  0  0
    0.3752   -2.8252   -2.4878 C   0  0  0  0  0  0  0  0  0  0  0  0
    1.9881   -3.2648   -2.7056 S   0  0  0  0  0  0  0  0  0  0  0  0
    1.3508   -0.8342   -0.2294 C   0  0  0  0  0  0  0  0  0  0  0  0
    1.8719   -1.4638    1.0674 C   0  0  0  0  0  0  0  0  0  0  0  0
   -0.0632    1.4936    1.7195 C   0  0  0  0  0  0  0  0  0  0  0  0
   -0.6603    2.1748    0.4908 C   0  0  0  0  0  0  0  0  0  0  0  0
   -3.1373    4.6839    6.2168 C   0  0  0  0  0  0  0  0  0  0  0  0
   -2.0988    6.0071    6.5580 S   0  0  0  0  0  0  0  0  0  0  0  0
   -3.3826    7.0440    6.8460 C   0  0  0  0  0  0  0  0  0  0  0  0
   -3.6566    8.3912    6.8956 C   0  0  0  0  0  0  0  0  0  0  0  0
   -4.9917    8.5245    6.6873 C   0  0  0  0  0  0  0  0  0  0  0  0
   -5.6032    7.3208    6.5187 N   0  0  0  0  0  0  0  0  0  0  0  0
   -6.9669    7.0707    6.0516 C   0  0  0  0  0  0  0  0  0  0  0  0
   -7.0533    7.2402    4.5407 C   0  0  0  0  0  0  0  0  0  0  0  0
   -4.5750    6.4334    6.6226 C   0  0  0  0  0  0  0  0  0  0  0  0
   -4.4868    5.0916    6.2619 C   0  0  0  0  0  0  0  0  0  0  0  0
   -5.4269    9.8173    6.4296 C   0  0  0  0  0  0  0  0  0  0  0  0
   -4.3260   10.7018    6.4577 C   0  0  0  0  0  0  0  0  0  0  0  0
   -2.8665    9.8564    6.7863 S   0  0  0  0  0  0  0  0  0  0  0  0
   -4.3922   12.1560    6.2576 C   0  0  0  0  0  0  0  0  0  0  0  0
   -5.0305   12.8091    5.2696 C   0  0  0  0  0  0  0  0  0  0  0  0
   -5.3114   14.2536    5.3495 C   0  0  0  0  0  0  0  0  0  0  0  0
   -4.9250   15.0338    6.2668 O   0  0  0  0  0  0  0  0  0  0  0  0
   -6.1918   14.6291    4.2593 C   0  0  0  0  0  0  0  0  0  0  0  0
   -6.6256   15.9046    3.9021 C   0  0  0  0  0  0  0  0  0  0  0  0
   -7.3142   16.0571    2.6740 C   0  0  0  0  0  0  0  0  0  0  0  0
   -7.7186   17.4213    2.1992 C   0  0  0  0  0  0  0  0  0  0  0  0
   -7.5324   14.9282    1.8462 C   0  0  0  0  0  0  0  0  0  0  0  0
   -7.1124   13.6515    2.2500 C   0  0  0  0  0  0  0  0  0  0  0  0
   -6.4672   13.5047    3.4923 C   0  0  0  0  0  0  0  0  0  0  0  0
   -5.7901   12.3119    4.0771 C   0  0  0  0  0  0  0  0  0  0  0  0
   -5.7509   11.1092    3.4657 C   0  0  0  0  0  0  0  0  0  0  0  0
   -4.6058   10.2386    3.5023 C   0  0  0  0  0  0  0  0  0  0  0  0
   -3.7011    9.5068    3.4984 N   0  0  0  0  0  0  0  0  0  0  0  0
   -6.9595   10.5700    2.8888 C   0  0  0  0  0  0  0  0  0  0  0  0
   -7.9553   10.1198    2.5072 N   0  0  0  0  0  0  0  0  0  0  0  0
    8.1896  -10.6671   -7.7859 H   0  0  0  0  0  0  0  0  0  0  0  0
   11.4749   -8.7247  -11.4456 H   0  0  0  0  0  0  0  0  0  0  0  0
   13.2503   -7.0696  -11.9124 H   0  0  0  0  0  0  0  0  0  0  0  0
   14.0436   -4.7384  -11.9014 H   0  0  0  0  0  0  0  0  0  0  0  0
   10.0759   -3.3184  -11.1279 H   0  0  0  0  0  0  0  0  0  0  0  0
    8.3917   -4.8995  -10.4485 H   0  0  0  0  0  0  0  0  0  0  0  0
    6.5052   -6.4189   -2.5167 H   0  0  0  0  0  0  0  0  0  0  0  0
    7.6236   -7.5893   -3.2864 H   0  0  0  0  0  0  0  0  0  0  0  0
    6.5136   -9.4775   -2.0638 H   0  0  0  0  0  0  0  0  0  0  0  0
    5.3787   -8.3003   -1.2840 H   0  0  0  0  0  0  0  0  0  0  0  0
    7.1520   -8.2111   -0.9453 H   0  0  0  0  0  0  0  0  0  0  0  0
    7.8085   -9.2477   -5.0958 H   0  0  0  0  0  0  0  0  0  0  0  0
    4.0520   -5.6726   -2.4917 H   0  0  0  0  0  0  0  0  0  0  0  0
   -0.0202   -5.3023   -6.5296 H   0  0  0  0  0  0  0  0  0  0  0  0
   -1.2040   -7.2370   -7.5020 H   0  0  0  0  0  0  0  0  0  0  0  0
   -2.4217   -8.8168   -6.0226 H   0  0  0  0  0  0  0  0  0  0  0  0
   -2.2589   -8.7050   -2.2651 H   0  0  0  0  0  0  0  0  0  0  0  0
   -2.6138   -9.7598   -3.6552 H   0  0  0  0  0  0  0  0  0  0  0  0
   -4.7120   -8.9097   -2.5954 H   0  0  0  0  0  0  0  0  0  0  0  0
   -4.5497   -8.2605   -4.2785 H   0  0  0  0  0  0  0  0  0  0  0  0
   -4.1803   -7.2007   -2.8565 H   0  0  0  0  0  0  0  0  0  0  0  0
   -1.1449   -6.5874   -2.5681 H   0  0  0  0  0  0  0  0  0  0  0  0
   -6.1626    1.8787    6.0196 H   0  0  0  0  0  0  0  0  0  0  0  0
   -7.5009    1.2279    7.9908 H   0  0  0  0  0  0  0  0  0  0  0  0
   -6.3989    0.7828   10.1560 H   0  0  0  0  0  0  0  0  0  0  0  0
   -4.3706    1.1205   11.5999 H   0  0  0  0  0  0  0  0  0  0  0  0
   -2.8073    1.5584   10.8526 H   0  0  0  0  0  0  0  0  0  0  0  0
   -2.6531   -0.7848    9.8488 H   0  0  0  0  0  0  0  0  0  0  0  0
   -2.6604   -0.7434   11.6553 H   0  0  0  0  0  0  0  0  0  0  0  0
   -4.1576   -1.2135   10.7497 H   0  0  0  0  0  0  0  0  0  0  0  0
   -2.5741    1.7208    8.3991 H   0  0  0  0  0  0  0  0  0  0  0  0
    1.4073    0.2682   -0.2688 H   0  0  0  0  0  0  0  0  0  0  0  0
    2.0392   -1.1221   -1.0463 H   0  0  0  0  0  0  0  0  0  0  0  0
    1.2443   -1.2004    1.9400 H   0  0  0  0  0  0  0  0  0  0  0  0
    1.9003   -2.5693    0.9708 H   0  0  0  0  0  0  0  0  0  0  0  0
    2.9074   -1.1033    1.2580 H   0  0  0  0  0  0  0  0  0  0  0  0
    0.0945    2.2630    2.4991 H   0  0  0  0  0  0  0  0  0  0  0  0
    0.9617    1.1330    1.5685 H   0  0  0  0  0  0  0  0  0  0  0  0
   -0.8461    1.4491   -0.3269 H   0  0  0  0  0  0  0  0  0  0  0  0
    0.0508    2.9485    0.1148 H   0  0  0  0  0  0  0  0  0  0  0  0
   -1.6182    2.6676    0.7692 H   0  0  0  0  0  0  0  0  0  0  0  0
   -7.2793    6.0356    6.3154 H   0  0  0  0  0  0  0  0  0  0  0  0
   -7.6705    7.7739    6.5477 H   0  0  0  0  0  0  0  0  0  0  0  0
   -6.4953    6.4315    4.0233 H   0  0  0  0  0  0  0  0  0  0  0  0
   -8.1168    7.1931    4.2162 H   0  0  0  0  0  0  0  0  0  0  0  0
   -6.6435    8.2260    4.2473 H   0  0  0  0  0  0  0  0  0  0  0  0
   -5.3375    4.4938    5.9389 H   0  0  0  0  0  0  0  0  0  0  0  0
   -6.4496   10.0975    6.1972 H   0  0  0  0  0  0  0  0  0  0  0  0
   -3.9271   12.7538    7.0424 H   0  0  0  0  0  0  0  0  0  0  0  0
   -6.3882   16.7645    4.5226 H   0  0  0  0  0  0  0  0  0  0  0  0
   -8.7695   17.3948    1.8407 H   0  0  0  0  0  0  0  0  0  0  0  0
   -7.6537   18.1747    3.0190 H   0  0  0  0  0  0  0  0  0  0  0  0
   -7.0354   17.7259    1.3778 H   0  0  0  0  0  0  0  0  0  0  0  0
   -8.0160   15.0341    0.8853 H   0  0  0  0  0  0  0  0  0  0  0  0
   -7.2575   12.8126    1.5848 H   0  0  0  0  0  0  0  0  0  0  0  0
  1  2  2  3
  2  3  1  0
  3  4  2  0
  3  5  1  0
  5  6  2  0
  6  7  1  0
  7  8  2  0
  8  9  1  0
  9 10  2  0
 10 11  1  0
 10 12  1  0
 12 13  2  0
 13 14  1  0
 14 15  2  0
 15 16  1  0
 16 17  2  3
 17 18  1  0
 18 19  3  0
 17 20  1  0
 20 21  3  0
  1 22  1  0
 22 23  1  0
 23 24  1  0
 24 25  1  0
 25 26  2  0
 26 27  1  0
 27 28  1  0
 28 29  1  0
 27 30  1  0
 30 31  1  0
 26 32  1  0
 32 33  2  0
 33 34  1  0
 33 35  1  0
 35 36  2  0
 36 37  1  0
 37 38  2  0
 38 39  1  0
 39 40  2  0
 40 41  1  0
 41 42  1  0
 42 43  1  0
 41 44  2  0
 36 45  1  0
 45 46  1  0
 46 47  1  0
 47 48  1  0
 48 49  1  0
 49 50  1  0
 50 51  2  0
 51 52  1  0
 52 53  1  0
 50 54  1  0
 54 55  1  0
 55 56  1  0
 56 57  1  0
 57 58  1  0
 58 59  1  0
 59 60  2  0
 60 61  1  0
 61 62  2  0
 62 63  1  0
 63 64  1  0
 64 65  1  0
 63 66  2  0
 58 67  2  0
 67 68  1  0
 68 69  1  0
 69 70  1  0
 70 71  1  0
 71 72  1  0
 72 73  1  0
 73 74  1  0
 74 75  1  0
 75 76  1  0
 76 77  1  0
 74 78  1  0
 78 79  1  0
 71 80  1  0
 80 81  1  0
 67 82  1  0
 82 83  1  0
 83 84  1  0
 84 85  1  0
 85 86  2  0
 86 87  1  0
 87 88  1  0
 88 89  1  0
 87 90  1  0
 90 91  1  0
 86 92  1  0
 92 93  2  0
 93 94  1  0
 93 95  1  0
 95 96  2  3
 96 97  1  0
 97 98  2  0
 97 99  1  0
 99100  2  0
100101  1  0
101102  1  0
101103  2  0
103104  1  0
104105  2  0
105106  1  0
106107  2  3
107108  1  0
108109  3  0
107110  1  0
110111  3  0
 16  2  1  0
 31 22  2  0
 77 35  1  0
 91 82  2  0
106 96  1  0
 15  5  1  0
 30 24  2  0
 44 37  1  0
 76 45  2  0
 90 84  2  0
105 99  1  0
 13  7  1  0
 34 25  1  0
 75 47  2  0
 94 85  1  0
 73 48  2  0
 53 49  2  0
 72 54  2  0
 70 55  2  0
 69 57  2  0
 66 59  1  0
  1112  1  0
  6113  1  0
  8114  1  0
  9115  1  0
 12116  1  0
 14117  1  0
 28118  1  0
 28119  1  0
 29120  1  0
 29121  1  0
 29122  1  0
 31123  1  0
 32124  1  0
 38125  1  0
 39126  1  0
 40127  1  0
 42128  1  0
 42129  1  0
 43130  1  0
 43131  1  0
 43132  1  0
 44133  1  0
 60134  1  0
 61135  1  0
 62136  1  0
 64137  1  0
 64138  1  0
 65139  1  0
 65140  1  0
 65141  1  0
 66142  1  0
 78143  1  0
 78144  1  0
 79145  1  0
 79146  1  0
 79147  1  0
 80148  1  0
 80149  1  0
 81150  1  0
 81151  1  0
 81152  1  0
 88153  1  0
 88154  1  0
 89155  1  0
 89156  1  0
 89157  1  0
 91158  1  0
 92159  1  0
 95160  1  0
100161  1  0
102162  1  0
102163  1  0
102164  1  0
103165  1  0
104166  1  0
M  END

