
     RDKit          3D

167187  0  0  0  0  0  0  0  0999 V2000
   -5.4946    4.1632    4.0639 C   0  0  0  0  0  0  0  0  0  0  0  0
   -4.6294    4.7521    3.2125 C   0  0  0  0  0  0  0  0  0  0  0  0
   -4.3974    4.3390    1.8215 C   0  0  0  0  0  0  0  0  0  0  0  0
   -4.7925    3.2714    1.2822 O   0  0  0  0  0  0  0  0  0  0  0  0
   -3.5825    5.3375    1.1718 C   0  0  0  0  0  0  0  0  0  0  0  0
   -3.2129    5.3945   -0.1727 C   0  0  0  0  0  0  0  0  0  0  0  0
   -2.4936    6.5134   -0.6234 C   0  0  0  0  0  0  0  0  0  0  0  0
   -2.1014    6.6138   -1.9662 C   0  0  0  0  0  0  0  0  0  0  0  0
   -1.4023    7.7390   -2.4129 C   0  0  0  0  0  0  0  0  0  0  0  0
   -1.0968    8.7767   -1.5267 C   0  0  0  0  0  0  0  0  0  0  0  0
   -0.4213    9.8654   -1.9706 F   0  0  0  0  0  0  0  0  0  0  0  0
   -1.4853    8.6953   -0.1867 C   0  0  0  0  0  0  0  0  0  0  0  0
   -2.1794    7.5660    0.2808 C   0  0  0  0  0  0  0  0  0  0  0  0
   -2.5725    7.4759    1.6308 C   0  0  0  0  0  0  0  0  0  0  0  0
   -3.2484    6.3267    2.0788 C   0  0  0  0  0  0  0  0  0  0  0  0
   -3.7874    5.9784    3.4307 C   0  0  0  0  0  0  0  0  0  0  0  0
   -3.4399    6.5577    4.6115 C   0  0  0  0  0  0  0  0  0  0  0  0
   -2.4618    7.6109    4.7003 C   0  0  0  0  0  0  0  0  0  0  0  0
   -1.6759    8.4577    4.7914 N   0  0  0  0  0  0  0  0  0  0  0  0
   -3.9422    6.1165    5.8860 C   0  0  0  0  0  0  0  0  0  0  0  0
   -4.3416    5.7820    6.9184 N   0  0  0  0  0  0  0  0  0  0  0  0
   -6.3811    3.0587    3.6733 C   0  0  0  0  0  0  0  0  0  0  0  0
   -6.2257    1.4562    4.2407 S   0  0  0  0  0  0  0  0  0  0  0  0
   -7.5016    0.9054    3.3026 C   0  0  0  0  0  0  0  0  0  0  0  0
   -7.8343   -0.2752    2.6935 C   0  0  0  0  0  0  0  0  0  0  0  0
   -8.5035    0.0614    1.5530 C   0  0  0  0  0  0  0  0  0  0  0  0
   -8.6369    1.4073    1.4202 N   0  0  0  0  0  0  0  0  0  0  0  0
   -8.9993    2.1388    0.2043 C   0  0  0  0  0  0  0  0  0  0  0  0
   -7.8039    2.2649   -0.7365 C   0  0  0  0  0  0  0  0  0  0  0  0
   -7.9896    1.8988    2.5082 C   0  0  0  0  0  0  0  0  0  0  0  0
   -7.3867    3.1428    2.6966 C   0  0  0  0  0  0  0  0  0  0  0  0
   -8.4784   -0.9146    0.5575 C   0  0  0  0  0  0  0  0  0  0  0  0
   -7.7450   -2.0366    0.9694 C   0  0  0  0  0  0  0  0  0  0  0  0
   -7.0846   -1.7605    2.5220 S   0  0  0  0  0  0  0  0  0  0  0  0
   -7.2786   -3.0855    0.0510 C   0  0  0  0  0  0  0  0  0  0  0  0
   -6.9789   -4.4205    0.3713 C   0  0  0  0  0  0  0  0  0  0  0  0
   -7.1518   -5.0214    1.6998 C   0  0  0  0  0  0  0  0  0  0  0  0
   -8.3823   -5.5891    2.0570 C   0  0  0  0  0  0  0  0  0  0  0  0
   -8.5580   -6.1333    3.3310 C   0  0  0  0  0  0  0  0  0  0  0  0
   -7.5153   -6.0957    4.2618 C   0  0  0  0  0  0  0  0  0  0  0  0
   -6.2832   -5.5119    3.9209 C   0  0  0  0  0  0  0  0  0  0  0  0
   -5.1619   -5.4720    4.9260 C   0  0  0  0  0  0  0  0  0  0  0  0
   -4.3466   -6.7577    4.8784 C   0  0  0  0  0  0  0  0  0  0  0  0
   -6.0974   -5.0020    2.6258 C   0  0  0  0  0  0  0  0  0  0  0  0
   -6.3762   -5.0764   -0.7047 C   0  0  0  0  0  0  0  0  0  0  0  0
   -5.4683   -6.5073   -0.7875 S   0  0  0  0  0  0  0  0  0  0  0  0
   -4.8663   -6.0936   -2.3218 C   0  0  0  0  0  0  0  0  0  0  0  0
   -3.6400   -6.2874   -2.8936 C   0  0  0  0  0  0  0  0  0  0  0  0
   -2.7125   -7.3265   -2.7868 C   0  0  0  0  0  0  0  0  0  0  0  0
   -1.4585   -7.1968   -3.4562 C   0  0  0  0  0  0  0  0  0  0  0  0
   -0.5849   -8.2245   -3.3208 N   0  0  0  0  0  0  0  0  0  0  0  0
   -1.4868   -9.2406   -2.3727 S   0  0  0  0  0  0  0  0  0  0  0  0
   -2.9252   -8.4713   -2.0919 N   0  0  0  0  0  0  0  0  0  0  0  0
   -1.1738   -6.0012   -4.1356 C   0  0  0  0  0  0  0  0  0  0  0  0
    0.0392   -5.4755   -4.4993 C   0  0  0  0  0  0  0  0  0  0  0  0
    1.6361   -5.8991   -4.1106 S   0  0  0  0  0  0  0  0  0  0  0  0
    2.1361   -4.2757   -4.1182 C   0  0  0  0  0  0  0  0  0  0  0  0
    3.2798   -3.6366   -3.6233 C   0  0  0  0  0  0  0  0  0  0  0  0
    4.5200   -4.3078   -3.1646 C   0  0  0  0  0  0  0  0  0  0  0  0
    4.4773   -5.4216   -2.3099 C   0  0  0  0  0  0  0  0  0  0  0  0
    5.6594   -5.9476   -1.7791 C   0  0  0  0  0  0  0  0  0  0  0  0
    6.8909   -5.3613   -2.0856 C   0  0  0  0  0  0  0  0  0  0  0  0
    6.9514   -4.2539   -2.9445 C   0  0  0  0  0  0  0  0  0  0  0  0
    8.2600   -3.5603   -3.2080 C   0  0  0  0  0  0  0  0  0  0  0  0
    8.5005   -2.4544   -2.1840 C   0  0  0  0  0  0  0  0  0  0  0  0
    5.7649   -3.7383   -3.4841 C   0  0  0  0  0  0  0  0  0  0  0  0
    3.0711   -2.2511   -3.5022 C   0  0  0  0  0  0  0  0  0  0  0  0
    1.4916   -1.8665   -3.9802 S   0  0  0  0  0  0  0  0  0  0  0  0
    1.0751   -3.4425   -4.3814 C   0  0  0  0  0  0  0  0  0  0  0  0
   -0.1280   -4.1213   -4.5965 C   0  0  0  0  0  0  0  0  0  0  0  0
   -1.4160   -3.7410   -4.3752 N   0  0  0  0  0  0  0  0  0  0  0  0
   -2.0742   -4.9242   -4.1441 C   0  0  0  0  0  0  0  0  0  0  0  0
   -3.3720   -5.1212   -3.6106 C   0  0  0  0  0  0  0  0  0  0  0  0
   -4.4358   -4.2609   -3.5956 N   0  0  0  0  0  0  0  0  0  0  0  0
   -5.3167   -4.8735   -2.7560 C   0  0  0  0  0  0  0  0  0  0  0  0
   -6.1810   -4.3028   -1.8225 C   0  0  0  0  0  0  0  0  0  0  0  0
   -6.7323   -2.7505   -1.5240 S   0  0  0  0  0  0  0  0  0  0  0  0
   -4.8560   -3.5474   -4.8117 C   0  0  0  0  0  0  0  0  0  0  0  0
   -5.5196   -2.2063   -4.5211 C   0  0  0  0  0  0  0  0  0  0  0  0
   -1.8137   -2.4014   -3.9170 C   0  0  0  0  0  0  0  0  0  0  0  0
   -1.7915   -1.3925   -5.0637 C   0  0  0  0  0  0  0  0  0  0  0  0
    3.8419   -1.3896   -2.5993 C   0  0  0  0  0  0  0  0  0  0  0  0
    4.4964    0.1520   -2.9886 S   0  0  0  0  0  0  0  0  0  0  0  0
    5.1253    0.3380   -1.4420 C   0  0  0  0  0  0  0  0  0  0  0  0
    5.9125    1.1592   -0.6804 C   0  0  0  0  0  0  0  0  0  0  0  0
    6.0515    0.5448    0.5214 C   0  0  0  0  0  0  0  0  0  0  0  0
    5.3957   -0.6391    0.5760 N   0  0  0  0  0  0  0  0  0  0  0  0
    5.4615   -1.6734    1.6065 C   0  0  0  0  0  0  0  0  0  0  0  0
    6.5799   -2.6608    1.2914 C   0  0  0  0  0  0  0  0  0  0  0  0
    4.8436   -0.7306   -0.6577 C   0  0  0  0  0  0  0  0  0  0  0  0
    4.1296   -1.7431   -1.2725 C   0  0  0  0  0  0  0  0  0  0  0  0
    6.9004    1.1800    1.4156 C   0  0  0  0  0  0  0  0  0  0  0  0
    7.4221    2.3595    0.8535 C   0  0  0  0  0  0  0  0  0  0  0  0
    6.8607    2.5340   -0.7657 S   0  0  0  0  0  0  0  0  0  0  0  0
    8.4352    3.1632    1.5719 C   0  0  0  0  0  0  0  0  0  0  0  0
    8.8456    4.4245    1.3259 C   0  0  0  0  0  0  0  0  0  0  0  0
    8.4963    5.3002    0.1990 C   0  0  0  0  0  0  0  0  0  0  0  0
    7.4134    5.3142   -0.4405 O   0  0  0  0  0  0  0  0  0  0  0  0
    9.5652    6.2666    0.0321 C   0  0  0  0  0  0  0  0  0  0  0  0
    9.7554    7.1801   -1.0028 C   0  0  0  0  0  0  0  0  0  0  0  0
   10.9333    7.9411   -1.0132 C   0  0  0  0  0  0  0  0  0  0  0  0
   11.9127    7.7647   -0.0151 C   0  0  0  0  0  0  0  0  0  0  0  0
   13.0977    8.5100   -0.1076 O   0  0  0  0  0  0  0  0  0  0  0  0
   14.1939    8.3877    0.7929 C   0  0  0  0  0  0  0  0  0  0  0  0
   11.6862    6.8377    1.0295 C   0  0  0  0  0  0  0  0  0  0  0  0
   10.4863    6.1151    1.0506 C   0  0  0  0  0  0  0  0  0  0  0  0
   10.0070    5.0793    2.0009 C   0  0  0  0  0  0  0  0  0  0  0  0
   10.3443    4.9718    3.3124 C   0  0  0  0  0  0  0  0  0  0  0  0
    9.5846    4.1672    4.2353 C   0  0  0  0  0  0  0  0  0  0  0  0
    8.9740    3.5249    4.9810 N   0  0  0  0  0  0  0  0  0  0  0  0
   11.3841    5.7644    3.9139 C   0  0  0  0  0  0  0  0  0  0  0  0
   12.2240    6.3913    4.4082 N   0  0  0  0  0  0  0  0  0  0  0  0
   -5.6228    4.5087    5.0702 H   0  0  0  0  0  0  0  0  0  0  0  0
   -3.4951    4.5985   -0.8507 H   0  0  0  0  0  0  0  0  0  0  0  0
   -2.3344    5.8229   -2.6709 H   0  0  0  0  0  0  0  0  0  0  0  0
   -1.1013    7.8085   -3.4514 H   0  0  0  0  0  0  0  0  0  0  0  0
   -1.2417    9.5096    0.4857 H   0  0  0  0  0  0  0  0  0  0  0  0
   -2.3799    8.3094    2.2874 H   0  0  0  0  0  0  0  0  0  0  0  0
   -9.3686    3.1536    0.4710 H   0  0  0  0  0  0  0  0  0  0  0  0
   -9.8255    1.6088   -0.3174 H   0  0  0  0  0  0  0  0  0  0  0  0
   -7.0085    2.8794   -0.2684 H   0  0  0  0  0  0  0  0  0  0  0  0
   -8.1249    2.7548   -1.6814 H   0  0  0  0  0  0  0  0  0  0  0  0
   -7.3931    1.2645   -0.9807 H   0  0  0  0  0  0  0  0  0  0  0  0
   -7.5836    4.0203    2.0956 H   0  0  0  0  0  0  0  0  0  0  0  0
   -8.8343   -0.7625   -0.4523 H   0  0  0  0  0  0  0  0  0  0  0  0
   -9.2004   -5.6097    1.3501 H   0  0  0  0  0  0  0  0  0  0  0  0
   -9.5059   -6.5821    3.6001 H   0  0  0  0  0  0  0  0  0  0  0  0
   -7.6675   -6.5174    5.2477 H   0  0  0  0  0  0  0  0  0  0  0  0
   -5.5746   -5.3367    5.9489 H   0  0  0  0  0  0  0  0  0  0  0  0
   -4.4951   -4.6056    4.7245 H   0  0  0  0  0  0  0  0  0  0  0  0
   -5.0013   -7.6418    5.0375 H   0  0  0  0  0  0  0  0  0  0  0  0
   -3.5759   -6.7393    5.6802 H   0  0  0  0  0  0  0  0  0  0  0  0
   -3.8323   -6.8497    3.8977 H   0  0  0  0  0  0  0  0  0  0  0  0
   -5.1463   -4.5609    2.3485 H   0  0  0  0  0  0  0  0  0  0  0  0
    3.5335   -5.8538   -2.0073 H   0  0  0  0  0  0  0  0  0  0  0  0
    5.6208   -6.7949   -1.1058 H   0  0  0  0  0  0  0  0  0  0  0  0
    7.7963   -5.7596   -1.6423 H   0  0  0  0  0  0  0  0  0  0  0  0
    9.0977   -4.2907   -3.1687 H   0  0  0  0  0  0  0  0  0  0  0  0
    8.2576   -3.1192   -4.2306 H   0  0  0  0  0  0  0  0  0  0  0  0
    9.4459   -1.9242   -2.4253 H   0  0  0  0  0  0  0  0  0  0  0  0
    8.5899   -2.8919   -1.1684 H   0  0  0  0  0  0  0  0  0  0  0  0
    7.6664   -1.7218   -2.1969 H   0  0  0  0  0  0  0  0  0  0  0  0
    5.8071   -2.8663   -4.1261 H   0  0  0  0  0  0  0  0  0  0  0  0
   -5.5595   -4.1828   -5.3915 H   0  0  0  0  0  0  0  0  0  0  0  0
   -3.9853   -3.3758   -5.4740 H   0  0  0  0  0  0  0  0  0  0  0  0
   -6.5863   -2.3611   -4.2631 H   0  0  0  0  0  0  0  0  0  0  0  0
   -5.0002   -1.6761   -3.6959 H   0  0  0  0  0  0  0  0  0  0  0  0
   -5.4813   -1.5678   -5.4293 H   0  0  0  0  0  0  0  0  0  0  0  0
   -2.8139   -2.4061   -3.4601 H   0  0  0  0  0  0  0  0  0  0  0  0
   -1.1396   -2.0687   -3.1013 H   0  0  0  0  0  0  0  0  0  0  0  0
   -0.8167   -1.4144   -5.5944 H   0  0  0  0  0  0  0  0  0  0  0  0
   -2.5879   -1.6188   -5.8003 H   0  0  0  0  0  0  0  0  0  0  0  0
   -1.9540   -0.3702   -4.6621 H   0  0  0  0  0  0  0  0  0  0  0  0
    5.6454   -1.2064    2.5986 H   0  0  0  0  0  0  0  0  0  0  0  0
    4.4916   -2.2127    1.6583 H   0  0  0  0  0  0  0  0  0  0  0  0
    7.5551   -2.1310    1.2488 H   0  0  0  0  0  0  0  0  0  0  0  0
    6.3891   -3.1549    0.3143 H   0  0  0  0  0  0  0  0  0  0  0  0
    6.6235   -3.4399    2.0811 H   0  0  0  0  0  0  0  0  0  0  0  0
    3.8380   -2.6666   -0.7968 H   0  0  0  0  0  0  0  0  0  0  0  0
    7.1447    0.8030    2.4000 H   0  0  0  0  0  0  0  0  0  0  0  0
    8.9238    2.6239    2.3685 H   0  0  0  0  0  0  0  0  0  0  0  0
    9.0262    7.2817   -1.7965 H   0  0  0  0  0  0  0  0  0  0  0  0
   11.1010    8.6497   -1.8144 H   0  0  0  0  0  0  0  0  0  0  0  0
   13.8718    8.6553    1.8242 H   0  0  0  0  0  0  0  0  0  0  0  0
   14.9998    9.0834    0.4814 H   0  0  0  0  0  0  0  0  0  0  0  0
   14.5899    7.3482    0.7774 H   0  0  0  0  0  0  0  0  0  0  0  0
   12.4455    6.6603    1.7716 H   0  0  0  0  0  0  0  0  0  0  0  0
  1  2  2  3
  2  3  1  0
  3  4  2  0
  3  5  1  0
  5  6  2  0
  6  7  1  0
  7  8  2  0
  8  9  1  0
  9 10  2  0
 10 11  1  0
 10 12  1  0
 12 13  2  0
 13 14  1  0
 14 15  2  0
 15 16  1  0
 16 17  2  3
 17 18  1  0
 18 19  3  0
 17 20  1  0
 20 21  3  0
  1 22  1  0
 22 23  1  0
 23 24  1  0
 24 25  1  0
 25 26  2  0
 26 27  1  0
 27 28  1  0
 28 29  1  0
 27 30  1  0
 30 31  1  0
 26 32  1  0
 32 33  2  0
 33 34  1  0
 33 35  1  0
 35 36  2  0
 36 37  1  0
 37 38  2  0
 38 39  1  0
 39 40  2  0
 40 41  1  0
 41 42  1  0
 42 43  1  0
 41 44  2  0
 36 45  1  0
 45 46  1  0
 46 47  1  0
 47 48  1  0
 48 49  1  0
 49 50  1  0
 50 51  2  0
 51 52  1  0
 52 53  1  0
 50 54  1  0
 54 55  1  0
 55 56  1  0
 56 57  1  0
 57 58  1  0
 58 59  1  0
 59 60  2  0
 60 61  1  0
 61 62  2  0
 62 63  1  0
 63 64  1  0
 64 65  1  0
 63 66  2  0
 58 67  2  0
 67 68  1  0
 68 69  1  0
 69 70  1  0
 70 71  1  0
 71 72  1  0
 72 73  1  0
 73 74  1  0
 74 75  1  0
 75 76  1  0
 76 77  1  0
 74 78  1  0
 78 79  1  0
 71 80  1  0
 80 81  1  0
 67 82  1  0
 82 83  1  0
 83 84  1  0
 84 85  1  0
 85 86  2  0
 86 87  1  0
 87 88  1  0
 88 89  1  0
 87 90  1  0
 90 91  1  0
 86 92  1  0
 92 93  2  0
 93 94  1  0
 93 95  1  0
 95 96  2  3
 96 97  1  0
 97 98  2  0
 97 99  1  0
 99100  2  0
100101  1  0
101102  2  0
102103  1  0
103104  1  0
102105  1  0
105106  2  0
106107  1  0
107108  2  3
108109  1  0
109110  3  0
108111  1  0
111112  3  0
 16  2  1  0
 31 22  2  0
 77 35  1  0
 91 82  2  0
107 96  1  0
 15  5  1  0
 30 24  2  0
 44 37  1  0
 76 45  2  0
 90 84  2  0
106 99  1  0
 13  7  1  0
 34 25  1  0
 75 47  2  0
 94 85  1  0
 73 48  2  0
 53 49  2  0
 72 54  2  0
 70 55  2  0
 69 57  2  0
 66 59  1  0
  1113  1  0
  6114  1  0
  8115  1  0
  9116  1  0
 12117  1  0
 14118  1  0
 28119  1  0
 28120  1  0
 29121  1  0
 29122  1  0
 29123  1  0
 31124  1  0
 32125  1  0
 38126  1  0
 39127  1  0
 40128  1  0
 42129  1  0
 42130  1  0
 43131  1  0
 43132  1  0
 43133  1  0
 44134  1  0
 60135  1  0
 61136  1  0
 62137  1  0
 64138  1  0
 64139  1  0
 65140  1  0
 65141  1  0
 65142  1  0
 66143  1  0
 78144  1  0
 78145  1  0
 79146  1  0
 79147  1  0
 79148  1  0
 80149  1  0
 80150  1  0
 81151  1  0
 81152  1  0
 81153  1  0
 88154  1  0
 88155  1  0
 89156  1  0
 89157  1  0
 89158  1  0
 91159  1  0
 92160  1  0
 95161  1  0
100162  1  0
101163  1  0
104164  1  0
104165  1  0
104166  1  0
105167  1  0
M  END

