
     RDKit          3D

194217  0  0  0  0  0  0  0  0999 V2000
    8.3594   -3.1360   -0.7722 C   0  0  0  0  0  0  0  0  0  0  0  0
    8.0846   -2.0464   -1.5104 C   0  0  0  0  0  0  0  0  0  0  0  0
    8.9540   -1.5949   -2.5949 C   0  0  0  0  0  0  0  0  0  0  0  0
    9.8727   -2.2654   -3.1397 O   0  0  0  0  0  0  0  0  0  0  0  0
    8.6441   -0.2095   -2.8765 C   0  0  0  0  0  0  0  0  0  0  0  0
    9.3054    0.6661   -3.7371 C   0  0  0  0  0  0  0  0  0  0  0  0
    8.8711    2.0027   -3.7978 C   0  0  0  0  0  0  0  0  0  0  0  0
    9.5000    2.9176   -4.6556 C   0  0  0  0  0  0  0  0  0  0  0  0
    9.0654    4.2458   -4.7081 C   0  0  0  0  0  0  0  0  0  0  0  0
    8.0085    4.6757   -3.9006 C   0  0  0  0  0  0  0  0  0  0  0  0
    7.5931    5.9651   -3.9617 F   0  0  0  0  0  0  0  0  0  0  0  0
    7.3776    3.7798   -3.0304 C   0  0  0  0  0  0  0  0  0  0  0  0
    7.7969    2.4396   -2.9724 C   0  0  0  0  0  0  0  0  0  0  0  0
    7.1633    1.5321   -2.0992 C   0  0  0  0  0  0  0  0  0  0  0  0
    7.5848    0.1947   -2.0824 C   0  0  0  0  0  0  0  0  0  0  0  0
    7.0809   -0.9602   -1.2902 C   0  0  0  0  0  0  0  0  0  0  0  0
    5.7994   -1.1316   -0.8754 C   0  0  0  0  0  0  0  0  0  0  0  0
    5.2651   -2.4273   -0.5452 C   0  0  0  0  0  0  0  0  0  0  0  0
    4.8181   -3.4622   -0.2873 N   0  0  0  0  0  0  0  0  0  0  0  0
    4.8203   -0.0762   -0.9414 C   0  0  0  0  0  0  0  0  0  0  0  0
    4.0235    0.7598   -1.0072 N   0  0  0  0  0  0  0  0  0  0  0  0
    7.8771   -3.3779    0.5951 C   0  0  0  0  0  0  0  0  0  0  0  0
    7.7066   -2.1900    1.8207 S   0  0  0  0  0  0  0  0  0  0  0  0
    7.2179   -3.3158    2.9599 C   0  0  0  0  0  0  0  0  0  0  0  0
    6.4390   -3.3240    4.0836 C   0  0  0  0  0  0  0  0  0  0  0  0
    5.8573   -4.5523    4.1313 C   0  0  0  0  0  0  0  0  0  0  0  0
    6.2759   -5.3584    3.1222 N   0  0  0  0  0  0  0  0  0  0  0  0
    5.7049   -6.6455    2.7196 C   0  0  0  0  0  0  0  0  0  0  0  0
    4.5451   -6.4492    1.7506 C   0  0  0  0  0  0  0  0  0  0  0  0
    7.1048   -4.5551    2.4067 C   0  0  0  0  0  0  0  0  0  0  0  0
    7.5061   -4.6407    1.0764 C   0  0  0  0  0  0  0  0  0  0  0  0
    4.7006   -4.6109    4.9029 C   0  0  0  0  0  0  0  0  0  0  0  0
    4.4538   -3.3837    5.5464 C   0  0  0  0  0  0  0  0  0  0  0  0
    5.5680   -2.2118    4.9766 S   0  0  0  0  0  0  0  0  0  0  0  0
    3.1599   -3.0215    6.1493 C   0  0  0  0  0  0  0  0  0  0  0  0
    2.3269   -3.7923    7.0148 C   0  0  0  0  0  0  0  0  0  0  0  0
    2.7626   -4.7508    8.0903 C   0  0  0  0  0  0  0  0  0  0  0  0
    2.0261   -4.8058    9.2953 C   0  0  0  0  0  0  0  0  0  0  0  0
    2.4170   -5.6384   10.3474 C   0  0  0  0  0  0  0  0  0  0  0  0
    3.5553   -6.4302   10.2271 C   0  0  0  0  0  0  0  0  0  0  0  0
    4.3132   -6.3934    9.0509 C   0  0  0  0  0  0  0  0  0  0  0  0
    5.5740   -7.2100    8.9371 C   0  0  0  0  0  0  0  0  0  0  0  0
    6.7832   -6.3987    9.3916 C   0  0  0  0  0  0  0  0  0  0  0  0
    3.9273   -5.5413    8.0021 C   0  0  0  0  0  0  0  0  0  0  0  0
    1.0041   -3.3150    6.9326 C   0  0  0  0  0  0  0  0  0  0  0  0
   -0.5084   -4.0721    7.2125 S   0  0  0  0  0  0  0  0  0  0  0  0
   -1.3299   -2.8356    6.3880 C   0  0  0  0  0  0  0  0  0  0  0  0
   -2.5391   -2.6219    5.7841 C   0  0  0  0  0  0  0  0  0  0  0  0
   -3.7205   -3.3628    5.8311 C   0  0  0  0  0  0  0  0  0  0  0  0
   -4.8061   -2.9692    5.0004 C   0  0  0  0  0  0  0  0  0  0  0  0
   -5.9241   -3.7348    5.0474 N   0  0  0  0  0  0  0  0  0  0  0  0
   -5.4467   -4.8594    6.1651 S   0  0  0  0  0  0  0  0  0  0  0  0
   -3.8985   -4.4638    6.6029 N   0  0  0  0  0  0  0  0  0  0  0  0
   -4.6391   -1.8768    4.1434 C   0  0  0  0  0  0  0  0  0  0  0  0
   -5.4167   -1.4596    3.1009 C   0  0  0  0  0  0  0  0  0  0  0  0
   -6.7863   -2.0018    2.2434 S   0  0  0  0  0  0  0  0  0  0  0  0
   -6.4168   -0.9793    0.9227 C   0  0  0  0  0  0  0  0  0  0  0  0
   -6.9799   -0.7563   -0.3472 C   0  0  0  0  0  0  0  0  0  0  0  0
   -8.1994   -1.4164   -0.8605 C   0  0  0  0  0  0  0  0  0  0  0  0
   -8.3993   -2.7935   -0.6711 C   0  0  0  0  0  0  0  0  0  0  0  0
   -9.5519   -3.4115   -1.1594 C   0  0  0  0  0  0  0  0  0  0  0  0
  -10.5162   -2.6640   -1.8388 C   0  0  0  0  0  0  0  0  0  0  0  0
  -10.3368   -1.2851   -2.0248 C   0  0  0  0  0  0  0  0  0  0  0  0
  -11.3584   -0.4834   -2.7854 C   0  0  0  0  0  0  0  0  0  0  0  0
  -11.0379   -0.4873   -4.2763 C   0  0  0  0  0  0  0  0  0  0  0  0
   -9.1715   -0.6680   -1.5433 C   0  0  0  0  0  0  0  0  0  0  0  0
   -6.2088    0.1816   -1.0616 C   0  0  0  0  0  0  0  0  0  0  0  0
   -4.8674    0.6630   -0.1414 S   0  0  0  0  0  0  0  0  0  0  0  0
   -5.2599   -0.2821    1.1700 C   0  0  0  0  0  0  0  0  0  0  0  0
   -4.6854   -0.5684    2.3998 C   0  0  0  0  0  0  0  0  0  0  0  0
   -3.4451   -0.3666    2.9136 N   0  0  0  0  0  0  0  0  0  0  0  0
   -3.4260   -1.1589    4.0427 C   0  0  0  0  0  0  0  0  0  0  0  0
   -2.3598   -1.5074    4.9357 C   0  0  0  0  0  0  0  0  0  0  0  0
   -1.0796   -1.0144    5.0784 N   0  0  0  0  0  0  0  0  0  0  0  0
   -0.4918   -1.8908    5.9216 C   0  0  0  0  0  0  0  0  0  0  0  0
    0.8328   -2.1752    6.1935 C   0  0  0  0  0  0  0  0  0  0  0  0
    2.2580   -1.7569    5.4519 S   0  0  0  0  0  0  0  0  0  0  0  0
   -0.5094    0.3148    4.8225 C   0  0  0  0  0  0  0  0  0  0  0  0
   -1.4340    1.4327    5.3067 C   0  0  0  0  0  0  0  0  0  0  0  0
   -2.3382    0.2257    2.1516 C   0  0  0  0  0  0  0  0  0  0  0  0
   -1.3952   -0.8490    1.6175 C   0  0  0  0  0  0  0  0  0  0  0  0
   -6.3289    0.6218   -2.4531 C   0  0  0  0  0  0  0  0  0  0  0  0
   -6.3566    1.9950   -2.6995 C   0  0  0  0  0  0  0  0  0  0  0  0
   -5.4700    2.4134   -3.7046 C   0  0  0  0  0  0  0  0  0  0  0  0
   -5.0444    3.7417   -3.9263 C   0  0  0  0  0  0  0  0  0  0  0  0
   -5.6411    4.8935   -3.2214 C   0  0  0  0  0  0  0  0  0  0  0  0
   -6.2064    6.0059   -3.8374 C   0  0  0  0  0  0  0  0  0  0  0  0
   -6.6870    6.9525   -2.9253 C   0  0  0  0  0  0  0  0  0  0  0  0
   -7.2833    8.1090   -3.3074 F   0  0  0  0  0  0  0  0  0  0  0  0
   -6.4993    6.5917   -1.5955 C   0  0  0  0  0  0  0  0  0  0  0  0
   -6.8909    7.3984   -0.3956 C   0  0  0  0  0  0  0  0  0  0  0  0
   -5.7845    8.3725   -0.0108 C   0  0  0  0  0  0  0  0  0  0  0  0
   -5.6996    5.1117   -1.5506 S   0  0  0  0  0  0  0  0  0  0  0  0
   -3.9236    3.9151   -4.7536 C   0  0  0  0  0  0  0  0  0  0  0  0
   -3.2981    2.8480   -5.4131 C   0  0  0  0  0  0  0  0  0  0  0  0
   -3.7744    1.5306   -5.2550 C   0  0  0  0  0  0  0  0  0  0  0  0
   -3.0482    0.3846   -5.8282 C   0  0  0  0  0  0  0  0  0  0  0  0
   -2.2193   -0.7878   -4.9474 S   0  0  0  0  0  0  0  0  0  0  0  0
   -1.5596   -1.5743   -6.2790 C   0  0  0  0  0  0  0  0  0  0  0  0
   -0.6735   -2.7807   -6.2162 C   0  0  0  0  0  0  0  0  0  0  0  0
   -1.4205   -4.0637   -6.5968 C   0  0  0  0  0  0  0  0  0  0  0  0
   -2.5096   -4.4262   -5.5888 C   0  0  0  0  0  0  0  0  0  0  0  0
   -1.9869   -0.9243   -7.4296 C   0  0  0  0  0  0  0  0  0  0  0  0
   -2.8109    0.1776   -7.1848 C   0  0  0  0  0  0  0  0  0  0  0  0
   -1.6327   -1.3162   -8.6811 F   0  0  0  0  0  0  0  0  0  0  0  0
   -4.8394    1.3491   -4.3547 C   0  0  0  0  0  0  0  0  0  0  0  0
   -5.3300   -0.0798   -3.6191 S   0  0  0  0  0  0  0  0  0  0  0  0
   -2.0636    3.2017   -5.9846 C   0  0  0  0  0  0  0  0  0  0  0  0
   -1.6766    4.5003   -5.6677 C   0  0  0  0  0  0  0  0  0  0  0  0
   -2.9117    5.2594   -4.8057 S   0  0  0  0  0  0  0  0  0  0  0  0
   -0.3070    5.0131   -5.8204 C   0  0  0  0  0  0  0  0  0  0  0  0
    0.4492    5.4403   -4.7896 C   0  0  0  0  0  0  0  0  0  0  0  0
    1.6352    6.2755   -4.9561 C   0  0  0  0  0  0  0  0  0  0  0  0
    2.2617    6.4691   -6.0330 O   0  0  0  0  0  0  0  0  0  0  0  0
    1.9347    6.8949   -3.6798 C   0  0  0  0  0  0  0  0  0  0  0  0
    2.9701    7.7753   -3.3695 C   0  0  0  0  0  0  0  0  0  0  0  0
    3.0842    8.2421   -2.0476 C   0  0  0  0  0  0  0  0  0  0  0  0
    4.1383    9.0916   -1.6778 C   0  0  0  0  0  0  0  0  0  0  0  0
    4.2488    9.5422   -0.3575 C   0  0  0  0  0  0  0  0  0  0  0  0
    3.3055    9.1562    0.6003 C   0  0  0  0  0  0  0  0  0  0  0  0
    3.4188    9.5953    1.8785 F   0  0  0  0  0  0  0  0  0  0  0  0
    2.2481    8.3129    0.2473 C   0  0  0  0  0  0  0  0  0  0  0  0
    2.1274    7.8444   -1.0707 C   0  0  0  0  0  0  0  0  0  0  0  0
    1.0833    6.9646   -1.4205 C   0  0  0  0  0  0  0  0  0  0  0  0
    1.0177    6.4671   -2.7324 C   0  0  0  0  0  0  0  0  0  0  0  0
    0.1400    5.4224   -3.3273 C   0  0  0  0  0  0  0  0  0  0  0  0
   -0.3790    4.3755   -2.6402 C   0  0  0  0  0  0  0  0  0  0  0  0
   -0.4789    3.0656   -3.2280 C   0  0  0  0  0  0  0  0  0  0  0  0
   -0.5437    2.0003   -3.6744 N   0  0  0  0  0  0  0  0  0  0  0  0
   -0.6581    4.4289   -1.2298 C   0  0  0  0  0  0  0  0  0  0  0  0
   -0.8926    4.4553   -0.0949 N   0  0  0  0  0  0  0  0  0  0  0  0
    9.0816   -3.8505   -1.1529 H   0  0  0  0  0  0  0  0  0  0  0  0
   10.1355    0.3171   -4.3407 H   0  0  0  0  0  0  0  0  0  0  0  0
   10.3247    2.6060   -5.2863 H   0  0  0  0  0  0  0  0  0  0  0  0
    9.5543    4.9425   -5.3771 H   0  0  0  0  0  0  0  0  0  0  0  0
    6.5638    4.1329   -2.4097 H   0  0  0  0  0  0  0  0  0  0  0  0
    6.3891    1.8851   -1.4360 H   0  0  0  0  0  0  0  0  0  0  0  0
    5.3429   -7.1886    3.6196 H   0  0  0  0  0  0  0  0  0  0  0  0
    6.4885   -7.2709    2.2432 H   0  0  0  0  0  0  0  0  0  0  0  0
    3.8072   -5.7335    2.1683 H   0  0  0  0  0  0  0  0  0  0  0  0
    4.9209   -6.0629    0.7812 H   0  0  0  0  0  0  0  0  0  0  0  0
    4.0413   -7.4216    1.5713 H   0  0  0  0  0  0  0  0  0  0  0  0
    7.4332   -5.5318    0.4674 H   0  0  0  0  0  0  0  0  0  0  0  0
    4.0086   -5.4422    4.8937 H   0  0  0  0  0  0  0  0  0  0  0  0
    1.1669   -4.1703    9.4545 H   0  0  0  0  0  0  0  0  0  0  0  0
    1.8435   -5.6533   11.2662 H   0  0  0  0  0  0  0  0  0  0  0  0
    3.8552   -7.0609   11.0548 H   0  0  0  0  0  0  0  0  0  0  0  0
    5.7276   -7.5328    7.8838 H   0  0  0  0  0  0  0  0  0  0  0  0
    5.4939   -8.1301    9.5561 H   0  0  0  0  0  0  0  0  0  0  0  0
    6.6561   -6.0792   10.4473 H   0  0  0  0  0  0  0  0  0  0  0  0
    7.6996   -7.0213    9.3169 H   0  0  0  0  0  0  0  0  0  0  0  0
    6.9089   -5.5019    8.7484 H   0  0  0  0  0  0  0  0  0  0  0  0
    4.5584   -5.5163    7.1443 H   0  0  0  0  0  0  0  0  0  0  0  0
   -7.6550   -3.3959   -0.1674 H   0  0  0  0  0  0  0  0  0  0  0  0
   -9.6959   -4.4756   -1.0205 H   0  0  0  0  0  0  0  0  0  0  0  0
  -11.4006   -3.1594   -2.2264 H   0  0  0  0  0  0  0  0  0  0  0  0
  -11.3753    0.5641   -2.4167 H   0  0  0  0  0  0  0  0  0  0  0  0
  -12.3745   -0.9094   -2.6269 H   0  0  0  0  0  0  0  0  0  0  0  0
  -10.0381   -0.0350   -4.4547 H   0  0  0  0  0  0  0  0  0  0  0  0
  -11.8010    0.1069   -4.8213 H   0  0  0  0  0  0  0  0  0  0  0  0
  -11.0466   -1.5264   -4.6687 H   0  0  0  0  0  0  0  0  0  0  0  0
   -9.0328    0.3956   -1.6905 H   0  0  0  0  0  0  0  0  0  0  0  0
   -0.1766    0.4145    3.7770 H   0  0  0  0  0  0  0  0  0  0  0  0
    0.4330    0.4403    5.3958 H   0  0  0  0  0  0  0  0  0  0  0  0
   -2.4653    1.3231    4.9165 H   0  0  0  0  0  0  0  0  0  0  0  0
   -1.0361    2.4155    4.9797 H   0  0  0  0  0  0  0  0  0  0  0  0
   -1.4827    1.4240    6.4172 H   0  0  0  0  0  0  0  0  0  0  0  0
   -2.7116    0.7915    1.2858 H   0  0  0  0  0  0  0  0  0  0  0  0
   -1.8476    1.0199    2.7204 H   0  0  0  0  0  0  0  0  0  0  0  0
   -1.9447   -1.5077    0.9107 H   0  0  0  0  0  0  0  0  0  0  0  0
   -0.9856   -1.4730    2.4363 H   0  0  0  0  0  0  0  0  0  0  0  0
   -0.5507   -0.3702    1.0764 H   0  0  0  0  0  0  0  0  0  0  0  0
   -6.8423    2.6731   -2.0143 H   0  0  0  0  0  0  0  0  0  0  0  0
   -6.2742    6.1284   -4.9111 H   0  0  0  0  0  0  0  0  0  0  0  0
   -7.0948    6.7180    0.4599 H   0  0  0  0  0  0  0  0  0  0  0  0
   -7.8231    7.9647   -0.6126 H   0  0  0  0  0  0  0  0  0  0  0  0
   -4.8509    7.8213    0.2332 H   0  0  0  0  0  0  0  0  0  0  0  0
   -6.0991    8.9540    0.8829 H   0  0  0  0  0  0  0  0  0  0  0  0
   -5.5863    9.0817   -0.8438 H   0  0  0  0  0  0  0  0  0  0  0  0
    0.1731   -2.6366   -6.9183 H   0  0  0  0  0  0  0  0  0  0  0  0
   -0.2417   -2.8793   -5.1964 H   0  0  0  0  0  0  0  0  0  0  0  0
   -0.6880   -4.8989   -6.6424 H   0  0  0  0  0  0  0  0  0  0  0  0
   -1.8729   -3.9562   -7.6084 H   0  0  0  0  0  0  0  0  0  0  0  0
   -3.3145   -3.6634   -5.5956 H   0  0  0  0  0  0  0  0  0  0  0  0
   -2.0810   -4.5036   -4.5655 H   0  0  0  0  0  0  0  0  0  0  0  0
   -2.9567   -5.4078   -5.8626 H   0  0  0  0  0  0  0  0  0  0  0  0
   -3.2096    0.8086   -7.9684 H   0  0  0  0  0  0  0  0  0  0  0  0
   -1.3934    2.4988   -6.4604 H   0  0  0  0  0  0  0  0  0  0  0  0
    0.0805    5.0954   -6.8284 H   0  0  0  0  0  0  0  0  0  0  0  0
    3.6767    8.0772   -4.1345 H   0  0  0  0  0  0  0  0  0  0  0  0
    4.8848    9.3912   -2.4018 H   0  0  0  0  0  0  0  0  0  0  0  0
    5.0705   10.1861   -0.0724 H   0  0  0  0  0  0  0  0  0  0  0  0
    1.5313    8.0182    1.0057 H   0  0  0  0  0  0  0  0  0  0  0  0
    0.3516    6.6919   -0.6757 H   0  0  0  0  0  0  0  0  0  0  0  0
  1  2  2  3
  2  3  1  0
  3  4  2  0
  3  5  1  0
  5  6  2  0
  6  7  1  0
  7  8  2  0
  8  9  1  0
  9 10  2  0
 10 11  1  0
 10 12  1  0
 12 13  2  0
 13 14  1  0
 14 15  2  0
 15 16  1  0
 16 17  2  3
 17 18  1  0
 18 19  3  0
 17 20  1  0
 20 21  3  0
  1 22  1  0
 22 23  1  0
 23 24  1  0
 24 25  1  0
 25 26  2  0
 26 27  1  0
 27 28  1  0
 28 29  1  0
 27 30  1  0
 30 31  1  0
 26 32  1  0
 32 33  2  0
 33 34  1  0
 33 35  1  0
 35 36  2  0
 36 37  1  0
 37 38  2  0
 38 39  1  0
 39 40  2  0
 40 41  1  0
 41 42  1  0
 42 43  1  0
 41 44  2  0
 36 45  1  0
 45 46  1  0
 46 47  1  0
 47 48  1  0
 48 49  1  0
 49 50  1  0
 50 51  2  0
 51 52  1  0
 52 53  1  0
 50 54  1  0
 54 55  1  0
 55 56  1  0
 56 57  1  0
 57 58  1  0
 58 59  1  0
 59 60  2  0
 60 61  1  0
 61 62  2  0
 62 63  1  0
 63 64  1  0
 64 65  1  0
 63 66  2  0
 58 67  2  0
 67 68  1  0
 68 69  1  0
 69 70  1  0
 70 71  1  0
 71 72  1  0
 72 73  1  0
 73 74  1  0
 74 75  1  0
 75 76  1  0
 76 77  1  0
 74 78  1  0
 78 79  1  0
 71 80  1  0
 80 81  1  0
 67 82  1  0
 82 83  2  0
 83 84  1  0
 84 85  2  0
 85 86  1  0
 86 87  2  0
 87 88  1  0
 88 89  1  0
 88 90  2  0
 90 91  1  0
 91 92  1  0
 90 93  1  0
 85 94  1  0
 94 95  2  0
 95 96  1  0
 96 97  1  0
 97 98  1  0
 98 99  1  0
 99100  1  0
100101  1  0
101102  1  0
 99103  2  0
103104  1  0
103105  1  0
 96106  2  0
106107  1  0
 95108  1  0
108109  2  0
109110  1  0
109111  1  0
111112  2  3
112113  1  0
113114  2  0
113115  1  0
115116  2  0
116117  1  0
117118  2  0
118119  1  0
119120  2  0
120121  1  0
120122  1  0
122123  2  0
123124  1  0
124125  2  0
125126  1  0
126127  2  3
127128  1  0
128129  3  0
127130  1  0
130131  3  0
 16  2  1  0
 31 22  2  0
 77 35  1  0
107 82  1  0
126112  1  0
 15  5  1  0
 30 24  2  0
 44 37  1  0
 76 45  2  0
106 84  1  0
125115  1  0
 13  7  1  0
 34 25  1  0
 75 47  2  0
 93 86  1  0
110 94  1  0
123117  1  0
 73 48  2  0
104 97  2  0
 53 49  2  0
 72 54  2  0
 70 55  2  0
 69 57  2  0
 66 59  1  0
  1132  1  0
  6133  1  0
  8134  1  0
  9135  1  0
 12136  1  0
 14137  1  0
 28138  1  0
 28139  1  0
 29140  1  0
 29141  1  0
 29142  1  0
 31143  1  0
 32144  1  0
 38145  1  0
 39146  1  0
 40147  1  0
 42148  1  0
 42149  1  0
 43150  1  0
 43151  1  0
 43152  1  0
 44153  1  0
 60154  1  0
 61155  1  0
 62156  1  0
 64157  1  0
 64158  1  0
 65159  1  0
 65160  1  0
 65161  1  0
 66162  1  0
 78163  1  0
 78164  1  0
 79165  1  0
 79166  1  0
 79167  1  0
 80168  1  0
 80169  1  0
 81170  1  0
 81171  1  0
 81172  1  0
 83173  1  0
 87174  1  0
 91175  1  0
 91176  1  0
 92177  1  0
 92178  1  0
 92179  1  0
100180  1  0
100181  1  0
101182  1  0
101183  1  0
102184  1  0
102185  1  0
102186  1  0
104187  1  0
108188  1  0
111189  1  0
116190  1  0
118191  1  0
119192  1  0
122193  1  0
124194  1  0
M  END

