
     RDKit          3D

164182  0  0  0  0  0  0  0  0999 V2000
    4.2610    4.9018    7.9541 C   0  0  0  0  0  0  0  0  0  0  0  0
    4.4632    6.0674    7.3067 C   0  0  0  0  0  0  0  0  0  0  0  0
    3.4685    6.8238    6.5367 C   0  0  0  0  0  0  0  0  0  0  0  0
    2.4407    6.3576    5.9786 O   0  0  0  0  0  0  0  0  0  0  0  0
    3.9303    8.1891    6.4161 C   0  0  0  0  0  0  0  0  0  0  0  0
    3.2359    9.2853    5.9083 C   0  0  0  0  0  0  0  0  0  0  0  0
    3.8366   10.5533    5.9808 C   0  0  0  0  0  0  0  0  0  0  0  0
    3.1642   11.6888    5.5029 C   0  0  0  0  0  0  0  0  0  0  0  0
    3.7561   12.9501    5.6045 C   0  0  0  0  0  0  0  0  0  0  0  0
    5.0222   13.0903    6.1806 C   0  0  0  0  0  0  0  0  0  0  0  0
    5.5895   14.3178    6.2724 F   0  0  0  0  0  0  0  0  0  0  0  0
    5.7039   11.9704    6.6668 C   0  0  0  0  0  0  0  0  0  0  0  0
    5.1235   10.6959    6.5730 C   0  0  0  0  0  0  0  0  0  0  0  0
    5.7985    9.5657    7.0759 C   0  0  0  0  0  0  0  0  0  0  0  0
    5.1947    8.3020    6.9671 C   0  0  0  0  0  0  0  0  0  0  0  0
    5.6585    6.9601    7.4250 C   0  0  0  0  0  0  0  0  0  0  0  0
    6.9422    6.5876    7.6710 C   0  0  0  0  0  0  0  0  0  0  0  0
    7.3286    5.2092    7.8353 C   0  0  0  0  0  0  0  0  0  0  0  0
    7.6522    4.1058    7.9696 N   0  0  0  0  0  0  0  0  0  0  0  0
    8.0392    7.5195    7.6522 C   0  0  0  0  0  0  0  0  0  0  0  0
    8.9314    8.2593    7.6408 N   0  0  0  0  0  0  0  0  0  0  0  0
    2.9695    4.1963    8.0533 C   0  0  0  0  0  0  0  0  0  0  0  0
    1.4459    4.9260    8.3610 S   0  0  0  0  0  0  0  0  0  0  0  0
    0.6813    3.4497    8.5280 C   0  0  0  0  0  0  0  0  0  0  0  0
   -0.5777    2.9272    8.4546 C   0  0  0  0  0  0  0  0  0  0  0  0
   -0.4224    1.5956    8.2164 C   0  0  0  0  0  0  0  0  0  0  0  0
    0.8893    1.2419    8.1250 N   0  0  0  0  0  0  0  0  0  0  0  0
    1.4521    0.0068    7.5797 C   0  0  0  0  0  0  0  0  0  0  0  0
    2.2256   -0.7453    8.6536 C   0  0  0  0  0  0  0  0  0  0  0  0
    1.5388    2.4187    8.3226 C   0  0  0  0  0  0  0  0  0  0  0  0
    2.8526    2.7958    8.0598 C   0  0  0  0  0  0  0  0  0  0  0  0
   -1.5687    0.9579    7.7453 C   0  0  0  0  0  0  0  0  0  0  0  0
   -2.6215    1.8774    7.5936 C   0  0  0  0  0  0  0  0  0  0  0  0
   -2.0967    3.4568    7.9930 S   0  0  0  0  0  0  0  0  0  0  0  0
   -3.8696    1.5774    6.8804 C   0  0  0  0  0  0  0  0  0  0  0  0
   -4.4888    0.3197    6.8422 C   0  0  0  0  0  0  0  0  0  0  0  0
   -5.4503    0.2710    5.8374 C   0  0  0  0  0  0  0  0  0  0  0  0
   -6.1997   -1.0257    5.0618 S   0  0  0  0  0  0  0  0  0  0  0  0
   -6.6643   -0.0834    3.7242 C   0  0  0  0  0  0  0  0  0  0  0  0
   -7.1428   -0.5506    2.4982 C   0  0  0  0  0  0  0  0  0  0  0  0
   -7.0853    0.3432    1.4173 C   0  0  0  0  0  0  0  0  0  0  0  0
   -7.2272    0.0780   -0.0018 C   0  0  0  0  0  0  0  0  0  0  0  0
   -6.9477    1.1759   -0.6879 C   0  0  0  0  0  0  0  0  0  0  0  0
   -6.4818    2.3265    0.2091 C   0  0  0  0  0  0  0  0  0  0  0  0
   -7.4500    3.5364    0.1266 C   0  0  0  0  0  0  0  0  0  0  0  0
   -7.4971    4.2267   -1.2358 C   0  0  0  0  0  0  0  0  0  0  0  0
   -4.9786    2.6575   -0.0818 C   0  0  0  0  0  0  0  0  0  0  0  0
   -4.2964    3.6611    0.8526 C   0  0  0  0  0  0  0  0  0  0  0  0
   -6.6425    1.6553    1.5617 C   0  0  0  0  0  0  0  0  0  0  0  0
   -6.2790    2.1535    2.8249 C   0  0  0  0  0  0  0  0  0  0  0  0
   -6.2378    1.2440    3.8874 C   0  0  0  0  0  0  0  0  0  0  0  0
   -5.5795    1.4117    5.0994 C   0  0  0  0  0  0  0  0  0  0  0  0
   -4.5083    2.5749    5.6557 S   0  0  0  0  0  0  0  0  0  0  0  0
   -6.5590    0.7824   -2.0443 C   0  0  0  0  0  0  0  0  0  0  0  0
   -6.5991   -0.6123   -2.1133 C   0  0  0  0  0  0  0  0  0  0  0  0
   -7.0597   -1.2037   -0.7978 C   0  0  0  0  0  0  0  0  0  0  0  0
   -8.4480   -1.8881   -0.9187 C   0  0  0  0  0  0  0  0  0  0  0  0
   -8.4921   -3.1009   -1.8506 C   0  0  0  0  0  0  0  0  0  0  0  0
   -5.9764   -2.1576   -0.1974 C   0  0  0  0  0  0  0  0  0  0  0  0
   -4.6136   -1.5006    0.0639 C   0  0  0  0  0  0  0  0  0  0  0  0
   -5.9287   -1.3000   -3.1402 C   0  0  0  0  0  0  0  0  0  0  0  0
   -5.1837   -0.5463   -4.0517 C   0  0  0  0  0  0  0  0  0  0  0  0
   -5.1944    0.8550   -4.0053 C   0  0  0  0  0  0  0  0  0  0  0  0
   -5.9211    1.5480   -3.0352 C   0  0  0  0  0  0  0  0  0  0  0  0
   -3.8891    1.4782   -4.8976 S   0  0  0  0  0  0  0  0  0  0  0  0
   -3.3133   -0.0475   -5.3271 C   0  0  0  0  0  0  0  0  0  0  0  0
   -2.0228   -0.4672   -5.6500 C   0  0  0  0  0  0  0  0  0  0  0  0
   -1.8466   -1.8388   -5.3937 C   0  0  0  0  0  0  0  0  0  0  0  0
   -3.3082   -2.4735   -4.7843 S   0  0  0  0  0  0  0  0  0  0  0  0
   -4.1335   -1.0188   -4.8296 C   0  0  0  0  0  0  0  0  0  0  0  0
   -0.5259   -2.5325   -5.3443 C   0  0  0  0  0  0  0  0  0  0  0  0
    0.4632   -2.2364   -6.3074 C   0  0  0  0  0  0  0  0  0  0  0  0
    0.1440   -1.3836   -7.3729 O   0  0  0  0  0  0  0  0  0  0  0  0
    0.2934   -1.7563   -8.7396 C   0  0  0  0  0  0  0  0  0  0  0  0
   -0.1039   -0.5870   -9.6245 C   0  0  0  0  0  0  0  0  0  0  0  0
    1.7598   -2.7810   -6.1848 C   0  0  0  0  0  0  0  0  0  0  0  0
    2.7975   -2.3464   -7.0184 O   0  0  0  0  0  0  0  0  0  0  0  0
    3.2928   -1.0094   -6.9976 C   0  0  0  0  0  0  0  0  0  0  0  0
    4.1602   -0.7876   -5.7653 C   0  0  0  0  0  0  0  0  0  0  0  0
    2.0401   -3.7366   -5.1902 C   0  0  0  0  0  0  0  0  0  0  0  0
    1.0566   -4.0506   -4.2405 C   0  0  0  0  0  0  0  0  0  0  0  0
   -0.2156   -3.4417   -4.3036 C   0  0  0  0  0  0  0  0  0  0  0  0
   -1.1154   -3.7238   -3.3206 N   0  0  0  0  0  0  0  0  0  0  0  0
   -0.8355   -4.5841   -2.3100 C   0  0  0  0  0  0  0  0  0  0  0  0
    0.4122   -5.1987   -2.2635 C   0  0  0  0  0  0  0  0  0  0  0  0
    1.3285   -4.9164   -3.2233 N   0  0  0  0  0  0  0  0  0  0  0  0
    3.4153   -4.2605   -5.0134 C   0  0  0  0  0  0  0  0  0  0  0  0
    4.1446   -4.8351   -5.9875 C   0  0  0  0  0  0  0  0  0  0  0  0
    3.6214   -5.3376   -7.2646 C   0  0  0  0  0  0  0  0  0  0  0  0
    2.4515   -5.1890   -7.7099 O   0  0  0  0  0  0  0  0  0  0  0  0
    4.6410   -6.1554   -7.8840 C   0  0  0  0  0  0  0  0  0  0  0  0
    4.5420   -6.9010   -9.0574 C   0  0  0  0  0  0  0  0  0  0  0  0
    5.6215   -7.7211   -9.4268 C   0  0  0  0  0  0  0  0  0  0  0  0
    5.5659   -8.4873  -10.6009 C   0  0  0  0  0  0  0  0  0  0  0  0
    6.6368   -9.3161  -10.9489 C   0  0  0  0  0  0  0  0  0  0  0  0
    7.7682   -9.3888  -10.1310 C   0  0  0  0  0  0  0  0  0  0  0  0
    8.8010  -10.1964  -10.4761 F   0  0  0  0  0  0  0  0  0  0  0  0
    7.8370   -8.6334   -8.9567 C   0  0  0  0  0  0  0  0  0  0  0  0
    6.7728   -7.7938   -8.5924 C   0  0  0  0  0  0  0  0  0  0  0  0
    6.8351   -7.0346   -7.4069 C   0  0  0  0  0  0  0  0  0  0  0  0
    5.7652   -6.1872   -7.0782 C   0  0  0  0  0  0  0  0  0  0  0  0
    5.5642   -5.2984   -5.8974 C   0  0  0  0  0  0  0  0  0  0  0  0
    6.5313   -4.8086   -5.0751 C   0  0  0  0  0  0  0  0  0  0  0  0
    6.2725   -3.7870   -4.0928 C   0  0  0  0  0  0  0  0  0  0  0  0
    6.0765   -2.9654   -3.3012 N   0  0  0  0  0  0  0  0  0  0  0  0
    7.9196   -5.1645   -5.2102 C   0  0  0  0  0  0  0  0  0  0  0  0
    9.0405   -5.4324   -5.3108 N   0  0  0  0  0  0  0  0  0  0  0  0
    5.0549    4.4580    8.5286 H   0  0  0  0  0  0  0  0  0  0  0  0
    2.2472    9.1569    5.4882 H   0  0  0  0  0  0  0  0  0  0  0  0
    2.1789   11.6006    5.0556 H   0  0  0  0  0  0  0  0  0  0  0  0
    3.2294   13.8224    5.2393 H   0  0  0  0  0  0  0  0  0  0  0  0
    6.6834   12.0996    7.1103 H   0  0  0  0  0  0  0  0  0  0  0  0
    6.7463    9.6953    7.5714 H   0  0  0  0  0  0  0  0  0  0  0  0
    2.1278    0.2488    6.7309 H   0  0  0  0  0  0  0  0  0  0  0  0
    0.6475   -0.6510    7.1901 H   0  0  0  0  0  0  0  0  0  0  0  0
    1.5541   -0.9935    9.5025 H   0  0  0  0  0  0  0  0  0  0  0  0
    3.0715   -0.1298    9.0197 H   0  0  0  0  0  0  0  0  0  0  0  0
    2.6282   -1.6891    8.2285 H   0  0  0  0  0  0  0  0  0  0  0  0
    3.6617    2.1116    7.8425 H   0  0  0  0  0  0  0  0  0  0  0  0
   -1.6035   -0.0658    7.3991 H   0  0  0  0  0  0  0  0  0  0  0  0
   -4.1703   -0.5380    7.4210 H   0  0  0  0  0  0  0  0  0  0  0  0
   -7.4383   -1.5804    2.3757 H   0  0  0  0  0  0  0  0  0  0  0  0
   -7.1839    4.2909    0.8966 H   0  0  0  0  0  0  0  0  0  0  0  0
   -8.4816    3.1957    0.3683 H   0  0  0  0  0  0  0  0  0  0  0  0
   -6.4971    4.6031   -1.5282 H   0  0  0  0  0  0  0  0  0  0  0  0
   -7.8845    3.5329   -2.0095 H   0  0  0  0  0  0  0  0  0  0  0  0
   -8.1839    5.0964   -1.1815 H   0  0  0  0  0  0  0  0  0  0  0  0
   -4.3860    1.7147   -0.0599 H   0  0  0  0  0  0  0  0  0  0  0  0
   -4.8680    3.0680   -1.0978 H   0  0  0  0  0  0  0  0  0  0  0  0
   -3.3487    3.9988    0.3851 H   0  0  0  0  0  0  0  0  0  0  0  0
   -4.0181    3.1777    1.8110 H   0  0  0  0  0  0  0  0  0  0  0  0
   -4.9283    4.5536    1.0302 H   0  0  0  0  0  0  0  0  0  0  0  0
   -5.9516    3.1741    2.9642 H   0  0  0  0  0  0  0  0  0  0  0  0
   -8.7818   -2.2140    0.0918 H   0  0  0  0  0  0  0  0  0  0  0  0
   -9.1956   -1.1504   -1.2863 H   0  0  0  0  0  0  0  0  0  0  0  0
   -7.7793   -3.8864   -1.5274 H   0  0  0  0  0  0  0  0  0  0  0  0
   -9.5086   -3.5437   -1.8251 H   0  0  0  0  0  0  0  0  0  0  0  0
   -8.2725   -2.8013   -2.8958 H   0  0  0  0  0  0  0  0  0  0  0  0
   -6.3402   -2.6145    0.7430 H   0  0  0  0  0  0  0  0  0  0  0  0
   -5.7975   -3.0057   -0.8885 H   0  0  0  0  0  0  0  0  0  0  0  0
   -4.2148   -1.0203   -0.8527 H   0  0  0  0  0  0  0  0  0  0  0  0
   -3.8912   -2.2779    0.3891 H   0  0  0  0  0  0  0  0  0  0  0  0
   -4.6816   -0.7454    0.8711 H   0  0  0  0  0  0  0  0  0  0  0  0
   -5.8388   -2.3774   -3.1227 H   0  0  0  0  0  0  0  0  0  0  0  0
   -5.8508    2.6217   -2.9750 H   0  0  0  0  0  0  0  0  0  0  0  0
   -1.2172    0.2167   -5.8821 H   0  0  0  0  0  0  0  0  0  0  0  0
    1.3417   -2.0349   -8.9674 H   0  0  0  0  0  0  0  0  0  0  0  0
   -0.3638   -2.6249   -8.9600 H   0  0  0  0  0  0  0  0  0  0  0  0
   -0.0303   -0.8823  -10.6936 H   0  0  0  0  0  0  0  0  0  0  0  0
   -1.1485   -0.2816   -9.4054 H   0  0  0  0  0  0  0  0  0  0  0  0
    0.5738    0.2736   -9.4404 H   0  0  0  0  0  0  0  0  0  0  0  0
    3.9086   -0.8439   -7.9054 H   0  0  0  0  0  0  0  0  0  0  0  0
    2.4563   -0.2775   -7.0057 H   0  0  0  0  0  0  0  0  0  0  0  0
    4.5467    0.2520   -5.7624 H   0  0  0  0  0  0  0  0  0  0  0  0
    5.0180   -1.4946   -5.7773 H   0  0  0  0  0  0  0  0  0  0  0  0
    3.5672   -0.9529   -4.8410 H   0  0  0  0  0  0  0  0  0  0  0  0
   -1.5769   -4.7875   -1.5488 H   0  0  0  0  0  0  0  0  0  0  0  0
    0.6567   -5.8865   -1.4670 H   0  0  0  0  0  0  0  0  0  0  0  0
    3.8119   -4.2067   -4.0123 H   0  0  0  0  0  0  0  0  0  0  0  0
    3.6409   -6.8566   -9.6585 H   0  0  0  0  0  0  0  0  0  0  0  0
    4.6963   -8.4474  -11.2452 H   0  0  0  0  0  0  0  0  0  0  0  0
    6.5863   -9.9072  -11.8550 H   0  0  0  0  0  0  0  0  0  0  0  0
    8.7221   -8.7037   -8.3333 H   0  0  0  0  0  0  0  0  0  0  0  0
    7.6869   -7.1469   -6.7570 H   0  0  0  0  0  0  0  0  0  0  0  0
  1  2  2  3
  2  3  1  0
  3  4  2  0
  3  5  1  0
  5  6  2  0
  6  7  1  0
  7  8  2  0
  8  9  1  0
  9 10  2  0
 10 11  1  0
 10 12  1  0
 12 13  2  0
 13 14  1  0
 14 15  2  0
 15 16  1  0
 16 17  2  3
 17 18  1  0
 18 19  3  0
 17 20  1  0
 20 21  3  0
  1 22  1  0
 22 23  1  0
 23 24  1  0
 24 25  1  0
 25 26  2  0
 26 27  1  0
 27 28  1  0
 28 29  1  0
 27 30  1  0
 30 31  1  0
 26 32  1  0
 32 33  2  0
 33 34  1  0
 33 35  1  0
 35 36  2  0
 36 37  1  0
 37 38  1  0
 38 39  1  0
 39 40  2  0
 40 41  1  0
 41 42  1  0
 42 43  2  0
 43 44  1  0
 44 45  1  0
 45 46  1  0
 44 47  1  0
 47 48  1  0
 44 49  1  0
 49 50  1  0
 50 51  2  0
 51 52  1  0
 52 53  1  0
 43 54  1  0
 54 55  2  0
 55 56  1  0
 56 57  1  0
 57 58  1  0
 56 59  1  0
 59 60  1  0
 55 61  1  0
 61 62  2  0
 62 63  1  0
 63 64  2  0
 63 65  1  0
 65 66  1  0
 66 67  1  0
 67 68  2  0
 68 69  1  0
 69 70  1  0
 68 71  1  0
 71 72  2  0
 72 73  1  0
 73 74  1  0
 74 75  1  0
 72 76  1  0
 76 77  1  0
 77 78  1  0
 78 79  1  0
 76 80  2  0
 80 81  1  0
 81 82  2  0
 82 83  1  0
 83 84  2  0
 84 85  1  0
 85 86  2  0
 80 87  1  0
 87 88  2  3
 88 89  1  0
 89 90  2  0
 89 91  1  0
 91 92  2  0
 92 93  1  0
 93 94  2  0
 94 95  1  0
 95 96  2  0
 96 97  1  0
 96 98  1  0
 98 99  2  0
 99100  1  0
100101  2  0
101102  1  0
102103  2  3
103104  1  0
104105  3  0
103106  1  0
106107  3  0
 16  2  1  0
 31 22  2  0
 53 35  1  0
 64 54  1  0
 70 66  2  0
 82 71  1  0
102 88  1  0
 15  5  1  0
 30 24  2  0
 52 37  2  0
 70 62  1  0
 86 81  1  0
101 91  1  0
 13  7  1  0
 34 25  1  0
 51 39  1  0
 99 93  1  0
 49 41  2  0
 56 42  1  0
  1108  1  0
  6109  1  0
  8110  1  0
  9111  1  0
 12112  1  0
 14113  1  0
 28114  1  0
 28115  1  0
 29116  1  0
 29117  1  0
 29118  1  0
 31119  1  0
 32120  1  0
 36121  1  0
 40122  1  0
 45123  1  0
 45124  1  0
 46125  1  0
 46126  1  0
 46127  1  0
 47128  1  0
 47129  1  0
 48130  1  0
 48131  1  0
 48132  1  0
 50133  1  0
 57134  1  0
 57135  1  0
 58136  1  0
 58137  1  0
 58138  1  0
 59139  1  0
 59140  1  0
 60141  1  0
 60142  1  0
 60143  1  0
 61144  1  0
 64145  1  0
 67146  1  0
 74147  1  0
 74148  1  0
 75149  1  0
 75150  1  0
 75151  1  0
 78152  1  0
 78153  1  0
 79154  1  0
 79155  1  0
 79156  1  0
 84157  1  0
 85158  1  0
 87159  1  0
 92160  1  0
 94161  1  0
 95162  1  0
 98163  1  0
100164  1  0
M  END

