
     RDKit          3D

191214  0  0  0  0  0  0  0  0999 V2000
   12.2431   -8.1397    4.3992 C   0  0  0  0  0  0  0  0  0  0  0  0
   11.0269   -8.7055    4.3887 C   0  0  0  0  0  0  0  0  0  0  0  0
   10.5781   -9.5931    5.4593 C   0  0  0  0  0  0  0  0  0  0  0  0
   11.3205  -10.3094    6.1855 O   0  0  0  0  0  0  0  0  0  0  0  0
    9.1583   -9.3642    5.6667 C   0  0  0  0  0  0  0  0  0  0  0  0
    8.3440   -9.8281    6.7015 C   0  0  0  0  0  0  0  0  0  0  0  0
    7.0127   -9.3757    6.7658 C   0  0  0  0  0  0  0  0  0  0  0  0
    6.1630   -9.7937    7.8046 C   0  0  0  0  0  0  0  0  0  0  0  0
    4.8459   -9.3349    7.8628 C   0  0  0  0  0  0  0  0  0  0  0  0
    4.3619   -8.4555    6.8900 C   0  0  0  0  0  0  0  0  0  0  0  0
    3.0826   -8.0144    6.9570 F   0  0  0  0  0  0  0  0  0  0  0  0
    5.1969   -8.0133    5.8610 C   0  0  0  0  0  0  0  0  0  0  0  0
    6.5266   -8.4603    5.7876 C   0  0  0  0  0  0  0  0  0  0  0  0
    7.3762   -7.9980    4.7641 C   0  0  0  0  0  0  0  0  0  0  0  0
    8.6941   -8.4742    4.7115 C   0  0  0  0  0  0  0  0  0  0  0  0
    9.7959   -8.1363    3.7766 C   0  0  0  0  0  0  0  0  0  0  0  0
    9.6680   -7.7663    2.4824 C   0  0  0  0  0  0  0  0  0  0  0  0
   10.7338   -7.9946    1.5403 C   0  0  0  0  0  0  0  0  0  0  0  0
   11.5822   -8.1973    0.7772 N   0  0  0  0  0  0  0  0  0  0  0  0
    8.4107   -7.3551    1.9112 C   0  0  0  0  0  0  0  0  0  0  0  0
    7.4066   -7.0281    1.4351 N   0  0  0  0  0  0  0  0  0  0  0  0
   12.4116   -6.7106    4.1097 C   0  0  0  0  0  0  0  0  0  0  0  0
   13.0487   -6.0612    2.6653 S   0  0  0  0  0  0  0  0  0  0  0  0
   12.6414   -4.4890    3.0763 C   0  0  0  0  0  0  0  0  0  0  0  0
   12.1912   -3.4068    2.3664 C   0  0  0  0  0  0  0  0  0  0  0  0
   11.3014   -2.7561    3.1753 C   0  0  0  0  0  0  0  0  0  0  0  0
   11.1846   -3.3635    4.3866 N   0  0  0  0  0  0  0  0  0  0  0  0
   10.1510   -3.1376    5.4001 C   0  0  0  0  0  0  0  0  0  0  0  0
   10.7958   -2.8610    6.7530 C   0  0  0  0  0  0  0  0  0  0  0  0
   11.9860   -4.4556    4.2738 C   0  0  0  0  0  0  0  0  0  0  0  0
   11.8445   -5.6957    4.8908 C   0  0  0  0  0  0  0  0  0  0  0  0
   10.3535   -1.9895    2.4965 C   0  0  0  0  0  0  0  0  0  0  0  0
   10.5182   -2.0904    1.1082 C   0  0  0  0  0  0  0  0  0  0  0  0
   11.7886   -3.1826    0.7588 S   0  0  0  0  0  0  0  0  0  0  0  0
    9.5152   -1.6466    0.1204 C   0  0  0  0  0  0  0  0  0  0  0  0
    9.7026   -1.5462   -1.2803 C   0  0  0  0  0  0  0  0  0  0  0  0
   11.0177   -1.4798   -1.9634 C   0  0  0  0  0  0  0  0  0  0  0  0
   11.2309   -2.1342   -3.1894 C   0  0  0  0  0  0  0  0  0  0  0  0
   12.4544   -2.0078   -3.8556 C   0  0  0  0  0  0  0  0  0  0  0  0
   13.4868   -1.2552   -3.2908 C   0  0  0  0  0  0  0  0  0  0  0  0
   13.3075   -0.6318   -2.0446 C   0  0  0  0  0  0  0  0  0  0  0  0
   14.4330    0.1379   -1.4091 C   0  0  0  0  0  0  0  0  0  0  0  0
   14.2742    1.6392   -1.6299 C   0  0  0  0  0  0  0  0  0  0  0  0
   12.0614   -0.7213   -1.4050 C   0  0  0  0  0  0  0  0  0  0  0  0
    8.4668   -1.4256   -1.9303 C   0  0  0  0  0  0  0  0  0  0  0  0
    7.9875   -1.3854   -3.5748 S   0  0  0  0  0  0  0  0  0  0  0  0
    6.3515   -1.3453   -3.1249 C   0  0  0  0  0  0  0  0  0  0  0  0
    5.1176   -1.2377   -3.6944 C   0  0  0  0  0  0  0  0  0  0  0  0
    4.7163   -1.1115   -5.0301 C   0  0  0  0  0  0  0  0  0  0  0  0
    3.3339   -0.9105   -5.3102 C   0  0  0  0  0  0  0  0  0  0  0  0
    2.9778   -0.7918   -6.6129 N   0  0  0  0  0  0  0  0  0  0  0  0
    4.4694   -0.9493   -7.3209 S   0  0  0  0  0  0  0  0  0  0  0  0
    5.5605   -1.1603   -6.0912 N   0  0  0  0  0  0  0  0  0  0  0  0
    2.4354   -0.8730   -4.2413 C   0  0  0  0  0  0  0  0  0  0  0  0
    1.0773   -0.7819   -4.2017 C   0  0  0  0  0  0  0  0  0  0  0  0
   -0.2391   -0.6604   -5.2627 S   0  0  0  0  0  0  0  0  0  0  0  0
   -1.3257   -0.7375   -3.9458 C   0  0  0  0  0  0  0  0  0  0  0  0
   -2.7012   -0.5481   -3.8408 C   0  0  0  0  0  0  0  0  0  0  0  0
   -3.5793   -0.4065   -5.0167 C   0  0  0  0  0  0  0  0  0  0  0  0
   -3.4280    0.6742   -5.8957 C   0  0  0  0  0  0  0  0  0  0  0  0
   -4.2163    0.7576   -7.0469 C   0  0  0  0  0  0  0  0  0  0  0  0
   -5.1575   -0.2349   -7.3302 C   0  0  0  0  0  0  0  0  0  0  0  0
   -5.3216   -1.3240   -6.4557 C   0  0  0  0  0  0  0  0  0  0  0  0
   -6.3573   -2.3837   -6.7292 C   0  0  0  0  0  0  0  0  0  0  0  0
   -5.7150   -3.7214   -7.0865 C   0  0  0  0  0  0  0  0  0  0  0  0
   -4.5101   -1.4125   -5.3119 C   0  0  0  0  0  0  0  0  0  0  0  0
   -3.0998   -0.4668   -2.4866 C   0  0  0  0  0  0  0  0  0  0  0  0
   -1.7336   -0.6920   -1.4763 S   0  0  0  0  0  0  0  0  0  0  0  0
   -0.6688   -0.8869   -2.7526 C   0  0  0  0  0  0  0  0  0  0  0  0
    0.7064   -0.9162   -2.9078 C   0  0  0  0  0  0  0  0  0  0  0  0
    1.7441   -1.1771   -2.0753 N   0  0  0  0  0  0  0  0  0  0  0  0
    2.8324   -1.0474   -2.9050 C   0  0  0  0  0  0  0  0  0  0  0  0
    4.2159   -1.1577   -2.6198 C   0  0  0  0  0  0  0  0  0  0  0  0
    4.8854   -1.1141   -1.4193 N   0  0  0  0  0  0  0  0  0  0  0  0
    6.1785   -1.3026   -1.7856 C   0  0  0  0  0  0  0  0  0  0  0  0
    7.3801   -1.3551   -1.0991 C   0  0  0  0  0  0  0  0  0  0  0  0
    7.8525   -1.5026    0.4977 S   0  0  0  0  0  0  0  0  0  0  0  0
    4.4630   -0.4499   -0.1755 C   0  0  0  0  0  0  0  0  0  0  0  0
    5.0706    0.9480   -0.0556 C   0  0  0  0  0  0  0  0  0  0  0  0
    1.6357   -2.0680   -0.9090 C   0  0  0  0  0  0  0  0  0  0  0  0
    1.0502   -3.4301   -1.2987 C   0  0  0  0  0  0  0  0  0  0  0  0
   -4.3345    0.1838   -2.0089 C   0  0  0  0  0  0  0  0  0  0  0  0
   -5.6090    0.0698   -2.5616 C   0  0  0  0  0  0  0  0  0  0  0  0
   -6.5011    1.0461   -2.0938 C   0  0  0  0  0  0  0  0  0  0  0  0
   -7.8190    1.2427   -2.5448 C   0  0  0  0  0  0  0  0  0  0  0  0
   -8.4005    0.4289   -3.6181 C   0  0  0  0  0  0  0  0  0  0  0  0
   -9.4357   -0.8717   -3.3879 S   0  0  0  0  0  0  0  0  0  0  0  0
   -9.7285   -1.1584   -5.0252 C   0  0  0  0  0  0  0  0  0  0  0  0
  -10.6546   -2.1947   -5.6011 C   0  0  0  0  0  0  0  0  0  0  0  0
  -11.1098   -3.2353   -4.5764 C   0  0  0  0  0  0  0  0  0  0  0  0
   -9.0311   -0.2043   -5.7689 C   0  0  0  0  0  0  0  0  0  0  0  0
   -9.1302   -0.0786   -7.5225 Cl  0  0  0  0  0  0  0  0  0  0  0  0
   -8.2803    0.6796   -4.9808 C   0  0  0  0  0  0  0  0  0  0  0  0
   -7.3420    2.0138   -5.6340 Cl  0  0  0  0  0  0  0  0  0  0  0  0
   -8.5140    2.3424   -2.0267 C   0  0  0  0  0  0  0  0  0  0  0  0
   -7.9475    3.2266   -1.1016 C   0  0  0  0  0  0  0  0  0  0  0  0
   -6.6262    3.0298   -0.6428 C   0  0  0  0  0  0  0  0  0  0  0  0
   -5.9482    4.0088    0.2265 C   0  0  0  0  0  0  0  0  0  0  0  0
   -4.6199    4.9269   -0.2423 S   0  0  0  0  0  0  0  0  0  0  0  0
   -4.5056    5.8145    1.1818 C   0  0  0  0  0  0  0  0  0  0  0  0
   -3.5347    6.9336    1.3985 C   0  0  0  0  0  0  0  0  0  0  0  0
   -4.1307    8.2550    0.9290 C   0  0  0  0  0  0  0  0  0  0  0  0
   -5.5279    5.4135    2.0419 C   0  0  0  0  0  0  0  0  0  0  0  0
   -6.3326    4.3953    1.5087 C   0  0  0  0  0  0  0  0  0  0  0  0
   -7.6682    3.6588    2.3911 Cl  0  0  0  0  0  0  0  0  0  0  0  0
   -5.8021    6.1331    3.6237 Cl  0  0  0  0  0  0  0  0  0  0  0  0
   -5.9329    1.9240   -1.1670 C   0  0  0  0  0  0  0  0  0  0  0  0
   -4.3299    1.4800   -0.9226 S   0  0  0  0  0  0  0  0  0  0  0  0
   -8.7764    4.3281   -0.8186 C   0  0  0  0  0  0  0  0  0  0  0  0
   -9.9927    4.2785   -1.5026 C   0  0  0  0  0  0  0  0  0  0  0  0
  -10.0292    2.9117   -2.4897 S   0  0  0  0  0  0  0  0  0  0  0  0
  -10.9906    5.3517   -1.5580 C   0  0  0  0  0  0  0  0  0  0  0  0
  -11.5355    5.9327   -0.4722 C   0  0  0  0  0  0  0  0  0  0  0  0
  -11.4707    5.4223    0.9064 C   0  0  0  0  0  0  0  0  0  0  0  0
  -10.7298    4.4975    1.3281 O   0  0  0  0  0  0  0  0  0  0  0  0
  -12.5039    6.0776    1.6851 C   0  0  0  0  0  0  0  0  0  0  0  0
  -12.9331    5.7731    2.9780 C   0  0  0  0  0  0  0  0  0  0  0  0
  -14.1172    6.3713    3.4504 C   0  0  0  0  0  0  0  0  0  0  0  0
  -14.6045    6.0711    4.7372 C   0  0  0  0  0  0  0  0  0  0  0  0
  -15.8229    6.6078    5.1678 C   0  0  0  0  0  0  0  0  0  0  0  0
  -16.5646    7.4369    4.3256 C   0  0  0  0  0  0  0  0  0  0  0  0
  -17.7608    7.9215    4.7351 F   0  0  0  0  0  0  0  0  0  0  0  0
  -16.0840    7.7593    3.0515 C   0  0  0  0  0  0  0  0  0  0  0  0
  -14.8608    7.2406    2.6049 C   0  0  0  0  0  0  0  0  0  0  0  0
  -14.3870    7.5424    1.3153 C   0  0  0  0  0  0  0  0  0  0  0  0
  -13.1805    6.9779    0.8824 C   0  0  0  0  0  0  0  0  0  0  0  0
  -12.5445    7.0351   -0.4581 C   0  0  0  0  0  0  0  0  0  0  0  0
  -12.6324    8.0703   -1.3313 C   0  0  0  0  0  0  0  0  0  0  0  0
  -13.3181    9.2847   -0.9874 C   0  0  0  0  0  0  0  0  0  0  0  0
  -13.8771   10.2638   -0.7214 N   0  0  0  0  0  0  0  0  0  0  0  0
  -11.9389    8.0909   -2.5918 C   0  0  0  0  0  0  0  0  0  0  0  0
  -11.3946    8.1203   -3.6136 N   0  0  0  0  0  0  0  0  0  0  0  0
   13.0174   -8.5884    5.0069 H   0  0  0  0  0  0  0  0  0  0  0  0
    8.7485  -10.5049    7.4435 H   0  0  0  0  0  0  0  0  0  0  0  0
    6.5202  -10.4769    8.5711 H   0  0  0  0  0  0  0  0  0  0  0  0
    4.1937   -9.6660    8.6609 H   0  0  0  0  0  0  0  0  0  0  0  0
    4.8058   -7.3340    5.1121 H   0  0  0  0  0  0  0  0  0  0  0  0
    7.0212   -7.2520    4.0660 H   0  0  0  0  0  0  0  0  0  0  0  0
    9.5235   -2.2628    5.1315 H   0  0  0  0  0  0  0  0  0  0  0  0
    9.4876   -4.0282    5.4649 H   0  0  0  0  0  0  0  0  0  0  0  0
   11.4704   -1.9797    6.6846 H   0  0  0  0  0  0  0  0  0  0  0  0
   10.0108   -2.6482    7.5097 H   0  0  0  0  0  0  0  0  0  0  0  0
   11.3833   -3.7382    7.0943 H   0  0  0  0  0  0  0  0  0  0  0  0
   11.2325   -5.8804    5.7630 H   0  0  0  0  0  0  0  0  0  0  0  0
    9.5051   -1.5105    2.9630 H   0  0  0  0  0  0  0  0  0  0  0  0
   10.4604   -2.7508   -3.6289 H   0  0  0  0  0  0  0  0  0  0  0  0
   12.6037   -2.4953   -4.8092 H   0  0  0  0  0  0  0  0  0  0  0  0
   14.4299   -1.1644   -3.8163 H   0  0  0  0  0  0  0  0  0  0  0  0
   15.4123   -0.1907   -1.8214 H   0  0  0  0  0  0  0  0  0  0  0  0
   14.4566   -0.0700   -0.3177 H   0  0  0  0  0  0  0  0  0  0  0  0
   13.3130    1.9924   -1.1996 H   0  0  0  0  0  0  0  0  0  0  0  0
   15.1046    2.1736   -1.1243 H   0  0  0  0  0  0  0  0  0  0  0  0
   14.3040    1.8739   -2.7156 H   0  0  0  0  0  0  0  0  0  0  0  0
   11.9086   -0.1979   -0.4702 H   0  0  0  0  0  0  0  0  0  0  0  0
   -2.7007    1.4520   -5.6868 H   0  0  0  0  0  0  0  0  0  0  0  0
   -4.0987    1.5998   -7.7163 H   0  0  0  0  0  0  0  0  0  0  0  0
   -5.7622   -0.1515   -8.2227 H   0  0  0  0  0  0  0  0  0  0  0  0
   -6.9945   -2.5134   -5.8302 H   0  0  0  0  0  0  0  0  0  0  0  0
   -7.0251   -2.0794   -7.5650 H   0  0  0  0  0  0  0  0  0  0  0  0
   -5.0577   -4.0748   -6.2601 H   0  0  0  0  0  0  0  0  0  0  0  0
   -6.5092   -4.4813   -7.2542 H   0  0  0  0  0  0  0  0  0  0  0  0
   -5.1130   -3.6200   -8.0158 H   0  0  0  0  0  0  0  0  0  0  0  0
   -4.6148   -2.2590   -4.6423 H   0  0  0  0  0  0  0  0  0  0  0  0
    3.3688   -0.2932   -0.1517 H   0  0  0  0  0  0  0  0  0  0  0  0
    4.7607   -1.0660    0.6983 H   0  0  0  0  0  0  0  0  0  0  0  0
    6.1760    0.9041   -0.0042 H   0  0  0  0  0  0  0  0  0  0  0  0
    4.7011    1.4305    0.8723 H   0  0  0  0  0  0  0  0  0  0  0  0
    4.7663    1.5734   -0.9249 H   0  0  0  0  0  0  0  0  0  0  0  0
    2.6303   -2.2898   -0.4806 H   0  0  0  0  0  0  0  0  0  0  0  0
    0.9981   -1.5932   -0.1326 H   0  0  0  0  0  0  0  0  0  0  0  0
    1.5811   -3.8327   -2.1876 H   0  0  0  0  0  0  0  0  0  0  0  0
   -0.0296   -3.3408   -1.5284 H   0  0  0  0  0  0  0  0  0  0  0  0
    1.1723   -4.1428   -0.4559 H   0  0  0  0  0  0  0  0  0  0  0  0
   -5.8894   -0.6722   -3.2911 H   0  0  0  0  0  0  0  0  0  0  0  0
  -10.1340   -2.7217   -6.4267 H   0  0  0  0  0  0  0  0  0  0  0  0
  -11.5471   -1.6835   -6.0249 H   0  0  0  0  0  0  0  0  0  0  0  0
  -10.2318   -3.7362   -4.1165 H   0  0  0  0  0  0  0  0  0  0  0  0
  -11.7176   -2.7571   -3.7810 H   0  0  0  0  0  0  0  0  0  0  0  0
  -11.7312   -4.0020   -5.0806 H   0  0  0  0  0  0  0  0  0  0  0  0
   -2.6045    6.7266    0.8298 H   0  0  0  0  0  0  0  0  0  0  0  0
   -3.2668    7.0055    2.4765 H   0  0  0  0  0  0  0  0  0  0  0  0
   -3.3827    9.0672    1.0476 H   0  0  0  0  0  0  0  0  0  0  0  0
   -5.0330    8.5081    1.5262 H   0  0  0  0  0  0  0  0  0  0  0  0
   -4.4121    8.1875   -0.1453 H   0  0  0  0  0  0  0  0  0  0  0  0
   -8.4805    5.1606   -0.1972 H   0  0  0  0  0  0  0  0  0  0  0  0
  -11.3275    5.6280   -2.5457 H   0  0  0  0  0  0  0  0  0  0  0  0
  -12.3855    5.0503    3.5760 H   0  0  0  0  0  0  0  0  0  0  0  0
  -14.0474    5.4165    5.4007 H   0  0  0  0  0  0  0  0  0  0  0  0
  -16.1940    6.3701    6.1549 H   0  0  0  0  0  0  0  0  0  0  0  0
  -16.6718    8.4097    2.4133 H   0  0  0  0  0  0  0  0  0  0  0  0
  -14.9875    8.1419    0.6479 H   0  0  0  0  0  0  0  0  0  0  0  0
  1  2  2  3
  2  3  1  0
  3  4  2  0
  3  5  1  0
  5  6  2  0
  6  7  1  0
  7  8  2  0
  8  9  1  0
  9 10  2  0
 10 11  1  0
 10 12  1  0
 12 13  2  0
 13 14  1  0
 14 15  2  0
 15 16  1  0
 16 17  2  3
 17 18  1  0
 18 19  3  0
 17 20  1  0
 20 21  3  0
  1 22  1  0
 22 23  1  0
 23 24  1  0
 24 25  1  0
 25 26  2  0
 26 27  1  0
 27 28  1  0
 28 29  1  0
 27 30  1  0
 30 31  1  0
 26 32  1  0
 32 33  2  0
 33 34  1  0
 33 35  1  0
 35 36  2  0
 36 37  1  0
 37 38  2  0
 38 39  1  0
 39 40  2  0
 40 41  1  0
 41 42  1  0
 42 43  1  0
 41 44  2  0
 36 45  1  0
 45 46  1  0
 46 47  1  0
 47 48  1  0
 48 49  1  0
 49 50  1  0
 50 51  2  0
 51 52  1  0
 52 53  1  0
 50 54  1  0
 54 55  1  0
 55 56  1  0
 56 57  1  0
 57 58  1  0
 58 59  1  0
 59 60  2  0
 60 61  1  0
 61 62  2  0
 62 63  1  0
 63 64  1  0
 64 65  1  0
 63 66  2  0
 58 67  2  0
 67 68  1  0
 68 69  1  0
 69 70  1  0
 70 71  1  0
 71 72  1  0
 72 73  1  0
 73 74  1  0
 74 75  1  0
 75 76  1  0
 76 77  1  0
 74 78  1  0
 78 79  1  0
 71 80  1  0
 80 81  1  0
 67 82  1  0
 82 83  2  0
 83 84  1  0
 84 85  2  0
 85 86  1  0
 86 87  1  0
 87 88  1  0
 88 89  1  0
 89 90  1  0
 88 91  2  0
 91 92  1  0
 91 93  1  0
 93 94  1  0
 85 95  1  0
 95 96  2  0
 96 97  1  0
 97 98  1  0
 98 99  1  0
 99100  1  0
100101  1  0
101102  1  0
100103  2  0
103104  1  0
104105  1  0
103106  1  0
 97107  2  0
107108  1  0
 96109  1  0
109110  2  0
110111  1  0
110112  1  0
112113  2  3
113114  1  0
114115  2  0
114116  1  0
116117  2  0
117118  1  0
118119  2  0
119120  1  0
120121  2  0
121122  1  0
121123  1  0
123124  2  0
124125  1  0
125126  2  0
126127  1  0
127128  2  3
128129  1  0
129130  3  0
128131  1  0
131132  3  0
 16  2  1  0
 31 22  2  0
 77 35  1  0
108 82  1  0
127113  1  0
 15  5  1  0
 30 24  2  0
 44 37  1  0
 76 45  2  0
107 84  1  0
126116  1  0
 13  7  1  0
 34 25  1  0
 75 47  2  0
 93 86  2  0
111 95  1  0
124118  1  0
 73 48  2  0
104 98  2  0
 53 49  2  0
 72 54  2  0
 70 55  2  0
 69 57  2  0
 66 59  1  0
  1133  1  0
  6134  1  0
  8135  1  0
  9136  1  0
 12137  1  0
 14138  1  0
 28139  1  0
 28140  1  0
 29141  1  0
 29142  1  0
 29143  1  0
 31144  1  0
 32145  1  0
 38146  1  0
 39147  1  0
 40148  1  0
 42149  1  0
 42150  1  0
 43151  1  0
 43152  1  0
 43153  1  0
 44154  1  0
 60155  1  0
 61156  1  0
 62157  1  0
 64158  1  0
 64159  1  0
 65160  1  0
 65161  1  0
 65162  1  0
 66163  1  0
 78164  1  0
 78165  1  0
 79166  1  0
 79167  1  0
 79168  1  0
 80169  1  0
 80170  1  0
 81171  1  0
 81172  1  0
 81173  1  0
 83174  1  0
 89175  1  0
 89176  1  0
 90177  1  0
 90178  1  0
 90179  1  0
101180  1  0
101181  1  0
102182  1  0
102183  1  0
102184  1  0
109185  1  0
112186  1  0
117187  1  0
119188  1  0
120189  1  0
123190  1  0
125191  1  0
M  END

