
     RDKit          3D

202225  0  0  0  0  0  0  0  0999 V2000
    0.5194    8.1843    1.5489 C   0  0  0  0  0  0  0  0  0  0  0  0
   -0.4769    7.8966    0.6862 C   0  0  0  0  0  0  0  0  0  0  0  0
   -0.4623    6.8290   -0.3240 C   0  0  0  0  0  0  0  0  0  0  0  0
    0.3267    5.8493   -0.3623 O   0  0  0  0  0  0  0  0  0  0  0  0
   -1.5344    7.0740   -1.2654 C   0  0  0  0  0  0  0  0  0  0  0  0
   -1.8288    6.3782   -2.4375 C   0  0  0  0  0  0  0  0  0  0  0  0
   -2.8361    6.8812   -3.2808 C   0  0  0  0  0  0  0  0  0  0  0  0
   -3.1687    6.2120   -4.4682 C   0  0  0  0  0  0  0  0  0  0  0  0
   -4.1531    6.7325   -5.3131 C   0  0  0  0  0  0  0  0  0  0  0  0
   -4.8038    7.9250   -4.9872 C   0  0  0  0  0  0  0  0  0  0  0  0
   -5.7460    8.4286   -5.8235 F   0  0  0  0  0  0  0  0  0  0  0  0
   -4.4887    8.5991   -3.8049 C   0  0  0  0  0  0  0  0  0  0  0  0
   -3.5026    8.0903   -2.9417 C   0  0  0  0  0  0  0  0  0  0  0  0
   -3.1977    8.7539   -1.7350 C   0  0  0  0  0  0  0  0  0  0  0  0
   -2.2356    8.2012   -0.8790 C   0  0  0  0  0  0  0  0  0  0  0  0
   -1.7210    8.6863    0.4338 C   0  0  0  0  0  0  0  0  0  0  0  0
   -2.4060    9.4477    1.3228 C   0  0  0  0  0  0  0  0  0  0  0  0
   -1.9308    9.6964    2.6580 C   0  0  0  0  0  0  0  0  0  0  0  0
   -1.5645    9.8952    3.7381 N   0  0  0  0  0  0  0  0  0  0  0  0
   -3.7353    9.9309    1.0468 C   0  0  0  0  0  0  0  0  0  0  0  0
   -4.8081   10.3111    0.8417 N   0  0  0  0  0  0  0  0  0  0  0  0
    1.8020    7.4675    1.5373 C   0  0  0  0  0  0  0  0  0  0  0  0
    2.9470    7.5632    0.2755 S   0  0  0  0  0  0  0  0  0  0  0  0
    3.9476    6.4097    0.9629 C   0  0  0  0  0  0  0  0  0  0  0  0
    4.7408    5.4293    0.4265 C   0  0  0  0  0  0  0  0  0  0  0  0
    4.6010    4.3394    1.2451 C   0  0  0  0  0  0  0  0  0  0  0  0
    3.7982    4.6058    2.3126 N   0  0  0  0  0  0  0  0  0  0  0  0
    3.1871    3.6190    3.2088 C   0  0  0  0  0  0  0  0  0  0  0  0
    4.2504    2.9663    4.0866 C   0  0  0  0  0  0  0  0  0  0  0  0
    3.3748    5.8788    2.0858 C   0  0  0  0  0  0  0  0  0  0  0  0
    2.1611    6.4734    2.4527 C   0  0  0  0  0  0  0  0  0  0  0  0
    4.7672    3.1092    0.5942 C   0  0  0  0  0  0  0  0  0  0  0  0
    4.9950    3.2772   -0.7825 C   0  0  0  0  0  0  0  0  0  0  0  0
    4.9670    4.9432   -1.1551 S   0  0  0  0  0  0  0  0  0  0  0  0
    4.7397    2.2264   -1.7916 C   0  0  0  0  0  0  0  0  0  0  0  0
    4.3947    0.6112   -1.4422 S   0  0  0  0  0  0  0  0  0  0  0  0
    3.5805    0.2729   -2.8750 C   0  0  0  0  0  0  0  0  0  0  0  0
    2.5833   -0.7923   -3.0465 C   0  0  0  0  0  0  0  0  0  0  0  0
    1.3579   -0.4426   -3.6374 C   0  0  0  0  0  0  0  0  0  0  0  0
    0.2162   -1.2406   -3.3730 C   0  0  0  0  0  0  0  0  0  0  0  0
   -1.0257   -0.8307   -3.8999 C   0  0  0  0  0  0  0  0  0  0  0  0
   -1.1297    0.3329   -4.6580 C   0  0  0  0  0  0  0  0  0  0  0  0
   -0.0047    1.1077   -4.9250 C   0  0  0  0  0  0  0  0  0  0  0  0
    1.2611    0.7438   -4.4226 C   0  0  0  0  0  0  0  0  0  0  0  0
    2.5419    1.5322   -4.8156 C   0  0  0  0  0  0  0  0  0  0  0  0
    3.4979    1.4430   -3.6173 C   0  0  0  0  0  0  0  0  0  0  0  0
    4.2315    2.5067   -3.0563 C   0  0  0  0  0  0  0  0  0  0  0  0
    2.2187    3.0168   -5.0789 C   0  0  0  0  0  0  0  0  0  0  0  0
    1.5646    3.7658   -4.0734 C   0  0  0  0  0  0  0  0  0  0  0  0
    1.3826    5.1426   -4.2081 C   0  0  0  0  0  0  0  0  0  0  0  0
    1.7947    5.8027   -5.3689 C   0  0  0  0  0  0  0  0  0  0  0  0
    1.6244    7.2918   -5.4918 C   0  0  0  0  0  0  0  0  0  0  0  0
    2.8122    8.0177   -4.8634 C   0  0  0  0  0  0  0  0  0  0  0  0
    2.4315    5.0731   -6.3830 C   0  0  0  0  0  0  0  0  0  0  0  0
    2.6524    3.7003   -6.2367 C   0  0  0  0  0  0  0  0  0  0  0  0
    3.1786    0.8385   -6.0426 C   0  0  0  0  0  0  0  0  0  0  0  0
    4.5685    0.5825   -6.1237 C   0  0  0  0  0  0  0  0  0  0  0  0
    5.1191   -0.0690   -7.2284 C   0  0  0  0  0  0  0  0  0  0  0  0
    4.3074   -0.4543   -8.3017 C   0  0  0  0  0  0  0  0  0  0  0  0
    4.9025   -1.1753   -9.4861 C   0  0  0  0  0  0  0  0  0  0  0  0
    4.9032   -2.6831   -9.2606 C   0  0  0  0  0  0  0  0  0  0  0  0
    2.9342   -0.1851   -8.2537 C   0  0  0  0  0  0  0  0  0  0  0  0
    2.3810    0.4719   -7.1484 C   0  0  0  0  0  0  0  0  0  0  0  0
    0.3703   -2.4427   -2.6273 C   0  0  0  0  0  0  0  0  0  0  0  0
   -0.7237   -3.1163   -2.0550 C   0  0  0  0  0  0  0  0  0  0  0  0
   -0.5402   -4.3360   -1.4011 C   0  0  0  0  0  0  0  0  0  0  0  0
   -1.5623   -4.8920   -0.5020 C   0  0  0  0  0  0  0  0  0  0  0  0
   -1.4124   -6.1634    0.0303 C   0  0  0  0  0  0  0  0  0  0  0  0
   -0.4766   -7.1524   -0.6657 C   0  0  0  0  0  0  0  0  0  0  0  0
   -0.1598   -8.3380    0.2686 C   0  0  0  0  0  0  0  0  0  0  0  0
    0.5400   -8.1122    1.4740 C   0  0  0  0  0  0  0  0  0  0  0  0
    0.8305   -9.1692    2.3446 C   0  0  0  0  0  0  0  0  0  0  0  0
    0.4126  -10.4727    2.0442 C   0  0  0  0  0  0  0  0  0  0  0  0
    0.7398  -11.6191    2.9632 C   0  0  0  0  0  0  0  0  0  0  0  0
    2.0926  -12.2268    2.6058 C   0  0  0  0  0  0  0  0  0  0  0  0
   -0.2685  -10.7123    0.8446 C   0  0  0  0  0  0  0  0  0  0  0  0
   -0.5560   -9.6624   -0.0300 C   0  0  0  0  0  0  0  0  0  0  0  0
   -1.1777   -7.6089   -1.9702 C   0  0  0  0  0  0  0  0  0  0  0  0
   -2.5697   -7.8609   -1.9836 C   0  0  0  0  0  0  0  0  0  0  0  0
   -3.2284   -8.2052   -3.1660 C   0  0  0  0  0  0  0  0  0  0  0  0
   -2.5137   -8.3350   -4.3649 C   0  0  0  0  0  0  0  0  0  0  0  0
   -3.2341   -8.5909   -5.6599 C   0  0  0  0  0  0  0  0  0  0  0  0
   -3.4808   -7.2801   -6.4017 C   0  0  0  0  0  0  0  0  0  0  0  0
   -1.1257   -8.1536   -4.3529 C   0  0  0  0  0  0  0  0  0  0  0  0
   -0.4606   -7.8208   -3.1716 C   0  0  0  0  0  0  0  0  0  0  0  0
    0.8080   -6.3517   -1.0286 C   0  0  0  0  0  0  0  0  0  0  0  0
    2.0639   -6.9839   -1.1180 C   0  0  0  0  0  0  0  0  0  0  0  0
    3.1785   -6.2892   -1.5858 C   0  0  0  0  0  0  0  0  0  0  0  0
    3.0717   -4.9567   -1.9827 C   0  0  0  0  0  0  0  0  0  0  0  0
    1.8340   -4.2886   -1.9325 C   0  0  0  0  0  0  0  0  0  0  0  0
    1.6768   -2.9472   -2.3799 C   0  0  0  0  0  0  0  0  0  0  0  0
    2.7671   -2.0656   -2.5088 C   0  0  0  0  0  0  0  0  0  0  0  0
    0.6986   -4.9981   -1.4699 C   0  0  0  0  0  0  0  0  0  0  0  0
   -2.2124   -6.3831    1.1699 C   0  0  0  0  0  0  0  0  0  0  0  0
   -2.9679   -5.2669    1.5178 C   0  0  0  0  0  0  0  0  0  0  0  0
   -2.6492   -4.0197    0.4308 S   0  0  0  0  0  0  0  0  0  0  0  0
   -3.6861   -5.0768    2.7799 C   0  0  0  0  0  0  0  0  0  0  0  0
   -2.9480   -5.2894    4.3101 S   0  0  0  0  0  0  0  0  0  0  0  0
   -4.2129   -4.5519    5.1218 C   0  0  0  0  0  0  0  0  0  0  0  0
   -4.3528   -3.8143    6.2676 C   0  0  0  0  0  0  0  0  0  0  0  0
   -5.3818   -2.9524    6.0411 C   0  0  0  0  0  0  0  0  0  0  0  0
   -5.9093   -3.1000    4.7975 N   0  0  0  0  0  0  0  0  0  0  0  0
   -6.8084   -2.1753    4.1001 C   0  0  0  0  0  0  0  0  0  0  0  0
   -6.0368   -0.9776    3.5530 C   0  0  0  0  0  0  0  0  0  0  0  0
   -5.1471   -4.0805    4.2487 C   0  0  0  0  0  0  0  0  0  0  0  0
   -4.8724   -4.3447    2.9082 C   0  0  0  0  0  0  0  0  0  0  0  0
   -5.4245   -1.8565    6.8995 C   0  0  0  0  0  0  0  0  0  0  0  0
   -4.3312   -1.8746    7.7770 C   0  0  0  0  0  0  0  0  0  0  0  0
   -3.3391   -3.2406    7.4757 S   0  0  0  0  0  0  0  0  0  0  0  0
   -4.1106   -0.8618    8.8211 C   0  0  0  0  0  0  0  0  0  0  0  0
   -2.9529   -0.2008    9.0174 C   0  0  0  0  0  0  0  0  0  0  0  0
   -1.8340   -0.1167    8.0669 C   0  0  0  0  0  0  0  0  0  0  0  0
   -1.6714   -0.8064    7.0254 O   0  0  0  0  0  0  0  0  0  0  0  0
   -0.9953    0.9990    8.4548 C   0  0  0  0  0  0  0  0  0  0  0  0
    0.1334    1.4888    7.7989 C   0  0  0  0  0  0  0  0  0  0  0  0
    0.7514    2.6496    8.2979 C   0  0  0  0  0  0  0  0  0  0  0  0
    1.8991    3.1667    7.6811 C   0  0  0  0  0  0  0  0  0  0  0  0
    2.4946    4.3340    8.1710 C   0  0  0  0  0  0  0  0  0  0  0  0
    1.9442    4.9981    9.2714 C   0  0  0  0  0  0  0  0  0  0  0  0
    2.5253    6.1312    9.7397 F   0  0  0  0  0  0  0  0  0  0  0  0
    0.7932    4.4980    9.8917 C   0  0  0  0  0  0  0  0  0  0  0  0
    0.1947    3.3177    9.4237 C   0  0  0  0  0  0  0  0  0  0  0  0
   -0.9521    2.8000   10.0583 C   0  0  0  0  0  0  0  0  0  0  0  0
   -1.5183    1.6091    9.5824 C   0  0  0  0  0  0  0  0  0  0  0  0
   -2.6989    0.8384   10.0608 C   0  0  0  0  0  0  0  0  0  0  0  0
   -3.2546    0.8915   11.2994 C   0  0  0  0  0  0  0  0  0  0  0  0
   -4.2158   -0.0776   11.7562 C   0  0  0  0  0  0  0  0  0  0  0  0
   -4.9942   -0.8496   12.1328 N   0  0  0  0  0  0  0  0  0  0  0  0
   -2.8314    1.8319   12.3024 C   0  0  0  0  0  0  0  0  0  0  0  0
   -2.5026    2.5821   13.1193 N   0  0  0  0  0  0  0  0  0  0  0  0
    0.4547    9.0265    2.2179 H   0  0  0  0  0  0  0  0  0  0  0  0
   -1.2903    5.4740   -2.6871 H   0  0  0  0  0  0  0  0  0  0  0  0
   -2.6711    5.2889   -4.7385 H   0  0  0  0  0  0  0  0  0  0  0  0
   -4.4088    6.2076   -6.2237 H   0  0  0  0  0  0  0  0  0  0  0  0
   -5.0123    9.5188   -3.5658 H   0  0  0  0  0  0  0  0  0  0  0  0
   -3.6697    9.6970   -1.5079 H   0  0  0  0  0  0  0  0  0  0  0  0
    2.6632    2.8433    2.6111 H   0  0  0  0  0  0  0  0  0  0  0  0
    2.4393    4.1010    3.8727 H   0  0  0  0  0  0  0  0  0  0  0  0
    5.0187    2.4587    3.4650 H   0  0  0  0  0  0  0  0  0  0  0  0
    4.7415    3.7315    4.7235 H   0  0  0  0  0  0  0  0  0  0  0  0
    3.7695    2.2076    4.7416 H   0  0  0  0  0  0  0  0  0  0  0  0
    1.5063    6.1227    3.2408 H   0  0  0  0  0  0  0  0  0  0  0  0
    4.5143    2.1594    1.0437 H   0  0  0  0  0  0  0  0  0  0  0  0
   -1.9201   -1.4200   -3.7765 H   0  0  0  0  0  0  0  0  0  0  0  0
   -2.0914    0.6246   -5.0588 H   0  0  0  0  0  0  0  0  0  0  0  0
   -0.1257    1.9805   -5.5531 H   0  0  0  0  0  0  0  0  0  0  0  0
    4.2569    3.4988   -3.4852 H   0  0  0  0  0  0  0  0  0  0  0  0
    1.2486    3.2879   -3.1546 H   0  0  0  0  0  0  0  0  0  0  0  0
    0.9394    5.7020   -3.3949 H   0  0  0  0  0  0  0  0  0  0  0  0
    1.5370    7.5832   -6.5585 H   0  0  0  0  0  0  0  0  0  0  0  0
    0.6896    7.6106   -4.9819 H   0  0  0  0  0  0  0  0  0  0  0  0
    2.6751    9.1143   -4.9610 H   0  0  0  0  0  0  0  0  0  0  0  0
    3.7550    7.7292   -5.3769 H   0  0  0  0  0  0  0  0  0  0  0  0
    2.8966    7.7629   -3.7857 H   0  0  0  0  0  0  0  0  0  0  0  0
    2.7862    5.5771   -7.2739 H   0  0  0  0  0  0  0  0  0  0  0  0
    3.1787    3.1894   -7.0329 H   0  0  0  0  0  0  0  0  0  0  0  0
    5.2456    0.8726   -5.3335 H   0  0  0  0  0  0  0  0  0  0  0  0
    6.1819   -0.2722   -7.2456 H   0  0  0  0  0  0  0  0  0  0  0  0
    4.3251   -0.9432  -10.4050 H   0  0  0  0  0  0  0  0  0  0  0  0
    5.9443   -0.8318   -9.6541 H   0  0  0  0  0  0  0  0  0  0  0  0
    5.4974   -2.9389   -8.3574 H   0  0  0  0  0  0  0  0  0  0  0  0
    3.8639   -3.0531   -9.1316 H   0  0  0  0  0  0  0  0  0  0  0  0
    5.3552   -3.1923  -10.1383 H   0  0  0  0  0  0  0  0  0  0  0  0
    2.2915   -0.4791   -9.0739 H   0  0  0  0  0  0  0  0  0  0  0  0
    1.3247    0.6948   -7.1666 H   0  0  0  0  0  0  0  0  0  0  0  0
   -1.7072   -2.6741   -2.0361 H   0  0  0  0  0  0  0  0  0  0  0  0
    0.8643   -7.1133    1.7387 H   0  0  0  0  0  0  0  0  0  0  0  0
    1.3832   -8.9722    3.2564 H   0  0  0  0  0  0  0  0  0  0  0  0
    0.7571  -11.2730    4.0205 H   0  0  0  0  0  0  0  0  0  0  0  0
   -0.0399  -12.4049    2.8938 H   0  0  0  0  0  0  0  0  0  0  0  0
    2.9010  -11.4852    2.7851 H   0  0  0  0  0  0  0  0  0  0  0  0
    2.1089  -12.5385    1.5384 H   0  0  0  0  0  0  0  0  0  0  0  0
    2.2793  -13.1182    3.2410 H   0  0  0  0  0  0  0  0  0  0  0  0
   -0.5743  -11.7178    0.5816 H   0  0  0  0  0  0  0  0  0  0  0  0
   -1.0865   -9.9104   -0.9368 H   0  0  0  0  0  0  0  0  0  0  0  0
   -3.1574   -7.7820   -1.0793 H   0  0  0  0  0  0  0  0  0  0  0  0
   -4.3012   -8.3565   -3.1512 H   0  0  0  0  0  0  0  0  0  0  0  0
   -2.6344   -9.2695   -6.3025 H   0  0  0  0  0  0  0  0  0  0  0  0
   -4.2084   -9.0899   -5.4673 H   0  0  0  0  0  0  0  0  0  0  0  0
   -4.0422   -7.4818   -7.3379 H   0  0  0  0  0  0  0  0  0  0  0  0
   -2.5129   -6.7987   -6.6620 H   0  0  0  0  0  0  0  0  0  0  0  0
   -4.0756   -6.5819   -5.7706 H   0  0  0  0  0  0  0  0  0  0  0  0
   -0.5560   -8.2567   -5.2683 H   0  0  0  0  0  0  0  0  0  0  0  0
    0.6113   -7.7059   -3.2210 H   0  0  0  0  0  0  0  0  0  0  0  0
    2.1794   -8.0315   -0.8794 H   0  0  0  0  0  0  0  0  0  0  0  0
    4.1296   -6.7971   -1.6643 H   0  0  0  0  0  0  0  0  0  0  0  0
    3.9531   -4.4859   -2.3895 H   0  0  0  0  0  0  0  0  0  0  0  0
    3.7455   -2.3296   -2.1269 H   0  0  0  0  0  0  0  0  0  0  0  0
   -2.2245   -7.3038    1.7343 H   0  0  0  0  0  0  0  0  0  0  0  0
   -7.5920   -1.8235    4.8029 H   0  0  0  0  0  0  0  0  0  0  0  0
   -7.3158   -2.7059    3.2655 H   0  0  0  0  0  0  0  0  0  0  0  0
   -5.5857   -0.3957    4.3876 H   0  0  0  0  0  0  0  0  0  0  0  0
   -5.2268   -1.3171    2.8694 H   0  0  0  0  0  0  0  0  0  0  0  0
   -6.7330   -0.3177    2.9890 H   0  0  0  0  0  0  0  0  0  0  0  0
   -5.4217   -3.9240    2.0766 H   0  0  0  0  0  0  0  0  0  0  0  0
   -6.1320   -1.0416    6.8205 H   0  0  0  0  0  0  0  0  0  0  0  0
   -4.9795   -0.5905    9.3999 H   0  0  0  0  0  0  0  0  0  0  0  0
    0.5106    0.9843    6.9175 H   0  0  0  0  0  0  0  0  0  0  0  0
    2.3391    2.6701    6.8267 H   0  0  0  0  0  0  0  0  0  0  0  0
    3.3818    4.7296    7.6937 H   0  0  0  0  0  0  0  0  0  0  0  0
    0.3779    5.0305   10.7398 H   0  0  0  0  0  0  0  0  0  0  0  0
   -1.3923    3.3485   10.8748 H   0  0  0  0  0  0  0  0  0  0  0  0
  1  2  2  3
  2  3  1  0
  3  4  2  0
  3  5  1  0
  5  6  2  0
  6  7  1  0
  7  8  2  0
  8  9  1  0
  9 10  2  0
 10 11  1  0
 10 12  1  0
 12 13  2  0
 13 14  1  0
 14 15  2  0
 15 16  1  0
 16 17  2  3
 17 18  1  0
 18 19  3  0
 17 20  1  0
 20 21  3  0
  1 22  1  0
 22 23  1  0
 23 24  1  0
 24 25  1  0
 25 26  2  0
 26 27  1  0
 27 28  1  0
 28 29  1  0
 27 30  1  0
 30 31  1  0
 26 32  1  0
 32 33  2  0
 33 34  1  0
 33 35  1  0
 35 36  1  0
 36 37  1  0
 37 38  1  0
 38 39  2  0
 39 40  1  0
 40 41  1  0
 41 42  2  0
 42 43  1  0
 43 44  2  0
 44 45  1  0
 45 46  1  0
 46 47  1  0
 45 48  1  0
 48 49  2  0
 49 50  1  0
 50 51  2  0
 51 52  1  0
 52 53  1  0
 51 54  1  0
 54 55  2  0
 45 56  1  0
 56 57  2  0
 57 58  1  0
 58 59  2  0
 59 60  1  0
 60 61  1  0
 59 62  1  0
 62 63  2  0
 40 64  2  0
 64 65  1  0
 65 66  2  0
 66 67  1  0
 67 68  2  0
 68 69  1  0
 69 70  1  0
 70 71  2  0
 71 72  1  0
 72 73  2  0
 73 74  1  0
 74 75  1  0
 73 76  1  0
 76 77  2  0
 69 78  1  0
 78 79  2  0
 79 80  1  0
 80 81  2  0
 81 82  1  0
 82 83  1  0
 81 84  1  0
 84 85  2  0
 69 86  1  0
 86 87  1  0
 87 88  2  0
 88 89  1  0
 89 90  2  0
 90 91  1  0
 91 92  2  0
 90 93  1  0
 68 94  1  0
 94 95  2  0
 95 96  1  0
 95 97  1  0
 97 98  1  0
 98 99  1  0
 99100  1  0
100101  2  0
101102  1  0
102103  1  0
103104  1  0
102105  1  0
105106  1  0
101107  1  0
107108  2  0
108109  1  0
108110  1  0
110111  2  3
111112  1  0
112113  2  0
112114  1  0
114115  2  0
115116  1  0
116117  2  0
117118  1  0
118119  2  0
119120  1  0
119121  1  0
121122  2  0
122123  1  0
123124  2  0
124125  1  0
125126  2  3
126127  1  0
127128  3  0
126129  1  0
129130  3  0
 16  2  1  0
 31 22  2  0
 47 35  2  0
 55 48  1  0
 63 56  1  0
 91 64  1  0
106 97  2  0
125111  1  0
 15  5  1  0
 30 24  2  0
 46 37  2  0
 93 66  1  0
105 99  2  0
124114  1  0
 13  7  1  0
 34 25  1  0
 92 38  1  0
109100  1  0
122116  1  0
 44 39  1  0
 96 67  1  0
 77 70  1  0
 85 78  1  0
 93 86  2  0
  1131  1  0
  6132  1  0
  8133  1  0
  9134  1  0
 12135  1  0
 14136  1  0
 28137  1  0
 28138  1  0
 29139  1  0
 29140  1  0
 29141  1  0
 31142  1  0
 32143  1  0
 41144  1  0
 42145  1  0
 43146  1  0
 47147  1  0
 49148  1  0
 50149  1  0
 52150  1  0
 52151  1  0
 53152  1  0
 53153  1  0
 53154  1  0
 54155  1  0
 55156  1  0
 57157  1  0
 58158  1  0
 60159  1  0
 60160  1  0
 61161  1  0
 61162  1  0
 61163  1  0
 62164  1  0
 63165  1  0
 65166  1  0
 71167  1  0
 72168  1  0
 74169  1  0
 74170  1  0
 75171  1  0
 75172  1  0
 75173  1  0
 76174  1  0
 77175  1  0
 79176  1  0
 80177  1  0
 82178  1  0
 82179  1  0
 83180  1  0
 83181  1  0
 83182  1  0
 84183  1  0
 85184  1  0
 87185  1  0
 88186  1  0
 89187  1  0
 92188  1  0
 94189  1  0
103190  1  0
103191  1  0
104192  1  0
104193  1  0
104194  1  0
106195  1  0
107196  1  0
110197  1  0
115198  1  0
117199  1  0
118200  1  0
121201  1  0
123202  1  0
M  END

