
     RDKit          3D

147165  0  0  0  0  0  0  0  0999 V2000
   -8.4937    3.4837   -6.4387 C   0  0  0  0  0  0  0  0  0  0  0  0
   -8.0357    2.2663   -6.7829 C   0  0  0  0  0  0  0  0  0  0  0  0
   -8.7393    1.3860   -7.7148 C   0  0  0  0  0  0  0  0  0  0  0  0
   -9.6172    1.7374   -8.5461 O   0  0  0  0  0  0  0  0  0  0  0  0
   -8.3193    0.0245   -7.4517 C   0  0  0  0  0  0  0  0  0  0  0  0
   -8.8239   -1.1591   -7.9885 C   0  0  0  0  0  0  0  0  0  0  0  0
   -8.3283   -2.3818   -7.5036 C   0  0  0  0  0  0  0  0  0  0  0  0
   -8.7988   -3.5980   -8.0216 C   0  0  0  0  0  0  0  0  0  0  0  0
   -8.2927   -4.8108   -7.5384 C   0  0  0  0  0  0  0  0  0  0  0  0
   -7.3318   -4.8202   -6.5241 C   0  0  0  0  0  0  0  0  0  0  0  0
   -6.8326   -6.0028   -6.0762 F   0  0  0  0  0  0  0  0  0  0  0  0
   -6.8632   -3.6173   -5.9857 C   0  0  0  0  0  0  0  0  0  0  0  0
   -7.3471   -2.3919   -6.4700 C   0  0  0  0  0  0  0  0  0  0  0  0
   -6.8680   -1.1769   -5.9402 C   0  0  0  0  0  0  0  0  0  0  0  0
   -7.3413    0.0302   -6.4724 C   0  0  0  0  0  0  0  0  0  0  0  0
   -6.9953    1.4307   -6.1211 C   0  0  0  0  0  0  0  0  0  0  0  0
   -5.7804    1.8624   -5.7028 C   0  0  0  0  0  0  0  0  0  0  0  0
   -4.7520    0.9569   -5.2525 C   0  0  0  0  0  0  0  0  0  0  0  0
   -3.9159    0.2407   -4.8968 N   0  0  0  0  0  0  0  0  0  0  0  0
   -5.3757    3.2391   -5.8360 C   0  0  0  0  0  0  0  0  0  0  0  0
   -5.0363    4.3423   -5.9434 N   0  0  0  0  0  0  0  0  0  0  0  0
   -8.1825    4.1638   -5.1721 C   0  0  0  0  0  0  0  0  0  0  0  0
   -7.9589    3.3839   -3.6561 S   0  0  0  0  0  0  0  0  0  0  0  0
   -7.6754    4.8335   -2.8715 C   0  0  0  0  0  0  0  0  0  0  0  0
   -7.0547    5.2793   -1.7434 C   0  0  0  0  0  0  0  0  0  0  0  0
   -6.7242    6.5718   -1.9732 C   0  0  0  0  0  0  0  0  0  0  0  0
   -7.1303    6.9942   -3.2016 N   0  0  0  0  0  0  0  0  0  0  0  0
   -6.7664    8.2284   -3.8972 C   0  0  0  0  0  0  0  0  0  0  0  0
   -5.4768    8.0478   -4.6870 C   0  0  0  0  0  0  0  0  0  0  0  0
   -7.7048    5.8842   -3.7330 C   0  0  0  0  0  0  0  0  0  0  0  0
   -8.0136    5.5528   -5.0512 C   0  0  0  0  0  0  0  0  0  0  0  0
   -5.8031    7.1095   -1.0730 C   0  0  0  0  0  0  0  0  0  0  0  0
   -5.4396    6.1516   -0.0937 C   0  0  0  0  0  0  0  0  0  0  0  0
   -6.2169    4.6619   -0.4446 S   0  0  0  0  0  0  0  0  0  0  0  0
   -4.4305    6.2709    0.9931 C   0  0  0  0  0  0  0  0  0  0  0  0
   -3.6617    7.3914    1.4122 C   0  0  0  0  0  0  0  0  0  0  0  0
   -3.7039    8.7868    0.8512 C   0  0  0  0  0  0  0  0  0  0  0  0
   -2.7800    8.9164   -0.3577 C   0  0  0  0  0  0  0  0  0  0  0  0
   -2.7330    7.0253    2.3965 C   0  0  0  0  0  0  0  0  0  0  0  0
   -1.3668    7.8089    3.0386 S   0  0  0  0  0  0  0  0  0  0  0  0
   -0.8820    6.4060    3.8622 C   0  0  0  0  0  0  0  0  0  0  0  0
    0.3274    5.8850    4.2349 C   0  0  0  0  0  0  0  0  0  0  0  0
    1.6063    6.4597    4.2076 C   0  0  0  0  0  0  0  0  0  0  0  0
    2.7501    5.6102    4.2897 C   0  0  0  0  0  0  0  0  0  0  0  0
    3.9663    6.2106    4.2569 N   0  0  0  0  0  0  0  0  0  0  0  0
    3.4945    7.7935    4.1010 S   0  0  0  0  0  0  0  0  0  0  0  0
    1.8381    7.7887    4.0744 N   0  0  0  0  0  0  0  0  0  0  0  0
    2.5485    4.2323    4.4231 C   0  0  0  0  0  0  0  0  0  0  0  0
    3.4127    3.1992    4.6431 C   0  0  0  0  0  0  0  0  0  0  0  0
    5.0783    2.9133    4.7868 S   0  0  0  0  0  0  0  0  0  0  0  0
    4.7940    1.2890    5.2301 C   0  0  0  0  0  0  0  0  0  0  0  0
    5.6120    0.1851    5.5049 C   0  0  0  0  0  0  0  0  0  0  0  0
    7.0130    0.1881    5.5001 O   0  0  0  0  0  0  0  0  0  0  0  0
    7.7986    0.6172    4.3885 C   0  0  0  0  0  0  0  0  0  0  0  0
    8.5421    1.9057    4.7113 C   0  0  0  0  0  0  0  0  0  0  0  0
    4.8441   -0.9543    5.8081 C   0  0  0  0  0  0  0  0  0  0  0  0
    3.1853   -0.5607    5.7268 S   0  0  0  0  0  0  0  0  0  0  0  0
    3.4459    1.0308    5.3034 C   0  0  0  0  0  0  0  0  0  0  0  0
    2.6639    2.1097    4.9317 C   0  0  0  0  0  0  0  0  0  0  0  0
    1.3257    2.3479    4.8871 N   0  0  0  0  0  0  0  0  0  0  0  0
    1.2679    3.6645    4.4993 C   0  0  0  0  0  0  0  0  0  0  0  0
    0.1409    4.4950    4.2952 C   0  0  0  0  0  0  0  0  0  0  0  0
   -1.0993    4.1514    3.8217 N   0  0  0  0  0  0  0  0  0  0  0  0
   -1.7060    5.3502    3.6091 C   0  0  0  0  0  0  0  0  0  0  0  0
   -2.7606    5.7125    2.7745 C   0  0  0  0  0  0  0  0  0  0  0  0
   -3.9251    4.9053    1.8886 S   0  0  0  0  0  0  0  0  0  0  0  0
   -1.4256    2.9317    3.0634 C   0  0  0  0  0  0  0  0  0  0  0  0
   -0.8677    3.0113    1.6430 C   0  0  0  0  0  0  0  0  0  0  0  0
    0.3352    1.6417    5.7148 C   0  0  0  0  0  0  0  0  0  0  0  0
   -0.0037    0.2529    5.1620 C   0  0  0  0  0  0  0  0  0  0  0  0
    5.3275   -2.3456    5.8761 C   0  0  0  0  0  0  0  0  0  0  0  0
    4.3171   -3.6524    6.2886 S   0  0  0  0  0  0  0  0  0  0  0  0
    5.3516   -4.8149    5.6847 C   0  0  0  0  0  0  0  0  0  0  0  0
    5.1094   -5.9686    4.9959 C   0  0  0  0  0  0  0  0  0  0  0  0
    6.0522   -6.0413    4.0092 C   0  0  0  0  0  0  0  0  0  0  0  0
    6.9040   -4.9799    4.0516 N   0  0  0  0  0  0  0  0  0  0  0  0
    7.8142   -4.5337    2.9925 C   0  0  0  0  0  0  0  0  0  0  0  0
    9.2587   -4.7077    3.4471 C   0  0  0  0  0  0  0  0  0  0  0  0
    6.4260   -4.2259    5.0796 C   0  0  0  0  0  0  0  0  0  0  0  0
    6.4590   -2.8322    5.1991 C   0  0  0  0  0  0  0  0  0  0  0  0
    5.6734   -6.8067    2.9066 C   0  0  0  0  0  0  0  0  0  0  0  0
    4.3511   -7.2573    3.0299 C   0  0  0  0  0  0  0  0  0  0  0  0
    3.6970   -6.7282    4.5083 S   0  0  0  0  0  0  0  0  0  0  0  0
    3.5737   -8.0413    2.0504 C   0  0  0  0  0  0  0  0  0  0  0  0
    3.6255   -7.9079    0.7076 C   0  0  0  0  0  0  0  0  0  0  0  0
    4.4980   -7.0116   -0.0625 C   0  0  0  0  0  0  0  0  0  0  0  0
    4.9347   -5.8869    0.3041 O   0  0  0  0  0  0  0  0  0  0  0  0
    4.6686   -7.5762   -1.3832 C   0  0  0  0  0  0  0  0  0  0  0  0
    5.5748   -7.1930   -2.3719 C   0  0  0  0  0  0  0  0  0  0  0  0
    5.6544   -7.9651   -3.5444 C   0  0  0  0  0  0  0  0  0  0  0  0
    6.6187   -7.5855   -4.6286 C   0  0  0  0  0  0  0  0  0  0  0  0
    4.8073   -9.0831   -3.7051 C   0  0  0  0  0  0  0  0  0  0  0  0
    3.9104   -9.4558   -2.6894 C   0  0  0  0  0  0  0  0  0  0  0  0
    3.8424   -8.6765   -1.5252 C   0  0  0  0  0  0  0  0  0  0  0  0
    3.0386   -8.8518   -0.2874 C   0  0  0  0  0  0  0  0  0  0  0  0
    1.8613   -9.5160   -0.1719 C   0  0  0  0  0  0  0  0  0  0  0  0
    0.9930   -9.3170    0.9625 C   0  0  0  0  0  0  0  0  0  0  0  0
    0.2899   -9.1398    1.8666 N   0  0  0  0  0  0  0  0  0  0  0  0
    1.2996  -10.3040   -1.2366 C   0  0  0  0  0  0  0  0  0  0  0  0
    0.8170  -10.9412   -2.0760 N   0  0  0  0  0  0  0  0  0  0  0  0
   -9.2362    3.9562   -7.0677 H   0  0  0  0  0  0  0  0  0  0  0  0
   -9.5886   -1.1306   -8.7565 H   0  0  0  0  0  0  0  0  0  0  0  0
   -9.5464   -3.6129   -8.8060 H   0  0  0  0  0  0  0  0  0  0  0  0
   -8.6467   -5.7479   -7.9498 H   0  0  0  0  0  0  0  0  0  0  0  0
   -6.1130   -3.6446   -5.2029 H   0  0  0  0  0  0  0  0  0  0  0  0
   -6.1714   -1.1868   -5.1184 H   0  0  0  0  0  0  0  0  0  0  0  0
   -7.5862    8.5217   -4.5876 H   0  0  0  0  0  0  0  0  0  0  0  0
   -6.6354    9.0495   -3.1619 H   0  0  0  0  0  0  0  0  0  0  0  0
   -5.2474    8.9822   -5.2469 H   0  0  0  0  0  0  0  0  0  0  0  0
   -5.5883    7.2230   -5.4219 H   0  0  0  0  0  0  0  0  0  0  0  0
   -4.6320    7.8199   -3.9984 H   0  0  0  0  0  0  0  0  0  0  0  0
   -8.0230    6.2473   -5.8821 H   0  0  0  0  0  0  0  0  0  0  0  0
   -5.3823    8.0919   -1.2012 H   0  0  0  0  0  0  0  0  0  0  0  0
   -3.3707    9.5090    1.6263 H   0  0  0  0  0  0  0  0  0  0  0  0
   -4.7424    9.0787    0.6032 H   0  0  0  0  0  0  0  0  0  0  0  0
   -1.7248    8.7561   -0.0478 H   0  0  0  0  0  0  0  0  0  0  0  0
   -2.8736    9.9347   -0.7908 H   0  0  0  0  0  0  0  0  0  0  0  0
   -3.0367    8.1692   -1.1384 H   0  0  0  0  0  0  0  0  0  0  0  0
    7.1738    0.7400    3.4720 H   0  0  0  0  0  0  0  0  0  0  0  0
    8.5524   -0.1723    4.1794 H   0  0  0  0  0  0  0  0  0  0  0  0
    9.3180    2.0878    3.9377 H   0  0  0  0  0  0  0  0  0  0  0  0
    9.0303    1.8323    5.7083 H   0  0  0  0  0  0  0  0  0  0  0  0
    7.8451    2.7696    4.7088 H   0  0  0  0  0  0  0  0  0  0  0  0
   -0.9982    2.0437    3.5376 H   0  0  0  0  0  0  0  0  0  0  0  0
   -2.5217    2.7766    3.0434 H   0  0  0  0  0  0  0  0  0  0  0  0
    0.2284    3.1754    1.6613 H   0  0  0  0  0  0  0  0  0  0  0  0
   -1.0783    2.0577    1.1074 H   0  0  0  0  0  0  0  0  0  0  0  0
   -1.3445    3.8351    1.0836 H   0  0  0  0  0  0  0  0  0  0  0  0
   -0.5952    2.2439    5.8114 H   0  0  0  0  0  0  0  0  0  0  0  0
    0.7290    1.5419    6.7492 H   0  0  0  0  0  0  0  0  0  0  0  0
    0.3406   -0.5361    5.8607 H   0  0  0  0  0  0  0  0  0  0  0  0
    0.4581    0.0858    4.1661 H   0  0  0  0  0  0  0  0  0  0  0  0
   -1.1052    0.1409    5.0622 H   0  0  0  0  0  0  0  0  0  0  0  0
    7.6611   -5.1133    2.0585 H   0  0  0  0  0  0  0  0  0  0  0  0
    7.6341   -3.4669    2.7420 H   0  0  0  0  0  0  0  0  0  0  0  0
    9.9429   -4.3251    2.6617 H   0  0  0  0  0  0  0  0  0  0  0  0
    9.4724   -5.7817    3.6209 H   0  0  0  0  0  0  0  0  0  0  0  0
    9.4331   -4.1392    4.3869 H   0  0  0  0  0  0  0  0  0  0  0  0
    7.1370   -2.2055    4.6414 H   0  0  0  0  0  0  0  0  0  0  0  0
    6.2929   -6.9663    2.0399 H   0  0  0  0  0  0  0  0  0  0  0  0
    2.9383   -8.7998    2.4806 H   0  0  0  0  0  0  0  0  0  0  0  0
    6.2262   -6.3370   -2.2257 H   0  0  0  0  0  0  0  0  0  0  0  0
    7.5717   -7.2285   -4.1856 H   0  0  0  0  0  0  0  0  0  0  0  0
    6.8527   -8.4532   -5.2800 H   0  0  0  0  0  0  0  0  0  0  0  0
    6.1816   -6.7711   -5.2478 H   0  0  0  0  0  0  0  0  0  0  0  0
    4.8610   -9.6842   -4.6042 H   0  0  0  0  0  0  0  0  0  0  0  0
    3.3195  -10.3494   -2.8138 H   0  0  0  0  0  0  0  0  0  0  0  0
  1  2  2  3
  2  3  1  0
  3  4  2  0
  3  5  1  0
  5  6  2  0
  6  7  1  0
  7  8  2  0
  8  9  1  0
  9 10  2  0
 10 11  1  0
 10 12  1  0
 12 13  2  0
 13 14  1  0
 14 15  2  0
 15 16  1  0
 16 17  2  3
 17 18  1  0
 18 19  3  0
 17 20  1  0
 20 21  3  0
  1 22  1  0
 22 23  1  0
 23 24  1  0
 24 25  1  0
 25 26  2  0
 26 27  1  0
 27 28  1  0
 28 29  1  0
 27 30  1  0
 30 31  1  0
 26 32  1  0
 32 33  2  0
 33 34  1  0
 33 35  1  0
 35 36  2  0
 36 37  1  0
 37 38  1  0
 36 39  1  0
 39 40  1  0
 40 41  1  0
 41 42  1  0
 42 43  1  0
 43 44  1  0
 44 45  2  0
 45 46  1  0
 46 47  1  0
 44 48  1  0
 48 49  1  0
 49 50  1  0
 50 51  1  0
 51 52  1  0
 52 53  1  0
 53 54  1  0
 54 55  1  0
 52 56  2  0
 56 57  1  0
 57 58  1  0
 58 59  1  0
 59 60  1  0
 60 61  1  0
 61 62  1  0
 62 63  1  0
 63 64  1  0
 64 65  1  0
 65 66  1  0
 63 67  1  0
 67 68  1  0
 60 69  1  0
 69 70  1  0
 56 71  1  0
 71 72  1  0
 72 73  1  0
 73 74  1  0
 74 75  2  0
 75 76  1  0
 76 77  1  0
 77 78  1  0
 76 79  1  0
 79 80  1  0
 75 81  1  0
 81 82  2  0
 82 83  1  0
 82 84  1  0
 84 85  2  3
 85 86  1  0
 86 87  2  0
 86 88  1  0
 88 89  2  0
 89 90  1  0
 90 91  1  0
 90 92  2  0
 92 93  1  0
 93 94  2  0
 94 95  1  0
 95 96  2  3
 96 97  1  0
 97 98  3  0
 96 99  1  0
 99100  3  0
 16  2  1  0
 31 22  2  0
 66 35  1  0
 80 71  2  0
 95 85  1  0
 15  5  1  0
 30 24  2  0
 65 39  2  0
 79 73  2  0
 94 88  1  0
 13  7  1  0
 34 25  1  0
 64 41  2  0
 83 74  1  0
 62 42  2  0
 47 43  2  0
 61 48  2  0
 59 49  2  0
 58 51  2  0
  1101  1  0
  6102  1  0
  8103  1  0
  9104  1  0
 12105  1  0
 14106  1  0
 28107  1  0
 28108  1  0
 29109  1  0
 29110  1  0
 29111  1  0
 31112  1  0
 32113  1  0
 37114  1  0
 37115  1  0
 38116  1  0
 38117  1  0
 38118  1  0
 54119  1  0
 54120  1  0
 55121  1  0
 55122  1  0
 55123  1  0
 67124  1  0
 67125  1  0
 68126  1  0
 68127  1  0
 68128  1  0
 69129  1  0
 69130  1  0
 70131  1  0
 70132  1  0
 70133  1  0
 77134  1  0
 77135  1  0
 78136  1  0
 78137  1  0
 78138  1  0
 80139  1  0
 81140  1  0
 84141  1  0
 89142  1  0
 91143  1  0
 91144  1  0
 91145  1  0
 92146  1  0
 93147  1  0
M  END

