
     RDKit          3D

169188  0  0  0  0  0  0  0  0999 V2000
   -7.3637    4.0444   -1.4018 C   0  0  0  0  0  0  0  0  0  0  0  0
   -8.1776    3.1863   -0.7577 C   0  0  0  0  0  0  0  0  0  0  0  0
   -8.0244    2.7422    0.6335 C   0  0  0  0  0  0  0  0  0  0  0  0
   -7.4629    3.3717    1.5638 O   0  0  0  0  0  0  0  0  0  0  0  0
   -8.6298    1.4369    0.7692 C   0  0  0  0  0  0  0  0  0  0  0  0
   -8.5351    0.5604    1.8483 C   0  0  0  0  0  0  0  0  0  0  0  0
   -9.0720   -0.7321    1.7130 C   0  0  0  0  0  0  0  0  0  0  0  0
   -8.9685   -1.6600    2.7601 C   0  0  0  0  0  0  0  0  0  0  0  0
   -9.4790   -2.9520    2.6060 C   0  0  0  0  0  0  0  0  0  0  0  0
  -10.1001   -3.3287    1.4123 C   0  0  0  0  0  0  0  0  0  0  0  0
  -10.5936   -4.5836    1.2743 F   0  0  0  0  0  0  0  0  0  0  0  0
  -10.2098   -2.4178    0.3560 C   0  0  0  0  0  0  0  0  0  0  0  0
   -9.6968   -1.1179    0.4899 C   0  0  0  0  0  0  0  0  0  0  0  0
   -9.7687   -0.2061   -0.5835 C   0  0  0  0  0  0  0  0  0  0  0  0
   -9.2404    1.0845   -0.4217 C   0  0  0  0  0  0  0  0  0  0  0  0
   -9.0988    2.2013   -1.3979 C   0  0  0  0  0  0  0  0  0  0  0  0
   -9.8313    2.4013   -2.5237 C   0  0  0  0  0  0  0  0  0  0  0  0
   -9.7570    3.6274   -3.2767 C   0  0  0  0  0  0  0  0  0  0  0  0
   -9.7024    4.6117   -3.8866 N   0  0  0  0  0  0  0  0  0  0  0  0
  -10.8345    1.4684   -2.9694 C   0  0  0  0  0  0  0  0  0  0  0  0
  -11.6471    0.7303   -3.3351 N   0  0  0  0  0  0  0  0  0  0  0  0
   -6.3021    4.8202   -0.7413 C   0  0  0  0  0  0  0  0  0  0  0  0
   -4.6405    4.6335   -1.1056 S   0  0  0  0  0  0  0  0  0  0  0  0
   -4.1755    5.7323    0.0658 C   0  0  0  0  0  0  0  0  0  0  0  0
   -3.0689    6.0141    0.8181 C   0  0  0  0  0  0  0  0  0  0  0  0
   -3.5220    6.6187    1.9485 C   0  0  0  0  0  0  0  0  0  0  0  0
   -4.8749    6.7437    1.9512 N   0  0  0  0  0  0  0  0  0  0  0  0
   -5.7357    7.1724    3.0533 C   0  0  0  0  0  0  0  0  0  0  0  0
   -6.0339    8.6599    2.9282 C   0  0  0  0  0  0  0  0  0  0  0  0
   -5.2453    6.1910    0.7677 C   0  0  0  0  0  0  0  0  0  0  0  0
   -6.4790    5.7161    0.3292 C   0  0  0  0  0  0  0  0  0  0  0  0
   -2.6074    6.6454    2.9974 C   0  0  0  0  0  0  0  0  0  0  0  0
   -1.4040    6.0272    2.6184 C   0  0  0  0  0  0  0  0  0  0  0  0
   -1.5249    5.4051    1.0272 S   0  0  0  0  0  0  0  0  0  0  0  0
   -0.3279    5.6549    3.5499 C   0  0  0  0  0  0  0  0  0  0  0  0
   -0.5234    4.9481    4.7499 C   0  0  0  0  0  0  0  0  0  0  0  0
   -1.8314    4.4528    5.1991 C   0  0  0  0  0  0  0  0  0  0  0  0
   -2.5435    5.1350    6.1944 C   0  0  0  0  0  0  0  0  0  0  0  0
   -3.8102    4.6878    6.5800 C   0  0  0  0  0  0  0  0  0  0  0  0
   -4.3621    3.5480    5.9862 C   0  0  0  0  0  0  0  0  0  0  0  0
   -3.6442    2.8430    5.0050 C   0  0  0  0  0  0  0  0  0  0  0  0
   -4.2514    1.6468    4.3228 C   0  0  0  0  0  0  0  0  0  0  0  0
   -4.9592    2.0745    3.0451 C   0  0  0  0  0  0  0  0  0  0  0  0
   -2.3828    3.3096    4.6062 C   0  0  0  0  0  0  0  0  0  0  0  0
    0.6799    4.4481    5.2459 C   0  0  0  0  0  0  0  0  0  0  0  0
    0.9791    3.0856    6.2236 S   0  0  0  0  0  0  0  0  0  0  0  0
    2.5833    2.9978    5.6869 C   0  0  0  0  0  0  0  0  0  0  0  0
    3.4601    1.9722    5.4790 C   0  0  0  0  0  0  0  0  0  0  0  0
    3.4968    0.6995    6.0475 C   0  0  0  0  0  0  0  0  0  0  0  0
    4.4140   -0.2525    5.5305 C   0  0  0  0  0  0  0  0  0  0  0  0
    4.3979   -1.4874    6.0940 N   0  0  0  0  0  0  0  0  0  0  0  0
    3.2140   -1.2645    7.2322 S   0  0  0  0  0  0  0  0  0  0  0  0
    2.6926    0.2966    7.0628 N   0  0  0  0  0  0  0  0  0  0  0  0
    5.2194    0.1037    4.4438 C   0  0  0  0  0  0  0  0  0  0  0  0
    5.9067   -0.7141    3.5929 C   0  0  0  0  0  0  0  0  0  0  0  0
    5.8519   -2.3842    3.2748 S   0  0  0  0  0  0  0  0  0  0  0  0
    6.2810   -2.1409    1.6471 C   0  0  0  0  0  0  0  0  0  0  0  0
    6.2987   -2.9775    0.5211 C   0  0  0  0  0  0  0  0  0  0  0  0
    6.0123   -4.4299    0.5399 C   0  0  0  0  0  0  0  0  0  0  0  0
    6.8045   -5.3154   -0.2096 C   0  0  0  0  0  0  0  0  0  0  0  0
    6.5410   -6.6879   -0.1930 C   0  0  0  0  0  0  0  0  0  0  0  0
    5.4821   -7.1889    0.5664 C   0  0  0  0  0  0  0  0  0  0  0  0
    4.6661   -6.3179    1.3022 C   0  0  0  0  0  0  0  0  0  0  0  0
    3.5420   -6.8575    2.1454 C   0  0  0  0  0  0  0  0  0  0  0  0
    3.9952   -7.0390    3.5901 C   0  0  0  0  0  0  0  0  0  0  0  0
    4.9373   -4.9400    1.2883 C   0  0  0  0  0  0  0  0  0  0  0  0
    6.5149   -2.2225   -0.6487 C   0  0  0  0  0  0  0  0  0  0  0  0
    6.6240   -0.5721   -0.2624 S   0  0  0  0  0  0  0  0  0  0  0  0
    6.4351   -0.8029    1.3819 C   0  0  0  0  0  0  0  0  0  0  0  0
    6.1898    0.0152    2.4827 C   0  0  0  0  0  0  0  0  0  0  0  0
    5.7367    1.2947    2.5689 N   0  0  0  0  0  0  0  0  0  0  0  0
    5.1448    1.3674    3.8143 C   0  0  0  0  0  0  0  0  0  0  0  0
    4.2761    2.3558    4.3939 C   0  0  0  0  0  0  0  0  0  0  0  0
    3.9368    3.6304    3.9944 N   0  0  0  0  0  0  0  0  0  0  0  0
    2.8735    3.9493    4.7681 C   0  0  0  0  0  0  0  0  0  0  0  0
    1.7896    4.7743    4.5022 C   0  0  0  0  0  0  0  0  0  0  0  0
    1.3222    5.6198    3.1305 S   0  0  0  0  0  0  0  0  0  0  0  0
    4.7319    4.6755    3.3353 C   0  0  0  0  0  0  0  0  0  0  0  0
    6.1750    4.7012    3.8485 C   0  0  0  0  0  0  0  0  0  0  0  0
    5.6075    2.1805    1.4065 C   0  0  0  0  0  0  0  0  0  0  0  0
    4.1879    2.1586    0.8465 C   0  0  0  0  0  0  0  0  0  0  0  0
    6.3588   -2.6724   -2.0391 C   0  0  0  0  0  0  0  0  0  0  0  0
    7.3707   -2.4273   -2.9569 C   0  0  0  0  0  0  0  0  0  0  0  0
    8.5881   -1.9023   -2.7417 N   0  0  0  0  0  0  0  0  0  0  0  0
    9.1480   -1.8386   -3.9474 N   0  0  0  0  0  0  0  0  0  0  0  0
   10.4734   -1.2809   -4.1858 C   0  0  0  0  0  0  0  0  0  0  0  0
   10.3712    0.2097   -4.4794 C   0  0  0  0  0  0  0  0  0  0  0  0
    8.3466   -2.2719   -4.9158 N   0  0  0  0  0  0  0  0  0  0  0  0
    7.2200   -2.6508   -4.2866 C   0  0  0  0  0  0  0  0  0  0  0  0
    6.0425   -3.1526   -4.8368 C   0  0  0  0  0  0  0  0  0  0  0  0
    4.9646   -3.4207   -3.9438 C   0  0  0  0  0  0  0  0  0  0  0  0
    5.1277   -3.1762   -2.5376 C   0  0  0  0  0  0  0  0  0  0  0  0
    4.0631   -3.3920   -1.6586 O   0  0  0  0  0  0  0  0  0  0  0  0
    3.2685   -2.3297   -1.1467 C   0  0  0  0  0  0  0  0  0  0  0  0
    3.7524   -3.8678   -4.4975 O   0  0  0  0  0  0  0  0  0  0  0  0
    2.6886   -4.5103   -3.8037 C   0  0  0  0  0  0  0  0  0  0  0  0
    5.9125   -3.2141   -6.3114 C   0  0  0  0  0  0  0  0  0  0  0  0
    5.2828   -4.1717   -7.0177 C   0  0  0  0  0  0  0  0  0  0  0  0
    4.6931   -3.8981   -8.3261 C   0  0  0  0  0  0  0  0  0  0  0  0
    4.9778   -2.9286   -9.0793 O   0  0  0  0  0  0  0  0  0  0  0  0
    3.6284   -4.8518   -8.5514 C   0  0  0  0  0  0  0  0  0  0  0  0
    2.6553   -4.8401   -9.5492 C   0  0  0  0  0  0  0  0  0  0  0  0
    1.6113   -5.7718   -9.4729 C   0  0  0  0  0  0  0  0  0  0  0  0
    1.5428   -6.6739   -8.3948 C   0  0  0  0  0  0  0  0  0  0  0  0
    0.1976   -7.7950   -8.2821 Cl  0  0  0  0  0  0  0  0  0  0  0  0
    2.5266   -6.6594   -7.3917 C   0  0  0  0  0  0  0  0  0  0  0  0
    3.5911   -5.7526   -7.4986 C   0  0  0  0  0  0  0  0  0  0  0  0
    4.7139   -5.4749   -6.5645 C   0  0  0  0  0  0  0  0  0  0  0  0
    5.2876   -6.3551   -5.7085 C   0  0  0  0  0  0  0  0  0  0  0  0
    6.5672   -6.1038   -5.0948 C   0  0  0  0  0  0  0  0  0  0  0  0
    7.5953   -5.9210   -4.5920 N   0  0  0  0  0  0  0  0  0  0  0  0
    4.7305   -7.6596   -5.4646 C   0  0  0  0  0  0  0  0  0  0  0  0
    4.2919   -8.7121   -5.2678 N   0  0  0  0  0  0  0  0  0  0  0  0
   -7.3561    4.0590   -2.4817 H   0  0  0  0  0  0  0  0  0  0  0  0
   -8.0239    0.8646    2.7550 H   0  0  0  0  0  0  0  0  0  0  0  0
   -8.4825   -1.3897    3.6898 H   0  0  0  0  0  0  0  0  0  0  0  0
   -9.3870   -3.6653    3.4145 H   0  0  0  0  0  0  0  0  0  0  0  0
  -10.6917   -2.7288   -0.5650 H   0  0  0  0  0  0  0  0  0  0  0  0
  -10.1818   -0.5287   -1.5276 H   0  0  0  0  0  0  0  0  0  0  0  0
   -5.2355    6.9756    4.0268 H   0  0  0  0  0  0  0  0  0  0  0  0
   -6.6870    6.5991    3.0447 H   0  0  0  0  0  0  0  0  0  0  0  0
   -6.6294    9.0020    3.8011 H   0  0  0  0  0  0  0  0  0  0  0  0
   -6.6114    8.8538    1.9988 H   0  0  0  0  0  0  0  0  0  0  0  0
   -5.0833    9.2378    2.8943 H   0  0  0  0  0  0  0  0  0  0  0  0
   -7.4265    5.9306    0.8030 H   0  0  0  0  0  0  0  0  0  0  0  0
   -2.8290    6.9929    3.9963 H   0  0  0  0  0  0  0  0  0  0  0  0
   -2.1286    6.0228    6.6531 H   0  0  0  0  0  0  0  0  0  0  0  0
   -4.3683    5.2281    7.3351 H   0  0  0  0  0  0  0  0  0  0  0  0
   -5.3500    3.2191    6.2839 H   0  0  0  0  0  0  0  0  0  0  0  0
   -3.4618    0.9047    4.0750 H   0  0  0  0  0  0  0  0  0  0  0  0
   -4.9791    1.1459    4.9971 H   0  0  0  0  0  0  0  0  0  0  0  0
   -5.7413    2.8224    3.2898 H   0  0  0  0  0  0  0  0  0  0  0  0
   -5.4364    1.1952    2.5651 H   0  0  0  0  0  0  0  0  0  0  0  0
   -4.2355    2.5235    2.3303 H   0  0  0  0  0  0  0  0  0  0  0  0
   -1.8370    2.7924    3.8246 H   0  0  0  0  0  0  0  0  0  0  0  0
    7.6362   -4.9453   -0.7977 H   0  0  0  0  0  0  0  0  0  0  0  0
    7.1655   -7.3637   -0.7625 H   0  0  0  0  0  0  0  0  0  0  0  0
    5.2971   -8.2551    0.5801 H   0  0  0  0  0  0  0  0  0  0  0  0
    2.6779   -6.1586    2.1162 H   0  0  0  0  0  0  0  0  0  0  0  0
    3.1940   -7.8340    1.7462 H   0  0  0  0  0  0  0  0  0  0  0  0
    4.8516   -7.7447    3.6366 H   0  0  0  0  0  0  0  0  0  0  0  0
    3.1596   -7.4514    4.1936 H   0  0  0  0  0  0  0  0  0  0  0  0
    4.3001   -6.0635    4.0256 H   0  0  0  0  0  0  0  0  0  0  0  0
    4.2923   -4.2669    1.8402 H   0  0  0  0  0  0  0  0  0  0  0  0
    4.6366    4.6202    2.2369 H   0  0  0  0  0  0  0  0  0  0  0  0
    4.3060    5.6746    3.5761 H   0  0  0  0  0  0  0  0  0  0  0  0
    6.7389    5.4959    3.3189 H   0  0  0  0  0  0  0  0  0  0  0  0
    6.1824    4.9221    4.9360 H   0  0  0  0  0  0  0  0  0  0  0  0
    6.6877    3.7343    3.6851 H   0  0  0  0  0  0  0  0  0  0  0  0
    5.9792    3.1813    1.6301 H   0  0  0  0  0  0  0  0  0  0  0  0
    6.3058    1.8768    0.6067 H   0  0  0  0  0  0  0  0  0  0  0  0
    4.1322    2.8062   -0.0524 H   0  0  0  0  0  0  0  0  0  0  0  0
    3.4603    2.5269    1.5960 H   0  0  0  0  0  0  0  0  0  0  0  0
    3.9109    1.1220    0.5604 H   0  0  0  0  0  0  0  0  0  0  0  0
   10.9509   -1.7979   -5.0441 H   0  0  0  0  0  0  0  0  0  0  0  0
   11.1106   -1.4346   -3.2895 H   0  0  0  0  0  0  0  0  0  0  0  0
    9.7811    0.3769   -5.4043 H   0  0  0  0  0  0  0  0  0  0  0  0
   11.3873    0.6353   -4.6194 H   0  0  0  0  0  0  0  0  0  0  0  0
    9.8777    0.7317   -3.6326 H   0  0  0  0  0  0  0  0  0  0  0  0
    2.8715   -1.7128   -1.9790 H   0  0  0  0  0  0  0  0  0  0  0  0
    2.4142   -2.7575   -0.5808 H   0  0  0  0  0  0  0  0  0  0  0  0
    3.8544   -1.6879   -0.4590 H   0  0  0  0  0  0  0  0  0  0  0  0
    2.0274   -5.0002   -4.5494 H   0  0  0  0  0  0  0  0  0  0  0  0
    2.0874   -3.7644   -3.2499 H   0  0  0  0  0  0  0  0  0  0  0  0
    3.0852   -5.2922   -3.1232 H   0  0  0  0  0  0  0  0  0  0  0  0
    6.2602   -2.3373   -6.8465 H   0  0  0  0  0  0  0  0  0  0  0  0
    2.6862   -4.1082  -10.3479 H   0  0  0  0  0  0  0  0  0  0  0  0
    0.8397   -5.7735  -10.2310 H   0  0  0  0  0  0  0  0  0  0  0  0
    2.4202   -7.3160   -6.5410 H   0  0  0  0  0  0  0  0  0  0  0  0
  1  2  2  3
  2  3  1  0
  3  4  2  0
  3  5  1  0
  5  6  2  0
  6  7  1  0
  7  8  2  0
  8  9  1  0
  9 10  2  0
 10 11  1  0
 10 12  1  0
 12 13  2  0
 13 14  1  0
 14 15  2  0
 15 16  1  0
 16 17  2  3
 17 18  1  0
 18 19  3  0
 17 20  1  0
 20 21  3  0
  1 22  1  0
 22 23  1  0
 23 24  1  0
 24 25  1  0
 25 26  2  0
 26 27  1  0
 27 28  1  0
 28 29  1  0
 27 30  1  0
 30 31  1  0
 26 32  1  0
 32 33  2  0
 33 34  1  0
 33 35  1  0
 35 36  2  0
 36 37  1  0
 37 38  2  0
 38 39  1  0
 39 40  2  0
 40 41  1  0
 41 42  1  0
 42 43  1  0
 41 44  2  0
 36 45  1  0
 45 46  1  0
 46 47  1  0
 47 48  1  0
 48 49  1  0
 49 50  1  0
 50 51  2  0
 51 52  1  0
 52 53  1  0
 50 54  1  0
 54 55  1  0
 55 56  1  0
 56 57  1  0
 57 58  1  0
 58 59  1  0
 59 60  2  0
 60 61  1  0
 61 62  2  0
 62 63  1  0
 63 64  1  0
 64 65  1  0
 63 66  2  0
 58 67  2  0
 67 68  1  0
 68 69  1  0
 69 70  1  0
 70 71  1  0
 71 72  1  0
 72 73  1  0
 73 74  1  0
 74 75  1  0
 75 76  1  0
 76 77  1  0
 74 78  1  0
 78 79  1  0
 71 80  1  0
 80 81  1  0
 67 82  1  0
 82 83  1  0
 83 84  2  0
 84 85  1  0
 85 86  1  0
 86 87  1  0
 85 88  1  0
 88 89  2  0
 89 90  1  0
 90 91  2  0
 91 92  1  0
 92 93  1  0
 93 94  1  0
 91 95  1  0
 95 96  1  0
 90 97  1  0
 97 98  2  3
 98 99  1  0
 99100  2  0
 99101  1  0
101102  2  0
102103  1  0
103104  2  0
104105  1  0
104106  1  0
106107  2  0
107108  1  0
108109  2  3
109110  1  0
110111  3  0
109112  1  0
112113  3  0
 16  2  1  0
 31 22  2  0
 77 35  1  0
 92 82  2  0
108 98  1  0
 15  5  1  0
 30 24  2  0
 44 37  1  0
 76 45  2  0
 89 83  1  0
107101  1  0
 13  7  1  0
 34 25  1  0
 75 47  2  0
 73 48  2  0
 53 49  2  0
 72 54  2  0
 70 55  2  0
 69 57  2  0
 66 59  1  0
  1114  1  0
  6115  1  0
  8116  1  0
  9117  1  0
 12118  1  0
 14119  1  0
 28120  1  0
 28121  1  0
 29122  1  0
 29123  1  0
 29124  1  0
 31125  1  0
 32126  1  0
 38127  1  0
 39128  1  0
 40129  1  0
 42130  1  0
 42131  1  0
 43132  1  0
 43133  1  0
 43134  1  0
 44135  1  0
 60136  1  0
 61137  1  0
 62138  1  0
 64139  1  0
 64140  1  0
 65141  1  0
 65142  1  0
 65143  1  0
 66144  1  0
 78145  1  0
 78146  1  0
 79147  1  0
 79148  1  0
 79149  1  0
 80150  1  0
 80151  1  0
 81152  1  0
 81153  1  0
 81154  1  0
 86155  1  0
 86156  1  0
 87157  1  0
 87158  1  0
 87159  1  0
 94160  1  0
 94161  1  0
 94162  1  0
 96163  1  0
 96164  1  0
 96165  1  0
 97166  1  0
102167  1  0
103168  1  0
106169  1  0
M  END

