
     RDKit          3D

184204  0  0  0  0  0  0  0  0999 V2000
   -9.4438   -6.3117   -0.6253 C   0  0  0  0  0  0  0  0  0  0  0  0
   -9.5263   -4.9795   -0.4737 C   0  0  0  0  0  0  0  0  0  0  0  0
   -8.3769   -4.0796   -0.3048 C   0  0  0  0  0  0  0  0  0  0  0  0
   -7.2101   -4.4035    0.0334 O   0  0  0  0  0  0  0  0  0  0  0  0
   -8.8072   -2.7327   -0.5897 C   0  0  0  0  0  0  0  0  0  0  0  0
   -8.0145   -1.5896   -0.7041 C   0  0  0  0  0  0  0  0  0  0  0  0
   -8.6201   -0.3851   -1.0852 C   0  0  0  0  0  0  0  0  0  0  0  0
   -7.8551    0.7790   -1.2333 C   0  0  0  0  0  0  0  0  0  0  0  0
   -8.4673    1.9796   -1.6073 C   0  0  0  0  0  0  0  0  0  0  0  0
   -9.8450    2.0303   -1.8371 C   0  0  0  0  0  0  0  0  0  0  0  0
  -10.4290    3.1997   -2.1982 F   0  0  0  0  0  0  0  0  0  0  0  0
  -10.6218    0.8769   -1.7004 C   0  0  0  0  0  0  0  0  0  0  0  0
  -10.0207   -0.3430   -1.3344 C   0  0  0  0  0  0  0  0  0  0  0  0
  -10.7910   -1.5158   -1.2246 C   0  0  0  0  0  0  0  0  0  0  0  0
  -10.1668   -2.7225   -0.8563 C   0  0  0  0  0  0  0  0  0  0  0  0
  -10.7194   -4.1055   -0.7138 C   0  0  0  0  0  0  0  0  0  0  0  0
  -12.0239   -4.4668   -0.6151 C   0  0  0  0  0  0  0  0  0  0  0  0
  -12.4219   -5.7947   -0.2360 C   0  0  0  0  0  0  0  0  0  0  0  0
  -12.7485   -6.8611    0.0748 N   0  0  0  0  0  0  0  0  0  0  0  0
  -13.1082   -3.5606   -0.8779 C   0  0  0  0  0  0  0  0  0  0  0  0
  -13.9908   -2.8435   -1.1086 N   0  0  0  0  0  0  0  0  0  0  0  0
   -8.1977   -7.0581   -0.4279 C   0  0  0  0  0  0  0  0  0  0  0  0
   -7.7119   -7.6656    1.0900 S   0  0  0  0  0  0  0  0  0  0  0  0
   -6.1915   -8.0961    0.5282 C   0  0  0  0  0  0  0  0  0  0  0  0
   -4.9486   -8.1672    1.0902 C   0  0  0  0  0  0  0  0  0  0  0  0
   -4.0662   -7.7963    0.1167 C   0  0  0  0  0  0  0  0  0  0  0  0
   -4.6978   -7.4899   -1.0496 N   0  0  0  0  0  0  0  0  0  0  0  0
   -4.1335   -6.7996   -2.2153 C   0  0  0  0  0  0  0  0  0  0  0  0
   -3.7288   -7.8133   -3.2793 C   0  0  0  0  0  0  0  0  0  0  0  0
   -6.0109   -7.6858   -0.7610 C   0  0  0  0  0  0  0  0  0  0  0  0
   -7.1430   -7.1106   -1.3461 C   0  0  0  0  0  0  0  0  0  0  0  0
   -2.8457   -7.3215    0.5967 C   0  0  0  0  0  0  0  0  0  0  0  0
   -2.8281   -7.3146    1.9980 C   0  0  0  0  0  0  0  0  0  0  0  0
   -4.3443   -7.8074    2.6076 S   0  0  0  0  0  0  0  0  0  0  0  0
   -1.8993   -6.4912    2.7686 C   0  0  0  0  0  0  0  0  0  0  0  0
   -0.6255   -6.8625    3.2353 C   0  0  0  0  0  0  0  0  0  0  0  0
   -0.0283   -8.2011    3.0323 C   0  0  0  0  0  0  0  0  0  0  0  0
   -0.7434   -9.3575    3.3853 C   0  0  0  0  0  0  0  0  0  0  0  0
   -0.2305  -10.6230    3.0871 C   0  0  0  0  0  0  0  0  0  0  0  0
    0.9921  -10.7432    2.4227 C   0  0  0  0  0  0  0  0  0  0  0  0
    1.7240   -9.6005    2.0733 C   0  0  0  0  0  0  0  0  0  0  0  0
    2.9820   -9.7280    1.2553 C   0  0  0  0  0  0  0  0  0  0  0  0
    2.6466   -9.7297   -0.2322 C   0  0  0  0  0  0  0  0  0  0  0  0
    1.2102   -8.3300    2.3815 C   0  0  0  0  0  0  0  0  0  0  0  0
    0.0391   -5.7499    3.7709 C   0  0  0  0  0  0  0  0  0  0  0  0
    1.5958   -5.4875    4.4282 S   0  0  0  0  0  0  0  0  0  0  0  0
    1.2777   -3.8244    4.6003 C   0  0  0  0  0  0  0  0  0  0  0  0
    1.9901   -2.6760    4.7768 C   0  0  0  0  0  0  0  0  0  0  0  0
    3.3479   -2.5064    5.0524 C   0  0  0  0  0  0  0  0  0  0  0  0
    3.8993   -1.1986    4.9956 C   0  0  0  0  0  0  0  0  0  0  0  0
    5.2273   -1.0772    5.2352 N   0  0  0  0  0  0  0  0  0  0  0  0
    5.6114   -2.6662    5.5005 S   0  0  0  0  0  0  0  0  0  0  0  0
    4.2016   -3.5221    5.3344 N   0  0  0  0  0  0  0  0  0  0  0  0
    3.0600   -0.1299    4.6764 C   0  0  0  0  0  0  0  0  0  0  0  0
    3.3701    1.1802    4.4374 C   0  0  0  0  0  0  0  0  0  0  0  0
    4.7776    2.0140    3.9984 S   0  0  0  0  0  0  0  0  0  0  0  0
    3.8808    3.1781    3.1331 C   0  0  0  0  0  0  0  0  0  0  0  0
    4.2569    4.0328    2.0905 C   0  0  0  0  0  0  0  0  0  0  0  0
    5.6087    4.6163    1.9350 C   0  0  0  0  0  0  0  0  0  0  0  0
    6.7680    3.8431    2.1016 C   0  0  0  0  0  0  0  0  0  0  0  0
    8.0299    4.4332    2.0242 C   0  0  0  0  0  0  0  0  0  0  0  0
    8.1505    5.8027    1.7910 C   0  0  0  0  0  0  0  0  0  0  0  0
    7.0056    6.5911    1.6032 C   0  0  0  0  0  0  0  0  0  0  0  0
    7.1314    8.0814    1.4079 C   0  0  0  0  0  0  0  0  0  0  0  0
    7.0186    8.8125    2.7422 C   0  0  0  0  0  0  0  0  0  0  0  0
    5.7387    5.9937    1.6821 C   0  0  0  0  0  0  0  0  0  0  0  0
    3.1520    4.3459    1.2673 C   0  0  0  0  0  0  0  0  0  0  0  0
    1.7551    3.5999    1.8928 S   0  0  0  0  0  0  0  0  0  0  0  0
    2.5384    2.8896    3.1859 C   0  0  0  0  0  0  0  0  0  0  0  0
    2.2543    1.7642    3.9513 C   0  0  0  0  0  0  0  0  0  0  0  0
    1.1877    0.9310    3.9357 N   0  0  0  0  0  0  0  0  0  0  0  0
    1.6927   -0.2839    4.3546 C   0  0  0  0  0  0  0  0  0  0  0  0
    1.1359   -1.6128    4.3914 C   0  0  0  0  0  0  0  0  0  0  0  0
   -0.0687   -2.1336    3.9501 N   0  0  0  0  0  0  0  0  0  0  0  0
    0.0609   -3.4715    4.1329 C   0  0  0  0  0  0  0  0  0  0  0  0
   -0.6609   -4.5701    3.6839 C   0  0  0  0  0  0  0  0  0  0  0  0
   -2.1511   -4.8303    2.9711 S   0  0  0  0  0  0  0  0  0  0  0  0
   -1.1115   -1.5420    3.1076 C   0  0  0  0  0  0  0  0  0  0  0  0
   -0.5858   -1.2492    1.7036 C   0  0  0  0  0  0  0  0  0  0  0  0
   -0.1810    1.4604    3.9083 C   0  0  0  0  0  0  0  0  0  0  0  0
   -0.8865    1.2408    5.2510 C   0  0  0  0  0  0  0  0  0  0  0  0
    3.2506    4.6929   -0.1636 C   0  0  0  0  0  0  0  0  0  0  0  0
    3.9828    3.9781   -1.1270 C   0  0  0  0  0  0  0  0  0  0  0  0
    4.9012    2.8527   -0.8342 C   0  0  0  0  0  0  0  0  0  0  0  0
    4.3917    1.5859   -0.4548 C   0  0  0  0  0  0  0  0  0  0  0  0
    5.2813    0.5559   -0.1204 C   0  0  0  0  0  0  0  0  0  0  0  0
    6.6628    0.7398   -0.2110 C   0  0  0  0  0  0  0  0  0  0  0  0
    7.5906   -0.4144    0.0676 C   0  0  0  0  0  0  0  0  0  0  0  0
    7.8227   -1.2299   -1.2036 C   0  0  0  0  0  0  0  0  0  0  0  0
    7.1674    1.9618   -0.6671 C   0  0  0  0  0  0  0  0  0  0  0  0
    6.3083    3.0318   -0.9653 C   0  0  0  0  0  0  0  0  0  0  0  0
    6.9134    4.3371   -1.4440 C   0  0  0  0  0  0  0  0  0  0  0  0
    7.1797    4.3147   -2.9548 C   0  0  0  0  0  0  0  0  0  0  0  0
    2.9179    1.2474   -0.5371 C   0  0  0  0  0  0  0  0  0  0  0  0
    2.6024    0.5946   -1.8803 C   0  0  0  0  0  0  0  0  0  0  0  0
    3.7065    4.3666   -2.4411 C   0  0  0  0  0  0  0  0  0  0  0  0
    2.7310    5.3433   -2.5419 C   0  0  0  0  0  0  0  0  0  0  0  0
    2.2319    5.7659   -0.9791 S   0  0  0  0  0  0  0  0  0  0  0  0
    2.3440    5.9582   -3.8194 C   0  0  0  0  0  0  0  0  0  0  0  0
    1.1593    6.5227   -4.1080 C   0  0  0  0  0  0  0  0  0  0  0  0
    0.9879    7.4630   -5.2098 C   0  0  0  0  0  0  0  0  0  0  0  0
    1.7905    7.6419   -6.1649 O   0  0  0  0  0  0  0  0  0  0  0  0
   -0.2209    8.2201   -4.9736 C   0  0  0  0  0  0  0  0  0  0  0  0
   -0.7071    9.3054   -5.6956 C   0  0  0  0  0  0  0  0  0  0  0  0
   -1.8578    9.9591   -5.2284 C   0  0  0  0  0  0  0  0  0  0  0  0
   -2.3930   11.0503   -5.9306 C   0  0  0  0  0  0  0  0  0  0  0  0
   -3.5274   11.7075   -5.4491 C   0  0  0  0  0  0  0  0  0  0  0  0
   -4.1318   11.2908   -4.2598 C   0  0  0  0  0  0  0  0  0  0  0  0
   -5.2256   11.9398   -3.7918 F   0  0  0  0  0  0  0  0  0  0  0  0
   -3.6107   10.2039   -3.5459 C   0  0  0  0  0  0  0  0  0  0  0  0
   -2.4824    9.5214   -4.0247 C   0  0  0  0  0  0  0  0  0  0  0  0
   -1.9594    8.4200   -3.3143 C   0  0  0  0  0  0  0  0  0  0  0  0
   -0.8329    7.7580   -3.8217 C   0  0  0  0  0  0  0  0  0  0  0  0
   -0.1008    6.5638   -3.3094 C   0  0  0  0  0  0  0  0  0  0  0  0
   -0.6678    5.5111   -2.6722 C   0  0  0  0  0  0  0  0  0  0  0  0
   -0.0847    4.1963   -2.7177 C   0  0  0  0  0  0  0  0  0  0  0  0
    0.3689    3.1318   -2.7554 N   0  0  0  0  0  0  0  0  0  0  0  0
   -1.9659    5.5955   -2.0516 C   0  0  0  0  0  0  0  0  0  0  0  0
   -3.0048    5.6564   -1.5429 N   0  0  0  0  0  0  0  0  0  0  0  0
  -10.2918   -6.8873   -0.9569 H   0  0  0  0  0  0  0  0  0  0  0  0
   -6.9473   -1.6459   -0.5227 H   0  0  0  0  0  0  0  0  0  0  0  0
   -6.7867    0.7622   -1.0558 H   0  0  0  0  0  0  0  0  0  0  0  0
   -7.8634    2.8710   -1.7243 H   0  0  0  0  0  0  0  0  0  0  0  0
  -11.6881    0.9316   -1.8866 H   0  0  0  0  0  0  0  0  0  0  0  0
  -11.8387   -1.4743   -1.4672 H   0  0  0  0  0  0  0  0  0  0  0  0
   -4.8760   -6.0836   -2.6382 H   0  0  0  0  0  0  0  0  0  0  0  0
   -3.2395   -6.2051   -1.9200 H   0  0  0  0  0  0  0  0  0  0  0  0
   -3.0138   -8.5512   -2.8496 H   0  0  0  0  0  0  0  0  0  0  0  0
   -3.2345   -7.2833   -4.1288 H   0  0  0  0  0  0  0  0  0  0  0  0
   -4.6332   -8.3481   -3.6491 H   0  0  0  0  0  0  0  0  0  0  0  0
   -7.1628   -6.6300   -2.3142 H   0  0  0  0  0  0  0  0  0  0  0  0
   -2.0862   -6.8432   -0.0131 H   0  0  0  0  0  0  0  0  0  0  0  0
   -1.7079   -9.2790    3.8701 H   0  0  0  0  0  0  0  0  0  0  0  0
   -0.8014  -11.5061    3.3347 H   0  0  0  0  0  0  0  0  0  0  0  0
    1.3574  -11.7311    2.1627 H   0  0  0  0  0  0  0  0  0  0  0  0
    3.5109  -10.6705    1.5108 H   0  0  0  0  0  0  0  0  0  0  0  0
    3.6704   -8.8841    1.4755 H   0  0  0  0  0  0  0  0  0  0  0  0
    3.5845   -9.7654   -0.8285 H   0  0  0  0  0  0  0  0  0  0  0  0
    2.0365  -10.6227   -0.4881 H   0  0  0  0  0  0  0  0  0  0  0  0
    2.0855   -8.8124   -0.5123 H   0  0  0  0  0  0  0  0  0  0  0  0
    1.7475   -7.4421    2.0642 H   0  0  0  0  0  0  0  0  0  0  0  0
    6.7061    2.7764    2.2581 H   0  0  0  0  0  0  0  0  0  0  0  0
    8.9157    3.8222    2.1480 H   0  0  0  0  0  0  0  0  0  0  0  0
    9.1345    6.2484    1.7477 H   0  0  0  0  0  0  0  0  0  0  0  0
    6.3371    8.4400    0.7212 H   0  0  0  0  0  0  0  0  0  0  0  0
    8.1088    8.3270    0.9406 H   0  0  0  0  0  0  0  0  0  0  0  0
    7.1507    9.9028    2.5837 H   0  0  0  0  0  0  0  0  0  0  0  0
    7.8057    8.4571    3.4435 H   0  0  0  0  0  0  0  0  0  0  0  0
    6.0185    8.6367    3.1949 H   0  0  0  0  0  0  0  0  0  0  0  0
    4.8513    6.6089    1.5745 H   0  0  0  0  0  0  0  0  0  0  0  0
   -1.9706   -2.2237    3.0107 H   0  0  0  0  0  0  0  0  0  0  0  0
   -1.5874   -0.6880    3.5972 H   0  0  0  0  0  0  0  0  0  0  0  0
   -0.3428   -2.2050    1.1926 H   0  0  0  0  0  0  0  0  0  0  0  0
   -1.3635   -0.7190    1.1150 H   0  0  0  0  0  0  0  0  0  0  0  0
    0.3264   -0.6251    1.7437 H   0  0  0  0  0  0  0  0  0  0  0  0
   -0.1541    2.5604    3.7533 H   0  0  0  0  0  0  0  0  0  0  0  0
   -0.7354    1.1029    3.0260 H   0  0  0  0  0  0  0  0  0  0  0  0
   -0.4058    1.8678    6.0320 H   0  0  0  0  0  0  0  0  0  0  0  0
   -1.9552    1.5286    5.1581 H   0  0  0  0  0  0  0  0  0  0  0  0
   -0.8253    0.1797    5.5737 H   0  0  0  0  0  0  0  0  0  0  0  0
    4.8933   -0.4131    0.1707 H   0  0  0  0  0  0  0  0  0  0  0  0
    7.1582   -1.0702    0.8546 H   0  0  0  0  0  0  0  0  0  0  0  0
    8.5655   -0.0424    0.4453 H   0  0  0  0  0  0  0  0  0  0  0  0
    6.8563   -1.5608   -1.6390 H   0  0  0  0  0  0  0  0  0  0  0  0
    8.3627   -0.6216   -1.9605 H   0  0  0  0  0  0  0  0  0  0  0  0
    8.4253   -2.1291   -0.9570 H   0  0  0  0  0  0  0  0  0  0  0  0
    8.2380    2.0914   -0.7749 H   0  0  0  0  0  0  0  0  0  0  0  0
    7.8735    4.5239   -0.9114 H   0  0  0  0  0  0  0  0  0  0  0  0
    6.2538    5.1981   -1.1882 H   0  0  0  0  0  0  0  0  0  0  0  0
    7.0730    5.3483   -3.3644 H   0  0  0  0  0  0  0  0  0  0  0  0
    6.4740    3.6344   -3.4832 H   0  0  0  0  0  0  0  0  0  0  0  0
    8.2267    3.9692   -3.1481 H   0  0  0  0  0  0  0  0  0  0  0  0
    2.6396    0.5538    0.2903 H   0  0  0  0  0  0  0  0  0  0  0  0
    2.2827    2.1486   -0.4317 H   0  0  0  0  0  0  0  0  0  0  0  0
    3.2066   -0.3329   -2.0165 H   0  0  0  0  0  0  0  0  0  0  0  0
    1.5227    0.3235   -1.9191 H   0  0  0  0  0  0  0  0  0  0  0  0
    2.8252    1.3025   -2.7116 H   0  0  0  0  0  0  0  0  0  0  0  0
    4.1618    3.9080   -3.3110 H   0  0  0  0  0  0  0  0  0  0  0  0
    3.1296    6.0118   -4.5677 H   0  0  0  0  0  0  0  0  0  0  0  0
   -0.1980    9.6369   -6.5953 H   0  0  0  0  0  0  0  0  0  0  0  0
   -1.9368   11.3943   -6.8513 H   0  0  0  0  0  0  0  0  0  0  0  0
   -3.9312   12.5485   -5.9962 H   0  0  0  0  0  0  0  0  0  0  0  0
   -4.0897    9.8929   -2.6260 H   0  0  0  0  0  0  0  0  0  0  0  0
   -2.4084    8.1207   -2.3797 H   0  0  0  0  0  0  0  0  0  0  0  0
  1  2  2  3
  2  3  1  0
  3  4  2  0
  3  5  1  0
  5  6  2  0
  6  7  1  0
  7  8  2  0
  8  9  1  0
  9 10  2  0
 10 11  1  0
 10 12  1  0
 12 13  2  0
 13 14  1  0
 14 15  2  0
 15 16  1  0
 16 17  2  3
 17 18  1  0
 18 19  3  0
 17 20  1  0
 20 21  3  0
  1 22  1  0
 22 23  1  0
 23 24  1  0
 24 25  1  0
 25 26  2  0
 26 27  1  0
 27 28  1  0
 28 29  1  0
 27 30  1  0
 30 31  1  0
 26 32  1  0
 32 33  2  0
 33 34  1  0
 33 35  1  0
 35 36  2  0
 36 37  1  0
 37 38  2  0
 38 39  1  0
 39 40  2  0
 40 41  1  0
 41 42  1  0
 42 43  1  0
 41 44  2  0
 36 45  1  0
 45 46  1  0
 46 47  1  0
 47 48  1  0
 48 49  1  0
 49 50  1  0
 50 51  2  0
 51 52  1  0
 52 53  1  0
 50 54  1  0
 54 55  1  0
 55 56  1  0
 56 57  1  0
 57 58  1  0
 58 59  1  0
 59 60  2  0
 60 61  1  0
 61 62  2  0
 62 63  1  0
 63 64  1  0
 64 65  1  0
 63 66  2  0
 58 67  2  0
 67 68  1  0
 68 69  1  0
 69 70  1  0
 70 71  1  0
 71 72  1  0
 72 73  1  0
 73 74  1  0
 74 75  1  0
 75 76  1  0
 76 77  1  0
 74 78  1  0
 78 79  1  0
 71 80  1  0
 80 81  1  0
 67 82  1  0
 82 83  2  0
 83 84  1  0
 84 85  2  0
 85 86  1  0
 86 87  2  0
 87 88  1  0
 88 89  1  0
 87 90  1  0
 90 91  2  0
 91 92  1  0
 92 93  1  0
 85 94  1  0
 94 95  1  0
 83 96  1  0
 96 97  2  0
 97 98  1  0
 97 99  1  0
 99100  2  3
100101  1  0
101102  2  0
101103  1  0
103104  2  0
104105  1  0
105106  2  0
106107  1  0
107108  2  0
108109  1  0
108110  1  0
110111  2  0
111112  1  0
112113  2  0
113114  1  0
114115  2  3
115116  1  0
116117  3  0
115118  1  0
118119  3  0
 16  2  1  0
 31 22  2  0
 77 35  1  0
 98 82  1  0
114100  1  0
 15  5  1  0
 30 24  2  0
 44 37  1  0
 76 45  2  0
 91 84  1  0
113103  1  0
 13  7  1  0
 34 25  1  0
 75 47  2  0
111105  1  0
 73 48  2  0
 53 49  2  0
 72 54  2  0
 70 55  2  0
 69 57  2  0
 66 59  1  0
  1120  1  0
  6121  1  0
  8122  1  0
  9123  1  0
 12124  1  0
 14125  1  0
 28126  1  0
 28127  1  0
 29128  1  0
 29129  1  0
 29130  1  0
 31131  1  0
 32132  1  0
 38133  1  0
 39134  1  0
 40135  1  0
 42136  1  0
 42137  1  0
 43138  1  0
 43139  1  0
 43140  1  0
 44141  1  0
 60142  1  0
 61143  1  0
 62144  1  0
 64145  1  0
 64146  1  0
 65147  1  0
 65148  1  0
 65149  1  0
 66150  1  0
 78151  1  0
 78152  1  0
 79153  1  0
 79154  1  0
 79155  1  0
 80156  1  0
 80157  1  0
 81158  1  0
 81159  1  0
 81160  1  0
 86161  1  0
 88162  1  0
 88163  1  0
 89164  1  0
 89165  1  0
 89166  1  0
 90167  1  0
 92168  1  0
 92169  1  0
 93170  1  0
 93171  1  0
 93172  1  0
 94173  1  0
 94174  1  0
 95175  1  0
 95176  1  0
 95177  1  0
 96178  1  0
 99179  1  0
104180  1  0
106181  1  0
107182  1  0
110183  1  0
112184  1  0
M  END

