
     RDKit          3D

163182  0  0  0  0  0  0  0  0999 V2000
    7.5479   -3.7988    0.3770 C   0  0  0  0  0  0  0  0  0  0  0  0
    7.3480   -3.4524    1.6638 C   0  0  0  0  0  0  0  0  0  0  0  0
    6.9155   -2.1371    2.1565 C   0  0  0  0  0  0  0  0  0  0  0  0
    6.2930   -1.2570    1.5042 O   0  0  0  0  0  0  0  0  0  0  0  0
    7.2282   -2.0594    3.5690 C   0  0  0  0  0  0  0  0  0  0  0  0
    7.1423   -0.9503    4.4081 C   0  0  0  0  0  0  0  0  0  0  0  0
    7.5982   -1.0708    5.7322 C   0  0  0  0  0  0  0  0  0  0  0  0
    7.5382    0.0221    6.6098 C   0  0  0  0  0  0  0  0  0  0  0  0
    8.0243   -0.0973    7.9132 C   0  0  0  0  0  0  0  0  0  0  0  0
    8.5682   -1.3068    8.3561 C   0  0  0  0  0  0  0  0  0  0  0  0
    9.0352   -1.4101    9.6250 F   0  0  0  0  0  0  0  0  0  0  0  0
    8.6310   -2.4081    7.4966 C   0  0  0  0  0  0  0  0  0  0  0  0
    8.1514   -2.3029    6.1806 C   0  0  0  0  0  0  0  0  0  0  0  0
    8.2291   -3.4033    5.3037 C   0  0  0  0  0  0  0  0  0  0  0  0
    7.7302   -3.2742    3.9988 C   0  0  0  0  0  0  0  0  0  0  0  0
    7.7021   -4.2533    2.8771 C   0  0  0  0  0  0  0  0  0  0  0  0
    7.7180   -5.6075    2.9865 C   0  0  0  0  0  0  0  0  0  0  0  0
    7.8933   -6.2793    4.2480 C   0  0  0  0  0  0  0  0  0  0  0  0
    8.0364   -6.8347    5.2544 N   0  0  0  0  0  0  0  0  0  0  0  0
    7.4169   -6.4784    1.8784 C   0  0  0  0  0  0  0  0  0  0  0  0
    7.1747   -7.1838    0.9953 N   0  0  0  0  0  0  0  0  0  0  0  0
    7.3400   -2.9110   -0.7770 C   0  0  0  0  0  0  0  0  0  0  0  0
    6.5007   -3.4031   -2.1830 S   0  0  0  0  0  0  0  0  0  0  0  0
    6.7755   -1.9473   -2.9577 C   0  0  0  0  0  0  0  0  0  0  0  0
    6.1635   -1.1967   -3.9151 C   0  0  0  0  0  0  0  0  0  0  0  0
    6.4761    0.1017   -3.6454 C   0  0  0  0  0  0  0  0  0  0  0  0
    7.2857    0.2105   -2.5579 N   0  0  0  0  0  0  0  0  0  0  0  0
    7.6399    1.4200   -1.8088 C   0  0  0  0  0  0  0  0  0  0  0  0
    9.1482    1.6402   -1.8420 C   0  0  0  0  0  0  0  0  0  0  0  0
    7.4411   -1.0755   -2.1536 C   0  0  0  0  0  0  0  0  0  0  0  0
    7.8041   -1.5913   -0.9117 C   0  0  0  0  0  0  0  0  0  0  0  0
    5.6105    1.0309   -4.2200 C   0  0  0  0  0  0  0  0  0  0  0  0
    4.5999    0.3888   -4.9607 C   0  0  0  0  0  0  0  0  0  0  0  0
    4.7559   -1.3084   -4.8032 S   0  0  0  0  0  0  0  0  0  0  0  0
    3.3991    1.0701   -5.4933 C   0  0  0  0  0  0  0  0  0  0  0  0
    2.4305    0.5268   -6.3705 C   0  0  0  0  0  0  0  0  0  0  0  0
    2.5546   -0.7657   -7.0778 C   0  0  0  0  0  0  0  0  0  0  0  0
    1.5976   -1.7759   -6.8950 C   0  0  0  0  0  0  0  0  0  0  0  0
    1.7591   -3.0182   -7.5148 C   0  0  0  0  0  0  0  0  0  0  0  0
    2.8787   -3.2629   -8.3148 C   0  0  0  0  0  0  0  0  0  0  0  0
    3.8401   -2.2598   -8.5125 C   0  0  0  0  0  0  0  0  0  0  0  0
    5.0803   -2.5401   -9.3223 C   0  0  0  0  0  0  0  0  0  0  0  0
    6.2164   -3.0142   -8.4220 C   0  0  0  0  0  0  0  0  0  0  0  0
    3.6704   -1.0127   -7.8934 C   0  0  0  0  0  0  0  0  0  0  0  0
    1.2875    1.3357   -6.4138 C   0  0  0  0  0  0  0  0  0  0  0  0
   -0.3208    1.0331   -6.9066 S   0  0  0  0  0  0  0  0  0  0  0  0
   -0.8807    2.4075   -6.0781 C   0  0  0  0  0  0  0  0  0  0  0  0
   -2.0377    2.7016   -5.4032 C   0  0  0  0  0  0  0  0  0  0  0  0
   -3.3551    2.2717   -5.5776 C   0  0  0  0  0  0  0  0  0  0  0  0
   -4.3357    2.6714   -4.6223 C   0  0  0  0  0  0  0  0  0  0  0  0
   -5.5996    2.2185   -4.8148 N   0  0  0  0  0  0  0  0  0  0  0  0
   -5.3802    1.3578   -6.2150 S   0  0  0  0  0  0  0  0  0  0  0  0
   -3.7768    1.4955   -6.6087 N   0  0  0  0  0  0  0  0  0  0  0  0
   -3.9293    3.4187   -3.5053 C   0  0  0  0  0  0  0  0  0  0  0  0
   -4.5561    3.5742   -2.2998 C   0  0  0  0  0  0  0  0  0  0  0  0
   -5.9255    2.8584   -1.5893 S   0  0  0  0  0  0  0  0  0  0  0  0
   -5.2677    3.0627   -0.0380 C   0  0  0  0  0  0  0  0  0  0  0  0
   -5.6821    2.6482    1.2261 C   0  0  0  0  0  0  0  0  0  0  0  0
   -6.9605    1.9610    1.4731 C   0  0  0  0  0  0  0  0  0  0  0  0
   -7.9720    2.5851    2.2166 C   0  0  0  0  0  0  0  0  0  0  0  0
   -9.1418    1.8915    2.5305 C   0  0  0  0  0  0  0  0  0  0  0  0
   -9.3085    0.5697    2.1126 C   0  0  0  0  0  0  0  0  0  0  0  0
   -8.3055   -0.0666    1.3627 C   0  0  0  0  0  0  0  0  0  0  0  0
   -8.4899   -1.4880    0.8950 C   0  0  0  0  0  0  0  0  0  0  0  0
   -9.1678   -1.5258   -0.4725 C   0  0  0  0  0  0  0  0  0  0  0  0
   -7.1395    0.6432    1.0275 C   0  0  0  0  0  0  0  0  0  0  0  0
   -4.6994    2.9219    2.2012 C   0  0  0  0  0  0  0  0  0  0  0  0
   -3.3451    3.6321    1.4509 S   0  0  0  0  0  0  0  0  0  0  0  0
   -4.0165    3.6184   -0.0886 C   0  0  0  0  0  0  0  0  0  0  0  0
   -3.5991    3.9064   -1.3884 C   0  0  0  0  0  0  0  0  0  0  0  0
   -2.3582    4.0045   -1.9435 N   0  0  0  0  0  0  0  0  0  0  0  0
   -2.5851    3.7611   -3.2831 C   0  0  0  0  0  0  0  0  0  0  0  0
   -1.6492    3.4966   -4.3175 C   0  0  0  0  0  0  0  0  0  0  0  0
   -0.3153    3.7714   -4.3711 N   0  0  0  0  0  0  0  0  0  0  0  0
    0.1238    3.0574   -5.4309 C   0  0  0  0  0  0  0  0  0  0  0  0
    1.3547    2.4629   -5.6353 C   0  0  0  0  0  0  0  0  0  0  0  0
    2.8016    2.5125   -4.8068 S   0  0  0  0  0  0  0  0  0  0  0  0
    0.3573    4.9646   -3.8455 C   0  0  0  0  0  0  0  0  0  0  0  0
    0.6812    5.9565   -4.9680 C   0  0  0  0  0  0  0  0  0  0  0  0
   -1.1177    3.7303   -1.2030 C   0  0  0  0  0  0  0  0  0  0  0  0
   -0.6388    4.9537   -0.4191 C   0  0  0  0  0  0  0  0  0  0  0  0
   -4.7590    2.5773    3.6363 C   0  0  0  0  0  0  0  0  0  0  0  0
   -4.0900    3.2293    4.6677 C   0  0  0  0  0  0  0  0  0  0  0  0
   -4.4275    2.7454    5.9454 C   0  0  0  0  0  0  0  0  0  0  0  0
   -3.8730    3.5592    7.4491 S   0  0  0  0  0  0  0  0  0  0  0  0
   -2.4840    2.4204    7.7602 C   0  0  0  0  0  0  0  0  0  0  0  0
   -1.2642    2.8097    6.9379 C   0  0  0  0  0  0  0  0  0  0  0  0
   -5.3253    1.6750    5.9267 C   0  0  0  0  0  0  0  0  0  0  0  0
   -5.7371    1.4010    4.3207 S   0  0  0  0  0  0  0  0  0  0  0  0
   -6.0719    1.1349    7.0787 C   0  0  0  0  0  0  0  0  0  0  0  0
   -6.7380   -0.0367    7.0355 C   0  0  0  0  0  0  0  0  0  0  0  0
   -6.3678   -1.1850    6.1984 C   0  0  0  0  0  0  0  0  0  0  0  0
   -5.3342   -1.2862    5.4879 O   0  0  0  0  0  0  0  0  0  0  0  0
   -7.2968   -2.2575    6.4480 C   0  0  0  0  0  0  0  0  0  0  0  0
   -7.3072   -3.5226    5.8637 C   0  0  0  0  0  0  0  0  0  0  0  0
   -8.3019   -4.4340    6.2534 C   0  0  0  0  0  0  0  0  0  0  0  0
   -8.3462   -5.7208    5.6975 C   0  0  0  0  0  0  0  0  0  0  0  0
   -9.3400   -6.6207    6.0899 C   0  0  0  0  0  0  0  0  0  0  0  0
  -10.3092   -6.2386    7.0244 C   0  0  0  0  0  0  0  0  0  0  0  0
  -11.2709   -7.1150    7.4022 F   0  0  0  0  0  0  0  0  0  0  0  0
  -10.2687   -4.9633    7.5961 C   0  0  0  0  0  0  0  0  0  0  0  0
   -9.2641   -4.0542    7.2299 C   0  0  0  0  0  0  0  0  0  0  0  0
   -9.2002   -2.7802    7.8282 C   0  0  0  0  0  0  0  0  0  0  0  0
   -8.2012   -1.8745    7.4212 C   0  0  0  0  0  0  0  0  0  0  0  0
   -7.9330   -0.4603    7.8377 C   0  0  0  0  0  0  0  0  0  0  0  0
   -8.7448    0.3389    8.5888 C   0  0  0  0  0  0  0  0  0  0  0  0
   -9.9780   -0.1202    9.1770 C   0  0  0  0  0  0  0  0  0  0  0  0
  -10.9809   -0.4595    9.6511 N   0  0  0  0  0  0  0  0  0  0  0  0
   -8.5226    1.7531    8.7451 C   0  0  0  0  0  0  0  0  0  0  0  0
   -8.3671    2.8928    8.8728 N   0  0  0  0  0  0  0  0  0  0  0  0
    7.9153   -4.7782    0.1234 H   0  0  0  0  0  0  0  0  0  0  0  0
    6.7504   -0.0143    4.0311 H   0  0  0  0  0  0  0  0  0  0  0  0
    7.1244    0.9697    6.2812 H   0  0  0  0  0  0  0  0  0  0  0  0
    7.9790    0.7520    8.5849 H   0  0  0  0  0  0  0  0  0  0  0  0
    9.0583   -3.3364    7.8578 H   0  0  0  0  0  0  0  0  0  0  0  0
    8.7042   -4.3121    5.6368 H   0  0  0  0  0  0  0  0  0  0  0  0
    7.1372    2.3110   -2.2387 H   0  0  0  0  0  0  0  0  0  0  0  0
    7.3057    1.3189   -0.7508 H   0  0  0  0  0  0  0  0  0  0  0  0
    9.4030    2.5571   -1.2705 H   0  0  0  0  0  0  0  0  0  0  0  0
    9.6759    0.7762   -1.3860 H   0  0  0  0  0  0  0  0  0  0  0  0
    9.4929    1.7650   -2.8910 H   0  0  0  0  0  0  0  0  0  0  0  0
    8.3064   -1.0266   -0.1372 H   0  0  0  0  0  0  0  0  0  0  0  0
    5.6329    2.0917   -4.0179 H   0  0  0  0  0  0  0  0  0  0  0  0
    0.7424   -1.6173   -6.2477 H   0  0  0  0  0  0  0  0  0  0  0  0
    1.0249   -3.7975   -7.3570 H   0  0  0  0  0  0  0  0  0  0  0  0
    3.0065   -4.2403   -8.7644 H   0  0  0  0  0  0  0  0  0  0  0  0
    5.3984   -1.6200   -9.8628 H   0  0  0  0  0  0  0  0  0  0  0  0
    4.8706   -3.3162  -10.0899 H   0  0  0  0  0  0  0  0  0  0  0  0
    7.1202   -3.2080   -9.0386 H   0  0  0  0  0  0  0  0  0  0  0  0
    6.4644   -2.2364   -7.6687 H   0  0  0  0  0  0  0  0  0  0  0  0
    5.9339   -3.9540   -7.9010 H   0  0  0  0  0  0  0  0  0  0  0  0
    4.4190   -0.2401   -8.0248 H   0  0  0  0  0  0  0  0  0  0  0  0
   -7.8425    3.6009    2.5692 H   0  0  0  0  0  0  0  0  0  0  0  0
   -9.9115    2.3760    3.1215 H   0  0  0  0  0  0  0  0  0  0  0  0
  -10.2165    0.0405    2.3741 H   0  0  0  0  0  0  0  0  0  0  0  0
   -9.1090   -2.0532    1.6216 H   0  0  0  0  0  0  0  0  0  0  0  0
   -7.5059   -2.0028    0.8304 H   0  0  0  0  0  0  0  0  0  0  0  0
   -8.5331   -1.0095   -1.2250 H   0  0  0  0  0  0  0  0  0  0  0  0
   -9.3095   -2.5800   -0.7915 H   0  0  0  0  0  0  0  0  0  0  0  0
  -10.1631   -1.0280   -0.4262 H   0  0  0  0  0  0  0  0  0  0  0  0
   -6.3614    0.1587    0.4468 H   0  0  0  0  0  0  0  0  0  0  0  0
    1.3053    4.6770   -3.3324 H   0  0  0  0  0  0  0  0  0  0  0  0
   -0.3026    5.4954   -3.1360 H   0  0  0  0  0  0  0  0  0  0  0  0
    1.4493    5.5290   -5.6443 H   0  0  0  0  0  0  0  0  0  0  0  0
   -0.2354    6.1883   -5.5516 H   0  0  0  0  0  0  0  0  0  0  0  0
    1.0769    6.9001   -4.5374 H   0  0  0  0  0  0  0  0  0  0  0  0
   -1.2864    2.8977   -0.4827 H   0  0  0  0  0  0  0  0  0  0  0  0
   -0.3110    3.3764   -1.8729 H   0  0  0  0  0  0  0  0  0  0  0  0
   -0.6533    5.8733   -1.0355 H   0  0  0  0  0  0  0  0  0  0  0  0
    0.3947    4.7774   -0.0588 H   0  0  0  0  0  0  0  0  0  0  0  0
   -1.2819    5.1348    0.4617 H   0  0  0  0  0  0  0  0  0  0  0  0
   -3.4299    4.0727    4.5088 H   0  0  0  0  0  0  0  0  0  0  0  0
   -2.2226    2.4841    8.8344 H   0  0  0  0  0  0  0  0  0  0  0  0
   -2.7774    1.3733    7.5382 H   0  0  0  0  0  0  0  0  0  0  0  0
   -1.4684    2.6825    5.8542 H   0  0  0  0  0  0  0  0  0  0  0  0
   -0.9874    3.8658    7.1404 H   0  0  0  0  0  0  0  0  0  0  0  0
   -0.4070    2.1590    7.2161 H   0  0  0  0  0  0  0  0  0  0  0  0
   -6.1736    1.7848    7.9284 H   0  0  0  0  0  0  0  0  0  0  0  0
   -6.5623   -3.7905    5.1244 H   0  0  0  0  0  0  0  0  0  0  0  0
   -7.6120   -6.0357    4.9640 H   0  0  0  0  0  0  0  0  0  0  0  0
   -9.3676   -7.6143    5.6584 H   0  0  0  0  0  0  0  0  0  0  0  0
  -11.0180   -4.6885    8.3294 H   0  0  0  0  0  0  0  0  0  0  0  0
   -9.9089   -2.5387    8.5981 H   0  0  0  0  0  0  0  0  0  0  0  0
  1  2  2  3
  2  3  1  0
  3  4  2  0
  3  5  1  0
  5  6  2  0
  6  7  1  0
  7  8  2  0
  8  9  1  0
  9 10  2  0
 10 11  1  0
 10 12  1  0
 12 13  2  0
 13 14  1  0
 14 15  2  0
 15 16  1  0
 16 17  2  3
 17 18  1  0
 18 19  3  0
 17 20  1  0
 20 21  3  0
  1 22  1  0
 22 23  1  0
 23 24  1  0
 24 25  1  0
 25 26  2  0
 26 27  1  0
 27 28  1  0
 28 29  1  0
 27 30  1  0
 30 31  1  0
 26 32  1  0
 32 33  2  0
 33 34  1  0
 33 35  1  0
 35 36  2  0
 36 37  1  0
 37 38  2  0
 38 39  1  0
 39 40  2  0
 40 41  1  0
 41 42  1  0
 42 43  1  0
 41 44  2  0
 36 45  1  0
 45 46  1  0
 46 47  1  0
 47 48  1  0
 48 49  1  0
 49 50  1  0
 50 51  2  0
 51 52  1  0
 52 53  1  0
 50 54  1  0
 54 55  1  0
 55 56  1  0
 56 57  1  0
 57 58  1  0
 58 59  1  0
 59 60  2  0
 60 61  1  0
 61 62  2  0
 62 63  1  0
 63 64  1  0
 64 65  1  0
 63 66  2  0
 58 67  2  0
 67 68  1  0
 68 69  1  0
 69 70  1  0
 70 71  1  0
 71 72  1  0
 72 73  1  0
 73 74  1  0
 74 75  1  0
 75 76  1  0
 76 77  1  0
 74 78  1  0
 78 79  1  0
 71 80  1  0
 80 81  1  0
 67 82  1  0
 82 83  2  0
 83 84  1  0
 84 85  1  0
 85 86  1  0
 86 87  1  0
 84 88  2  0
 88 89  1  0
 88 90  1  0
 90 91  2  3
 91 92  1  0
 92 93  2  0
 92 94  1  0
 94 95  2  0
 95 96  1  0
 96 97  2  0
 97 98  1  0
 98 99  2  0
 99100  1  0
 99101  1  0
101102  2  0
102103  1  0
103104  2  0
104105  1  0
105106  2  3
106107  1  0
107108  3  0
106109  1  0
109110  3  0
 16  2  1  0
 31 22  2  0
 77 35  1  0
 89 82  1  0
105 91  1  0
 15  5  1  0
 30 24  2  0
 44 37  1  0
 76 45  2  0
104 94  1  0
 13  7  1  0
 34 25  1  0
 75 47  2  0
102 96  1  0
 73 48  2  0
 53 49  2  0
 72 54  2  0
 70 55  2  0
 69 57  2  0
 66 59  1  0
  1111  1  0
  6112  1  0
  8113  1  0
  9114  1  0
 12115  1  0
 14116  1  0
 28117  1  0
 28118  1  0
 29119  1  0
 29120  1  0
 29121  1  0
 31122  1  0
 32123  1  0
 38124  1  0
 39125  1  0
 40126  1  0
 42127  1  0
 42128  1  0
 43129  1  0
 43130  1  0
 43131  1  0
 44132  1  0
 60133  1  0
 61134  1  0
 62135  1  0
 64136  1  0
 64137  1  0
 65138  1  0
 65139  1  0
 65140  1  0
 66141  1  0
 78142  1  0
 78143  1  0
 79144  1  0
 79145  1  0
 79146  1  0
 80147  1  0
 80148  1  0
 81149  1  0
 81150  1  0
 81151  1  0
 83152  1  0
 86153  1  0
 86154  1  0
 87155  1  0
 87156  1  0
 87157  1  0
 90158  1  0
 95159  1  0
 97160  1  0
 98161  1  0
101162  1  0
103163  1  0
M  END

