
     RDKit          3D

193215  0  0  0  0  0  0  0  0999 V2000
   -5.7474    3.1803   -8.3754 C   0  0  0  0  0  0  0  0  0  0  0  0
   -6.5722    2.5259   -7.5321 C   0  0  0  0  0  0  0  0  0  0  0  0
   -8.0107    2.7908   -7.4479 C   0  0  0  0  0  0  0  0  0  0  0  0
   -8.7279    3.2885   -8.3564 O   0  0  0  0  0  0  0  0  0  0  0  0
   -8.4495    2.4938   -6.0909 C   0  0  0  0  0  0  0  0  0  0  0  0
   -9.6816    2.7648   -5.4935 C   0  0  0  0  0  0  0  0  0  0  0  0
   -9.8168    2.5530   -4.1072 C   0  0  0  0  0  0  0  0  0  0  0  0
  -11.0323    2.8225   -3.4582 C   0  0  0  0  0  0  0  0  0  0  0  0
  -11.1459    2.6370   -2.0766 C   0  0  0  0  0  0  0  0  0  0  0  0
  -10.0442    2.2077   -1.3274 C   0  0  0  0  0  0  0  0  0  0  0  0
  -10.1603    2.0639    0.0156 F   0  0  0  0  0  0  0  0  0  0  0  0
   -8.8272    1.9393   -1.9568 C   0  0  0  0  0  0  0  0  0  0  0  0
   -8.7019    2.0957   -3.3459 C   0  0  0  0  0  0  0  0  0  0  0  0
   -7.4765    1.8246   -3.9835 C   0  0  0  0  0  0  0  0  0  0  0  0
   -7.3794    2.0007   -5.3669 C   0  0  0  0  0  0  0  0  0  0  0  0
   -6.2102    1.8309   -6.2618 C   0  0  0  0  0  0  0  0  0  0  0  0
   -5.2338    0.9030   -6.1141 C   0  0  0  0  0  0  0  0  0  0  0  0
   -4.3418    0.5506   -7.1870 C   0  0  0  0  0  0  0  0  0  0  0  0
   -3.6046    0.2584   -8.0264 N   0  0  0  0  0  0  0  0  0  0  0  0
   -5.1458    0.0686   -4.9446 C   0  0  0  0  0  0  0  0  0  0  0  0
   -5.0764   -0.6208   -4.0180 N   0  0  0  0  0  0  0  0  0  0  0  0
   -4.3792    3.5551   -7.9671 C   0  0  0  0  0  0  0  0  0  0  0  0
   -4.0617    4.1109   -6.7312 C   0  0  0  0  0  0  0  0  0  0  0  0
   -2.6816    4.1761   -6.4997 C   0  0  0  0  0  0  0  0  0  0  0  0
   -2.0774    4.5474   -5.2842 C   0  0  0  0  0  0  0  0  0  0  0  0
   -2.8821    5.0029   -4.1240 C   0  0  0  0  0  0  0  0  0  0  0  0
   -3.6640    6.1678   -4.2149 C   0  0  0  0  0  0  0  0  0  0  0  0
   -4.4232    6.5901   -3.1213 C   0  0  0  0  0  0  0  0  0  0  0  0
   -4.3998    5.8634   -1.9273 C   0  0  0  0  0  0  0  0  0  0  0  0
   -3.6216    4.7053   -1.8230 C   0  0  0  0  0  0  0  0  0  0  0  0
   -3.5246    3.8241   -0.2616 S   0  0  0  0  0  0  0  0  0  0  0  0
   -4.8731    2.6517   -0.6410 C   0  0  0  0  0  0  0  0  0  0  0  0
   -4.3190    1.3925   -1.2920 C   0  0  0  0  0  0  0  0  0  0  0  0
   -2.8704    4.2727   -2.9207 C   0  0  0  0  0  0  0  0  0  0  0  0
   -0.6960    4.3232   -5.1746 C   0  0  0  0  0  0  0  0  0  0  0  0
    0.0660    3.7317   -6.1873 C   0  0  0  0  0  0  0  0  0  0  0  0
   -0.5315    3.4145   -7.4314 C   0  0  0  0  0  0  0  0  0  0  0  0
    0.2245    2.7249   -8.4994 C   0  0  0  0  0  0  0  0  0  0  0  0
    0.3924    3.3220   -9.7577 C   0  0  0  0  0  0  0  0  0  0  0  0
    1.1629    2.6895  -10.7390 C   0  0  0  0  0  0  0  0  0  0  0  0
    1.7695    1.4598  -10.4687 C   0  0  0  0  0  0  0  0  0  0  0  0
    1.5760    0.8398   -9.2271 C   0  0  0  0  0  0  0  0  0  0  0  0
    2.3429   -0.7424   -8.8675 S   0  0  0  0  0  0  0  0  0  0  0  0
    0.8576   -1.7244   -9.2831 C   0  0  0  0  0  0  0  0  0  0  0  0
    0.8528   -2.0893  -10.7577 C   0  0  0  0  0  0  0  0  0  0  0  0
    0.8002    1.4688   -8.2477 C   0  0  0  0  0  0  0  0  0  0  0  0
   -1.9152    3.6692   -7.5584 C   0  0  0  0  0  0  0  0  0  0  0  0
   -2.9549    3.1986   -8.8047 S   0  0  0  0  0  0  0  0  0  0  0  0
    1.3741    3.4067   -5.7653 C   0  0  0  0  0  0  0  0  0  0  0  0
    1.6263    3.7563   -4.4369 C   0  0  0  0  0  0  0  0  0  0  0  0
    0.2448    4.4749   -3.8011 S   0  0  0  0  0  0  0  0  0  0  0  0
    2.5736    3.0755   -3.5463 C   0  0  0  0  0  0  0  0  0  0  0  0
    3.9228    3.4259   -3.3085 C   0  0  0  0  0  0  0  0  0  0  0  0
    4.7683    4.1956   -4.2382 C   0  0  0  0  0  0  0  0  0  0  0  0
    5.5267    5.2847   -3.7890 C   0  0  0  0  0  0  0  0  0  0  0  0
    6.3861    5.9515   -4.6688 C   0  0  0  0  0  0  0  0  0  0  0  0
    6.4884    5.5390   -5.9994 C   0  0  0  0  0  0  0  0  0  0  0  0
    5.7296    4.4562   -6.4641 C   0  0  0  0  0  0  0  0  0  0  0  0
    5.8743    3.9769   -7.8836 C   0  0  0  0  0  0  0  0  0  0  0  0
    6.8774    2.8311   -7.9703 C   0  0  0  0  0  0  0  0  0  0  0  0
    4.8779    3.7818   -5.5763 C   0  0  0  0  0  0  0  0  0  0  0  0
    4.3696    2.8879   -2.0953 C   0  0  0  0  0  0  0  0  0  0  0  0
    5.7865    3.0571   -1.1385 S   0  0  0  0  0  0  0  0  0  0  0  0
    5.1174    2.0895    0.0947 C   0  0  0  0  0  0  0  0  0  0  0  0
    5.3114    1.7859    1.4236 C   0  0  0  0  0  0  0  0  0  0  0  0
    6.2844    2.1647    2.3630 C   0  0  0  0  0  0  0  0  0  0  0  0
    6.0858    1.8139    3.7408 C   0  0  0  0  0  0  0  0  0  0  0  0
    7.0550    2.1889    4.6115 N   0  0  0  0  0  0  0  0  0  0  0  0
    8.0887    2.9619    3.5675 S   0  0  0  0  0  0  0  0  0  0  0  0
    7.4081    2.8595    2.0591 N   0  0  0  0  0  0  0  0  0  0  0  0
    4.9467    1.0725    4.0950 C   0  0  0  0  0  0  0  0  0  0  0  0
    4.5666    0.4289    5.2474 C   0  0  0  0  0  0  0  0  0  0  0  0
    5.0842    0.1737    6.8502 S   0  0  0  0  0  0  0  0  0  0  0  0
    3.9094   -1.0531    7.0805 C   0  0  0  0  0  0  0  0  0  0  0  0
    3.5541   -1.9052    8.1375 C   0  0  0  0  0  0  0  0  0  0  0  0
    4.0609   -1.7914    9.5195 C   0  0  0  0  0  0  0  0  0  0  0  0
    4.4422   -2.9329   10.2406 C   0  0  0  0  0  0  0  0  0  0  0  0
    4.8698   -2.8188   11.5664 C   0  0  0  0  0  0  0  0  0  0  0  0
    4.8985   -1.5693   12.1923 C   0  0  0  0  0  0  0  0  0  0  0  0
    4.5010   -0.4217   11.4889 C   0  0  0  0  0  0  0  0  0  0  0  0
    4.5283    0.9268   12.1587 C   0  0  0  0  0  0  0  0  0  0  0  0
    5.8674    1.6195   11.9188 C   0  0  0  0  0  0  0  0  0  0  0  0
    4.1019   -0.5368   10.1487 C   0  0  0  0  0  0  0  0  0  0  0  0
    2.5731   -2.8278    7.7153 C   0  0  0  0  0  0  0  0  0  0  0  0
    2.1480   -2.5435    6.0925 S   0  0  0  0  0  0  0  0  0  0  0  0
    3.2066   -1.2686    5.9236 C   0  0  0  0  0  0  0  0  0  0  0  0
    3.5427   -0.3991    4.9090 C   0  0  0  0  0  0  0  0  0  0  0  0
    3.1939   -0.3261    3.6052 N   0  0  0  0  0  0  0  0  0  0  0  0
    4.0184    0.6530    3.1291 C   0  0  0  0  0  0  0  0  0  0  0  0
    4.1444    1.1144    1.8092 C   0  0  0  0  0  0  0  0  0  0  0  0
    3.1982    1.1407    0.8304 N   0  0  0  0  0  0  0  0  0  0  0  0
    3.8591    1.6788   -0.2178 C   0  0  0  0  0  0  0  0  0  0  0  0
    3.4367    2.1275   -1.4456 C   0  0  0  0  0  0  0  0  0  0  0  0
    1.9992    2.0861   -2.2835 S   0  0  0  0  0  0  0  0  0  0  0  0
    1.7465    1.2478    1.0441 C   0  0  0  0  0  0  0  0  0  0  0  0
    1.3145    2.7143    1.1866 C   0  0  0  0  0  0  0  0  0  0  0  0
    2.6030   -1.4355    2.8391 C   0  0  0  0  0  0  0  0  0  0  0  0
    1.1028   -1.5883    3.1144 C   0  0  0  0  0  0  0  0  0  0  0  0
    1.8933   -3.8514    8.5109 C   0  0  0  0  0  0  0  0  0  0  0  0
    0.8079   -3.6088    9.3415 C   0  0  0  0  0  0  0  0  0  0  0  0
    0.1549   -2.3654    9.7471 C   0  0  0  0  0  0  0  0  0  0  0  0
    0.6786   -1.2216    9.7450 O   0  0  0  0  0  0  0  0  0  0  0  0
   -1.2053   -2.6304   10.0931 N   0  0  0  0  0  0  0  0  0  0  0  0
   -2.2167   -1.6703   10.5142 C   0  0  0  0  0  0  0  0  0  0  0  0
   -1.3837   -4.0353    9.8963 C   0  0  0  0  0  0  0  0  0  0  0  0
   -2.4653   -4.6456   10.1004 O   0  0  0  0  0  0  0  0  0  0  0  0
   -0.1366   -4.6270    9.4124 C   0  0  0  0  0  0  0  0  0  0  0  0
    0.1269   -5.7578    8.6323 C   0  0  0  0  0  0  0  0  0  0  0  0
    1.5965   -5.3860    7.8755 S   0  0  0  0  0  0  0  0  0  0  0  0
   -0.9163   -6.6718    8.1008 C   0  0  0  0  0  0  0  0  0  0  0  0
   -0.7472   -7.5530    7.0923 C   0  0  0  0  0  0  0  0  0  0  0  0
    0.5247   -7.9291    6.4628 C   0  0  0  0  0  0  0  0  0  0  0  0
    1.6027   -8.1736    7.0667 O   0  0  0  0  0  0  0  0  0  0  0  0
    0.2912   -8.1430    5.0525 C   0  0  0  0  0  0  0  0  0  0  0  0
    1.2342   -8.2422    4.0334 C   0  0  0  0  0  0  0  0  0  0  0  0
    0.7852   -8.2697    2.7016 C   0  0  0  0  0  0  0  0  0  0  0  0
    1.6992   -8.3374    1.6409 C   0  0  0  0  0  0  0  0  0  0  0  0
    1.2464   -8.3245    0.3182 C   0  0  0  0  0  0  0  0  0  0  0  0
   -0.1212   -8.2395    0.0437 C   0  0  0  0  0  0  0  0  0  0  0  0
   -0.5538   -8.2126   -1.2400 F   0  0  0  0  0  0  0  0  0  0  0  0
   -1.0465   -8.1688    1.0884 C   0  0  0  0  0  0  0  0  0  0  0  0
   -0.6098   -8.1895    2.4219 C   0  0  0  0  0  0  0  0  0  0  0  0
   -1.5372   -8.0901    3.4783 C   0  0  0  0  0  0  0  0  0  0  0  0
   -1.0672   -8.0780    4.8007 C   0  0  0  0  0  0  0  0  0  0  0  0
   -1.7979   -7.8760    6.0845 C   0  0  0  0  0  0  0  0  0  0  0  0
   -3.1067   -8.1214    6.3304 C   0  0  0  0  0  0  0  0  0  0  0  0
   -4.0189   -8.5419    5.2973 C   0  0  0  0  0  0  0  0  0  0  0  0
   -4.7641   -8.8831    4.4773 N   0  0  0  0  0  0  0  0  0  0  0  0
   -3.6365   -8.1361    7.6703 C   0  0  0  0  0  0  0  0  0  0  0  0
   -4.0707   -8.1515    8.7440 N   0  0  0  0  0  0  0  0  0  0  0  0
   -6.1557    3.6887   -9.2362 H   0  0  0  0  0  0  0  0  0  0  0  0
  -10.5009    3.1581   -6.0843 H   0  0  0  0  0  0  0  0  0  0  0  0
  -11.8936    3.1717   -4.0183 H   0  0  0  0  0  0  0  0  0  0  0  0
  -12.0881    2.8308   -1.5811 H   0  0  0  0  0  0  0  0  0  0  0  0
   -7.9804    1.6177   -1.3610 H   0  0  0  0  0  0  0  0  0  0  0  0
   -6.6190    1.5279   -3.3979 H   0  0  0  0  0  0  0  0  0  0  0  0
   -4.8119    4.3847   -6.0004 H   0  0  0  0  0  0  0  0  0  0  0  0
   -3.6741    6.7470   -5.1295 H   0  0  0  0  0  0  0  0  0  0  0  0
   -5.0145    7.4918   -3.1935 H   0  0  0  0  0  0  0  0  0  0  0  0
   -4.9713    6.2130   -1.0779 H   0  0  0  0  0  0  0  0  0  0  0  0
   -5.3635    2.3643    0.3150 H   0  0  0  0  0  0  0  0  0  0  0  0
   -5.6405    3.1152   -1.2971 H   0  0  0  0  0  0  0  0  0  0  0  0
   -3.9085    1.6241   -2.2982 H   0  0  0  0  0  0  0  0  0  0  0  0
   -5.1334    0.6457   -1.4063 H   0  0  0  0  0  0  0  0  0  0  0  0
   -3.5209    0.9515   -0.6570 H   0  0  0  0  0  0  0  0  0  0  0  0
   -2.2751    3.3705   -2.8380 H   0  0  0  0  0  0  0  0  0  0  0  0
   -0.0609    4.2795   -9.9753 H   0  0  0  0  0  0  0  0  0  0  0  0
    1.2917    3.1521  -11.7087 H   0  0  0  0  0  0  0  0  0  0  0  0
    2.3799    0.9836  -11.2273 H   0  0  0  0  0  0  0  0  0  0  0  0
   -0.0712   -1.1733   -9.0266 H   0  0  0  0  0  0  0  0  0  0  0  0
    0.8726   -2.6566   -8.6819 H   0  0  0  0  0  0  0  0  0  0  0  0
    1.7277   -2.7337  -10.9829 H   0  0  0  0  0  0  0  0  0  0  0  0
    0.8907   -1.1765  -11.3862 H   0  0  0  0  0  0  0  0  0  0  0  0
   -0.0733   -2.6551  -10.9986 H   0  0  0  0  0  0  0  0  0  0  0  0
    0.6550    0.9860   -7.2881 H   0  0  0  0  0  0  0  0  0  0  0  0
    2.0757    2.8409   -6.3581 H   0  0  0  0  0  0  0  0  0  0  0  0
    5.4624    5.6108   -2.7583 H   0  0  0  0  0  0  0  0  0  0  0  0
    6.9756    6.7855   -4.3129 H   0  0  0  0  0  0  0  0  0  0  0  0
    7.1710    6.0581   -6.6644 H   0  0  0  0  0  0  0  0  0  0  0  0
    6.2123    4.8096   -8.5357 H   0  0  0  0  0  0  0  0  0  0  0  0
    4.8903    3.6328   -8.2747 H   0  0  0  0  0  0  0  0  0  0  0  0
    7.0162    2.5335   -9.0339 H   0  0  0  0  0  0  0  0  0  0  0  0
    7.8598    3.1427   -7.5564 H   0  0  0  0  0  0  0  0  0  0  0  0
    6.5041    1.9468   -7.4090 H   0  0  0  0  0  0  0  0  0  0  0  0
    4.3425    2.9042   -5.9159 H   0  0  0  0  0  0  0  0  0  0  0  0
    4.4259   -3.9105    9.7729 H   0  0  0  0  0  0  0  0  0  0  0  0
    5.1798   -3.7017   12.1112 H   0  0  0  0  0  0  0  0  0  0  0  0
    5.2264   -1.4988   13.2221 H   0  0  0  0  0  0  0  0  0  0  0  0
    3.7077    1.5648   11.7616 H   0  0  0  0  0  0  0  0  0  0  0  0
    4.3625    0.8183   13.2529 H   0  0  0  0  0  0  0  0  0  0  0  0
    6.0501    1.7475   10.8309 H   0  0  0  0  0  0  0  0  0  0  0  0
    5.8564    2.6207   12.3965 H   0  0  0  0  0  0  0  0  0  0  0  0
    6.6936    1.0226   12.3605 H   0  0  0  0  0  0  0  0  0  0  0  0
    3.7926    0.3503    9.6103 H   0  0  0  0  0  0  0  0  0  0  0  0
    1.4577    0.7631    1.9875 H   0  0  0  0  0  0  0  0  0  0  0  0
    1.1946    0.7566    0.2148 H   0  0  0  0  0  0  0  0  0  0  0  0
    2.0092    3.2565    1.8622 H   0  0  0  0  0  0  0  0  0  0  0  0
    0.2914    2.7636    1.6167 H   0  0  0  0  0  0  0  0  0  0  0  0
    1.2914    3.2173    0.2031 H   0  0  0  0  0  0  0  0  0  0  0  0
    2.7720   -1.3034    1.7516 H   0  0  0  0  0  0  0  0  0  0  0  0
    3.1282   -2.3762    3.1120 H   0  0  0  0  0  0  0  0  0  0  0  0
    0.7752   -0.9388    3.9521 H   0  0  0  0  0  0  0  0  0  0  0  0
    0.8612   -2.6458    3.3610 H   0  0  0  0  0  0  0  0  0  0  0  0
    0.5182   -1.3171    2.2120 H   0  0  0  0  0  0  0  0  0  0  0  0
   -2.3540   -1.7324   11.6153 H   0  0  0  0  0  0  0  0  0  0  0  0
   -1.9090   -0.6403   10.2352 H   0  0  0  0  0  0  0  0  0  0  0  0
   -3.1826   -1.8959   10.0092 H   0  0  0  0  0  0  0  0  0  0  0  0
   -1.9198   -6.4195    8.3893 H   0  0  0  0  0  0  0  0  0  0  0  0
    2.2937   -8.2637    4.2688 H   0  0  0  0  0  0  0  0  0  0  0  0
    2.7644   -8.3920    1.8317 H   0  0  0  0  0  0  0  0  0  0  0  0
    1.9559   -8.3754   -0.4968 H   0  0  0  0  0  0  0  0  0  0  0  0
   -2.1030   -8.0968    0.8616 H   0  0  0  0  0  0  0  0  0  0  0  0
   -2.5846   -7.9698    3.2510 H   0  0  0  0  0  0  0  0  0  0  0  0
  1  2  2  3
  2  3  1  0
  3  4  2  0
  3  5  1  0
  5  6  2  0
  6  7  1  0
  7  8  2  0
  8  9  1  0
  9 10  2  0
 10 11  1  0
 10 12  1  0
 12 13  2  0
 13 14  1  0
 14 15  2  0
 15 16  1  0
 16 17  2  3
 17 18  1  0
 18 19  3  0
 17 20  1  0
 20 21  3  0
  1 22  1  0
 22 23  2  0
 23 24  1  0
 24 25  2  0
 25 26  1  0
 26 27  2  0
 27 28  1  0
 28 29  2  0
 29 30  1  0
 30 31  1  0
 31 32  1  0
 32 33  1  0
 30 34  2  0
 25 35  1  0
 35 36  2  0
 36 37  1  0
 37 38  1  0
 38 39  2  0
 39 40  1  0
 40 41  2  0
 41 42  1  0
 42 43  1  0
 43 44  1  0
 44 45  1  0
 42 46  2  0
 37 47  2  0
 47 48  1  0
 36 49  1  0
 49 50  2  0
 50 51  1  0
 50 52  1  0
 52 53  2  0
 53 54  1  0
 54 55  2  0
 55 56  1  0
 56 57  2  0
 57 58  1  0
 58 59  1  0
 59 60  1  0
 58 61  2  0
 53 62  1  0
 62 63  1  0
 63 64  1  0
 64 65  1  0
 65 66  1  0
 66 67  1  0
 67 68  2  0
 68 69  1  0
 69 70  1  0
 67 71  1  0
 71 72  1  0
 72 73  1  0
 73 74  1  0
 74 75  1  0
 75 76  1  0
 76 77  2  0
 77 78  1  0
 78 79  2  0
 79 80  1  0
 80 81  1  0
 81 82  1  0
 80 83  2  0
 75 84  2  0
 84 85  1  0
 85 86  1  0
 86 87  1  0
 87 88  1  0
 88 89  1  0
 89 90  1  0
 90 91  1  0
 91 92  1  0
 92 93  1  0
 93 94  1  0
 91 95  1  0
 95 96  1  0
 88 97  1  0
 97 98  1  0
 84 99  1  0
 99100  2  0
100101  1  0
101102  2  0
101103  1  0
103104  1  0
103105  1  0
105106  2  0
105107  1  0
107108  2  0
108109  1  0
108110  1  0
110111  2  3
111112  1  0
112113  2  0
112114  1  0
114115  2  0
115116  1  0
116117  2  0
117118  1  0
118119  2  0
119120  1  0
119121  1  0
121122  2  0
122123  1  0
123124  2  0
124125  1  0
125126  2  3
126127  1  0
127128  3  0
126129  1  0
129130  3  0
 16  2  1  0
 48 22  1  0
 94 52  1  0
109 99  1  0
125111  1  0
 15  5  1  0
 47 24  1  0
 61 54  1  0
 93 62  2  0
107100  1  0
124114  1  0
 13  7  1  0
 34 26  1  0
 51 35  1  0
 92 64  2  0
122116  1  0
 46 38  1  0
 90 65  2  0
 70 66  2  0
 89 71  2  0
 87 72  2  0
 86 74  2  0
 83 76  1  0
  1131  1  0
  6132  1  0
  8133  1  0
  9134  1  0
 12135  1  0
 14136  1  0
 23137  1  0
 27138  1  0
 28139  1  0
 29140  1  0
 32141  1  0
 32142  1  0
 33143  1  0
 33144  1  0
 33145  1  0
 34146  1  0
 39147  1  0
 40148  1  0
 41149  1  0
 44150  1  0
 44151  1  0
 45152  1  0
 45153  1  0
 45154  1  0
 46155  1  0
 49156  1  0
 55157  1  0
 56158  1  0
 57159  1  0
 59160  1  0
 59161  1  0
 60162  1  0
 60163  1  0
 60164  1  0
 61165  1  0
 77166  1  0
 78167  1  0
 79168  1  0
 81169  1  0
 81170  1  0
 82171  1  0
 82172  1  0
 82173  1  0
 83174  1  0
 95175  1  0
 95176  1  0
 96177  1  0
 96178  1  0
 96179  1  0
 97180  1  0
 97181  1  0
 98182  1  0
 98183  1  0
 98184  1  0
104185  1  0
104186  1  0
104187  1  0
110188  1  0
115189  1  0
117190  1  0
118191  1  0
121192  1  0
123193  1  0
M  END

