
     RDKit          3D

236263  0  0  0  0  0  0  0  0999 V2000
   -6.6353   -4.7109   -1.4891 C   0  0  0  0  0  0  0  0  0  0  0  0
   -6.2613   -5.6511   -2.3855 C   0  0  0  0  0  0  0  0  0  0  0  0
   -6.2602   -7.0638   -1.9970 C   0  0  0  0  0  0  0  0  0  0  0  0
   -6.5325   -7.5138   -0.8469 O   0  0  0  0  0  0  0  0  0  0  0  0
   -5.7721   -7.8574   -3.0941 C   0  0  0  0  0  0  0  0  0  0  0  0
   -5.4808   -9.2232   -3.0886 C   0  0  0  0  0  0  0  0  0  0  0  0
   -4.9348   -9.8017   -4.2463 C   0  0  0  0  0  0  0  0  0  0  0  0
   -4.6176  -11.1666   -4.2763 C   0  0  0  0  0  0  0  0  0  0  0  0
   -4.1090  -11.7378   -5.4467 C   0  0  0  0  0  0  0  0  0  0  0  0
   -3.9230  -10.9588   -6.5958 C   0  0  0  0  0  0  0  0  0  0  0  0
   -3.4682  -11.5379   -7.7338 F   0  0  0  0  0  0  0  0  0  0  0  0
   -4.2072   -9.5900   -6.5677 C   0  0  0  0  0  0  0  0  0  0  0  0
   -4.7006   -8.9943   -5.3952 C   0  0  0  0  0  0  0  0  0  0  0  0
   -4.9400   -7.6069   -5.3419 C   0  0  0  0  0  0  0  0  0  0  0  0
   -5.4923   -7.0398   -4.1734 C   0  0  0  0  0  0  0  0  0  0  0  0
   -5.7733   -5.6060   -3.8167 C   0  0  0  0  0  0  0  0  0  0  0  0
   -5.7422   -4.5671   -4.6981 C   0  0  0  0  0  0  0  0  0  0  0  0
   -5.5427   -4.7454   -6.1157 C   0  0  0  0  0  0  0  0  0  0  0  0
   -5.3899   -4.8631   -7.2570 N   0  0  0  0  0  0  0  0  0  0  0  0
   -5.9621   -3.1866   -4.3762 C   0  0  0  0  0  0  0  0  0  0  0  0
   -6.1183   -2.0528   -4.2051 N   0  0  0  0  0  0  0  0  0  0  0  0
   -6.2019   -3.3207   -1.4697 C   0  0  0  0  0  0  0  0  0  0  0  0
   -7.0540   -2.2172   -1.4601 C   0  0  0  0  0  0  0  0  0  0  0  0
   -6.3600   -1.0089   -1.2881 C   0  0  0  0  0  0  0  0  0  0  0  0
   -6.8897    0.2959   -1.4086 C   0  0  0  0  0  0  0  0  0  0  0  0
   -8.2886    0.5306   -1.8145 C   0  0  0  0  0  0  0  0  0  0  0  0
   -8.7093    0.2223   -3.1165 C   0  0  0  0  0  0  0  0  0  0  0  0
  -10.0277    0.4607   -3.5079 C   0  0  0  0  0  0  0  0  0  0  0  0
  -10.9391    0.9972   -2.5960 C   0  0  0  0  0  0  0  0  0  0  0  0
  -10.5314    1.2899   -1.2912 C   0  0  0  0  0  0  0  0  0  0  0  0
  -11.7149    1.9570   -0.1164 S   0  0  0  0  0  0  0  0  0  0  0  0
  -12.3779    0.3345    0.3997 C   0  0  0  0  0  0  0  0  0  0  0  0
  -11.4638   -0.3413    1.4131 C   0  0  0  0  0  0  0  0  0  0  0  0
   -9.2014    1.0792   -0.9062 C   0  0  0  0  0  0  0  0  0  0  0  0
   -5.9865    1.3657   -1.2598 C   0  0  0  0  0  0  0  0  0  0  0  0
   -4.6342    1.1603   -0.9646 C   0  0  0  0  0  0  0  0  0  0  0  0
   -4.1192   -0.1356   -0.7964 C   0  0  0  0  0  0  0  0  0  0  0  0
   -2.7489   -0.3690   -0.3116 C   0  0  0  0  0  0  0  0  0  0  0  0
   -1.6389   -0.1488   -1.1389 C   0  0  0  0  0  0  0  0  0  0  0  0
   -0.3462   -0.3090   -0.6277 C   0  0  0  0  0  0  0  0  0  0  0  0
   -0.1632   -0.6798    0.7063 C   0  0  0  0  0  0  0  0  0  0  0  0
   -1.2750   -0.9172    1.5271 C   0  0  0  0  0  0  0  0  0  0  0  0
   -1.0614   -1.3829    3.2484 S   0  0  0  0  0  0  0  0  0  0  0  0
   -0.8650   -3.1611    2.9040 C   0  0  0  0  0  0  0  0  0  0  0  0
   -2.1972   -3.8454    2.6186 C   0  0  0  0  0  0  0  0  0  0  0  0
   -2.5595   -0.7650    1.0184 C   0  0  0  0  0  0  0  0  0  0  0  0
   -5.0009   -1.1997   -1.0168 C   0  0  0  0  0  0  0  0  0  0  0  0
   -4.6330   -2.8335   -1.0899 S   0  0  0  0  0  0  0  0  0  0  0  0
   -3.8862    2.3365   -0.9504 C   0  0  0  0  0  0  0  0  0  0  0  0
   -4.6306    3.4622   -1.2775 C   0  0  0  0  0  0  0  0  0  0  0  0
   -6.2392    3.0161   -1.5388 S   0  0  0  0  0  0  0  0  0  0  0  0
   -4.0135    4.7596   -1.5889 C   0  0  0  0  0  0  0  0  0  0  0  0
   -4.3782    6.0349   -1.1180 C   0  0  0  0  0  0  0  0  0  0  0  0
   -5.4890    6.3044   -0.1798 C   0  0  0  0  0  0  0  0  0  0  0  0
   -5.7148    5.4684    0.9302 C   0  0  0  0  0  0  0  0  0  0  0  0
   -6.7406    5.7578    1.8341 C   0  0  0  0  0  0  0  0  0  0  0  0
   -7.5383    6.8920    1.6541 C   0  0  0  0  0  0  0  0  0  0  0  0
   -7.3269    7.7366    0.5503 C   0  0  0  0  0  0  0  0  0  0  0  0
   -8.1526    8.9860    0.3903 C   0  0  0  0  0  0  0  0  0  0  0  0
   -7.5003   10.1603    1.1122 C   0  0  0  0  0  0  0  0  0  0  0  0
   -6.2970    7.4417   -0.3588 C   0  0  0  0  0  0  0  0  0  0  0  0
   -3.4083    6.9885   -1.4644 C   0  0  0  0  0  0  0  0  0  0  0  0
   -3.0406    8.5102   -0.8055 S   0  0  0  0  0  0  0  0  0  0  0  0
   -1.4949    8.5297   -1.5057 C   0  0  0  0  0  0  0  0  0  0  0  0
   -0.2959    9.0229   -1.0619 C   0  0  0  0  0  0  0  0  0  0  0  0
   -0.0576    9.8555    0.0425 C   0  0  0  0  0  0  0  0  0  0  0  0
    1.2319    9.8414    0.6543 C   0  0  0  0  0  0  0  0  0  0  0  0
    1.3920   10.5805    1.7797 N   0  0  0  0  0  0  0  0  0  0  0  0
   -0.1369   11.2045    1.9180 S   0  0  0  0  0  0  0  0  0  0  0  0
   -1.0142   10.6003    0.6494 N   0  0  0  0  0  0  0  0  0  0  0  0
    2.2396    9.0575    0.0785 C   0  0  0  0  0  0  0  0  0  0  0  0
    3.4789    8.7019    0.5505 C   0  0  0  0  0  0  0  0  0  0  0  0
    3.9857    8.3673    2.1351 S   0  0  0  0  0  0  0  0  0  0  0  0
    4.8863    7.0140    1.6495 C   0  0  0  0  0  0  0  0  0  0  0  0
    5.2356    5.8730    2.3789 C   0  0  0  0  0  0  0  0  0  0  0  0
    5.3012    5.8712    3.8450 C   0  0  0  0  0  0  0  0  0  0  0  0
    4.1720    5.5665    4.6159 C   0  0  0  0  0  0  0  0  0  0  0  0
    4.2286    5.6550    6.0118 C   0  0  0  0  0  0  0  0  0  0  0  0
    5.3936    6.0978    6.6411 C   0  0  0  0  0  0  0  0  0  0  0  0
    6.5137    6.4605    5.8757 C   0  0  0  0  0  0  0  0  0  0  0  0
    7.7674    6.9575    6.5464 C   0  0  0  0  0  0  0  0  0  0  0  0
    8.7137    5.8048    6.8425 C   0  0  0  0  0  0  0  0  0  0  0  0
    6.4652    6.3314    4.4777 C   0  0  0  0  0  0  0  0  0  0  0  0
    5.3810    4.7441    1.5438 C   0  0  0  0  0  0  0  0  0  0  0  0
    5.0483    5.2081   -0.0546 S   0  0  0  0  0  0  0  0  0  0  0  0
    4.7763    6.8253    0.2936 C   0  0  0  0  0  0  0  0  0  0  0  0
    3.9728    7.7732   -0.3350 C   0  0  0  0  0  0  0  0  0  0  0  0
    3.1226    7.5517   -1.3618 N   0  0  0  0  0  0  0  0  0  0  0  0
    2.0177    8.2869   -1.0638 C   0  0  0  0  0  0  0  0  0  0  0  0
    0.6952    8.1599   -1.5676 C   0  0  0  0  0  0  0  0  0  0  0  0
    0.1126    7.0852   -2.2023 N   0  0  0  0  0  0  0  0  0  0  0  0
   -1.2218    7.3637   -2.1697 C   0  0  0  0  0  0  0  0  0  0  0  0
   -2.3219    6.4974   -2.1567 C   0  0  0  0  0  0  0  0  0  0  0  0
   -2.5156    4.8533   -2.3821 S   0  0  0  0  0  0  0  0  0  0  0  0
    0.6524    5.7224   -2.3314 C   0  0  0  0  0  0  0  0  0  0  0  0
    0.6253    5.2519   -3.7882 C   0  0  0  0  0  0  0  0  0  0  0  0
    3.5755    7.1629   -2.7050 C   0  0  0  0  0  0  0  0  0  0  0  0
    4.5536    8.1902   -3.2690 C   0  0  0  0  0  0  0  0  0  0  0  0
    5.3125    3.3273    1.9505 C   0  0  0  0  0  0  0  0  0  0  0  0
    5.8254    2.2664    1.1998 C   0  0  0  0  0  0  0  0  0  0  0  0
    5.2011    1.0344    1.4790 C   0  0  0  0  0  0  0  0  0  0  0  0
    5.4557   -0.2056    0.8545 C   0  0  0  0  0  0  0  0  0  0  0  0
    6.6279   -0.4425   -0.0211 C   0  0  0  0  0  0  0  0  0  0  0  0
    6.8107    0.2557   -1.2223 C   0  0  0  0  0  0  0  0  0  0  0  0
    7.9299   -0.0083   -2.0245 C   0  0  0  0  0  0  0  0  0  0  0  0
    8.8609   -0.9829   -1.6407 C   0  0  0  0  0  0  0  0  0  0  0  0
    8.6728   -1.6913   -0.4519 C   0  0  0  0  0  0  0  0  0  0  0  0
    9.8367   -2.9637    0.0487 S   0  0  0  0  0  0  0  0  0  0  0  0
   10.8422   -1.8534    1.0999 C   0  0  0  0  0  0  0  0  0  0  0  0
   11.3510   -2.6188    2.3105 C   0  0  0  0  0  0  0  0  0  0  0  0
    7.5647   -1.4148    0.3557 C   0  0  0  0  0  0  0  0  0  0  0  0
    4.6149   -1.2770    1.2106 C   0  0  0  0  0  0  0  0  0  0  0  0
    3.6250   -1.1780    2.1882 C   0  0  0  0  0  0  0  0  0  0  0  0
    3.4078    0.0458    2.8575 C   0  0  0  0  0  0  0  0  0  0  0  0
    2.4084    0.1805    3.9378 C   0  0  0  0  0  0  0  0  0  0  0  0
    1.3641    1.1148    3.8333 C   0  0  0  0  0  0  0  0  0  0  0  0
    0.4702    1.2916    4.8935 C   0  0  0  0  0  0  0  0  0  0  0  0
    0.6157    0.5408    6.0660 C   0  0  0  0  0  0  0  0  0  0  0  0
    1.6523   -0.3961    6.1731 C   0  0  0  0  0  0  0  0  0  0  0  0
    1.8662   -1.3281    7.6886 S   0  0  0  0  0  0  0  0  0  0  0  0
    2.9932   -0.1153    8.4655 C   0  0  0  0  0  0  0  0  0  0  0  0
    4.4371   -0.3748    8.0584 C   0  0  0  0  0  0  0  0  0  0  0  0
    2.5327   -0.5866    5.1028 C   0  0  0  0  0  0  0  0  0  0  0  0
    4.2079    1.1358    2.4609 C   0  0  0  0  0  0  0  0  0  0  0  0
    4.1143    2.7285    2.9768 S   0  0  0  0  0  0  0  0  0  0  0  0
    2.8808   -2.3579    2.3455 C   0  0  0  0  0  0  0  0  0  0  0  0
    3.2841   -3.3808    1.4909 C   0  0  0  0  0  0  0  0  0  0  0  0
    4.5342   -2.8049    0.5130 S   0  0  0  0  0  0  0  0  0  0  0  0
    2.4953   -4.6034    1.2540 C   0  0  0  0  0  0  0  0  0  0  0  0
    2.9212   -5.6948    0.5987 C   0  0  0  0  0  0  0  0  0  0  0  0
    4.3068   -6.1659    0.5224 C   0  0  0  0  0  0  0  0  0  0  0  0
    5.3225   -5.5725    0.9595 O   0  0  0  0  0  0  0  0  0  0  0  0
    4.2955   -7.5357    0.0698 C   0  0  0  0  0  0  0  0  0  0  0  0
    5.4138   -8.3853   -0.0853 C   0  0  0  0  0  0  0  0  0  0  0  0
    5.0852   -9.6754   -0.4495 C   0  0  0  0  0  0  0  0  0  0  0  0
    3.7319  -10.1264   -0.6187 C   0  0  0  0  0  0  0  0  0  0  0  0
    2.6321   -9.3025   -0.4608 C   0  0  0  0  0  0  0  0  0  0  0  0
    2.9515   -7.9535   -0.1298 C   0  0  0  0  0  0  0  0  0  0  0  0
    2.0469   -6.7936    0.0898 C   0  0  0  0  0  0  0  0  0  0  0  0
    0.7792   -6.6603   -0.3784 C   0  0  0  0  0  0  0  0  0  0  0  0
    0.1116   -5.3820   -0.4215 C   0  0  0  0  0  0  0  0  0  0  0  0
   -0.4222   -4.3533   -0.4782 N   0  0  0  0  0  0  0  0  0  0  0  0
    0.0845   -7.7212   -1.0549 C   0  0  0  0  0  0  0  0  0  0  0  0
   -0.4819   -8.5607   -1.6174 N   0  0  0  0  0  0  0  0  0  0  0  0
    4.2219  -11.5067   -0.9581 C   0  0  0  0  0  0  0  0  0  0  0  0
    4.1590  -11.9584   -2.4520 C   0  0  0  0  0  0  0  0  0  0  0  0
    4.2917  -10.7578   -3.3535 C   0  0  0  0  0  0  0  0  0  0  0  0
    5.5356  -10.3088   -3.2148 C   0  0  0  0  0  0  0  0  0  0  0  0
    6.2179  -11.2241   -2.2271 C   0  0  0  0  0  0  0  0  0  0  0  0
    5.5573  -12.5327   -2.6177 C   0  0  0  0  0  0  0  0  0  0  0  0
    5.5989  -11.0339   -0.8073 C   0  0  0  0  0  0  0  0  0  0  0  0
   -7.0563   -5.0392   -0.5489 H   0  0  0  0  0  0  0  0  0  0  0  0
   -5.6506   -9.8104   -2.1922 H   0  0  0  0  0  0  0  0  0  0  0  0
   -4.7522  -11.7804   -3.3915 H   0  0  0  0  0  0  0  0  0  0  0  0
   -3.8747  -12.7929   -5.4719 H   0  0  0  0  0  0  0  0  0  0  0  0
   -4.0629   -9.0002   -7.4712 H   0  0  0  0  0  0  0  0  0  0  0  0
   -4.6569   -7.0200   -6.1979 H   0  0  0  0  0  0  0  0  0  0  0  0
   -8.1217   -2.2851   -1.6066 H   0  0  0  0  0  0  0  0  0  0  0  0
   -8.0102   -0.1921   -3.8324 H   0  0  0  0  0  0  0  0  0  0  0  0
  -10.3406    0.2329   -4.5191 H   0  0  0  0  0  0  0  0  0  0  0  0
  -11.9642    1.1681   -2.9024 H   0  0  0  0  0  0  0  0  0  0  0  0
  -12.5233   -0.3252   -0.4836 H   0  0  0  0  0  0  0  0  0  0  0  0
  -13.3736    0.4952    0.8617 H   0  0  0  0  0  0  0  0  0  0  0  0
  -11.9276   -1.2890    1.7574 H   0  0  0  0  0  0  0  0  0  0  0  0
  -10.4833   -0.5796    0.9552 H   0  0  0  0  0  0  0  0  0  0  0  0
  -11.3175    0.3212    2.2873 H   0  0  0  0  0  0  0  0  0  0  0  0
   -8.8882    1.3198    0.1024 H   0  0  0  0  0  0  0  0  0  0  0  0
   -1.7751    0.1592   -2.1675 H   0  0  0  0  0  0  0  0  0  0  0  0
    0.5108   -0.1331   -1.2633 H   0  0  0  0  0  0  0  0  0  0  0  0
    0.8381   -0.7852    1.0998 H   0  0  0  0  0  0  0  0  0  0  0  0
   -0.2000   -3.2909    2.0281 H   0  0  0  0  0  0  0  0  0  0  0  0
   -0.3887   -3.6429    3.7806 H   0  0  0  0  0  0  0  0  0  0  0  0
   -2.9328   -3.6131    3.4151 H   0  0  0  0  0  0  0  0  0  0  0  0
   -2.0419   -4.9451    2.5756 H   0  0  0  0  0  0  0  0  0  0  0  0
   -2.5939   -3.5218    1.6359 H   0  0  0  0  0  0  0  0  0  0  0  0
   -3.4161   -0.9220    1.6648 H   0  0  0  0  0  0  0  0  0  0  0  0
   -2.8225    2.3663   -0.7725 H   0  0  0  0  0  0  0  0  0  0  0  0
   -5.0717    4.6245    1.1233 H   0  0  0  0  0  0  0  0  0  0  0  0
   -6.9024    5.1128    2.6871 H   0  0  0  0  0  0  0  0  0  0  0  0
   -8.3100    7.1171    2.3783 H   0  0  0  0  0  0  0  0  0  0  0  0
   -8.2680    9.2339   -0.6889 H   0  0  0  0  0  0  0  0  0  0  0  0
   -9.1735    8.8257    0.8030 H   0  0  0  0  0  0  0  0  0  0  0  0
   -6.5066   10.3769    0.6699 H   0  0  0  0  0  0  0  0  0  0  0  0
   -8.1410   11.0608    1.0065 H   0  0  0  0  0  0  0  0  0  0  0  0
   -7.3840    9.9322    2.1946 H   0  0  0  0  0  0  0  0  0  0  0  0
   -6.1193    8.1013   -1.1990 H   0  0  0  0  0  0  0  0  0  0  0  0
    3.2487    5.2615    4.1396 H   0  0  0  0  0  0  0  0  0  0  0  0
    3.3610    5.3882    6.6012 H   0  0  0  0  0  0  0  0  0  0  0  0
    5.4202    6.1689    7.7220 H   0  0  0  0  0  0  0  0  0  0  0  0
    7.5161    7.4839    7.4935 H   0  0  0  0  0  0  0  0  0  0  0  0
    8.2813    7.6939    5.8830 H   0  0  0  0  0  0  0  0  0  0  0  0
    9.6467    6.1923    7.2981 H   0  0  0  0  0  0  0  0  0  0  0  0
    8.2370    5.0920    7.5490 H   0  0  0  0  0  0  0  0  0  0  0  0
    8.9742    5.2678    5.9021 H   0  0  0  0  0  0  0  0  0  0  0  0
    7.3287    6.5956    3.8800 H   0  0  0  0  0  0  0  0  0  0  0  0
    0.0642    5.0165   -1.6969 H   0  0  0  0  0  0  0  0  0  0  0  0
    1.6736    5.6299   -1.9331 H   0  0  0  0  0  0  0  0  0  0  0  0
    1.0252    4.2209   -3.8585 H   0  0  0  0  0  0  0  0  0  0  0  0
    1.2273    5.9188   -4.4400 H   0  0  0  0  0  0  0  0  0  0  0  0
   -0.4094    5.2580   -4.1821 H   0  0  0  0  0  0  0  0  0  0  0  0
    2.7230    7.1129   -3.4039 H   0  0  0  0  0  0  0  0  0  0  0  0
    4.0770    6.1663   -2.6650 H   0  0  0  0  0  0  0  0  0  0  0  0
    5.4859    8.2110   -2.6657 H   0  0  0  0  0  0  0  0  0  0  0  0
    4.0862    9.2017   -3.2669 H   0  0  0  0  0  0  0  0  0  0  0  0
    4.8124    7.9226   -4.3124 H   0  0  0  0  0  0  0  0  0  0  0  0
    6.5544    2.4139    0.4171 H   0  0  0  0  0  0  0  0  0  0  0  0
    6.0897    0.9948   -1.5451 H   0  0  0  0  0  0  0  0  0  0  0  0
    8.0727    0.5350   -2.9481 H   0  0  0  0  0  0  0  0  0  0  0  0
    9.7132   -1.1886   -2.2691 H   0  0  0  0  0  0  0  0  0  0  0  0
   11.7056   -1.4838    0.5093 H   0  0  0  0  0  0  0  0  0  0  0  0
   10.2493   -0.9814    1.4573 H   0  0  0  0  0  0  0  0  0  0  0  0
   11.9884   -3.4721    1.9876 H   0  0  0  0  0  0  0  0  0  0  0  0
   10.4888   -3.0087    2.9008 H   0  0  0  0  0  0  0  0  0  0  0  0
   11.9445   -1.9455    2.9620 H   0  0  0  0  0  0  0  0  0  0  0  0
    7.4292   -1.9712    1.2767 H   0  0  0  0  0  0  0  0  0  0  0  0
    1.2424    1.7034    2.9336 H   0  0  0  0  0  0  0  0  0  0  0  0
   -0.3288    2.0168    4.8135 H   0  0  0  0  0  0  0  0  0  0  0  0
   -0.0581    0.7014    6.8930 H   0  0  0  0  0  0  0  0  0  0  0  0
    2.7028    0.9246    8.1984 H   0  0  0  0  0  0  0  0  0  0  0  0
    2.9125   -0.2191    9.5682 H   0  0  0  0  0  0  0  0  0  0  0  0
    4.5815   -0.1783    6.9750 H   0  0  0  0  0  0  0  0  0  0  0  0
    4.7163   -1.4248    8.2835 H   0  0  0  0  0  0  0  0  0  0  0  0
    5.1098    0.3036    8.6238 H   0  0  0  0  0  0  0  0  0  0  0  0
    3.3377   -1.3057    5.1909 H   0  0  0  0  0  0  0  0  0  0  0  0
    2.0356   -2.4448    3.0201 H   0  0  0  0  0  0  0  0  0  0  0  0
    1.4778   -4.5811    1.5912 H   0  0  0  0  0  0  0  0  0  0  0  0
    6.4360   -8.0588    0.0657 H   0  0  0  0  0  0  0  0  0  0  0  0
    1.6289   -9.6891   -0.5589 H   0  0  0  0  0  0  0  0  0  0  0  0
    3.9235  -12.2837   -0.2242 H   0  0  0  0  0  0  0  0  0  0  0  0
    3.3235  -12.6435   -2.7111 H   0  0  0  0  0  0  0  0  0  0  0  0
    3.5446  -10.3696   -4.0369 H   0  0  0  0  0  0  0  0  0  0  0  0
    5.9815   -9.4946   -3.7758 H   0  0  0  0  0  0  0  0  0  0  0  0
    7.3286  -11.2144   -2.2652 H   0  0  0  0  0  0  0  0  0  0  0  0
    5.7880  -12.8479   -3.6619 H   0  0  0  0  0  0  0  0  0  0  0  0
    5.7719  -13.3712   -1.9160 H   0  0  0  0  0  0  0  0  0  0  0  0
    6.1552  -11.5270    0.0223 H   0  0  0  0  0  0  0  0  0  0  0  0
  1  2  2  3
  2  3  1  0
  3  4  2  0
  3  5  1  0
  5  6  2  0
  6  7  1  0
  7  8  2  0
  8  9  1  0
  9 10  2  0
 10 11  1  0
 10 12  1  0
 12 13  2  0
 13 14  1  0
 14 15  2  0
 15 16  1  0
 16 17  2  3
 17 18  1  0
 18 19  3  0
 17 20  1  0
 20 21  3  0
  1 22  1  0
 22 23  2  0
 23 24  1  0
 24 25  2  0
 25 26  1  0
 26 27  2  0
 27 28  1  0
 28 29  2  0
 29 30  1  0
 30 31  1  0
 31 32  1  0
 32 33  1  0
 30 34  2  0
 25 35  1  0
 35 36  2  0
 36 37  1  0
 37 38  1  0
 38 39  2  0
 39 40  1  0
 40 41  2  0
 41 42  1  0
 42 43  1  0
 43 44  1  0
 44 45  1  0
 42 46  2  0
 37 47  2  0
 47 48  1  0
 36 49  1  0
 49 50  2  0
 50 51  1  0
 50 52  1  0
 52 53  2  0
 53 54  1  0
 54 55  2  0
 55 56  1  0
 56 57  2  0
 57 58  1  0
 58 59  1  0
 59 60  1  0
 58 61  2  0
 53 62  1  0
 62 63  1  0
 63 64  1  0
 64 65  1  0
 65 66  1  0
 66 67  1  0
 67 68  2  0
 68 69  1  0
 69 70  1  0
 67 71  1  0
 71 72  1  0
 72 73  1  0
 73 74  1  0
 74 75  1  0
 75 76  1  0
 76 77  2  0
 77 78  1  0
 78 79  2  0
 79 80  1  0
 80 81  1  0
 81 82  1  0
 80 83  2  0
 75 84  2  0
 84 85  1  0
 85 86  1  0
 86 87  1  0
 87 88  1  0
 88 89  1  0
 89 90  1  0
 90 91  1  0
 91 92  1  0
 92 93  1  0
 93 94  1  0
 91 95  1  0
 95 96  1  0
 88 97  1  0
 97 98  1  0
 84 99  1  0
 99100  2  0
100101  1  0
101102  2  0
102103  1  0
103104  2  0
104105  1  0
105106  2  0
106107  1  0
107108  1  0
108109  1  0
109110  1  0
107111  2  0
102112  1  0
112113  2  0
113114  1  0
114115  1  0
115116  2  0
116117  1  0
117118  2  0
118119  1  0
119120  1  0
120121  1  0
121122  1  0
119123  2  0
114124  2  0
124125  1  0
113126  1  0
126127  2  0
127128  1  0
127129  1  0
129130  2  3
130131  1  0
131132  2  0
131133  1  0
133134  2  0
134135  1  0
135136  2  0
136137  1  0
137138  2  0
138139  1  0
139140  2  3
140141  1  0
141142  3  0
140143  1  0
143144  3  0
136145  1  0
145146  1  0
146147  1  0
147148  2  0
148149  1  0
149150  1  0
149151  1  0
 16  2  1  0
 48 22  1  0
 94 52  1  0
125 99  1  0
139130  1  0
151145  1  0
 15  5  1  0
 47 24  1  0
 61 54  1  0
 93 62  2  0
124101  1  0
138133  1  0
150146  1  0
 13  7  1  0
 34 26  1  0
 51 35  1  0
 92 64  2  0
111103  1  0
128112  1  0
151135  1  0
 46 38  1  0
 90 65  2  0
123115  1  0
 70 66  2  0
 89 71  2  0
 87 72  2  0
 86 74  2  0
 83 76  1  0
  1152  1  0
  6153  1  0
  8154  1  0
  9155  1  0
 12156  1  0
 14157  1  0
 23158  1  0
 27159  1  0
 28160  1  0
 29161  1  0
 32162  1  0
 32163  1  0
 33164  1  0
 33165  1  0
 33166  1  0
 34167  1  0
 39168  1  0
 40169  1  0
 41170  1  0
 44171  1  0
 44172  1  0
 45173  1  0
 45174  1  0
 45175  1  0
 46176  1  0
 49177  1  0
 55178  1  0
 56179  1  0
 57180  1  0
 59181  1  0
 59182  1  0
 60183  1  0
 60184  1  0
 60185  1  0
 61186  1  0
 77187  1  0
 78188  1  0
 79189  1  0
 81190  1  0
 81191  1  0
 82192  1  0
 82193  1  0
 82194  1  0
 83195  1  0
 95196  1  0
 95197  1  0
 96198  1  0
 96199  1  0
 96200  1  0
 97201  1  0
 97202  1  0
 98203  1  0
 98204  1  0
 98205  1  0
100206  1  0
104207  1  0
105208  1  0
106209  1  0
109210  1  0
109211  1  0
110212  1  0
110213  1  0
110214  1  0
111215  1  0
116216  1  0
117217  1  0
118218  1  0
121219  1  0
121220  1  0
122221  1  0
122222  1  0
122223  1  0
123224  1  0
126225  1  0
129226  1  0
134227  1  0
137228  1  0
145229  1  0
146230  1  0
147231  1  0
148232  1  0
149233  1  0
150234  1  0
150235  1  0
151236  1  0
M  END

