
     RDKit          3D

177196  0  0  0  0  0  0  0  0999 V2000
   -3.4773  -10.7630    1.0465 C   0  0  0  0  0  0  0  0  0  0  0  0
   -2.7549  -11.6773    0.3740 C   0  0  0  0  0  0  0  0  0  0  0  0
   -2.5971  -11.7732   -1.0808 C   0  0  0  0  0  0  0  0  0  0  0  0
   -3.4463  -11.4438   -1.9508 O   0  0  0  0  0  0  0  0  0  0  0  0
   -1.2902  -12.3366   -1.3556 C   0  0  0  0  0  0  0  0  0  0  0  0
   -0.5806  -12.3090   -2.5541 C   0  0  0  0  0  0  0  0  0  0  0  0
    0.7726  -12.6905   -2.5423 C   0  0  0  0  0  0  0  0  0  0  0  0
    1.5408  -12.6257   -3.7134 C   0  0  0  0  0  0  0  0  0  0  0  0
    2.8950  -12.9636   -3.6864 C   0  0  0  0  0  0  0  0  0  0  0  0
    3.4965  -13.3729   -2.4918 C   0  0  0  0  0  0  0  0  0  0  0  0
    4.8148  -13.6924   -2.4721 F   0  0  0  0  0  0  0  0  0  0  0  0
    2.7463  -13.4418   -1.3139 C   0  0  0  0  0  0  0  0  0  0  0  0
    1.3850  -13.0973   -1.3221 C   0  0  0  0  0  0  0  0  0  0  0  0
    0.6393  -13.1123   -0.1282 C   0  0  0  0  0  0  0  0  0  0  0  0
   -0.7095  -12.7361   -0.1645 C   0  0  0  0  0  0  0  0  0  0  0  0
   -1.6560  -12.5008    0.9551 C   0  0  0  0  0  0  0  0  0  0  0  0
   -1.6594  -13.1164    2.1614 C   0  0  0  0  0  0  0  0  0  0  0  0
   -2.7568  -12.9781    3.0885 C   0  0  0  0  0  0  0  0  0  0  0  0
   -3.6314  -12.8656    3.8365 N   0  0  0  0  0  0  0  0  0  0  0  0
   -0.6443  -14.0647    2.5393 C   0  0  0  0  0  0  0  0  0  0  0  0
    0.1672  -14.8305    2.8498 N   0  0  0  0  0  0  0  0  0  0  0  0
   -4.3677   -9.7508    0.4361 C   0  0  0  0  0  0  0  0  0  0  0  0
   -4.0643   -8.9431   -0.5863 C   0  0  0  0  0  0  0  0  0  0  0  0
   -4.9546   -7.8250   -0.6470 C   0  0  0  0  0  0  0  0  0  0  0  0
   -5.8583   -8.0023    0.4709 C   0  0  0  0  0  0  0  0  0  0  0  0
   -6.6974   -7.1700    0.9034 O   0  0  0  0  0  0  0  0  0  0  0  0
   -5.5394   -9.2428    1.1055 N   0  0  0  0  0  0  0  0  0  0  0  0
   -6.1668   -9.7813    2.3131 C   0  0  0  0  0  0  0  0  0  0  0  0
   -5.6405   -9.0689    3.5530 C   0  0  0  0  0  0  0  0  0  0  0  0
   -4.3692   -6.7710   -1.2188 C   0  0  0  0  0  0  0  0  0  0  0  0
   -3.0402   -7.1303   -1.6408 N   0  0  0  0  0  0  0  0  0  0  0  0
   -2.2439   -6.4333   -2.6505 C   0  0  0  0  0  0  0  0  0  0  0  0
   -0.8839   -6.0369   -2.0887 C   0  0  0  0  0  0  0  0  0  0  0  0
   -2.8285   -8.4693   -1.1892 C   0  0  0  0  0  0  0  0  0  0  0  0
   -1.7111   -9.0460   -1.1765 O   0  0  0  0  0  0  0  0  0  0  0  0
   -4.7546   -5.3725   -0.9978 C   0  0  0  0  0  0  0  0  0  0  0  0
   -5.7090   -4.6481   -1.7416 C   0  0  0  0  0  0  0  0  0  0  0  0
   -6.6121   -5.2365   -2.7562 C   0  0  0  0  0  0  0  0  0  0  0  0
   -7.5324   -6.2300   -2.3946 C   0  0  0  0  0  0  0  0  0  0  0  0
   -8.4057   -6.7624   -3.3441 C   0  0  0  0  0  0  0  0  0  0  0  0
   -8.3824   -6.2973   -4.6609 C   0  0  0  0  0  0  0  0  0  0  0  0
   -7.4747   -5.2967   -5.0388 C   0  0  0  0  0  0  0  0  0  0  0  0
   -7.4420   -4.8057   -6.4617 C   0  0  0  0  0  0  0  0  0  0  0  0
   -6.6166   -5.7410   -7.3386 C   0  0  0  0  0  0  0  0  0  0  0  0
   -6.5762   -4.7848   -4.0867 C   0  0  0  0  0  0  0  0  0  0  0  0
   -5.5408   -3.2681   -1.5554 C   0  0  0  0  0  0  0  0  0  0  0  0
   -6.1402   -1.9179   -2.3960 S   0  0  0  0  0  0  0  0  0  0  0  0
   -5.0304   -0.8857   -1.6345 C   0  0  0  0  0  0  0  0  0  0  0  0
   -4.3814    0.2471   -2.0364 C   0  0  0  0  0  0  0  0  0  0  0  0
   -4.6233    1.0702   -3.1446 C   0  0  0  0  0  0  0  0  0  0  0  0
   -3.6258    2.0056   -3.5372 C   0  0  0  0  0  0  0  0  0  0  0  0
   -3.8942    2.7758   -4.6201 N   0  0  0  0  0  0  0  0  0  0  0  0
   -5.3919    2.1880   -5.0177 S   0  0  0  0  0  0  0  0  0  0  0  0
   -5.7465    1.0139   -3.9035 N   0  0  0  0  0  0  0  0  0  0  0  0
   -2.4426    2.0747   -2.7985 C   0  0  0  0  0  0  0  0  0  0  0  0
   -1.4118    2.9661   -2.8468 C   0  0  0  0  0  0  0  0  0  0  0  0
   -1.0730    4.4402   -3.6131 S   0  0  0  0  0  0  0  0  0  0  0  0
    0.1793    4.7638   -2.4995 C   0  0  0  0  0  0  0  0  0  0  0  0
    1.0151    5.8672   -2.2911 C   0  0  0  0  0  0  0  0  0  0  0  0
    0.9922    7.0879   -3.1283 C   0  0  0  0  0  0  0  0  0  0  0  0
    0.9986    6.9875   -4.5279 C   0  0  0  0  0  0  0  0  0  0  0  0
    0.9840    8.1396   -5.3186 C   0  0  0  0  0  0  0  0  0  0  0  0
    0.9771    9.4007   -4.7217 C   0  0  0  0  0  0  0  0  0  0  0  0
    0.9821    9.5209   -3.3229 C   0  0  0  0  0  0  0  0  0  0  0  0
    0.9530   10.8811   -2.6791 C   0  0  0  0  0  0  0  0  0  0  0  0
   -0.4825   11.3525   -2.4740 C   0  0  0  0  0  0  0  0  0  0  0  0
    0.9665    8.3623   -2.5319 C   0  0  0  0  0  0  0  0  0  0  0  0
    1.8063    5.6833   -1.1341 C   0  0  0  0  0  0  0  0  0  0  0  0
    1.4032    4.1984   -0.3966 S   0  0  0  0  0  0  0  0  0  0  0  0
    0.2700    3.7764   -1.5504 C   0  0  0  0  0  0  0  0  0  0  0  0
   -0.6359    2.7421   -1.7574 C   0  0  0  0  0  0  0  0  0  0  0  0
   -1.1050    1.7328   -0.9777 N   0  0  0  0  0  0  0  0  0  0  0  0
   -2.2054    1.2759   -1.6660 C   0  0  0  0  0  0  0  0  0  0  0  0
   -3.1679    0.2763   -1.3266 C   0  0  0  0  0  0  0  0  0  0  0  0
   -3.0240   -0.8747   -0.5877 N   0  0  0  0  0  0  0  0  0  0  0  0
   -4.1906   -1.5475   -0.7932 C   0  0  0  0  0  0  0  0  0  0  0  0
   -4.4950   -2.9086   -0.7419 C   0  0  0  0  0  0  0  0  0  0  0  0
   -3.7095   -4.2869   -0.2140 S   0  0  0  0  0  0  0  0  0  0  0  0
   -1.7726   -1.5126   -0.1646 C   0  0  0  0  0  0  0  0  0  0  0  0
   -1.7737   -1.7905    1.3395 C   0  0  0  0  0  0  0  0  0  0  0  0
   -0.8439    1.6206    0.4624 C   0  0  0  0  0  0  0  0  0  0  0  0
    0.5294    1.0014    0.7464 C   0  0  0  0  0  0  0  0  0  0  0  0
    2.8463    6.6110   -0.6359 C   0  0  0  0  0  0  0  0  0  0  0  0
    3.0726    6.9048    0.6447 C   0  0  0  0  0  0  0  0  0  0  0  0
    4.1857    7.7468    0.7892 C   0  0  0  0  0  0  0  0  0  0  0  0
    4.6724    7.9865   -0.5472 C   0  0  0  0  0  0  0  0  0  0  0  0
    5.7249    8.6048   -0.8524 O   0  0  0  0  0  0  0  0  0  0  0  0
    3.8246    7.2834   -1.4739 N   0  0  0  0  0  0  0  0  0  0  0  0
    4.3199    6.7561   -2.7494 C   0  0  0  0  0  0  0  0  0  0  0  0
    4.5713    7.8819   -3.7494 C   0  0  0  0  0  0  0  0  0  0  0  0
    4.6316    7.7664    2.0399 C   0  0  0  0  0  0  0  0  0  0  0  0
    3.7985    6.9173    2.8736 N   0  0  0  0  0  0  0  0  0  0  0  0
    4.2919    6.1572    4.0275 C   0  0  0  0  0  0  0  0  0  0  0  0
    3.2532    6.1058    5.1408 C   0  0  0  0  0  0  0  0  0  0  0  0
    2.8091    6.3904    1.9674 C   0  0  0  0  0  0  0  0  0  0  0  0
    1.9217    5.5549    2.2831 O   0  0  0  0  0  0  0  0  0  0  0  0
    5.9138    8.3741    2.4475 C   0  0  0  0  0  0  0  0  0  0  0  0
    6.0903    9.0496    3.6031 C   0  0  0  0  0  0  0  0  0  0  0  0
    5.0036    9.4833    4.4920 C   0  0  0  0  0  0  0  0  0  0  0  0
    3.7690    9.3827    4.2692 O   0  0  0  0  0  0  0  0  0  0  0  0
    5.5735   10.1807    5.6172 C   0  0  0  0  0  0  0  0  0  0  0  0
    4.8931   10.7483    6.6944 C   0  0  0  0  0  0  0  0  0  0  0  0
    5.6341   11.4102    7.6846 C   0  0  0  0  0  0  0  0  0  0  0  0
    4.9921   11.9780    8.7945 C   0  0  0  0  0  0  0  0  0  0  0  0
    5.7381   12.6309    9.7801 C   0  0  0  0  0  0  0  0  0  0  0  0
    7.1281   12.7298    9.6611 C   0  0  0  0  0  0  0  0  0  0  0  0
    7.8441   13.3635   10.6243 F   0  0  0  0  0  0  0  0  0  0  0  0
    7.7811   12.1740    8.5581 C   0  0  0  0  0  0  0  0  0  0  0  0
    7.0468   11.5112    7.5614 C   0  0  0  0  0  0  0  0  0  0  0  0
    7.7010   10.9432    6.4495 C   0  0  0  0  0  0  0  0  0  0  0  0
    6.9494   10.2537    5.4802 C   0  0  0  0  0  0  0  0  0  0  0  0
    7.3694    9.5470    4.2247 C   0  0  0  0  0  0  0  0  0  0  0  0
    8.6480    9.3175    3.8058 C   0  0  0  0  0  0  0  0  0  0  0  0
    9.8065    9.7322    4.5494 C   0  0  0  0  0  0  0  0  0  0  0  0
   10.7526   10.0523    5.1351 N   0  0  0  0  0  0  0  0  0  0  0  0
    8.9682    8.5796    2.6111 C   0  0  0  0  0  0  0  0  0  0  0  0
    9.2312    8.0025    1.6441 N   0  0  0  0  0  0  0  0  0  0  0  0
   -3.4009  -10.7183    2.1212 H   0  0  0  0  0  0  0  0  0  0  0  0
   -1.0511  -11.9392   -3.4578 H   0  0  0  0  0  0  0  0  0  0  0  0
    1.0958  -12.3012   -4.6472 H   0  0  0  0  0  0  0  0  0  0  0  0
    3.4820  -12.9001   -4.5913 H   0  0  0  0  0  0  0  0  0  0  0  0
    3.2300  -13.7509   -0.3940 H   0  0  0  0  0  0  0  0  0  0  0  0
    1.1278  -13.3446    0.8066 H   0  0  0  0  0  0  0  0  0  0  0  0
   -5.9634  -10.8715    2.3905 H   0  0  0  0  0  0  0  0  0  0  0  0
   -7.2661   -9.6454    2.2480 H   0  0  0  0  0  0  0  0  0  0  0  0
   -6.1073   -9.5105    4.4601 H   0  0  0  0  0  0  0  0  0  0  0  0
   -5.8910   -7.9878    3.5119 H   0  0  0  0  0  0  0  0  0  0  0  0
   -4.5396   -9.1869    3.6286 H   0  0  0  0  0  0  0  0  0  0  0  0
   -2.7750   -5.5164   -2.9889 H   0  0  0  0  0  0  0  0  0  0  0  0
   -2.1048   -7.0934   -3.5348 H   0  0  0  0  0  0  0  0  0  0  0  0
   -1.0084   -5.4101   -1.1830 H   0  0  0  0  0  0  0  0  0  0  0  0
   -0.3207   -5.4588   -2.8513 H   0  0  0  0  0  0  0  0  0  0  0  0
   -0.2973   -6.9425   -1.8281 H   0  0  0  0  0  0  0  0  0  0  0  0
   -7.5949   -6.5755   -1.3747 H   0  0  0  0  0  0  0  0  0  0  0  0
   -9.1146   -7.5278   -3.0565 H   0  0  0  0  0  0  0  0  0  0  0  0
   -9.0668   -6.7173   -5.3851 H   0  0  0  0  0  0  0  0  0  0  0  0
   -7.0072   -3.7837   -6.5087 H   0  0  0  0  0  0  0  0  0  0  0  0
   -8.4777   -4.7447   -6.8633 H   0  0  0  0  0  0  0  0  0  0  0  0
   -7.0625   -6.7583   -7.3405 H   0  0  0  0  0  0  0  0  0  0  0  0
   -5.5719   -5.7976   -6.9653 H   0  0  0  0  0  0  0  0  0  0  0  0
   -6.6034   -5.3567   -8.3801 H   0  0  0  0  0  0  0  0  0  0  0  0
   -5.8517   -4.0374   -4.3858 H   0  0  0  0  0  0  0  0  0  0  0  0
    1.0350    6.0176   -5.0106 H   0  0  0  0  0  0  0  0  0  0  0  0
    0.9886    8.0525   -6.3964 H   0  0  0  0  0  0  0  0  0  0  0  0
    0.9695   10.2851   -5.3475 H   0  0  0  0  0  0  0  0  0  0  0  0
    1.4917   11.6169   -3.3149 H   0  0  0  0  0  0  0  0  0  0  0  0
    1.4726   10.8501   -1.6972 H   0  0  0  0  0  0  0  0  0  0  0  0
   -1.0285   10.6503   -1.8060 H   0  0  0  0  0  0  0  0  0  0  0  0
   -1.0083   11.4162   -3.4518 H   0  0  0  0  0  0  0  0  0  0  0  0
   -0.4832   12.3595   -2.0053 H   0  0  0  0  0  0  0  0  0  0  0  0
    0.9305    8.4544   -1.4515 H   0  0  0  0  0  0  0  0  0  0  0  0
   -1.6273   -2.4626   -0.7205 H   0  0  0  0  0  0  0  0  0  0  0  0
   -0.9074   -0.8949   -0.4425 H   0  0  0  0  0  0  0  0  0  0  0  0
   -2.5161   -2.5705    1.5942 H   0  0  0  0  0  0  0  0  0  0  0  0
   -0.7678   -2.1430    1.6539 H   0  0  0  0  0  0  0  0  0  0  0  0
   -2.0350   -0.8862    1.9240 H   0  0  0  0  0  0  0  0  0  0  0  0
   -0.8992    2.6272    0.9309 H   0  0  0  0  0  0  0  0  0  0  0  0
   -1.6433    1.0332    0.9446 H   0  0  0  0  0  0  0  0  0  0  0  0
    1.2776    1.7887    0.9701 H   0  0  0  0  0  0  0  0  0  0  0  0
    0.4686    0.3393    1.6368 H   0  0  0  0  0  0  0  0  0  0  0  0
    0.9016    0.4105   -0.1175 H   0  0  0  0  0  0  0  0  0  0  0  0
    3.5917    6.0470   -3.1920 H   0  0  0  0  0  0  0  0  0  0  0  0
    5.2624    6.1937   -2.5743 H   0  0  0  0  0  0  0  0  0  0  0  0
    3.6620    8.5051   -3.8608 H   0  0  0  0  0  0  0  0  0  0  0  0
    5.4122    8.5204   -3.4131 H   0  0  0  0  0  0  0  0  0  0  0  0
    4.8331    7.4483   -4.7366 H   0  0  0  0  0  0  0  0  0  0  0  0
    5.2158    6.6177    4.4360 H   0  0  0  0  0  0  0  0  0  0  0  0
    4.5501    5.1239    3.7074 H   0  0  0  0  0  0  0  0  0  0  0  0
    3.6844    5.5908    6.0259 H   0  0  0  0  0  0  0  0  0  0  0  0
    2.3535    5.5415    4.8139 H   0  0  0  0  0  0  0  0  0  0  0  0
    2.9549    7.1334    5.4390 H   0  0  0  0  0  0  0  0  0  0  0  0
    6.7089    8.2779    1.7351 H   0  0  0  0  0  0  0  0  0  0  0  0
    3.8145   10.6694    6.7627 H   0  0  0  0  0  0  0  0  0  0  0  0
    3.9157   11.9110    8.9018 H   0  0  0  0  0  0  0  0  0  0  0  0
    5.2365   13.0622   10.6373 H   0  0  0  0  0  0  0  0  0  0  0  0
    8.8598   12.2597    8.4838 H   0  0  0  0  0  0  0  0  0  0  0  0
    8.7668   11.0601    6.3693 H   0  0  0  0  0  0  0  0  0  0  0  0
  1  2  2  3
  2  3  1  0
  3  4  2  0
  3  5  1  0
  5  6  2  0
  6  7  1  0
  7  8  2  0
  8  9  1  0
  9 10  2  0
 10 11  1  0
 10 12  1  0
 12 13  2  0
 13 14  1  0
 14 15  2  0
 15 16  1  0
 16 17  2  3
 17 18  1  0
 18 19  3  0
 17 20  1  0
 20 21  3  0
  1 22  1  0
 22 23  2  0
 23 24  1  0
 24 25  1  0
 25 26  2  0
 25 27  1  0
 27 28  1  0
 28 29  1  0
 24 30  2  0
 30 31  1  0
 31 32  1  0
 32 33  1  0
 31 34  1  0
 34 35  2  0
 30 36  1  0
 36 37  2  0
 37 38  1  0
 38 39  2  0
 39 40  1  0
 40 41  2  0
 41 42  1  0
 42 43  1  0
 43 44  1  0
 42 45  2  0
 37 46  1  0
 46 47  1  0
 47 48  1  0
 48 49  1  0
 49 50  1  0
 50 51  1  0
 51 52  2  0
 52 53  1  0
 53 54  1  0
 51 55  1  0
 55 56  1  0
 56 57  1  0
 57 58  1  0
 58 59  1  0
 59 60  1  0
 60 61  2  0
 61 62  1  0
 62 63  2  0
 63 64  1  0
 64 65  1  0
 65 66  1  0
 64 67  2  0
 59 68  2  0
 68 69  1  0
 69 70  1  0
 70 71  1  0
 71 72  1  0
 72 73  1  0
 73 74  1  0
 74 75  1  0
 75 76  1  0
 76 77  1  0
 77 78  1  0
 75 79  1  0
 79 80  1  0
 72 81  1  0
 81 82  1  0
 68 83  1  0
 83 84  2  0
 84 85  1  0
 85 86  1  0
 86 87  2  0
 86 88  1  0
 88 89  1  0
 89 90  1  0
 85 91  2  0
 91 92  1  0
 92 93  1  0
 93 94  1  0
 92 95  1  0
 95 96  2  0
 91 97  1  0
 97 98  2  3
 98 99  1  0
 99100  2  0
 99101  1  0
101102  2  0
102103  1  0
103104  2  0
104105  1  0
105106  2  0
106107  1  0
106108  1  0
108109  2  0
109110  1  0
110111  2  0
111112  1  0
112113  2  3
113114  1  0
114115  3  0
113116  1  0
116117  3  0
 16  2  1  0
 27 22  1  0
 78 36  1  0
 88 83  1  0
112 98  1  0
 15  5  1  0
 34 23  1  0
 45 38  1  0
 77 46  2  0
 95 84  1  0
111101  1  0
 13  7  1  0
 76 48  2  0
109103  1  0
 74 49  2  0
 54 50  2  0
 73 55  2  0
 71 56  2  0
 70 58  2  0
 67 60  1  0
  1118  1  0
  6119  1  0
  8120  1  0
  9121  1  0
 12122  1  0
 14123  1  0
 28124  1  0
 28125  1  0
 29126  1  0
 29127  1  0
 29128  1  0
 32129  1  0
 32130  1  0
 33131  1  0
 33132  1  0
 33133  1  0
 39134  1  0
 40135  1  0
 41136  1  0
 43137  1  0
 43138  1  0
 44139  1  0
 44140  1  0
 44141  1  0
 45142  1  0
 61143  1  0
 62144  1  0
 63145  1  0
 65146  1  0
 65147  1  0
 66148  1  0
 66149  1  0
 66150  1  0
 67151  1  0
 79152  1  0
 79153  1  0
 80154  1  0
 80155  1  0
 80156  1  0
 81157  1  0
 81158  1  0
 82159  1  0
 82160  1  0
 82161  1  0
 89162  1  0
 89163  1  0
 90164  1  0
 90165  1  0
 90166  1  0
 93167  1  0
 93168  1  0
 94169  1  0
 94170  1  0
 94171  1  0
 97172  1  0
102173  1  0
104174  1  0
105175  1  0
108176  1  0
110177  1  0
M  END

