
     RDKit          3D

 93103  0  0  0  0  0  0  0  0999 V2000
    4.1115   -5.0093    1.7903 C   0  0  0  0  0  0  0  0  0  0  0  0
    4.2950   -4.4731    0.5611 C   0  0  0  0  0  0  0  0  0  0  0  0
    4.1578   -3.0430    0.2407 C   0  0  0  0  0  0  0  0  0  0  0  0
    4.3203   -2.0773    1.0458 O   0  0  0  0  0  0  0  0  0  0  0  0
    3.9020   -2.9089   -1.1669 C   0  0  0  0  0  0  0  0  0  0  0  0
    3.5329   -1.7541   -1.8544 C   0  0  0  0  0  0  0  0  0  0  0  0
    3.2133   -1.8662   -3.2178 C   0  0  0  0  0  0  0  0  0  0  0  0
    2.8230   -0.7308   -3.9422 C   0  0  0  0  0  0  0  0  0  0  0  0
    2.4752   -0.8353   -5.2963 C   0  0  0  0  0  0  0  0  0  0  0  0
    2.5343   -2.0804   -5.9440 C   0  0  0  0  0  0  0  0  0  0  0  0
    2.2228   -2.1632   -7.2683 F   0  0  0  0  0  0  0  0  0  0  0  0
    2.9071   -3.2264   -5.2295 C   0  0  0  0  0  0  0  0  0  0  0  0
    3.2439   -3.1334   -3.8643 C   0  0  0  0  0  0  0  0  0  0  0  0
    3.6082   -4.2845   -3.1336 C   0  0  0  0  0  0  0  0  0  0  0  0
    3.9510   -4.1531   -1.7716 C   0  0  0  0  0  0  0  0  0  0  0  0
    4.3164   -5.1864   -0.7549 C   0  0  0  0  0  0  0  0  0  0  0  0
    4.7892   -6.4342   -0.9889 C   0  0  0  0  0  0  0  0  0  0  0  0
    5.3317   -7.2578    0.0596 C   0  0  0  0  0  0  0  0  0  0  0  0
    5.7628   -7.9301    0.9030 N   0  0  0  0  0  0  0  0  0  0  0  0
    4.9173   -6.9808   -2.3120 C   0  0  0  0  0  0  0  0  0  0  0  0
    5.0279   -7.4290   -3.3752 N   0  0  0  0  0  0  0  0  0  0  0  0
    3.7026   -4.1673    2.9235 C   0  0  0  0  0  0  0  0  0  0  0  0
    4.5736   -3.3885    3.6079 N   0  0  0  0  0  0  0  0  0  0  0  0
    4.0092   -2.3150    4.1597 N   0  0  0  0  0  0  0  0  0  0  0  0
    2.6842   -2.2179    3.9262 C   0  0  0  0  0  0  0  0  0  0  0  0
    2.1583   -3.5091    2.9862 S   0  0  0  0  0  0  0  0  0  0  0  0
    1.9510   -0.9449    3.9480 C   0  0  0  0  0  0  0  0  0  0  0  0
    2.5262    0.2012    3.3528 C   0  0  0  0  0  0  0  0  0  0  0  0
    1.7127    1.2994    2.9792 C   0  0  0  0  0  0  0  0  0  0  0  0
    0.3107    1.2900    3.2547 C   0  0  0  0  0  0  0  0  0  0  0  0
   -0.2021    0.1712    3.9198 C   0  0  0  0  0  0  0  0  0  0  0  0
    0.5773   -0.9054    4.2300 C   0  0  0  0  0  0  0  0  0  0  0  0
   -0.2201   -1.9048    4.6496 N   0  0  0  0  0  0  0  0  0  0  0  0
   -1.4520   -1.3980    4.6088 N   0  0  0  0  0  0  0  0  0  0  0  0
   -2.6531   -2.1660    4.9275 C   0  0  0  0  0  0  0  0  0  0  0  0
   -3.3563   -1.5622    6.1354 C   0  0  0  0  0  0  0  0  0  0  0  0
   -1.4868   -0.1508    4.1487 N   0  0  0  0  0  0  0  0  0  0  0  0
   -0.5315    2.3063    2.7382 C   0  0  0  0  0  0  0  0  0  0  0  0
   -0.0029    3.3176    1.9084 C   0  0  0  0  0  0  0  0  0  0  0  0
    1.3721    3.3118    1.6781 C   0  0  0  0  0  0  0  0  0  0  0  0
    2.0873    4.0818    0.8411 N   0  0  0  0  0  0  0  0  0  0  0  0
    3.3218    3.6015    0.8956 N   0  0  0  0  0  0  0  0  0  0  0  0
    4.4299    4.1399    0.1094 C   0  0  0  0  0  0  0  0  0  0  0  0
    4.4992    3.4435   -1.2465 C   0  0  0  0  0  0  0  0  0  0  0  0
    3.4258    2.5407    1.6931 N   0  0  0  0  0  0  0  0  0  0  0  0
    2.1942    2.3568    2.1970 C   0  0  0  0  0  0  0  0  0  0  0  0
   -0.9057    4.1252    1.0881 C   0  0  0  0  0  0  0  0  0  0  0  0
   -1.6095    5.1884    1.5415 N   0  0  0  0  0  0  0  0  0  0  0  0
   -2.5266    5.6096    0.6714 N   0  0  0  0  0  0  0  0  0  0  0  0
   -2.5578    4.8731   -0.4675 C   0  0  0  0  0  0  0  0  0  0  0  0
   -1.4273    3.6280   -0.4397 S   0  0  0  0  0  0  0  0  0  0  0  0
   -3.5511    5.0312   -1.5295 C   0  0  0  0  0  0  0  0  0  0  0  0
   -4.8310    4.6372   -1.3954 C   0  0  0  0  0  0  0  0  0  0  0  0
   -5.3991    3.9787   -0.2064 C   0  0  0  0  0  0  0  0  0  0  0  0
   -4.9389    4.0197    0.9652 O   0  0  0  0  0  0  0  0  0  0  0  0
   -6.5777    3.2433   -0.6115 C   0  0  0  0  0  0  0  0  0  0  0  0
   -7.3471    2.3534    0.1430 C   0  0  0  0  0  0  0  0  0  0  0  0
   -8.3639    1.6215   -0.5036 C   0  0  0  0  0  0  0  0  0  0  0  0
   -9.2344    0.6716    0.2732 C   0  0  0  0  0  0  0  0  0  0  0  0
   -8.5680    1.7841   -1.8912 C   0  0  0  0  0  0  0  0  0  0  0  0
   -7.7839    2.6821   -2.6366 C   0  0  0  0  0  0  0  0  0  0  0  0
   -6.8061    3.4426   -1.9679 C   0  0  0  0  0  0  0  0  0  0  0  0
   -5.8164    4.4194   -2.5055 C   0  0  0  0  0  0  0  0  0  0  0  0
   -5.9166    5.1299   -3.6602 C   0  0  0  0  0  0  0  0  0  0  0  0
   -6.9991    4.9384   -4.5951 C   0  0  0  0  0  0  0  0  0  0  0  0
   -7.8716    4.8135   -5.3459 N   0  0  0  0  0  0  0  0  0  0  0  0
   -5.0116    6.2100   -3.9829 C   0  0  0  0  0  0  0  0  0  0  0  0
   -4.2894    7.0778   -4.2421 N   0  0  0  0  0  0  0  0  0  0  0  0
    4.0874   -6.0779    1.9437 H   0  0  0  0  0  0  0  0  0  0  0  0
    3.5063   -0.7993   -1.3482 H   0  0  0  0  0  0  0  0  0  0  0  0
    2.7758    0.2442   -3.4566 H   0  0  0  0  0  0  0  0  0  0  0  0
    2.1922    0.0522   -5.8404 H   0  0  0  0  0  0  0  0  0  0  0  0
    2.9364   -4.1828   -5.7389 H   0  0  0  0  0  0  0  0  0  0  0  0
    3.5650   -5.2480   -3.6162 H   0  0  0  0  0  0  0  0  0  0  0  0
    3.5666    0.1793    3.0431 H   0  0  0  0  0  0  0  0  0  0  0  0
   -2.3801   -3.2195    5.1438 H   0  0  0  0  0  0  0  0  0  0  0  0
   -3.3368   -2.1583    4.0532 H   0  0  0  0  0  0  0  0  0  0  0  0
   -2.6838   -1.6262    7.0250 H   0  0  0  0  0  0  0  0  0  0  0  0
   -3.6151   -0.4963    5.9324 H   0  0  0  0  0  0  0  0  0  0  0  0
   -4.2924   -2.1276    6.3334 H   0  0  0  0  0  0  0  0  0  0  0  0
   -1.6051    2.2465    2.8904 H   0  0  0  0  0  0  0  0  0  0  0  0
    5.3841    3.9894    0.6579 H   0  0  0  0  0  0  0  0  0  0  0  0
    4.2892    5.2339   -0.0419 H   0  0  0  0  0  0  0  0  0  0  0  0
    5.3275    3.8622   -1.8390 H   0  0  0  0  0  0  0  0  0  0  0  0
    4.6693    2.3580   -1.1177 H   0  0  0  0  0  0  0  0  0  0  0  0
    3.5508    3.5981   -1.8053 H   0  0  0  0  0  0  0  0  0  0  0  0
   -3.1615    5.2565   -2.5050 H   0  0  0  0  0  0  0  0  0  0  0  0
   -7.1392    2.2255    1.2003 H   0  0  0  0  0  0  0  0  0  0  0  0
   -8.7790    0.4157    1.2526 H   0  0  0  0  0  0  0  0  0  0  0  0
   -9.3788   -0.2742   -0.3069 H   0  0  0  0  0  0  0  0  0  0  0  0
  -10.2251    1.1512    0.4494 H   0  0  0  0  0  0  0  0  0  0  0  0
   -9.3243    1.2016   -2.4061 H   0  0  0  0  0  0  0  0  0  0  0  0
   -7.9181    2.7298   -3.7039 H   0  0  0  0  0  0  0  0  0  0  0  0
  1  2  2  3
  2  3  1  0
  3  4  2  0
  3  5  1  0
  5  6  2  0
  6  7  1  0
  7  8  2  0
  8  9  1  0
  9 10  2  0
 10 11  1  0
 10 12  1  0
 12 13  2  0
 13 14  1  0
 14 15  2  0
 15 16  1  0
 16 17  2  3
 17 18  1  0
 18 19  3  0
 17 20  1  0
 20 21  3  0
  1 22  1  0
 22 23  2  0
 23 24  1  0
 24 25  2  0
 25 26  1  0
 25 27  1  0
 27 28  2  0
 28 29  1  0
 29 30  2  0
 30 31  1  0
 31 32  1  0
 32 33  2  0
 33 34  1  0
 34 35  1  0
 35 36  1  0
 34 37  1  0
 30 38  1  0
 38 39  2  0
 39 40  1  0
 40 41  2  0
 41 42  1  0
 42 43  1  0
 43 44  1  0
 42 45  1  0
 45 46  2  0
 39 47  1  0
 47 48  2  0
 48 49  1  0
 49 50  2  0
 50 51  1  0
 50 52  1  0
 52 53  2  3
 53 54  1  0
 54 55  2  0
 54 56  1  0
 56 57  2  0
 57 58  1  0
 58 59  1  0
 58 60  2  0
 60 61  1  0
 61 62  2  0
 62 63  1  0
 63 64  2  3
 64 65  1  0
 65 66  3  0
 64 67  1  0
 67 68  3  0
 16  2  1  0
 26 22  1  0
 32 27  1  0
 46 40  1  0
 51 47  1  0
 63 53  1  0
 15  5  1  0
 46 29  1  0
 62 56  1  0
 13  7  1  0
 37 31  2  0
  1 69  1  0
  6 70  1  0
  8 71  1  0
  9 72  1  0
 12 73  1  0
 14 74  1  0
 28 75  1  0
 35 76  1  0
 35 77  1  0
 36 78  1  0
 36 79  1  0
 36 80  1  0
 38 81  1  0
 43 82  1  0
 43 83  1  0
 44 84  1  0
 44 85  1  0
 44 86  1  0
 52 87  1  0
 57 88  1  0
 59 89  1  0
 59 90  1  0
 59 91  1  0
 60 92  1  0
 61 93  1  0
M  END

