
     RDKit          3D

173194  0  0  0  0  0  0  0  0999 V2000
   -8.6077   -0.5795   -2.4040 C   0  0  0  0  0  0  0  0  0  0  0  0
   -8.7135    0.4712   -3.2403 C   0  0  0  0  0  0  0  0  0  0  0  0
   -8.9017    1.8355   -2.7457 C   0  0  0  0  0  0  0  0  0  0  0  0
   -9.2455    2.1605   -1.5761 O   0  0  0  0  0  0  0  0  0  0  0  0
   -8.4973    2.7530   -3.7894 C   0  0  0  0  0  0  0  0  0  0  0  0
   -8.3510    4.1387   -3.7065 C   0  0  0  0  0  0  0  0  0  0  0  0
   -7.8000    4.8219   -4.8057 C   0  0  0  0  0  0  0  0  0  0  0  0
   -7.6283    6.2142   -4.7639 C   0  0  0  0  0  0  0  0  0  0  0  0
   -7.0254    6.8794   -5.8346 C   0  0  0  0  0  0  0  0  0  0  0  0
   -6.5786    6.1613   -6.9503 C   0  0  0  0  0  0  0  0  0  0  0  0
   -5.9772    6.8115   -7.9755 F   0  0  0  0  0  0  0  0  0  0  0  0
   -6.7580    4.7744   -7.0133 C   0  0  0  0  0  0  0  0  0  0  0  0
   -7.3783    4.0932   -5.9550 C   0  0  0  0  0  0  0  0  0  0  0  0
   -7.5528    2.6959   -6.0118 C   0  0  0  0  0  0  0  0  0  0  0  0
   -8.1422    2.0380   -4.9194 C   0  0  0  0  0  0  0  0  0  0  0  0
   -8.4056    0.5917   -4.6987 C   0  0  0  0  0  0  0  0  0  0  0  0
   -8.7014   -0.3162   -5.6606 C   0  0  0  0  0  0  0  0  0  0  0  0
   -9.3658   -1.5583   -5.3525 C   0  0  0  0  0  0  0  0  0  0  0  0
   -9.9044   -2.5528   -5.1111 N   0  0  0  0  0  0  0  0  0  0  0  0
   -8.5590   -0.0258   -7.0633 C   0  0  0  0  0  0  0  0  0  0  0  0
   -8.4540    0.2071   -8.1916 N   0  0  0  0  0  0  0  0  0  0  0  0
   -7.9916   -1.8991   -2.6933 C   0  0  0  0  0  0  0  0  0  0  0  0
   -8.5949   -3.0423   -2.1515 C   0  0  0  0  0  0  0  0  0  0  0  0
   -9.7827   -2.9402   -1.5042 F   0  0  0  0  0  0  0  0  0  0  0  0
   -7.9886   -4.2982   -2.2496 C   0  0  0  0  0  0  0  0  0  0  0  0
   -8.6360   -5.3638   -1.7094 F   0  0  0  0  0  0  0  0  0  0  0  0
   -6.7301   -4.4508   -2.8681 C   0  0  0  0  0  0  0  0  0  0  0  0
   -6.1553   -3.3098   -3.4871 C   0  0  0  0  0  0  0  0  0  0  0  0
   -5.0009   -3.3992   -4.1879 N   0  0  0  0  0  0  0  0  0  0  0  0
   -4.3909   -2.3379   -4.7624 C   0  0  0  0  0  0  0  0  0  0  0  0
   -3.1767   -2.6103   -5.5348 C   0  0  0  0  0  0  0  0  0  0  0  0
   -3.1430   -3.5274   -6.9415 S   0  0  0  0  0  0  0  0  0  0  0  0
   -1.4676   -3.5448   -7.1040 C   0  0  0  0  0  0  0  0  0  0  0  0
   -0.7192   -4.1976   -8.2289 C   0  0  0  0  0  0  0  0  0  0  0  0
   -0.8333   -5.7173   -8.1665 C   0  0  0  0  0  0  0  0  0  0  0  0
   -0.9181   -2.8508   -6.0288 C   0  0  0  0  0  0  0  0  0  0  0  0
   -1.8729   -2.3326   -5.1450 C   0  0  0  0  0  0  0  0  0  0  0  0
    0.4170   -2.7096   -5.8376 F   0  0  0  0  0  0  0  0  0  0  0  0
   -4.9582   -1.0576   -4.5931 C   0  0  0  0  0  0  0  0  0  0  0  0
   -6.1165   -0.9587   -3.8854 N   0  0  0  0  0  0  0  0  0  0  0  0
   -6.7592   -2.0407   -3.3649 C   0  0  0  0  0  0  0  0  0  0  0  0
   -4.3998    0.1765   -5.1897 C   0  0  0  0  0  0  0  0  0  0  0  0
   -4.6580    1.4659   -4.7314 C   0  0  0  0  0  0  0  0  0  0  0  0
   -4.0925    2.4673   -5.5291 C   0  0  0  0  0  0  0  0  0  0  0  0
   -4.2149    3.7843   -5.2538 F   0  0  0  0  0  0  0  0  0  0  0  0
   -3.4163    1.9792   -6.6404 C   0  0  0  0  0  0  0  0  0  0  0  0
   -2.6727    2.7898   -7.6567 C   0  0  0  0  0  0  0  0  0  0  0  0
   -1.1984    2.8854   -7.2849 C   0  0  0  0  0  0  0  0  0  0  0  0
   -3.4990    0.3021   -6.6142 S   0  0  0  0  0  0  0  0  0  0  0  0
   -5.9731   -5.7402   -2.6946 C   0  0  0  0  0  0  0  0  0  0  0  0
   -6.1649   -6.7485   -1.3304 S   0  0  0  0  0  0  0  0  0  0  0  0
   -4.7650   -7.6295   -1.5792 C   0  0  0  0  0  0  0  0  0  0  0  0
   -3.8326   -8.0837   -0.6957 C   0  0  0  0  0  0  0  0  0  0  0  0
   -3.8757   -8.2251    0.9951 S   0  0  0  0  0  0  0  0  0  0  0  0
   -2.2395   -7.8309    1.0437 C   0  0  0  0  0  0  0  0  0  0  0  0
   -1.3406   -7.5408    2.0158 C   0  0  0  0  0  0  0  0  0  0  0  0
   -1.3364   -7.8548    3.3771 C   0  0  0  0  0  0  0  0  0  0  0  0
   -0.1652   -7.5650    4.1333 C   0  0  0  0  0  0  0  0  0  0  0  0
   -0.1967   -7.8743    5.4552 N   0  0  0  0  0  0  0  0  0  0  0  0
   -1.7193   -8.5203    5.5536 S   0  0  0  0  0  0  0  0  0  0  0  0
   -2.3666   -8.4366    4.0326 N   0  0  0  0  0  0  0  0  0  0  0  0
    0.9087   -6.9284    3.4984 C   0  0  0  0  0  0  0  0  0  0  0  0
    1.9684   -6.2703    4.0561 C   0  0  0  0  0  0  0  0  0  0  0  0
    2.4203   -5.8762    5.6431 S   0  0  0  0  0  0  0  0  0  0  0  0
    3.2462   -4.4941    5.0990 C   0  0  0  0  0  0  0  0  0  0  0  0
    3.8189   -3.4214    5.7821 C   0  0  0  0  0  0  0  0  0  0  0  0
    4.1623   -3.4748    7.2491 C   0  0  0  0  0  0  0  0  0  0  0  0
    5.6139   -3.9066    7.4390 C   0  0  0  0  0  0  0  0  0  0  0  0
    4.1427   -2.3743    4.8952 C   0  0  0  0  0  0  0  0  0  0  0  0
    3.6864   -2.8122    3.3118 S   0  0  0  0  0  0  0  0  0  0  0  0
    3.1173   -4.3311    3.7423 C   0  0  0  0  0  0  0  0  0  0  0  0
    2.4093   -5.3705    3.1349 C   0  0  0  0  0  0  0  0  0  0  0  0
    1.7236   -5.4540    1.9603 N   0  0  0  0  0  0  0  0  0  0  0  0
    0.8391   -6.4906    2.1640 C   0  0  0  0  0  0  0  0  0  0  0  0
   -0.2704   -6.9163    1.3696 C   0  0  0  0  0  0  0  0  0  0  0  0
   -0.4602   -6.9165    0.0033 N   0  0  0  0  0  0  0  0  0  0  0  0
   -1.6895   -7.5042   -0.1608 C   0  0  0  0  0  0  0  0  0  0  0  0
   -2.5942   -7.7514   -1.2226 C   0  0  0  0  0  0  0  0  0  0  0  0
   -2.7270   -7.1792   -2.4574 N   0  0  0  0  0  0  0  0  0  0  0  0
   -4.0763   -7.1135   -2.6347 C   0  0  0  0  0  0  0  0  0  0  0  0
   -4.7630   -6.1087   -3.3238 C   0  0  0  0  0  0  0  0  0  0  0  0
   -1.8189   -7.4142   -3.5869 C   0  0  0  0  0  0  0  0  0  0  0  0
   -1.6998   -6.1912   -4.5013 C   0  0  0  0  0  0  0  0  0  0  0  0
    0.5943   -6.8315   -1.0119 C   0  0  0  0  0  0  0  0  0  0  0  0
    0.3845   -5.6564   -1.9701 C   0  0  0  0  0  0  0  0  0  0  0  0
    1.5631   -4.3265    1.0416 C   0  0  0  0  0  0  0  0  0  0  0  0
    2.8037   -4.1458    0.1661 C   0  0  0  0  0  0  0  0  0  0  0  0
    4.6007   -1.0242    5.2645 C   0  0  0  0  0  0  0  0  0  0  0  0
    3.8846   -0.0898    6.5110 S   0  0  0  0  0  0  0  0  0  0  0  0
    4.8250    1.2371    6.1540 C   0  0  0  0  0  0  0  0  0  0  0  0
    4.9756    2.5502    6.4860 C   0  0  0  0  0  0  0  0  0  0  0  0
    5.8923    3.0568    5.6273 C   0  0  0  0  0  0  0  0  0  0  0  0
    6.3471    2.1218    4.7527 N   0  0  0  0  0  0  0  0  0  0  0  0
    7.2233    2.3160    3.6005 C   0  0  0  0  0  0  0  0  0  0  0  0
    6.4120    2.7607    2.3916 C   0  0  0  0  0  0  0  0  0  0  0  0
    5.6476    1.0084    5.1032 C   0  0  0  0  0  0  0  0  0  0  0  0
    5.5422   -0.2615    4.5428 C   0  0  0  0  0  0  0  0  0  0  0  0
    6.1404    4.4181    5.7749 C   0  0  0  0  0  0  0  0  0  0  0  0
    5.3244    4.9478    6.7977 C   0  0  0  0  0  0  0  0  0  0  0  0
    4.3610    3.7193    7.5031 S   0  0  0  0  0  0  0  0  0  0  0  0
    5.3933    6.3086    7.3546 C   0  0  0  0  0  0  0  0  0  0  0  0
    5.5601    7.4389    6.6415 C   0  0  0  0  0  0  0  0  0  0  0  0
    5.3261    7.5962    5.1966 C   0  0  0  0  0  0  0  0  0  0  0  0
    5.1059    6.6787    4.3646 O   0  0  0  0  0  0  0  0  0  0  0  0
    5.2102    9.0107    4.9048 C   0  0  0  0  0  0  0  0  0  0  0  0
    4.8783    9.6115    3.6915 C   0  0  0  0  0  0  0  0  0  0  0  0
    4.6885   11.0032    3.6561 C   0  0  0  0  0  0  0  0  0  0  0  0
    4.3533   11.6502    2.4557 C   0  0  0  0  0  0  0  0  0  0  0  0
    4.1346   13.0317    2.4384 C   0  0  0  0  0  0  0  0  0  0  0  0
    4.2491   13.7789    3.6143 C   0  0  0  0  0  0  0  0  0  0  0  0
    4.0299   15.1163    3.5903 F   0  0  0  0  0  0  0  0  0  0  0  0
    4.5839   13.1475    4.8178 C   0  0  0  0  0  0  0  0  0  0  0  0
    4.8102   11.7641    4.8522 C   0  0  0  0  0  0  0  0  0  0  0  0
    5.1387   11.1263    6.0639 C   0  0  0  0  0  0  0  0  0  0  0  0
    5.3681    9.7401    6.0704 C   0  0  0  0  0  0  0  0  0  0  0  0
    5.6922    8.8208    7.1969 C   0  0  0  0  0  0  0  0  0  0  0  0
    6.2348    9.1643    8.3956 C   0  0  0  0  0  0  0  0  0  0  0  0
    6.4923   10.5286    8.7720 C   0  0  0  0  0  0  0  0  0  0  0  0
    6.7070   11.6224    9.0876 N   0  0  0  0  0  0  0  0  0  0  0  0
    6.7252    8.1845    9.3319 C   0  0  0  0  0  0  0  0  0  0  0  0
    7.1245    7.4017   10.0862 N   0  0  0  0  0  0  0  0  0  0  0  0
   -8.9036   -0.4310   -1.3734 H   0  0  0  0  0  0  0  0  0  0  0  0
   -8.6278    4.6604   -2.7990 H   0  0  0  0  0  0  0  0  0  0  0  0
   -7.9568    6.7858   -3.9057 H   0  0  0  0  0  0  0  0  0  0  0  0
   -6.8957    7.9545   -5.7984 H   0  0  0  0  0  0  0  0  0  0  0  0
   -6.4061    4.2342   -7.8843 H   0  0  0  0  0  0  0  0  0  0  0  0
   -7.1746    2.1403   -6.8577 H   0  0  0  0  0  0  0  0  0  0  0  0
   -1.1417   -3.8362   -9.1923 H   0  0  0  0  0  0  0  0  0  0  0  0
    0.3582   -3.9127   -8.1947 H   0  0  0  0  0  0  0  0  0  0  0  0
   -0.3083   -6.1095   -7.2724 H   0  0  0  0  0  0  0  0  0  0  0  0
   -1.9005   -6.0335   -8.1410 H   0  0  0  0  0  0  0  0  0  0  0  0
   -0.3634   -6.1620   -9.0700 H   0  0  0  0  0  0  0  0  0  0  0  0
   -1.6198   -1.7944   -4.2403 H   0  0  0  0  0  0  0  0  0  0  0  0
   -5.2463    1.6813   -3.8495 H   0  0  0  0  0  0  0  0  0  0  0  0
   -3.1039    3.8125   -7.7235 H   0  0  0  0  0  0  0  0  0  0  0  0
   -2.7713    2.3085   -8.6546 H   0  0  0  0  0  0  0  0  0  0  0  0
   -0.6561    3.4618   -8.0638 H   0  0  0  0  0  0  0  0  0  0  0  0
   -0.7496    1.8665   -7.2243 H   0  0  0  0  0  0  0  0  0  0  0  0
   -1.0792    3.3965   -6.3063 H   0  0  0  0  0  0  0  0  0  0  0  0
    4.0022   -2.4944    7.7359 H   0  0  0  0  0  0  0  0  0  0  0  0
    3.5016   -4.2030    7.7664 H   0  0  0  0  0  0  0  0  0  0  0  0
    5.7805   -4.9051    6.9785 H   0  0  0  0  0  0  0  0  0  0  0  0
    6.3026   -3.1703    6.9684 H   0  0  0  0  0  0  0  0  0  0  0  0
    5.8463   -3.9720    8.5232 H   0  0  0  0  0  0  0  0  0  0  0  0
   -4.3206   -5.6061   -4.1604 H   0  0  0  0  0  0  0  0  0  0  0  0
   -2.1878   -8.2773   -4.1800 H   0  0  0  0  0  0  0  0  0  0  0  0
   -0.8205   -7.7141   -3.2257 H   0  0  0  0  0  0  0  0  0  0  0  0
   -0.6917   -6.1667   -4.9571 H   0  0  0  0  0  0  0  0  0  0  0  0
   -2.4442   -6.2517   -5.3206 H   0  0  0  0  0  0  0  0  0  0  0  0
   -1.8607   -5.2495   -3.9406 H   0  0  0  0  0  0  0  0  0  0  0  0
    1.5869   -6.7534   -0.5289 H   0  0  0  0  0  0  0  0  0  0  0  0
    0.6322   -7.7871   -1.5753 H   0  0  0  0  0  0  0  0  0  0  0  0
    1.0044   -4.7838   -1.7100 H   0  0  0  0  0  0  0  0  0  0  0  0
   -0.6758   -5.3305   -1.9707 H   0  0  0  0  0  0  0  0  0  0  0  0
    0.7015   -5.9451   -2.9927 H   0  0  0  0  0  0  0  0  0  0  0  0
    1.3863   -3.3958    1.6200 H   0  0  0  0  0  0  0  0  0  0  0  0
    0.6513   -4.4526    0.4323 H   0  0  0  0  0  0  0  0  0  0  0  0
    2.6323   -3.3076   -0.5446 H   0  0  0  0  0  0  0  0  0  0  0  0
    3.0264   -5.0641   -0.4099 H   0  0  0  0  0  0  0  0  0  0  0  0
    3.6961   -3.9101    0.7776 H   0  0  0  0  0  0  0  0  0  0  0  0
    7.7525    1.3703    3.3644 H   0  0  0  0  0  0  0  0  0  0  0  0
    7.9880    3.0863    3.8352 H   0  0  0  0  0  0  0  0  0  0  0  0
    5.9092    3.7274    2.6036 H   0  0  0  0  0  0  0  0  0  0  0  0
    5.6446    1.9971    2.1447 H   0  0  0  0  0  0  0  0  0  0  0  0
    7.0823    2.8921    1.5147 H   0  0  0  0  0  0  0  0  0  0  0  0
    6.0895   -0.6056    3.6729 H   0  0  0  0  0  0  0  0  0  0  0  0
    6.8746    4.9739    5.2085 H   0  0  0  0  0  0  0  0  0  0  0  0
    5.2382    6.3733    8.4201 H   0  0  0  0  0  0  0  0  0  0  0  0
    4.7534    9.0070    2.8013 H   0  0  0  0  0  0  0  0  0  0  0  0
    4.2510   11.0899    1.5349 H   0  0  0  0  0  0  0  0  0  0  0  0
    3.8746   13.5259    1.5094 H   0  0  0  0  0  0  0  0  0  0  0  0
    4.6653   13.7452    5.7179 H   0  0  0  0  0  0  0  0  0  0  0  0
    5.1653   11.7058    6.9721 H   0  0  0  0  0  0  0  0  0  0  0  0
  1  2  2  3
  2  3  1  0
  3  4  2  0
  3  5  1  0
  5  6  2  0
  6  7  1  0
  7  8  2  0
  8  9  1  0
  9 10  2  0
 10 11  1  0
 10 12  1  0
 12 13  2  0
 13 14  1  0
 14 15  2  0
 15 16  1  0
 16 17  2  3
 17 18  1  0
 18 19  3  0
 17 20  1  0
 20 21  3  0
  1 22  1  0
 22 23  2  0
 23 24  1  0
 23 25  1  0
 25 26  1  0
 25 27  2  0
 27 28  1  0
 28 29  2  0
 29 30  1  0
 30 31  1  0
 31 32  1  0
 32 33  1  0
 33 34  1  0
 34 35  1  0
 33 36  2  0
 36 37  1  0
 36 38  1  0
 30 39  2  0
 39 40  1  0
 40 41  2  0
 39 42  1  0
 42 43  2  0
 43 44  1  0
 44 45  1  0
 44 46  2  0
 46 47  1  0
 47 48  1  0
 46 49  1  0
 27 50  1  0
 50 51  1  0
 51 52  1  0
 52 53  1  0
 53 54  1  0
 54 55  1  0
 55 56  1  0
 56 57  1  0
 57 58  1  0
 58 59  2  0
 59 60  1  0
 60 61  1  0
 58 62  1  0
 62 63  1  0
 63 64  1  0
 64 65  1  0
 65 66  1  0
 66 67  1  0
 67 68  1  0
 66 69  2  0
 69 70  1  0
 70 71  1  0
 71 72  1  0
 72 73  1  0
 73 74  1  0
 74 75  1  0
 75 76  1  0
 76 77  1  0
 77 78  1  0
 78 79  1  0
 79 80  1  0
 80 81  1  0
 79 82  1  0
 82 83  1  0
 76 84  1  0
 84 85  1  0
 73 86  1  0
 86 87  1  0
 69 88  1  0
 88 89  1  0
 89 90  1  0
 90 91  1  0
 91 92  2  0
 92 93  1  0
 93 94  1  0
 94 95  1  0
 93 96  1  0
 96 97  1  0
 92 98  1  0
 98 99  2  0
 99100  1  0
 99101  1  0
101102  2  3
102103  1  0
103104  2  0
103105  1  0
105106  2  0
106107  1  0
107108  2  0
108109  1  0
109110  2  0
110111  1  0
110112  1  0
112113  2  0
113114  1  0
114115  2  0
115116  1  0
116117  2  3
117118  1  0
118119  3  0
117120  1  0
120121  3  0
 16  2  1  0
 41 22  1  0
 49 42  1  0
 81 50  2  0
 97 88  2  0
116102  1  0
 15  5  1  0
 41 28  1  0
 80 52  2  0
 96 90  2  0
115105  1  0
 13  7  1  0
 37 31  2  0
 78 53  2  0
100 91  1  0
113107  1  0
 77 55  2  0
 75 56  2  0
 61 57  2  0
 74 62  2  0
 72 63  2  0
 71 65  2  0
  1122  1  0
  6123  1  0
  8124  1  0
  9125  1  0
 12126  1  0
 14127  1  0
 34128  1  0
 34129  1  0
 35130  1  0
 35131  1  0
 35132  1  0
 37133  1  0
 43134  1  0
 47135  1  0
 47136  1  0
 48137  1  0
 48138  1  0
 48139  1  0
 67140  1  0
 67141  1  0
 68142  1  0
 68143  1  0
 68144  1  0
 81145  1  0
 82146  1  0
 82147  1  0
 83148  1  0
 83149  1  0
 83150  1  0
 84151  1  0
 84152  1  0
 85153  1  0
 85154  1  0
 85155  1  0
 86156  1  0
 86157  1  0
 87158  1  0
 87159  1  0
 87160  1  0
 94161  1  0
 94162  1  0
 95163  1  0
 95164  1  0
 95165  1  0
 97166  1  0
 98167  1  0
101168  1  0
106169  1  0
108170  1  0
109171  1  0
112172  1  0
114173  1  0
M  END

