227
PBDTS-TDZ.sdf
C          0.52247       13.17438        5.20812
C          0.58504       14.58516        5.36906
C          1.79389       15.23837        5.08293
C          2.94280       14.52118        4.66204
C          2.88998       13.10711        4.52495
C          1.68806       12.45411        4.84658
C         -0.40427       15.53325        5.84320
C          0.03407       16.82865        5.88748
S          1.60221       16.96054        5.28537
C          3.86905       12.14170        4.06111
C          3.42399       10.84085        4.00271
S          1.92533       10.74556        4.76598
C         -0.81416       12.51598        5.37257
C          4.22355       15.25978        4.45605
C         -2.06787       13.00222        5.01214
C         -3.14948       12.13034        5.34369
C         -2.70969       10.95568        5.90489
S         -1.02187       10.97349        6.11697
C          4.73980       16.31397        5.19844
C          5.99846       16.79181        4.73474
C          6.46264       16.06337        3.66726
S          5.30616       14.92074        3.15608
S         -3.72899        9.57892        6.30803
C         -3.32138        9.30021        8.05802
S          8.05266       16.24733        2.93874
C          7.63515       16.50828        1.19100
C          4.10241        9.69329        3.43183
S          5.81763        9.69420        3.34465
C          5.89140        8.20147        2.51174
C          4.62576        7.69352        2.34322
C          3.57120        8.53997        2.85577
C          2.11230        8.19221        2.67484
C          1.53446        7.34077        3.79885
C          7.13987        7.59138        2.11173
N          7.19589        6.43471        1.50990
N          8.49537        6.05595        1.20508
C          9.38313        6.92118        1.62023
S          8.68590        8.29979        2.37985
C         10.80728        6.72098        1.45361
S         11.99084        7.83947        1.96373
C         13.29005        6.86925        1.41738
C         12.84729        5.67965        0.85426
C         11.40376        5.63173        0.86618
C         13.72876        4.59765        0.28463
C         13.16299        3.19195        0.37532
C         -4.09623        8.10607        8.59494
C          8.90317       16.69339        0.37284
C         17.40171        9.46604        3.03760
C         16.55619        8.59069        2.30732
C         17.07170        7.97604        1.16229
C         18.40302        8.19194        0.72516
C         19.24429        9.08592        1.43714
C         18.70602        9.74688        2.55392
C         15.16470        8.21728        2.50410
C         14.66192        7.36710        1.54906
S         15.86568        6.96576        0.45352
C         20.63656        9.45596        1.26212
C         21.13064       10.32298        2.21045
S         19.84727       10.90627        3.12946
C         16.89845       10.01417        4.33881
C         18.87373        7.51627       -0.52200
C         16.10208        9.39417        5.29746
C         15.84786       10.19855        6.45161
C         16.47812       11.41744        6.37955
S         17.22975       11.62360        4.86929
C         18.17273        7.26300       -1.69540
C         18.91345        6.53988       -2.67402
C         20.20381        6.30481       -2.26812
S         20.45528        6.84621       -0.67356
S         16.55762       12.60145        7.67827
C         15.93810       14.10564        6.86749
S         21.45725        5.57216       -3.25837
C         22.02560        4.21705       -2.18917
C         22.50215       10.74557        2.41256
S         23.58904       10.71892        1.08358
C         24.92965       11.20511        2.02062
C         24.54641       11.40531        3.33153
C         23.14761       11.14978        3.58073
C         22.56123       11.25049        4.96972
C         22.04367       12.63907        5.32393
C         26.25416       11.36674        1.46908
N         27.29046       11.74333        2.19328
N         28.44945       11.85032        1.44080
C         28.25548       11.55319        0.16996
S         26.64042       11.09770       -0.18336
C         29.30811       11.62337       -0.81474
S         29.08497       11.24341       -2.46197
C         30.72163       11.57593       -2.87659
C         31.44560       11.99945       -1.76723
C         30.61539       12.00205       -0.58849
C         32.90696       12.37836       -1.76556
C         33.29301       13.42431       -0.73608
C         15.96287       15.27444        7.84111
C         23.14219        3.44742       -2.87511
C         30.56599       11.06294       -7.94028
C         31.05170       11.11362       -6.60891
C         32.35858       10.67779       -6.35207
C         33.19101       10.18430       -7.38806
C         32.70724       10.14312       -8.72595
C         31.38228       10.53974       -8.96963
C         30.39327       11.50187       -5.38034
C         31.15396       11.37191       -4.24470
S         32.71341       10.88123       -4.66951
C         33.35173        9.78029       -9.97399
C         32.57174        9.92974      -11.09946
S         30.98486       10.24200      -10.62300
C         29.19578       11.60888       -8.19133
C         34.57474        9.68837       -7.10819
C         28.57929       12.71243       -7.60825
C         27.22005       12.89439       -8.00494
C         26.83289       11.97365       -8.94876
S         28.07528       10.85485       -9.26196
C         35.73680        9.80022       -7.86196
C         36.87501        9.16682       -7.27435
C         36.58734        8.62636       -6.04487
S         34.92541        8.73271       -5.70774
S         25.28276       11.95984       -9.77907
C         24.69980       10.26548       -9.46624
S         37.76690        7.94623       -4.93320
C         37.06796        6.30378       -4.59567
C         32.97878        9.81058      -12.48676
S         34.33679        8.83258      -12.87899
C         34.29339        9.23184      -14.53719
C         33.23700       10.08137      -14.79426
C         32.46764       10.43262      -13.62517
C         31.32768       11.41944      -13.70170
C         29.98069       10.78227      -14.01429
C         35.25235        8.73046      -15.49319
N         35.21107        9.03746      -16.77595
N         36.22763        8.42874      -17.49685
C         37.00438        7.67840      -16.73747
S         36.55325        7.68984      -15.08244
C         38.11301        6.91688      -17.26257
S         39.11787        5.92753      -16.28089
C         40.05223        5.41755      -17.60986
C         39.64647        5.98946      -18.79870
C         38.51987        6.85499      -18.58464
C         40.28779        5.73216      -20.13002
C         41.40787        6.71521      -20.43440
C         23.35767       10.04206      -10.14609
C         37.95514        5.55414       -3.61443
H         -1.40192       15.27501        6.17171
H         -0.50853       17.69966        6.22822
H          4.85268       12.39968        3.69932
H         -2.22476       13.96171        4.53405
H         -4.19164       12.35528        5.14937
H          4.23886       16.74484        6.05532
H          6.53765       17.60997        5.19567
H         -3.58236       10.19507        8.63138
H         -2.24982        9.11351        8.17637
H          7.00528       17.39869        1.10223
H          7.07975       15.64954        0.80281
H          4.43428        6.75404        1.83056
H          1.99424        7.64371        1.73291
H          1.51361        9.10034        2.54761
H          1.99543        6.34844        3.81678
H          0.45702        7.20808        3.64979
H          1.68211        7.78932        4.78560
H         10.82966        4.79844        0.45767
H         14.67134        4.56308        0.81699
H         13.93757        4.83627       -0.77293
H         12.97428        2.92446        1.42108
H         13.88456        2.47792       -0.03630
H         12.23256        3.09230       -0.18654
H         -5.17838        8.25658        8.51778
H         -3.86078        7.95401        9.65416
H         -3.83431        7.18297        8.06598
H          9.48383       17.55697        0.71451
H          8.64603       16.86458       -0.67809
H          9.54320       15.80503        0.41337
H         14.54817        8.58713        3.30632
H         21.28695        9.03844        0.50841
H         15.71808        8.38574        5.20230
H         15.26234        9.87142        7.30276
H         17.14527        7.56039       -1.85950
H         18.50926        6.23680       -3.63227
H         14.91205       13.92947        6.53060
H         16.55157       14.35330        5.99601
H         21.18535        3.54629       -1.98460
H         22.39387        4.61099       -1.23711
H         25.24464       11.70648        4.10561
H         23.33384       10.97616        5.69800
H         21.76906       10.50760        5.10778
H         22.86366       13.36171        5.38092
H         21.54946       12.61448        6.30154
H         21.32217       13.01852        4.59443
H         30.96423       12.28199        0.39970
H         33.18416       12.79372       -2.73958
H         33.50140       11.47079       -1.60698
H         32.72483       14.34751       -0.88912
H         34.35826       13.65787       -0.82635
H         33.11436       13.07076        0.28298
H         15.34292       15.08082        8.72306
H         15.56974       16.17392        7.35452
H         16.98155       15.50171        8.17467
H         22.81387        3.02300       -3.82984
H         23.46737        2.61681       -2.23944
H         24.01596        4.08272       -3.05769
H         29.36321       11.82475       -5.32387
H         34.38641        9.48666      -10.05890
H         29.06183       13.36003       -6.88536
H         26.57654       13.67872       -7.62353
H         35.79986       10.31950       -8.80826
H         37.86007        9.15307       -7.72491
H         24.59494       10.11740       -8.38694
H         25.41973        9.53474       -9.84718
H         37.00299        5.74624       -5.53498
H         36.06197        6.39197       -4.17432
H         33.02944       10.47084      -15.78560
H         31.55153       12.15275      -14.48594
H         31.26358       12.00440      -12.77888
H         29.97331       10.35105      -15.02039
H         29.19088       11.53998      -13.96779
H         29.72134        9.98402      -13.31264
H         40.86311        4.71876      -17.45371
H         38.02212        7.40633      -19.37578
H         39.52872        5.78916      -20.91902
H         40.68768        4.71081      -20.15330
H         41.03708        7.74557      -20.45057
H         41.84855        6.49676      -21.41234
H         42.20286        6.65612      -19.68313
H         22.59772       10.74180       -9.78222
H         22.99752        9.02848       -9.93833
H         23.43422       10.14564      -11.23419
H         38.97124        5.42706       -4.00303
H         37.54591        4.55502       -3.42976
H         38.01334        6.06844       -2.64865
