185
PBDTTT-E-T.sdf
C          1.53742       -2.28439        2.17589
C          1.09425       -3.07921        3.25273
C         -0.24816       -3.49381        3.34970
C         -1.17987       -3.12486        2.35108
C         -0.75532       -2.29831        1.29904
C          0.59248       -1.86042        1.20919
C         -2.58257       -3.41751        2.23220
C         -3.19863       -2.81814        1.17076
S         -2.08842       -1.93179        0.25492
C          2.96672       -2.07938        2.27319
C          3.53473       -2.59960        3.40726
S          2.40324       -3.43877        4.33635
C          0.98989       -0.93890        0.09492
C         -0.71234       -4.29377        4.51960
C          0.60553       -0.93012       -1.24284
C          1.18792        0.12167       -2.00923
C          2.07759        0.86712       -1.26996
S          2.01518        0.42783        0.38076
C         -0.45738       -4.12354        5.87349
C         -1.15039       -5.05485        6.70730
C         -1.99344       -5.86897        5.98371
S         -1.68370       -5.71117        4.31118
C          2.98294        1.96669       -1.74705
C          4.26734        1.41870       -2.35987
C         -3.01349       -6.84989        6.48798
C         -4.28267       -6.16133        6.98211
C         -4.60637       -2.69084        0.97314
S         -5.37242       -2.62350       -0.55017
C         -6.73783       -1.76229        0.09741
C         -6.38578       -1.31674        1.36901
C         -5.42949       -2.17692        1.95533
C         -5.65788       -0.05356        1.84993
C         -4.96573       -0.18197        3.10781
S         -5.07411       -1.83466        3.71282
C         -4.17349        0.81315        3.87582
O         -3.97121        1.96189        3.51307
O         -3.72572        0.31784        5.08890
C         -3.29913        1.25826        6.09723
C         -1.80997        1.55262        6.11238
C         -9.79749       -2.94496       -1.93907
C        -10.54786       -2.45367       -0.85617
C        -11.95511       -2.60967       -0.80302
C        -12.64648       -3.27012       -1.85192
C        -11.92280       -3.74174       -2.94564
C        -10.50987       -3.59588       -3.00309
C        -14.05153       -3.55893       -2.00906
C        -14.39952       -4.05126       -3.24864
S        -12.99631       -4.47024       -4.12525
C         -8.37731       -2.63995       -1.71985
C         -8.06153       -2.01310       -0.51499
S         -9.51164       -1.63692        0.29107
C         -9.83931       -4.07039       -4.24504
C        -12.78947       -2.03578        0.26493
C        -10.26520       -3.92872       -5.56249
C         -9.49013       -4.67228       -6.49312
C         -8.39465       -5.26941       -5.90056
S         -8.42366       -5.05037       -4.19937
C        -13.98333       -1.33477        0.13894
C        -14.59240       -1.01704        1.38302
C        -13.79755       -1.37817        2.44705
S        -12.43014       -2.26498        1.93067
C         -7.29026       -6.01404       -6.58039
C         -7.48570       -7.52086       -6.57592
C        -14.03056       -1.10162        3.90074
C        -13.61547        0.31603        4.27267
C        -15.76018       -4.30915       -3.66253
S        -17.02867       -3.21339       -3.32225
C        -18.24043       -4.45634       -3.40204
C        -17.57671       -5.67040       -3.47224
C        -16.26305       -5.53949       -3.99282
C        -17.15462       -6.67150       -2.40616
C        -16.06701       -7.53290       -2.78462
S        -15.41829       -7.08886       -4.36271
C        -15.41563       -8.62917       -2.04174
O        -15.74306       -8.98401       -0.91315
O        -14.41781       -9.24205       -2.76472
C        -13.93478      -10.52354       -2.31760
C        -12.62403      -10.44390       -1.54564
C        -21.52106       -2.68804       -4.45215
C        -21.88754       -3.93995       -4.95985
C        -23.12154       -4.13550       -5.61293
C        -24.04915       -3.07109       -5.78687
C        -23.66228       -1.79492       -5.36141
C        -22.42779       -1.58244       -4.68694
C        -25.39423       -3.04611       -6.30092
C        -25.99434       -1.80644       -6.32058
S        -24.88406       -0.63224       -5.83603
C        -20.22530       -2.80327       -3.76941
C        -19.60755       -4.05097       -3.81983
S        -20.62668       -5.12058       -4.65998
C        -22.16588       -0.20956       -4.16626
C        -23.50321       -5.49307       -6.07286
C        -23.07071        0.69606       -3.61772
C        -22.51075        1.96155       -3.29691
C        -21.15245        1.97897       -3.50017
S        -20.61842        0.54128       -4.26475
C        -23.43601       -6.68574       -5.37558
C        -23.90606       -7.80769       -6.11411
C        -24.42340       -7.43877       -7.33509
S        -24.12733       -5.78412       -7.65616
C        -20.18963        3.06951       -3.11990
C        -19.91869        4.03110       -4.25988
C        -25.13848       -8.30727       -8.32609
C        -24.24013       -8.70884       -9.48224
C        -27.28556       -1.52957       -6.90798
S        -28.68233       -2.53607       -6.69692
C        -28.93632       -2.62321       -8.41603
C        -28.06797       -1.75197       -8.98144
C        -27.39016       -0.89865       -8.11196
C        -27.35246       -1.69943      -10.21587
C        -26.44825       -0.61418      -10.26465
S        -26.48434        0.44265       -8.85636
C        -25.49334       -0.22626      -11.28230
O        -24.84629        0.81397      -11.30022
O        -25.44061       -1.17225      -12.26488
C        -24.77361       -0.71693      -13.44842
C        -25.76261        0.10422      -14.25805
H         -3.15898       -3.97138        2.95878
H          3.56496       -1.54960        1.54363
H          4.56928       -2.54270        3.71536
H         -0.08196       -1.64346       -1.67649
H          0.99418        0.28921       -3.06235
H          0.18679       -3.34893        6.27022
H         -1.07796       -5.07820        7.78796
H          3.23794        2.64621       -0.92568
H          2.45941        2.56790       -2.50043
H          4.83317        0.82119       -1.63694
H          4.90950        2.24087       -2.69388
H          4.05817        0.78394       -3.22825
H         -2.57947       -7.43065        7.30986
H         -3.28669       -7.56671        5.70460
H         -4.07267       -5.47465        7.80949
H         -5.00089       -6.90664        7.34194
H         -4.76701       -5.58723        6.18445
H         -5.55912        0.84276        1.24425
H         -3.56705        0.81303        7.06215
H         -3.87352        2.18847        6.01362
H         -1.22220        0.65685        6.34290
H         -1.58015        2.29887        6.89385
H         -1.45781        1.94580        5.15819
H        -14.79711       -3.37142       -1.25420
H         -7.61193       -2.93877       -2.42403
H        -11.15116       -3.37877       -5.85513
H         -9.70532       -4.74989       -7.55156
H        -14.43696       -1.09520       -0.81632
H        -15.54570       -0.51275        1.48700
H         -6.32382       -5.77692       -6.11869
H         -7.21951       -5.67562       -7.62291
H         -7.51283       -7.91880       -5.55693
H         -6.64908       -7.99303       -7.10187
H         -8.41370       -7.81336       -7.07914
H        -13.48490       -1.81623        4.52774
H        -15.09568       -1.23447        4.12585
H        -12.54611        0.47682        4.09742
H        -13.81803        0.50442        5.33173
H        -14.16539        1.06136        3.68674
H        -17.54403       -6.67522       -1.39155
H        -13.75544      -11.12832       -3.21835
H        -14.69153      -11.05319       -1.73260
H        -11.81750      -10.03663       -2.16395
H        -12.31875      -11.44627       -1.21466
H        -12.71773       -9.80848       -0.66038
H        -25.91785       -3.91372       -6.68400
H        -19.74406       -1.95682       -3.29394
H        -24.12205        0.48591       -3.46731
H        -23.07407        2.79427       -2.88905
H        -23.05038       -6.76324       -4.36728
H        -23.90477       -8.82478       -5.74329
H        -19.25194        2.62964       -2.76640
H        -20.60665        3.62837       -2.27222
H        -19.47350        3.51822       -5.11834
H        -19.22176        4.80886       -3.93083
H        -20.83820        4.52134       -4.59680
H        -26.03398       -7.79868       -8.70427
H        -25.49478       -9.21436       -7.81979
H        -23.94066       -7.83546      -10.07062
H        -24.76432       -9.40100      -10.14829
H        -23.33098       -9.20133       -9.12170
H        -29.61573       -3.34388       -8.85034
H        -27.38147       -2.47783      -10.97077
H        -24.45800       -1.59869      -14.01449
H        -23.86731       -0.14612      -13.21406
H        -26.64584       -0.49938      -14.49163
H        -25.31459        0.46504      -15.18494
H        -26.12160        0.96653      -13.68419
