230
PBDTS-Se-TAZ.sdf
C         -2.19014        5.43728        2.44331
C         -2.85963        4.36319        1.79195
C         -2.13587        3.35385        1.11545
C         -0.71663        3.31762        1.02789
C         -0.04870        4.39641        1.67764
C         -0.77631        5.40399        2.35067
C         -4.25776        4.16894        1.69993
C         -4.62994        3.02380        1.01710
S         -3.24606        2.23949        0.50474
C          1.34769        4.63122        1.72506
C          1.70285        5.76188        2.45201
S          0.31883        6.48566        3.03086
C         -2.90666        6.53949        3.20365
C          0.01345        2.19203        0.31371
C         -0.48742        1.48967       -0.78320
C          0.31687        0.46179       -1.23224
C          1.47753        0.31773       -0.51067
Se         1.64409        1.52056        0.83207
C         -2.44425        7.85303        3.30813
C         -3.24512        8.69143        4.05078
C         -4.35704        8.07171        4.56492
Se        -4.47386        6.31616        4.13821
C          3.06458        6.25682        2.69432
S          4.47413        5.54083        2.15276
C          5.55009        6.64594        2.84836
C          4.78604        7.60648        3.51342
C          3.40405        7.38720        3.42631
C          7.03895        6.56109        2.76999
C          7.66486        5.48909        2.06832
C          9.06635        5.38242        1.98708
C          9.90081        6.32900        2.61289
C          9.26942        7.36566        3.29445
C          7.91271        7.49544        3.37331
N          9.84035        8.39518        3.93071
N          8.84077        9.12873        4.39073
N          7.64918        8.61965        4.07703
C         11.37416        6.25434        2.55016
C          9.06635       10.36744        5.13211
C          9.87933       10.08584        6.39491
C         12.12941        5.63622        1.55735
C         13.50568        5.76464        1.74815
C         13.83363        6.46142        2.90072
S         12.42614        6.94375        3.66953
S          2.66146       -1.02109       -0.74796
S         -5.64422        8.95007        5.46133
C         -5.03108        8.56478        7.13644
F          6.94269        4.52134        1.45254
F          9.58958        4.32275        1.32204
C          3.21906       -0.59648       -2.43646
C         -6.00087        9.13460        8.16798
C          4.32624       -1.56590       -2.84788
C         17.49992        8.11084        5.91745
C         16.88272        7.53390        4.77628
C         17.64430        7.08929        3.67005
C         19.05764        7.18938        3.58837
C         19.67904        7.76447        4.73538
C         18.91309        8.19795        5.84440
C         15.49973        7.36564        4.57116
C         15.18473        6.75435        3.37164
S         16.59084        6.42060        2.53764
C         21.05920        8.00399        4.92084
C         21.37212        8.55788        6.15291
S         19.96469        8.77944        7.02267
C         16.72625        8.58532        7.13854
C         19.82362        6.71322        2.36174
C         19.31735        6.73093        1.05973
C         20.17237        6.24487        0.09319
C         21.38344        5.83129        0.59079
Se        21.52566        6.01905        2.38598
C         17.11649        9.64332        7.95987
C         16.29654        9.87169        9.04568
C         15.22971        9.00895        9.11951
Se        15.18622        7.80262        7.77033
C         22.71626        8.89576        6.63434
S         24.14064        8.67222        5.78418
C         25.18390        9.25343        6.98086
C         24.39783        9.63454        8.06974
C         23.02519        9.43241        7.87335
C         26.66981        9.30176        6.87626
C         27.33498        8.84619        5.69870
C         28.73991        8.87526        5.58701
C         29.53977        9.33807        6.65499
C         28.86842        9.77673        7.79255
C         27.50931        9.77996        7.90900
N         29.39804       10.29403        8.90800
N         28.37007       10.61229        9.67816
N         27.20220       10.30905        9.10983
C         31.00913        9.38600        6.59252
C         28.54485       11.23801       10.98704
C         29.33260       12.54426       10.85340
C         31.78906        9.48461        5.44599
C         33.15654        9.54344        5.71606
C         33.45024        9.46835        7.07110
S         32.02610        9.35889        7.93659
S         22.67226        5.05047       -0.39785
S         14.06195        8.95196       10.49203
C         13.31650       10.60967       10.29090
F         26.64529        8.36078        4.63595
F         29.30576        8.40960        4.44750
C         23.06698        6.46480       -1.48967
C         12.20789       10.77879       11.32891
C         24.23524        6.07730       -2.39485
C         37.11400        9.24638       10.53126
C         36.48103        9.40168        9.26683
C         37.23336        9.68556        8.10513
C         38.63793        9.86542        8.08735
C         39.27334        9.71693        9.35429
C         38.51937        9.42187       10.51554
C         35.09668        9.33412        9.00171
C         34.78529        9.49292        7.65917
S         36.18491        9.73174        6.79299
C         40.65249        9.85935        9.63817
C         40.96937        9.63973       10.97507
S         39.57426        9.28533       11.81272
C         36.37155        8.90362       11.81162
C         39.37613       10.16386        6.79414
C         38.83254       10.88388        5.72725
C         39.62609       10.95158        4.60455
C         40.82693       10.30080        4.74659
Se        41.05963        9.55684        6.38605
C         35.23660        8.09586       11.88078
C         34.75831        7.88007       13.15639
C         35.49568        8.50319       14.13307
Se        36.89683        9.44752       13.49020
C         42.29948        9.69059       11.59111
S         43.73205       10.02576       10.80009
C         44.74999        9.85820       12.14144
C         43.94645        9.53798       13.23812
C         42.58392        9.44553       12.92841
C         46.23810        9.99386       12.11331
C         46.91648       10.27991       10.89263
C         48.32211       10.39090       10.84049
C         49.10601       10.19778       11.99715
C         48.41513        9.92071       13.17853
C         47.05783        9.83650       13.25249
N         48.93478        9.73951       14.39352
N         47.89986        9.55564       15.19645
N         46.73878        9.59904       14.54366
C         50.58598       10.28573       11.99232
C         48.06428        9.34020       16.63167
C         48.84447       10.49951       17.25954
C         51.37484       10.98549       11.08609
C         52.74504       10.88768       11.35305
C         53.04666       10.10217       12.45571
S         51.61013        9.55319       13.11669
S         42.00229       10.05776        3.40280
S         35.20298        8.26663       15.89230
C         34.20103        9.76958       16.15114
F         46.24451       10.45047        9.72714
F         48.89940       10.64365        9.63997
C         42.41863       11.80936        3.08786
C         33.84991        9.88700       17.63225
C         43.48912       11.87026        2.00008
H         -5.01477        4.81835        2.09357
H         -5.64698        2.69872        0.84297
H          2.10153        4.03034        1.25606
H         -1.42321        1.70330       -1.27267
H          0.04464       -0.18136       -2.05893
H         -1.56036        8.23656        2.82752
H         -3.02848        9.74305        4.18900
H          5.19011        8.44300        4.06050
H          2.67645        8.03415        3.89618
H          8.09970       10.84040        5.40412
H          9.63951       11.07310        4.49018
H          9.32199        9.39275        7.05862
H         10.07615       11.03268        6.94043
H         10.85749        9.62582        6.13250
H         11.71413        5.13456        0.69738
H         14.23487        5.36007        1.06103
H         -4.03579        9.03262        7.29158
H         -4.97732        7.46454        7.28005
H          3.62834        0.43578       -2.46684
H          2.37688       -0.70916       -3.15148
H         -6.08970       10.23569        8.04722
H         -5.63584        8.91984        9.19471
H         -7.00636        8.67704        8.04683
H          5.19605       -1.47338       -2.16240
H          4.66683       -1.34772       -3.88243
H          3.95414       -2.61284       -2.81397
H         14.72288        7.67175        5.24233
H         21.83419        7.80031        4.21143
H         18.34684        7.10491        0.78036
H         19.90688        6.18993       -0.95460
H         17.98147       10.26282        7.79130
H         16.49133       10.64454        9.77738
H         24.77786       10.03798        8.99358
H         22.28437        9.67116        8.62366
H         29.11834       10.54713       11.64177
H         27.55810       11.44217       11.45447
H         30.32921       12.35399       10.39657
H         29.49566       12.99459       11.85523
H         28.78141       13.26903       10.21796
H         31.39589        9.54587        4.44250
H         33.90340        9.63853        4.94075
H         12.86952       10.72003        9.27982
H         14.08219       11.39331       10.47252
H         23.36678        7.35266       -0.89269
H         22.19359        6.70022       -2.13409
H         11.41245       10.01862       11.17261
H         11.75231       11.78867       11.24836
H         12.61921       10.65987       12.35482
H         25.13669        5.84967       -1.78621
H         24.47909        6.90844       -3.09047
H         23.97415        5.18033       -2.99715
H         34.32221        9.18765        9.73245
H         41.41253       10.11492        8.92371
H         37.86393       11.35657        5.73121
H         39.31164       11.44214        3.69200
H         34.77192        7.61142       11.03723
H         33.90620        7.24710       13.36833
H         44.30798        9.35847       14.23755
H         41.83075        9.19505       13.66340
H         48.64384        8.40478       16.78915
H         47.07613        9.23908       17.12613
H         49.84254       10.60278       16.77850
H         49.00536       10.30842       18.34145
H         48.29003       11.45354       17.13948
H         50.98592       11.57659       10.27057
H         53.49721       11.38327       10.75718
H         54.03615        9.88845       12.83334
H         33.25770        9.69823       15.56961
H         34.77960       10.67152       15.85810
H         42.82395       12.28346        4.00670
H         41.52318       12.35615        2.72281
H         33.27882        8.99385       17.96557
H         33.22735       10.78995       17.80742
H         34.77440        9.97084       18.24339
H         44.40579       11.33640        2.33104
H         43.75474       12.92546        1.77746
H         43.11675       11.39633        1.06596
