236
PBDTTAZ-NaPh.sdf
C         -2.50155        8.37152        5.31005
C         -1.68324        9.15900        6.13435
C         -0.27865        8.93251        6.24916
C          0.32503        7.92153        5.42917
C         -0.47951        7.21977        4.51542
C         -1.88275        7.40684        4.47092
C         -3.89849        8.70984        5.51005
C         -4.10571        9.77745        6.34077
S         -2.64234       10.41399        6.88353
C          1.69702        7.43373        5.35789
C          1.93809        6.52955        4.34977
S          0.50958        6.20803        3.50860
C          0.56964        9.73539        7.20032
C         -2.75095        6.66178        3.50860
C          3.18820        5.91790        3.96385
C          3.39466        4.63360        3.49874
C          4.76223        4.37078        3.17717
C          5.57830        5.45840        3.40614
S          4.65358        6.79208        3.98855
C          7.02055        5.60557        3.22693
C          7.83582        6.33902        4.12313
C          9.21403        6.55657        3.94597
C          9.94178        6.03642        2.86894
C          9.17983        5.26479        1.96586
C          7.72781        5.03930        2.12600
F          7.29135        6.86951        5.23229
F          9.83139        7.32556        4.85930
N          9.58807        4.62812        0.85898
N          8.46923        4.09212        0.38397
N          7.32840        4.27451        1.08013
C          8.54095        3.32930       -0.84954
C          8.37785        4.19575       -2.08829
C         11.36075        6.23306        2.62591
C          0.11126       10.12824        8.47151
C          0.87942       10.90528        9.34720
C          2.20387       11.21885        9.03853
C          2.72801       10.79779        7.80297
C          1.88520       10.13590        6.88574
S         12.45111        6.28323        3.93832
C         13.79013        6.53548        2.91498
C         13.42711        6.50948        1.58557
C         12.02681        6.35753        1.42108
C         -3.86575        7.11139        2.81023
C         -4.47812        6.11797        1.99099
C         -3.77495        4.93884        2.00520
S         -2.51437        4.98970        3.14817
S         -4.10440        3.56400        0.96220
C         -4.19430        2.20884        2.16365
C         -4.46455        0.89832        1.44610
C          3.02083       11.91859        9.94084
C          4.36365       12.15449        9.64447
C          4.89862       11.69927        8.44159
C          4.08326       11.03648        7.52191
C         16.84282        7.52691        4.84655
C         17.55689        6.99707        3.76293
C         18.96303        7.13536        3.64353
C         19.67961        7.74048        4.72072
C         18.97770        8.14537        5.86989
C         17.56584        8.08537        5.93063
C         15.42458        7.42462        4.60319
C         15.09780        6.75099        3.45434
S         16.47836        6.14515        2.70327
C         21.08567        8.05553        4.85829
C         21.44999        8.50426        6.09921
S         20.09599        8.63744        7.09942
C         19.70185        6.67212        2.41574
C         16.80018        8.52121        7.14254
C         22.76826        8.83775        6.55951
C         23.09298        9.85397        7.43053
C         24.48150        9.90046        7.69797
C         25.19800        8.91182        7.04238
S         24.16335        7.96083        6.07197
C         26.61636        8.61945        7.21954
C         27.21056        8.80277        8.49420
C         28.57281        8.62760        8.76827
C         29.50618        8.23182        7.80404
C         28.95074        7.99348        6.52102
C         27.52298        8.19618        6.20331
F         26.43920        9.16417        9.53404
F         28.98801        8.87164       10.02496
N         29.57438        7.56014        5.41345
N         28.61421        7.57391        4.50072
N         27.36870        7.92220        4.88622
C         28.96210        7.19109        3.14355
C         29.44127        8.36480        2.30606
C         30.91096        8.01693        8.09470
C         19.16613        6.80182        1.12008
C         19.85336        6.38407       -0.02600
C         21.17144        5.93813        0.06505
C         21.76513        5.83101        1.33563
C         20.99433        6.11414        2.48090
S         32.11801        8.42347        6.95735
C         33.35768        7.77810        7.93310
C         32.87611        7.39028        9.16368
C         31.46808        7.53318        9.26422
C         15.64811        7.97280        7.69784
C         15.19496        8.63716        8.87855
C         16.04935        9.64284        9.25829
S         17.22643        9.92635        8.05713
S         15.94124       10.63569       10.70404
C         15.99221        9.38368       12.02750
C         15.94780       10.07284       13.38408
C         21.91637        5.62375       -1.08035
C         23.25852        5.25612       -0.97270
C         23.86245        5.19235        0.27947
C         23.11890        5.46719        1.42836
C         36.55751        7.30415        6.04779
C         37.17787        7.45051        7.29353
C         38.56683        7.23544        7.47488
C         39.37827        6.96780        6.32499
C         38.76737        6.94953        5.05470
C         37.36779        7.07104        4.91247
C         35.12291        7.38322        6.18897
C         34.70240        7.68520        7.45851
S         36.01602        7.96577        8.47520
C         40.78416        6.69226        6.19685
C         41.24639        6.61558        4.90436
S         39.97255        6.80397        3.82058
C         39.18704        7.28584        8.84452
C         36.69310        7.00295        3.58409
C         42.61577        6.47719        4.47761
C         43.71173        7.02015        5.11319
C         44.92335        6.70687        4.43962
C         44.73757        5.90811        3.32320
S         43.07807        5.57660        3.09224
C         45.78530        5.30289        2.50118
C         46.99486        4.88572        3.10782
C         48.09808        4.35491        2.41531
C         48.11434        4.15557        1.02975
C         46.92688        4.54207        0.38252
C         45.75151        5.12025        1.08956
F         47.12713        4.99829        4.44245
F         49.18735        4.06968        3.15070
N         46.62376        4.48072       -0.93083
N         45.40392        4.97940       -1.00129
N         44.81367        5.39447        0.15057
C         44.76753        5.05981       -2.29592
C         45.09913        6.34525       -3.03721
C         49.23794        3.61827        0.26666
C         40.44680        7.86200        9.07095
C         41.07302        7.82117       10.32327
C         40.40405        7.31634       11.44137
C         39.09959        6.81641       11.28178
C         38.54405        6.75633        9.98710
S         50.24828        2.39660        0.92616
C         51.21240        2.32217       -0.48045
C         50.76418        3.19283       -1.45630
C         49.63316        3.93742       -1.02359
C         35.60827        7.73702        3.11894
C         35.15356        7.33866        1.82763
C         35.95811        6.37103        1.27765
S         37.14388        5.85149        2.38290
S         35.81201        5.75801       -0.36210
C         35.77635        3.96672       -0.07348
C         35.67024        3.23364       -1.39852
C         40.99550        7.31400       12.71434
C         40.28409        6.86656       13.82763
C         38.97463        6.41835       13.68162
C         38.38758        6.38696       12.41561
H         -4.73331        8.20037        5.04762
H         -5.04986       10.22244        6.62488
H          2.49388        7.76233        6.01308
H          2.60172        3.90438        3.39044
H          5.12265        3.41995        2.80242
H          7.79709        2.53240       -0.81023
H          9.53476        2.85782       -0.87351
H          7.38265        4.65113       -2.12058
H          8.50991        3.59368       -2.99275
H          9.11714        5.00366       -2.11409
H         -0.87732        9.84301        8.82417
H          0.43760       11.23196       10.28614
H          2.29503        9.91841        5.90127
H         14.12207        6.62637        0.76331
H         11.53519        6.33470        0.45517
H         -4.24880        8.12155        2.87621
H         -5.36254        6.28541        1.38831
H         -4.99891        2.41688        2.87557
H         -3.25311        2.12812        2.71494
H         -5.40547        0.92909        0.88652
H         -4.53937        0.08571        2.17618
H         -3.65433        0.64558        0.75320
H          2.62049       12.26877       10.88817
H          4.99250       12.67880       10.35642
H          5.95001       11.85863        8.21977
H          4.52275       10.67833        6.59340
H         14.66371        7.85498        5.24157
H         21.82554        7.92602        4.07984
H         22.36896       10.53184        7.86713
H         24.92689       10.61142        8.38419
H         28.10250        6.68999        2.69034
H         29.77335        6.45488        3.22066
H         28.64971        9.10617        2.17579
H         29.75897        8.01976        1.31541
H         30.29867        8.86657        2.77240
H         18.18574        7.24027        0.95657
H         19.35803        6.45600       -0.99142
H         21.44948        5.91559        3.44889
H         33.50134        6.98168        9.95327
H         30.89539        7.25821       10.13221
H         15.12872        7.11752        7.28452
H         14.30314        8.35892        9.42639
H         16.90902        8.78948       11.94795
H         15.13597        8.70806       11.93473
H         16.81832       10.72072       13.53549
H         15.94954        9.32841       14.18799
H         15.04126       10.67721       13.49912
H         21.46186        5.68486       -2.06604
H         23.83066        5.03345       -1.86791
H         24.91384        4.92998        0.36375
H         23.61244        5.42734        2.39722
H         34.41925        7.20310        5.38643
H         41.46875        6.59065        7.03940
H         43.66041        7.61906        6.01421
H         45.89627        7.02667        4.79489
H         43.68053        4.94110       -2.16658
H         45.12185        4.20611       -2.88096
H         44.71186        7.22034       -2.50541
H         44.66329        6.33207       -4.04157
H         46.18197        6.47061       -3.14494
H         40.98583        8.35085        8.26393
H         42.08409        8.21069       10.41716
H         37.57106        6.28004        9.89245
H         52.04375        1.64667       -0.52835
H         51.21805        3.29314       -2.43049
H         49.13077        4.66714       -1.64316
H         35.12178        8.51748        3.69113
H         34.29737        7.77009        1.32349
H         34.91518        3.72430        0.55699
H         36.68611        3.64545        0.44192
H         34.76853        3.52130       -1.94939
H         35.62086        2.15423       -1.22162
H         36.54300        3.42460       -2.03268
H         42.01403        7.67084       12.84690
H         40.75003        6.87800       14.80937
H         38.41184        6.08824       14.55061
H         37.36133        6.03806       12.32127
