272
PBDTS-TZNT.sdf
C         -0.79095        6.32431       -2.06808
C         -1.60483        5.29998       -2.60472
C         -1.00217        4.11147       -3.02579
C          0.40413        3.95790       -3.03280
C          1.22621        5.01027       -2.54922
C          0.60017        6.15638       -2.03745
C         -3.04042        5.24190       -2.82345
C         -3.48740        4.02576       -3.25286
S         -2.22231        2.93201       -3.44187
C          2.65476        5.14979       -2.47559
C          3.05349        6.31194       -1.87722
S          1.75450        7.23818       -1.37051
C         -1.38988        7.57723       -1.51859
C          1.01212        2.71165       -3.57797
C          0.58690        1.92771       -4.64170
C          1.39146        0.77781       -4.87718
C          2.46228        0.71512       -4.01643
S          2.39965        1.97016       -2.86965
C         -0.93413        8.88940       -1.56641
C         -1.78012        9.81802       -0.88647
C         -2.89830        9.20945       -0.37323
S         -2.82298        7.52278       -0.56290
C          4.37118        6.77162       -1.65490
S          5.62716        5.72004       -1.20650
C          6.67650        7.03128       -0.99940
C          6.08176        8.22384       -1.34816
C          4.75190        8.09117       -1.71786
C          8.00480        6.87352       -0.43518
C          8.35118        6.03282        0.61344
C          9.59018        6.15975        1.27964
C         10.54627        7.25773        1.12191
C         10.02516        8.25939        0.14138
C          8.89930        7.90606       -0.72042
N         10.26598        9.58371       -0.17894
N          9.40066        9.80738       -1.24484
N          8.85664        8.72907       -1.76120
C          8.81015       11.06766       -1.71746
C          8.87264       11.23860       -3.24675
S          3.75217       -0.47718       -4.08585
S         -4.25793       10.02964        0.37877
C         -4.37965        9.14343        1.96140
C          3.72262       -1.14364       -2.39553
C         -5.53267        9.69158        2.78410
C          4.79570       -2.20683       -2.22943
C         11.80609        7.13574        1.86546
C         12.19311        5.98892        2.66805
C         11.19534        4.97974        2.83242
C          9.92194        5.11017        2.15470
N         11.19576        3.81547        3.52392
N          9.97908        3.30542        3.26984
N          9.15703        4.00785        2.48935
C          9.52225        2.06978        3.87921
C          9.78746        0.83336        3.03328
C         13.54136        5.71691        3.21255
S         14.54694        6.97659        3.79924
C         15.83854        5.91085        4.18564
C         15.49203        4.60603        3.90965
C         14.18840        4.49399        3.35774
C         20.16089        5.81375        6.84717
C         19.09484        6.26371        6.03560
C         19.11725        7.59364        5.58753
C         20.12220        8.50065        6.01107
C         21.16594        8.05711        6.87073
C         21.17535        6.70249        7.23446
C         17.90481        5.59728        5.57297
C         17.08905        6.34655        4.76426
S         17.80235        7.84941        4.46984
C         22.28244        8.73839        7.49619
C         23.09641        7.90332        8.21918
S         22.57677        6.31432        8.13966
C         20.22448        4.39094        7.30480
C         20.05431        9.91980        5.56371
C         18.93772       10.71212        5.33817
C         19.24110       12.01305        4.84040
C         20.59516       12.22690        4.75386
S         21.46688       10.82561        5.16731
C         20.65685        3.85290        8.51144
C         20.56912        2.42840        8.57142
C         20.03200        1.90068        7.42339
S         19.81895        3.09936        6.23696
C         24.29435        8.17848        8.93468
S         25.46384        9.20433        8.29797
C         26.51639        8.92205        9.62093
C         25.96746        8.06033       10.53225
C         24.70787        7.58326       10.10642
C         27.79156        9.60014        9.72186
C         28.91089        9.07328       10.34839
C         30.11610        9.80643       10.45365
C         30.29901       11.21619       10.13814
C         28.99089       11.82695        9.72807
C         27.87754       10.94504        9.37131
N         28.45922       13.10118        9.61801
N         27.19464       12.85902        9.10594
N         26.99682       11.64127        8.65859
C         25.95349       13.62874        9.22673
C         25.54002       14.36502        7.95803
S         21.36199       13.74484        4.30718
S         19.58872        0.21711        7.18313
C         20.47812       -0.18210        5.64944
C         22.43486       13.21706        2.93641
C         20.20598       -1.62020        5.24046
C         23.21950       14.40099        2.39613
C         31.67077       11.73300       10.20212
C         32.85298       10.93922       10.49811
C         32.60260        9.58357       10.86997
C         31.24864        9.03990       10.86291
N         33.44301        8.58845       11.24130
N         32.61641        7.55697       11.46801
N         31.31150        7.74230       11.24532
C         33.11918        6.24228       11.84535
C         33.17618        6.01953       13.34695
C         34.26142       11.36553       10.35413
S         34.76126       12.96437       10.71259
C         36.40264       12.66885       10.26657
C         36.57050       11.35154        9.89412
C         35.35381       10.61241        9.94787
C         38.63046       17.22576       10.58964
C         38.42911       15.84392       10.37252
C         39.47661       15.09362        9.81847
C         40.69068       15.70461        9.40606
C         40.88281       17.09628        9.62278
C         39.85675       17.81944       10.24933
C         37.26294       15.02318       10.59392
C         37.41347       13.70245       10.25646
S         39.02240       13.41837        9.78383
C         41.96735       17.98684        9.27973
C         41.79073       19.26477        9.72820
S         40.34032       19.44095       10.54336
C         37.53743       18.01292       11.22462
C         41.73140       14.90542        8.68666
C         41.57699       13.84454        7.80328
C         42.80502       13.34391        7.27004
C         43.88815       14.07104        7.69848
S         43.42711       15.17634        8.91016
C         36.66404       17.62505       12.23078
C         35.70763       18.62337       12.58152
C         35.90402       19.79229       11.88874
S         37.13225       19.61635       10.72741
C         42.65721       20.37688        9.57789
S         44.35006       20.21317        9.64416
C         44.55663       21.89701        9.48521
C         43.35228       22.53515        9.24363
C         42.25485       21.68085        9.41867
C         45.81178       22.50898        9.85947
C         47.08673       21.96746        9.79071
C         48.19109       22.62108       10.39268
C         48.14146       23.75400       11.30661
C         46.72830       24.14634       11.56326
C         45.69033       23.63915       10.67343
N         46.03369       24.87395       12.51311
N         44.73686       24.83182       12.03423
N         44.62347       24.43699       10.78559
C         43.45197       24.91108       12.73620
C         42.70843       26.22888       12.54722
S         45.57162       13.85881        7.23667
S         35.02512       21.29287       12.14345
C         34.45026       21.65839       10.45733
C         45.51492       14.10848        5.43391
C         33.65591       22.95279       10.44169
C         46.91290       13.97719        4.84268
C         49.41464       24.34186       11.72549
C         50.71962       23.91462       11.25219
C         50.71786       22.76085       10.41562
C         49.47140       22.11951       10.01028
N         51.73215       22.08323        9.83368
N         51.10490       21.11876        9.14498
N         49.77092       21.07302        9.21127
C         51.84449       20.11428        8.39865
C         52.08884       20.48499        6.94266
C         51.99825       24.62865       11.45973
S         52.30208       25.48877       12.91138
C         53.83704       26.02457       12.37354
C         54.14981       25.53149       11.13239
C         53.09386       24.72232       10.60817
H         -3.72452        6.03452       -2.59477
H         -4.52481        3.73935       -3.43196
H          3.38281        4.44054       -2.83693
H         -0.28986        2.15498       -5.23987
H          1.19190        0.05272       -5.65518
H         -0.01815        9.20168       -2.05329
H         -1.57491       10.87902       -0.81141
H          6.57107        9.19874       -1.30846
H          4.10058        8.91813       -1.94847
H          7.65283        5.25853        0.92049
H          9.26039       11.91236       -1.19931
H          7.73893       11.05249       -1.44995
H          9.90214       11.14701       -3.60200
H          8.48642       12.21918       -3.55168
H          8.27020       10.49273       -3.78546
H         -3.44061        9.27165        2.50827
H         -4.53872        8.07372        1.79375
H          2.73769       -1.58045       -2.20369
H          3.89494       -0.34534       -1.66749
H         -5.40655       10.75825        2.99605
H         -5.58379        9.16762        3.74463
H         -6.49413        9.54609        2.27923
H          4.65254       -3.03949       -2.92609
H          4.75781       -2.61649       -1.21415
H          5.79968       -1.79444       -2.37927
H         12.54424        7.92197        1.69687
H          8.44420        2.16994        4.05489
H         10.00860        1.97672        4.85608
H          9.28135        0.89467        2.06381
H          9.41655       -0.06012        3.54721
H         10.85716        0.69742        2.84839
H         16.14662        3.75156        4.08712
H         13.75019        3.54111        3.07832
H         17.64184        4.58339        5.84017
H         22.49948        9.79854        7.41344
H         17.92040       10.37562        5.49227
H         18.48840       12.74630        4.58013
H         21.03290        4.43596        9.34332
H         20.86001        1.84180        9.43413
H         26.44822        7.77185       11.45958
H         24.13373        6.83759       10.63695
H         28.87354        8.04267       10.70115
H         25.99000       14.27428       10.10287
H         25.14474       12.89522        9.42408
H         26.32887       15.06366        7.65374
H         24.61888       14.93304        8.12219
H         25.34717       13.68594        7.12056
H         21.55022       -0.04284        5.81849
H         20.16583        0.48386        4.83938
H         21.81283       12.79317        2.14193
H         23.13618       12.44789        3.27380
H         20.53257       -2.32830        6.00915
H         20.75529       -1.85438        4.32204
H         19.14245       -1.78962        5.03835
H         22.55735       15.19239        2.02988
H         23.84512       14.07972        1.55607
H         23.88445       14.82531        3.15659
H         31.81721       12.77363        9.90400
H         34.11573        6.12163       11.40481
H         32.46367        5.49479       11.38473
H         33.85867        6.72318       13.83161
H         33.53334        5.00265       13.56485
H         32.18956        6.12974       13.80872
H         37.51386       10.93256        9.57462
H         35.30492        9.56531        9.67649
H         36.32080       15.40216       10.95808
H         42.86021       17.72149        8.73394
H         40.61856       13.42239        7.53443
H         42.86769       12.50022        6.59423
H         36.69076       16.65080       12.69674
H         34.93557       18.47794       13.32500
H         43.23730       23.60671        9.13889
H         41.22541       22.01578        9.42480
H         47.24333       21.04588        9.23185
H         43.57833       24.64661       13.78934
H         42.80024       24.12904       12.30403
H         43.32246       27.06581       12.88998
H         41.77017       26.23081       13.11437
H         42.43886       26.41021       11.49866
H         33.81967       20.83285       10.11324
H         35.29918       21.75274        9.77314
H         45.11535       15.10243        5.20598
H         44.85870       13.36027        4.97927
H         32.78036       22.89686       11.09680
H         33.29682       23.15518        9.42688
H         34.26964       23.80653       10.74932
H         47.59199       14.74417        5.23139
H         46.87344       14.09737        3.75422
H         47.34826       12.99278        5.04695
H         49.36139       25.23570       12.35126
H         51.27793       19.17707        8.45269
H         52.79862       19.95350        8.91143
H         51.14805       20.59761        6.39389
H         52.67278       19.70155        6.44676
H         52.64477       21.42428        6.85691
H         54.43926       26.67052       12.99678
H         55.08320       25.73770       10.61666
H         53.15372       24.23782        9.64148
