275
PBFSF.sdf
C          2.22086       -0.86938        6.11577
C          1.29279       -1.92752        5.94491
C          1.33504       -2.66024        4.75304
C          2.17422       -2.27307        3.68397
C          3.06528       -1.17227        3.82948
C          3.11832       -0.52939        5.07399
C          0.22539       -2.41275        6.79964
C         -0.38899       -3.54481        6.33211
S          0.27772       -4.04183        4.85991
C          3.96674       -0.52981        2.88979
S          4.41806        0.61991        5.08990
C          2.25195       -0.19811        7.44069
C          2.07073       -3.00148        2.39263
C          2.14580       -0.77269        8.70223
C          2.16430        0.17143        9.76714
C          2.38266        1.45180        9.31235
S          2.33887        1.51659        7.60451
C          0.92868       -3.43343        1.72999
C          1.19733       -4.12867        0.51644
C          2.54190       -4.14647        0.22183
S          3.46519       -3.51954        1.51782
C          2.61096        2.69059       10.12615
C          4.07029        2.82136       10.54607
C          3.20381       -4.65635       -1.02406
C          3.17426       -3.61665       -2.13905
C          4.76623        0.45145        3.43169
C          5.84179        1.25057        2.82612
C          6.10527        2.59588        3.14774
C          7.20021        3.33766        2.63894
C          8.15492        2.80596        1.75437
C          7.91091        1.46068        1.32123
C          6.72444        0.67342        1.87195
N          8.62814        0.74539        0.43787
S          7.91782       -0.73866        0.29753
N          6.66768       -0.57119        1.36083
C          9.31241        3.55668        1.24570
S         10.06093        4.82328        2.19666
C         11.09054        5.24144        0.93201
C         10.98937        4.33332       -0.09765
C          9.92858        3.43738        0.00715
C         11.81805        6.44007        0.60728
C         12.31855        6.48597       -0.67594
Si        12.01191        4.87386       -1.55140
S         11.87092        7.96584        1.31605
C         12.16642        8.72320       -0.24050
C         12.49575        7.76916       -1.19327
C         13.57056        3.85572       -1.73204
C         14.70283        4.50218       -2.51838
C         11.03509        5.07117       -3.11441
C         10.68823        3.78836       -3.85183
C         11.89428       10.15218       -0.46340
C         10.97755       10.86885        0.32488
C         10.53682       12.16746        0.01333
C         10.95722       12.92300       -1.10272
C         11.89752       12.25861       -1.94055
C         12.38659       10.84258       -1.62369
N         12.46281       12.73453       -3.06860
S         13.44513       11.56040       -3.67587
N         13.25647       10.38409       -2.52895
F          5.28741        3.25484        3.97290
F          9.61681       12.68058        0.85098
C          9.37675       17.66757       -0.06019
C          9.71820       16.49667       -0.78393
C          9.64934       16.51955       -2.17725
C          9.14347       17.65370       -2.85479
C          8.74540       18.81599       -2.12906
C          8.90536       18.81774       -0.73452
C         10.11876       15.19117       -0.32479
C         10.48967       14.30156       -1.30542
S         10.28201       15.02826       -2.82384
C          8.15944       20.07302       -2.56021
S          8.47721       20.36857       -0.08615
C          9.60437       17.63549        1.41049
C          8.98478       17.59055       -4.33073
C         10.66948       17.06831        2.10191
C         10.54413       17.14597        3.51649
C          9.44140       17.87811        3.88795
S          8.45919       18.24897        2.53998
C          8.50700       16.54501       -5.10941
C          8.50382       16.82499       -6.50500
C          8.90116       18.11551       -6.77069
S          9.48336       18.88261       -5.35829
C          9.05915       18.32471        5.26618
C          9.78594       19.60982        5.65035
C          8.89889       18.82530       -8.09150
C          7.52302       19.38999       -8.42412
C          7.98043       21.02483       -1.57410
C          7.47704       22.41187       -1.68333
C          7.85018       23.48722       -0.84183
C          7.43809       24.83434       -1.00585
C          6.61444       25.27910       -2.05393
C          6.13538       24.24228       -2.91826
C          6.57214       22.78591       -2.72345
N          5.29831       24.38110       -3.96196
S          5.04080       22.88446       -4.60547
N          5.99576       21.96750       -3.62445
C          6.20141       26.68055       -2.24808
S          7.21955       28.02566       -1.75320
C          6.03970       29.15985       -2.16502
C          4.98674       28.53874       -2.80109
C          5.00317       27.14574       -2.77363
C          5.79920       30.54124       -1.81001
C          4.55437       31.02196       -2.16547
Si         3.63213       29.75466       -3.15841
S          6.58813       31.64582       -0.80444
C          5.14094       32.61628       -0.63743
C          4.12992       32.15312       -1.46886
C          3.58616       30.20937       -4.98295
C          2.92983       31.54098       -5.31858
C          1.99022       29.27513       -2.45317
C          1.23701       28.17710       -3.19460
C          5.05500       33.70045        0.34889
C          6.03584       34.68546        0.53306
C          5.92168       35.73181        1.48310
C          4.81836       35.93524        2.34863
C          3.77949       34.96380        2.19760
C          3.90121       33.82217        1.18628
N          2.61682       34.91058        2.87416
S          1.78650       33.58435        2.34760
N          2.83302       33.00869        1.20921
F          8.67582       23.26464        0.19301
F          6.97488       36.56155        1.55351
C          3.86416       38.54122        6.70117
C          4.25546       38.22492        5.37043
C          4.92282       39.20056        4.63090
C          5.10842       40.50979        5.14304
C          4.69465       40.83795        6.47051
C          4.10271       39.82514        7.24281
C          4.06423       37.02646        4.57178
C          4.71514       37.01243        3.35562
S          5.46352       38.52365        3.12125
C          4.74909       42.07433        7.23680
S          3.77768       40.40612        8.84331
C          3.28689       37.43287        7.50759
C          5.68284       41.54502        4.24216
C          3.70230       36.10909        7.55952
C          2.87946       35.28317        8.37260
C          1.90921       36.01014        9.02369
S          1.88038       37.63082        8.47965
C          5.41010       41.76182        2.89728
C          6.14600       42.83596        2.32587
C          6.91245       43.48648        3.26440
S          6.89706       42.65367        4.75883
C          0.94244       35.52593       10.06181
C          1.57771       35.49619       11.44648
C          7.69544       44.75197        3.08453
C          9.15394       44.48338        2.75503
C          4.31388       41.99431        8.54711
C          4.26947       43.02931        9.60741
C          4.35341       42.77802       11.00098
C          4.35808       43.77094       12.01465
C          4.30604       45.14920       11.75407
C          4.18086       45.49347       10.37006
C          4.15895       44.41467        9.28371
N          4.07646       46.73164        9.85230
S          3.93598       46.58366        8.21583
N          4.01213       44.94738        8.05397
C          4.30718       46.19559       12.79111
S          5.12081       45.98752       14.33331
C          4.55307       47.46994       14.90903
C          3.90379       48.15135       13.90360
C          3.65741       47.42149       12.74544
C          4.39417       48.04746       16.22363
C          3.62803       49.19655       16.27055
Si         3.13575       49.71123       14.55335
S          4.67596       47.46499       17.78108
C          3.51276       48.58004       18.46344
C          3.07755       49.49807       17.51780
C          4.06210       51.22910       13.98205
C          3.76777       51.70021       12.56342
C          1.29346       49.75611       14.29345
C          0.58806       48.42806       14.57927
C          3.01056       48.38602       19.82570
C          3.82515       48.09701       20.93691
C          3.30059       47.82354       22.22033
C          1.94358       47.81343       22.53269
C          1.06440       48.13796       21.46309
C          1.59985       48.42991       20.08125
N         -0.26211       48.19804       21.55561
S         -0.82098       48.59060       20.03154
N          0.61055       48.70297       19.20706
F          4.44657       41.51398       11.44231
F          4.16829       47.53719       23.20058
H         -0.06784       -1.95702        7.73557
H         -1.18586       -4.10747        6.79905
H          4.04647       -0.81210        1.85104
H          2.04069       -1.83881        8.86361
H          2.07295       -0.08600       10.81535
H         -0.07555       -3.27071        2.09916
H          0.43499       -4.55127       -0.12754
H          1.98396        2.65231       11.02527
H          2.31015        3.58643        9.57083
H          4.39423        1.95962       11.14075
H          4.21144        3.72101       11.15388
H          4.73160        2.89327        9.67567
H          2.68054       -5.55840       -1.36637
H          4.23990       -4.94918       -0.82679
H          2.14779       -3.33450       -2.39697
H          3.64946       -4.01496       -3.04121
H          3.70864       -2.70542       -1.84842
H          7.27703        4.38103        2.95995
H          9.58348        2.77974       -0.78199
H         12.64552        7.98989       -2.24328
H         13.31265        2.90113       -2.20255
H         13.94664        3.61357       -0.73043
H         14.39269        4.75102       -3.53909
H         15.55426        3.81625       -2.58151
H         15.05190        5.42184       -2.03594
H         11.57428        5.73921       -3.79616
H         10.09980        5.58625       -2.86209
H         11.59014        3.26835       -4.18193
H         10.08061        4.01862       -4.73113
H         10.11331        3.10509       -3.21560
H         10.52475       10.41114        1.20385
H         10.14941       14.91768        0.72207
H          7.90774       20.28089       -3.59099
H         11.50718       16.58278        1.61568
H         11.25898       16.73375        4.21879
H          8.17376       15.59876       -4.70201
H          8.17943       16.12646       -7.26676
H          9.31475       17.53786        5.98715
H          7.97572       18.48018        5.34199
H         10.87204       19.47134        5.63237
H          9.50148       19.91675        6.66185
H          9.54058       20.42477        4.96518
H          9.19514       18.12165       -8.87891
H          9.63557       19.63692       -8.10125
H          6.76482       18.59967       -8.46758
H          7.54347       19.88840       -9.39901
H          7.19903       20.12234       -7.67653
H          7.79453       25.54611       -0.26079
H          4.18289       26.50264       -3.06839
H          3.12306       32.55553       -1.47749
H          3.07670       29.41065       -5.53432
H          4.61627       30.23350       -5.35881
H          1.88696       31.56861       -4.98770
H          2.94422       31.70507       -6.40279
H          3.45876       32.37796       -4.85091
H          1.35252       30.16312       -2.37988
H          2.15784       28.93610       -1.42315
H          0.97841       28.49581       -4.20726
H          0.30774       27.94611       -2.66109
H          1.82447       27.26073       -3.25961
H          6.93725       34.66845       -0.07922
H          3.49171       36.17613        4.92179
H          5.13721       42.99993        6.83447
H          4.55230       35.73007        7.00447
H          3.02415       34.21802        8.50635
H          4.70765       41.16834        2.32586
H          6.07250       43.14399        1.28995
H          0.61124       34.51357        9.80008
H          0.04466       36.15409       10.08593
H          2.45647       34.84163       11.46950
H          0.86093       35.12204       12.18471
H          1.89784       36.49557       11.76064
H          7.62289       45.37765        3.98153
H          7.25072       45.33625        2.26956
H          9.65076       43.94472        3.56840
H          9.68441       45.42752        2.59878
H          9.24906       43.88402        1.84381
H          4.40008       43.41567       13.04417
H          3.00234       47.73157       11.93997
H          2.29689       50.22852       17.70126
H          5.14030       51.02263       14.05185
H          3.86580       52.05382       14.67455
H          3.98410       50.91920       11.82624
H          4.38337       52.57230       12.31901
H          2.71720       51.98983       12.45389
H          1.08089       50.04537       13.25885
H          0.85938       50.52730       14.93865
H          0.94649       47.62986       13.91766
H         -0.48844       48.52454       14.42383
H          0.75380       48.09542       15.61127
H          4.90906       48.07226       20.82170
H          1.57563       47.58939       23.52369
