155
PffBT4T-2DT.sdf
C         -2.96285       -7.66398      -18.40285
C         -2.42544       -8.59384      -19.26748
S         -2.00895      -10.05059      -18.48869
C         -2.47873       -9.45677      -16.94541
C         -2.97578       -8.17017      -17.06380
C         -3.47209       -6.31114      -18.79714
C         -2.35474      -10.29853      -15.75172
C         -1.32861      -11.24107      -15.53735
C         -1.23230      -12.06437      -14.39688
C         -2.13401      -12.02246      -13.31837
C         -3.18922      -11.07266      -13.45165
C         -3.30736      -10.20190      -14.69235
N         -4.16701      -10.82202      -12.56133
S         -5.14583       -9.65999      -13.20125
N         -4.38289       -9.39392      -14.63971
C         -2.06491      -12.88380      -12.13844
S         -0.56664      -13.32614      -11.45775
C         -1.28991      -14.29342      -10.23667
C         -2.68219      -14.21397      -10.27927
C         -3.09949      -13.42926      -11.40707
C         -0.44012      -15.05155       -9.34320
C          0.77831      -15.63934       -9.63637
C          1.30124      -16.39411       -8.54558
C          0.47738      -16.35457       -7.43851
S         -0.84815      -15.31641       -7.70516
C          0.64117      -17.02471       -6.17664
S          2.18479      -17.46395       -5.60879
C          0.20083      -18.00816       -4.11108
C         -0.33925      -17.40256       -5.28137
F         -0.35635      -11.38069      -16.45474
F         -0.22085      -12.94976      -14.37917
C         -3.64146      -14.87452       -9.31579
C         -4.94672       -6.34458      -19.17143
C         -5.12044      -14.66877       -9.60409
C          3.77627      -18.53686       -2.85876
C          2.44134      -18.76003       -3.17951
S          1.78529      -20.03174       -2.22898
C          3.27228      -20.39908       -1.48354
C          4.24152      -19.51058       -1.90816
C          4.68446      -17.44379       -3.36511
C          3.37045      -21.50752       -0.53059
C          2.60836      -22.69224       -0.59352
C          2.72770      -23.75999        0.31774
C          3.64342      -23.78557        1.38498
C          4.44072      -22.61149        1.52095
C          4.29508      -21.44885        0.55387
N          5.38021      -22.37960        2.45267
S          5.98931      -20.86747        2.19093
N          5.11079      -20.42522        0.86714
C          3.78859      -24.89491        2.32544
S          3.65014      -26.51015        1.79797
C          3.84111      -27.15216        3.37979
C          4.12893      -26.14879        4.30436
C          4.07058      -24.85871        3.67483
C          3.68458      -28.57821        3.58181
C          2.82635      -29.42954        2.90682
C          2.86989      -30.76424        3.40420
C          3.77288      -30.91068        4.43825
S          4.60274      -29.44917        4.73100
C          4.07049      -32.09591        5.19840
S          3.84878      -33.64612        4.52707
C          4.75953      -33.53202        6.89953
C          4.54509      -32.18358        6.49152
C          1.58032      -18.11701       -4.15043
F          1.71237      -22.85534       -1.58216
F          1.88924      -24.79649        0.14026
C          4.41727      -26.35366        5.77410
C          5.54783      -17.86751       -4.54513
C          4.66449      -25.08944        6.58388
C          4.51984      -36.88940        5.07391
C          4.39313      -35.89651        6.04068
S          4.17306      -36.58384        7.60029
C          4.10207      -38.17981        7.01537
C          4.31934      -38.19371        5.65067
C          4.83831      -36.72684        3.60907
C          3.87247      -39.29856        7.93540
C          3.07173      -39.23155        9.09485
C          2.85895      -40.31234        9.97410
C          3.39325      -41.60026        9.78508
C          4.21581      -41.74421        8.62791
C          4.46570      -40.57014        7.69208
N          4.84157      -42.86192        8.21491
S          5.68185      -42.49333        6.84459
N          5.29149      -40.89893        6.68191
C          3.18050      -42.73305       10.68854
S          1.68502      -42.96423       11.47422
C          2.21961      -44.36617       12.31689
C          3.51605      -44.71720       11.94081
C          4.05195      -43.74706       11.02464
C          1.32023      -44.99860       13.26498
C          0.38557      -44.37717       14.07620
C         -0.32851      -45.29366       14.90598
C          0.07057      -46.60072       14.71389
S          1.26801      -46.69355       13.49642
C         -0.40944      -47.79073       15.37407
S         -2.02944      -47.91873       15.92966
C         -1.79103      -49.51719       16.48254
C         -0.50143      -49.94819       16.27770
C          0.29519      -48.95297       15.64032
C          4.40561      -34.45207        5.92654
F          2.45090      -38.08153        9.40644
F          2.10985      -40.06072       11.06176
C          4.29153      -45.91837       12.43193
C          3.60277      -36.69445        2.72003
C          5.70428      -46.06360       11.88349
H         -2.27269       -8.49461      -20.33384
H         -3.35222       -7.59937      -16.22186
H         -2.88813       -5.92706      -19.64125
H         -3.32586       -5.60959      -17.96704
H         -4.13841      -13.26353      -11.66557
H          1.26441      -15.57198      -10.60261
H          2.22390      -16.96020       -8.59493
H         -0.41091      -18.36737       -3.29182
H         -1.40036      -17.25862       -5.44712
H         -3.46006      -14.47164       -8.31336
H         -3.43849      -15.95193       -9.29364
H         -5.12358       -7.01203      -20.02174
H         -5.29145       -5.34305      -19.44631
H         -5.55980       -6.69864      -18.33547
H         -5.38262      -13.60508       -9.58711
H         -5.72357      -15.17140       -8.84065
H         -5.39944      -15.07952      -10.57925
H          5.26428      -19.53252       -1.54826
H          5.35106      -17.13689       -2.54812
H          4.10582      -16.54810       -3.61479
H          4.22246      -23.92733        4.20673
H          2.16555      -29.11191        2.10867
H          2.24634      -31.56571        3.02633
H          5.13054      -33.80371        7.88086
H          4.73000      -31.32721        7.12902
H          5.31652      -26.97127        5.87229
H          3.57869      -26.89650        6.22647
H          6.25272      -18.65338       -4.25682
H          6.12520      -17.01274       -4.91281
H          4.95475      -18.25515       -5.37779
H          5.53060      -24.53843        6.20089
H          4.86922      -25.34795        7.62753
H          3.79488      -24.42548        6.56449
H          4.34823      -39.10215        5.06188
H          5.46471      -37.57113        3.29124
H          5.45319      -35.83564        3.44551
H          5.05659      -43.79915       10.62201
H          0.22031      -43.30616       14.09181
H         -1.08767      -44.99272       15.61852
H         -2.60860      -50.06184       16.93312
H         -0.14622      -50.93063       16.56310
H          1.34028      -49.09161       15.38829
H          3.74998      -46.82668       12.14705
H          4.34469      -45.88165       13.52625
H          3.07226      -37.65169        2.74707
H          3.89235      -36.49701        1.68282
H          2.89126      -35.92248        3.02376
H          5.69749      -46.15833       10.79207
H          6.17315      -46.96439       12.29168
H          6.33010      -45.20636       12.15273
