176
PffT2-FTAZ-2DT.sdf
C         -0.82220       -6.54267      -17.52948
C          0.29631       -5.74154      -17.42236
S          1.24589       -6.11135      -16.05022
C          0.21982       -7.40241      -15.59204
C         -0.84961       -7.49994      -16.46807
C         -1.87748       -6.43513      -18.58925
C          0.45701       -8.20517      -14.39318
C         -0.61326       -8.73756      -13.63507
C         -0.45876       -9.55759      -12.49759
C          0.78961       -9.94417      -11.99434
C          1.89345       -9.43703      -12.71944
C          1.74344       -8.57370      -13.91071
N          3.20392       -9.62812      -12.49878
N          3.77784       -8.93925      -13.48730
N          2.99039       -8.29790      -14.35547
C          1.02344      -10.77963      -10.82695
S          0.02407      -12.10906      -10.47699
C          0.90733      -12.51758       -9.05970
C          2.01721      -11.69534       -8.89081
C          2.04104      -10.68452       -9.90298
C          0.42333      -13.59073       -8.21451
C         -0.89537      -13.93967       -8.01626
C         -1.02325      -14.94973       -7.03939
C          0.16948      -15.38782       -6.51437
S          1.46501      -14.60704       -7.30280
C          0.34348      -16.35818       -5.47170
S          1.65464      -16.35494       -4.37403
C         -0.13964      -18.13661       -4.03423
C         -0.50646      -17.39402       -5.17182
F         -1.87796       -8.45443      -13.99631
F         -1.57973       -9.96107      -11.87658
C          3.03787      -11.79986       -7.78828
C         -1.61257       -7.34705      -19.77670
C          4.14766      -10.76126       -7.81169
C          1.06323      -17.70387       -3.49686
C          5.22421       -8.91831      -13.58215
C          5.84700       -7.79688      -12.76082
F         -2.19286      -15.35543       -6.62907
F         -1.57668      -17.68210       -5.86708
C          2.61531      -17.77187       -1.43226
C          1.77413      -18.31921       -2.39574
S          1.60199      -20.02610       -2.17721
C          2.59697      -20.06581       -0.80300
C          3.09157      -18.80033       -0.54219
C          2.97449      -16.32017       -1.21867
C          2.89182      -21.31159       -0.09245
C          4.15292      -21.53458        0.50777
C          4.49023      -22.67638        1.26567
C          3.60011      -23.73095        1.51402
C          2.33232      -23.56801        0.90997
C          1.96456      -22.37411        0.11181
N          1.27378      -24.39276        0.94440
N          0.35948      -23.74418        0.22782
N          0.68303      -22.54697       -0.28743
C          3.88574      -24.92774        2.29577
S          4.82691      -24.84473        3.71067
C          4.77262      -26.54418        3.96160
C          3.93978      -27.17209        3.03796
C          3.44915      -26.21895        2.08501
C          5.56723      -27.12548        5.02119
C          6.79156      -26.67455        5.48067
C          7.32928      -27.52888        6.46867
C          6.52818      -28.60140        6.79238
S          5.07394      -28.50755        5.89549
C          6.75934      -29.66378        7.74000
S          8.20671      -29.74447        8.64839
C          6.46624      -31.53924        9.11419
C          5.95426      -30.72995        8.07638
F          5.11740      -20.60891        0.35586
F          5.74173      -22.73661        1.75165
C          3.62960      -28.64938        2.98863
C          4.23611      -15.86265       -1.93833
C          2.71927      -29.10016        1.85830
C          7.72815      -31.13717        9.51149
C         -0.94885      -24.34787        0.05326
C         -1.00336      -25.27853       -1.14591
F          8.49710      -27.28862        7.00255
F          4.80286      -30.99395        7.51779
C          9.58228      -31.28775       11.30053
C          8.59883      -31.79954       10.45836
S          8.47373      -33.51328       10.60646
C          9.68407      -33.60995       11.79236
C         10.19968      -32.35187       12.04724
C          9.97027      -29.84389       11.52409
C         10.11380      -34.88829       12.35901
C         11.45672      -35.10796       12.73853
C         11.94112      -36.29789       13.31836
C         11.13307      -37.41029       13.58776
C          9.77894      -37.24623       13.21432
C          9.25696      -36.00195       12.60167
N          8.76139      -38.11440       13.33114
N          7.73020      -37.44705       12.82133
N          7.93577      -36.19227       12.38725
C         11.57867      -38.67242       14.16566
S         12.77084      -38.71143       15.37752
C         12.77115      -40.42872       15.45897
C         11.79837      -40.98068       14.62794
C         11.13133      -39.94699       13.89109
C         13.73116      -41.08708       16.31947
C         15.00752      -40.65484       16.62226
C         15.68576      -41.56948       17.45835
C         14.94889      -42.67230       17.81202
S         13.38412      -42.55435       17.13658
C         15.34731      -43.77129       18.65303
S         14.77414      -45.37891       18.43271
C         16.43428      -44.97017       20.34983
C         16.22075      -43.72610       19.71335
F         12.36149      -34.13358       12.53052
F         13.25578      -36.34804       13.59386
C         11.49667      -42.45146       14.47006
C         11.10842      -29.34218       10.64362
C         10.39206      -42.80147       13.48527
C         15.70059      -45.96921       19.74621
C          6.43178      -38.09400       12.76474
C          6.24512      -38.91214       11.49781
F         16.92240      -41.37022       17.83573
F         16.80430      -42.63106       20.12680
H          0.59881       -4.93704      -18.07795
H         -1.64235       -8.23142      -16.35377
H         -1.94995       -5.39712      -18.93380
H         -2.85309       -6.68835      -18.15505
H          2.79777       -9.90913       -9.96285
H         -1.73821      -13.46033       -8.49069
H         -0.72035      -18.96441       -3.65507
H          3.52307      -12.77864       -7.85358
H          2.52110      -11.73295       -6.82298
H         -0.64677       -7.12355      -20.24162
H         -2.39365       -7.21757      -20.53273
H         -1.60554       -8.40017      -19.47509
H          4.71658      -10.81143       -8.74601
H          4.84424      -10.94282       -6.98609
H          3.74902       -9.74721       -7.70180
H          5.49709       -8.83863      -14.63406
H          5.58897       -9.88616      -13.21022
H          5.51405       -6.81666      -13.12093
H          6.93830       -7.83608      -12.83040
H          5.57237       -7.87579      -11.70424
H          3.76586      -18.59471        0.28229
H          3.12717      -16.15537       -0.14337
H          2.13012      -15.67859       -1.49216
H          2.80493      -26.47873        1.25315
H          7.29726      -25.79436        5.10954
H          5.94266      -32.39563        9.51919
H          3.13777      -28.93843        3.92352
H          4.57394      -29.20184        2.91209
H          5.12208      -16.38729       -1.56685
H          4.38809      -14.78988       -1.77229
H          4.18808      -16.02692       -3.01737
H          1.74510      -28.60271        1.91430
H          2.54856      -30.17902        1.92680
H          3.16295      -28.88825        0.88076
H         -1.68818      -23.54631       -0.02674
H         -1.16729      -24.91466        0.96772
H         -0.81387      -24.73337       -2.07559
H         -1.98927      -25.74924       -1.21723
H         -0.25535      -26.07566       -1.06689
H         10.99747      -32.17778       12.76125
H         10.28561      -29.72859       12.56984
H          9.09456      -29.19573       11.41457
H         10.34780      -40.13762       13.16685
H         15.44988      -39.73941       16.24995
H         17.08353      -45.12237       21.19786
H         11.18908      -42.85436       15.44034
H         12.41456      -42.96507       14.15971
H         12.04176      -29.87439       10.85248
H         11.28094      -28.27654       10.83411
H         10.90066      -29.45693        9.57719
H          9.44261      -42.33904       13.77658
H         10.24245      -43.88544       13.46419
H         10.64111      -42.47385       12.47118
H         15.65986      -47.01515       20.01261
H          5.66061      -37.32907       12.86699
H          6.36673      -38.75653       13.63957
H          6.27785      -38.27312       10.60966
H          5.27859      -39.42578       11.51658
H          7.02748      -39.67198       11.39218
