215
PhI-ffBT.sdf
C          7.42262        2.89740       -4.59664
C          7.18106        4.07693       -3.72939
C          8.19680        4.79146       -3.06088
C          7.98093        5.90955       -2.23034
C          6.72522        6.48507       -1.96964
C          5.63469        5.84308       -2.62413
C          5.86568        4.60622       -3.51504
N          4.33906        6.20312       -2.58567
S          3.48681        5.11290       -3.48286
N          4.70930        4.13773       -4.01892
S          8.79430        1.88066       -4.35890
C          8.43641        0.82353       -5.67473
C          7.23132        1.21373       -6.23522
C          6.69390        2.41902       -5.66880
C          6.60002        7.68145       -1.13188
C          7.52019        8.70605       -0.99788
C          7.13894        9.67514       -0.03282
C          5.87355        9.44633        0.47287
S          5.26876        7.94601       -0.09098
F          9.48079        4.43016       -3.22060
F          9.07228        6.45065       -1.65960
C          5.09033       10.35400        1.28390
C          4.12578       10.10139        2.25562
C          3.50752       11.33278        2.65673
C          4.08716       12.47241        2.14210
S          5.29862       12.05174        1.02652
C          3.74026        8.75432        2.82893
C          2.67997        8.78936        3.92775
C          9.34480       -0.25188       -6.12067
S          9.38750       -0.70508       -7.81421
C         10.73228       -1.76665       -7.66701
C         11.07713       -1.81443       -6.30246
C         10.27539       -0.99754       -5.38700
C         10.50325       -0.87894       -3.87009
C         10.95367       -2.10740       -3.08728
C         11.28263       -2.60818       -8.85691
C         10.83972       -2.55692      -10.22322
C         10.44691       -3.76263      -10.77397
C         11.18953       -4.91366      -10.45857
C         11.89384       -4.95932       -9.27232
C         11.80307       -3.86233       -8.42363
C         11.57492       -2.07729      -11.58660
N         11.16510       -2.88694      -12.68737
C         10.05142       -3.42432      -12.13910
C         12.03046       -3.98583      -13.22973
C         12.38379       -4.18572      -14.70758
O          8.88500       -3.26528      -12.44774
O         12.25748       -1.07023      -11.69454
C          2.65425       24.27287        3.51456
C          2.19574       25.64613        3.65076
C          1.09596       26.03313        4.43673
C          0.62659       27.34618        4.51626
C          1.20441       28.42909        3.83250
C          2.34604       28.11963        3.03231
C          2.85377       26.69529        2.94583
N          3.07716       28.95729        2.27475
S          4.28726       28.08658        1.57148
N          3.93062       26.58362        2.14659
S          1.52022       22.99468        3.56239
C          2.72958       21.80597        3.46980
C          3.95582       22.37312        3.19061
C          3.92589       23.78690        3.28557
C          0.62796       29.76254        3.92342
C         -0.69294       30.09859        4.15520
C         -0.90562       31.49930        4.17717
C          0.27454       32.20334        4.05419
S          1.60232       31.15802        3.85692
F          0.43577       25.12228        5.17195
F         -0.44397       27.55402        5.30264
C          0.46180       33.61638        4.21037
C          1.37733       34.47177        3.61328
C          1.33847       35.74548        4.26542
C          0.29701       35.88959        5.16183
S         -0.53172       34.42749        5.35652
C          2.36526       34.20223        2.50411
C          1.76301       33.75623        1.17922
C          2.44327       20.40855        3.62446
S          3.30136       19.28923        2.64892
C          2.60717       17.94666        3.42349
C          1.66204       18.35726        4.34088
C          1.58384       19.77563        4.51142
C          0.70774       20.38017        5.57981
C         -0.73533       20.55298        5.12637
C          3.05079       16.59060        3.10278
C          3.12257       15.60525        4.07075
C          3.46671       14.28924        3.75828
C          3.78525       13.87417        2.46603
C          3.76162       14.87578        1.48152
C          3.40241       16.20484        1.79662
C          2.91119       15.67747        5.52645
N          2.91319       14.41300        5.98567
C          3.42921       13.55952        5.02724
C          2.83914       13.95456        7.33650
C          2.47728       14.74175        8.59088
O          3.85590       12.43589        5.21966
O          2.84545       16.68533        6.21066
C         -4.38394       44.70966       11.77832
C         -4.75701       45.77975       12.69580
C         -5.82838       45.59902       13.59184
C         -6.29345       46.57825       14.47123
C         -5.71699       47.85263       14.59169
C         -4.61799       48.11804       13.72243
C         -4.13254       47.06045       12.74066
N         -3.89811       49.25237       13.65240
S         -2.76097       49.04874       12.47347
N         -3.11682       47.51339       11.98102
S         -2.77858       44.45734       11.25903
C         -3.21052       43.12860       10.27399
C         -4.52779       42.77512       10.48510
C         -5.21456       43.72288       11.27814
C         -6.17558       48.86084       15.53721
C         -6.21476       50.23347       15.41518
C         -6.69225       50.86883       16.59600
C         -7.12717       49.96739       17.55140
S         -6.74986       48.37832       17.07101
F         -6.46539       44.41575       13.63056
F         -7.36358       46.24712       15.21355
C         -7.86845       50.25388       18.76139
C         -7.91191       49.58743       19.98736
C         -8.86411       50.21185       20.87263
C         -9.47793       51.31071       20.32338
S         -8.94384       51.60717       18.74263
C         -7.07926       48.40551       20.42647
C         -7.73835       47.05110       20.19575
C         -2.28746       42.48301        9.37372
S         -2.41540       40.78586        9.12208
C         -1.21195       40.77344        7.91478
C         -0.67132       42.02949        7.78130
C         -1.29401       43.04508        8.57903
C         -0.92634       44.51099        8.49068
C          0.13269       44.84693        7.44601
C         -0.86733       39.53455        7.17586
C         -0.48519       39.53569        5.83644
C         -0.16875       38.32317        5.20922
C         -0.14710       37.09604        5.85554
C         -0.54210       37.09309        7.18700
C         -0.90645       38.29490        7.83812
C         -0.27531       40.59187        4.80467
N          0.21839       39.93998        3.68631
C          0.08300       38.62892        3.80695
C          0.40721       40.69331        2.47971
C          0.88433       40.15855        1.13413
O          0.04760       37.79634        2.89029
O         -0.56847       41.75382        4.88786
H          6.76241        0.69537       -7.06180
H          5.80209        2.90404       -6.04875
H          8.44499        8.75982       -1.56009
H          7.74373       10.53866        0.21744
H          2.70152       11.38019        3.37709
H          4.63804        8.27156        3.23585
H          3.35180        8.12065        2.02701
H          3.04967        9.29915        4.82440
H          2.39367        7.77228        4.21325
H          1.77121        9.30172        3.59287
H         11.88674       -2.42950       -5.92682
H          9.57438       -0.56488       -3.37894
H         11.23857       -0.08127       -3.70294
H         10.14375       -2.83788       -2.98890
H         11.22949       -1.80846       -2.06454
H         11.82350       -2.59880       -3.52647
H         11.32184       -5.72796      -11.16675
H         12.42253       -5.86119       -8.97427
H         12.02235       -4.05745       -7.37565
H         11.45787       -4.91488      -13.07637
H         12.93555       -4.06546      -12.62469
H         11.51345       -4.25192      -15.36946
H         12.87961       -5.17234      -14.79033
H         13.09616       -3.45561      -15.09001
H          4.85527       21.80376        2.99457
H          4.80555       24.40855        3.18480
H         -1.48469       29.37615        4.31297
H         -1.87264       31.95750        4.34076
H          2.00464       36.55738        3.99824
H          3.11629       33.48271        2.84301
H          2.91701       35.13094        2.30354
H          1.31948       32.75923        1.24154
H          2.54926       33.71517        0.41611
H          0.99115       34.44820        0.82679
H          1.08910       17.67575        4.95926
H          1.11352       21.33071        5.94072
H          0.71375       19.71449        6.45416
H         -0.82121       21.29468        4.32775
H         -1.35835       20.88554        5.96264
H         -1.14993       19.61273        4.74733
H          3.99797       14.64643        0.44395
H          3.39100       16.93407        0.98545
H          2.05839       13.19302        7.25746
H          3.84557       13.58005        7.51791
H          1.63624       14.24299        9.09493
H          2.24943       15.79461        8.46225
H          3.29644       14.63206        9.31801
H         -5.00836       41.91494       10.03689
H         -6.27517       43.66166       11.48837
H         -5.90998       50.76852       14.52367
H         -6.77358       51.94311       16.70103
H         -9.07653       49.87123       21.87802
H        -10.21596       51.95732       20.77605
H         -6.87536       48.50216       21.50096
H         -6.09665       48.43314       19.94323
H         -8.63080       46.93250       20.81797
H         -7.03904       46.24792       20.45419
H         -8.04569       46.90179       19.15772
H          0.11891       42.24094        7.07753
H         -0.54068       44.83863        9.46152
H         -1.82738       45.09681        8.26832
H          1.08485       44.36157        7.68876
H          0.30878       45.92598        7.41186
H         -0.17064       44.52399        6.44412
H         -0.58070       36.16510        7.75851
H         -1.20131       38.21486        8.88387
H         -0.57601       41.13571        2.30620
H          1.16258       41.40479        2.78682
H          0.18716       40.51561        0.36282
H          0.99560       39.08555        1.04307
H          1.83196       40.64733        0.86974
