422
PIDTTDTffBTA.sdf
C          1.08106        0.86724       -0.30452
C          0.47558        0.58669       -1.51018
C          0.14526       -0.81457       -1.75053
S          1.01255       -0.59762        0.64379
C          5.83918       12.08037        0.81604
C          7.15181       12.42637        1.13874
C          7.32242       14.02234        1.28782
C          5.98965       14.44769        1.15845
S          4.74407       13.41298        0.78899
C          8.16752       15.49120        0.78327
C          7.04810       16.48850        1.30678
C          5.79885       15.87270        1.15742
C          7.07189       17.70051        2.02190
C          5.83019       18.18997        2.47497
C          4.59567       17.68792        1.96718
C          4.58616       16.52111        1.24097
C          5.43357       18.79916        3.73766
C          4.05277       18.81473        3.83816
C          3.30687       18.22666        2.65963
S          6.22419       18.80499        5.23714
C          4.67059       18.42064        5.99248
C          3.62687       18.81845        5.19859
C          0.45960       -1.63919       -0.65944
C          2.65925       19.36981        1.88198
C          2.41531       17.07641        3.19679
C          1.01879       17.08070        3.06914
C          0.23835       16.08265        3.67722
C          0.82632       15.05954        4.43291
C          2.21440       14.99084        4.49928
C          2.99064       15.97899        3.89449
C          2.45416       19.21432        0.48784
C          1.93236       20.25844       -0.29437
C          1.64880       21.48142        0.31785
C          1.75915       21.63290        1.68820
C          2.25210       20.58501        2.46548
C         -0.01468       14.06553        5.19069
C         -0.31235       12.81579        4.38274
C          1.14174       22.63378       -0.54457
C         -0.35762       22.55880       -0.76322
C          8.05210       15.08820       -0.71754
C          9.58490       16.16679        0.70356
C          9.72355       17.20216       -0.31815
C         10.93455       17.51932       -0.96757
C         12.12002       16.93589       -0.54045
C         12.03889       16.13887        0.62124
C         10.79725       15.75260        1.23528
C          7.16828       15.66782       -1.62878
C          6.92019       14.99114       -2.80260
C          7.55985       13.76018       -3.02784
C          8.67373       13.38416       -2.28022
C          8.91615       14.04961       -1.11471
C          6.83906       12.64844       -3.72774
C          6.22351       12.99541       -5.05736
C         13.35630       17.05613       -1.42901
C         14.72045       17.05748       -0.75407
C         -0.44107       -1.28307       -3.06056
C         -0.58111       -0.21849       -4.13799
C          6.08837        8.16782        1.00808
C          6.61353        7.05540        1.68894
C          6.00998        5.74294        1.33109
C          4.83724        5.74013        0.60259
S          4.61598        7.44342        0.11668
C          3.87453        4.52445        0.35147
C          7.62915        7.01594        2.79329
C          6.92586        6.82601        4.14213
S          7.89581       10.72705        1.48321
C          6.39812        9.74021        0.99646
C          5.50357       10.70127        0.55628
S          2.11908       18.77171        6.07708
C          2.80408       17.51099        7.01933
C          4.18595       17.58375        7.05756
C          2.56678        4.58141       -0.23237
C          1.62179        3.46156       -0.40377
C          1.79734        2.14608        0.07703
C          3.03174        2.07306        0.72550
C          4.11819        3.13658        0.76534
F          2.14344        5.76240       -0.71853
F          0.49152        3.72846       -1.08574
N          3.46005        1.02112        1.41426
N          4.76502        1.17327        1.38730
N          5.23815        2.43868        1.15184
C          5.48671       -0.09093        1.26051
C          5.26216       -1.01813        2.45950
C         -8.85713        7.67955       -6.59566
C         -8.72982        9.04963       -6.47932
C         -9.58813        9.87291       -7.35182
S        -10.04957        7.42429       -7.90082
C         -5.01195       -2.20319       -1.52338
C         -5.76181       -2.68148       -0.44256
C         -5.58205       -4.16716       -0.28182
C         -4.69261       -4.51228       -1.30461
S         -4.05520       -3.39209       -2.33663
C         -6.35710       -5.56510        0.13703
C         -5.00104       -6.40793       -0.20314
C         -4.40463       -5.90761       -1.33330
C         -4.15243       -7.19806        0.61892
C         -2.90736       -7.59474        0.11114
C         -2.73000       -7.59167       -1.30075
C         -3.39452       -6.56171       -1.98543
C         -1.55757       -7.07366        0.50794
C         -0.74185       -6.99403       -0.63191
C         -1.26605       -7.98843       -1.67533
S         -0.90941       -6.21766        1.80270
C         -0.11838       -5.14550        0.62176
C         -0.33598       -5.59645       -0.65761
C        -10.43750        9.12163       -8.20492
C         -0.85128       -7.77563       -3.11253
C         -0.84633       -9.41069       -1.16103
C         -1.68344      -10.52917       -1.34638
C         -1.33416      -11.80052       -0.84921
C         -0.13656      -11.99824       -0.15107
C          0.72456      -10.90813       -0.00104
C          0.38232       -9.64455       -0.50508
C          0.48629       -7.65705       -3.49727
C          0.82426       -7.45060       -4.83903
C         -0.16984       -7.32919       -5.81858
C         -1.49404       -7.56920       -5.46963
C         -1.81111       -7.85465       -4.14897
C          0.22628      -13.33909        0.44572
C          1.03149      -14.22710       -0.49272
C          0.16902       -6.95800       -7.23497
C          0.32503       -8.17354       -8.12982
C         -7.46892       -5.43964       -0.96885
C         -6.91361       -6.36940        1.33080
C         -7.26244       -5.99463        2.61624
C         -7.52212       -6.99351        3.61761
C         -7.43847       -8.38985        3.38411
C         -7.24811       -8.77879        2.07271
C         -7.06081       -7.79589        1.08236
C         -7.49417       -6.21063       -2.13845
C         -8.14159       -5.72390       -3.28193
C         -8.75311       -4.46257       -3.27788
C         -8.89111       -3.78823       -2.06532
C         -8.32207       -4.31373       -0.90619
C         -9.21919       -3.81913       -4.55880
C        -10.68214       -4.09881       -4.84520
C         -7.42277       -9.38142        4.54072
C         -7.78522      -10.85057        4.28356
C         -9.56527       11.38344       -7.23564
C         -8.29852       12.01394       -6.67734
C         -6.50680        1.21985       -1.34994
C         -6.62423        2.33919       -0.52932
C         -7.15759        3.48101       -1.24499
C         -7.32552        3.29726       -2.60953
S         -6.85230        1.69526       -3.00687
C         -7.70372        4.29900       -3.62824
C         -6.31238        2.42677        0.93664
C         -7.54312        2.07910        1.75567
S         -6.65347       -1.25282        0.18832
C         -6.07589       -0.17297       -1.07594
C         -5.17216       -0.83369       -1.87154
S         -0.18853       -4.24051       -1.75582
C          0.31784       -3.13194       -0.47962
C          0.62105       -3.90431        0.64653
C         -8.44702        4.15410       -4.82330
C         -8.71360        5.20577       -5.77566
C         -8.24933        6.56024       -5.72059
C         -7.27719        6.68238       -4.62003
C         -7.17419        5.59472       -3.56536
F         -9.00175        2.96246       -5.04114
F         -9.53963        4.84833       -6.77557
N         -6.27684        7.56666       -4.27165
N         -5.72287        6.99540       -3.14443
N         -6.43807        6.05247       -2.56003
C         -4.37789        7.18533       -2.58387
C         -3.90397        6.00121       -1.68390
C          0.09720        0.98294      -11.46799
C          0.55074        0.08539      -10.50830
C          1.65154       -0.75622      -10.96004
S          1.02258        0.77418      -12.92585
C         -8.60208        8.42691      -13.10988
C         -8.31997        9.52935      -13.92324
C         -9.56089       10.02155      -14.61017
C        -10.55410        9.11364      -14.21259
S        -10.26827        7.96491      -13.05715
C        -10.09661       10.75360      -15.98178
C        -11.63099       10.58344      -15.45363
C        -11.82344        9.36042      -14.82975
C        -12.57419       11.57943      -15.14117
C        -13.63760       11.21473      -14.32586
C        -14.06224        9.85101      -14.29488
C        -13.06522        8.88377      -14.45272
C        -13.69568       11.51006      -12.86023
C        -14.30994       10.44791      -12.18521
C        -15.20001        9.70890      -13.23695
S        -12.78136       12.51727      -11.88976
C        -12.56206       11.15083      -10.77929
C        -13.33689       10.06358      -11.11022
C          1.96313       -0.47822      -12.27498
C        -15.65330        8.32491      -12.88461
C        -16.43103       10.62496      -13.64215
C        -16.90308       10.66099      -14.97384
C        -17.96675       11.50173      -15.38956
C        -18.58819       12.34101      -14.46869
C        -18.16730       12.28543      -13.13582
C        -17.11446       11.43669      -12.72745
C        -15.95510        7.95699      -11.57514
C        -16.34705        6.65525      -11.28105
C        -16.49962        5.70775      -12.29894
C        -16.33387        6.09872      -13.62740
C        -15.92297        7.39576      -13.91602
C        -19.66875       13.31518      -14.89669
C        -21.08592       12.76066      -14.83516
C        -16.84454        4.28549      -11.96121
C        -18.34365        4.06259      -11.89245
C         -9.58635        9.66601      -16.97516
C        -10.17241       12.13234      -16.68959
C         -9.49098       13.32331      -16.49471
C         -9.98005       14.54671      -17.08051
C        -11.16159       14.63308      -17.86193
C        -11.75248       13.43275      -18.20245
C        -11.22597       12.23217      -17.68826
C        -10.45986        8.78217      -17.61809
C        -10.00076        7.53624      -18.04202
C         -8.66568        7.16180      -17.84349
C         -7.75876        8.11403      -17.37716
C         -8.20502        9.38452      -17.01790
C         -8.24447        5.73111      -18.04796
C         -8.38472        5.28058      -19.49081
C        -11.80666       15.97815      -18.18167
C        -12.83508       16.07162      -19.31957
C          2.43167       -1.75003      -10.13415
C          1.94844       -3.18954      -10.23858
C         -4.99779        7.64646      -12.57393
C         -3.78920        8.13759      -12.08932
C         -2.77349        7.11449      -12.04706
C         -3.22551        5.83712      -12.32141
S         -4.88359        5.90206      -12.72762
C         -2.49968        4.56315      -12.16078
C         -3.47030        9.54323      -11.68271
C         -2.96534       10.33656      -12.87373
S         -6.54334        9.76423      -13.81836
C         -6.28624        8.30077      -12.88348
C         -7.49523        7.76728      -12.50831
S        -12.70632        8.66916      -10.13613
C        -11.49160        9.63366       -9.24523
C        -11.70356       10.95802       -9.63944
C         -2.56916        3.39010      -12.91321
C         -1.80255        2.21992      -12.62002
C         -0.92800        2.05029      -11.50124
C         -0.99887        3.15671      -10.60450
C         -1.67923        4.41069      -11.02929
F         -3.34693        3.36151      -14.00740
F         -1.92216        1.20177      -13.49282
N         -0.60072        3.37006       -9.31380
N         -1.02896        4.64298       -9.09070
N         -1.34135        5.35862      -10.15484
C         -1.33579        5.26499       -7.80964
C         -2.68095        6.02790       -7.82734
H          0.35984        1.35885       -2.26087
H          7.99556       18.18181        2.32728
H          3.64917       16.01217        1.03694
H          0.50930       17.87095        2.52462
H         -0.84386       16.13309        3.58298
H          2.70678       14.19837        5.05836
H          4.07132       15.90902        4.02124
H          2.71148       18.27932       -0.00306
H          1.82707       20.13642       -1.37232
H          1.47475       22.56231        2.16866
H          2.33117       20.75441        3.53669
H         -0.95145       14.54118        5.50496
H          0.50142       13.78738        6.11996
H         -0.85532       13.05965        3.46429
H         -0.92741       12.12662        4.97047
H          0.60914       12.29397        4.10431
H          1.66586       22.61996       -1.50844
H          1.40606       23.58327       -0.06821
H         -0.63814       21.63120       -1.27332
H         -0.68863       23.40051       -1.37792
H         -0.89782       22.59539        0.18889
H          8.83844       17.65214       -0.78120
H         10.91797       18.14594       -1.86214
H         12.96027       15.73548        1.03417
H         10.82486       15.08039        2.08181
H          6.59527       16.56477       -1.39805
H          6.11197       15.34349       -3.43543
H          9.22979       12.47285       -2.47345
H          9.67809       13.67853       -0.43131
H          6.05479       12.33253       -3.02492
H          7.50653       11.78698       -3.84547
H          5.74550       13.97736       -5.06839
H          5.46134       12.24857       -5.29227
H          6.98811       12.97783       -5.83731
H         13.29542       17.96880       -2.04055
H         13.33202       16.22118       -2.14304
H         14.81900       17.89461       -0.05712
H         15.51346       17.15647       -1.50739
H         14.90606       16.12450       -0.21509
H         -1.43263       -1.70332       -2.86541
H          0.20171       -2.06805       -3.47142
H         -1.18452        0.62815       -3.79459
H         -1.06958       -0.64126       -5.02013
H          0.40190        0.15751       -4.44303
H          6.38367        4.81908        1.76416
H          8.26871        7.89741        2.80386
H          8.27887        6.14569        2.62756
H          6.36046        7.72232        4.41855
H          7.65127        6.60944        4.93039
H          6.21179        5.99025        4.11817
H          4.53238       10.44443        0.15397
H          2.14875       16.83493        7.55323
H          4.80178       16.95979        7.69002
H          6.54054        0.09577        1.06164
H          5.05867       -0.59507        0.37702
H          5.66073       -0.57619        3.37593
H          5.74092       -1.99061        2.30044
H          4.19545       -1.22108        2.63206
H         -8.06618        9.47903       -5.73640
H         -4.42051       -7.48844        1.63045
H         -2.93014       -6.06637       -2.83274
H         -2.63412      -10.42453       -1.86502
H         -2.02059      -12.63213       -0.99906
H          1.66676      -11.02662        0.53107
H          1.08802       -8.83273       -0.34190
H          1.28033       -7.73935       -2.75900
H          1.87317       -7.37107       -5.11147
H         -2.28868       -7.52004       -6.21009
H         -2.85214       -8.09433       -3.93789
H         -0.68365      -13.86658        0.75747
H          0.80363      -13.17955        1.36617
H          0.43969      -14.52234       -1.36481
H          1.34097      -15.14145        0.02703
H          1.93580      -13.72289       -0.84870
H          1.08506       -6.35662       -7.24674
H         -0.62207       -6.30787       -7.63077
H          1.14851       -8.80979       -7.79084
H          0.53544       -7.85569       -9.15535
H         -0.58720       -8.77962       -8.14270
H         -7.32528       -4.94918        2.89574
H         -7.76189       -6.66070        4.62731
H         -7.17323       -9.82938        1.79397
H         -6.88813       -8.18886        0.07580
H         -6.92471       -7.13210       -2.21612
H         -8.09005       -6.29750       -4.20431
H         -9.36109       -2.80705       -2.02757
H         -8.38176       -3.72504        0.00762
H         -8.60048       -4.17313       -5.39362
H         -9.05195       -2.73540       -4.50859
H        -10.87726       -5.17489       -4.88997
H        -10.96886       -3.65806       -5.80527
H        -11.32368       -3.66857       -4.06928
H         -8.08921       -9.01740        5.33029
H         -6.40502       -9.37633        4.95495
H         -8.78886      -10.95730        3.86152
H         -7.76456      -11.40960        5.22960
H         -7.07281      -11.34557        3.61433
H        -10.42653       11.69690       -6.63283
H         -9.65012       11.82010       -8.22629
H         -8.12904       11.75039       -5.63035
H         -8.38053       13.10540       -6.73377
H         -7.42314       11.71492       -7.26356
H         -7.36611        4.42911       -0.75864
H         -5.98844        3.44700        1.19462
H         -5.46880        1.77609        1.19145
H         -8.18757        2.95830        1.86493
H         -7.26038        1.73402        2.75262
H         -8.13914        1.29975        1.27083
H         -4.67533       -0.38868       -2.72727
H          1.14590       -3.52850        1.51416
H         -4.41196        8.09132       -1.97532
H         -3.67393        7.30417       -3.41021
H         -4.62355        5.76592       -0.88687
H         -2.95460        6.22443       -1.18683
H         -3.76628        5.08042       -2.26613
H          0.13828        0.02891       -9.50827
H        -12.43945       12.62888      -15.37964
H        -13.14644        7.92845      -13.94094
H          2.73659       -0.93403      -12.88101
H        -16.44659       10.04200      -15.75242
H        -18.27477       11.50938      -16.43342
H        -18.63823       12.92726      -12.39487
H        -16.82094       11.44989      -11.68171
H        -15.87424        8.67782      -10.76658
H        -16.52525        6.38580      -10.24408
H        -16.50602        5.39662      -14.44022
H        -15.80435        7.67467      -14.96333
H        -19.46793       13.64952      -15.92242
H        -19.61058       14.22354      -14.28193
H        -21.20757       11.91223      -15.51580
H        -21.79405       13.54091      -15.13874
H        -21.36642       12.42975      -13.82948
H        -16.38112        4.02184      -11.00279
H        -16.39858        3.61637      -12.70675
H        -18.79836        4.67145      -11.10390
H        -18.55334        3.01106      -11.67557
H        -18.82896        4.32060      -12.83962
H         -8.59876       13.36543      -15.87974
H         -9.43619       15.46979      -16.88013
H        -12.66947       13.39393      -18.78924
H        -11.78872       11.33848      -17.96816
H        -11.52499        8.98765      -17.67952
H        -10.72089        6.82445      -18.43218
H         -6.71732        7.85170      -17.20137
H         -7.48993       10.08310      -16.58841
H         -8.85748        5.09590      -17.39511
H         -7.20694        5.58741      -17.72267
H         -9.40113        5.43199      -19.86811
H         -8.15184        4.21514      -19.57481
H         -7.69906        5.83682      -20.13753
H        -11.02030       16.71051      -18.39419
H        -12.32015       16.31492      -17.27023
H        -12.41582       15.75201      -20.27828
H        -13.16968       17.11192      -19.43742
H        -13.73427       15.47784      -19.11991
H          2.42727       -1.43851       -9.08463
H          3.48297       -1.72435      -10.45611
H          0.93104       -3.29819       -9.85196
H          2.60272       -3.84566       -9.65123
H          1.96307       -3.55170      -11.27237
H         -1.74916        7.31765      -11.74514
H         -2.69380        9.54062      -10.90159
H         -4.34578       10.01640      -11.22606
H         -1.87925       10.22995      -12.96964
H         -3.19720       11.39663      -12.75235
H         -3.40823        9.98481      -13.81081
H         -7.60736        6.87007      -11.90750
H        -11.20217       11.81760       -9.23817
H         -0.53010        5.98432       -7.62868
H         -1.33555        4.50587       -7.02580
H         -2.79161        6.68001       -8.70505
H         -2.77829        6.67545       -6.95072
H         -3.53099        5.33672       -7.84199
