278
POPB.sdf
C          0.50967        6.39818       -4.46493
C         -0.72955        7.08282       -4.27909
C         -0.99351        7.65914       -3.03035
C         -0.14915        7.43623       -1.90160
C          1.06717        6.70491       -2.07533
C          1.39540        6.25981       -3.36048
C         -1.85026        7.30100       -5.18026
C         -2.81922        8.13289       -4.68705
S         -2.41539        8.67558       -3.14223
C          2.09826        6.28946       -1.12745
C          3.21606        5.71668       -1.69523
S          3.00103        5.60765       -3.36848
C          0.88620        5.91565       -5.83402
C         -0.53039        7.93458       -0.54310
C          4.45120        5.27777       -1.07600
C          5.43675        4.47442       -1.62160
C          6.52838        4.23480       -0.73150
C          6.38116        4.88224        0.48025
S          4.93028        5.81050        0.47467
C          7.31640        4.93062        1.59135
S          9.00230        4.89756        1.31256
C          9.43892        5.16546        2.97911
C          8.27852        5.30669        3.74180
C          7.08759        4.94903        2.95298
C          8.11848        5.66446        5.18304
C          7.02369        4.89003        5.80616
C          6.02525        4.27050        4.98578
C          5.82719        4.63280        3.60195
C          6.63825        4.72568        7.13098
S          5.60105        3.34025        7.28418
C          5.43504        3.19311        5.59755
C         10.86968        5.14425        3.30595
C         11.92242        5.31099        2.41335
C         13.21217        5.15392        3.00220
S         11.50705        4.78386        4.86786
O          8.76108        6.53743        5.74966
O          4.70890        4.61263        3.09339
C          6.94732        5.49228        8.38243
C          8.07044        4.87463        9.19027
C          4.71169        2.03777        4.95940
C          5.63513        1.23707        4.03606
C         13.15319        4.87234        4.35290
C         -1.86618        7.90293       -0.10513
C         -2.25794        8.37580        1.14818
C         -1.30501        8.78862        2.06873
C          0.03312        8.78606        1.69061
C          0.40243        8.42938        0.38573
C          0.56036        6.66108       -6.97931
C          0.88015        6.23469       -8.27049
C          1.65549        5.09890       -8.46094
C          2.04443        4.36292       -7.34940
C          1.61084        4.73104       -6.06787
O         -1.56437        9.20229        3.34515
C         -2.94663        9.28330        3.69277
O          2.08717        4.62733       -9.66907
C          1.61599        5.34230      -10.81106
C          2.16856        4.68503      -12.05714
C         -3.06234        9.76994        5.12022
C         16.14884        4.86218        8.53763
C         15.69549        4.73921        7.18682
C         16.60531        4.29758        6.21674
C         17.99680        4.11710        6.50476
C         18.45761        4.29121        7.84987
C         17.51458        4.58993        8.83827
C         14.39876        5.02139        6.57335
C         14.28803        4.68545        5.24396
S         15.74693        3.98191        4.72644
C         19.79582        4.22835        8.44361
C         19.82473        4.27939        9.82130
S         18.25411        4.50154       10.40465
C         15.16839        5.19454        9.62542
C         18.98271        3.75936        5.43174
C         20.94192        4.13722       10.73457
C         20.98059        4.44726       12.08437
C         22.24194        4.17052       12.69274
C         23.15749        3.64036       11.80375
S         22.42541        3.43157       10.25918
C         24.50791        3.18051       12.07713
S         24.89731        2.47824       13.58809
C         26.50728        2.01563       13.11988
C         26.70998        2.35086       11.78223
C         25.64913        3.24366       11.30114
C         27.85046        2.01036       10.87739
C         28.19696        3.16088       10.01617
C         27.25073        4.23117        9.79871
C         25.84005        4.08183       10.12655
C         29.31327        3.40297        9.22207
S         29.40913        5.08309        8.80308
C         27.85520        5.40127        9.42806
C         27.37289        1.43544       14.14799
C         26.97176        0.86049       15.34660
C         28.05547        0.44988       16.17825
S         29.09355        1.50162       14.09679
O         28.36244        0.91019       10.80791
O         24.97231        4.65094        9.48156
C         30.40372        2.49498        8.71857
C         30.04928        1.92521        7.35425
C         27.31837        6.79881        9.58088
C         26.57277        7.30597        8.36279
C         29.29177        0.72648       15.62783
C         18.88919        4.29205        4.13356
C         19.79789        3.96858        3.11948
C         20.90815        3.18200        3.39707
C         21.06029        2.67510        4.68136
C         20.07809        2.90409        5.65528
C         13.85481        4.69623        9.60377
C         12.92725        4.97358       10.61311
C         13.31780        5.66418       11.75237
C         14.61860        6.14273       11.82807
C         15.50125        5.96898       10.75382
O         21.89017        2.84661        2.50689
C         21.67274        3.26979        1.16190
O         12.53106        5.92211       12.83862
C         11.17755        5.48288       12.74263
C         10.46761        5.84483       14.03020
C         22.82576        2.78555        0.30794
C         34.32485        0.82854       16.72378
C         32.94909        0.44391       16.66210
C         32.55784       -0.72022       17.33180
C         33.50658       -1.61652       17.91758
C         34.88315       -1.25175       17.92997
C         35.25077       -0.01256       17.40841
C         31.80595        1.03286       15.96795
C         30.59535        0.41795       16.19533
S         30.81265       -0.81626       17.34617
C         36.07653       -1.97265       18.39551
C         37.22767       -1.21125       18.41637
S         36.91555        0.31658       17.77174
C         34.76706        2.12414       16.10752
C         33.09024       -2.94885       18.46163
C         38.53792       -1.54922       18.93051
C         39.74109       -0.90965       18.67617
C         40.83240       -1.46819       19.40299
C         40.46367       -2.54532       20.19759
S         38.77621       -2.79966       20.07364
C         41.29708       -3.29493       21.10605
S         42.56427       -2.53196       21.95856
C         42.92086       -3.91078       22.94057
C         42.01877       -4.92878       22.65129
C         41.28724       -4.64189       21.42133
C         41.81074       -6.23462       23.34438
C         41.59825       -7.31587       22.35934
C         41.16295       -6.99875       21.02536
C         40.62351       -5.70225       20.66846
C         41.63090       -8.69378       22.49915
S         41.76446       -9.45025       20.94467
C         41.49412       -7.98334       20.12534
C         44.08489       -3.84589       23.82350
C         44.74063       -2.70610       24.27927
C         45.89551       -2.98362       25.07101
S         44.93640       -5.25022       24.34307
O         41.74110       -6.37004       24.55436
O         39.75288       -5.56366       19.81732
C         41.59410       -9.58088       23.70772
C         42.97431       -9.99003       24.18200
C         41.67406       -7.84861       18.64210
C         40.41753       -8.14265       17.84675
C         46.11190       -4.33555       25.18909
C         32.09831       -3.71330       17.82614
C         31.72151       -4.97833       18.27879
C         32.40583       -5.58104       19.32550
C         33.41536       -4.86890       19.96080
C         33.69800       -3.54912       19.58033
C         33.96066        3.27365       16.14560
C         34.35338        4.48534       15.56472
C         35.62581        4.62506       15.02506
C         36.47069        3.52467       15.01625
C         36.02106        2.28480       15.48607
O         32.17183       -6.84221       19.79832
C         31.06952       -7.52117       19.19712
O         36.14702        5.76735       14.48826
C         35.25890        6.87910       14.41096
C         35.99992        8.03822       13.77737
C         30.92735       -8.88377       19.83862
H         -1.93131        6.89042       -6.17874
H         -3.72302        8.46446       -5.18138
H          2.03371        6.45141       -0.05884
H          5.39285        4.07070       -2.62582
H          7.38733        3.62913       -0.99539
H         11.79571        5.52839        1.35855
H         14.13820        5.26137        2.44939
H          6.04401        5.52327        9.01158
H          7.17128        6.53857        8.14683
H          7.85253        3.83181        9.44475
H          8.20525        5.42377       10.12798
H          9.01047        4.90135        8.63297
H          3.85773        2.40752        4.38076
H          4.31310        1.35867        5.72182
H          5.91772        1.81185        3.14662
H          5.13451        0.32749        3.68869
H          6.56002        0.94269        4.54475
H         -2.65588        7.50974       -0.73929
H         -3.32005        8.38043        1.36759
H          0.79953        9.06964        2.40756
H          1.45285        8.53272        0.12429
H          0.04005        7.61161       -6.89799
H          0.51974        6.83687       -9.09678
H          2.68332        3.49166       -7.47050
H          1.88559        4.06699       -5.25285
H         -3.41509        8.29437        3.61967
H         -3.45923        9.99391        3.03314
H          1.96218        6.38219      -10.77690
H          0.52042        5.30940      -10.84803
H          3.26253        4.66898      -12.03161
H          1.84052        5.22482      -12.94981
H          1.82988        3.64664      -12.12509
H         -2.52495        9.10090        5.80069
H         -4.11126        9.81930        5.42348
H         -2.61493       10.76440        5.22482
H         13.56715        5.46706        7.10411
H         20.70479        4.09454        7.87282
H         20.13657        4.85147       12.63172
H         22.44705        4.34450       13.74204
H         25.93655        0.73398       15.64302
H         27.91829       -0.02266       17.14566
H         30.58736        1.66769        9.44590
H         31.33671        3.05520        8.62818
H         29.16434        1.27941        7.39732
H         30.88058        1.33278        6.95369
H         29.83659        2.71851        6.62120
H         28.13330        7.49081        9.83226
H         26.64119        6.82329       10.44388
H         27.24174        7.39155        7.49971
H         26.14754        8.29228        8.56320
H         25.75282        6.63772        8.08449
H         18.09502        4.98365        3.86642
H         19.60616        4.37015        2.13127
H         21.94094        2.08779        4.93162
H         20.21259        2.40345        6.61033
H         13.51028        4.06127        8.79258
H         11.91664        4.60462       10.47820
H         14.95635        6.65707       12.72501
H         16.47709        6.43792       10.85072
H         21.63103        4.36392        1.11222
H         20.74255        2.83675        0.77616
H         11.13766        4.39518       12.60952
H         10.67859        5.98486       11.90511
H         10.96901        5.38540       14.88799
H          9.42787        5.50792       14.00241
H         10.48712        6.92789       14.18690
H         23.77860        3.16105        0.69398
H         22.70084        3.12281       -0.72471
H         22.87864        1.69243        0.32016
H         31.87681        1.89475       15.31753
H         36.06796       -2.97703       18.76383
H         39.83806       -0.05595       18.01576
H         41.85108       -1.07404       19.34589
H         44.41895       -1.69591       24.05686
H         46.53308       -2.23062       25.51972
H         41.02281      -10.48968       23.46714
H         41.04104       -9.09505       24.51945
H         43.53327      -10.50098       23.39068
H         42.89038      -10.67953       25.02843
H         43.55295       -9.11883       24.50102
H         42.49007       -8.49590       18.29862
H         42.00144       -6.82365       18.41821
H         40.12458       -9.19059       17.94844
H         40.59543       -7.93757       16.78555
H         39.57668       -7.52302       18.17007
H         46.90988       -4.82952       25.72897
H         31.58681       -3.34976       16.94007
H         30.90362       -5.46544       17.76068
H         33.98963       -5.33439       20.75859
H         34.43922       -3.01554       20.17059
H         32.99120        3.25994       16.63654
H         33.63879        5.30089       15.57642
H         37.48461        3.61989       14.63589
H         36.70518        1.44901       15.36970
H         31.24604       -7.65467       18.12295
H         30.14515       -6.95387       19.36106
H         34.93163        7.17406       15.41517
H         34.39165        6.62725       13.78912
H         36.89849        8.28239       14.35283
H         35.35806        8.92198       13.72669
H         36.32624        7.77799       12.76535
H         31.85166       -9.45887       19.72828
H         30.10477       -9.43684       19.37674
H         30.73132       -8.78337       20.91040
