149
PPDT2FBT.sdf
C         -1.57932       -5.91868       10.35382
C         -0.20453       -6.04813       10.41049
S          0.38302       -6.73359        8.96038
C         -1.15930       -6.79425        8.22488
C         -2.12448       -6.35728        9.11152
C         -1.28206       -7.25241        6.83734
C         -0.40640       -8.16448        6.21424
C         -0.50839       -8.56692        4.87191
C         -1.52253       -8.13720        3.99739
C         -2.44742       -7.20922        4.55259
C         -2.32165       -6.75149        5.99720
N         -3.50003       -6.64770        3.93060
S         -4.23486       -5.63443        5.00500
N         -3.27339       -5.85850        6.32704
C         -1.66743       -8.59012        2.61752
S         -1.33354      -10.22417        2.23141
C         -1.62555       -9.99238        0.55988
C         -2.07083       -8.70703        0.32213
C         -2.09516       -7.90607        1.49793
F          0.59572       -8.71919        6.91801
F          0.44519       -9.40401        4.42268
C          0.71836       -5.77030       11.53218
C          2.02176       -5.24696       11.36229
C          2.85015       -5.08915       12.47750
C          2.39134       -5.42719       13.75336
C          1.09981       -5.91839       13.94058
C          0.27184       -6.08128       12.83285
O          2.39045       -4.88787       10.09290
C          3.74446       -4.53575        9.83465
C          3.90381       -4.40050        8.32809
O          0.77721       -6.20821       15.23803
C         -0.53617       -6.71078       15.48154
C         -0.65233       -7.02800       16.96059
C         -1.29766      -14.68142       -4.25663
C         -1.00147      -14.54786       -2.91370
S         -0.64272      -16.06796       -2.22800
C         -0.82140      -16.90493       -3.70621
C         -1.20730      -16.02996       -4.70846
C         -0.54598      -18.33914       -3.75392
C         -0.71108      -19.21596       -2.66355
C         -0.38113      -20.57877       -2.69217
C          0.11508      -21.24723       -3.82815
C          0.28933      -20.42739       -4.98133
C         -0.03695      -18.94376       -4.94130
N          0.72562      -20.81547       -6.19385
S          0.76798      -19.48329       -7.16477
N          0.21982      -18.33691       -6.11309
C          0.39824      -22.68004       -3.88672
S         -0.48392      -23.74961       -2.89179
C          0.21449      -25.14956       -3.57391
C          1.18205      -24.79440       -4.49661
C          1.29741      -23.38418       -4.66304
F         -1.22491      -18.76031       -1.50836
F         -0.55350      -21.24824       -1.53950
C         -1.05901      -13.34939       -2.05867
C         -0.14354      -13.09524       -1.01664
C         -0.34152      -11.98506       -0.19644
C         -1.43675      -11.11535       -0.37626
C         -2.32145      -11.34314       -1.44686
C         -2.12109      -12.44908       -2.27439
O          0.92141      -13.94814       -0.88114
C          1.74767      -13.84760        0.27675
C          2.70112      -15.03097        0.27250
O         -3.36726      -10.46907       -1.58512
C         -4.23910      -10.60723       -2.70211
C         -5.25325       -9.47947       -2.62783
C          0.08969      -30.94311       -0.37972
C         -0.82197      -30.28469       -1.18214
S         -2.31751      -31.11111       -1.18829
C         -1.75359      -32.34330       -0.13422
C         -0.42624      -32.13877        0.18175
C         -2.66549      -33.38718        0.33491
C         -3.72685      -33.92261       -0.41695
C         -4.63294      -34.88386        0.07216
C         -4.56773      -35.45527        1.35901
C         -3.49634      -34.97495        2.17023
C         -2.53482      -33.91711        1.65207
N         -3.19397      -35.36169        3.42405
S         -1.88537      -34.48809        3.91796
N         -1.61600      -33.57336        2.57469
C         -5.50578      -36.45713        1.87695
S         -6.19217      -37.63327        0.82305
C         -7.09584      -38.35168        2.07655
C         -6.86358      -37.74863        3.28890
C         -5.95709      -36.65563        3.17230
F         -3.91244      -33.51744       -1.68498
F         -5.62690      -35.23800       -0.76055
C         -0.62539      -29.03268       -1.93981
C          0.63020      -28.72957       -2.50333
C          0.85079      -27.46827       -3.05005
C         -0.16132      -26.49169       -3.08337
C         -1.45082      -26.83050       -2.61372
C         -1.66394      -28.08631       -2.03875
O          1.57618      -29.72051       -2.47781
C          2.89410      -29.43600       -2.93204
C          3.73913      -30.66868       -2.66263
O         -2.43848      -25.89269       -2.75950
C         -3.72498      -26.11477       -2.19134
C         -4.51844      -24.82589       -2.34051
H         -2.18132       -5.52637       11.16808
H         -3.18490       -6.33268        8.88489
H         -2.36733       -8.34807       -0.65550
H         -2.41314       -6.87066        1.50653
H          3.85957       -4.70216       12.38833
H          3.04901       -5.30514       14.60933
H         -0.73238       -6.47457       12.95561
H          4.42984       -5.31146       10.19551
H          3.97202       -3.57682       10.30985
H          3.74554       -5.36644        7.83678
H          4.90293       -4.03766        8.07114
H          3.15806       -3.71134        7.91817
H         -0.71007       -7.62983       14.90965
H         -1.28386       -5.95419       15.21450
H          0.06425       -7.80714       17.24105
H         -1.66050       -7.37300       17.20660
H         -0.41970       -6.14620       17.56613
H         -1.57431      -13.85260       -4.89597
H         -1.40466      -16.33247       -5.72709
H          1.78854      -25.50795       -5.03948
H          1.99569      -22.92139       -5.34962
H          0.36094      -11.77599        0.60410
H         -2.81434      -12.65828       -3.08236
H          1.14862      -13.87818        1.19466
H          2.32775      -12.91966        0.23387
H          2.14905      -15.96966        0.39122
H          3.42922      -14.94992        1.08469
H          3.23645      -15.09575       -0.68051
H         -4.76610      -11.56638       -2.65676
H         -3.67692      -10.52564       -3.63952
H         -5.82870       -9.54240       -1.69831
H         -5.94363       -9.51741       -3.47435
H         -4.74960       -8.50638       -2.62282
H          1.09833      -30.58768       -0.20696
H          0.15616      -32.78989        0.82309
H         -7.74468      -39.18981        1.86497
H         -7.32263      -38.06948        4.21531
H         -5.65152      -36.04665        4.01524
H          1.83217      -27.21073       -3.43277
H         -2.63927      -28.33420       -1.63379
H          3.31713      -28.58801       -2.38265
H          2.88484      -29.22785       -4.00747
H          3.78658      -30.87069       -1.58695
H          4.75567      -30.53634       -3.04113
H          3.29507      -31.55337       -3.13079
H         -3.65120      -26.36246       -1.12639
H         -4.23216      -26.91918       -2.73430
H         -4.07084      -24.02843       -1.73665
H         -5.55547      -24.96265       -2.02163
H         -4.50756      -24.47824       -3.37910
