185
PTB7-Th.sdf
C          2.71703       -3.24561       -0.59437
C          1.60343       -3.75383       -1.31680
C          0.71868       -2.84018       -1.91553
C          0.95765       -1.45347       -1.83680
C          2.07021       -0.94378       -1.12002
C          2.91358       -1.84999       -0.47193
C          1.14746       -5.10123       -1.54569
C         -0.06405       -5.19296       -2.19741
S         -0.61725       -3.67220       -2.66032
C          2.56001        0.41405       -0.95876
C          3.69858        0.52730       -0.19896
S          4.12619       -0.99413        0.42784
C          3.65963       -4.16897        0.09713
C          0.02036       -0.46863       -2.42079
C         -0.70489       -6.42615       -2.56607
C          4.11135       -4.11988        1.40805
C          5.06958       -5.12547        1.72352
C          5.28314       -5.99094        0.67355
S          4.43306       -5.48007       -0.72425
C         -0.49995        0.66862       -1.82164
C         -1.25679        1.47992       -2.71142
C         -1.38297        0.90149       -3.95415
S         -0.50721       -0.56402       -4.05363
S         -0.96460       -7.72650       -1.45269
C         -0.19447       -8.85495       -2.52633
C          0.02276       -8.20027       -3.69366
C         -0.57044       -6.94580       -3.82431
C          1.10410       -8.17130       -4.62247
C          0.97890       -7.18287       -5.60766
S         -0.48109       -6.19367       -5.44540
F          2.19651       -8.86422       -4.43144
C          1.85250       -6.79146       -6.69054
C          6.11530       -7.24354        0.68678
C          7.53320       -7.02716        0.18355
C         -2.11762        1.43237       -5.14716
C         -1.15879        2.08579       -6.13037
O          3.14717       -7.14378       -6.43634
O          1.50461       -6.18128       -7.69468
C          4.06305       -6.82179       -7.49635
C          4.51299       -5.37010       -7.44081
C         10.81156        5.81511       -0.05641
C         10.01592        4.72729        0.35431
C         10.31015        4.11598        1.57950
C         11.48708        4.49346        2.31883
C         12.32653        5.57581        1.84910
C         11.90892        6.25940        0.70365
C          8.87466        4.12107       -0.29914
C          8.15339        3.24678        0.47758
S          9.00200        2.99187        1.94422
C         13.61469        6.16086        2.30610
C         14.01406        7.31860        1.63997
S         12.85509        7.67986        0.44966
C         10.38594        6.54693       -1.26819
C         11.81326        3.87771        3.64114
C          6.84422        2.71723        0.14056
C          9.11855        6.98871       -1.61888
C          9.09120        7.67706       -2.86380
C         10.35863        7.84760       -3.37488
S         11.49766        6.89484       -2.53336
C         12.30709        4.49779        4.78272
C         12.51012        3.61432        5.88456
C         12.12092        2.32539        5.59803
S         11.64943        2.18397        3.95602
S          5.72105        1.95208        1.22778
C          4.57345        1.67577       -0.06299
C          4.83536        2.67667       -0.97626
C          6.25609        2.64213       -1.10224
C          4.40181        2.61478       -2.34864
C          5.23626        1.76748       -3.05412
S          6.90595        2.29935       -2.78874
F          3.93436        3.71042       -2.91392
C          4.86803        0.52106       -3.69248
C         10.79200        8.72152       -4.50948
C         10.90755       10.17256       -4.05204
C         12.07184        1.15466        6.54452
C         13.33919        0.31469        6.51607
O          5.80545       -0.42129       -3.40322
O          3.82682        0.30655       -4.29600
C          5.77003       -1.64328       -4.14999
C          5.14271       -2.79819       -3.39245
C         18.61242       14.01503       -1.65515
C         18.57381       12.76469       -0.94953
C         19.79719       12.12351       -0.71676
C         21.01601       12.61745       -1.26772
C         21.03791       13.79296       -2.05294
C         19.83721       14.50911       -2.18689
C         17.47572       11.93776       -0.40885
C         17.85667       10.77288        0.24966
S         19.56144       10.75331        0.33148
C         22.09887       14.43034       -2.81151
C         21.75310       15.62788       -3.38815
S         20.14145       16.01369       -3.02408
C         17.38115       14.82229       -1.85381
C         22.26568       11.84998       -1.04345
C         17.04906        9.72835        0.89145
C         16.95791       15.54808       -2.96325
C         15.75159       16.27710       -2.74716
C         15.21735       16.02458       -1.50515
S         16.27638       15.07793       -0.55494
C         22.46144       10.47926       -1.11012
C         23.77793       10.07387       -0.75911
C         24.61132       11.14838       -0.54660
S         23.73700       12.61783       -0.56544
S         15.32928        9.82670        1.16496
C         15.21870        8.15205        1.73765
C         16.48800        7.89238        2.19958
C         17.39777        8.43923        1.23955
C         17.01306        6.58628        2.47329
C         17.57599        6.06341        1.31515
S         18.66532        7.26260        0.60367
F         17.62470        6.39153        3.61926
C         17.05835        4.95224        0.53353
C         13.89359       16.47177       -0.96409
C         14.00119       17.73502       -0.12744
C         26.08870       11.11842       -0.28774
C         26.88028       10.93808       -1.57822
O         16.39137        4.06890        1.33375
O         17.13744        4.84964       -0.68041
C         15.46136        3.17541        0.69528
C         16.09201        2.10596       -0.17600
H          1.68335       -5.98438       -1.22001
H          2.11447        1.25721       -1.47450
H          3.78829       -3.37415        2.12284
H          5.54777       -5.22972        2.69052
H         -0.29339        0.94333       -0.79462
H         -1.68372        2.44087       -2.45046
H          0.11177       -9.83308       -2.18299
H          5.63059       -8.03478        0.10291
H          6.16970       -7.61828        1.71802
H          7.54227       -6.75449       -0.87621
H          8.11674       -7.94784        0.29834
H          8.04226       -6.23618        0.74421
H         -2.85871        2.17376       -4.82157
H         -2.67884        0.63171       -5.64387
H         -0.57094        2.87178       -5.64365
H         -1.70866        2.53272       -6.96313
H         -0.45773        1.35176       -6.54218
H          3.61941       -7.05680       -8.47136
H          4.93079       -7.47787       -7.37884
H          3.66959       -4.68022       -7.54679
H          5.22607       -5.16190       -8.24493
H          4.98947       -5.14591       -6.48159
H          8.53366        4.42571       -1.28097
H         14.19923        5.72078        3.10666
H          8.23847        6.83241       -1.00608
H          8.19973        8.10296       -3.30811
H         12.51208        5.55891        4.84499
H         12.88458        3.92141        6.85455
H         10.06424        8.65222       -5.32504
H         11.75718        8.39319       -4.91233
H          9.94916       10.54874       -3.67614
H         11.21943       10.81153       -4.88352
H         11.64285       10.27935       -3.24613
H         11.20289        0.52013        6.33307
H         11.92992        1.52976        7.56765
H         13.48212       -0.15534        5.53823
H         13.28185       -0.48183        7.26678
H         14.22524        0.91921        6.73687
H          6.81921       -1.88680       -4.34033
H          5.28681       -1.50540       -5.12183
H          5.47651       -2.82946       -2.35159
H          5.41181       -3.74595       -3.87334
H          4.05123       -2.72590       -3.39481
H         16.43439       12.20825       -0.53028
H         23.10218       14.03696       -2.92286
H         22.36874       16.29148       -3.97624
H         17.49581       15.58895       -3.90210
H         15.28421       16.91688       -3.48584
H         21.67826        9.77763       -1.36692
H         24.10441        9.04254       -0.70862
H         13.44320       15.66885       -0.36833
H         13.20684       16.65425       -1.79980
H         14.66183       17.58918        0.73250
H         13.01281       18.01790        0.24857
H         14.39188       18.56947       -0.71856
H         26.31481       10.28224        0.38535
H         26.42238       12.03027        0.22016
H         26.58945       10.02050       -2.10220
H         27.95157       10.87421       -1.36104
H         26.72241       11.77798       -2.26332
H         14.71155        3.76191        0.12013
H         14.89444        2.67939        1.49766
H         16.66445        2.53491       -1.00121
H         15.32431        1.45577       -0.60636
H         16.78019        1.49507        0.41289
