278
PTBB-p.sdf
C          0.72611        7.68987       -4.21717
C         -0.62009        8.09353       -3.98427
C         -1.09598        8.12062       -2.66519
C         -0.35005        7.57641       -1.57945
C          0.98317        7.11294       -1.82504
C          1.51307        7.25476       -3.11545
C         -1.67176        8.47690       -4.90718
C         -2.79682        8.96658       -4.29795
S         -2.63323        8.95067       -2.61605
C          1.96177        6.46034       -0.95918
C          3.20912        6.30303       -1.52215
S          3.21042        6.88034       -3.11113
C          1.29837        7.77523       -5.60284
C         -0.92930        7.49528       -0.19595
C          4.41975        5.78140       -0.93414
C          5.28726        4.85226       -1.47580
C          6.40483        4.57727       -0.62565
C          6.37904        5.30915        0.54832
S          5.02449        6.37741        0.55024
C          7.35243        5.30626        1.62898
S          9.02652        5.25087        1.28838
C          9.51568        5.37262        2.94886
C          8.39372        5.53165        3.75582
C          7.16089        5.27182        2.99792
C          8.33234        5.81902        5.21965
C          7.16531        5.22278        5.85411
C          6.08515        4.68979        5.07333
C          5.89916        4.97733        3.66283
C          6.83151        5.14444        7.19895
S          5.63526        3.91404        7.44703
C          5.37912        3.73468        5.77192
C         10.94252        5.24919        3.26163
C         11.99782        5.35896        2.36672
C         13.27771        5.14863        2.95964
S         11.56088        4.80168        4.80832
O          9.17361        6.48501        5.80211
O          4.80556        4.90914        3.12396
C          7.31563        5.92809        8.38923
C          8.40710        5.24465        9.18711
C          4.55307        2.62468        5.19198
C          3.08692        2.96888        5.03959
C         13.20412        4.87787        4.31139
C         -2.27419        7.14158        0.03946
C         -2.82633        7.09188        1.33008
C         -2.02450        7.30113        2.44717
C         -0.68611        7.63053        2.25031
C         -0.16493        7.76740        0.95368
C          1.02935        8.86324       -6.45637
C          1.54998        8.94171       -7.75789
C          2.44014        7.97709       -8.22118
C          2.74614        6.90199       -7.39229
C          2.14940        6.78394       -6.12830
S         -2.67157        7.23717        4.10491
C         -3.37821        5.55615        4.12506
S          3.13427        8.03364       -9.85951
C          3.94052        9.66837       -9.82443
C         -3.92715        5.25826        5.51017
C          4.69204        9.88429      -11.12702
C         16.12373        4.80774        8.53432
C         15.68932        4.71010        7.17804
C         16.61299        4.29308        6.20877
C         18.00361        4.13796        6.49855
C         18.44520        4.29364        7.85185
C         17.48593        4.52861        8.84147
C         14.40618        5.01005        6.55529
C         14.31675        4.67962        5.22138
S         15.77544        3.96637        4.71511
C         19.77866        4.27921        8.45014
C         19.79585        4.24944        9.82908
S         18.20655        4.35192       10.41237
C         15.14551        5.15025        9.62154
C         19.00551        3.78877        5.43187
C         20.91948        4.11534       10.73948
C         20.95796        4.42624       12.08848
C         22.22471        4.15924       12.69363
C         23.14532        3.64612       11.80044
S         22.41868        3.43663       10.25234
C         24.50729        3.22009       12.06892
S         24.88115        2.38479       13.51449
C         26.53699        2.09967       13.08297
C         26.76388        2.55446       11.78773
C         25.66828        3.42228       11.34473
C         27.96954        2.35694       10.94877
C         28.23253        3.52161       10.09309
C         27.24224        4.54815        9.90335
C         25.83999        4.38909       10.26524
C         29.34269        3.79299        9.30678
S         29.38377        5.46871        8.88873
C         27.82759        5.74096        9.53300
C         27.42461        1.50504       14.08012
C         27.04566        0.81818       15.22205
C         28.14619        0.39925       16.02519
S         29.13791        1.68649       14.06679
O         28.65628        1.34466       10.95830
O         24.94987        5.05263        9.75354
C         30.43474        2.88991        8.80523
C         31.68278        2.89462        9.66632
C         27.27302        7.12432        9.72125
C         26.53375        7.65872        8.51363
C         29.37347        0.75810       15.49778
C         18.95054        4.32751        4.13122
C         19.87880        3.98357        3.13289
C         20.95850        3.15650        3.42677
C         21.05668        2.62685        4.70956
C         20.07321        2.90138        5.67267
C         13.83747        4.63143        9.64904
C         12.93546        4.92895       10.68446
C         13.34001        5.68757       11.77980
C         14.62898        6.21043       11.78533
C         15.49216        5.98561       10.70303
S         22.16000        2.68403        2.20097
C         22.75454        4.31974        1.65827
S         12.24430        6.07289       13.12910
C         11.78629        4.39607       13.67967
C         23.87279        4.13300        0.64638
C         10.90756        4.49736       14.91533
C         34.47001        0.30195       16.10516
C         33.05842        0.15691       16.26263
C         32.58517       -0.67968       17.28164
C         33.44725       -1.53834       18.02546
C         34.85902       -1.42451       17.83383
C         35.33398       -0.44320       16.95771
C         31.93794        0.69439       15.49884
C         30.69019        0.42094       16.02029
S         30.87733       -0.43298       17.48399
C         35.97775       -2.18948       18.37217
C         37.21950       -1.64426       18.12612
S         37.05263       -0.27390       17.14188
C         35.02988        1.24268       15.07675
C         32.91106       -2.55507       18.99402
C         38.51904       -2.05776       18.61672
C         39.76198       -1.74821       18.09152
C         40.84295       -2.28319       18.85555
C         40.41217       -2.99321       19.95875
S         38.69566       -2.97458       20.05521
C         41.21992       -3.59467       20.99856
S         42.59235       -2.76986       21.60143
C         42.91407       -3.94418       22.82844
C         41.90691       -4.90213       22.84445
C         41.11073       -4.82533       21.61908
C         41.69219       -5.98423       23.83642
C         41.19956       -7.20621       23.18927
C         40.68077       -7.18503       21.84571
C         40.32581       -5.95831       21.14106
C         41.08836       -8.48142       23.72081
S         40.91619       -9.64328       22.45577
C         40.76790       -8.43205       21.26199
C         44.14180       -3.83436       23.60127
C         44.94540       -2.71332       23.75730
C         46.09540       -2.94860       24.56664
S         44.88618       -5.19227       24.35461
O         41.88487       -5.87354       25.03913
O         39.52010       -5.93352       20.22183
C         41.10215       -8.95064       25.14893
C         42.46006       -9.42028       25.63498
C         40.82836       -8.74979       19.79486
C         39.48431       -9.08577       19.18521
C         46.16373       -4.25466       24.98698
C         31.75236       -3.31037       18.72451
C         31.26134       -4.27987       19.61389
C         31.96614       -4.59771       20.77036
C         33.11729       -3.87294       21.06519
C         33.54967       -2.84135       20.21627
C         34.46554        2.50529       14.81684
C         34.99802        3.37880       13.85177
C         36.16959        3.05507       13.17137
C         36.76367        1.82314       13.42285
C         36.17540        0.92061       14.32005
S         31.40557       -5.84805       21.90732
C         31.30328       -7.28994       20.79383
S         36.87705        4.11047       11.92426
C         37.15952        5.63410       12.88306
C         30.90194       -8.51722       21.59450
C         37.87516        6.64771       12.00497
H         -1.58925        8.43157       -5.98606
H         -3.69097        9.35325       -4.76840
H          1.75743        6.15163        0.05906
H          5.13320        4.38366       -2.44099
H          7.18690        3.87119       -0.87872
H         11.87712        5.58918        1.31449
H         14.20870        5.22434        2.41014
H          6.46138        6.11850        9.05803
H          7.65443        6.91832        8.06641
H          8.08453        4.26632        9.55649
H          8.66767        5.85788       10.05708
H          9.30964        5.10611        8.58552
H          4.66886        1.71399        5.78925
H          4.96000        2.37368        4.20106
H          2.60355        3.05650        6.01597
H          2.58175        2.17794        4.47539
H          2.93623        3.90967        4.50230
H         -2.94221        6.90930       -0.78675
H         -3.89028        6.89659        1.43903
H         -0.03020        7.79553        3.10245
H          0.86973        8.09172        0.86847
H          0.38956        9.67928       -6.12709
H          1.24237        9.76465       -8.39780
H          3.44725        6.13686       -7.71878
H          2.38496        5.89030       -5.55506
H         -2.60103        4.82867        3.86919
H         -4.18364        5.47774        3.38865
H          4.63721        9.71666       -8.98119
H          3.18929       10.45408       -9.70042
H         -3.14270        5.30798        6.27320
H         -4.35090        4.24892        5.53711
H         -4.72403        5.95832        5.78442
H          5.47194        9.12856      -11.27123
H          5.17905       10.86493      -11.12133
H          4.01662        9.85575      -11.98916
H         13.57673        5.46476        7.08336
H         20.69322        4.23404        7.87093
H         20.11372        4.82875       12.63607
H         22.43407        4.33741       13.74187
H         26.01647        0.60968       15.48993
H         28.02180       -0.16474       16.94212
H         30.70913        3.19061        7.78446
H         30.05343        1.86623        8.71388
H         32.12467        3.89442        9.72663
H         32.43370        2.22531        9.23123
H         31.46831        2.55124       10.68222
H         28.07335        7.81582       10.00943
H         26.58427        7.10835       10.57873
H         27.22000        7.83502        7.68047
H         26.05387        8.60940        8.76918
H         25.75468        6.97039        8.17357
H         18.16775        5.02749        3.85051
H         19.73355        4.36705        2.12609
H         21.89263        1.98357        4.97649
H         20.17407        2.39917        6.63238
H         13.48348        3.97755        8.85548
H         11.91651        4.55708       10.61575
H         14.98103        6.80119       12.62844
H         16.46570        6.46965       10.74381
H         23.12480        4.88161        2.52192
H         21.93663        4.88398        1.20038
H         12.69049        3.82450       13.91366
H         11.24275        3.87721       12.88451
H         24.71926        3.58774        1.07821
H         24.24359        5.10726        0.31145
H         23.52515        3.58960       -0.23922
H         11.43399        4.98319       15.74429
H         10.61457        3.49723       15.25129
H          9.98957        5.05898       14.71001
H         32.06330        1.26138       14.58489
H         35.85964       -3.08158       18.97603
H         39.90620       -1.14654       17.20184
H         41.88629       -2.12657       18.60879
H         44.72373       -1.74748       23.31928
H         46.82917       -2.19557       24.82726
H         40.38319       -9.77358       25.26335
H         40.73550       -8.15099       25.80271
H         42.82905      -10.26480       25.04418
H         42.38396       -9.75342       26.67675
H         43.20214       -8.61790       25.58924
H         41.53661       -9.56737       19.61445
H         41.24895       -7.88247       19.26664
H         39.09950      -10.02991       19.58005
H         39.58880       -9.18670       18.09955
H         38.74215       -8.30618       19.38008
H         46.91460       -4.70886       25.61918
H         31.19121       -3.16144       17.80529
H         30.32306       -4.77729       19.38199
H         33.69451       -4.09875       21.95948
H         34.42282       -2.27522       20.53376
H         33.58327        2.83890       15.35813
H         34.47556        4.30781       13.63894
H         37.68589        1.54140       12.91886
H         36.65617       -0.05007       14.42165
H         32.27603       -7.45742       20.31988
H         30.56205       -7.10775       20.00988
H         37.77030        5.40960       13.76358
H         36.20332        6.04697       13.21777
H         31.63471       -8.74486       22.37628
H         30.83826       -9.39045       20.93680
H         29.92108       -8.38566       22.06441
H         38.85224        6.27626       11.67637
H         38.04500        7.57497       12.56186
H         37.28360        6.89892       11.11759
