221
PTBTz-2.sdf
C         -8.88185        0.97270        8.93562
C         -8.64715        1.06783        7.54333
C         -7.56143        1.82677        7.10317
C         -6.80464        2.60910        7.99823
C         -7.06385        2.55874        9.39387
C         -8.07768        1.69148        9.84905
C         -9.37048        0.52226        6.41789
C         -8.74890        0.70719        5.20816
S         -7.31593        1.58596        5.40595
C         -6.47138        3.26842       10.50697
C         -6.94068        2.87340       11.73258
S         -8.11018        1.66218       11.58650
C         -9.94067        0.02633        9.37232
C         -5.76882        3.51342        7.43535
C         -9.16057        0.22335        3.92357
C        -10.20758       -1.24514        8.87886
C        -11.34525       -1.86143        9.46958
C        -11.86987       -1.09668       10.48601
S        -11.11741        0.43824       10.55916
C         -5.85078        4.32607        6.31110
C         -4.64796        5.02849        6.02292
C         -3.69131        4.81977        6.98923
S         -4.18420        3.61650        8.10071
C        -12.95237       -1.47495       11.45114
C        -14.31935       -0.97685       11.01706
C         -2.36520        5.50356        7.12648
C         -1.23435        4.70098        6.50858
C        -11.08344       -1.59938        1.18542
S        -10.99900       -1.52254       -0.52192
C        -11.15017       -3.25433       -0.68237
C        -11.10065       -3.79816        0.58601
C        -11.47388       -2.85914        1.57495
C         -9.94661       -4.38326        1.38163
C        -10.15214       -4.36375        2.79998
S        -11.68628       -3.56536        3.21736
C         -9.38214       -4.77939        3.97993
O         -8.04500       -4.91900        3.72572
O         -9.86029       -4.94641        5.09913
C         -7.27345       -5.41788        4.84677
C         -6.82641       -4.33032        5.81807
S        -10.79621       -0.14698        3.54315
C        -10.29477       -0.74556        2.02307
N         -9.02032       -0.57249        1.73661
C         -8.37048       -0.03665        2.82094
C        -11.64282       -3.76555       -1.96273
S        -12.65009       -5.15959       -2.13054
C        -12.93271       -4.81147       -3.81482
C        -12.22489       -3.66053       -4.11782
N        -11.49350       -3.08748       -3.08566
C        -15.71926       -7.02113       -7.83665
C        -16.55442       -8.17325       -7.87319
C        -16.85978       -8.79801       -6.66246
C        -16.22846       -8.40758       -5.45074
C        -15.32090       -7.30885       -5.43008
C        -15.11686       -6.60274       -6.62400
C        -17.14717       -8.90758       -8.97457
C        -17.96739       -9.94646       -8.61246
S        -18.07800      -10.01656       -6.91581
C        -14.48436       -6.76422       -4.36698
C        -13.78549       -5.61773       -4.68556
S        -14.07120       -5.23815       -6.33354
C        -15.52312       -6.28658       -9.09798
C        -16.47121       -9.21661       -4.21868
C        -18.69220      -10.85185       -9.47414
C        -14.35381       -5.86406       -9.70270
C        -14.57221       -5.22633      -10.96346
C        -15.90311       -5.20964      -11.32449
S        -16.88230       -5.80832      -10.05803
C        -16.61013      -10.59195       -4.07103
C        -16.79584      -11.01761       -2.72220
C        -16.72051       -9.96349       -1.84229
S        -16.71867       -8.47214       -2.67675
C        -16.52659       -4.69072      -12.59092
C        -16.42059       -5.67521      -13.74966
C        -16.67336      -10.01487       -0.34306
C        -15.25926      -10.29464        0.15804
C        -19.97294      -12.89727      -12.50713
S        -19.88388      -12.20563      -14.08072
C        -21.20195      -13.20208      -14.67880
C        -21.80362      -13.77805      -13.57739
C        -20.85860      -13.94856      -12.53571
C        -22.89949      -13.30658      -12.63627
C        -22.85254      -13.94252      -11.34927
S        -21.44356      -15.03171      -11.22061
C        -23.61471      -13.84596      -10.10252
O        -24.28420      -12.65763       -9.97534
O        -23.63976      -14.71319       -9.23276
C        -25.09610      -12.56252       -8.77974
C        -24.32348      -12.07891       -7.55734
S        -18.21498      -11.21485      -11.09464
C        -19.56328      -12.25330      -11.28090
N        -20.33368      -12.33817      -10.21319
C        -19.85653      -11.55318       -9.19223
C        -21.20589      -13.61459      -16.09869
S        -22.38467      -14.64431      -16.85226
C        -21.46460      -14.71421      -18.33803
C        -20.32852      -13.94384      -18.13411
N        -20.20129      -13.31309      -16.90054
C        -21.86887      -16.95226      -23.24109
C        -22.90157      -17.73169      -23.83249
C        -24.07909      -17.91925      -23.11141
C        -24.18807      -17.48832      -21.76729
C        -23.13074      -16.76145      -21.13796
C        -21.99781      -16.45635      -21.91086
C        -22.96826      -18.44548      -25.09847
C        -24.19308      -19.00666      -25.38108
S        -25.28346      -18.65735      -24.13022
C        -22.98040      -16.24852      -19.76815
C        -21.85953      -15.45294      -19.54931
S        -20.92645      -15.42929      -20.99300
C        -20.71161      -16.64286      -24.12156
C        -25.42402      -17.84748      -21.02465
C        -24.57753      -19.77855      -26.53681
C        -20.73547      -16.28829      -25.46689
C        -19.44511      -16.18438      -26.05644
C        -18.44507      -16.34831      -25.12554
S        -19.08084      -16.80908      -23.60224
C        -26.13434      -19.04217      -21.03685
C        -27.30699      -19.01906      -20.23039
C        -27.42672      -17.83500      -19.54010
S        -26.25490      -16.69987      -20.04793
C        -16.97180      -16.15197      -25.32673
C        -16.24631      -17.44162      -25.66912
C        -28.42923      -17.48002      -18.48510
C        -28.00770      -18.01309      -17.12087
C        -24.39982      -21.64454      -29.87279
S        -22.96027      -22.46033      -30.34374
C        -23.13792      -21.95524      -31.99689
C        -24.11744      -20.99533      -32.04066
C        -25.04191      -21.16244      -30.99214
C        -24.03405      -19.51291      -31.94573
C        -25.25300      -18.91575      -31.49419
S        -26.50182      -20.13374      -31.16904
C        -25.55530      -17.52715      -31.15278
O        -26.89628      -17.36882      -30.93785
O        -24.72729      -16.63199      -31.04080
C        -27.39252      -16.07304      -30.57833
C        -27.40754      -15.90261      -29.07042
S        -23.43380      -20.63310      -27.49349
C        -24.68677      -21.14831      -28.55635
N        -25.89909      -20.79539      -28.18766
C        -25.83691      -19.98775      -27.06924
C        -22.71558      -22.85094      -33.05743
S        -23.48522      -22.85349      -34.60568
C        -22.73713      -24.35093      -34.97517
C        -21.90065      -24.71410      -33.94382
N        -21.87100      -23.84717      -32.86561
H        -10.29774       -0.02995        6.51244
H         -5.70479        4.02683       10.41946
H         -6.63572        3.23487       12.70521
H         -9.62406       -1.71890        8.09819
H        -11.72110       -2.84056        9.19610
H         -6.73699        4.40757        5.69334
H         -4.51491        5.69221        5.17661
H        -12.71762       -1.09453       12.45244
H        -12.98502       -2.56881       11.54066
H        -14.34395        0.11586       10.95747
H        -15.08036       -1.29392       11.73753
H        -14.59367       -1.37638       10.03511
H         -2.14869        5.70282        8.18287
H         -2.41553        6.48422        6.63524
H         -1.12115        3.72992        7.00104
H         -0.28938        5.24432        6.60902
H         -1.41242        4.52168        5.44304
H         -9.00253       -4.68304        0.93554
H         -6.38635       -5.90501        4.43010
H         -7.82847       -6.19698        5.38568
H         -6.25694       -3.55003        5.30491
H         -6.19105       -4.75930        6.60322
H         -7.67713       -3.84526        6.30724
H         -7.29778        0.10824        2.76268
H        -12.20565       -3.17372       -5.08708
H        -16.96048       -8.66689      -10.01511
H        -14.42781       -7.19704       -3.37942
H        -13.37164       -6.01252       -9.27147
H        -13.78244       -4.82062      -11.58430
H        -16.57196      -11.29750       -4.89360
H        -16.90859      -12.05168       -2.41472
H        -16.03226       -3.75418      -12.87464
H        -17.58404       -4.44817      -12.43080
H        -15.37664       -5.89609      -13.99625
H        -16.89186       -5.25316      -14.64487
H        -16.92210       -6.62210      -13.52288
H        -17.34112      -10.80766        0.01564
H        -17.03217       -9.07636        0.09385
H        -14.88362      -11.25334       -0.21758
H        -15.24370      -10.33406        1.25214
H        -14.55961       -9.51476       -0.16246
H        -23.58240      -12.49270      -12.86025
H        -25.58272      -13.52164       -8.56033
H        -25.90102      -11.85262       -8.99407
H        -23.51579      -12.76631       -7.28746
H        -24.99351      -11.99247       -6.69267
H        -23.87073      -11.09965       -7.73818
H        -20.41340      -11.52141       -8.26320
H        -19.53679      -13.79579      -18.86073
H        -22.13164      -18.52658      -25.78303
H        -23.69764      -16.42001      -18.99098
H        -21.64935      -16.14696      -26.03278
H        -19.26427      -15.95229      -27.10013
H        -25.84376      -19.91109      -21.61542
H        -27.99509      -19.85024      -20.12711
H        -16.52507      -15.69948      -24.43384
H        -16.81693      -15.43368      -26.14287
H        -16.33960      -18.17746      -24.86431
H        -15.18054      -17.24148      -25.82285
H        -16.64125      -17.89002      -26.58692
H        -29.40461      -17.90411      -18.75174
H        -28.56278      -16.39402      -18.42461
H        -27.92696      -19.10602      -17.12722
H        -28.74378      -17.73391      -16.36058
H        -27.03558      -17.60924      -16.81707
H        -23.11847      -18.93920      -32.06673
H        -28.42083      -16.01679      -30.95357
H        -26.82203      -15.27993      -31.07020
H        -28.02995      -16.67033      -28.59744
H        -27.80553      -14.91993      -28.79855
H        -26.40178      -16.00385      -28.65252
H        -26.75994      -19.56056      -26.69542
H        -22.93941      -24.87927      -35.89666
H        -21.30119      -25.61718      -33.91754
