206
PTFB-O.sdf
C         -5.76869        3.89182        5.29729
C         -4.41909        3.52418        5.39597
C         -3.41603        4.18524        4.67712
C         -3.70633        5.24976        3.81335
C         -5.05670        5.61989        3.70166
C         -6.06942        4.95353        4.42868
C         -6.79188        3.22093        6.13559
C         -2.62248        5.97390        3.10518
F         -4.04969        2.51651        6.20482
F         -2.14810        3.77325        4.84629
S         -2.83498        6.61671        1.51839
C         -0.55466        6.95533        2.60127
C         -1.33633        6.22726        3.54641
C         -6.64007        2.71001        7.41228
C         -7.83197        2.12908        7.93404
C         -8.90951        2.22450        7.07154
S         -8.39926        2.94226        5.58942
C        -10.27735        1.79645        7.35452
S        -10.55237        0.40505        8.35888
C        -12.24720        0.61590        8.40612
C        -12.59751        1.69357        7.61241
C        -11.48857        2.38056        6.99361
C        -11.71051        3.61538        6.15644
C        -11.99862        3.29815        4.69534
C        -13.13594       -0.20134        9.25070
C        -13.00540       -1.60216        9.46723
C        -13.98448       -2.34268       10.30168
C        -15.08559       -1.74171       10.95463
C        -15.18839       -0.36737       10.71711
C        -14.26599        0.35665        9.91220
N        -12.10248       -2.51113        9.02666
N        -12.52976       -3.66228        9.57580
N        -13.64059       -3.63729       10.29915
C        -11.90716       -4.94979        9.32447
F        -14.49010        1.67879        9.79511
F        -16.18886        0.32755       11.28472
C        -15.94628       -2.58487       11.78668
C        -15.56118       -3.65716       12.57511
C        -16.64855       -4.41105       13.10996
C        -17.84804       -3.80705       12.79146
S        -17.64702       -2.40562       11.82268
C        -16.46792       -5.68114       13.88744
C          3.49195       17.38670      -11.64656
C          3.49780       17.58580      -13.03329
C          4.33642       18.52284      -13.63017
C          5.20810       19.31890      -12.87519
C          5.22374       19.12943      -11.48669
C          4.37983       18.16520      -10.88355
C          2.60300       16.38919      -11.03198
C          6.09097       20.30064      -13.52970
F          2.68382       16.86904      -13.82353
F          4.28124       18.65048      -14.96742
S          6.48945       21.78998      -12.77114
C          7.42472       21.39719      -15.10651
C          6.68160       20.22604      -14.77589
C          2.12401       15.20157      -11.55330
C          1.26781       14.50181      -10.65297
C          1.13691       15.14521       -9.43774
S          1.98157       16.63199       -9.45641
C          0.48824       14.65082       -8.24335
S          0.55078       12.95494       -7.91114
C         -0.12891       13.13295       -6.36617
C         -0.48034       14.45610       -6.15320
C         -0.18011       15.34011       -7.23761
C         -0.56269       16.79843       -7.19450
C          0.41829       17.66263       -6.41254
C         -0.27365       12.01194       -5.43281
C         -1.31760       12.05742       -4.49195
C         -1.38222       11.23706       -3.24996
C         -0.43030       10.18848       -3.02096
C          0.51406       10.08559       -4.09251
C          0.61314       10.96183       -5.20716
N         -2.39062       12.85062       -4.53761
N         -2.88129       12.75351       -3.31425
N         -2.38918       11.77919       -2.50980
C         -3.66287       13.89389       -2.86695
F          1.65392       10.78258       -6.03778
F          1.43437        9.10518       -4.05639
C         -0.31637        9.30752       -1.82574
C          0.81382        8.61395       -1.40139
C          0.63126        7.75857       -0.25646
C         -0.67280        7.86953        0.22731
S         -1.61234        8.93763       -0.76608
C          1.73128        6.90098        0.34652
C         -1.22456        7.21960        1.41758
C         13.83609       38.04104      -11.91040
C         13.76433       39.37068      -12.33809
C         14.80586       40.26235      -12.10258
C         15.96449       39.86813      -11.42357
C         16.03811       38.53702      -10.98320
C         14.99080       37.63663      -11.22294
C         12.73995       37.11385      -12.21689
C         17.07359       40.81677      -11.22017
F         12.68262       39.82026      -12.99579
F         14.66822       41.52208      -12.54717
S         18.04450       40.75128       -9.80236
C         19.00716       42.07008      -10.30416
C         18.59927       42.57320      -11.51653
C         17.48772       41.85322      -12.04131
C         11.90344       37.11444      -13.31652
C         10.92441       36.08800      -13.26217
C         11.06518       35.27947      -12.15104
S         12.33594       35.83770      -11.15159
C         10.36651       34.04755      -11.88161
S          9.92395       33.06165      -13.23463
C          9.51235       31.74401      -12.25588
C          9.55890       32.11466      -10.92265
C         10.01960       33.44860      -10.67667
C         10.15415       33.96000       -9.26130
C          9.32468       35.19368       -8.94100
C          9.18879       30.42683      -12.80516
C          8.33827       29.59253      -12.06243
C          8.19286       28.12954      -12.25956
C          8.81921       27.48380      -13.37335
C          9.56647       28.39934      -14.17502
C          9.77015       29.77781      -13.89210
N          7.55420       29.96812      -11.05341
N          7.19406       28.82052      -10.50793
N          7.48569       27.68349      -11.18352
C          6.82990       28.89789       -9.10068
F         10.61040       30.44944      -14.69416
F         10.17666       27.94656      -15.28442
C          8.77961       26.03881      -13.70398
C          9.68197       25.32274      -14.48233
C          9.34619       23.93979      -14.71491
C          8.14539       23.62257      -14.07891
S          7.51028       24.99617      -13.23280
C         10.17207       22.99770      -15.57362
C          7.43812       22.34372      -14.09544
C        -11.58258       -5.71748       10.60432
C        -16.46684       -6.91490       12.99407
C          2.76612        6.34040       -0.61942
C         -5.14039       13.77788       -3.19171
C         11.66706       23.27407      -15.64551
C          5.61962       29.79624       -8.86214
H         -5.34541        6.45704        3.06720
H         -7.09356        5.30755        4.32036
H          0.47193        7.24373        2.79034
H         -0.95963        5.90883        4.51243
H         -5.71002        2.75423        7.96659
H         -7.89424        1.68994        8.92240
H        -13.62429        2.02687        7.50186
H        -10.86359        4.30373        6.23509
H        -12.56796        4.16685        6.56423
H        -11.14281        2.82299        4.20699
H        -12.23015        4.21804        4.14828
H        -12.85394        2.62146        4.59531
H        -11.00609       -4.79100        8.72905
H        -12.62605       -5.52507        8.72770
H        -14.52460       -3.94927       12.70170
H        -18.84304       -4.13126       13.06465
H        -17.25546       -5.77327       14.64324
H        -15.51406       -5.63960       14.42889
H          5.88472       19.69139      -10.84951
H          4.43609       18.05581       -9.80079
H          7.93052       21.51296      -16.05595
H          6.57607       19.37423      -15.43905
H          2.38256       14.83113      -12.53788
H          0.81035       13.54591      -10.87948
H         -0.94596       14.80386       -5.23801
H         -1.54946       16.89108       -6.71999
H         -0.69118       17.19014       -8.20912
H          0.34569       17.46549       -5.33786
H          0.19672       18.72308       -6.57368
H          1.45595       17.48404       -6.70531
H         -3.26997       14.76917       -3.41055
H         -3.47064       14.06688       -1.80702
H          1.76857        8.68979       -1.90859
H          1.28783        6.03629        0.85282
H          2.25040        7.49492        1.10898
H         16.92114       38.16906      -10.46323
H         15.10735       36.61011      -10.87730
H         19.82484       42.41194       -9.68583
H         19.07145       43.41604      -12.00538
H         17.01374       42.09017      -12.98704
H         11.98473       37.81811      -14.13688
H         10.18955       35.92603      -14.04122
H          9.31042       31.43660      -10.11402
H         11.20732       34.13315       -9.01902
H          9.82924       33.16500       -8.57387
H          9.77354       36.09979       -9.35758
H          9.26700       35.32921       -7.85462
H          8.30309       35.11001       -9.32531
H          7.69624       29.34638       -8.59079
H          6.68315       27.89219       -8.70620
H         10.56777       25.77792      -14.90936
H          9.76503       23.01517      -16.59308
H         10.06806       21.97391      -15.19775
H        -10.84225       -5.18286       11.20768
H        -11.18077       -6.70696       10.36407
H        -12.47081       -5.86852       11.23004
H        -17.42023       -7.02321       12.46648
H        -16.30502       -7.81702       13.59313
H        -15.67170       -6.86359       12.24139
H          2.29740        5.74896       -1.41178
H          3.45889        5.68471       -0.07750
H          3.36393        7.13159       -1.08126
H         -5.30539       13.61872       -4.26495
H         -5.65955       14.69974       -2.91145
H         -5.59852       12.94519       -2.65390
H         11.88385       24.25703      -16.07344
H         12.15202       22.52606      -16.28444
H         12.12746       23.21548      -14.65445
H          5.80141       30.82292       -9.20964
H          5.38243       29.85717       -7.79622
H          4.74175       29.42366       -9.39856
