86
PTQ10.sdf
C          6.01272        3.90738        4.33202
C          4.89469        4.77808        4.17440
C          4.36238        4.76656        2.89325
S          5.28600        3.70949        1.88792
C          6.30739        3.23827        3.16909
C          3.21212        5.53094        2.33898
C          2.37185        4.95030        1.38298
C          1.32767        5.65802        0.80996
C          1.02662        6.96320        1.20274
C          1.78844        7.53317        2.24329
C          2.92095        6.84018        2.77615
N          1.44441        8.73999        2.74749
C          2.22366        9.31036        3.68077
C          3.35959        8.68889        4.12616
N          3.70521        7.45249        3.70167
F          2.53976        3.67805        0.98880
F          0.61446        5.04581       -0.14930
O          1.90303       10.55559        4.17030
C          0.50588       10.83857        4.03823
C          0.23965       12.23974        4.55590
C         -1.20321        7.18417       -0.11253
C         -1.97568        8.18242       -0.78064
C         -1.45213        9.45798       -0.65986
S          0.02972        9.37755        0.20277
C         -0.06299        7.68758        0.48830
C         -1.99167       10.76241       -1.13387
C         -1.13428       11.81265       -1.48315
C         -1.61857       13.05796       -1.85635
C         -2.98709       13.30928       -1.95907
C         -3.87245       12.23612       -1.72663
C         -3.38347       10.97849       -1.25025
N         -5.19728       12.39321       -1.95624
C         -6.04141       11.39770       -1.64602
C         -5.58521       10.23014       -1.09494
N         -4.26566       10.00481       -0.91416
F          0.19974       11.65814       -1.47413
F         -0.72006       14.02366       -2.10372
O         -7.39421       11.56354       -1.83829
C         -7.67119       12.53717       -2.85204
C         -9.17370       12.70126       -2.97160
C         -2.80137       15.68078       -3.01048
C         -3.51633       16.91792       -3.03021
C         -4.71508       16.86949       -2.34158
S         -4.88873       15.32725       -1.61522
C         -3.43722       14.69287       -2.27865
C         -5.77361       17.90614       -2.19386
C         -6.56610       17.97211       -1.03208
C         -7.57201       18.91560       -0.89941
C         -7.81129       19.83094       -1.90294
C         -7.05052       19.81357       -3.05245
C         -6.01220       18.85006       -3.22441
N         -7.34509       20.74069       -3.97640
C         -6.60676       20.73886       -5.10146
C         -5.59103       19.82994       -5.29403
N         -5.29315       18.87712       -4.37686
F         -6.36701       17.14088        0.00229
F         -8.32099       18.94989        0.21083
O         -6.83150       21.68988       -6.07124
C         -8.14314       22.25403       -5.98246
C         -8.27185       23.34867       -7.02533
H          6.56675        3.77813        5.25343
H          4.50454        5.39281        4.97701
H          7.08735        2.50805        3.00287
H          4.01639        9.15128        4.85272
H         -0.06967       10.11738        4.63146
H          0.18444       10.79780        2.99229
H          0.62038       12.36150        5.57391
H         -0.83346       12.45431        4.54739
H          0.74740       12.97996        3.92883
H         -1.48041        6.13673       -0.09762
H         -2.89509        7.95913       -1.30880
H         -6.25718        9.43397       -0.80275
H         -7.26460       12.19022       -3.80898
H         -7.24317       13.51279       -2.59910
H         -9.66189       11.73646       -3.13876
H         -9.42016       13.37464       -3.79722
H         -9.58567       13.11745       -2.04682
H         -1.84960       15.54360       -3.50974
H         -3.16076       17.79856       -3.55194
H         -8.59853       20.56827       -1.77755
H         -4.98913       19.83264       -6.19474
H         -8.32426       22.69757       -4.99626
H         -8.88775       21.47358       -6.18131
H         -7.55236       24.15046       -6.82898
H         -9.28021       23.77281       -7.01463
H         -8.05884       22.96252       -8.02696
