176
PTQ2.sdf
C          2.37830        1.14887        5.64939
C          2.67805        1.44326        7.00859
C          3.85579        2.15793        7.28749
C          4.78652        2.45286        6.26759
C          4.50140        2.12073        4.92418
C          3.28273        1.49887        4.63209
C          1.99520        1.10348        8.23595
C          2.54082        1.67642        9.35349
S          3.88786        2.61426        8.96711
C          1.11525        0.44681        5.30191
C          6.07009        3.15177        6.57152
C          0.86637       -0.55903        4.37446
C         -0.45608       -1.05206        4.45039
C         -1.19571       -0.46879        5.44411
S         -0.38430        0.91332        6.03468
C          6.72696        4.15681        5.87086
C          7.87758        4.62961        6.54490
C          8.06915        4.04732        7.76924
S          7.04174        2.69225        7.93157
C         -2.51702       -0.88646        6.00156
C         -2.34202       -2.02281        7.00638
C          9.00656        4.44379        8.86449
C          8.43118        5.59772        9.68217
F         -0.88774       -2.04249        3.71719
F          8.62324        5.59785        6.08499
C          5.26832        2.29645        3.71930
C          4.61866        1.93357        2.56029
S          3.11681        1.26453        2.93184
C          5.14255        1.99504        1.21810
S          6.84493        1.92994        1.04172
C          5.46437        1.95795       -1.09289
C          4.51400        2.03924       -0.02200
C          3.08163        2.10159       -0.24942
O          2.30887        2.79378        0.39471
O          2.71827        1.22844       -1.23279
C          1.36787        0.72952       -1.13185
C          1.43871       -0.59843       -0.39866
C         11.56103        1.09120       -1.91132
C         10.20677        1.46714       -1.96640
C          9.72360        2.08156       -3.12961
C         10.57397        2.33762       -4.21272
C         11.95326        2.05629       -4.11247
C         12.41931        1.38312       -2.97776
C          9.15572        1.28375       -1.01715
C          7.95638        1.81171       -1.41946
S          8.03711        2.40006       -2.99668
C         12.05164        0.37006       -0.71649
C         10.02318        2.84587       -5.49129
C         11.89035        0.65496        0.63211
C         12.48954       -0.32452        1.46234
C         13.14605       -1.30759        0.77008
S         12.88713       -1.12609       -0.90493
C          9.08602        3.83567       -5.75116
C          8.86390        4.01693       -7.13680
C          9.65687        3.22937       -7.92887
S         10.46908        2.07073       -6.97739
C         13.94416       -2.46501        1.27461
C         13.16148       -3.76183        1.13733
C          9.84166        3.26524       -9.41014
C         10.79625        4.38034       -9.81920
F         12.42148       -0.28886        2.76610
F          8.02888        4.90100       -7.61227
C          6.76112        1.88808       -0.64885
C         13.03891        2.34754       -5.00065
C         14.21777        1.75473       -4.63136
S         14.08060        0.97918       -3.14867
C         15.42106        1.71587       -5.39413
S         15.28206        1.43216       -7.06858
C         17.61885        1.76153       -6.11512
C         16.73587        1.83352       -4.98591
C         17.16945        2.10167       -3.62352
O         16.53681        2.78008       -2.82448
O         18.42077        1.61073       -3.39097
C         19.06621        2.18799       -2.25228
C         19.63672        3.53097       -2.67116
C         17.27451        2.29472      -12.31783
C         17.59525        1.98616      -10.97538
C         18.90874        1.64296      -10.66082
C         19.88264        1.50060      -11.66406
C         19.54935        1.73665      -13.01781
C         18.27129        2.22687      -13.31128
C         16.77932        1.94476       -9.79721
C         17.47694        1.69479       -8.64007
S         19.11973        1.48965       -8.95338
C         15.89104        2.72804      -12.64218
C         21.26264        1.11815      -11.29220
C         15.02876        3.56815      -11.94701
C         13.82856        3.81571      -12.65238
C         13.78291        3.21890      -13.88342
S         15.06802        2.10509      -14.03605
C         21.71825        0.16437      -10.39106
C         23.12897        0.11182      -10.33082
C         23.74585        0.95762      -11.21524
S         22.60236        1.99902      -11.93450
C         12.81092        3.44262      -14.99709
C         13.17733        4.69808      -15.78452
C         25.19208        1.05298      -11.57432
C         25.56818       -0.00602      -12.60448
F         12.90134        4.62191      -12.21326
F         23.77721       -0.71172       -9.55223
C         16.94822        1.64457       -7.31275
C         20.28921        1.51448      -14.23460
C         19.66750        1.98171      -15.36759
S         18.20840        2.74340      -14.96164
C         20.14379        1.89297      -16.72682
S         19.04535        1.49478      -17.99683
C         20.27087        1.51153      -19.17346
C         21.49892        1.78240      -18.62358
C         21.44173        2.02735      -17.20409
C         22.59966        2.42229      -16.40840
O         22.54933        3.15716      -15.43181
O         23.75638        1.94337      -16.95339
C         24.94466        2.64164      -16.57083
C         25.10634        3.81719      -17.51811
H          1.11396        0.48102        8.30163
H          2.19261        1.59764       10.37341
H          1.60331       -0.97725        3.70286
H          6.38360        4.57950        4.93623
H         -3.17312       -1.21797        5.18982
H         -3.01647       -0.04571        6.49577
H         -1.88812       -2.90392        6.53799
H         -3.31086       -2.32081        7.41828
H         -1.69675       -1.72312        7.84031
H          9.96912        4.74747        8.43800
H          9.20658        3.59882        9.53350
H          8.26817        6.48528        9.06033
H          9.11671        5.87324       10.48974
H          7.46908        5.32801       10.13266
H          6.27295        2.69944        3.70437
H          5.18528        1.95446       -2.14186
H          0.99096        0.58653       -2.14691
H          0.70001        1.42731       -0.61893
H          2.08526       -1.29704       -0.94138
H          0.44789       -1.04211       -0.28610
H          1.88463       -0.47414        0.59330
H          9.28701        0.80142       -0.05719
H         11.35192        1.51311        1.01304
H          8.58547        4.42321       -4.99348
H         14.21620       -2.30706        2.32491
H         14.88798       -2.54229        0.71849
H         12.22489       -3.71099        1.70222
H         13.74830       -4.60624        1.50686
H         12.90695       -3.96357        0.09062
H          8.87284        3.41739       -9.89794
H         10.23588        2.31040       -9.77795
H         10.43310        5.36202       -9.49562
H         10.89586        4.40157      -10.90767
H         11.79322        4.23409       -9.38709
H         12.94059        2.91838       -5.91593
H         18.69279        1.88792       -6.03521
H         19.86998        1.51102       -1.94890
H         18.38044        2.27936       -1.40134
H         20.33947        3.39647       -3.50048
H         20.14726        4.02076       -1.84081
H         18.84817        4.19572       -3.04129
H         15.71233        2.12517       -9.80116
H         15.25784        4.03443      -10.99854
H         21.07824       -0.47655       -9.79876
H         11.79898        3.55317      -14.59068
H         12.78867        2.58475      -15.67902
H         13.16481        5.58755      -15.14400
H         12.46729        4.86020      -16.60119
H         14.18082        4.61746      -16.21820
H         25.80587        0.92483      -10.67588
H         25.42539        2.04476      -11.97966
H         25.40457       -1.01649      -12.21343
H         26.62415        0.08611      -12.87504
H         24.97278        0.09663      -13.51914
H         21.25670        1.03129      -14.26309
H         20.03596        1.32315      -20.21161
H         22.40656        1.84589      -19.21247
H         25.78717        1.95020      -16.68144
H         24.91981        2.96247      -15.52274
H         25.18348        3.46105      -18.55146
H         25.99792        4.40071      -17.27642
H         24.22941        4.47314      -17.47959
