86
PTQ8.sdf
C          2.94136       -3.43746       -6.43269
C          2.04973       -4.40145       -5.93295
C          1.91059       -4.37192       -4.55629
S          2.87071       -3.07980       -3.91277
C          3.44786       -2.62193       -5.45774
C          1.10986       -5.24077       -3.65538
C          0.47828       -4.68602       -2.53314
C         -0.31852       -5.46741       -1.70405
C         -0.55424       -6.81993       -1.99139
C          0.07131       -7.39950       -3.12017
C          0.94372       -6.61157       -3.92958
N         -0.16373       -8.69114       -3.45913
C          0.46189       -9.20782       -4.53108
C          1.34971       -8.46732       -5.26414
N          1.60400       -7.17742       -4.96976
O          0.21419      -10.50237       -4.92199
C         -0.97702      -11.03727       -4.34103
C         -1.41673      -12.21173       -5.19454
F          3.24344       -3.31410       -7.69674
F          1.41547       -5.22870       -6.72121
C         -2.55150       -7.09915       -0.35336
C         -3.19451       -8.09034        0.41390
C         -2.64210       -9.34519        0.27842
S         -1.29765       -9.24081       -0.78952
C         -1.48067       -7.56148       -1.09113
C         -3.08583      -10.65011        0.83561
C         -4.46111      -10.84165        1.03399
C         -4.95560      -12.06060        1.48204
C         -4.09707      -13.14456        1.71467
C         -2.70578      -12.97489        1.52774
C         -2.19489      -11.70567        1.12739
N         -1.85106      -14.01283        1.70751
C         -0.53025      -13.80714        1.55991
C         -0.03740      -12.57573        1.22722
N         -0.85434      -11.52635        1.01459
O          0.36203      -14.83094        1.78310
C         -0.26353      -16.11449        1.74864
C          0.77526      -17.16438        2.09140
F         -2.95545       -5.85601       -0.36353
F         -4.23434       -7.83273        1.16298
C         -5.93638      -14.97084        1.77487
C         -6.18649      -16.23824        2.33541
C         -5.16001      -16.70818        3.12722
S         -3.93660      -15.50515        3.21223
C         -4.71191      -14.43509        2.12008
C         -5.00378      -18.02825        3.79578
C         -5.59524      -19.15450        3.18222
C         -5.46844      -20.42449        3.73190
C         -4.72765      -20.59089        4.89422
C         -4.11988      -19.51676        5.52235
C         -4.26828      -18.20465        4.99417
N         -3.39256      -19.77717        6.62477
C         -2.80445      -18.72506        7.22687
C         -2.96535      -17.44163        6.76107
N         -3.69393      -17.16915        5.65769
O         -2.05334      -18.90992        8.36586
C         -1.58091      -20.25178        8.49344
C         -0.84251      -20.36982        9.81337
F         -6.78814      -14.38078        0.97840
F         -7.27953      -16.90777        2.09641
H          4.12742       -1.79069       -5.57654
H          0.58314       -3.63034       -2.29050
H         -0.76942       -4.99429       -0.83291
H          1.85909       -8.87466       -6.12837
H         -1.78982      -10.30021       -4.33498
H         -0.77188      -11.37382       -3.31845
H         -1.54996      -11.89633       -6.23513
H         -2.35911      -12.62762       -4.82809
H         -0.65553      -12.99810       -5.19364
H         -5.17457      -10.04686        0.82163
H         -6.03031      -12.15762        1.62939
H          1.02235      -12.39503        1.09937
H         -0.65688      -16.30226        0.74228
H         -1.06912      -16.18578        2.48548
H          1.63943      -17.09307        1.42400
H          0.34610      -18.16755        2.01654
H          1.14259      -17.01578        3.11234
H         -6.15730      -19.05282        2.25521
H         -5.93428      -21.28235        3.25279
H         -4.61456      -21.58547        5.32066
H         -2.49990      -16.59277        7.24703
H         -0.89327      -20.47688        7.66918
H         -2.40883      -20.97017        8.49452
H         -0.03381      -19.63478        9.87644
H         -0.42287      -21.37263        9.93169
H         -1.52199      -20.17178       10.64906
