
     RDKit          3D

124136  0  0  0  0  0  0  0  0999 V2000
   -2.2601   -0.6805    8.3681 C   0  0  0  0  0  0  0  0  0  0  0  0
   -3.1239    0.2285    8.8718 C   0  0  0  0  0  0  0  0  0  0  0  0
   -4.5443    0.3960    8.5105 C   0  0  0  0  0  0  0  0  0  0  0  0
   -5.1817   -0.2254    7.6167 O   0  0  0  0  0  0  0  0  0  0  0  0
   -5.2157    1.0556    9.5926 C   0  0  0  0  0  0  0  0  0  0  0  0
   -6.4247    1.7572    9.5557 C   0  0  0  0  0  0  0  0  0  0  0  0
   -6.7621    2.5603   10.6654 C   0  0  0  0  0  0  0  0  0  0  0  0
   -7.8538    3.3527   10.5984 F   0  0  0  0  0  0  0  0  0  0  0  0
   -5.9443    2.5854   11.8141 C   0  0  0  0  0  0  0  0  0  0  0  0
   -6.2819    3.3517   12.8733 F   0  0  0  0  0  0  0  0  0  0  0  0
   -4.7043    1.9059   11.7935 C   0  0  0  0  0  0  0  0  0  0  0  0
   -4.3388    1.1987   10.6354 C   0  0  0  0  0  0  0  0  0  0  0  0
   -2.9480    0.8913   10.1776 C   0  0  0  0  0  0  0  0  0  0  0  0
   -1.9406    1.7997   10.3135 C   0  0  0  0  0  0  0  0  0  0  0  0
   -0.5911    1.5038    9.8861 C   0  0  0  0  0  0  0  0  0  0  0  0
    0.4917    1.2647    9.5538 N   0  0  0  0  0  0  0  0  0  0  0  0
   -2.2481    3.1889   10.6113 C   0  0  0  0  0  0  0  0  0  0  0  0
   -2.4983    4.3082   10.8098 N   0  0  0  0  0  0  0  0  0  0  0  0
   -2.4059   -1.4301    7.1032 C   0  0  0  0  0  0  0  0  0  0  0  0
   -2.9630   -0.8266    5.9525 C   0  0  0  0  0  0  0  0  0  0  0  0
   -2.8165   -1.4510    4.7102 C   0  0  0  0  0  0  0  0  0  0  0  0
   -3.1745   -0.8876    3.3498 C   0  0  0  0  0  0  0  0  0  0  0  0
   -2.4255    0.4546    3.0287 C   0  0  0  0  0  0  0  0  0  0  0  0
   -2.7641    1.6658    3.9020 C   0  0  0  0  0  0  0  0  0  0  0  0
   -4.7164   -0.7835    3.1578 C   0  0  0  0  0  0  0  0  0  0  0  0
   -5.4583   -2.1143    3.3011 C   0  0  0  0  0  0  0  0  0  0  0  0
   -2.5903   -1.9797    2.4739 C   0  0  0  0  0  0  0  0  0  0  0  0
   -2.0259   -3.0070    3.2113 C   0  0  0  0  0  0  0  0  0  0  0  0
   -2.1743   -2.6789    4.6172 C   0  0  0  0  0  0  0  0  0  0  0  0
   -1.6515   -3.3185    5.7384 C   0  0  0  0  0  0  0  0  0  0  0  0
   -1.7594   -2.6784    6.9795 C   0  0  0  0  0  0  0  0  0  0  0  0
   -1.2803   -4.0160    2.6062 C   0  0  0  0  0  0  0  0  0  0  0  0
   -0.9788   -3.9078    1.2441 C   0  0  0  0  0  0  0  0  0  0  0  0
   -1.4768   -2.8201    0.4950 C   0  0  0  0  0  0  0  0  0  0  0  0
   -2.3562   -1.9019    1.1014 C   0  0  0  0  0  0  0  0  0  0  0  0
   -0.8081   -2.4107   -0.7511 C   0  0  0  0  0  0  0  0  0  0  0  0
   -0.2839   -1.1340   -0.9434 C   0  0  0  0  0  0  0  0  0  0  0  0
    0.4171   -1.0026   -2.1475 C   0  0  0  0  0  0  0  0  0  0  0  0
    1.1329    0.1277   -2.5587 C   0  0  0  0  0  0  0  0  0  0  0  0
    1.3542    1.2677   -1.6529 C   0  0  0  0  0  0  0  0  0  0  0  0
    0.7710    2.5285   -1.7680 C   0  0  0  0  0  0  0  0  0  0  0  0
    1.2437    3.4393   -0.8099 C   0  0  0  0  0  0  0  0  0  0  0  0
    0.7968    4.7164   -0.7292 F   0  0  0  0  0  0  0  0  0  0  0  0
    2.2043    2.9089    0.0462 C   0  0  0  0  0  0  0  0  0  0  0  0
    2.8511    3.6055    1.1988 C   0  0  0  0  0  0  0  0  0  0  0  0
    2.1244    3.2601    2.4992 C   0  0  0  0  0  0  0  0  0  0  0  0
    2.4477    1.2944   -0.3741 S   0  0  0  0  0  0  0  0  0  0  0  0
    1.8216    0.0462   -3.7735 C   0  0  0  0  0  0  0  0  0  0  0  0
    1.8448   -1.1156   -4.5529 C   0  0  0  0  0  0  0  0  0  0  0  0
    1.1340   -2.2701   -4.1326 C   0  0  0  0  0  0  0  0  0  0  0  0
    1.2085   -3.5481   -4.8557 C   0  0  0  0  0  0  0  0  0  0  0  0
   -0.1078   -4.4773   -5.3688 S   0  0  0  0  0  0  0  0  0  0  0  0
    0.8059   -5.7304   -6.0239 C   0  0  0  0  0  0  0  0  0  0  0  0
    0.2657   -6.9091   -6.7610 C   0  0  0  0  0  0  0  0  0  0  0  0
   -0.1128   -6.5334   -8.1874 C   0  0  0  0  0  0  0  0  0  0  0  0
    2.1546   -5.4244   -5.8587 C   0  0  0  0  0  0  0  0  0  0  0  0
    2.3773   -4.2149   -5.1946 C   0  0  0  0  0  0  0  0  0  0  0  0
    3.1626   -6.2188   -6.2978 F   0  0  0  0  0  0  0  0  0  0  0  0
    0.4168   -2.1649   -2.9212 C   0  0  0  0  0  0  0  0  0  0  0  0
   -0.3972   -3.3805   -2.0717 S   0  0  0  0  0  0  0  0  0  0  0  0
    2.6909   -0.9922   -5.6745 C   0  0  0  0  0  0  0  0  0  0  0  0
    3.3201    0.2482   -5.7418 C   0  0  0  0  0  0  0  0  0  0  0  0
    2.8505    1.1907   -4.4324 S   0  0  0  0  0  0  0  0  0  0  0  0
    4.4739    0.5977   -6.5644 C   0  0  0  0  0  0  0  0  0  0  0  0
    5.7519    0.6857   -6.0228 C   0  0  0  0  0  0  0  0  0  0  0  0
    6.5805    1.5819   -6.6971 C   0  0  0  0  0  0  0  0  0  0  0  0
    7.8172    1.9283   -6.2359 F   0  0  0  0  0  0  0  0  0  0  0  0
    5.9808    2.1850   -7.7948 C   0  0  0  0  0  0  0  0  0  0  0  0
    4.4016    1.6180   -7.9104 S   0  0  0  0  0  0  0  0  0  0  0  0
    6.6181    3.2675   -8.5669 C   0  0  0  0  0  0  0  0  0  0  0  0
    6.2007    4.5605   -8.5681 C   0  0  0  0  0  0  0  0  0  0  0  0
    5.0272    5.0716   -7.8502 C   0  0  0  0  0  0  0  0  0  0  0  0
    4.1391    4.3924   -7.2718 O   0  0  0  0  0  0  0  0  0  0  0  0
    5.0397    6.5147   -7.9016 C   0  0  0  0  0  0  0  0  0  0  0  0
    4.0992    7.3935   -7.3699 C   0  0  0  0  0  0  0  0  0  0  0  0
    4.2909    8.7704   -7.5371 C   0  0  0  0  0  0  0  0  0  0  0  0
    3.3924    9.6438   -7.0198 F   0  0  0  0  0  0  0  0  0  0  0  0
    5.4280    9.2436   -8.2172 C   0  0  0  0  0  0  0  0  0  0  0  0
    5.6124   10.5782   -8.3747 F   0  0  0  0  0  0  0  0  0  0  0  0
    6.3577    8.3362   -8.7628 C   0  0  0  0  0  0  0  0  0  0  0  0
    6.1571    6.9544   -8.5930 C   0  0  0  0  0  0  0  0  0  0  0  0
    6.9509    5.7774   -9.0625 C   0  0  0  0  0  0  0  0  0  0  0  0
    8.1137    5.8131   -9.7742 C   0  0  0  0  0  0  0  0  0  0  0  0
    8.8296    7.0343  -10.0426 C   0  0  0  0  0  0  0  0  0  0  0  0
    9.4288    7.9959  -10.2718 N   0  0  0  0  0  0  0  0  0  0  0  0
    8.7335    4.6410  -10.3424 C   0  0  0  0  0  0  0  0  0  0  0  0
    9.2588    3.7176  -10.8096 N   0  0  0  0  0  0  0  0  0  0  0  0
   -1.3664   -0.8801    8.9543 H   0  0  0  0  0  0  0  0  0  0  0  0
   -6.9733    1.8355    8.6266 H   0  0  0  0  0  0  0  0  0  0  0  0
   -4.0849    1.8850   12.6728 H   0  0  0  0  0  0  0  0  0  0  0  0
   -3.4201    0.1465    6.0013 H   0  0  0  0  0  0  0  0  0  0  0  0
   -2.6423    0.7457    1.9853 H   0  0  0  0  0  0  0  0  0  0  0  0
   -1.3266    0.2917    3.0968 H   0  0  0  0  0  0  0  0  0  0  0  0
   -3.8577    1.7487    4.1092 H   0  0  0  0  0  0  0  0  0  0  0  0
   -2.4460    2.5976    3.3951 H   0  0  0  0  0  0  0  0  0  0  0  0
   -2.2072    1.6199    4.8655 H   0  0  0  0  0  0  0  0  0  0  0  0
   -5.1378   -0.0795    3.9106 H   0  0  0  0  0  0  0  0  0  0  0  0
   -4.9337   -0.3691    2.1617 H   0  0  0  0  0  0  0  0  0  0  0  0
   -5.3261   -2.5406    4.3050 H   0  0  0  0  0  0  0  0  0  0  0  0
   -5.1153   -2.8630    2.5402 H   0  0  0  0  0  0  0  0  0  0  0  0
   -6.5410   -1.9487    3.1495 H   0  0  0  0  0  0  0  0  0  0  0  0
   -1.1015   -4.2453    5.6335 H   0  0  0  0  0  0  0  0  0  0  0  0
   -1.2807   -3.1314    7.8365 H   0  0  0  0  0  0  0  0  0  0  0  0
   -0.8422   -4.8098    3.1961 H   0  0  0  0  0  0  0  0  0  0  0  0
   -0.2789   -4.6044    0.7875 H   0  0  0  0  0  0  0  0  0  0  0  0
   -2.7279   -1.0539    0.5325 H   0  0  0  0  0  0  0  0  0  0  0  0
   -0.3547   -0.3354   -0.2114 H   0  0  0  0  0  0  0  0  0  0  0  0
    0.0247    2.7774   -2.5131 H   0  0  0  0  0  0  0  0  0  0  0  0
    3.9086    3.3047    1.2737 H   0  0  0  0  0  0  0  0  0  0  0  0
    2.8190    4.6997    1.0377 H   0  0  0  0  0  0  0  0  0  0  0  0
    2.1574    2.1614    2.6794 H   0  0  0  0  0  0  0  0  0  0  0  0
    2.6209    3.7783    3.3411 H   0  0  0  0  0  0  0  0  0  0  0  0
    1.0711    3.5950    2.4405 H   0  0  0  0  0  0  0  0  0  0  0  0
    1.0362   -7.7238   -6.7923 H   0  0  0  0  0  0  0  0  0  0  0  0
   -0.6162   -7.3202   -6.2249 H   0  0  0  0  0  0  0  0  0  0  0  0
   -1.0921   -5.9937   -8.1832 H   0  0  0  0  0  0  0  0  0  0  0  0
    0.6414   -5.8474   -8.6248 H   0  0  0  0  0  0  0  0  0  0  0  0
   -0.1935   -7.4370   -8.8198 H   0  0  0  0  0  0  0  0  0  0  0  0
    3.3726   -3.8380   -4.9685 H   0  0  0  0  0  0  0  0  0  0  0  0
    2.8797   -1.7796   -6.3870 H   0  0  0  0  0  0  0  0  0  0  0  0
    6.0292    0.2382   -5.0793 H   0  0  0  0  0  0  0  0  0  0  0  0
    7.5952    3.0102   -8.9305 H   0  0  0  0  0  0  0  0  0  0  0  0
    3.2347    7.0230   -6.8349 H   0  0  0  0  0  0  0  0  0  0  0  0
    7.2037    8.7499   -9.2859 H   0  0  0  0  0  0  0  0  0  0  0  0
  1  2  2  3
  2  3  1  0
  3  4  2  0
  3  5  1  0
  5  6  2  0
  6  7  1  0
  7  8  1  0
  7  9  2  0
  9 10  1  0
  9 11  1  0
 11 12  2  0
 12 13  1  0
 13 14  2  3
 14 15  1  0
 15 16  3  0
 14 17  1  0
 17 18  3  0
  1 19  1  0
 19 20  2  0
 20 21  1  0
 21 22  1  0
 22 23  1  0
 23 24  1  0
 22 25  1  0
 25 26  1  0
 22 27  1  0
 27 28  2  0
 28 29  1  0
 29 30  1  0
 30 31  2  0
 28 32  1  0
 32 33  2  0
 33 34  1  0
 34 35  2  0
 34 36  1  0
 36 37  2  0
 37 38  1  0
 38 39  2  0
 39 40  1  0
 40 41  2  0
 41 42  1  0
 42 43  1  0
 42 44  2  0
 44 45  1  0
 45 46  1  0
 44 47  1  0
 39 48  1  0
 48 49  2  0
 49 50  1  0
 50 51  1  0
 51 52  1  0
 52 53  1  0
 53 54  1  0
 54 55  1  0
 53 56  2  0
 56 57  1  0
 56 58  1  0
 50 59  2  0
 59 60  1  0
 49 61  1  0
 61 62  2  0
 62 63  1  0
 62 64  1  0
 64 65  2  0
 65 66  1  0
 66 67  1  0
 66 68  2  0
 68 69  1  0
 68 70  1  0
 70 71  2  3
 71 72  1  0
 72 73  2  0
 72 74  1  0
 74 75  2  0
 75 76  1  0
 76 77  1  0
 76 78  2  0
 78 79  1  0
 78 80  1  0
 80 81  2  0
 81 82  1  0
 82 83  2  3
 83 84  1  0
 84 85  3  0
 83 86  1  0
 86 87  3  0
 13  2  1  0
 31 19  1  0
 60 36  1  0
 69 64  1  0
 82 71  1  0
 12  5  1  0
 29 21  2  0
 59 38  1  0
 81 74  1  0
 35 27  1  0
 47 40  1  0
 63 48  1  0
 57 51  2  0
  1 88  1  0
  6 89  1  0
 11 90  1  0
 20 91  1  0
 23 92  1  0
 23 93  1  0
 24 94  1  0
 24 95  1  0
 24 96  1  0
 25 97  1  0
 25 98  1  0
 26 99  1  0
 26100  1  0
 26101  1  0
 30102  1  0
 31103  1  0
 32104  1  0
 33105  1  0
 35106  1  0
 37107  1  0
 41108  1  0
 45109  1  0
 45110  1  0
 46111  1  0
 46112  1  0
 46113  1  0
 54114  1  0
 54115  1  0
 55116  1  0
 55117  1  0
 55118  1  0
 57119  1  0
 61120  1  0
 65121  1  0
 70122  1  0
 75123  1  0
 80124  1  0
M  END

