
     RDKit          3D

168185  0  0  0  0  0  0  0  0999 V2000
    6.5773    5.2830    3.4600 C   0  0  0  0  0  0  0  0  0  0  0  0
    6.1758    6.5468    3.7776 C   0  0  0  0  0  0  0  0  0  0  0  0
    6.7791    7.0337    4.9947 C   0  0  0  0  0  0  0  0  0  0  0  0
    7.6250    6.5812    5.7462 O   0  0  0  0  0  0  0  0  0  0  0  0
    6.0972    8.3555    5.1793 C   0  0  0  0  0  0  0  0  0  0  0  0
    6.2890    9.2703    6.2344 C   0  0  0  0  0  0  0  0  0  0  0  0
    5.5167   10.4329    6.2300 C   0  0  0  0  0  0  0  0  0  0  0  0
    5.6219   11.3933    7.1617 F   0  0  0  0  0  0  0  0  0  0  0  0
    4.6670   10.5641    5.2216 C   0  0  0  0  0  0  0  0  0  0  0  0
    3.8138   11.6752    5.1889 F   0  0  0  0  0  0  0  0  0  0  0  0
    4.4662    9.6994    4.1812 C   0  0  0  0  0  0  0  0  0  0  0  0
    5.2507    8.5307    4.2072 C   0  0  0  0  0  0  0  0  0  0  0  0
    5.2297    7.2193    3.0797 C   0  0  0  0  0  0  0  0  0  0  0  0
    4.6008    7.8494    2.1655 C   0  0  0  0  0  0  0  0  0  0  0  0
    3.1516    7.7169    3.4357 C   0  0  0  0  0  0  0  0  0  0  0  0
    2.1394    7.6431    4.3032 N   0  0  0  0  0  0  0  0  0  0  0  0
    3.7365    8.2279    1.4110 C   0  0  0  0  0  0  0  0  0  0  0  0
    2.7809    8.6254    0.5996 N   0  0  0  0  0  0  0  0  0  0  0  0
    6.2356    4.4030    2.3923 C   0  0  0  0  0  0  0  0  0  0  0  0
    4.7752    4.2696    2.1287 C   0  0  0  0  0  0  0  0  0  0  0  0
    4.4822    3.3293    1.2925 C   0  0  0  0  0  0  0  0  0  0  0  0
    3.1062    2.9693    1.0238 C   0  0  0  0  0  0  0  0  0  0  0  0
    2.0073    3.5878    1.7559 C   0  0  0  0  0  0  0  0  0  0  0  0
    1.7823    4.2478    2.8319 C   0  0  0  0  0  0  0  0  0  0  0  0
    0.6366    4.8393    3.2318 C   0  0  0  0  0  0  0  0  0  0  0  0
   -0.4544    4.7480    2.4281 C   0  0  0  0  0  0  0  0  0  0  0  0
   -2.1136    5.3625    2.5101 S   0  0  0  0  0  0  0  0  0  0  0  0
   -2.6909    5.8940    0.8790 C   0  0  0  0  0  0  0  0  0  0  0  0
   -2.8211    4.7438   -0.0663 C   0  0  0  0  0  0  0  0  0  0  0  0
    0.2569    3.7047    0.9468 Se  0  0  0  0  0  2  0  0  0  0  0  0
    2.8787    1.8851    0.2020 C   0  0  0  0  0  0  0  0  0  0  0  0
    3.8173    1.0748   -0.4012 C   0  0  0  0  0  0  0  0  0  0  0  0
    5.1268    1.4447   -0.1474 C   0  0  0  0  0  0  0  0  0  0  0  0
    6.3176    0.7766   -0.5957 C   0  0  0  0  0  0  0  0  0  0  0  0
    7.6411    1.2644   -0.5548 C   0  0  0  0  0  0  0  0  0  0  0  0
    8.6378    0.4530   -0.9121 C   0  0  0  0  0  0  0  0  0  0  0  0
    8.5442   -0.7802   -1.3163 C   0  0  0  0  0  0  0  0  0  0  0  0
    9.6647   -2.0872   -1.7889 S   0  0  0  0  0  0  0  0  0  0  0  0
   11.0135   -2.1834   -0.5360 C   0  0  0  0  0  0  0  0  0  0  0  0
   10.3292   -2.4012    0.8056 C   0  0  0  0  0  0  0  0  0  0  0  0
    6.5897   -0.9856   -1.2046 Se  0  0  0  0  0  2  0  0  0  0  0  0
    5.3551    2.5476    0.6831 C   0  0  0  0  0  0  0  0  0  0  0  0
    6.8084    3.2087    1.3817 S   0  0  0  0  0  0  0  0  0  0  0  0
    3.3336    0.0142   -1.1099 C   0  0  0  0  0  0  0  0  0  0  0  0
    2.0371   -0.1980   -1.1903 C   0  0  0  0  0  0  0  0  0  0  0  0
    1.4102    1.1619   -0.2281 S   0  0  0  0  0  0  0  0  0  0  0  0
    1.0532   -1.0957   -1.7872 C   0  0  0  0  0  0  0  0  0  0  0  0
    0.7071   -1.8376   -2.8329 C   0  0  0  0  0  0  0  0  0  0  0  0
    1.4554   -1.5002   -4.0699 N   0  0  0  0  0  0  0  0  0  0  0  0
    0.7908   -0.6024   -5.0199 C   0  0  0  0  0  0  0  0  0  0  0  0
    1.2701    0.6998   -5.1406 C   0  0  0  0  0  0  0  0  0  0  0  0
    0.7920    1.4982   -6.2040 C   0  0  0  0  0  0  0  0  0  0  0  0
   -0.0700    1.0861   -7.0768 C   0  0  0  0  0  0  0  0  0  0  0  0
   -0.6408    2.1287   -8.4364 S   0  0  0  0  0  0  0  0  0  0  0  0
   -2.0535    3.0671   -7.8773 C   0  0  0  0  0  0  0  0  0  0  0  0
   -0.6142   -0.2354   -7.0140 C   0  0  0  0  0  0  0  0  0  0  0  0
   -0.1038   -1.0063   -5.9304 C   0  0  0  0  0  0  0  0  0  0  0  0
    2.6925   -2.0159   -4.4568 C   0  0  0  0  0  0  0  0  0  0  0  0
    3.1135   -3.3283   -4.4748 C   0  0  0  0  0  0  0  0  0  0  0  0
    4.3663   -3.7159   -4.9439 C   0  0  0  0  0  0  0  0  0  0  0  0
    5.2916   -2.8223   -5.4261 C   0  0  0  0  0  0  0  0  0  0  0  0
    6.8765   -3.2303   -6.0747 S   0  0  0  0  0  0  0  0  0  0  0  0
    8.2740   -2.8945   -5.0113 C   0  0  0  0  0  0  0  0  0  0  0  0
    4.8889   -1.5067   -5.4075 C   0  0  0  0  0  0  0  0  0  0  0  0
    3.6595   -1.1121   -4.9485 C   0  0  0  0  0  0  0  0  0  0  0  0
   -0.4842   -2.5326   -2.8177 C   0  0  0  0  0  0  0  0  0  0  0  0
   -1.4284   -3.7247   -3.6591 S   0  0  0  0  0  0  0  0  0  0  0  0
   -2.7603   -3.9536   -2.6475 C   0  0  0  0  0  0  0  0  0  0  0  0
   -2.4996   -3.0796   -1.6103 C   0  0  0  0  0  0  0  0  0  0  0  0
   -3.3286   -2.6873   -0.5200 N   0  0  0  0  0  0  0  0  0  0  0  0
   -4.1730   -1.5228   -0.5643 C   0  0  0  0  0  0  0  0  0  0  0  0
   -5.4879   -1.5135   -0.1060 C   0  0  0  0  0  0  0  0  0  0  0  0
   -6.3073   -0.3961   -0.1267 C   0  0  0  0  0  0  0  0  0  0  0  0
   -5.8104    0.7905   -0.6315 C   0  0  0  0  0  0  0  0  0  0  0  0
   -6.9026    2.2089   -0.7923 S   0  0  0  0  0  0  0  0  0  0  0  0
   -7.3941    2.8869    0.7897 C   0  0  0  0  0  0  0  0  0  0  0  0
   -4.5423    0.8467   -1.0906 C   0  0  0  0  0  0  0  0  0  0  0  0
   -3.7544   -0.2837   -1.0507 C   0  0  0  0  0  0  0  0  0  0  0  0
   -3.3336   -3.3588    0.7158 C   0  0  0  0  0  0  0  0  0  0  0  0
   -3.5144   -4.5996    1.0578 C   0  0  0  0  0  0  0  0  0  0  0  0
   -3.2516   -5.1290    2.3545 C   0  0  0  0  0  0  0  0  0  0  0  0
   -2.7407   -4.2321    3.2980 C   0  0  0  0  0  0  0  0  0  0  0  0
   -2.2469   -4.8958    4.8975 S   0  0  0  0  0  0  0  0  0  0  0  0
   -1.2032   -3.7271    5.7705 C   0  0  0  0  0  0  0  0  0  0  0  0
   -2.5482   -2.9494    2.9730 C   0  0  0  0  0  0  0  0  0  0  0  0
   -2.8231   -2.4613    1.7156 C   0  0  0  0  0  0  0  0  0  0  0  0
   -1.2776   -2.3921   -1.7759 C   0  0  0  0  0  0  0  0  0  0  0  0
   -0.3671   -1.3625   -0.7656 S   0  0  0  0  0  0  0  0  0  0  0  0
   -3.8848   -4.8888   -2.5647 C   0  0  0  0  0  0  0  0  0  0  0  0
   -5.1951   -4.3777   -2.4520 C   0  0  0  0  0  0  0  0  0  0  0  0
   -6.2582   -5.0688   -2.0808 C   0  0  0  0  0  0  0  0  0  0  0  0
   -7.5088   -4.3823   -2.1312 N   0  0  0  0  0  0  0  0  0  0  0  0
   -7.1331   -2.9152   -2.6721 S   0  0  0  0  0  4  0  0  0  0  0  0
   -5.5425   -3.0316   -2.8537 N   0  0  0  0  0  0  0  0  0  0  0  0
   -6.0951   -6.5068   -1.7935 C   0  0  0  0  0  0  0  0  0  0  0  0
   -4.8363   -6.9945   -1.9420 C   0  0  0  0  0  0  0  0  0  0  0  0
   -4.6181   -8.3540   -1.7491 N   0  0  0  0  0  0  0  0  0  0  0  0
   -2.9897   -8.5265   -2.0414 S   0  0  0  0  0  0  0  0  0  0  0  0
   -2.6080   -6.9322   -2.3910 N   0  0  0  0  0  0  0  0  0  0  0  0
   -3.7867   -6.2832   -2.2719 C   0  0  0  0  0  0  0  0  0  0  0  0
   -7.3563   -7.0940   -1.4581 C   0  0  0  0  0  0  0  0  0  0  0  0
   -8.2211   -6.7419   -0.4550 C   0  0  0  0  0  0  0  0  0  0  0  0
   -9.5415   -7.5973   -0.5333 C   0  0  0  0  0  0  0  0  0  0  0  0
   -9.8455   -8.5666   -1.0747 O   0  0  0  0  0  0  0  0  0  0  0  0
  -10.3233   -6.6200    0.4211 C   0  0  0  0  0  0  0  0  0  0  0  0
  -11.8479   -6.9671    0.5100 C   0  0  0  0  0  0  0  0  0  0  0  0
  -12.2474   -5.7607    1.2181 C   0  0  0  0  0  0  0  0  0  0  0  0
  -13.6957   -5.7975    1.3340 F   0  0  0  0  0  0  0  0  0  0  0  0
  -11.6991   -4.7557    1.6653 C   0  0  0  0  0  0  0  0  0  0  0  0
  -12.1727   -3.6863    2.4244 F   0  0  0  0  0  0  0  0  0  0  0  0
  -10.2544   -4.6559    1.5027 C   0  0  0  0  0  0  0  0  0  0  0  0
   -9.7379   -5.8332    0.7595 C   0  0  0  0  0  0  0  0  0  0  0  0
   -8.0441   -5.5783    0.3323 C   0  0  0  0  0  0  0  0  0  0  0  0
   -7.6822   -4.9890    1.4062 C   0  0  0  0  0  0  0  0  0  0  0  0
   -7.4420   -6.6549    1.8882 C   0  0  0  0  0  0  0  0  0  0  0  0
   -7.2306   -8.1178    2.2860 N   0  0  0  0  0  0  0  0  0  0  0  0
   -7.2371   -4.7590    2.8793 C   0  0  0  0  0  0  0  0  0  0  0  0
   -6.9176   -4.5965    3.8779 N   0  0  0  0  0  0  0  0  0  0  0  0
    7.2831    4.8103    4.1707 H   0  0  0  0  0  0  0  0  0  0  0  0
    6.9686    9.0360    6.9910 H   0  0  0  0  0  0  0  0  0  0  0  0
    3.7762    9.9183    3.3997 H   0  0  0  0  0  0  0  0  0  0  0  0
    4.2446    5.0278    2.6740 H   0  0  0  0  0  0  0  0  0  0  0  0
    2.6392    4.3635    3.6273 H   0  0  0  0  0  0  0  0  0  0  0  0
    0.4870    5.3978    4.1756 H   0  0  0  0  0  0  0  0  0  0  0  0
   -3.5994    6.4744    1.0169 H   0  0  0  0  0  0  0  0  0  0  0  0
   -1.8440    6.5660    0.4901 H   0  0  0  0  0  0  0  0  0  0  0  0
   -3.9028    4.6262   -0.4079 H   0  0  0  0  0  0  0  0  0  0  0  0
   -2.5189    3.7631    0.2986 H   0  0  0  0  0  0  0  0  0  0  0  0
   -2.2217    4.9272   -1.0165 H   0  0  0  0  0  0  0  0  0  0  0  0
    7.8232    2.3256   -0.2695 H   0  0  0  0  0  0  0  0  0  0  0  0
    9.7210    0.8635   -0.8452 H   0  0  0  0  0  0  0  0  0  0  0  0
   11.5816   -3.0994   -0.7703 H   0  0  0  0  0  0  0  0  0  0  0  0
   11.6720   -1.3457   -0.5928 H   0  0  0  0  0  0  0  0  0  0  0  0
    9.2758   -1.9765    0.7141 H   0  0  0  0  0  0  0  0  0  0  0  0
   10.2347   -3.4501    1.0558 H   0  0  0  0  0  0  0  0  0  0  0  0
   10.7814   -1.8250    1.6084 H   0  0  0  0  0  0  0  0  0  0  0  0
    4.0538   -0.7354   -1.5606 H   0  0  0  0  0  0  0  0  0  0  0  0
    1.9257    1.1009   -4.4131 H   0  0  0  0  0  0  0  0  0  0  0  0
    1.2475    2.5161   -6.1956 H   0  0  0  0  0  0  0  0  0  0  0  0
   -2.5504    2.6588   -6.9800 H   0  0  0  0  0  0  0  0  0  0  0  0
   -2.8488    3.0072   -8.6837 H   0  0  0  0  0  0  0  0  0  0  0  0
   -1.8207    4.1513   -7.7412 H   0  0  0  0  0  0  0  0  0  0  0  0
   -1.3028   -0.6338   -7.6619 H   0  0  0  0  0  0  0  0  0  0  0  0
   -0.4760   -2.0405   -5.9059 H   0  0  0  0  0  0  0  0  0  0  0  0
    2.4249   -4.0832   -4.1120 H   0  0  0  0  0  0  0  0  0  0  0  0
    4.6172   -4.7640   -4.9385 H   0  0  0  0  0  0  0  0  0  0  0  0
    8.2664   -1.8147   -4.6875 H   0  0  0  0  0  0  0  0  0  0  0  0
    8.3543   -3.5323   -4.1253 H   0  0  0  0  0  0  0  0  0  0  0  0
    9.1963   -3.0137   -5.6634 H   0  0  0  0  0  0  0  0  0  0  0  0
    5.5773   -0.7427   -5.7581 H   0  0  0  0  0  0  0  0  0  0  0  0
    3.4264   -0.0708   -4.9240 H   0  0  0  0  0  0  0  0  0  0  0  0
   -5.9317   -2.4229    0.2803 H   0  0  0  0  0  0  0  0  0  0  0  0
   -7.3022   -0.3842    0.2507 H   0  0  0  0  0  0  0  0  0  0  0  0
   -6.6753    3.5891    1.1793 H   0  0  0  0  0  0  0  0  0  0  0  0
   -8.3679    3.4355    0.6096 H   0  0  0  0  0  0  0  0  0  0  0  0
   -7.6784    2.0733    1.5070 H   0  0  0  0  0  0  0  0  0  0  0  0
   -4.0951    1.7586   -1.5008 H   0  0  0  0  0  0  0  0  0  0  0  0
   -2.7566   -0.2101   -1.4115 H   0  0  0  0  0  0  0  0  0  0  0  0
   -3.8917   -5.3267    0.3316 H   0  0  0  0  0  0  0  0  0  0  0  0
   -3.4659   -6.1446    2.5516 H   0  0  0  0  0  0  0  0  0  0  0  0
   -1.7435   -2.9774    6.3532 H   0  0  0  0  0  0  0  0  0  0  0  0
   -0.5562   -4.2721    6.5226 H   0  0  0  0  0  0  0  0  0  0  0  0
   -0.4705   -3.2356    5.0705 H   0  0  0  0  0  0  0  0  0  0  0  0
   -2.1606   -2.2251    3.7088 H   0  0  0  0  0  0  0  0  0  0  0  0
   -2.6251   -1.4418    1.4663 H   0  0  0  0  0  0  0  0  0  0  0  0
   -7.6519   -8.0003   -1.9892 H   0  0  0  0  0  0  0  0  0  0  0  0
  -12.2208   -7.7563    0.1791 H   0  0  0  0  0  0  0  0  0  0  0  0
   -9.7913   -3.8616    1.8914 H   0  0  0  0  0  0  0  0  0  0  0  0
  1  2  2  3
  2  3  1  0
  3  4  2  0
  3  5  1  0
  5  6  2  0
  6  7  1  0
  7  8  1  0
  7  9  2  0
  9 10  1  0
  9 11  1  0
 11 12  2  0
 12 13  1  0
 13 14  2  3
 14 15  1  0
 15 16  3  0
 14 17  1  0
 17 18  3  0
  1 19  1  0
 19 20  2  0
 20 21  1  0
 21 22  2  0
 22 23  1  0
 23 24  2  0
 24 25  1  0
 25 26  2  0
 26 27  1  0
 27 28  1  0
 28 29  1  0
 26 30  1  0
 22 31  1  0
 31 32  2  0
 32 33  1  0
 33 34  1  0
 34 35  2  0
 35 36  1  0
 36 37  2  0
 37 38  1  0
 38 39  1  0
 39 40  1  0
 37 41  1  0
 33 42  2  0
 42 43  1  0
 32 44  1  0
 44 45  2  0
 45 46  1  0
 45 47  1  0
 47 48  2  0
 48 49  1  0
 49 50  1  0
 50 51  2  0
 51 52  1  0
 52 53  2  0
 53 54  1  0
 54 55  1  0
 53 56  1  0
 56 57  2  0
 49 58  1  0
 58 59  2  0
 59 60  1  0
 60 61  2  0
 61 62  1  0
 62 63  1  0
 61 64  1  0
 64 65  2  0
 48 66  1  0
 66 67  1  0
 67 68  1  0
 68 69  2  0
 69 70  1  0
 70 71  1  0
 71 72  2  0
 72 73  1  0
 73 74  2  0
 74 75  1  0
 75 76  1  0
 74 77  1  0
 77 78  2  0
 70 79  1  0
 79 80  2  0
 80 81  1  0
 81 82  2  0
 82 83  1  0
 83 84  1  0
 82 85  1  0
 85 86  2  0
 69 87  1  0
 87 88  1  0
 68 89  1  0
 89 90  2  0
 90 91  1  0
 91 92  1  0
 92 93  2  0
 93 94  2  0
 91 95  2  0
 95 96  1  0
 96 97  2  0
 97 98  1  0
 98 99  1  0
 99100  2  0
 95101  1  0
101102  2  3
102103  1  0
103104  2  0
103105  1  0
105106  2  0
106107  1  0
107108  1  0
107109  2  0
109110  1  0
109111  1  0
111112  2  0
112113  1  0
113114  2  3
114115  1  0
115116  3  0
114117  1  0
117118  3  0
 13  2  1  0
 43 19  1  0
 88 47  1  0
100 89  1  0
113102  1  0
 12  5  1  0
 42 21  1  0
 57 50  1  0
 65 58  1  0
 87 66  2  0
 94 90  1  0
100 96  1  0
112105  1  0
 30 23  1  0
 46 31  1  0
 78 71  1  0
 86 79  1  0
 41 34  1  0
  1119  1  0
  6120  1  0
 11121  1  0
 20122  1  0
 24123  1  0
 25124  1  0
 28125  1  0
 28126  1  0
 29127  1  0
 29128  1  0
 29129  1  0
 35130  1  0
 36131  1  0
 39132  1  0
 39133  1  0
 40134  1  0
 40135  1  0
 40136  1  0
 44137  1  0
 51138  1  0
 52139  1  0
 55140  1  0
 55141  1  0
 55142  1  0
 56143  1  0
 57144  1  0
 59145  1  0
 60146  1  0
 63147  1  0
 63148  1  0
 63149  1  0
 64150  1  0
 65151  1  0
 72152  1  0
 73153  1  0
 76154  1  0
 76155  1  0
 76156  1  0
 77157  1  0
 78158  1  0
 80159  1  0
 81160  1  0
 84161  1  0
 84162  1  0
 84163  1  0
 85164  1  0
 86165  1  0
101166  1  0
106167  1  0
111168  1  0
M  END

