
     RDKit          3D

 90 98  0  0  0  0  0  0  0  0999 V2000
    0.0843   -4.8135   -6.8020 C   0  0  0  0  0  0  0  0  0  0  0  0
    0.7331   -4.4896   -7.9363 C   0  0  0  0  0  0  0  0  0  0  0  0
    1.0698   -3.1254   -8.3773 C   0  0  0  0  0  0  0  0  0  0  0  0
    0.9614   -2.0760   -7.7021 O   0  0  0  0  0  0  0  0  0  0  0  0
    1.4710   -3.1815   -9.7663 C   0  0  0  0  0  0  0  0  0  0  0  0
    1.8507   -2.1278  -10.5990 C   0  0  0  0  0  0  0  0  0  0  0  0
    2.1736   -2.4028  -11.9298 C   0  0  0  0  0  0  0  0  0  0  0  0
    2.5521   -1.3959  -12.7638 F   0  0  0  0  0  0  0  0  0  0  0  0
    2.0706   -3.7193  -12.4162 C   0  0  0  0  0  0  0  0  0  0  0  0
    2.3564   -3.9835  -13.7171 F   0  0  0  0  0  0  0  0  0  0  0  0
    1.6655   -4.7716  -11.5719 C   0  0  0  0  0  0  0  0  0  0  0  0
    1.3953   -4.4904  -10.2210 C   0  0  0  0  0  0  0  0  0  0  0  0
    1.0261   -5.3952   -9.0914 C   0  0  0  0  0  0  0  0  0  0  0  0
    1.1826   -6.7480   -9.0411 C   0  0  0  0  0  0  0  0  0  0  0  0
    1.5427   -7.5452  -10.1853 C   0  0  0  0  0  0  0  0  0  0  0  0
    1.8277   -8.2010  -11.0918 N   0  0  0  0  0  0  0  0  0  0  0  0
    1.1531   -7.4745   -7.8024 C   0  0  0  0  0  0  0  0  0  0  0  0
    1.1560   -8.0682   -6.8132 N   0  0  0  0  0  0  0  0  0  0  0  0
   -0.0776   -3.9116   -5.6418 C   0  0  0  0  0  0  0  0  0  0  0  0
   -1.3220   -3.8114   -5.0023 C   0  0  0  0  0  0  0  0  0  0  0  0
   -2.3903   -4.5030   -5.4740 F   0  0  0  0  0  0  0  0  0  0  0  0
   -1.4733   -2.9966   -3.8764 C   0  0  0  0  0  0  0  0  0  0  0  0
   -0.3807   -2.2756   -3.3658 C   0  0  0  0  0  0  0  0  0  0  0  0
    0.8822   -2.4195   -3.9771 C   0  0  0  0  0  0  0  0  0  0  0  0
    1.9794   -1.8064   -3.4577 F   0  0  0  0  0  0  0  0  0  0  0  0
    1.0301   -3.2447   -5.0947 C   0  0  0  0  0  0  0  0  0  0  0  0
   -0.5517   -1.4120   -2.1779 C   0  0  0  0  0  0  0  0  0  0  0  0
    0.0844   -0.1924   -1.9552 C   0  0  0  0  0  0  0  0  0  0  0  0
   -0.1920    0.3543   -0.6931 C   0  0  0  0  0  0  0  0  0  0  0  0
    0.3217    1.5626   -0.1763 C   0  0  0  0  0  0  0  0  0  0  0  0
    1.2292    2.4595   -0.9877 C   0  0  0  0  0  0  0  0  0  0  0  0
    0.4197    3.3028   -1.9686 C   0  0  0  0  0  0  0  0  0  0  0  0
   -0.0988    1.9185    1.1214 C   0  0  0  0  0  0  0  0  0  0  0  0
   -0.9427    1.1158    1.8974 C   0  0  0  0  0  0  0  0  0  0  0  0
   -1.4552   -0.0978    1.3790 C   0  0  0  0  0  0  0  0  0  0  0  0
   -2.4376   -0.9561    2.1463 C   0  0  0  0  0  0  0  0  0  0  0  0
   -3.8630   -0.4372    1.9976 C   0  0  0  0  0  0  0  0  0  0  0  0
   -1.0654   -0.4335    0.0677 C   0  0  0  0  0  0  0  0  0  0  0  0
   -1.4870   -1.7948   -0.8281 S   0  0  0  0  0  0  0  0  0  0  0  0
   -1.1792    1.6495    3.1809 C   0  0  0  0  0  0  0  0  0  0  0  0
   -0.5281    2.8714    3.4112 C   0  0  0  0  0  0  0  0  0  0  0  0
    0.3374    3.2721    2.0168 S   0  0  0  0  0  0  0  0  0  0  0  0
   -0.4602    3.6321    4.6877 C   0  0  0  0  0  0  0  0  0  0  0  0
   -1.3693    3.4263    5.7480 C   0  0  0  0  0  0  0  0  0  0  0  0
   -2.4471    2.6145    5.6113 F   0  0  0  0  0  0  0  0  0  0  0  0
   -1.2068    4.1045    6.9593 C   0  0  0  0  0  0  0  0  0  0  0  0
   -0.1429    4.9994    7.1449 C   0  0  0  0  0  0  0  0  0  0  0  0
    0.7100    5.2649    6.0643 C   0  0  0  0  0  0  0  0  0  0  0  0
    1.7234    6.1538    6.1849 F   0  0  0  0  0  0  0  0  0  0  0  0
    0.5624    4.5813    4.8584 C   0  0  0  0  0  0  0  0  0  0  0  0
    0.0548    5.7248    8.4233 C   0  0  0  0  0  0  0  0  0  0  0  0
   -0.0978    5.2113    9.6617 C   0  0  0  0  0  0  0  0  0  0  0  0
   -0.3082    6.0584   10.8367 C   0  0  0  0  0  0  0  0  0  0  0  0
   -0.1100    7.2987   10.8974 O   0  0  0  0  0  0  0  0  0  0  0  0
   -0.8809    5.2402   11.8911 C   0  0  0  0  0  0  0  0  0  0  0  0
   -1.3136    5.6299   13.1635 C   0  0  0  0  0  0  0  0  0  0  0  0
   -1.8548    4.6573   14.0111 C   0  0  0  0  0  0  0  0  0  0  0  0
   -2.2665    5.0020   15.2562 F   0  0  0  0  0  0  0  0  0  0  0  0
   -1.9824    3.3309   13.5725 C   0  0  0  0  0  0  0  0  0  0  0  0
   -2.5229    2.4046   14.3987 F   0  0  0  0  0  0  0  0  0  0  0  0
   -1.5408    2.9599   12.2887 C   0  0  0  0  0  0  0  0  0  0  0  0
   -0.9741    3.9312   11.4536 C   0  0  0  0  0  0  0  0  0  0  0  0
   -0.3760    3.8068   10.0943 C   0  0  0  0  0  0  0  0  0  0  0  0
    0.1706    2.6829    9.5621 C   0  0  0  0  0  0  0  0  0  0  0  0
   -0.1459    1.3622   10.0495 C   0  0  0  0  0  0  0  0  0  0  0  0
   -0.3977    0.2923   10.4119 N   0  0  0  0  0  0  0  0  0  0  0  0
    1.2018    2.7329    8.5575 C   0  0  0  0  0  0  0  0  0  0  0  0
    2.0380    2.7704    7.7645 N   0  0  0  0  0  0  0  0  0  0  0  0
   -0.3843   -5.7844   -6.7129 H   0  0  0  0  0  0  0  0  0  0  0  0
    1.9147   -1.1139  -10.2202 H   0  0  0  0  0  0  0  0  0  0  0  0
    1.5715   -5.7622  -11.9829 H   0  0  0  0  0  0  0  0  0  0  0  0
   -2.4470   -2.9293   -3.4067 H   0  0  0  0  0  0  0  0  0  0  0  0
    2.0175   -3.3787   -5.5246 H   0  0  0  0  0  0  0  0  0  0  0  0
    0.7307    0.2707   -2.6849 H   0  0  0  0  0  0  0  0  0  0  0  0
    1.9652    1.8520   -1.5516 H   0  0  0  0  0  0  0  0  0  0  0  0
    1.8282    3.1299   -0.3335 H   0  0  0  0  0  0  0  0  0  0  0  0
   -0.1179    2.6501   -2.6952 H   0  0  0  0  0  0  0  0  0  0  0  0
    1.0973    3.9743   -2.5346 H   0  0  0  0  0  0  0  0  0  0  0  0
   -0.3231    3.9234   -1.4194 H   0  0  0  0  0  0  0  0  0  0  0  0
   -2.1614   -0.9977    3.2138 H   0  0  0  0  0  0  0  0  0  0  0  0
   -2.4013   -2.0058    1.7959 H   0  0  0  0  0  0  0  0  0  0  0  0
   -3.9491    0.5911    2.4048 H   0  0  0  0  0  0  0  0  0  0  0  0
   -4.1456   -0.4346    0.9249 H   0  0  0  0  0  0  0  0  0  0  0  0
   -4.5653   -1.1053    2.5433 H   0  0  0  0  0  0  0  0  0  0  0  0
   -1.7545    1.1300    3.9281 H   0  0  0  0  0  0  0  0  0  0  0  0
   -1.9246    3.9348    7.7517 H   0  0  0  0  0  0  0  0  0  0  0  0
    1.2749    4.7901    4.0680 H   0  0  0  0  0  0  0  0  0  0  0  0
    0.2840    6.7804    8.3385 H   0  0  0  0  0  0  0  0  0  0  0  0
   -1.2244    6.6589   13.4915 H   0  0  0  0  0  0  0  0  0  0  0  0
   -1.6902    1.9375   11.9747 H   0  0  0  0  0  0  0  0  0  0  0  0
  1  2  2  3
  2  3  1  0
  3  4  2  0
  3  5  1  0
  5  6  2  0
  6  7  1  0
  7  8  1  0
  7  9  2  0
  9 10  1  0
  9 11  1  0
 11 12  2  0
 12 13  1  0
 13 14  2  3
 14 15  1  0
 15 16  3  0
 14 17  1  0
 17 18  3  0
  1 19  1  0
 19 20  2  0
 20 21  1  0
 20 22  1  0
 22 23  2  0
 23 24  1  0
 24 25  1  0
 24 26  2  0
 23 27  1  0
 27 28  2  0
 28 29  1  0
 29 30  2  0
 30 31  1  0
 31 32  1  0
 30 33  1  0
 33 34  2  0
 34 35  1  0
 35 36  1  0
 36 37  1  0
 35 38  2  0
 38 39  1  0
 34 40  1  0
 40 41  2  0
 41 42  1  0
 41 43  1  0
 43 44  2  0
 44 45  1  0
 44 46  1  0
 46 47  2  0
 47 48  1  0
 48 49  1  0
 48 50  2  0
 47 51  1  0
 51 52  2  3
 52 53  1  0
 53 54  2  0
 53 55  1  0
 55 56  2  0
 56 57  1  0
 57 58  1  0
 57 59  2  0
 59 60  1  0
 59 61  1  0
 61 62  2  0
 62 63  1  0
 63 64  2  3
 64 65  1  0
 65 66  3  0
 64 67  1  0
 67 68  3  0
 13  2  1  0
 26 19  1  0
 39 27  1  0
 50 43  1  0
 63 52  1  0
 12  5  1  0
 38 29  1  0
 62 55  1  0
 42 33  1  0
  1 69  1  0
  6 70  1  0
 11 71  1  0
 22 72  1  0
 26 73  1  0
 28 74  1  0
 31 75  1  0
 31 76  1  0
 32 77  1  0
 32 78  1  0
 32 79  1  0
 36 80  1  0
 36 81  1  0
 37 82  1  0
 37 83  1  0
 37 84  1  0
 40 85  1  0
 46 86  1  0
 50 87  1  0
 51 88  1  0
 56 89  1  0
 61 90  1  0
M  END

