
     RDKit          3D

144159  0  0  0  0  0  0  0  0999 V2000
   -0.8616   -5.1112    6.0830 C   0  0  0  0  0  0  0  0  0  0  0  0
   -1.7207   -4.4709    6.8930 C   0  0  0  0  0  0  0  0  0  0  0  0
   -2.2027   -3.0948    6.7097 C   0  0  0  0  0  0  0  0  0  0  0  0
   -1.6956   -2.2121    5.9653 O   0  0  0  0  0  0  0  0  0  0  0  0
   -3.4082   -2.9289    7.4954 C   0  0  0  0  0  0  0  0  0  0  0  0
   -4.2683   -1.8305    7.5355 C   0  0  0  0  0  0  0  0  0  0  0  0
   -5.4381   -1.9264    8.2983 C   0  0  0  0  0  0  0  0  0  0  0  0
   -6.2905   -0.8706    8.3621 F   0  0  0  0  0  0  0  0  0  0  0  0
   -5.7498   -3.1221    8.9665 C   0  0  0  0  0  0  0  0  0  0  0  0
   -6.9025   -3.2184    9.6779 F   0  0  0  0  0  0  0  0  0  0  0  0
   -4.8730   -4.2221    8.9081 C   0  0  0  0  0  0  0  0  0  0  0  0
   -3.6779   -4.1008    8.1842 C   0  0  0  0  0  0  0  0  0  0  0  0
   -2.5800   -5.0821    7.9499 C   0  0  0  0  0  0  0  0  0  0  0  0
   -2.2553   -6.1406    8.7314 C   0  0  0  0  0  0  0  0  0  0  0  0
   -0.9977   -6.8279    8.5931 C   0  0  0  0  0  0  0  0  0  0  0  0
    0.0129   -7.3796    8.4888 N   0  0  0  0  0  0  0  0  0  0  0  0
   -3.0711   -6.5583    9.8418 C   0  0  0  0  0  0  0  0  0  0  0  0
   -3.7212   -6.8985   10.7358 N   0  0  0  0  0  0  0  0  0  0  0  0
   -0.1473   -4.4175    4.9999 C   0  0  0  0  0  0  0  0  0  0  0  0
    1.0220   -3.6917    5.2673 C   0  0  0  0  0  0  0  0  0  0  0  0
    1.6154   -2.8693    4.2789 C   0  0  0  0  0  0  0  0  0  0  0  0
    2.7528   -2.1253    4.7310 N   0  0  0  0  0  0  0  0  0  0  0  0
    2.8281   -2.5943    6.2551 S   0  0  0  0  0  4  0  0  0  0  0  0
    1.6536   -3.6380    6.5524 N   0  0  0  0  0  0  0  0  0  0  0  0
    1.0613   -2.7584    2.9920 C   0  0  0  0  0  0  0  0  0  0  0  0
   -0.1034   -3.5009    2.7153 C   0  0  0  0  0  0  0  0  0  0  0  0
   -0.7735   -3.4081    1.5389 N   0  0  0  0  0  0  0  0  0  0  0  0
   -2.0469   -4.4157    1.8258 S   0  0  0  0  0  0  0  0  0  0  0  0
   -1.8480   -4.9708    3.3682 N   0  0  0  0  0  0  0  0  0  0  0  0
   -0.6961   -4.3395    3.7121 C   0  0  0  0  0  0  0  0  0  0  0  0
    1.5312   -1.7160    2.0646 C   0  0  0  0  0  0  0  0  0  0  0  0
    1.8545   -1.8781    0.7072 C   0  0  0  0  0  0  0  0  0  0  0  0
    2.3554   -3.0980    0.1384 N   0  0  0  0  0  0  0  0  0  0  0  0
    3.7901   -3.2569    0.0228 C   0  0  0  0  0  0  0  0  0  0  0  0
    4.6437   -2.7829    1.0374 C   0  0  0  0  0  0  0  0  0  0  0  0
    6.0323   -2.8260    0.8757 C   0  0  0  0  0  0  0  0  0  0  0  0
    6.5891   -3.3565   -0.2911 C   0  0  0  0  0  0  0  0  0  0  0  0
    8.3659   -3.3271   -0.5355 S   0  0  0  0  0  0  0  0  0  0  0  0
    8.6271   -4.9521    0.2503 C   0  0  0  0  0  0  0  0  0  0  0  0
    5.7527   -3.8577   -1.2911 C   0  0  0  0  0  0  0  0  0  0  0  0
    4.3633   -3.8111   -1.1364 C   0  0  0  0  0  0  0  0  0  0  0  0
    1.4542   -4.0301   -0.4915 C   0  0  0  0  0  0  0  0  0  0  0  0
    1.6468   -5.4152   -0.3344 C   0  0  0  0  0  0  0  0  0  0  0  0
    0.8151   -6.3248   -0.9926 C   0  0  0  0  0  0  0  0  0  0  0  0
   -0.2151   -5.8614   -1.8198 C   0  0  0  0  0  0  0  0  0  0  0  0
   -1.2567   -7.0354   -2.6952 S   0  0  0  0  0  0  0  0  0  0  0  0
   -0.2826   -6.9467   -4.2291 C   0  0  0  0  0  0  0  0  0  0  0  0
   -0.4274   -4.4868   -1.9666 C   0  0  0  0  0  0  0  0  0  0  0  0
    0.4039   -3.5751   -1.3115 C   0  0  0  0  0  0  0  0  0  0  0  0
    2.0007   -0.6430    0.0860 C   0  0  0  0  0  0  0  0  0  0  0  0
    2.1117   -0.1627   -1.5074 S   0  0  0  0  0  0  0  0  0  0  0  0
    1.9324    1.5070   -1.1766 C   0  0  0  0  0  0  0  0  0  0  0  0
    1.8759    1.6865    0.2283 C   0  0  0  0  0  0  0  0  0  0  0  0
    2.0658    2.9394    0.9364 N   0  0  0  0  0  0  0  0  0  0  0  0
    2.7078    2.9062    2.2250 C   0  0  0  0  0  0  0  0  0  0  0  0
    3.9691    2.2984    2.3596 C   0  0  0  0  0  0  0  0  0  0  0  0
    4.5377    2.1220    3.6228 C   0  0  0  0  0  0  0  0  0  0  0  0
    3.8636    2.5676    4.7624 C   0  0  0  0  0  0  0  0  0  0  0  0
    4.5531    2.2551    6.3893 S   0  0  0  0  0  0  0  0  0  0  0  0
    5.5418    3.7846    6.4105 C   0  0  0  0  0  0  0  0  0  0  0  0
    2.6264    3.2145    4.6326 C   0  0  0  0  0  0  0  0  0  0  0  0
    2.0479    3.3763    3.3680 C   0  0  0  0  0  0  0  0  0  0  0  0
    2.0581    4.2111    0.2697 C   0  0  0  0  0  0  0  0  0  0  0  0
    1.0909    5.1747    0.6028 C   0  0  0  0  0  0  0  0  0  0  0  0
    1.1212    6.4388    0.0085 C   0  0  0  0  0  0  0  0  0  0  0  0
    2.1137    6.7520   -0.9245 C   0  0  0  0  0  0  0  0  0  0  0  0
    2.2039    8.4089   -1.6153 S   0  0  0  0  0  0  0  0  0  0  0  0
    1.1039    8.0347   -3.0186 C   0  0  0  0  0  0  0  0  0  0  0  0
    3.0784    5.7972   -1.2647 C   0  0  0  0  0  0  0  0  0  0  0  0
    3.0560    4.5340   -0.6648 C   0  0  0  0  0  0  0  0  0  0  0  0
    1.8367    0.4456    0.8739 C   0  0  0  0  0  0  0  0  0  0  0  0
    1.4595   -0.0531    2.4301 S   0  0  0  0  0  0  0  0  0  0  0  0
    1.2714    2.3687   -2.1806 C   0  0  0  0  0  0  0  0  0  0  0  0
    1.6169    2.2303   -3.5406 C   0  0  0  0  0  0  0  0  0  0  0  0
    0.7224    2.6940   -4.5073 C   0  0  0  0  0  0  0  0  0  0  0  0
    0.6298    2.2992   -5.9095 C   0  0  0  0  0  0  0  0  0  0  0  0
    1.5057    1.6838   -6.5715 O   0  0  0  0  0  0  0  0  0  0  0  0
   -0.7180    2.6424   -6.3519 C   0  0  0  0  0  0  0  0  0  0  0  0
   -1.3696    3.2674   -5.3049 C   0  0  0  0  0  0  0  0  0  0  0  0
   -0.4714    3.3037   -4.1516 C   0  0  0  0  0  0  0  0  0  0  0  0
   -0.7975    3.5227   -2.8164 C   0  0  0  0  0  0  0  0  0  0  0  0
    0.0755    3.0461   -1.8324 C   0  0  0  0  0  0  0  0  0  0  0  0
   -2.7446    3.4899   -5.3435 C   0  0  0  0  0  0  0  0  0  0  0  0
   -3.4594    3.0647   -6.4726 C   0  0  0  0  0  0  0  0  0  0  0  0
   -2.8017    2.4177   -7.5499 C   0  0  0  0  0  0  0  0  0  0  0  0
   -1.4099    2.1955   -7.4775 C   0  0  0  0  0  0  0  0  0  0  0  0
   -3.5681    1.7948   -8.6545 C   0  0  0  0  0  0  0  0  0  0  0  0
   -4.7142    2.2732   -9.1760 C   0  0  0  0  0  0  0  0  0  0  0  0
   -5.7000    1.4185   -9.8367 C   0  0  0  0  0  0  0  0  0  0  0  0
   -5.4986    0.2422  -10.2464 O   0  0  0  0  0  0  0  0  0  0  0  0
   -6.9788    2.0984   -9.8174 C   0  0  0  0  0  0  0  0  0  0  0  0
   -8.2358    1.5959  -10.1425 C   0  0  0  0  0  0  0  0  0  0  0  0
   -9.3647    2.3988   -9.9025 C   0  0  0  0  0  0  0  0  0  0  0  0
  -10.9537    1.7826  -10.3347 Cl  0  0  0  0  0  0  0  0  0  0  0  0
   -9.2160    3.6596   -9.2821 C   0  0  0  0  0  0  0  0  0  0  0  0
  -10.6155    4.6451   -8.8735 Cl  0  0  0  0  0  0  0  0  0  0  0  0
   -7.9362    4.1316   -8.9427 C   0  0  0  0  0  0  0  0  0  0  0  0
   -6.8164    3.3520   -9.2575 C   0  0  0  0  0  0  0  0  0  0  0  0
   -5.3782    3.5920   -8.9729 C   0  0  0  0  0  0  0  0  0  0  0  0
   -4.7747    4.8052   -8.9704 C   0  0  0  0  0  0  0  0  0  0  0  0
   -5.5216    6.0313   -9.0613 C   0  0  0  0  0  0  0  0  0  0  0  0
   -6.1178    7.0213   -9.1407 N   0  0  0  0  0  0  0  0  0  0  0  0
   -3.3442    4.9426   -9.0975 C   0  0  0  0  0  0  0  0  0  0  0  0
   -2.1977    5.0587   -9.2025 N   0  0  0  0  0  0  0  0  0  0  0  0
   -0.7523   -6.1817    6.1330 H   0  0  0  0  0  0  0  0  0  0  0  0
   -4.0347   -0.9258    6.9889 H   0  0  0  0  0  0  0  0  0  0  0  0
   -5.1595   -5.1458    9.3852 H   0  0  0  0  0  0  0  0  0  0  0  0
    4.2390   -2.3675    1.9521 H   0  0  0  0  0  0  0  0  0  0  0  0
    6.6743   -2.4413    1.6604 H   0  0  0  0  0  0  0  0  0  0  0  0
    8.0784   -5.7339   -0.3109 H   0  0  0  0  0  0  0  0  0  0  0  0
    8.2870   -4.9279    1.3075 H   0  0  0  0  0  0  0  0  0  0  0  0
    9.7133   -5.1917    0.2210 H   0  0  0  0  0  0  0  0  0  0  0  0
    6.1790   -4.2641   -2.2017 H   0  0  0  0  0  0  0  0  0  0  0  0
    3.7381   -4.1703   -1.9464 H   0  0  0  0  0  0  0  0  0  0  0  0
    2.4456   -5.7866    0.2949 H   0  0  0  0  0  0  0  0  0  0  0  0
    0.9762   -7.3868   -0.8712 H   0  0  0  0  0  0  0  0  0  0  0  0
   -0.4121   -5.9431   -4.6848 H   0  0  0  0  0  0  0  0  0  0  0  0
   -0.6533   -7.7113   -4.9446 H   0  0  0  0  0  0  0  0  0  0  0  0
    0.7913   -7.1302   -4.0212 H   0  0  0  0  0  0  0  0  0  0  0  0
   -1.2239   -4.1231   -2.6025 H   0  0  0  0  0  0  0  0  0  0  0  0
    0.2386   -2.5168   -1.4515 H   0  0  0  0  0  0  0  0  0  0  0  0
    4.4853    1.9181    1.4849 H   0  0  0  0  0  0  0  0  0  0  0  0
    5.4911    1.6198    3.7162 H   0  0  0  0  0  0  0  0  0  0  0  0
    6.1690    3.8587    5.5005 H   0  0  0  0  0  0  0  0  0  0  0  0
    4.8661    4.6586    6.4845 H   0  0  0  0  0  0  0  0  0  0  0  0
    6.2055    3.7696    7.3056 H   0  0  0  0  0  0  0  0  0  0  0  0
    2.1018    3.5661    5.5107 H   0  0  0  0  0  0  0  0  0  0  0  0
    1.0694    3.8334    3.2885 H   0  0  0  0  0  0  0  0  0  0  0  0
    0.3195    4.9452    1.3230 H   0  0  0  0  0  0  0  0  0  0  0  0
    0.3791    7.1784    0.2852 H   0  0  0  0  0  0  0  0  0  0  0  0
    0.9675    8.9621   -3.6154 H   0  0  0  0  0  0  0  0  0  0  0  0
    1.5553    7.2484   -3.6575 H   0  0  0  0  0  0  0  0  0  0  0  0
    0.1163    7.6993   -2.6422 H   0  0  0  0  0  0  0  0  0  0  0  0
    3.8561    6.0400   -1.9782 H   0  0  0  0  0  0  0  0  0  0  0  0
    3.8223    3.8114   -0.9148 H   0  0  0  0  0  0  0  0  0  0  0  0
    2.4701    1.6343   -3.8407 H   0  0  0  0  0  0  0  0  0  0  0  0
   -1.7574    3.9363   -2.5379 H   0  0  0  0  0  0  0  0  0  0  0  0
   -0.2512    3.0923   -0.8004 H   0  0  0  0  0  0  0  0  0  0  0  0
   -3.2636    3.9144   -4.4959 H   0  0  0  0  0  0  0  0  0  0  0  0
   -4.5352    3.1743   -6.4662 H   0  0  0  0  0  0  0  0  0  0  0  0
   -0.8946    1.6250   -8.2447 H   0  0  0  0  0  0  0  0  0  0  0  0
   -3.2424    0.8078   -8.9603 H   0  0  0  0  0  0  0  0  0  0  0  0
   -8.3407    0.6008  -10.5601 H   0  0  0  0  0  0  0  0  0  0  0  0
   -7.8358    5.0535   -8.3963 H   0  0  0  0  0  0  0  0  0  0  0  0
  1  2  2  3
  2  3  1  0
  3  4  2  0
  3  5  1  0
  5  6  2  0
  6  7  1  0
  7  8  1  0
  7  9  2  0
  9 10  1  0
  9 11  1  0
 11 12  2  0
 12 13  1  0
 13 14  2  3
 14 15  1  0
 15 16  3  0
 14 17  1  0
 17 18  3  0
  1 19  1  0
 19 20  2  0
 20 21  1  0
 21 22  1  0
 22 23  2  0
 23 24  2  0
 21 25  2  0
 25 26  1  0
 26 27  2  0
 27 28  1  0
 28 29  1  0
 29 30  2  0
 25 31  1  0
 31 32  2  0
 32 33  1  0
 33 34  1  0
 34 35  2  0
 35 36  1  0
 36 37  2  0
 37 38  1  0
 38 39  1  0
 37 40  1  0
 40 41  2  0
 33 42  1  0
 42 43  2  0
 43 44  1  0
 44 45  2  0
 45 46  1  0
 46 47  1  0
 45 48  1  0
 48 49  2  0
 32 50  1  0
 50 51  1  0
 51 52  1  0
 52 53  2  0
 53 54  1  0
 54 55  1  0
 55 56  2  0
 56 57  1  0
 57 58  2  0
 58 59  1  0
 59 60  1  0
 58 61  1  0
 61 62  2  0
 54 63  1  0
 63 64  2  0
 64 65  1  0
 65 66  2  0
 66 67  1  0
 67 68  1  0
 66 69  1  0
 69 70  2  0
 53 71  1  0
 71 72  1  0
 52 73  1  0
 73 74  2  0
 74 75  1  0
 75 76  1  0
 76 77  2  0
 76 78  1  0
 78 79  2  0
 79 80  1  0
 80 81  1  0
 81 82  2  0
 79 83  1  0
 83 84  2  0
 84 85  1  0
 85 86  2  0
 85 87  1  0
 87 88  2  3
 88 89  1  0
 89 90  2  0
 89 91  1  0
 91 92  2  0
 92 93  1  0
 93 94  1  0
 93 95  2  0
 95 96  1  0
 95 97  1  0
 97 98  2  0
 98 99  1  0
 99100  2  3
100101  1  0
101102  3  0
100103  1  0
103104  3  0
 13  2  1  0
 30 19  1  0
 72 31  1  0
 82 73  1  0
 99 88  1  0
 12  5  1  0
 24 20  1  0
 30 26  1  0
 41 34  1  0
 49 42  1  0
 71 50  2  0
 80 75  2  0
 98 91  1  0
 62 55  1  0
 70 63  1  0
 86 78  1  0
  1105  1  0
  6106  1  0
 11107  1  0
 35108  1  0
 36109  1  0
 39110  1  0
 39111  1  0
 39112  1  0
 40113  1  0
 41114  1  0
 43115  1  0
 44116  1  0
 47117  1  0
 47118  1  0
 47119  1  0
 48120  1  0
 49121  1  0
 56122  1  0
 57123  1  0
 60124  1  0
 60125  1  0
 60126  1  0
 61127  1  0
 62128  1  0
 64129  1  0
 65130  1  0
 68131  1  0
 68132  1  0
 68133  1  0
 69134  1  0
 70135  1  0
 74136  1  0
 81137  1  0
 82138  1  0
 83139  1  0
 84140  1  0
 86141  1  0
 87142  1  0
 92143  1  0
 97144  1  0
M  END

