
     RDKit          3D

147162  0  0  0  0  0  0  0  0999 V2000
    5.7942   -0.9994    7.1810 C   0  0  0  0  0  0  0  0  0  0  0  0
    7.0390   -0.4922    7.2396 C   0  0  0  0  0  0  0  0  0  0  0  0
    7.7881    0.0496    6.0968 C   0  0  0  0  0  0  0  0  0  0  0  0
    7.3224    0.3519    4.9643 O   0  0  0  0  0  0  0  0  0  0  0  0
    9.1798    0.1399    6.4695 C   0  0  0  0  0  0  0  0  0  0  0  0
   10.2640    0.4907    5.6615 C   0  0  0  0  0  0  0  0  0  0  0  0
   11.5520    0.4261    6.2130 C   0  0  0  0  0  0  0  0  0  0  0  0
   12.6253    0.7566    5.4538 F   0  0  0  0  0  0  0  0  0  0  0  0
   11.7315   -0.0000    7.5415 C   0  0  0  0  0  0  0  0  0  0  0  0
   12.9838   -0.0864    8.0569 F   0  0  0  0  0  0  0  0  0  0  0  0
   10.6265   -0.3517    8.3342 C   0  0  0  0  0  0  0  0  0  0  0  0
    9.3373   -0.2589    7.7867 C   0  0  0  0  0  0  0  0  0  0  0  0
    8.0056   -0.5717    8.3781 C   0  0  0  0  0  0  0  0  0  0  0  0
    7.7015   -0.6519    9.6995 C   0  0  0  0  0  0  0  0  0  0  0  0
    6.3417   -0.6955   10.1740 C   0  0  0  0  0  0  0  0  0  0  0  0
    5.2503   -0.7240   10.5668 N   0  0  0  0  0  0  0  0  0  0  0  0
    8.6957   -0.5591   10.7362 C   0  0  0  0  0  0  0  0  0  0  0  0
    9.4877   -0.4867   11.5782 N   0  0  0  0  0  0  0  0  0  0  0  0
    4.9605   -0.8715    5.9764 C   0  0  0  0  0  0  0  0  0  0  0  0
    4.1710    0.2627    5.7803 C   0  0  0  0  0  0  0  0  0  0  0  0
    3.4868    0.4775    4.5623 C   0  0  0  0  0  0  0  0  0  0  0  0
    2.7430    1.7002    4.5081 N   0  0  0  0  0  0  0  0  0  0  0  0
    3.0752    2.3111    5.9452 S   0  0  0  0  0  4  0  0  0  0  0  0
    4.0292    1.3111    6.7465 N   0  0  0  0  0  0  0  0  0  0  0  0
    3.5746   -0.4386    3.5008 C   0  0  0  0  0  0  0  0  0  0  0  0
    4.3067   -1.6240    3.7215 C   0  0  0  0  0  0  0  0  0  0  0  0
    4.4403   -2.5972    2.7811 N   0  0  0  0  0  0  0  0  0  0  0  0
    5.4135   -3.6622    3.5822 S   0  0  0  0  0  0  0  0  0  0  0  0
    5.7140   -2.9897    5.0632 N   0  0  0  0  0  0  0  0  0  0  0  0
    5.0003   -1.8354    4.9562 C   0  0  0  0  0  0  0  0  0  0  0  0
    2.9899   -0.1096    2.1842 C   0  0  0  0  0  0  0  0  0  0  0  0
    2.1052   -0.9046    1.4303 C   0  0  0  0  0  0  0  0  0  0  0  0
    1.5510   -2.1527    1.8735 N   0  0  0  0  0  0  0  0  0  0  0  0
    0.7472   -2.1532    3.0665 C   0  0  0  0  0  0  0  0  0  0  0  0
   -0.3723   -1.3117    3.1541 C   0  0  0  0  0  0  0  0  0  0  0  0
   -1.2197   -1.3830    4.2638 C   0  0  0  0  0  0  0  0  0  0  0  0
   -0.9431   -2.2811    5.2984 C   0  0  0  0  0  0  0  0  0  0  0  0
   -2.0793   -2.4288    6.6786 S   0  0  0  0  0  0  0  0  0  0  0  0
   -1.2850   -1.0961    7.6354 C   0  0  0  0  0  0  0  0  0  0  0  0
    0.1917   -3.1001    5.2299 C   0  0  0  0  0  0  0  0  0  0  0  0
    1.0320   -3.0394    4.1151 C   0  0  0  0  0  0  0  0  0  0  0  0
    1.6883   -3.3525    1.0727 C   0  0  0  0  0  0  0  0  0  0  0  0
    0.7408   -4.3940    1.1657 C   0  0  0  0  0  0  0  0  0  0  0  0
    0.9058   -5.5755    0.4364 C   0  0  0  0  0  0  0  0  0  0  0  0
    2.0152   -5.7366   -0.3966 C   0  0  0  0  0  0  0  0  0  0  0  0
    2.2418   -7.2678   -1.3011 S   0  0  0  0  0  0  0  0  0  0  0  0
    3.1629   -8.0732    0.0451 C   0  0  0  0  0  0  0  0  0  0  0  0
    2.9461   -4.7010   -0.5247 C   0  0  0  0  0  0  0  0  0  0  0  0
    2.7823   -3.5147    0.1990 C   0  0  0  0  0  0  0  0  0  0  0  0
    1.6266   -0.2024    0.3262 C   0  0  0  0  0  0  0  0  0  0  0  0
    0.3471   -0.4399   -0.7328 S   0  0  0  0  0  0  0  0  0  0  0  0
    0.4297    1.1272   -1.3954 C   0  0  0  0  0  0  0  0  0  0  0  0
    1.4470    1.8460   -0.7535 C   0  0  0  0  0  0  0  0  0  0  0  0
    1.7588    3.2217   -1.0145 N   0  0  0  0  0  0  0  0  0  0  0  0
    2.4336    3.5111   -2.2474 C   0  0  0  0  0  0  0  0  0  0  0  0
    1.8215    4.3159   -3.2188 C   0  0  0  0  0  0  0  0  0  0  0  0
    2.5102    4.6420   -4.3940 C   0  0  0  0  0  0  0  0  0  0  0  0
    3.8078    4.1596   -4.6052 C   0  0  0  0  0  0  0  0  0  0  0  0
    4.7063    4.6125   -6.0918 S   0  0  0  0  0  0  0  0  0  0  0  0
    4.0618    3.2140   -7.0535 C   0  0  0  0  0  0  0  0  0  0  0  0
    4.4133    3.3426   -3.6435 C   0  0  0  0  0  0  0  0  0  0  0  0
    3.7272    3.0134   -2.4717 C   0  0  0  0  0  0  0  0  0  0  0  0
    1.5189    4.2595   -0.0293 C   0  0  0  0  0  0  0  0  0  0  0  0
    0.6408    4.0397    1.0513 C   0  0  0  0  0  0  0  0  0  0  0  0
    0.3833    5.0565    1.9775 C   0  0  0  0  0  0  0  0  0  0  0  0
    1.0105    6.3014    1.8501 C   0  0  0  0  0  0  0  0  0  0  0  0
    0.6659    7.6059    3.0314 S   0  0  0  0  0  0  0  0  0  0  0  0
   -0.6301    8.3720    1.9996 C   0  0  0  0  0  0  0  0  0  0  0  0
    1.8956    6.5258    0.7964 C   0  0  0  0  0  0  0  0  0  0  0  0
    2.1458    5.5194   -0.1390 C   0  0  0  0  0  0  0  0  0  0  0  0
    2.0974    1.0630    0.1932 C   0  0  0  0  0  0  0  0  0  0  0  0
    3.1606    1.4156    1.4332 S   0  0  0  0  0  0  0  0  0  0  0  0
   -0.6651    1.7185   -2.1651 C   0  0  0  0  0  0  0  0  0  0  0  0
   -0.8091    1.4229   -3.5358 C   0  0  0  0  0  0  0  0  0  0  0  0
   -1.9808    1.8332   -4.1744 C   0  0  0  0  0  0  0  0  0  0  0  0
   -2.4793    1.4998   -5.5055 C   0  0  0  0  0  0  0  0  0  0  0  0
   -1.8535    0.8875   -6.4127 O   0  0  0  0  0  0  0  0  0  0  0  0
   -3.8664    1.9482   -5.5550 C   0  0  0  0  0  0  0  0  0  0  0  0
   -4.1743    2.5456   -4.3422 C   0  0  0  0  0  0  0  0  0  0  0  0
   -2.9923    2.4846   -3.4842 C   0  0  0  0  0  0  0  0  0  0  0  0
   -2.8578    2.8135   -2.1375 C   0  0  0  0  0  0  0  0  0  0  0  0
   -1.6737    2.4411   -1.4838 C   0  0  0  0  0  0  0  0  0  0  0  0
   -5.4815    2.9272   -4.0318 C   0  0  0  0  0  0  0  0  0  0  0  0
   -6.4872    2.6780   -4.9790 C   0  0  0  0  0  0  0  0  0  0  0  0
   -6.1818    2.0358   -6.2055 C   0  0  0  0  0  0  0  0  0  0  0  0
   -4.8493    1.6915   -6.5100 C   0  0  0  0  0  0  0  0  0  0  0  0
   -7.2625    1.6453   -7.1243 C   0  0  0  0  0  0  0  0  0  0  0  0
   -8.1927    0.7242   -6.8025 C   0  0  0  0  0  0  0  0  0  0  0  0
   -8.1033   -0.1906   -5.6562 C   0  0  0  0  0  0  0  0  0  0  0  0
   -7.2535   -0.1503   -4.7255 O   0  0  0  0  0  0  0  0  0  0  0  0
   -9.0902   -1.2324   -5.8180 C   0  0  0  0  0  0  0  0  0  0  0  0
   -9.2931   -2.3467   -5.0052 C   0  0  0  0  0  0  0  0  0  0  0  0
  -10.2837   -3.2759   -5.3654 C   0  0  0  0  0  0  0  0  0  0  0  0
  -10.5449   -4.4664   -4.4884 C   0  0  0  0  0  0  0  0  0  0  0  0
  -11.0683   -3.0438   -6.5180 C   0  0  0  0  0  0  0  0  0  0  0  0
  -12.0631   -3.9069   -6.8526 F   0  0  0  0  0  0  0  0  0  0  0  0
  -10.8342   -1.9210   -7.3296 C   0  0  0  0  0  0  0  0  0  0  0  0
   -9.8196   -1.0140   -6.9733 C   0  0  0  0  0  0  0  0  0  0  0  0
   -9.3445    0.2431   -7.6361 C   0  0  0  0  0  0  0  0  0  0  0  0
   -9.9123    0.8781   -8.6998 C   0  0  0  0  0  0  0  0  0  0  0  0
   -9.5017    2.1932   -9.1262 C   0  0  0  0  0  0  0  0  0  0  0  0
   -9.1655    3.2441   -9.4747 N   0  0  0  0  0  0  0  0  0  0  0  0
  -11.0047    0.3209   -9.4571 C   0  0  0  0  0  0  0  0  0  0  0  0
  -11.8817   -0.0980  -10.0848 N   0  0  0  0  0  0  0  0  0  0  0  0
    5.3738   -1.5509    8.0076 H   0  0  0  0  0  0  0  0  0  0  0  0
   10.1173    0.7861    4.6303 H   0  0  0  0  0  0  0  0  0  0  0  0
   10.8046   -0.7179    9.3335 H   0  0  0  0  0  0  0  0  0  0  0  0
   -0.6066   -0.6279    2.3471 H   0  0  0  0  0  0  0  0  0  0  0  0
   -2.0983   -0.7530    4.3046 H   0  0  0  0  0  0  0  0  0  0  0  0
   -1.8560   -0.9356    8.5746 H   0  0  0  0  0  0  0  0  0  0  0  0
   -1.2893   -0.1517    7.0475 H   0  0  0  0  0  0  0  0  0  0  0  0
   -0.2386   -1.3811    7.8828 H   0  0  0  0  0  0  0  0  0  0  0  0
    0.4074   -3.8016    6.0272 H   0  0  0  0  0  0  0  0  0  0  0  0
    1.8934   -3.6912    4.0580 H   0  0  0  0  0  0  0  0  0  0  0  0
   -0.1304   -4.2991    1.7993 H   0  0  0  0  0  0  0  0  0  0  0  0
    0.1701   -6.3679    0.5277 H   0  0  0  0  0  0  0  0  0  0  0  0
    3.5129   -9.0664   -0.2994 H   0  0  0  0  0  0  0  0  0  0  0  0
    4.0442   -7.4626    0.3278 H   0  0  0  0  0  0  0  0  0  0  0  0
    2.4940   -8.2187    0.9207 H   0  0  0  0  0  0  0  0  0  0  0  0
    3.8035   -4.8175   -1.1794 H   0  0  0  0  0  0  0  0  0  0  0  0
    3.5298   -2.7375    0.0980 H   0  0  0  0  0  0  0  0  0  0  0  0
    0.8194    4.6958   -3.0584 H   0  0  0  0  0  0  0  0  0  0  0  0
    2.0346    5.2760   -5.1336 H   0  0  0  0  0  0  0  0  0  0  0  0
    4.4721    3.2617   -8.0837 H   0  0  0  0  0  0  0  0  0  0  0  0
    2.9518    3.2669   -7.1102 H   0  0  0  0  0  0  0  0  0  0  0  0
    4.3702    2.2536   -6.5856 H   0  0  0  0  0  0  0  0  0  0  0  0
    5.4201    2.9654   -3.7950 H   0  0  0  0  0  0  0  0  0  0  0  0
    4.2099    2.3951   -1.7241 H   0  0  0  0  0  0  0  0  0  0  0  0
    0.1420    3.0910    1.1782 H   0  0  0  0  0  0  0  0  0  0  0  0
   -0.3173    4.8801    2.7875 H   0  0  0  0  0  0  0  0  0  0  0  0
   -1.1521    9.1480    2.5948 H   0  0  0  0  0  0  0  0  0  0  0  0
   -0.1443    8.8594    1.1355 H   0  0  0  0  0  0  0  0  0  0  0  0
   -1.3670    7.6075    1.6738 H   0  0  0  0  0  0  0  0  0  0  0  0
    2.3756    7.4890    0.6854 H   0  0  0  0  0  0  0  0  0  0  0  0
    2.8271    5.7368   -0.9458 H   0  0  0  0  0  0  0  0  0  0  0  0
   -0.0629    0.8369   -4.0617 H   0  0  0  0  0  0  0  0  0  0  0  0
   -3.6609    3.2960   -1.5955 H   0  0  0  0  0  0  0  0  0  0  0  0
   -1.5784    2.6403   -0.4210 H   0  0  0  0  0  0  0  0  0  0  0  0
   -5.7270    3.3599   -3.0695 H   0  0  0  0  0  0  0  0  0  0  0  0
   -7.5126    2.9298   -4.7362 H   0  0  0  0  0  0  0  0  0  0  0  0
   -4.5992    1.1730   -7.4290 H   0  0  0  0  0  0  0  0  0  0  0  0
   -7.2336    2.0919   -8.1048 H   0  0  0  0  0  0  0  0  0  0  0  0
   -8.6840   -2.4908   -4.1177 H   0  0  0  0  0  0  0  0  0  0  0  0
   -9.6266   -4.7644   -3.9367 H   0  0  0  0  0  0  0  0  0  0  0  0
  -10.8677   -5.3359   -5.1002 H   0  0  0  0  0  0  0  0  0  0  0  0
  -11.3380   -4.2213   -3.7497 H   0  0  0  0  0  0  0  0  0  0  0  0
  -11.4574   -1.7905   -8.1987 H   0  0  0  0  0  0  0  0  0  0  0  0
  1  2  2  3
  2  3  1  0
  3  4  2  0
  3  5  1  0
  5  6  2  0
  6  7  1  0
  7  8  1  0
  7  9  2  0
  9 10  1  0
  9 11  1  0
 11 12  2  0
 12 13  1  0
 13 14  2  3
 14 15  1  0
 15 16  3  0
 14 17  1  0
 17 18  3  0
  1 19  1  0
 19 20  2  0
 20 21  1  0
 21 22  1  0
 22 23  2  0
 23 24  2  0
 21 25  2  0
 25 26  1  0
 26 27  2  0
 27 28  1  0
 28 29  1  0
 29 30  2  0
 25 31  1  0
 31 32  2  0
 32 33  1  0
 33 34  1  0
 34 35  2  0
 35 36  1  0
 36 37  2  0
 37 38  1  0
 38 39  1  0
 37 40  1  0
 40 41  2  0
 33 42  1  0
 42 43  2  0
 43 44  1  0
 44 45  2  0
 45 46  1  0
 46 47  1  0
 45 48  1  0
 48 49  2  0
 32 50  1  0
 50 51  1  0
 51 52  1  0
 52 53  2  0
 53 54  1  0
 54 55  1  0
 55 56  2  0
 56 57  1  0
 57 58  2  0
 58 59  1  0
 59 60  1  0
 58 61  1  0
 61 62  2  0
 54 63  1  0
 63 64  2  0
 64 65  1  0
 65 66  2  0
 66 67  1  0
 67 68  1  0
 66 69  1  0
 69 70  2  0
 53 71  1  0
 71 72  1  0
 52 73  1  0
 73 74  2  0
 74 75  1  0
 75 76  1  0
 76 77  2  0
 76 78  1  0
 78 79  2  0
 79 80  1  0
 80 81  1  0
 81 82  2  0
 79 83  1  0
 83 84  2  0
 84 85  1  0
 85 86  2  0
 85 87  1  0
 87 88  2  3
 88 89  1  0
 89 90  2  0
 89 91  1  0
 91 92  2  0
 92 93  1  0
 93 94  1  0
 93 95  2  0
 95 96  1  0
 95 97  1  0
 97 98  2  0
 98 99  1  0
 99100  2  3
100101  1  0
101102  3  0
100103  1  0
103104  3  0
 13  2  1  0
 30 19  1  0
 72 31  1  0
 82 73  1  0
 99 88  1  0
 12  5  1  0
 24 20  1  0
 30 26  1  0
 41 34  1  0
 49 42  1  0
 71 50  2  0
 80 75  2  0
 98 91  1  0
 62 55  1  0
 70 63  1  0
 86 78  1  0
  1105  1  0
  6106  1  0
 11107  1  0
 35108  1  0
 36109  1  0
 39110  1  0
 39111  1  0
 39112  1  0
 40113  1  0
 41114  1  0
 43115  1  0
 44116  1  0
 47117  1  0
 47118  1  0
 47119  1  0
 48120  1  0
 49121  1  0
 56122  1  0
 57123  1  0
 60124  1  0
 60125  1  0
 60126  1  0
 61127  1  0
 62128  1  0
 64129  1  0
 65130  1  0
 68131  1  0
 68132  1  0
 68133  1  0
 69134  1  0
 70135  1  0
 74136  1  0
 81137  1  0
 82138  1  0
 83139  1  0
 84140  1  0
 86141  1  0
 87142  1  0
 92143  1  0
 94144  1  0
 94145  1  0
 94146  1  0
 97147  1  0
M  END

