
     RDKit          3D

136151  0  0  0  0  0  0  0  0999 V2000
    0.3165   -6.4129    4.4435 C   0  0  0  0  0  0  0  0  0  0  0  0
    1.2768   -6.7767    5.3211 C   0  0  0  0  0  0  0  0  0  0  0  0
    2.1821   -5.8708    6.0332 C   0  0  0  0  0  0  0  0  0  0  0  0
    1.9868   -4.6463    6.2692 O   0  0  0  0  0  0  0  0  0  0  0  0
    3.3227   -6.6411    6.4833 C   0  0  0  0  0  0  0  0  0  0  0  0
    4.4676   -6.1880    7.1337 C   0  0  0  0  0  0  0  0  0  0  0  0
    5.4790   -7.1114    7.4355 C   0  0  0  0  0  0  0  0  0  0  0  0
    6.6008   -6.6963    8.0755 F   0  0  0  0  0  0  0  0  0  0  0  0
    5.3451   -8.4571    7.0403 C   0  0  0  0  0  0  0  0  0  0  0  0
    6.3413   -9.3393    7.2992 F   0  0  0  0  0  0  0  0  0  0  0  0
    4.1790   -8.8964    6.3891 C   0  0  0  0  0  0  0  0  0  0  0  0
    3.1435   -7.9757    6.1575 C   0  0  0  0  0  0  0  0  0  0  0  0
    1.7988   -8.1613    5.5423 C   0  0  0  0  0  0  0  0  0  0  0  0
    1.1158   -9.3287    5.4146 C   0  0  0  0  0  0  0  0  0  0  0  0
   -0.2949   -9.3679    5.1239 C   0  0  0  0  0  0  0  0  0  0  0  0
   -1.4312   -9.4150    4.9193 N   0  0  0  0  0  0  0  0  0  0  0  0
    1.7034  -10.6103    5.7153 C   0  0  0  0  0  0  0  0  0  0  0  0
    2.1561  -11.6474    5.9586 N   0  0  0  0  0  0  0  0  0  0  0  0
    0.1013   -5.0404    3.9237 C   0  0  0  0  0  0  0  0  0  0  0  0
    1.1476   -4.3138    3.3193 C   0  0  0  0  0  0  0  0  0  0  0  0
    0.8885   -3.1627    2.5323 C   0  0  0  0  0  0  0  0  0  0  0  0
    2.0458   -2.5903    1.9079 N   0  0  0  0  0  0  0  0  0  0  0  0
    3.1740   -3.6046    2.3966 S   0  0  0  0  0  4  0  0  0  0  0  0
    2.5179   -4.7325    3.3175 N   0  0  0  0  0  0  0  0  0  0  0  0
   -0.4225   -2.7244    2.2859 C   0  0  0  0  0  0  0  0  0  0  0  0
   -1.4721   -3.4173    2.9171 C   0  0  0  0  0  0  0  0  0  0  0  0
   -2.7775   -3.1058    2.7252 N   0  0  0  0  0  0  0  0  0  0  0  0
   -3.5147   -4.2837    3.6171 S   0  0  0  0  0  0  0  0  0  0  0  0
   -2.2951   -5.2067    4.2405 N   0  0  0  0  0  0  0  0  0  0  0  0
   -1.2080   -4.5656    3.7362 C   0  0  0  0  0  0  0  0  0  0  0  0
   -0.6862   -1.8008    1.1664 C   0  0  0  0  0  0  0  0  0  0  0  0
   -1.3096   -0.5390    1.2064 C   0  0  0  0  0  0  0  0  0  0  0  0
   -1.5458    0.2065    2.4111 N   0  0  0  0  0  0  0  0  0  0  0  0
   -0.6668    1.3260    2.6753 C   0  0  0  0  0  0  0  0  0  0  0  0
   -1.1914    2.6038    2.9451 C   0  0  0  0  0  0  0  0  0  0  0  0
   -0.3434    3.7153    3.0115 C   0  0  0  0  0  0  0  0  0  0  0  0
    1.0319    3.5631    2.8087 C   0  0  0  0  0  0  0  0  0  0  0  0
    2.1170    4.9951    2.8314 S   0  0  0  0  0  0  0  0  0  0  0  0
    2.0693    5.2128    1.0241 C   0  0  0  0  0  0  0  0  0  0  0  0
    1.5667    2.2925    2.5784 C   0  0  0  0  0  0  0  0  0  0  0  0
    0.7215    1.1837    2.4989 C   0  0  0  0  0  0  0  0  0  0  0  0
   -2.7966    0.0603    3.1175 C   0  0  0  0  0  0  0  0  0  0  0  0
   -2.8567    0.2862    4.5020 C   0  0  0  0  0  0  0  0  0  0  0  0
   -4.0732    0.1871    5.1834 C   0  0  0  0  0  0  0  0  0  0  0  0
   -5.2416   -0.1427    4.4900 C   0  0  0  0  0  0  0  0  0  0  0  0
   -6.8056   -0.2561    5.3603 S   0  0  0  0  0  0  0  0  0  0  0  0
   -7.2706    1.4661    4.9905 C   0  0  0  0  0  0  0  0  0  0  0  0
   -5.1903   -0.3878    3.1159 C   0  0  0  0  0  0  0  0  0  0  0  0
   -3.9805   -0.2748    2.4296 C   0  0  0  0  0  0  0  0  0  0  0  0
   -1.2713    0.0728   -0.0484 C   0  0  0  0  0  0  0  0  0  0  0  0
   -1.5585    1.6404   -0.5855 S   0  0  0  0  0  0  0  0  0  0  0  0
   -0.8261    1.3863   -2.0994 C   0  0  0  0  0  0  0  0  0  0  0  0
   -0.3362    0.0777   -2.1755 C   0  0  0  0  0  0  0  0  0  0  0  0
    0.6987   -0.3381   -3.0806 N   0  0  0  0  0  0  0  0  0  0  0  0
    0.5120   -1.5862   -3.7697 C   0  0  0  0  0  0  0  0  0  0  0  0
   -0.6011   -1.7672   -4.6084 C   0  0  0  0  0  0  0  0  0  0  0  0
   -0.8772   -3.0246   -5.1514 C   0  0  0  0  0  0  0  0  0  0  0  0
   -0.0543   -4.1152   -4.8539 C   0  0  0  0  0  0  0  0  0  0  0  0
   -0.4851   -5.7536   -5.4361 S   0  0  0  0  0  0  0  0  0  0  0  0
   -1.5071   -6.1195   -3.9748 C   0  0  0  0  0  0  0  0  0  0  0  0
    1.0774   -3.9319   -4.0475 C   0  0  0  0  0  0  0  0  0  0  0  0
    1.3631   -2.6735   -3.5165 C   0  0  0  0  0  0  0  0  0  0  0  0
    2.0210    0.2417   -2.9641 C   0  0  0  0  0  0  0  0  0  0  0  0
    2.4613    0.7941   -1.7418 C   0  0  0  0  0  0  0  0  0  0  0  0
    3.7379    1.3420   -1.6276 C   0  0  0  0  0  0  0  0  0  0  0  0
    4.6061    1.3254   -2.7206 C   0  0  0  0  0  0  0  0  0  0  0  0
    6.2566    2.0126   -2.5516 S   0  0  0  0  0  0  0  0  0  0  0  0
    6.9991    0.4301   -2.0344 C   0  0  0  0  0  0  0  0  0  0  0  0
    4.1815    0.7824   -3.9413 C   0  0  0  0  0  0  0  0  0  0  0  0
    2.8980    0.2405   -4.0618 C   0  0  0  0  0  0  0  0  0  0  0  0
   -0.6366   -0.6292   -1.0182 C   0  0  0  0  0  0  0  0  0  0  0  0
   -0.0831   -2.0786   -0.4036 S   0  0  0  0  0  0  0  0  0  0  0  0
   -0.7511    2.3936   -3.1654 C   0  0  0  0  0  0  0  0  0  0  0  0
    0.1496    3.4641   -3.0929 C   0  0  0  0  0  0  0  0  0  0  0  0
    0.1738    4.4713   -4.0900 C   0  0  0  0  0  0  0  0  0  0  0  0
    1.1366    5.5073   -3.8749 N   0  0  0  0  0  0  0  0  0  0  0  0
    1.7916    5.0084   -2.5080 S   0  0  0  0  0  4  0  0  0  0  0  0
    1.0910    3.6529   -2.0322 N   0  0  0  0  0  0  0  0  0  0  0  0
   -0.7156    4.4457   -5.1719 C   0  0  0  0  0  0  0  0  0  0  0  0
   -1.6059    3.3636   -5.2704 C   0  0  0  0  0  0  0  0  0  0  0  0
   -2.5108    3.2405   -6.2781 N   0  0  0  0  0  0  0  0  0  0  0  0
   -3.2727    1.8448   -5.8256 S   0  0  0  0  0  0  0  0  0  0  0  0
   -2.5464    1.3584   -4.4257 N   0  0  0  0  0  0  0  0  0  0  0  0
   -1.6214    2.3391   -4.2698 C   0  0  0  0  0  0  0  0  0  0  0  0
   -0.7785    5.5579   -6.1304 C   0  0  0  0  0  0  0  0  0  0  0  0
   -1.4696    6.6835   -5.8708 C   0  0  0  0  0  0  0  0  0  0  0  0
   -2.0944    7.0227   -4.5849 C   0  0  0  0  0  0  0  0  0  0  0  0
   -2.3261    6.2344   -3.6305 O   0  0  0  0  0  0  0  0  0  0  0  0
   -2.4003    8.4374   -4.5917 C   0  0  0  0  0  0  0  0  0  0  0  0
   -2.8921    9.2179   -3.5451 C   0  0  0  0  0  0  0  0  0  0  0  0
   -3.0218   10.6007   -3.7487 C   0  0  0  0  0  0  0  0  0  0  0  0
   -3.6300   11.6043   -2.4427 Cl  0  0  0  0  0  0  0  0  0  0  0  0
   -2.6335   11.1764   -4.9748 C   0  0  0  0  0  0  0  0  0  0  0  0
   -2.7175   12.5189   -5.1509 F   0  0  0  0  0  0  0  0  0  0  0  0
   -2.1354   10.3716   -6.0112 C   0  0  0  0  0  0  0  0  0  0  0  0
   -2.0519    8.9819   -5.8164 C   0  0  0  0  0  0  0  0  0  0  0  0
   -1.5680    7.9049   -6.7245 C   0  0  0  0  0  0  0  0  0  0  0  0
   -1.5366    7.9492   -8.0816 C   0  0  0  0  0  0  0  0  0  0  0  0
   -1.8845    9.1375   -8.8184 C   0  0  0  0  0  0  0  0  0  0  0  0
   -2.1736   10.0858   -9.4201 N   0  0  0  0  0  0  0  0  0  0  0  0
   -1.3397    6.7692   -8.8870 C   0  0  0  0  0  0  0  0  0  0  0  0
   -1.1898    5.8255   -9.5427 N   0  0  0  0  0  0  0  0  0  0  0  0
   -0.2708   -7.1668    3.9430 H   0  0  0  0  0  0  0  0  0  0  0  0
    4.5794   -5.1430    7.3992 H   0  0  0  0  0  0  0  0  0  0  0  0
    4.1197   -9.9271    6.0647 H   0  0  0  0  0  0  0  0  0  0  0  0
   -2.2533    2.7529    3.0507 H   0  0  0  0  0  0  0  0  0  0  0  0
   -0.7613    4.6995    3.1891 H   0  0  0  0  0  0  0  0  0  0  0  0
    2.3136    4.2608    0.5119 H   0  0  0  0  0  0  0  0  0  0  0  0
    1.0639    5.5616    0.7158 H   0  0  0  0  0  0  0  0  0  0  0  0
    2.8201    5.9698    0.7253 H   0  0  0  0  0  0  0  0  0  0  0  0
    2.6293    2.1679    2.4155 H   0  0  0  0  0  0  0  0  0  0  0  0
    1.1494    0.2162    2.2736 H   0  0  0  0  0  0  0  0  0  0  0  0
   -1.9603    0.5399    5.0536 H   0  0  0  0  0  0  0  0  0  0  0  0
   -4.1080    0.3677    6.2517 H   0  0  0  0  0  0  0  0  0  0  0  0
   -6.4826    2.1618    5.3531 H   0  0  0  0  0  0  0  0  0  0  0  0
   -8.2235    1.7107    5.5062 H   0  0  0  0  0  0  0  0  0  0  0  0
   -7.4110    1.5907    3.8981 H   0  0  0  0  0  0  0  0  0  0  0  0
   -6.0887   -0.6479    2.5728 H   0  0  0  0  0  0  0  0  0  0  0  0
   -3.9661   -0.4458    1.3612 H   0  0  0  0  0  0  0  0  0  0  0  0
   -1.2610   -0.9361   -4.8154 H   0  0  0  0  0  0  0  0  0  0  0  0
   -1.7499   -3.1518   -5.7761 H   0  0  0  0  0  0  0  0  0  0  0  0
   -2.3541   -5.4078   -3.9267 H   0  0  0  0  0  0  0  0  0  0  0  0
   -0.8985   -6.0411   -3.0507 H   0  0  0  0  0  0  0  0  0  0  0  0
   -1.9083   -7.1506   -4.0505 H   0  0  0  0  0  0  0  0  0  0  0  0
    1.7140   -4.7737   -3.8072 H   0  0  0  0  0  0  0  0  0  0  0  0
    2.2151   -2.5594   -2.8556 H   0  0  0  0  0  0  0  0  0  0  0  0
    1.8235    0.8062   -0.8674 H   0  0  0  0  0  0  0  0  0  0  0  0
    4.0571    1.7694   -0.6852 H   0  0  0  0  0  0  0  0  0  0  0  0
    7.0714   -0.2464   -2.9068 H   0  0  0  0  0  0  0  0  0  0  0  0
    6.3997   -0.0431   -1.2259 H   0  0  0  0  0  0  0  0  0  0  0  0
    8.0185    0.6275   -1.6461 H   0  0  0  0  0  0  0  0  0  0  0  0
    4.8496    0.7726   -4.7937 H   0  0  0  0  0  0  0  0  0  0  0  0
    2.5862   -0.1777   -5.0066 H   0  0  0  0  0  0  0  0  0  0  0  0
   -0.2116    5.4461   -7.0379 H   0  0  0  0  0  0  0  0  0  0  0  0
   -3.1565    8.7656   -2.5981 H   0  0  0  0  0  0  0  0  0  0  0  0
   -1.7874   10.8421   -6.9135 H   0  0  0  0  0  0  0  0  0  0  0  0
  1  2  2  3
  2  3  1  0
  3  4  2  0
  3  5  1  0
  5  6  2  0
  6  7  1  0
  7  8  1  0
  7  9  2  0
  9 10  1  0
  9 11  1  0
 11 12  2  0
 12 13  1  0
 13 14  2  3
 14 15  1  0
 15 16  3  0
 14 17  1  0
 17 18  3  0
  1 19  1  0
 19 20  2  0
 20 21  1  0
 21 22  1  0
 22 23  2  0
 23 24  2  0
 21 25  2  0
 25 26  1  0
 26 27  2  0
 27 28  1  0
 28 29  1  0
 29 30  2  0
 25 31  1  0
 31 32  2  0
 32 33  1  0
 33 34  1  0
 34 35  2  0
 35 36  1  0
 36 37  2  0
 37 38  1  0
 38 39  1  0
 37 40  1  0
 40 41  2  0
 33 42  1  0
 42 43  2  0
 43 44  1  0
 44 45  2  0
 45 46  1  0
 46 47  1  0
 45 48  1  0
 48 49  2  0
 32 50  1  0
 50 51  1  0
 51 52  1  0
 52 53  2  0
 53 54  1  0
 54 55  1  0
 55 56  2  0
 56 57  1  0
 57 58  2  0
 58 59  1  0
 59 60  1  0
 58 61  1  0
 61 62  2  0
 54 63  1  0
 63 64  2  0
 64 65  1  0
 65 66  2  0
 66 67  1  0
 67 68  1  0
 66 69  1  0
 69 70  2  0
 53 71  1  0
 71 72  1  0
 52 73  1  0
 73 74  2  0
 74 75  1  0
 75 76  1  0
 76 77  2  0
 77 78  2  0
 75 79  2  0
 79 80  1  0
 80 81  2  0
 81 82  1  0
 82 83  1  0
 83 84  2  0
 79 85  1  0
 85 86  2  3
 86 87  1  0
 87 88  2  0
 87 89  1  0
 89 90  2  0
 90 91  1  0
 91 92  1  0
 91 93  2  0
 93 94  1  0
 93 95  1  0
 95 96  2  0
 96 97  1  0
 97 98  2  3
 98 99  1  0
 99100  3  0
 98101  1  0
101102  3  0
 13  2  1  0
 30 19  1  0
 72 31  1  0
 84 73  1  0
 97 86  1  0
 12  5  1  0
 24 20  1  0
 30 26  1  0
 41 34  1  0
 49 42  1  0
 71 50  2  0
 78 74  1  0
 84 80  1  0
 96 89  1  0
 62 55  1  0
 70 63  1  0
  1103  1  0
  6104  1  0
 11105  1  0
 35106  1  0
 36107  1  0
 39108  1  0
 39109  1  0
 39110  1  0
 40111  1  0
 41112  1  0
 43113  1  0
 44114  1  0
 47115  1  0
 47116  1  0
 47117  1  0
 48118  1  0
 49119  1  0
 56120  1  0
 57121  1  0
 60122  1  0
 60123  1  0
 60124  1  0
 61125  1  0
 62126  1  0
 64127  1  0
 65128  1  0
 68129  1  0
 68130  1  0
 68131  1  0
 69132  1  0
 70133  1  0
 85134  1  0
 90135  1  0
 95136  1  0
M  END

