
     RDKit          3D

248269  0  0  0  0  0  0  0  0999 V2000
    3.5342   -7.0483   -5.0723 C   0  0  0  0  0  0  0  0  0  0  0  0
    2.7498   -7.1618   -6.1649 C   0  0  0  0  0  0  0  0  0  0  0  0
    1.3313   -6.7871   -6.2255 C   0  0  0  0  0  0  0  0  0  0  0  0
    0.5689   -6.6032   -5.2380 O   0  0  0  0  0  0  0  0  0  0  0  0
    0.9276   -6.7130   -7.6095 C   0  0  0  0  0  0  0  0  0  0  0  0
   -0.3052   -6.3080   -8.1193 C   0  0  0  0  0  0  0  0  0  0  0  0
   -0.4604   -6.2356   -9.5100 C   0  0  0  0  0  0  0  0  0  0  0  0
   -1.6504   -5.8548  -10.0370 F   0  0  0  0  0  0  0  0  0  0  0  0
    0.6214   -6.5354  -10.3567 C   0  0  0  0  0  0  0  0  0  0  0  0
    0.4712   -6.4287  -11.7030 F   0  0  0  0  0  0  0  0  0  0  0  0
    1.8567   -6.9362   -9.8186 C   0  0  0  0  0  0  0  0  0  0  0  0
    1.9936   -7.0574   -8.4226 C   0  0  0  0  0  0  0  0  0  0  0  0
    3.1633   -7.4560   -7.5771 C   0  0  0  0  0  0  0  0  0  0  0  0
    4.3023   -8.0626   -8.0033 C   0  0  0  0  0  0  0  0  0  0  0  0
    5.3184   -8.5356   -7.1030 C   0  0  0  0  0  0  0  0  0  0  0  0
    6.1402   -8.9263   -6.3886 N   0  0  0  0  0  0  0  0  0  0  0  0
    4.5597   -8.3544   -9.3868 C   0  0  0  0  0  0  0  0  0  0  0  0
    4.7813   -8.6040  -10.4968 N   0  0  0  0  0  0  0  0  0  0  0  0
    3.0919   -6.2947   -3.8953 C   0  0  0  0  0  0  0  0  0  0  0  0
    2.7953   -4.9244   -3.8984 C   0  0  0  0  0  0  0  0  0  0  0  0
    3.1712   -4.0208   -4.9565 N   0  0  0  0  0  0  0  0  0  0  0  0
    4.4372   -4.1501   -5.6196 C   0  0  0  0  0  0  0  0  0  0  0  0
    4.5086   -4.0880   -7.0194 C   0  0  0  0  0  0  0  0  0  0  0  0
    5.7519   -4.0868   -7.6615 C   0  0  0  0  0  0  0  0  0  0  0  0
    6.9279   -4.1209   -6.9047 C   0  0  0  0  0  0  0  0  0  0  0  0
    8.5253   -3.9753   -7.7126 S   0  0  0  0  0  0  0  0  0  0  0  0
    8.5160   -2.1500   -7.6573 C   0  0  0  0  0  0  0  0  0  0  0  0
    6.8597   -4.2318   -5.5110 C   0  0  0  0  0  0  0  0  0  0  0  0
    5.6196   -4.2482   -4.8691 C   0  0  0  0  0  0  0  0  0  0  0  0
    2.3786   -2.8637   -5.2526 C   0  0  0  0  0  0  0  0  0  0  0  0
    2.9152   -1.5771   -5.0845 C   0  0  0  0  0  0  0  0  0  0  0  0
    2.1842   -0.4528   -5.4691 C   0  0  0  0  0  0  0  0  0  0  0  0
    0.9211   -0.6078   -6.0506 C   0  0  0  0  0  0  0  0  0  0  0  0
    0.0041    0.8323   -6.6034 S   0  0  0  0  0  0  0  0  0  0  0  0
   -0.7866    1.1123   -4.9866 C   0  0  0  0  0  0  0  0  0  0  0  0
    0.3892   -1.8906   -6.2254 C   0  0  0  0  0  0  0  0  0  0  0  0
    1.1066   -3.0121   -5.8151 C   0  0  0  0  0  0  0  0  0  0  0  0
    2.2412   -4.5334   -2.6850 C   0  0  0  0  0  0  0  0  0  0  0  0
    1.6986   -3.0849   -2.0794 S   0  0  0  0  0  0  0  0  0  0  0  0
    1.3294   -3.7111   -0.5478 C   0  0  0  0  0  0  0  0  0  0  0  0
    1.7347   -5.0653   -0.4622 C   0  0  0  0  0  0  0  0  0  0  0  0
    1.9773   -5.8058    0.7671 N   0  0  0  0  0  0  0  0  0  0  0  0
    1.3841   -5.4340    2.0293 C   0  0  0  0  0  0  0  0  0  0  0  0
   -0.0010   -5.2971    2.1499 C   0  0  0  0  0  0  0  0  0  0  0  0
   -0.5695   -4.9103    3.3679 C   0  0  0  0  0  0  0  0  0  0  0  0
    0.2385   -4.6865    4.4855 C   0  0  0  0  0  0  0  0  0  0  0  0
   -0.5104   -4.1063    6.0126 S   0  0  0  0  0  0  0  0  0  0  0  0
    0.2729   -2.4559    5.9211 C   0  0  0  0  0  0  0  0  0  0  0  0
    1.6165   -4.9086    4.3998 C   0  0  0  0  0  0  0  0  0  0  0  0
    2.1899   -5.2531    3.1718 C   0  0  0  0  0  0  0  0  0  0  0  0
    3.0568   -6.7562    0.8238 C   0  0  0  0  0  0  0  0  0  0  0  0
    2.8149   -8.0638    1.2701 C   0  0  0  0  0  0  0  0  0  0  0  0
    3.8768   -8.9549    1.4412 C   0  0  0  0  0  0  0  0  0  0  0  0
    5.1891   -8.5446    1.1782 C   0  0  0  0  0  0  0  0  0  0  0  0
    6.5648   -9.6618    1.4657 S   0  0  0  0  0  0  0  0  0  0  0  0
    6.7681   -9.1653    3.2087 C   0  0  0  0  0  0  0  0  0  0  0  0
    5.4331   -7.2460    0.7134 C   0  0  0  0  0  0  0  0  0  0  0  0
    4.3737   -6.3538    0.5405 C   0  0  0  0  0  0  0  0  0  0  0  0
    2.1758   -5.4976   -1.7276 C   0  0  0  0  0  0  0  0  0  0  0  0
    2.7469   -6.9538   -2.3649 S   0  0  0  0  0  0  0  0  0  0  0  0
    0.8025   -2.8197    0.4822 C   0  0  0  0  0  0  0  0  0  0  0  0
   -0.5100   -2.2919    0.4532 C   0  0  0  0  0  0  0  0  0  0  0  0
   -1.6421   -2.9334   -0.1695 N   0  0  0  0  0  0  0  0  0  0  0  0
   -2.5998   -3.6570    0.6281 C   0  0  0  0  0  0  0  0  0  0  0  0
   -3.0964   -3.1236    1.8322 C   0  0  0  0  0  0  0  0  0  0  0  0
   -4.0392   -3.8309    2.5816 C   0  0  0  0  0  0  0  0  0  0  0  0
   -4.4822   -5.0853    2.1520 C   0  0  0  0  0  0  0  0  0  0  0  0
   -5.6042   -6.0352    3.1786 S   0  0  0  0  0  0  0  0  0  0  0  0
   -7.1040   -5.4230    2.3482 C   0  0  0  0  0  0  0  0  0  0  0  0
   -4.0042   -5.6189    0.9499 C   0  0  0  0  0  0  0  0  0  0  0  0
   -3.0812   -4.9015    0.1849 C   0  0  0  0  0  0  0  0  0  0  0  0
   -2.0373   -2.5815   -1.5053 C   0  0  0  0  0  0  0  0  0  0  0  0
   -3.0542   -1.6325   -1.6963 C   0  0  0  0  0  0  0  0  0  0  0  0
   -3.6593   -1.4817   -2.9450 C   0  0  0  0  0  0  0  0  0  0  0  0
   -3.2518   -2.2644   -4.0260 C   0  0  0  0  0  0  0  0  0  0  0  0
   -4.2363   -2.2762   -5.5275 S   0  0  0  0  0  0  0  0  0  0  0  0
   -3.5494   -0.7320   -6.1974 C   0  0  0  0  0  0  0  0  0  0  0  0
   -2.2029   -3.1790   -3.8610 C   0  0  0  0  0  0  0  0  0  0  0  0
   -1.6164   -3.3563   -2.5986 C   0  0  0  0  0  0  0  0  0  0  0  0
   -0.5552   -1.0278    1.0387 C   0  0  0  0  0  0  0  0  0  0  0  0
   -1.7003    0.1874    1.1266 S   0  0  0  0  0  0  0  0  0  0  0  0
   -0.6471    1.3573    1.7846 C   0  0  0  0  0  0  0  0  0  0  0  0
    0.6364    0.7732    1.9060 C   0  0  0  0  0  0  0  0  0  0  0  0
    1.8638    1.4807    2.1766 N   0  0  0  0  0  0  0  0  0  0  0  0
    2.8690    1.5105    1.1253 C   0  0  0  0  0  0  0  0  0  0  0  0
    2.4823    1.4814   -0.2322 C   0  0  0  0  0  0  0  0  0  0  0  0
    3.4316    1.2965   -1.2442 C   0  0  0  0  0  0  0  0  0  0  0  0
    4.7856    1.1849   -0.9232 C   0  0  0  0  0  0  0  0  0  0  0  0
    5.9954    0.9102   -2.2174 S   0  0  0  0  0  0  0  0  0  0  0  0
    5.9451   -0.9032   -2.0531 C   0  0  0  0  0  0  0  0  0  0  0  0
    5.1937    1.2864    0.4078 C   0  0  0  0  0  0  0  0  0  0  0  0
    4.2446    1.4213    1.4285 C   0  0  0  0  0  0  0  0  0  0  0  0
    2.2023    1.7940    3.5501 C   0  0  0  0  0  0  0  0  0  0  0  0
    1.8189    0.9312    4.5934 C   0  0  0  0  0  0  0  0  0  0  0  0
    2.1990    1.1979    5.9114 C   0  0  0  0  0  0  0  0  0  0  0  0
    2.9749    2.3230    6.2061 C   0  0  0  0  0  0  0  0  0  0  0  0
    3.5245    2.6096    7.8876 S   0  0  0  0  0  0  0  0  0  0  0  0
    5.0288    1.5935    7.7045 C   0  0  0  0  0  0  0  0  0  0  0  0
    3.3307    3.2114    5.1831 C   0  0  0  0  0  0  0  0  0  0  0  0
    2.9470    2.9485    3.8632 C   0  0  0  0  0  0  0  0  0  0  0  0
    0.6272   -0.5625    1.5020 C   0  0  0  0  0  0  0  0  0  0  0  0
    1.8354   -1.6867    1.2208 S   0  0  0  0  0  0  0  0  0  0  0  0
   -1.0513    2.7394    2.1437 C   0  0  0  0  0  0  0  0  0  0  0  0
   -2.3637    3.2639    2.1746 C   0  0  0  0  0  0  0  0  0  0  0  0
   -3.5374    2.6091    1.6692 N   0  0  0  0  0  0  0  0  0  0  0  0
   -3.8224    2.6077    0.2471 C   0  0  0  0  0  0  0  0  0  0  0  0
   -4.6902    1.6480   -0.3083 C   0  0  0  0  0  0  0  0  0  0  0  0
   -4.9845    1.6550   -1.6735 C   0  0  0  0  0  0  0  0  0  0  0  0
   -4.3832    2.5940   -2.5216 C   0  0  0  0  0  0  0  0  0  0  0  0
   -4.6821    2.5957   -3.9908 C   0  0  0  0  0  0  0  0  0  0  0  0
   -3.5148    3.5497   -1.9810 C   0  0  0  0  0  0  0  0  0  0  0  0
   -3.2383    3.5605   -0.6099 C   0  0  0  0  0  0  0  0  0  0  0  0
   -4.4899    2.0989    2.6187 C   0  0  0  0  0  0  0  0  0  0  0  0
   -5.8346    2.4984    2.5629 C   0  0  0  0  0  0  0  0  0  0  0  0
   -6.7695    1.9610    3.4536 C   0  0  0  0  0  0  0  0  0  0  0  0
   -6.3698    1.0239    4.4133 C   0  0  0  0  0  0  0  0  0  0  0  0
   -7.3835    0.3962    5.3251 C   0  0  0  0  0  0  0  0  0  0  0  0
   -5.0258    0.6315    4.4803 C   0  0  0  0  0  0  0  0  0  0  0  0
   -4.0888    1.1769    3.5963 C   0  0  0  0  0  0  0  0  0  0  0  0
   -2.3881    4.5503    2.7009 C   0  0  0  0  0  0  0  0  0  0  0  0
   -3.5788    5.6980    2.9762 S   0  0  0  0  0  0  0  0  0  0  0  0
   -2.5065    6.8719    3.6228 C   0  0  0  0  0  0  0  0  0  0  0  0
   -1.2067    6.3349    3.5876 C   0  0  0  0  0  0  0  0  0  0  0  0
   -0.0206    7.0418    3.9705 N   0  0  0  0  0  0  0  0  0  0  0  0
    0.3998    7.0463    5.3511 C   0  0  0  0  0  0  0  0  0  0  0  0
    0.2215    5.9100    6.1609 C   0  0  0  0  0  0  0  0  0  0  0  0
    0.7180    5.8849    7.4669 C   0  0  0  0  0  0  0  0  0  0  0  0
    1.4044    6.9928    7.9814 C   0  0  0  0  0  0  0  0  0  0  0  0
    1.9425    6.9611    9.3833 C   0  0  0  0  0  0  0  0  0  0  0  0
    1.5430    8.1467    7.1951 C   0  0  0  0  0  0  0  0  0  0  0  0
    1.0461    8.1714    5.8884 C   0  0  0  0  0  0  0  0  0  0  0  0
    0.8337    7.5756    2.9384 C   0  0  0  0  0  0  0  0  0  0  0  0
    0.2828    8.2525    1.8346 C   0  0  0  0  0  0  0  0  0  0  0  0
    1.1132    8.8103    0.8574 C   0  0  0  0  0  0  0  0  0  0  0  0
    2.5055    8.7058    0.9669 C   0  0  0  0  0  0  0  0  0  0  0  0
    3.3867    9.3186   -0.0779 C   0  0  0  0  0  0  0  0  0  0  0  0
    3.0611    7.9920    2.0417 C   0  0  0  0  0  0  0  0  0  0  0  0
    2.2319    7.4358    3.0193 C   0  0  0  0  0  0  0  0  0  0  0  0
   -1.1876    5.0540    3.0602 C   0  0  0  0  0  0  0  0  0  0  0  0
    0.0093    3.9326    2.7453 S   0  0  0  0  0  0  0  0  0  0  0  0
   -2.7996    8.2794    4.0008 C   0  0  0  0  0  0  0  0  0  0  0  0
   -3.9734    8.9411    3.8940 C   0  0  0  0  0  0  0  0  0  0  0  0
   -5.2596    8.4425    3.3857 C   0  0  0  0  0  0  0  0  0  0  0  0
   -5.7890    7.3340    3.6507 O   0  0  0  0  0  0  0  0  0  0  0  0
   -5.9476    9.5474    2.7452 C   0  0  0  0  0  0  0  0  0  0  0  0
   -7.0878    9.5062    1.9429 C   0  0  0  0  0  0  0  0  0  0  0  0
   -7.4916   10.6861    1.3026 C   0  0  0  0  0  0  0  0  0  0  0  0
   -8.5843   10.6796    0.5030 F   0  0  0  0  0  0  0  0  0  0  0  0
   -6.7425   11.8680    1.4595 C   0  0  0  0  0  0  0  0  0  0  0  0
   -7.1057   12.9937    0.7963 F   0  0  0  0  0  0  0  0  0  0  0  0
   -5.6005   11.8849    2.2823 C   0  0  0  0  0  0  0  0  0  0  0  0
   -5.2356   10.7117    2.9530 C   0  0  0  0  0  0  0  0  0  0  0  0
   -4.0718   10.4273    3.8235 C   0  0  0  0  0  0  0  0  0  0  0  0
   -3.4326   11.3094    4.6293 C   0  0  0  0  0  0  0  0  0  0  0  0
   -2.5351   10.8776    5.6723 C   0  0  0  0  0  0  0  0  0  0  0  0
   -1.8250   10.5251    6.5155 N   0  0  0  0  0  0  0  0  0  0  0  0
   -3.7465   12.7136    4.6232 C   0  0  0  0  0  0  0  0  0  0  0  0
   -3.9886   13.8451    4.6308 N   0  0  0  0  0  0  0  0  0  0  0  0
    4.5791   -7.2925   -5.0893 H   0  0  0  0  0  0  0  0  0  0  0  0
   -1.1234   -6.0478   -7.4578 H   0  0  0  0  0  0  0  0  0  0  0  0
    2.6682   -7.1114  -10.4979 H   0  0  0  0  0  0  0  0  0  0  0  0
    3.6062   -4.0127   -7.6098 H   0  0  0  0  0  0  0  0  0  0  0  0
    5.7989   -4.0092   -8.7395 H   0  0  0  0  0  0  0  0  0  0  0  0
    7.8005   -1.7468   -8.4035 H   0  0  0  0  0  0  0  0  0  0  0  0
    9.5335   -1.7826   -7.8946 H   0  0  0  0  0  0  0  0  0  0  0  0
    8.2407   -1.7880   -6.6407 H   0  0  0  0  0  0  0  0  0  0  0  0
    7.7662   -4.2654   -4.9222 H   0  0  0  0  0  0  0  0  0  0  0  0
    5.5775   -4.2848   -3.7868 H   0  0  0  0  0  0  0  0  0  0  0  0
    3.9002   -1.4511   -4.6503 H   0  0  0  0  0  0  0  0  0  0  0  0
    2.6046    0.5340   -5.3354 H   0  0  0  0  0  0  0  0  0  0  0  0
   -1.1647    0.1584   -4.5620 H   0  0  0  0  0  0  0  0  0  0  0  0
   -0.0668    1.5754   -4.2824 H   0  0  0  0  0  0  0  0  0  0  0  0
   -1.6419    1.7985   -5.1290 H   0  0  0  0  0  0  0  0  0  0  0  0
   -0.5650   -2.0294   -6.7185 H   0  0  0  0  0  0  0  0  0  0  0  0
    0.6908   -3.9979   -5.9697 H   0  0  0  0  0  0  0  0  0  0  0  0
   -0.6298   -5.4913    1.2949 H   0  0  0  0  0  0  0  0  0  0  0  0
   -1.6378   -4.7957    3.4509 H   0  0  0  0  0  0  0  0  0  0  0  0
    0.2505   -2.0722    4.8794 H   0  0  0  0  0  0  0  0  0  0  0  0
   -0.2759   -1.7512    6.5743 H   0  0  0  0  0  0  0  0  0  0  0  0
    1.3285   -2.5325    6.2708 H   0  0  0  0  0  0  0  0  0  0  0  0
    2.2523   -4.7691    5.2679 H   0  0  0  0  0  0  0  0  0  0  0  0
    3.2621   -5.3801    3.1205 H   0  0  0  0  0  0  0  0  0  0  0  0
    1.8072   -8.3796    1.5069 H   0  0  0  0  0  0  0  0  0  0  0  0
    3.6823   -9.9604    1.7952 H   0  0  0  0  0  0  0  0  0  0  0  0
    7.7720   -9.4817    3.5592 H   0  0  0  0  0  0  0  0  0  0  0  0
    5.9959   -9.6635    3.8319 H   0  0  0  0  0  0  0  0  0  0  0  0
    6.6826   -8.0640    3.3255 H   0  0  0  0  0  0  0  0  0  0  0  0
    6.4447   -6.9185    0.5157 H   0  0  0  0  0  0  0  0  0  0  0  0
    4.5751   -5.3394    0.2265 H   0  0  0  0  0  0  0  0  0  0  0  0
   -2.7624   -2.1679    2.2018 H   0  0  0  0  0  0  0  0  0  0  0  0
   -4.4056   -3.4174    3.5125 H   0  0  0  0  0  0  0  0  0  0  0  0
   -7.2201   -5.9402    1.3714 H   0  0  0  0  0  0  0  0  0  0  0  0
   -7.0448   -4.3323    2.1752 H   0  0  0  0  0  0  0  0  0  0  0  0
   -7.9800   -5.6445    2.9863 H   0  0  0  0  0  0  0  0  0  0  0  0
   -4.3412   -6.5900    0.6111 H   0  0  0  0  0  0  0  0  0  0  0  0
   -2.7156   -5.3269   -0.7394 H   0  0  0  0  0  0  0  0  0  0  0  0
   -3.4317   -1.0671   -0.8547 H   0  0  0  0  0  0  0  0  0  0  0  0
   -4.4880   -0.8010   -3.0639 H   0  0  0  0  0  0  0  0  0  0  0  0
   -2.4882   -0.8872   -6.4723 H   0  0  0  0  0  0  0  0  0  0  0  0
   -3.6427    0.0933   -5.4613 H   0  0  0  0  0  0  0  0  0  0  0  0
   -4.1219   -0.4682   -7.1132 H   0  0  0  0  0  0  0  0  0  0  0  0
   -1.8998   -3.8193   -4.6797 H   0  0  0  0  0  0  0  0  0  0  0  0
   -0.8981   -4.1517   -2.4597 H   0  0  0  0  0  0  0  0  0  0  0  0
    1.4373    1.5423   -0.5084 H   0  0  0  0  0  0  0  0  0  0  0  0
    3.1060    1.2247   -2.2737 H   0  0  0  0  0  0  0  0  0  0  0  0
    6.1653   -1.1923   -1.0056 H   0  0  0  0  0  0  0  0  0  0  0  0
    4.9485   -1.2931   -2.3447 H   0  0  0  0  0  0  0  0  0  0  0  0
    6.7229   -1.3618   -2.7081 H   0  0  0  0  0  0  0  0  0  0  0  0
    6.2406    1.2041    0.6685 H   0  0  0  0  0  0  0  0  0  0  0  0
    4.5896    1.3906    2.4532 H   0  0  0  0  0  0  0  0  0  0  0  0
    1.2536    0.0335    4.3874 H   0  0  0  0  0  0  0  0  0  0  0  0
    1.9131    0.5175    6.7004 H   0  0  0  0  0  0  0  0  0  0  0  0
    4.8326    0.6754    7.1060 H   0  0  0  0  0  0  0  0  0  0  0  0
    5.8292    2.1891    7.2171 H   0  0  0  0  0  0  0  0  0  0  0  0
    5.3797    1.2772    8.7090 H   0  0  0  0  0  0  0  0  0  0  0  0
    3.9150    4.0958    5.4052 H   0  0  0  0  0  0  0  0  0  0  0  0
    3.2361    3.6370    3.0804 H   0  0  0  0  0  0  0  0  0  0  0  0
   -5.1367    0.8836    0.3162 H   0  0  0  0  0  0  0  0  0  0  0  0
   -5.6829    0.9248   -2.0604 H   0  0  0  0  0  0  0  0  0  0  0  0
   -5.2895    3.4871   -4.2476 H   0  0  0  0  0  0  0  0  0  0  0  0
   -5.2422    1.6821   -4.2920 H   0  0  0  0  0  0  0  0  0  0  0  0
   -3.7387    2.6278   -4.5694 H   0  0  0  0  0  0  0  0  0  0  0  0
   -3.0575    4.2971   -2.6202 H   0  0  0  0  0  0  0  0  0  0  0  0
   -2.5711    4.3221   -0.2248 H   0  0  0  0  0  0  0  0  0  0  0  0
   -6.1570    3.2208    1.8238 H   0  0  0  0  0  0  0  0  0  0  0  0
   -7.8074    2.2672    3.3790 H   0  0  0  0  0  0  0  0  0  0  0  0
   -7.7369   -0.5611    4.8826 H   0  0  0  0  0  0  0  0  0  0  0  0
   -6.9377    0.1900    6.3244 H   0  0  0  0  0  0  0  0  0  0  0  0
   -8.2570    1.0718    5.4725 H   0  0  0  0  0  0  0  0  0  0  0  0
   -4.7046   -0.1030    5.2103 H   0  0  0  0  0  0  0  0  0  0  0  0
   -3.0554    0.8600    3.6639 H   0  0  0  0  0  0  0  0  0  0  0  0
   -0.2731    5.0277    5.7804 H   0  0  0  0  0  0  0  0  0  0  0  0
    0.5863    4.9945    8.0706 H   0  0  0  0  0  0  0  0  0  0  0  0
    2.7776    7.6842    9.5081 H   0  0  0  0  0  0  0  0  0  0  0  0
    1.1330    7.2179   10.0954 H   0  0  0  0  0  0  0  0  0  0  0  0
    2.3306    5.9475    9.6304 H   0  0  0  0  0  0  0  0  0  0  0  0
    2.0509    9.0211    7.5833 H   0  0  0  0  0  0  0  0  0  0  0  0
    1.1784    9.0605    5.2894 H   0  0  0  0  0  0  0  0  0  0  0  0
   -0.7890    8.3666    1.7375 H   0  0  0  0  0  0  0  0  0  0  0  0
    0.6703    9.3465    0.0235 H   0  0  0  0  0  0  0  0  0  0  0  0
    3.0597   10.3605   -0.2868 H   0  0  0  0  0  0  0  0  0  0  0  0
    4.4484    9.3506    0.2541 H   0  0  0  0  0  0  0  0  0  0  0  0
    3.3223    8.7231   -1.0153 H   0  0  0  0  0  0  0  0  0  0  0  0
    4.1340    7.8798    2.1325 H   0  0  0  0  0  0  0  0  0  0  0  0
    2.6807    6.8905    3.8398 H   0  0  0  0  0  0  0  0  0  0  0  0
   -1.9231    8.8612    4.2377 H   0  0  0  0  0  0  0  0  0  0  0  0
   -7.6238    8.5762    1.7872 H   0  0  0  0  0  0  0  0  0  0  0  0
   -5.0146   12.7882    2.3495 H   0  0  0  0  0  0  0  0  0  0  0  0
  1  2  2  3
  2  3  1  0
  3  4  2  0
  3  5  1  0
  5  6  2  0
  6  7  1  0
  7  8  1  0
  7  9  2  0
  9 10  1  0
  9 11  1  0
 11 12  2  0
 12 13  1  0
 13 14  2  3
 14 15  1  0
 15 16  3  0
 14 17  1  0
 17 18  3  0
  1 19  1  0
 19 20  2  0
 20 21  1  0
 21 22  1  0
 22 23  2  0
 23 24  1  0
 24 25  2  0
 25 26  1  0
 26 27  1  0
 25 28  1  0
 28 29  2  0
 21 30  1  0
 30 31  2  0
 31 32  1  0
 32 33  2  0
 33 34  1  0
 34 35  1  0
 33 36  1  0
 36 37  2  0
 20 38  1  0
 38 39  1  0
 39 40  1  0
 40 41  2  0
 41 42  1  0
 42 43  1  0
 43 44  2  0
 44 45  1  0
 45 46  2  0
 46 47  1  0
 47 48  1  0
 46 49  1  0
 49 50  2  0
 42 51  1  0
 51 52  2  0
 52 53  1  0
 53 54  2  0
 54 55  1  0
 55 56  1  0
 54 57  1  0
 57 58  2  0
 41 59  1  0
 59 60  1  0
 40 61  1  0
 61 62  2  0
 62 63  1  0
 63 64  1  0
 64 65  2  0
 65 66  1  0
 66 67  2  0
 67 68  1  0
 68 69  1  0
 67 70  1  0
 70 71  2  0
 63 72  1  0
 72 73  2  0
 73 74  1  0
 74 75  2  0
 75 76  1  0
 76 77  1  0
 75 78  1  0
 78 79  2  0
 62 80  1  0
 80 81  1  0
 81 82  1  0
 82 83  2  0
 83 84  1  0
 84 85  1  0
 85 86  2  0
 86 87  1  0
 87 88  2  0
 88 89  1  0
 89 90  1  0
 88 91  1  0
 91 92  2  0
 84 93  1  0
 93 94  2  0
 94 95  1  0
 95 96  2  0
 96 97  1  0
 97 98  1  0
 96 99  1  0
 99100  2  0
 83101  1  0
101102  1  0
 82103  1  0
103104  2  0
104105  1  0
105106  1  0
106107  2  0
107108  1  0
108109  2  0
109110  1  0
109111  1  0
111112  2  0
105113  1  0
113114  2  0
114115  1  0
115116  2  0
116117  1  0
116118  1  0
118119  2  0
104120  1  0
120121  1  0
121122  1  0
122123  2  0
123124  1  0
124125  1  0
125126  2  0
126127  1  0
127128  2  0
128129  1  0
128130  1  0
130131  2  0
124132  1  0
132133  2  0
133134  1  0
134135  2  0
135136  1  0
135137  1  0
137138  2  0
123139  1  0
139140  1  0
122141  1  0
141142  2  3
142143  1  0
143144  2  0
143145  1  0
145146  2  0
146147  1  0
147148  1  0
147149  2  0
149150  1  0
149151  1  0
151152  2  0
152153  1  0
153154  2  3
154155  1  0
155156  3  0
154157  1  0
157158  3  0
 13  2  1  0
 60 19  1  0
102 61  1  0
140103  1  0
153142  1  0
 12  5  1  0
 29 22  1  0
 37 30  1  0
 59 38  2  0
 71 64  1  0
 79 72  1  0
101 80  2  0
112106  1  0
119113  1  0
139120  2  0
152145  1  0
 50 43  1  0
 58 51  1  0
 92 85  1  0
100 93  1  0
131125  1  0
138132  1  0
  1159  1  0
  6160  1  0
 11161  1  0
 23162  1  0
 24163  1  0
 27164  1  0
 27165  1  0
 27166  1  0
 28167  1  0
 29168  1  0
 31169  1  0
 32170  1  0
 35171  1  0
 35172  1  0
 35173  1  0
 36174  1  0
 37175  1  0
 44176  1  0
 45177  1  0
 48178  1  0
 48179  1  0
 48180  1  0
 49181  1  0
 50182  1  0
 52183  1  0
 53184  1  0
 56185  1  0
 56186  1  0
 56187  1  0
 57188  1  0
 58189  1  0
 65190  1  0
 66191  1  0
 69192  1  0
 69193  1  0
 69194  1  0
 70195  1  0
 71196  1  0
 73197  1  0
 74198  1  0
 77199  1  0
 77200  1  0
 77201  1  0
 78202  1  0
 79203  1  0
 86204  1  0
 87205  1  0
 90206  1  0
 90207  1  0
 90208  1  0
 91209  1  0
 92210  1  0
 94211  1  0
 95212  1  0
 98213  1  0
 98214  1  0
 98215  1  0
 99216  1  0
100217  1  0
107218  1  0
108219  1  0
110220  1  0
110221  1  0
110222  1  0
111223  1  0
112224  1  0
114225  1  0
115226  1  0
117227  1  0
117228  1  0
117229  1  0
118230  1  0
119231  1  0
126232  1  0
127233  1  0
129234  1  0
129235  1  0
129236  1  0
130237  1  0
131238  1  0
133239  1  0
134240  1  0
136241  1  0
136242  1  0
136243  1  0
137244  1  0
138245  1  0
141246  1  0
146247  1  0
151248  1  0
M  END

