
     RDKit          3D

152167  0  0  0  0  0  0  0  0999 V2000
    0.9854    2.6433   10.5538 C   0  0  0  0  0  0  0  0  0  0  0  0
    1.9563    3.3745    9.9591 C   0  0  0  0  0  0  0  0  0  0  0  0
    2.1651    3.4844    8.5033 C   0  0  0  0  0  0  0  0  0  0  0  0
    1.3927    3.0782    7.5930 O   0  0  0  0  0  0  0  0  0  0  0  0
    3.4365    4.1182    8.2694 C   0  0  0  0  0  0  0  0  0  0  0  0
    4.0869    4.3109    7.0482 C   0  0  0  0  0  0  0  0  0  0  0  0
    5.3680    4.8879    7.0608 C   0  0  0  0  0  0  0  0  0  0  0  0
    6.0179    5.0972    5.8934 F   0  0  0  0  0  0  0  0  0  0  0  0
    5.9711    5.2365    8.2838 C   0  0  0  0  0  0  0  0  0  0  0  0
    7.2160    5.7731    8.2911 F   0  0  0  0  0  0  0  0  0  0  0  0
    5.3044    5.0144    9.5020 C   0  0  0  0  0  0  0  0  0  0  0  0
    4.0064    4.4713    9.4781 C   0  0  0  0  0  0  0  0  0  0  0  0
    3.0785    4.1353   10.5963 C   0  0  0  0  0  0  0  0  0  0  0  0
    3.0543    4.7463   11.8166 C   0  0  0  0  0  0  0  0  0  0  0  0
    1.9951    4.5404   12.7632 C   0  0  0  0  0  0  0  0  0  0  0  0
    1.1468    4.3791   13.5342 N   0  0  0  0  0  0  0  0  0  0  0  0
    3.9904    5.7837   12.1703 C   0  0  0  0  0  0  0  0  0  0  0  0
    4.7190    6.6504   12.4387 N   0  0  0  0  0  0  0  0  0  0  0  0
   -0.1275    2.0839    9.7721 C   0  0  0  0  0  0  0  0  0  0  0  0
    0.0863    0.9281    9.0018 C   0  0  0  0  0  0  0  0  0  0  0  0
   -0.7449    0.7045    7.9045 C   0  0  0  0  0  0  0  0  0  0  0  0
   -0.4269   -0.0683    6.7115 C   0  0  0  0  0  0  0  0  0  0  0  0
    0.5023   -0.9080    6.5797 O   0  0  0  0  0  0  0  0  0  0  0  0
   -1.2759    0.4458    5.6426 C   0  0  0  0  0  0  0  0  0  0  0  0
   -2.1176    1.4014    6.1716 C   0  0  0  0  0  0  0  0  0  0  0  0
   -1.7847    1.5693    7.5949 C   0  0  0  0  0  0  0  0  0  0  0  0
   -2.0820    2.6584    8.4164 C   0  0  0  0  0  0  0  0  0  0  0  0
   -1.2478    2.9052    9.5207 C   0  0  0  0  0  0  0  0  0  0  0  0
   -2.8883    2.2195    5.3380 C   0  0  0  0  0  0  0  0  0  0  0  0
   -2.7489    2.0862    3.9445 C   0  0  0  0  0  0  0  0  0  0  0  0
   -1.7983    1.1886    3.3862 C   0  0  0  0  0  0  0  0  0  0  0  0
   -1.0952    0.3237    4.2666 C   0  0  0  0  0  0  0  0  0  0  0  0
   -1.4239    1.1957    1.9371 C   0  0  0  0  0  0  0  0  0  0  0  0
   -1.8968    2.0086    0.8673 C   0  0  0  0  0  0  0  0  0  0  0  0
   -2.8901    3.0390    0.9553 N   0  0  0  0  0  0  0  0  0  0  0  0
   -2.5564    4.3621    1.4536 C   0  0  0  0  0  0  0  0  0  0  0  0
   -3.5637    5.3386    1.6355 C   0  0  0  0  0  0  0  0  0  0  0  0
   -3.2615    6.5935    2.1565 C   0  0  0  0  0  0  0  0  0  0  0  0
   -1.9542    6.8954    2.5422 C   0  0  0  0  0  0  0  0  0  0  0  0
   -1.6063    8.4724    3.3288 S   0  0  0  0  0  0  0  0  0  0  0  0
   -0.8474    9.2146    1.8541 C   0  0  0  0  0  0  0  0  0  0  0  0
   -0.9462    5.9428    2.3871 C   0  0  0  0  0  0  0  0  0  0  0  0
   -1.2397    4.6900    1.8433 C   0  0  0  0  0  0  0  0  0  0  0  0
   -4.1664    2.7741    0.3439 C   0  0  0  0  0  0  0  0  0  0  0  0
   -4.5666    3.4774   -0.8048 C   0  0  0  0  0  0  0  0  0  0  0  0
   -5.8389    3.2788   -1.3431 C   0  0  0  0  0  0  0  0  0  0  0  0
   -6.7263    2.3847   -0.7337 C   0  0  0  0  0  0  0  0  0  0  0  0
   -8.3828    2.1874   -1.3891 S   0  0  0  0  0  0  0  0  0  0  0  0
   -7.9587    0.6980   -2.3457 C   0  0  0  0  0  0  0  0  0  0  0  0
   -6.3274    1.6725    0.3986 C   0  0  0  0  0  0  0  0  0  0  0  0
   -5.0512    1.8619    0.9411 C   0  0  0  0  0  0  0  0  0  0  0  0
   -1.2124    1.7426   -0.3208 C   0  0  0  0  0  0  0  0  0  0  0  0
   -1.2423    2.3644   -1.8766 S   0  0  0  0  0  0  0  0  0  0  0  0
    0.0458    1.3996   -2.4704 C   0  0  0  0  0  0  0  0  0  0  0  0
    0.5093    0.6005   -1.3856 C   0  0  0  0  0  0  0  0  0  0  0  0
    1.6220   -0.3080   -1.4098 N   0  0  0  0  0  0  0  0  0  0  0  0
    1.3349   -1.7220   -1.4910 C   0  0  0  0  0  0  0  0  0  0  0  0
    0.3132   -2.1949   -2.3353 C   0  0  0  0  0  0  0  0  0  0  0  0
   -0.0048   -3.5502   -2.3720 C   0  0  0  0  0  0  0  0  0  0  0  0
    0.6835   -4.4551   -1.5581 C   0  0  0  0  0  0  0  0  0  0  0  0
    0.2379   -6.1903   -1.5664 S   0  0  0  0  0  0  0  0  0  0  0  0
   -1.0144   -5.9865   -0.2640 C   0  0  0  0  0  0  0  0  0  0  0  0
    1.7098   -4.0002   -0.7196 C   0  0  0  0  0  0  0  0  0  0  0  0
    2.0272   -2.6440   -0.6827 C   0  0  0  0  0  0  0  0  0  0  0  0
    2.9607    0.1858   -1.1440 C   0  0  0  0  0  0  0  0  0  0  0  0
    4.0815   -0.4584   -1.7037 C   0  0  0  0  0  0  0  0  0  0  0  0
    5.3733    0.0046   -1.4479 C   0  0  0  0  0  0  0  0  0  0  0  0
    5.5636    1.1132   -0.6143 C   0  0  0  0  0  0  0  0  0  0  0  0
    7.2248    1.6779   -0.2455 S   0  0  0  0  0  0  0  0  0  0  0  0
    7.4668    0.4706    1.0924 C   0  0  0  0  0  0  0  0  0  0  0  0
    4.4581    1.7799   -0.0727 C   0  0  0  0  0  0  0  0  0  0  0  0
    3.1651    1.3279   -0.3456 C   0  0  0  0  0  0  0  0  0  0  0  0
   -0.2396    0.8163   -0.2353 C   0  0  0  0  0  0  0  0  0  0  0  0
   -0.1643    0.2179    1.3173 S   0  0  0  0  0  0  0  0  0  0  0  0
    0.4054    1.2844   -3.9138 C   0  0  0  0  0  0  0  0  0  0  0  0
    1.5605    0.5879   -4.3346 C   0  0  0  0  0  0  0  0  0  0  0  0
    1.7103    0.2791   -5.6801 C   0  0  0  0  0  0  0  0  0  0  0  0
    2.6097   -0.7020   -6.2853 C   0  0  0  0  0  0  0  0  0  0  0  0
    3.4755   -1.3897   -5.6908 O   0  0  0  0  0  0  0  0  0  0  0  0
    2.1358   -0.8912   -7.6484 C   0  0  0  0  0  0  0  0  0  0  0  0
    1.0550   -0.0484   -7.8627 C   0  0  0  0  0  0  0  0  0  0  0  0
    0.7836    0.6783   -6.6208 C   0  0  0  0  0  0  0  0  0  0  0  0
   -0.3206    1.4476   -6.2562 C   0  0  0  0  0  0  0  0  0  0  0  0
   -0.5040    1.7568   -4.8983 C   0  0  0  0  0  0  0  0  0  0  0  0
    0.3060   -0.1263   -9.0313 C   0  0  0  0  0  0  0  0  0  0  0  0
    0.6578   -1.0997   -9.9874 C   0  0  0  0  0  0  0  0  0  0  0  0
    1.7116   -2.0106   -9.7348 C   0  0  0  0  0  0  0  0  0  0  0  0
    2.4817   -1.8838   -8.5604 C   0  0  0  0  0  0  0  0  0  0  0  0
    1.9321   -3.1403  -10.6587 C   0  0  0  0  0  0  0  0  0  0  0  0
    1.8024   -4.4277  -10.2904 C   0  0  0  0  0  0  0  0  0  0  0  0
    1.5279   -4.9077   -8.9307 C   0  0  0  0  0  0  0  0  0  0  0  0
    0.9067   -4.2805   -8.0379 O   0  0  0  0  0  0  0  0  0  0  0  0
    1.8734   -6.3139   -8.8725 C   0  0  0  0  0  0  0  0  0  0  0  0
    1.8140   -7.1693   -7.7745 C   0  0  0  0  0  0  0  0  0  0  0  0
    2.1726   -8.5099   -7.9497 C   0  0  0  0  0  0  0  0  0  0  0  0
    2.0768   -9.7222   -6.4823 Br  0  0  0  0  0  0  0  0  0  0  0  0
    2.5535   -8.9784   -9.2239 C   0  0  0  0  0  0  0  0  0  0  0  0
    2.6154   -8.1005  -10.3212 C   0  0  0  0  0  0  0  0  0  0  0  0
    2.2460   -6.7579  -10.1388 C   0  0  0  0  0  0  0  0  0  0  0  0
    2.1204   -5.6352  -11.1139 C   0  0  0  0  0  0  0  0  0  0  0  0
    2.0446   -5.7276  -12.4673 C   0  0  0  0  0  0  0  0  0  0  0  0
    2.3396   -6.9367  -13.1835 C   0  0  0  0  0  0  0  0  0  0  0  0
    2.5624   -7.9103  -13.7716 N   0  0  0  0  0  0  0  0  0  0  0  0
    1.4562   -4.6781  -13.2583 C   0  0  0  0  0  0  0  0  0  0  0  0
    0.9701   -3.8267  -13.8714 N   0  0  0  0  0  0  0  0  0  0  0  0
    0.9694    2.4987   11.6218 H   0  0  0  0  0  0  0  0  0  0  0  0
    3.6284    4.0016    6.1188 H   0  0  0  0  0  0  0  0  0  0  0  0
    5.8142    5.2345   10.4255 H   0  0  0  0  0  0  0  0  0  0  0  0
    1.0030    0.3522    9.1185 H   0  0  0  0  0  0  0  0  0  0  0  0
   -2.8439    3.3808    8.1360 H   0  0  0  0  0  0  0  0  0  0  0  0
   -1.3903    3.8159   10.0885 H   0  0  0  0  0  0  0  0  0  0  0  0
   -3.5412    2.9795    5.7545 H   0  0  0  0  0  0  0  0  0  0  0  0
   -3.3417    2.7356    3.3330 H   0  0  0  0  0  0  0  0  0  0  0  0
   -0.3454   -0.3707    3.9194 H   0  0  0  0  0  0  0  0  0  0  0  0
   -4.5948    5.1268    1.3831 H   0  0  0  0  0  0  0  0  0  0  0  0
   -4.0474    7.3210    2.3010 H   0  0  0  0  0  0  0  0  0  0  0  0
   -1.5450    9.1491    0.9901 H   0  0  0  0  0  0  0  0  0  0  0  0
    0.0994    8.6870    1.6224 H   0  0  0  0  0  0  0  0  0  0  0  0
   -0.6398   10.2922    2.0653 H   0  0  0  0  0  0  0  0  0  0  0  0
    0.0689    6.1727    2.6957 H   0  0  0  0  0  0  0  0  0  0  0  0
   -0.4350    3.9712    1.7426 H   0  0  0  0  0  0  0  0  0  0  0  0
   -3.8886    4.1891   -1.2637 H   0  0  0  0  0  0  0  0  0  0  0  0
   -6.1462    3.8492   -2.2122 H   0  0  0  0  0  0  0  0  0  0  0  0
   -7.6912   -0.1323   -1.6545 H   0  0  0  0  0  0  0  0  0  0  0  0
   -7.1016    0.8951   -3.0314 H   0  0  0  0  0  0  0  0  0  0  0  0
   -8.8390    0.3850   -2.9516 H   0  0  0  0  0  0  0  0  0  0  0  0
   -7.0166    0.9924    0.8865 H   0  0  0  0  0  0  0  0  0  0  0  0
   -4.7622    1.3220    1.8310 H   0  0  0  0  0  0  0  0  0  0  0  0
   -0.2376   -1.5120   -2.9660 H   0  0  0  0  0  0  0  0  0  0  0  0
   -0.8012   -3.9003   -3.0216 H   0  0  0  0  0  0  0  0  0  0  0  0
   -1.8441   -5.3471   -0.6255 H   0  0  0  0  0  0  0  0  0  0  0  0
   -0.5594   -5.5253    0.6436 H   0  0  0  0  0  0  0  0  0  0  0  0
   -1.4263   -6.9793    0.0131 H   0  0  0  0  0  0  0  0  0  0  0  0
    2.2423   -4.6995   -0.0848 H   0  0  0  0  0  0  0  0  0  0  0  0
    2.8031   -2.3068   -0.0032 H   0  0  0  0  0  0  0  0  0  0  0  0
    3.9605   -1.3305   -2.3377 H   0  0  0  0  0  0  0  0  0  0  0  0
    6.2301   -0.5075   -1.8687 H   0  0  0  0  0  0  0  0  0  0  0  0
    8.4199    0.7009    1.6210 H   0  0  0  0  0  0  0  0  0  0  0  0
    7.5565   -0.5473    0.6639 H   0  0  0  0  0  0  0  0  0  0  0  0
    6.6261    0.4966    1.8115 H   0  0  0  0  0  0  0  0  0  0  0  0
    4.6029    2.6366    0.5739 H   0  0  0  0  0  0  0  0  0  0  0  0
    2.3332    1.8549    0.0923 H   0  0  0  0  0  0  0  0  0  0  0  0
    2.2948    0.2041   -3.6641 H   0  0  0  0  0  0  0  0  0  0  0  0
   -1.0677    1.7228   -6.9857 H   0  0  0  0  0  0  0  0  0  0  0  0
   -1.3974    2.2971   -4.6110 H   0  0  0  0  0  0  0  0  0  0  0  0
   -0.5572    0.5054   -9.1856 H   0  0  0  0  0  0  0  0  0  0  0  0
    0.0652   -1.1972  -10.8904 H   0  0  0  0  0  0  0  0  0  0  0  0
    3.2790   -2.5784   -8.3333 H   0  0  0  0  0  0  0  0  0  0  0  0
    2.2310   -2.8747  -11.6625 H   0  0  0  0  0  0  0  0  0  0  0  0
    1.5132   -6.7924   -6.8050 H   0  0  0  0  0  0  0  0  0  0  0  0
    2.8191  -10.0193   -9.3630 H   0  0  0  0  0  0  0  0  0  0  0  0
    2.9525   -8.4825  -11.2687 H   0  0  0  0  0  0  0  0  0  0  0  0
  1  2  2  3
  2  3  1  0
  3  4  2  0
  3  5  1  0
  5  6  2  0
  6  7  1  0
  7  8  1  0
  7  9  2  0
  9 10  1  0
  9 11  1  0
 11 12  2  0
 12 13  1  0
 13 14  2  3
 14 15  1  0
 15 16  3  0
 14 17  1  0
 17 18  3  0
  1 19  1  0
 19 20  2  0
 20 21  1  0
 21 22  1  0
 22 23  2  0
 22 24  1  0
 24 25  2  0
 25 26  1  0
 26 27  1  0
 27 28  2  0
 25 29  1  0
 29 30  2  0
 30 31  1  0
 31 32  2  0
 31 33  1  0
 33 34  2  0
 34 35  1  0
 35 36  1  0
 36 37  2  0
 37 38  1  0
 38 39  2  0
 39 40  1  0
 40 41  1  0
 39 42  1  0
 42 43  2  0
 35 44  1  0
 44 45  2  0
 45 46  1  0
 46 47  2  0
 47 48  1  0
 48 49  1  0
 47 50  1  0
 50 51  2  0
 34 52  1  0
 52 53  1  0
 53 54  1  0
 54 55  2  0
 55 56  1  0
 56 57  1  0
 57 58  2  0
 58 59  1  0
 59 60  2  0
 60 61  1  0
 61 62  1  0
 60 63  1  0
 63 64  2  0
 56 65  1  0
 65 66  2  0
 66 67  1  0
 67 68  2  0
 68 69  1  0
 69 70  1  0
 68 71  1  0
 71 72  2  0
 55 73  1  0
 73 74  1  0
 54 75  1  0
 75 76  2  0
 76 77  1  0
 77 78  1  0
 78 79  2  0
 78 80  1  0
 80 81  2  0
 81 82  1  0
 82 83  1  0
 83 84  2  0
 81 85  1  0
 85 86  2  0
 86 87  1  0
 87 88  2  0
 87 89  1  0
 89 90  2  3
 90 91  1  0
 91 92  2  0
 91 93  1  0
 93 94  2  0
 94 95  1  0
 95 96  1  0
 95 97  2  0
 97 98  1  0
 98 99  2  0
 99100  1  0
100101  2  3
101102  1  0
102103  3  0
101104  1  0
104105  3  0
 13  2  1  0
 28 19  1  0
 74 33  1  0
 84 75  1  0
100 90  1  0
 12  5  1  0
 26 21  2  0
 43 36  1  0
 51 44  1  0
 73 52  2  0
 82 77  2  0
 99 93  1  0
 32 24  1  0
 64 57  1  0
 72 65  1  0
 88 80  1  0
  1106  1  0
  6107  1  0
 11108  1  0
 20109  1  0
 27110  1  0
 28111  1  0
 29112  1  0
 30113  1  0
 32114  1  0
 37115  1  0
 38116  1  0
 41117  1  0
 41118  1  0
 41119  1  0
 42120  1  0
 43121  1  0
 45122  1  0
 46123  1  0
 49124  1  0
 49125  1  0
 49126  1  0
 50127  1  0
 51128  1  0
 58129  1  0
 59130  1  0
 62131  1  0
 62132  1  0
 62133  1  0
 63134  1  0
 64135  1  0
 66136  1  0
 67137  1  0
 70138  1  0
 70139  1  0
 70140  1  0
 71141  1  0
 72142  1  0
 76143  1  0
 83144  1  0
 84145  1  0
 85146  1  0
 86147  1  0
 88148  1  0
 89149  1  0
 94150  1  0
 97151  1  0
 98152  1  0
M  END

