
     RDKit          3D

 85 95  0  0  0  0  0  0  0  0999 V2000
    1.7114   -7.1282    3.0472 C   0  0  0  0  0  0  0  0  0  0  0  0
    0.7445   -7.8207    3.6858 C   0  0  0  0  0  0  0  0  0  0  0  0
    0.4008   -9.1192    3.0677 C   0  0  0  0  0  0  0  0  0  0  0  0
    1.2053  -10.0448    2.8196 O   0  0  0  0  0  0  0  0  0  0  0  0
   -1.0480   -9.2559    2.9763 C   0  0  0  0  0  0  0  0  0  0  0  0
   -1.8175  -10.2124    2.2871 C   0  0  0  0  0  0  0  0  0  0  0  0
   -3.1454   -9.8803    1.9471 C   0  0  0  0  0  0  0  0  0  0  0  0
   -3.8846  -10.7751    1.2437 F   0  0  0  0  0  0  0  0  0  0  0  0
   -3.6298   -8.6028    2.2410 C   0  0  0  0  0  0  0  0  0  0  0  0
   -4.8689   -8.2525    1.9026 F   0  0  0  0  0  0  0  0  0  0  0  0
   -2.8880   -7.7143    3.0164 C   0  0  0  0  0  0  0  0  0  0  0  0
   -1.6104   -8.0970    3.4295 C   0  0  0  0  0  0  0  0  0  0  0  0
   -0.5893   -7.2159    4.0391 C   0  0  0  0  0  0  0  0  0  0  0  0
   -0.7788   -6.6471    5.2502 C   0  0  0  0  0  0  0  0  0  0  0  0
    0.3423   -6.2494    6.1153 C   0  0  0  0  0  0  0  0  0  0  0  0
    1.2146   -5.8559    6.7589 N   0  0  0  0  0  0  0  0  0  0  0  0
   -2.1053   -6.3529    5.7318 C   0  0  0  0  0  0  0  0  0  0  0  0
   -3.1870   -6.0444    5.9967 N   0  0  0  0  0  0  0  0  0  0  0  0
    1.7555   -5.6517    2.9317 C   0  0  0  0  0  0  0  0  0  0  0  0
    2.3079   -4.8097    3.8876 C   0  0  0  0  0  0  0  0  0  0  0  0
    2.0529   -3.4210    3.7411 C   0  0  0  0  0  0  0  0  0  0  0  0
    2.4407   -2.2726    4.5755 C   0  0  0  0  0  0  0  0  0  0  0  0
    3.2373   -2.3097    5.5805 O   0  0  0  0  0  0  0  0  0  0  0  0
    1.9900   -1.0794    3.8864 C   0  0  0  0  0  0  0  0  0  0  0  0
    1.2492   -1.4845    2.7733 C   0  0  0  0  0  0  0  0  0  0  0  0
    1.3185   -2.9300    2.6695 C   0  0  0  0  0  0  0  0  0  0  0  0
    0.8855   -3.7571    1.6646 C   0  0  0  0  0  0  0  0  0  0  0  0
    1.1889   -5.1359    1.7355 C   0  0  0  0  0  0  0  0  0  0  0  0
    0.7073   -0.5854    1.8461 C   0  0  0  0  0  0  0  0  0  0  0  0
    0.8293    0.7795    2.1161 C   0  0  0  0  0  0  0  0  0  0  0  0
    1.4109    1.2499    3.3672 C   0  0  0  0  0  0  0  0  0  0  0  0
    2.0632    0.2825    4.2038 C   0  0  0  0  0  0  0  0  0  0  0  0
    1.4196    2.6697    3.6598 C   0  0  0  0  0  0  0  0  0  0  0  0
    2.5311    3.4823    3.9349 C   0  0  0  0  0  0  0  0  0  0  0  0
    2.4022    4.7310    3.4142 N   0  0  0  0  0  0  0  0  0  0  0  0
    1.1527    5.0345    2.9557 C   0  0  0  0  0  0  0  0  0  0  0  0
    0.2067    3.6320    3.1230 S   0  0  0  0  0  0  0  0  0  0  0  0
    0.9686    5.7128    1.6329 C   0  0  0  0  0  0  0  0  0  0  0  0
    1.3265    4.9569    0.5203 C   0  0  0  0  0  0  0  0  0  0  0  0
    0.8865    5.3371   -0.7286 C   0  0  0  0  0  0  0  0  0  0  0  0
    1.0681    4.6797   -2.0058 C   0  0  0  0  0  0  0  0  0  0  0  0
    1.7240    3.6138   -2.1967 O   0  0  0  0  0  0  0  0  0  0  0  0
    0.4520    5.5051   -3.0083 C   0  0  0  0  0  0  0  0  0  0  0  0
   -0.1467    6.5789   -2.3528 C   0  0  0  0  0  0  0  0  0  0  0  0
    0.1166    6.4733   -0.9287 C   0  0  0  0  0  0  0  0  0  0  0  0
   -0.1928    7.3001    0.1674 C   0  0  0  0  0  0  0  0  0  0  0  0
    0.2065    6.8974    1.4688 C   0  0  0  0  0  0  0  0  0  0  0  0
   -0.8364    7.5272   -3.0944 C   0  0  0  0  0  0  0  0  0  0  0  0
   -0.9596    7.3643   -4.4887 C   0  0  0  0  0  0  0  0  0  0  0  0
   -0.3496    6.2575   -5.1611 C   0  0  0  0  0  0  0  0  0  0  0  0
    0.3204    5.2948   -4.3831 C   0  0  0  0  0  0  0  0  0  0  0  0
   -0.7175    6.0344   -6.5613 C   0  0  0  0  0  0  0  0  0  0  0  0
    0.1171    5.9825   -7.6267 C   0  0  0  0  0  0  0  0  0  0  0  0
    1.4698    5.4157   -7.6799 C   0  0  0  0  0  0  0  0  0  0  0  0
    2.1217    4.8816   -6.7355 O   0  0  0  0  0  0  0  0  0  0  0  0
    1.9165    5.4487   -9.0644 C   0  0  0  0  0  0  0  0  0  0  0  0
    3.0769    5.0371   -9.7227 C   0  0  0  0  0  0  0  0  0  0  0  0
    2.8248    5.4429  -11.3392 S   0  0  0  0  0  0  0  0  0  0  0  0
    1.3144    6.1848  -11.1744 C   0  0  0  0  0  0  0  0  0  0  0  0
    0.9526    6.0415   -9.8467 C   0  0  0  0  0  0  0  0  0  0  0  0
   -0.2200    6.4385   -9.0314 C   0  0  0  0  0  0  0  0  0  0  0  0
   -1.2530    7.2088   -9.4509 C   0  0  0  0  0  0  0  0  0  0  0  0
   -1.3160    7.7373  -10.8024 C   0  0  0  0  0  0  0  0  0  0  0  0
   -1.3831    8.2104  -11.8649 N   0  0  0  0  0  0  0  0  0  0  0  0
   -2.3749    7.5780   -8.6162 C   0  0  0  0  0  0  0  0  0  0  0  0
   -3.2845    7.9071   -7.9606 N   0  0  0  0  0  0  0  0  0  0  0  0
    2.4879   -7.6898    2.5409 H   0  0  0  0  0  0  0  0  0  0  0  0
   -1.3863  -11.1160    1.9188 H   0  0  0  0  0  0  0  0  0  0  0  0
   -3.2584   -6.7497    3.2439 H   0  0  0  0  0  0  0  0  0  0  0  0
    2.8065   -5.1871    4.7563 H   0  0  0  0  0  0  0  0  0  0  0  0
    0.3355   -3.3427    0.8453 H   0  0  0  0  0  0  0  0  0  0  0  0
    0.7671   -5.7444    0.8621 H   0  0  0  0  0  0  0  0  0  0  0  0
    0.3108   -0.9235    0.8932 H   0  0  0  0  0  0  0  0  0  0  0  0
    0.9303    1.4352    1.2419 H   0  0  0  0  0  0  0  0  0  0  0  0
    2.6479    0.5729    5.1108 H   0  0  0  0  0  0  0  0  0  0  0  0
    3.4904    3.1006    4.2324 H   0  0  0  0  0  0  0  0  0  0  0  0
    1.8815    4.0348    0.6104 H   0  0  0  0  0  0  0  0  0  0  0  0
   -0.7514    8.1904    0.0386 H   0  0  0  0  0  0  0  0  0  0  0  0
   -0.1155    7.4806    2.3347 H   0  0  0  0  0  0  0  0  0  0  0  0
   -1.3613    8.3474   -2.5990 H   0  0  0  0  0  0  0  0  0  0  0  0
   -1.5582    8.0840   -5.0097 H   0  0  0  0  0  0  0  0  0  0  0  0
    0.7180    4.3780   -4.8030 H   0  0  0  0  0  0  0  0  0  0  0  0
   -1.7443    6.2140   -6.7565 H   0  0  0  0  0  0  0  0  0  0  0  0
    3.9084    4.4974   -9.2941 H   0  0  0  0  0  0  0  0  0  0  0  0
    0.7568    6.5959  -11.9937 H   0  0  0  0  0  0  0  0  0  0  0  0
  1  2  2  3
  2  3  1  0
  3  4  2  0
  3  5  1  0
  5  6  2  0
  6  7  1  0
  7  8  1  0
  7  9  2  0
  9 10  1  0
  9 11  1  0
 11 12  2  0
 12 13  1  0
 13 14  2  3
 14 15  1  0
 15 16  3  0
 14 17  1  0
 17 18  3  0
  1 19  1  0
 19 20  2  0
 20 21  1  0
 21 22  1  0
 22 23  2  0
 22 24  1  0
 24 25  2  0
 25 26  1  0
 26 27  1  0
 27 28  2  0
 25 29  1  0
 29 30  2  0
 30 31  1  0
 31 32  2  0
 31 33  1  0
 33 34  2  0
 34 35  1  0
 35 36  2  0
 36 37  1  0
 36 38  1  0
 38 39  2  0
 39 40  1  0
 40 41  1  0
 41 42  2  0
 41 43  1  0
 43 44  2  0
 44 45  1  0
 45 46  1  0
 46 47  2  0
 44 48  1  0
 48 49  2  0
 49 50  1  0
 50 51  2  0
 50 52  1  0
 52 53  2  3
 53 54  1  0
 54 55  2  0
 54 56  1  0
 56 57  2  0
 57 58  1  0
 58 59  1  0
 59 60  2  0
 60 61  1  0
 61 62  2  3
 62 63  1  0
 63 64  3  0
 62 65  1  0
 65 66  3  0
 13  2  1  0
 28 19  1  0
 37 33  1  0
 47 38  1  0
 61 53  1  0
 12  5  1  0
 26 21  2  0
 45 40  2  0
 60 56  1  0
 32 24  1  0
 51 43  1  0
  1 67  1  0
  6 68  1  0
 11 69  1  0
 20 70  1  0
 27 71  1  0
 28 72  1  0
 29 73  1  0
 30 74  1  0
 32 75  1  0
 34 76  1  0
 39 77  1  0
 46 78  1  0
 47 79  1  0
 48 80  1  0
 49 81  1  0
 51 82  1  0
 52 83  1  0
 57 84  1  0
 59 85  1  0
M  END

