
     RDKit          3D

132144  0  0  0  0  0  0  0  0999 V2000
   -3.6385   -7.1681   -4.2232 C   0  0  0  0  0  0  0  0  0  0  0  0
   -3.7685   -6.2915   -5.2434 C   0  0  0  0  0  0  0  0  0  0  0  0
   -3.9559   -4.8354   -5.1098 C   0  0  0  0  0  0  0  0  0  0  0  0
   -3.9786   -4.1704   -4.0397 O   0  0  0  0  0  0  0  0  0  0  0  0
   -4.3404   -4.2989   -6.3948 C   0  0  0  0  0  0  0  0  0  0  0  0
   -4.6721   -2.9791   -6.7035 C   0  0  0  0  0  0  0  0  0  0  0  0
   -5.1315   -2.6933   -7.9930 C   0  0  0  0  0  0  0  0  0  0  0  0
   -5.4676   -1.4200   -8.3226 F   0  0  0  0  0  0  0  0  0  0  0  0
   -5.2720   -3.7250   -8.9392 C   0  0  0  0  0  0  0  0  0  0  0  0
   -5.7610   -3.4477  -10.1715 F   0  0  0  0  0  0  0  0  0  0  0  0
   -4.9395   -5.0498   -8.6016 C   0  0  0  0  0  0  0  0  0  0  0  0
   -4.4365   -5.3230   -7.3184 C   0  0  0  0  0  0  0  0  0  0  0  0
   -4.0108   -6.6114   -6.6879 C   0  0  0  0  0  0  0  0  0  0  0  0
   -3.6869   -7.7631   -7.3325 C   0  0  0  0  0  0  0  0  0  0  0  0
   -3.8426   -7.9294   -8.7520 C   0  0  0  0  0  0  0  0  0  0  0  0
   -3.9571   -8.0822   -9.8939 N   0  0  0  0  0  0  0  0  0  0  0  0
   -3.0437   -8.8698   -6.6643 C   0  0  0  0  0  0  0  0  0  0  0  0
   -2.5248   -9.7558   -6.1354 N   0  0  0  0  0  0  0  0  0  0  0  0
   -3.2829   -6.7760   -2.8486 C   0  0  0  0  0  0  0  0  0  0  0  0
   -3.9049   -7.2238   -1.6870 C   0  0  0  0  0  0  0  0  0  0  0  0
   -3.4480   -6.5677   -0.5335 C   0  0  0  0  0  0  0  0  0  0  0  0
   -4.0241   -6.7483    0.6782 F   0  0  0  0  0  0  0  0  0  0  0  0
   -2.4429   -5.6336   -0.7781 C   0  0  0  0  0  0  0  0  0  0  0  0
   -2.1061   -5.6554   -2.4248 S   0  0  0  0  0  0  0  0  0  0  0  0
   -2.0265   -4.5373    0.1093 C   0  0  0  0  0  0  0  0  0  0  0  0
   -1.5843   -3.3107   -0.3707 C   0  0  0  0  0  0  0  0  0  0  0  0
   -1.4630   -2.3388    0.6231 C   0  0  0  0  0  0  0  0  0  0  0  0
   -1.1324   -0.9916    0.4054 C   0  0  0  0  0  0  0  0  0  0  0  0
   -0.8579   -0.4741   -0.9541 C   0  0  0  0  0  0  0  0  0  0  0  0
   -1.7624    0.4086   -1.5648 C   0  0  0  0  0  0  0  0  0  0  0  0
   -1.5895    0.7764   -2.9017 C   0  0  0  0  0  0  0  0  0  0  0  0
   -0.5182    0.2618   -3.6408 C   0  0  0  0  0  0  0  0  0  0  0  0
   -0.3669    0.6584   -5.3890 S   0  0  0  0  0  0  0  0  0  0  0  0
   -1.5381   -0.6290   -5.9521 C   0  0  0  0  0  0  0  0  0  0  0  0
   -0.8802   -2.0058   -5.9951 C   0  0  0  0  0  0  0  0  0  0  0  0
    0.4210   -0.5723   -3.0180 C   0  0  0  0  0  0  0  0  0  0  0  0
    1.4841   -1.0492   -3.7144 F   0  0  0  0  0  0  0  0  0  0  0  0
    0.2481   -0.9441   -1.6803 C   0  0  0  0  0  0  0  0  0  0  0  0
   -1.1470   -0.1525    1.5260 C   0  0  0  0  0  0  0  0  0  0  0  0
   -1.4389   -0.6087    2.8172 C   0  0  0  0  0  0  0  0  0  0  0  0
   -1.7814   -1.9619    3.0318 C   0  0  0  0  0  0  0  0  0  0  0  0
   -2.1037   -2.4800    4.3732 C   0  0  0  0  0  0  0  0  0  0  0  0
   -3.4233   -2.8201    4.7011 C   0  0  0  0  0  0  0  0  0  0  0  0
   -3.7217   -3.3260    5.9700 C   0  0  0  0  0  0  0  0  0  0  0  0
   -2.7049   -3.5058    6.9149 C   0  0  0  0  0  0  0  0  0  0  0  0
   -3.0909   -4.2260    8.5168 S   0  0  0  0  0  0  0  0  0  0  0  0
   -3.1442   -2.6400    9.4188 C   0  0  0  0  0  0  0  0  0  0  0  0
   -4.4753   -1.9280    9.2051 C   0  0  0  0  0  0  0  0  0  0  0  0
   -1.3829   -3.1702    6.5880 C   0  0  0  0  0  0  0  0  0  0  0  0
   -1.0864   -2.6465    5.3263 C   0  0  0  0  0  0  0  0  0  0  0  0
   -0.3848   -3.3468    7.4912 F   0  0  0  0  0  0  0  0  0  0  0  0
   -1.7984   -2.8006    1.8995 C   0  0  0  0  0  0  0  0  0  0  0  0
   -2.2668   -4.4200    1.7829 S   0  0  0  0  0  0  0  0  0  0  0  0
   -1.3660    0.4087    3.7916 C   0  0  0  0  0  0  0  0  0  0  0  0
   -1.0473    1.6436    3.2309 C   0  0  0  0  0  0  0  0  0  0  0  0
   -0.8183    1.4849    1.5706 S   0  0  0  0  0  0  0  0  0  0  0  0
   -0.7338    2.8952    3.9198 C   0  0  0  0  0  0  0  0  0  0  0  0
    0.6165    3.1286    4.2333 C   0  0  0  0  0  0  0  0  0  0  0  0
    1.1254    4.4306    4.1390 C   0  0  0  0  0  0  0  0  0  0  0  0
    2.5853    4.8227    3.9278 C   0  0  0  0  0  0  0  0  0  0  0  0
    3.3164    3.8311    2.9515 C   0  0  0  0  0  0  0  0  0  0  0  0
    4.0653    2.6670    3.6160 C   0  0  0  0  0  0  0  0  0  0  0  0
    3.3359    5.0045    5.2810 C   0  0  0  0  0  0  0  0  0  0  0  0
    2.7389    6.0674    6.2105 C   0  0  0  0  0  0  0  0  0  0  0  0
    2.3815    6.1687    3.2476 C   0  0  0  0  0  0  0  0  0  0  0  0
    1.0548    6.5601    3.2736 C   0  0  0  0  0  0  0  0  0  0  0  0
    0.2687    5.4793    3.8246 C   0  0  0  0  0  0  0  0  0  0  0  0
   -1.1061    5.2876    3.6765 C   0  0  0  0  0  0  0  0  0  0  0  0
   -1.6061    3.9833    3.7279 C   0  0  0  0  0  0  0  0  0  0  0  0
    0.6088    7.6861    2.5717 C   0  0  0  0  0  0  0  0  0  0  0  0
    1.5255    8.3866    1.7776 C   0  0  0  0  0  0  0  0  0  0  0  0
    2.8582    7.9373    1.6681 C   0  0  0  0  0  0  0  0  0  0  0  0
    3.3117    6.8906    2.4941 C   0  0  0  0  0  0  0  0  0  0  0  0
    3.7227    8.4817    0.6037 C   0  0  0  0  0  0  0  0  0  0  0  0
    4.4495    7.7142   -0.2329 C   0  0  0  0  0  0  0  0  0  0  0  0
    5.6109    8.2180   -0.9663 C   0  0  0  0  0  0  0  0  0  0  0  0
    5.8549    9.4221   -1.2337 O   0  0  0  0  0  0  0  0  0  0  0  0
    6.4769    7.0902   -1.2625 C   0  0  0  0  0  0  0  0  0  0  0  0
    7.7666    7.0976   -1.7952 C   0  0  0  0  0  0  0  0  0  0  0  0
    8.4722    5.8871   -1.8481 C   0  0  0  0  0  0  0  0  0  0  0  0
    9.7260    5.8622   -2.3656 F   0  0  0  0  0  0  0  0  0  0  0  0
    7.8939    4.7061   -1.3453 C   0  0  0  0  0  0  0  0  0  0  0  0
    8.6055    3.5509   -1.3473 F   0  0  0  0  0  0  0  0  0  0  0  0
    6.5955    4.7225   -0.8083 C   0  0  0  0  0  0  0  0  0  0  0  0
    5.8796    5.9262   -0.8111 C   0  0  0  0  0  0  0  0  0  0  0  0
    4.5139    6.2262   -0.3217 C   0  0  0  0  0  0  0  0  0  0  0  0
    3.4540    5.3824   -0.3954 C   0  0  0  0  0  0  0  0  0  0  0  0
    2.0957    5.8629   -0.4135 C   0  0  0  0  0  0  0  0  0  0  0  0
    1.0045    6.2426   -0.4451 N   0  0  0  0  0  0  0  0  0  0  0  0
    3.6090    3.9742   -0.6511 C   0  0  0  0  0  0  0  0  0  0  0  0
    3.7177    2.8324   -0.8551 N   0  0  0  0  0  0  0  0  0  0  0  0
   -3.8452   -8.2133   -4.3783 H   0  0  0  0  0  0  0  0  0  0  0  0
   -4.5841   -2.1964   -5.9624 H   0  0  0  0  0  0  0  0  0  0  0  0
   -5.1080   -5.8210   -9.3313 H   0  0  0  0  0  0  0  0  0  0  0  0
   -4.7178   -7.9389   -1.6834 H   0  0  0  0  0  0  0  0  0  0  0  0
   -1.4220   -3.1099   -1.4225 H   0  0  0  0  0  0  0  0  0  0  0  0
   -2.6248    0.7739   -1.0175 H   0  0  0  0  0  0  0  0  0  0  0  0
   -2.3132    1.4325   -3.3717 H   0  0  0  0  0  0  0  0  0  0  0  0
   -2.4340   -0.6628   -5.2960 H   0  0  0  0  0  0  0  0  0  0  0  0
   -1.8751   -0.3674   -6.9770 H   0  0  0  0  0  0  0  0  0  0  0  0
   -1.5990   -2.7475   -6.4007 H   0  0  0  0  0  0  0  0  0  0  0  0
   -0.5831   -2.3293   -4.9778 H   0  0  0  0  0  0  0  0  0  0  0  0
    0.0167   -1.9803   -6.6492 H   0  0  0  0  0  0  0  0  0  0  0  0
    0.9578   -1.6213   -1.2199 H   0  0  0  0  0  0  0  0  0  0  0  0
   -4.2185   -2.6935    3.9761 H   0  0  0  0  0  0  0  0  0  0  0  0
   -4.7448   -3.5858    6.2158 H   0  0  0  0  0  0  0  0  0  0  0  0
   -3.0233   -2.8563   10.4993 H   0  0  0  0  0  0  0  0  0  0  0  0
   -2.3062   -1.9821    9.1064 H   0  0  0  0  0  0  0  0  0  0  0  0
   -4.5820   -1.6129    8.1477 H   0  0  0  0  0  0  0  0  0  0  0  0
   -5.3155   -2.6022    9.4775 H   0  0  0  0  0  0  0  0  0  0  0  0
   -4.5158   -1.0253    9.8513 H   0  0  0  0  0  0  0  0  0  0  0  0
   -0.0644   -2.3858    5.0842 H   0  0  0  0  0  0  0  0  0  0  0  0
   -1.5291    0.2566    4.8507 H   0  0  0  0  0  0  0  0  0  0  0  0
    1.2809    2.2844    4.3098 H   0  0  0  0  0  0  0  0  0  0  0  0
    4.0811    4.3615    2.3495 H   0  0  0  0  0  0  0  0  0  0  0  0
    2.5913    3.4180    2.2160 H   0  0  0  0  0  0  0  0  0  0  0  0
    4.9741    3.0433    4.1342 H   0  0  0  0  0  0  0  0  0  0  0  0
    4.3923    1.9452    2.8396 H   0  0  0  0  0  0  0  0  0  0  0  0
    3.4430    2.1219    4.3485 H   0  0  0  0  0  0  0  0  0  0  0  0
    3.3370    4.0416    5.8360 H   0  0  0  0  0  0  0  0  0  0  0  0
    4.3941    5.2784    5.0758 H   0  0  0  0  0  0  0  0  0  0  0  0
    1.6791    5.8402    6.4452 H   0  0  0  0  0  0  0  0  0  0  0  0
    3.3097    6.0857    7.1619 H   0  0  0  0  0  0  0  0  0  0  0  0
    2.8034    7.0764    5.7490 H   0  0  0  0  0  0  0  0  0  0  0  0
   -1.7531    6.0990    3.3727 H   0  0  0  0  0  0  0  0  0  0  0  0
   -2.6361    3.8087    3.4440 H   0  0  0  0  0  0  0  0  0  0  0  0
   -0.4371    7.9629    2.5658 H   0  0  0  0  0  0  0  0  0  0  0  0
    1.1731    9.2046    1.1615 H   0  0  0  0  0  0  0  0  0  0  0  0
    4.3429    6.5756    2.4539 H   0  0  0  0  0  0  0  0  0  0  0  0
    3.8063    9.5597    0.5405 H   0  0  0  0  0  0  0  0  0  0  0  0
    8.2204    8.0198   -2.1322 H   0  0  0  0  0  0  0  0  0  0  0  0
    6.1887    3.8254   -0.3705 H   0  0  0  0  0  0  0  0  0  0  0  0
  1  2  2  3
  2  3  1  0
  3  4  2  0
  3  5  1  0
  5  6  2  0
  6  7  1  0
  7  8  1  0
  7  9  2  0
  9 10  1  0
  9 11  1  0
 11 12  2  0
 12 13  1  0
 13 14  2  3
 14 15  1  0
 15 16  3  0
 14 17  1  0
 17 18  3  0
  1 19  1  0
 19 20  2  0
 20 21  1  0
 21 22  1  0
 21 23  2  0
 23 24  1  0
 23 25  1  0
 25 26  2  0
 26 27  1  0
 27 28  2  0
 28 29  1  0
 29 30  2  0
 30 31  1  0
 31 32  2  0
 32 33  1  0
 33 34  1  0
 34 35  1  0
 32 36  1  0
 36 37  1  0
 36 38  2  0
 28 39  1  0
 39 40  2  0
 40 41  1  0
 41 42  1  0
 42 43  2  0
 43 44  1  0
 44 45  2  0
 45 46  1  0
 46 47  1  0
 47 48  1  0
 45 49  1  0
 49 50  2  0
 49 51  1  0
 41 52  2  0
 52 53  1  0
 40 54  1  0
 54 55  2  0
 55 56  1  0
 55 57  1  0
 57 58  2  0
 58 59  1  0
 59 60  1  0
 60 61  1  0
 61 62  1  0
 60 63  1  0
 63 64  1  0
 60 65  1  0
 65 66  2  0
 66 67  1  0
 67 68  1  0
 68 69  2  0
 66 70  1  0
 70 71  2  0
 71 72  1  0
 72 73  2  0
 72 74  1  0
 74 75  2  3
 75 76  1  0
 76 77  2  0
 76 78  1  0
 78 79  2  0
 79 80  1  0
 80 81  1  0
 80 82  2  0
 82 83  1  0
 82 84  1  0
 84 85  2  0
 85 86  1  0
 86 87  2  3
 87 88  1  0
 88 89  3  0
 87 90  1  0
 90 91  3  0
 13  2  1  0
 24 19  1  0
 53 25  1  0
 69 57  1  0
 86 75  1  0
 12  5  1  0
 52 27  1  0
 67 59  2  0
 85 78  1  0
 38 29  1  0
 56 39  1  0
 73 65  1  0
 50 42  1  0
  1 92  1  0
  6 93  1  0
 11 94  1  0
 20 95  1  0
 26 96  1  0
 30 97  1  0
 31 98  1  0
 34 99  1  0
 34100  1  0
 35101  1  0
 35102  1  0
 35103  1  0
 38104  1  0
 43105  1  0
 44106  1  0
 47107  1  0
 47108  1  0
 48109  1  0
 48110  1  0
 48111  1  0
 50112  1  0
 54113  1  0
 58114  1  0
 61115  1  0
 61116  1  0
 62117  1  0
 62118  1  0
 62119  1  0
 63120  1  0
 63121  1  0
 64122  1  0
 64123  1  0
 64124  1  0
 68125  1  0
 69126  1  0
 70127  1  0
 71128  1  0
 73129  1  0
 74130  1  0
 79131  1  0
 84132  1  0
M  END

