
     RDKit          3D

211229  0  0  0  0  0  0  0  0999 V2000
   -2.2633   -0.1530    6.5135 C   0  0  0  0  0  0  0  0  0  0  0  0
   -3.0621    0.1647    7.5371 C   0  0  0  0  0  0  0  0  0  0  0  0
   -2.7112    1.1585    8.5470 C   0  0  0  0  0  0  0  0  0  0  0  0
   -1.5662    1.6471    8.7526 O   0  0  0  0  0  0  0  0  0  0  0  0
   -3.8834    1.3917    9.3483 C   0  0  0  0  0  0  0  0  0  0  0  0
   -4.0609    2.2431   10.4403 C   0  0  0  0  0  0  0  0  0  0  0  0
   -5.2816    2.2123   11.1274 C   0  0  0  0  0  0  0  0  0  0  0  0
   -5.4711    3.0081   12.2131 F   0  0  0  0  0  0  0  0  0  0  0  0
   -6.3043    1.3355   10.7043 C   0  0  0  0  0  0  0  0  0  0  0  0
   -7.4835    1.3009   11.3753 F   0  0  0  0  0  0  0  0  0  0  0  0
   -6.1189    0.5041    9.5814 C   0  0  0  0  0  0  0  0  0  0  0  0
   -4.8860    0.5494    8.9157 C   0  0  0  0  0  0  0  0  0  0  0  0
   -4.4536   -0.3045    7.7803 C   0  0  0  0  0  0  0  0  0  0  0  0
   -4.7207   -1.6205    7.7964 C   0  0  0  0  0  0  0  0  0  0  0  0
   -5.8495   -2.0462    7.0136 C   0  0  0  0  0  0  0  0  0  0  0  0
   -6.7715   -2.3756    6.3931 N   0  0  0  0  0  0  0  0  0  0  0  0
   -4.4900   -2.3182    9.0325 C   0  0  0  0  0  0  0  0  0  0  0  0
   -4.3006   -2.8343   10.0527 N   0  0  0  0  0  0  0  0  0  0  0  0
   -2.7495   -0.7806    5.2760 C   0  0  0  0  0  0  0  0  0  0  0  0
   -1.9441   -1.5961    4.4422 C   0  0  0  0  0  0  0  0  0  0  0  0
   -0.8778   -2.4633    4.8955 N   0  0  0  0  0  0  0  0  0  0  0  0
   -0.3207   -3.4514    4.0158 C   0  0  0  0  0  0  0  0  0  0  0  0
   -1.0619   -4.5878    3.6656 C   0  0  0  0  0  0  0  0  0  0  0  0
   -0.5033   -5.5688    2.8468 C   0  0  0  0  0  0  0  0  0  0  0  0
    0.8058   -5.4136    2.3588 C   0  0  0  0  0  0  0  0  0  0  0  0
    1.3833   -6.4459    1.4323 C   0  0  0  0  0  0  0  0  0  0  0  0
    1.5383   -4.2539    2.6833 C   0  0  0  0  0  0  0  0  0  0  0  0
    0.9766   -3.2883    3.5229 C   0  0  0  0  0  0  0  0  0  0  0  0
   -0.6485   -2.6674    6.2917 C   0  0  0  0  0  0  0  0  0  0  0  0
    0.3012   -1.8893    6.9621 C   0  0  0  0  0  0  0  0  0  0  0  0
    0.4755   -2.0349    8.3418 C   0  0  0  0  0  0  0  0  0  0  0  0
   -0.2548   -3.0070    9.0508 C   0  0  0  0  0  0  0  0  0  0  0  0
   -0.0942   -3.1300   10.5342 C   0  0  0  0  0  0  0  0  0  0  0  0
   -1.1931   -3.8009    8.3695 C   0  0  0  0  0  0  0  0  0  0  0  0
   -1.3938   -3.6238    7.0013 C   0  0  0  0  0  0  0  0  0  0  0  0
   -2.2745   -1.4010    3.0895 C   0  0  0  0  0  0  0  0  0  0  0  0
   -1.3869   -1.5651    1.6816 S   0  0  0  0  0  0  0  0  0  0  0  0
   -2.3247   -0.5058    0.7275 C   0  0  0  0  0  0  0  0  0  0  0  0
   -3.3459   -0.0036    1.5581 C   0  0  0  0  0  0  0  0  0  0  0  0
   -4.3780    0.8966    1.1392 N   0  0  0  0  0  0  0  0  0  0  0  0
   -4.2443    2.2776    1.5434 C   0  0  0  0  0  0  0  0  0  0  0  0
   -3.2167    3.0667    1.0044 C   0  0  0  0  0  0  0  0  0  0  0  0
   -3.0344    4.3772    1.4335 C   0  0  0  0  0  0  0  0  0  0  0  0
   -3.8566    4.9157    2.4343 C   0  0  0  0  0  0  0  0  0  0  0  0
   -3.6896    6.3490    2.8541 C   0  0  0  0  0  0  0  0  0  0  0  0
   -4.8633    4.1210    2.9988 C   0  0  0  0  0  0  0  0  0  0  0  0
   -5.0398    2.8037    2.5731 C   0  0  0  0  0  0  0  0  0  0  0  0
   -5.6212    0.3214    0.6453 C   0  0  0  0  0  0  0  0  0  0  0  0
   -5.6464   -1.0110    0.1764 C   0  0  0  0  0  0  0  0  0  0  0  0
   -6.8086   -1.5757   -0.3426 C   0  0  0  0  0  0  0  0  0  0  0  0
   -7.9993   -0.8419   -0.3695 C   0  0  0  0  0  0  0  0  0  0  0  0
   -9.2342   -1.4228   -0.9872 C   0  0  0  0  0  0  0  0  0  0  0  0
   -8.0058    0.4775    0.1164 C   0  0  0  0  0  0  0  0  0  0  0  0
   -6.8262    1.0596    0.6007 C   0  0  0  0  0  0  0  0  0  0  0  0
   -3.2844   -0.5304    2.8499 C   0  0  0  0  0  0  0  0  0  0  0  0
   -3.8577    0.0658    4.3000 S   0  0  0  0  0  0  0  0  0  0  0  0
   -1.6835    0.2181   -0.3813 C   0  0  0  0  0  0  0  0  0  0  0  0
   -2.0737    0.3502   -1.7323 C   0  0  0  0  0  0  0  0  0  0  0  0
   -3.3931    0.1233   -2.2605 N   0  0  0  0  0  0  0  0  0  0  0  0
   -3.6223   -1.1036   -2.9720 C   0  0  0  0  0  0  0  0  0  0  0  0
   -4.1075   -1.0802   -4.2966 C   0  0  0  0  0  0  0  0  0  0  0  0
   -4.3371   -2.2767   -4.9829 C   0  0  0  0  0  0  0  0  0  0  0  0
   -4.0783   -3.5076   -4.3668 C   0  0  0  0  0  0  0  0  0  0  0  0
   -4.3758   -5.0414   -5.2497 S   0  0  0  0  0  0  0  0  0  0  0  0
   -6.1520   -5.0843   -4.8474 C   0  0  0  0  0  0  0  0  0  0  0  0
   -3.5711   -3.5352   -3.0593 C   0  0  0  0  0  0  0  0  0  0  0  0
   -3.3315   -2.3419   -2.3677 C   0  0  0  0  0  0  0  0  0  0  0  0
   -4.3411    1.2238   -2.3352 C   0  0  0  0  0  0  0  0  0  0  0  0
   -5.7198    0.9772   -2.5247 C   0  0  0  0  0  0  0  0  0  0  0  0
   -6.6455    2.0299   -2.5057 C   0  0  0  0  0  0  0  0  0  0  0  0
   -6.2172    3.3456   -2.2911 C   0  0  0  0  0  0  0  0  0  0  0  0
   -7.3975    4.6975   -2.2370 S   0  0  0  0  0  0  0  0  0  0  0  0
   -7.5054    4.7312   -0.4162 C   0  0  0  0  0  0  0  0  0  0  0  0
   -4.8507    3.6118   -2.1607 C   0  0  0  0  0  0  0  0  0  0  0  0
   -3.9215    2.5685   -2.1901 C   0  0  0  0  0  0  0  0  0  0  0  0
   -1.0460    0.9152   -2.4980 C   0  0  0  0  0  0  0  0  0  0  0  0
   -0.7840    1.2196   -4.1367 S   0  0  0  0  0  0  0  0  0  0  0  0
    0.7911    1.8568   -3.9197 C   0  0  0  0  0  0  0  0  0  0  0  0
    1.1023    1.8294   -2.5418 C   0  0  0  0  0  0  0  0  0  0  0  0
    2.3182    2.3142   -1.9363 N   0  0  0  0  0  0  0  0  0  0  0  0
    2.1815    3.2061   -0.8115 C   0  0  0  0  0  0  0  0  0  0  0  0
    1.2743    4.2814   -0.8675 C   0  0  0  0  0  0  0  0  0  0  0  0
    0.9415    4.9923    0.2877 C   0  0  0  0  0  0  0  0  0  0  0  0
    1.5285    4.6461    1.5175 C   0  0  0  0  0  0  0  0  0  0  0  0
    0.9981    5.4702    3.0181 S   0  0  0  0  0  0  0  0  0  0  0  0
    2.1892    6.8466    2.8882 C   0  0  0  0  0  0  0  0  0  0  0  0
    2.4774    3.6205    1.5726 C   0  0  0  0  0  0  0  0  0  0  0  0
    2.8179    2.9177    0.4125 C   0  0  0  0  0  0  0  0  0  0  0  0
    3.6011    1.7593   -2.2889 C   0  0  0  0  0  0  0  0  0  0  0  0
    3.7227    0.4084   -2.6587 C   0  0  0  0  0  0  0  0  0  0  0  0
    4.9725   -0.1152   -3.0130 C   0  0  0  0  0  0  0  0  0  0  0  0
    6.1095    0.7025   -2.9893 C   0  0  0  0  0  0  0  0  0  0  0  0
    7.6998    0.0449   -3.4817 S   0  0  0  0  0  0  0  0  0  0  0  0
    8.2191   -0.3655   -1.7893 C   0  0  0  0  0  0  0  0  0  0  0  0
    5.9913    2.0528   -2.6425 C   0  0  0  0  0  0  0  0  0  0  0  0
    4.7476    2.5776   -2.2827 C   0  0  0  0  0  0  0  0  0  0  0  0
    0.0568    1.2817   -1.8049 C   0  0  0  0  0  0  0  0  0  0  0  0
   -0.1148    0.8595   -0.2019 S   0  0  0  0  0  0  0  0  0  0  0  0
    1.7821    2.0578   -4.9989 C   0  0  0  0  0  0  0  0  0  0  0  0
    1.9838    1.0097   -5.9135 C   0  0  0  0  0  0  0  0  0  0  0  0
    3.1866    0.9394   -6.6334 C   0  0  0  0  0  0  0  0  0  0  0  0
    3.7546   -0.2689   -7.3768 C   0  0  0  0  0  0  0  0  0  0  0  0
    3.5263   -1.6058   -6.6004 C   0  0  0  0  0  0  0  0  0  0  0  0
    2.2355   -2.3631   -6.9046 C   0  0  0  0  0  0  0  0  0  0  0  0
    3.3503   -0.2882   -8.8814 C   0  0  0  0  0  0  0  0  0  0  0  0
    1.8477   -0.1632   -9.1903 C   0  0  0  0  0  0  0  0  0  0  0  0
    5.2331    0.1028   -7.3196 C   0  0  0  0  0  0  0  0  0  0  0  0
    5.4305    1.3906   -6.8535 C   0  0  0  0  0  0  0  0  0  0  0  0
    4.1533    1.9164   -6.4404 C   0  0  0  0  0  0  0  0  0  0  0  0
    3.9186    3.0390   -5.6372 C   0  0  0  0  0  0  0  0  0  0  0  0
    2.7139    3.1139   -4.9294 C   0  0  0  0  0  0  0  0  0  0  0  0
    6.7095    1.8912   -6.5962 C   0  0  0  0  0  0  0  0  0  0  0  0
    7.8082    1.0358   -6.7595 C   0  0  0  0  0  0  0  0  0  0  0  0
    7.6240   -0.3042   -7.1858 C   0  0  0  0  0  0  0  0  0  0  0  0
    6.3343   -0.7345   -7.5625 C   0  0  0  0  0  0  0  0  0  0  0  0
    8.6735   -1.3421   -7.0326 C   0  0  0  0  0  0  0  0  0  0  0  0
    9.5143   -1.3148   -5.9892 C   0  0  0  0  0  0  0  0  0  0  0  0
   10.7064   -0.4616   -5.9073 C   0  0  0  0  0  0  0  0  0  0  0  0
   11.0103    0.4714   -6.7001 O   0  0  0  0  0  0  0  0  0  0  0  0
   11.5686   -0.9719   -4.8580 C   0  0  0  0  0  0  0  0  0  0  0  0
   12.7362   -0.3995   -4.3419 C   0  0  0  0  0  0  0  0  0  0  0  0
   13.3249   -0.9901   -3.2106 C   0  0  0  0  0  0  0  0  0  0  0  0
   14.4457   -0.4518   -2.6741 F   0  0  0  0  0  0  0  0  0  0  0  0
   12.7341   -2.1195   -2.6131 C   0  0  0  0  0  0  0  0  0  0  0  0
   13.2731   -2.6529   -1.4892 F   0  0  0  0  0  0  0  0  0  0  0  0
   11.5627   -2.6819   -3.1518 C   0  0  0  0  0  0  0  0  0  0  0  0
   11.0139   -2.1215   -4.3212 C   0  0  0  0  0  0  0  0  0  0  0  0
    9.7447   -2.4313   -5.0181 C   0  0  0  0  0  0  0  0  0  0  0  0
    8.9001   -3.4600   -4.7300 C   0  0  0  0  0  0  0  0  0  0  0  0
    9.3706   -4.6764   -4.1222 C   0  0  0  0  0  0  0  0  0  0  0  0
    9.7787   -5.6693   -3.6985 N   0  0  0  0  0  0  0  0  0  0  0  0
    7.5276   -3.4613   -5.1583 C   0  0  0  0  0  0  0  0  0  0  0  0
    6.4190   -3.4806   -5.4996 N   0  0  0  0  0  0  0  0  0  0  0  0
   -1.2775    0.2918    6.4666 H   0  0  0  0  0  0  0  0  0  0  0  0
   -3.2767    2.9084   10.7698 H   0  0  0  0  0  0  0  0  0  0  0  0
   -6.8951   -0.1792    9.2701 H   0  0  0  0  0  0  0  0  0  0  0  0
   -2.0740   -4.7158    4.0301 H   0  0  0  0  0  0  0  0  0  0  0  0
   -1.0895   -6.4380    2.5791 H   0  0  0  0  0  0  0  0  0  0  0  0
    2.4975   -6.4116    1.4551 H   0  0  0  0  0  0  0  0  0  0  0  0
    1.0658   -7.4587    1.7398 H   0  0  0  0  0  0  0  0  0  0  0  0
    1.0339   -6.2523    0.3968 H   0  0  0  0  0  0  0  0  0  0  0  0
    2.5408   -4.1139    2.3050 H   0  0  0  0  0  0  0  0  0  0  0  0
    1.5520   -2.4086    3.7883 H   0  0  0  0  0  0  0  0  0  0  0  0
    0.8615   -1.1412    6.4205 H   0  0  0  0  0  0  0  0  0  0  0  0
    1.1622   -1.3723    8.8577 H   0  0  0  0  0  0  0  0  0  0  0  0
    0.9242   -2.8387   10.8456 H   0  0  0  0  0  0  0  0  0  0  0  0
   -0.8377   -2.4706   11.0366 H   0  0  0  0  0  0  0  0  0  0  0  0
   -0.2625   -4.1849   10.8613 H   0  0  0  0  0  0  0  0  0  0  0  0
   -1.7546   -4.5600    8.8938 H   0  0  0  0  0  0  0  0  0  0  0  0
   -2.1196   -4.2391    6.4886 H   0  0  0  0  0  0  0  0  0  0  0  0
   -2.5503    2.6640    0.2532 H   0  0  0  0  0  0  0  0  0  0  0  0
   -2.2480    4.9769    0.9844 H   0  0  0  0  0  0  0  0  0  0  0  0
   -3.8154    6.4399    3.9532 H   0  0  0  0  0  0  0  0  0  0  0  0
   -2.6814    6.7289    2.5913 H   0  0  0  0  0  0  0  0  0  0  0  0
   -4.4533    6.9744    2.3470 H   0  0  0  0  0  0  0  0  0  0  0  0
   -5.5048    4.5266    3.7773 H   0  0  0  0  0  0  0  0  0  0  0  0
   -5.7979    2.1935    3.0567 H   0  0  0  0  0  0  0  0  0  0  0  0
   -4.7555   -1.6249    0.1664 H   0  0  0  0  0  0  0  0  0  0  0  0
   -6.7692   -2.5868   -0.7398 H   0  0  0  0  0  0  0  0  0  0  0  0
   -9.3698   -0.9962   -2.0038 H   0  0  0  0  0  0  0  0  0  0  0  0
   -9.1571   -2.5278   -1.0713 H   0  0  0  0  0  0  0  0  0  0  0  0
  -10.1250   -1.1795   -0.3641 H   0  0  0  0  0  0  0  0  0  0  0  0
   -8.9100    1.0702    0.0823 H   0  0  0  0  0  0  0  0  0  0  0  0
   -6.8634    2.0905    0.9092 H   0  0  0  0  0  0  0  0  0  0  0  0
   -4.3098   -0.1385   -4.7884 H   0  0  0  0  0  0  0  0  0  0  0  0
   -4.7246   -2.2448   -5.9947 H   0  0  0  0  0  0  0  0  0  0  0  0
   -6.5552   -6.0836   -5.1026 H   0  0  0  0  0  0  0  0  0  0  0  0
   -6.3182   -4.8898   -3.7674 H   0  0  0  0  0  0  0  0  0  0  0  0
   -6.6971   -4.3225   -5.4467 H   0  0  0  0  0  0  0  0  0  0  0  0
   -3.3574   -4.4818   -2.5739 H   0  0  0  0  0  0  0  0  0  0  0  0
   -2.9421   -2.3758   -1.3612 H   0  0  0  0  0  0  0  0  0  0  0  0
   -6.0840   -0.0314   -2.6448 H   0  0  0  0  0  0  0  0  0  0  0  0
   -7.6981    1.8163   -2.6236 H   0  0  0  0  0  0  0  0  0  0  0  0
   -8.2491    3.9807   -0.0689 H   0  0  0  0  0  0  0  0  0  0  0  0
   -7.8551    5.7306   -0.0958 H   0  0  0  0  0  0  0  0  0  0  0  0
   -6.5169    4.5345    0.0558 H   0  0  0  0  0  0  0  0  0  0  0  0
   -4.4952    4.6259   -2.0153 H   0  0  0  0  0  0  0  0  0  0  0  0
   -2.8828    2.8249   -2.0837 H   0  0  0  0  0  0  0  0  0  0  0  0
    0.7582    4.5067   -1.7910 H   0  0  0  0  0  0  0  0  0  0  0  0
    0.1941    5.7673    0.2433 H   0  0  0  0  0  0  0  0  0  0  0  0
    2.8493    6.7652    2.0002 H   0  0  0  0  0  0  0  0  0  0  0  0
    2.8202    6.8674    3.7991 H   0  0  0  0  0  0  0  0  0  0  0  0
    1.6295    7.8018    2.8220 H   0  0  0  0  0  0  0  0  0  0  0  0
    2.9131    3.3328    2.5226 H   0  0  0  0  0  0  0  0  0  0  0  0
    3.5093    2.0823    0.4862 H   0  0  0  0  0  0  0  0  0  0  0  0
    2.8576   -0.2438   -2.6784 H   0  0  0  0  0  0  0  0  0  0  0  0
    5.0563   -1.1495   -3.3191 H   0  0  0  0  0  0  0  0  0  0  0  0
    9.2116   -0.8563   -1.8253 H   0  0  0  0  0  0  0  0  0  0  0  0
    8.3021    0.5654   -1.1882 H   0  0  0  0  0  0  0  0  0  0  0  0
    7.4927   -1.0576   -1.3216 H   0  0  0  0  0  0  0  0  0  0  0  0
    6.8628    2.6979   -2.6645 H   0  0  0  0  0  0  0  0  0  0  0  0
    4.6693    3.6270   -2.0277 H   0  0  0  0  0  0  0  0  0  0  0  0
    1.2873    0.1956   -5.9401 H   0  0  0  0  0  0  0  0  0  0  0  0
    4.3342   -2.3321   -6.8228 H   0  0  0  0  0  0  0  0  0  0  0  0
    3.5752   -1.4152   -5.5047 H   0  0  0  0  0  0  0  0  0  0  0  0
    1.3432   -1.7096   -6.8976 H   0  0  0  0  0  0  0  0  0  0  0  0
    2.2990   -2.8786   -7.8926 H   0  0  0  0  0  0  0  0  0  0  0  0
    2.0673   -3.1406   -6.1204 H   0  0  0  0  0  0  0  0  0  0  0  0
    3.8459    0.5660   -9.3931 H   0  0  0  0  0  0  0  0  0  0  0  0
    3.7423   -1.2099   -9.3623 H   0  0  0  0  0  0  0  0  0  0  0  0
    1.3383    0.5453   -8.5124 H   0  0  0  0  0  0  0  0  0  0  0  0
    1.7188    0.2197  -10.2265 H   0  0  0  0  0  0  0  0  0  0  0  0
    1.3443   -1.1511   -9.1553 H   0  0  0  0  0  0  0  0  0  0  0  0
    4.6992    3.7716   -5.4749 H   0  0  0  0  0  0  0  0  0  0  0  0
    2.5761    3.9158   -4.2193 H   0  0  0  0  0  0  0  0  0  0  0  0
    6.8463    2.8876   -6.1924 H   0  0  0  0  0  0  0  0  0  0  0  0
    8.7755    1.4016   -6.4701 H   0  0  0  0  0  0  0  0  0  0  0  0
    6.1709   -1.7421   -7.9137 H   0  0  0  0  0  0  0  0  0  0  0  0
    8.3447   -2.3253   -7.3467 H   0  0  0  0  0  0  0  0  0  0  0  0
   13.1594    0.4979   -4.7739 H   0  0  0  0  0  0  0  0  0  0  0  0
   11.0970   -3.5044   -2.6370 H   0  0  0  0  0  0  0  0  0  0  0  0
  1  2  2  3
  2  3  1  0
  3  4  2  0
  3  5  1  0
  5  6  2  0
  6  7  1  0
  7  8  1  0
  7  9  2  0
  9 10  1  0
  9 11  1  0
 11 12  2  0
 12 13  1  0
 13 14  2  3
 14 15  1  0
 15 16  3  0
 14 17  1  0
 17 18  3  0
  1 19  1  0
 19 20  2  0
 20 21  1  0
 21 22  1  0
 22 23  2  0
 23 24  1  0
 24 25  2  0
 25 26  1  0
 25 27  1  0
 27 28  2  0
 21 29  1  0
 29 30  2  0
 30 31  1  0
 31 32  2  0
 32 33  1  0
 32 34  1  0
 34 35  2  0
 20 36  1  0
 36 37  1  0
 37 38  1  0
 38 39  2  0
 39 40  1  0
 40 41  1  0
 41 42  2  0
 42 43  1  0
 43 44  2  0
 44 45  1  0
 44 46  1  0
 46 47  2  0
 40 48  1  0
 48 49  2  0
 49 50  1  0
 50 51  2  0
 51 52  1  0
 51 53  1  0
 53 54  2  0
 39 55  1  0
 55 56  1  0
 38 57  1  0
 57 58  2  0
 58 59  1  0
 59 60  1  0
 60 61  2  0
 61 62  1  0
 62 63  2  0
 63 64  1  0
 64 65  1  0
 63 66  1  0
 66 67  2  0
 59 68  1  0
 68 69  2  0
 69 70  1  0
 70 71  2  0
 71 72  1  0
 72 73  1  0
 71 74  1  0
 74 75  2  0
 58 76  1  0
 76 77  1  0
 77 78  1  0
 78 79  2  0
 79 80  1  0
 80 81  1  0
 81 82  2  0
 82 83  1  0
 83 84  2  0
 84 85  1  0
 85 86  1  0
 84 87  1  0
 87 88  2  0
 80 89  1  0
 89 90  2  0
 90 91  1  0
 91 92  2  0
 92 93  1  0
 93 94  1  0
 92 95  1  0
 95 96  2  0
 79 97  1  0
 97 98  1  0
 78 99  1  0
 99100  2  0
100101  1  0
101102  1  0
102103  1  0
103104  1  0
102105  1  0
105106  1  0
102107  1  0
107108  2  0
108109  1  0
109110  1  0
110111  2  0
108112  1  0
112113  2  0
113114  1  0
114115  2  0
114116  1  0
116117  2  3
117118  1  0
118119  2  0
118120  1  0
120121  2  0
121122  1  0
122123  1  0
122124  2  0
124125  1  0
124126  1  0
126127  2  0
127128  1  0
128129  2  3
129130  1  0
130131  3  0
129132  1  0
132133  3  0
 13  2  1  0
 56 19  1  0
 98 57  1  0
111 99  1  0
128117  1  0
 12  5  1  0
 28 22  1  0
 35 29  1  0
 55 36  2  0
 67 60  1  0
 75 68  1  0
 97 76  2  0
109101  2  0
127120  1  0
 47 41  1  0
 54 48  1  0
 88 81  1  0
 96 89  1  0
115107  1  0
  1134  1  0
  6135  1  0
 11136  1  0
 23137  1  0
 24138  1  0
 26139  1  0
 26140  1  0
 26141  1  0
 27142  1  0
 28143  1  0
 30144  1  0
 31145  1  0
 33146  1  0
 33147  1  0
 33148  1  0
 34149  1  0
 35150  1  0
 42151  1  0
 43152  1  0
 45153  1  0
 45154  1  0
 45155  1  0
 46156  1  0
 47157  1  0
 49158  1  0
 50159  1  0
 52160  1  0
 52161  1  0
 52162  1  0
 53163  1  0
 54164  1  0
 61165  1  0
 62166  1  0
 65167  1  0
 65168  1  0
 65169  1  0
 66170  1  0
 67171  1  0
 69172  1  0
 70173  1  0
 73174  1  0
 73175  1  0
 73176  1  0
 74177  1  0
 75178  1  0
 82179  1  0
 83180  1  0
 86181  1  0
 86182  1  0
 86183  1  0
 87184  1  0
 88185  1  0
 90186  1  0
 91187  1  0
 94188  1  0
 94189  1  0
 94190  1  0
 95191  1  0
 96192  1  0
100193  1  0
103194  1  0
103195  1  0
104196  1  0
104197  1  0
104198  1  0
105199  1  0
105200  1  0
106201  1  0
106202  1  0
106203  1  0
110204  1  0
111205  1  0
112206  1  0
113207  1  0
115208  1  0
116209  1  0
121210  1  0
126211  1  0
M  END

