
     RDKit          3D

207225  0  0  0  0  0  0  0  0999 V2000
    6.7955    1.3617   -3.9917 C   0  0  0  0  0  0  0  0  0  0  0  0
    6.8166    1.2821   -5.3428 C   0  0  0  0  0  0  0  0  0  0  0  0
    5.6274    1.1059   -6.1961 C   0  0  0  0  0  0  0  0  0  0  0  0
    4.4304    1.3563   -5.8880 O   0  0  0  0  0  0  0  0  0  0  0  0
    6.0430    0.5721   -7.4716 C   0  0  0  0  0  0  0  0  0  0  0  0
    5.2442    0.2487   -8.5686 C   0  0  0  0  0  0  0  0  0  0  0  0
    5.8715   -0.2104   -9.7379 C   0  0  0  0  0  0  0  0  0  0  0  0
    5.1170   -0.5351  -10.8214 F   0  0  0  0  0  0  0  0  0  0  0  0
    7.2762   -0.3083   -9.7916 C   0  0  0  0  0  0  0  0  0  0  0  0
    7.8793   -0.7190  -10.9405 F   0  0  0  0  0  0  0  0  0  0  0  0
    8.0633    0.0251   -8.6702 C   0  0  0  0  0  0  0  0  0  0  0  0
    7.4195    0.4351   -7.4948 C   0  0  0  0  0  0  0  0  0  0  0  0
    7.9860    0.9058   -6.2014 C   0  0  0  0  0  0  0  0  0  0  0  0
    9.2969    0.9332   -5.8590 C   0  0  0  0  0  0  0  0  0  0  0  0
    9.7812    1.6986   -4.7488 C   0  0  0  0  0  0  0  0  0  0  0  0
   10.1726    2.3027   -3.8464 N   0  0  0  0  0  0  0  0  0  0  0  0
   10.2231   -0.0186   -6.4124 C   0  0  0  0  0  0  0  0  0  0  0  0
   10.9450   -0.8393   -6.7828 N   0  0  0  0  0  0  0  0  0  0  0  0
    5.5428    1.3074   -3.2376 C   0  0  0  0  0  0  0  0  0  0  0  0
    4.9205    0.1307   -2.7782 C   0  0  0  0  0  0  0  0  0  0  0  0
    5.5941   -1.1005   -2.4149 N   0  0  0  0  0  0  0  0  0  0  0  0
    6.8343   -1.5410   -2.9989 C   0  0  0  0  0  0  0  0  0  0  0  0
    7.9255   -1.8470   -2.1575 C   0  0  0  0  0  0  0  0  0  0  0  0
    9.0484   -2.5118   -2.6605 C   0  0  0  0  0  0  0  0  0  0  0  0
    9.1001   -2.8742   -4.0098 C   0  0  0  0  0  0  0  0  0  0  0  0
   10.2345   -3.7072   -4.5256 C   0  0  0  0  0  0  0  0  0  0  0  0
    8.0424   -2.5200   -4.8648 C   0  0  0  0  0  0  0  0  0  0  0  0
    6.9041   -1.8705   -4.3602 C   0  0  0  0  0  0  0  0  0  0  0  0
    5.1096   -1.8524   -1.2835 C   0  0  0  0  0  0  0  0  0  0  0  0
    4.6945   -3.1830   -1.4486 C   0  0  0  0  0  0  0  0  0  0  0  0
    4.1410   -3.8842   -0.3726 C   0  0  0  0  0  0  0  0  0  0  0  0
    4.0150   -3.2649    0.8864 C   0  0  0  0  0  0  0  0  0  0  0  0
    3.3639   -3.9924    2.0228 C   0  0  0  0  0  0  0  0  0  0  0  0
    4.4447   -1.9440    1.0498 C   0  0  0  0  0  0  0  0  0  0  0  0
    5.0033   -1.2440   -0.0247 C   0  0  0  0  0  0  0  0  0  0  0  0
    3.5843    0.4050   -2.4588 C   0  0  0  0  0  0  0  0  0  0  0  0
    2.3714   -0.5087   -1.8051 S   0  0  0  0  0  0  0  0  0  0  0  0
    1.2407    0.7388   -1.6548 C   0  0  0  0  0  0  0  0  0  0  0  0
    1.8806    1.9606   -2.0140 C   0  0  0  0  0  0  0  0  0  0  0  0
    1.5705    3.2181   -1.3726 N   0  0  0  0  0  0  0  0  0  0  0  0
    1.9480    3.4208    0.0164 C   0  0  0  0  0  0  0  0  0  0  0  0
    1.1834    4.2366    0.8746 C   0  0  0  0  0  0  0  0  0  0  0  0
    1.5646    4.4369    2.2034 C   0  0  0  0  0  0  0  0  0  0  0  0
    2.7252    3.8325    2.7092 C   0  0  0  0  0  0  0  0  0  0  0  0
    3.1633    4.0616    4.1253 C   0  0  0  0  0  0  0  0  0  0  0  0
    3.4954    3.0252    1.8666 C   0  0  0  0  0  0  0  0  0  0  0  0
    3.1117    2.8186    0.5421 C   0  0  0  0  0  0  0  0  0  0  0  0
    1.1033    4.3445   -2.1503 C   0  0  0  0  0  0  0  0  0  0  0  0
   -0.2214    4.8053   -2.0206 C   0  0  0  0  0  0  0  0  0  0  0  0
   -0.6178    6.0029   -2.6195 C   0  0  0  0  0  0  0  0  0  0  0  0
    0.2682    6.7227   -3.4274 C   0  0  0  0  0  0  0  0  0  0  0  0
   -0.1596    8.0198   -4.0553 C   0  0  0  0  0  0  0  0  0  0  0  0
    1.5841    6.2687   -3.5715 C   0  0  0  0  0  0  0  0  0  0  0  0
    2.0019    5.1044   -2.9166 C   0  0  0  0  0  0  0  0  0  0  0  0
    3.1672    1.6978   -2.5455 C   0  0  0  0  0  0  0  0  0  0  0  0
    4.4678    2.6145   -3.0817 S   0  0  0  0  0  0  0  0  0  0  0  0
   -0.1012    0.5067   -1.0678 C   0  0  0  0  0  0  0  0  0  0  0  0
   -0.6107   -0.7338   -0.5964 C   0  0  0  0  0  0  0  0  0  0  0  0
   -0.4081   -2.0216   -1.2441 N   0  0  0  0  0  0  0  0  0  0  0  0
   -0.0258   -2.1201   -2.6376 C   0  0  0  0  0  0  0  0  0  0  0  0
    0.8355   -3.1576   -3.0467 C   0  0  0  0  0  0  0  0  0  0  0  0
    1.1935   -3.2913   -4.3884 C   0  0  0  0  0  0  0  0  0  0  0  0
    0.6991   -2.3878   -5.3393 C   0  0  0  0  0  0  0  0  0  0  0  0
    1.2050   -2.5256   -7.0626 S   0  0  0  0  0  0  0  0  0  0  0  0
   -0.2934   -3.4223   -7.5894 C   0  0  0  0  0  0  0  0  0  0  0  0
   -0.1580   -1.3573   -4.9439 C   0  0  0  0  0  0  0  0  0  0  0  0
   -0.5394   -1.2349   -3.6048 C   0  0  0  0  0  0  0  0  0  0  0  0
   -1.1428   -3.1642   -0.7778 C   0  0  0  0  0  0  0  0  0  0  0  0
   -0.5877   -4.0340    0.1685 C   0  0  0  0  0  0  0  0  0  0  0  0
   -1.2622   -5.2143    0.5103 C   0  0  0  0  0  0  0  0  0  0  0  0
   -2.5010   -5.5085   -0.0659 C   0  0  0  0  0  0  0  0  0  0  0  0
   -3.3151   -7.0649    0.2984 S   0  0  0  0  0  0  0  0  0  0  0  0
   -2.6481   -7.8929   -1.1797 C   0  0  0  0  0  0  0  0  0  0  0  0
   -3.0775   -4.6145   -0.9698 C   0  0  0  0  0  0  0  0  0  0  0  0
   -2.3990   -3.4515   -1.3337 C   0  0  0  0  0  0  0  0  0  0  0  0
   -1.7166   -0.5067    0.2276 C   0  0  0  0  0  0  0  0  0  0  0  0
   -2.4274   -1.3634    1.4688 S   0  0  0  0  0  0  0  0  0  0  0  0
   -3.6246   -0.2033    1.8123 C   0  0  0  0  0  0  0  0  0  0  0  0
   -3.4756    0.8796    0.9081 C   0  0  0  0  0  0  0  0  0  0  0  0
   -4.5491    1.7723    0.5083 N   0  0  0  0  0  0  0  0  0  0  0  0
   -5.9674    1.4520    0.6579 C   0  0  0  0  0  0  0  0  0  0  0  0
   -6.9373    2.4795    0.5269 C   0  0  0  0  0  0  0  0  0  0  0  0
   -8.2919    2.1851    0.3656 C   0  0  0  0  0  0  0  0  0  0  0  0
   -8.7485    0.8608    0.4124 C   0  0  0  0  0  0  0  0  0  0  0  0
  -10.4352    0.3547   -0.0134 S   0  0  0  0  0  0  0  0  0  0  0  0
  -11.3494    1.8936    0.2932 C   0  0  0  0  0  0  0  0  0  0  0  0
   -7.8095   -0.1610    0.6179 C   0  0  0  0  0  0  0  0  0  0  0  0
   -6.4409    0.1201    0.6869 C   0  0  0  0  0  0  0  0  0  0  0  0
   -4.2686    2.7488   -0.5129 C   0  0  0  0  0  0  0  0  0  0  0  0
   -4.5389    2.4292   -1.8557 C   0  0  0  0  0  0  0  0  0  0  0  0
   -4.5246    3.4199   -2.8334 C   0  0  0  0  0  0  0  0  0  0  0  0
   -4.1931    4.7329   -2.4862 C   0  0  0  0  0  0  0  0  0  0  0  0
   -4.3543    6.0462   -3.7016 S   0  0  0  0  0  0  0  0  0  0  0  0
   -3.0743    5.4378   -4.8530 C   0  0  0  0  0  0  0  0  0  0  0  0
   -3.8427    5.0449   -1.1626 C   0  0  0  0  0  0  0  0  0  0  0  0
   -3.8880    4.0525   -0.1727 C   0  0  0  0  0  0  0  0  0  0  0  0
   -2.2922    0.7123    0.1584 C   0  0  0  0  0  0  0  0  0  0  0  0
   -1.2509    1.7127   -0.7069 S   0  0  0  0  0  0  0  0  0  0  0  0
   -4.4101   -0.2117    3.0805 C   0  0  0  0  0  0  0  0  0  0  0  0
   -4.6701    1.0192    3.7295 C   0  0  0  0  0  0  0  0  0  0  0  0
   -4.8505    1.0630    5.1193 C   0  0  0  0  0  0  0  0  0  0  0  0
   -4.7472   -0.1066    5.8807 C   0  0  0  0  0  0  0  0  0  0  0  0
   -4.8096   -1.3441    5.1997 C   0  0  0  0  0  0  0  0  0  0  0  0
   -4.6006   -2.7002    5.7486 C   0  0  0  0  0  0  0  0  0  0  0  0
   -5.1075   -3.2916    6.8448 C   0  0  0  0  0  0  0  0  0  0  0  0
   -6.1884   -2.7677    7.7062 C   0  0  0  0  0  0  0  0  0  0  0  0
   -6.4263   -3.2974    8.9861 C   0  0  0  0  0  0  0  0  0  0  0  0
   -7.4968   -2.7033    9.6391 C   0  0  0  0  0  0  0  0  0  0  0  0
   -8.1772   -1.5591    8.6229 S   0  0  0  0  0  0  0  0  0  0  0  0
   -7.1203   -1.7911    7.3437 C   0  0  0  0  0  0  0  0  0  0  0  0
   -4.1174   -3.4622    4.6095 C   0  0  0  0  0  0  0  0  0  0  0  0
   -3.5639   -4.5902    4.6680 O   0  0  0  0  0  0  0  0  0  0  0  0
   -4.2858   -2.7347    3.3953 N   0  0  0  0  0  0  0  0  0  0  0  0
   -4.8940   -3.3838    2.2278 C   0  0  0  0  0  0  0  0  0  0  0  0
   -6.3612   -3.7089    2.4865 C   0  0  0  0  0  0  0  0  0  0  0  0
   -4.6092   -1.4034    3.8225 C   0  0  0  0  0  0  0  0  0  0  0  0
   -4.2006   -0.0600    7.2561 C   0  0  0  0  0  0  0  0  0  0  0  0
   -2.8709    0.0800    7.4391 C   0  0  0  0  0  0  0  0  0  0  0  0
   -1.9933    0.7420    6.4608 C   0  0  0  0  0  0  0  0  0  0  0  0
   -2.1988    1.8606    5.9326 O   0  0  0  0  0  0  0  0  0  0  0  0
   -0.7408    0.0218    6.3882 C   0  0  0  0  0  0  0  0  0  0  0  0
    0.3251    0.2524    5.5199 C   0  0  0  0  0  0  0  0  0  0  0  0
    1.4541   -0.5707    5.6304 C   0  0  0  0  0  0  0  0  0  0  0  0
    2.5035   -0.3803    4.7962 F   0  0  0  0  0  0  0  0  0  0  0  0
    1.4983   -1.5907    6.6018 C   0  0  0  0  0  0  0  0  0  0  0  0
    2.5868   -2.3891    6.7073 F   0  0  0  0  0  0  0  0  0  0  0  0
    0.4016   -1.8004    7.4635 C   0  0  0  0  0  0  0  0  0  0  0  0
   -0.7285   -0.9845    7.3367 C   0  0  0  0  0  0  0  0  0  0  0  0
   -2.0275   -0.9786    8.0800 C   0  0  0  0  0  0  0  0  0  0  0  0
   -2.3736   -1.7660    9.1164 C   0  0  0  0  0  0  0  0  0  0  0  0
   -3.5055   -1.4866    9.9676 C   0  0  0  0  0  0  0  0  0  0  0  0
   -4.4279   -1.2815   10.6440 N   0  0  0  0  0  0  0  0  0  0  0  0
   -1.7284   -3.0361    9.3567 C   0  0  0  0  0  0  0  0  0  0  0  0
   -1.2524   -4.0795    9.5081 N   0  0  0  0  0  0  0  0  0  0  0  0
    7.6991    1.2297   -3.4201 H   0  0  0  0  0  0  0  0  0  0  0  0
    4.1641    0.3651   -8.5305 H   0  0  0  0  0  0  0  0  0  0  0  0
    9.1394   -0.0176   -8.7516 H   0  0  0  0  0  0  0  0  0  0  0  0
    7.8914   -1.6142   -1.1018 H   0  0  0  0  0  0  0  0  0  0  0  0
    9.8389   -2.8073   -1.9641 H   0  0  0  0  0  0  0  0  0  0  0  0
   10.7060   -3.2074   -5.3977 H   0  0  0  0  0  0  0  0  0  0  0  0
    9.8514   -4.7019   -4.8357 H   0  0  0  0  0  0  0  0  0  0  0  0
   11.0052   -3.8699   -3.7436 H   0  0  0  0  0  0  0  0  0  0  0  0
    8.0678   -2.7982   -5.9103 H   0  0  0  0  0  0  0  0  0  0  0  0
    6.0660   -1.6612   -5.0301 H   0  0  0  0  0  0  0  0  0  0  0  0
    4.7741   -3.6553   -2.4189 H   0  0  0  0  0  0  0  0  0  0  0  0
    3.8009   -4.9000   -0.5271 H   0  0  0  0  0  0  0  0  0  0  0  0
    2.2786   -3.7638    2.0256 H   0  0  0  0  0  0  0  0  0  0  0  0
    3.5075   -5.0902    1.9211 H   0  0  0  0  0  0  0  0  0  0  0  0
    3.8007   -3.6707    2.9896 H   0  0  0  0  0  0  0  0  0  0  0  0
    4.3335   -1.4390    2.0037 H   0  0  0  0  0  0  0  0  0  0  0  0
    5.3197   -0.2185    0.1212 H   0  0  0  0  0  0  0  0  0  0  0  0
    0.2780    4.7106    0.5394 H   0  0  0  0  0  0  0  0  0  0  0  0
    0.9506    5.0688    2.8429 H   0  0  0  0  0  0  0  0  0  0  0  0
    2.4175    4.6540    4.6865 H   0  0  0  0  0  0  0  0  0  0  0  0
    3.2956    3.0863    4.6278 H   0  0  0  0  0  0  0  0  0  0  0  0
    4.1311    4.6099    4.1220 H   0  0  0  0  0  0  0  0  0  0  0  0
    4.3979    2.5550    2.2322 H   0  0  0  0  0  0  0  0  0  0  0  0
    3.7568    2.1972   -0.0658 H   0  0  0  0  0  0  0  0  0  0  0  0
   -0.9370    4.2924   -1.3905 H   0  0  0  0  0  0  0  0  0  0  0  0
   -1.6172    6.3783   -2.4448 H   0  0  0  0  0  0  0  0  0  0  0  0
    0.2053    8.0746   -5.1020 H   0  0  0  0  0  0  0  0  0  0  0  0
   -1.2693    8.1170   -4.0681 H   0  0  0  0  0  0  0  0  0  0  0  0
    0.2604    8.8676   -3.4770 H   0  0  0  0  0  0  0  0  0  0  0  0
    2.2961    6.8333   -4.1679 H   0  0  0  0  0  0  0  0  0  0  0  0
    3.0398    4.8402   -2.9769 H   0  0  0  0  0  0  0  0  0  0  0  0
    1.2331   -3.8483   -2.3099 H   0  0  0  0  0  0  0  0  0  0  0  0
    1.8639   -4.0889   -4.6862 H   0  0  0  0  0  0  0  0  0  0  0  0
   -0.5312   -3.1464   -8.6365 H   0  0  0  0  0  0  0  0  0  0  0  0
   -1.1805   -3.1889   -6.9632 H   0  0  0  0  0  0  0  0  0  0  0  0
   -0.1027   -4.5165   -7.5430 H   0  0  0  0  0  0  0  0  0  0  0  0
   -0.5454   -0.6617   -5.6801 H   0  0  0  0  0  0  0  0  0  0  0  0
   -1.2379   -0.4561   -3.3367 H   0  0  0  0  0  0  0  0  0  0  0  0
    0.3661   -3.8024    0.6236 H   0  0  0  0  0  0  0  0  0  0  0  0
   -0.8140   -5.8990    1.2154 H   0  0  0  0  0  0  0  0  0  0  0  0
   -2.7283   -8.9915   -1.0520 H   0  0  0  0  0  0  0  0  0  0  0  0
   -3.2422   -7.5999   -2.0714 H   0  0  0  0  0  0  0  0  0  0  0  0
   -1.5803   -7.6354   -1.3386 H   0  0  0  0  0  0  0  0  0  0  0  0
   -4.0232   -4.8421   -1.4514 H   0  0  0  0  0  0  0  0  0  0  0  0
   -2.8303   -2.8024   -2.0861 H   0  0  0  0  0  0  0  0  0  0  0  0
   -6.6439    3.5181    0.4711 H   0  0  0  0  0  0  0  0  0  0  0  0
   -8.9437    3.0199    0.1463 H   0  0  0  0  0  0  0  0  0  0  0  0
  -11.2252    2.2270    1.3450 H   0  0  0  0  0  0  0  0  0  0  0  0
  -11.0264    2.6810   -0.4104 H   0  0  0  0  0  0  0  0  0  0  0  0
  -12.4269    1.6970    0.1044 H   0  0  0  0  0  0  0  0  0  0  0  0
   -8.1289   -1.1947    0.6222 H   0  0  0  0  0  0  0  0  0  0  0  0
   -5.7722   -0.7251    0.6965 H   0  0  0  0  0  0  0  0  0  0  0  0
   -4.8537    1.4246   -2.1191 H   0  0  0  0  0  0  0  0  0  0  0  0
   -4.7915    3.1599   -3.8541 H   0  0  0  0  0  0  0  0  0  0  0  0
   -2.3295    4.7817   -4.3524 H   0  0  0  0  0  0  0  0  0  0  0  0
   -3.5662    4.8688   -5.6684 H   0  0  0  0  0  0  0  0  0  0  0  0
   -2.5455    6.3052   -5.3015 H   0  0  0  0  0  0  0  0  0  0  0  0
   -3.6045    6.0589   -0.8840 H   0  0  0  0  0  0  0  0  0  0  0  0
   -3.6993    4.3061    0.8603 H   0  0  0  0  0  0  0  0  0  0  0  0
   -4.5554    1.9564    3.2067 H   0  0  0  0  0  0  0  0  0  0  0  0
   -4.8642    2.0237    5.6065 H   0  0  0  0  0  0  0  0  0  0  0  0
   -4.8049   -4.3118    7.0365 H   0  0  0  0  0  0  0  0  0  0  0  0
   -5.8213   -4.0714    9.4333 H   0  0  0  0  0  0  0  0  0  0  0  0
   -7.8440   -2.9625   10.6298 H   0  0  0  0  0  0  0  0  0  0  0  0
   -7.1888   -1.2868    6.3894 H   0  0  0  0  0  0  0  0  0  0  0  0
   -4.3431   -4.3247    1.9982 H   0  0  0  0  0  0  0  0  0  0  0  0
   -4.8289   -2.7382    1.3319 H   0  0  0  0  0  0  0  0  0  0  0  0
   -6.8024   -4.2170    1.6030 H   0  0  0  0  0  0  0  0  0  0  0  0
   -6.4623   -4.3883    3.3590 H   0  0  0  0  0  0  0  0  0  0  0  0
   -6.9309   -2.7723    2.6865 H   0  0  0  0  0  0  0  0  0  0  0  0
   -4.7657   -0.5990    7.9846 H   0  0  0  0  0  0  0  0  0  0  0  0
    0.2873    1.0423    4.7733 H   0  0  0  0  0  0  0  0  0  0  0  0
    0.4858   -2.5681    8.2151 H   0  0  0  0  0  0  0  0  0  0  0  0
  1  2  2  3
  2  3  1  0
  3  4  2  0
  3  5  1  0
  5  6  2  0
  6  7  1  0
  7  8  1  0
  7  9  2  0
  9 10  1  0
  9 11  1  0
 11 12  2  0
 12 13  1  0
 13 14  2  3
 14 15  1  0
 15 16  3  0
 14 17  1  0
 17 18  3  0
  1 19  1  0
 19 20  2  0
 20 21  1  0
 21 22  1  0
 22 23  2  0
 23 24  1  0
 24 25  2  0
 25 26  1  0
 25 27  1  0
 27 28  2  0
 21 29  1  0
 29 30  2  0
 30 31  1  0
 31 32  2  0
 32 33  1  0
 32 34  1  0
 34 35  2  0
 20 36  1  0
 36 37  1  0
 37 38  1  0
 38 39  2  0
 39 40  1  0
 40 41  1  0
 41 42  2  0
 42 43  1  0
 43 44  2  0
 44 45  1  0
 44 46  1  0
 46 47  2  0
 40 48  1  0
 48 49  2  0
 49 50  1  0
 50 51  2  0
 51 52  1  0
 51 53  1  0
 53 54  2  0
 39 55  1  0
 55 56  1  0
 38 57  1  0
 57 58  2  0
 58 59  1  0
 59 60  1  0
 60 61  2  0
 61 62  1  0
 62 63  2  0
 63 64  1  0
 64 65  1  0
 63 66  1  0
 66 67  2  0
 59 68  1  0
 68 69  2  0
 69 70  1  0
 70 71  2  0
 71 72  1  0
 72 73  1  0
 71 74  1  0
 74 75  2  0
 58 76  1  0
 76 77  1  0
 77 78  1  0
 78 79  2  0
 79 80  1  0
 80 81  1  0
 81 82  2  0
 82 83  1  0
 83 84  2  0
 84 85  1  0
 85 86  1  0
 84 87  1  0
 87 88  2  0
 80 89  1  0
 89 90  2  0
 90 91  1  0
 91 92  2  0
 92 93  1  0
 93 94  1  0
 92 95  1  0
 95 96  2  0
 79 97  1  0
 97 98  1  0
 78 99  1  0
 99100  2  0
100101  1  0
101102  2  0
102103  1  0
103104  1  0
104105  2  3
105106  1  0
106107  1  0
107108  2  0
108109  1  0
109110  1  0
104111  1  0
111112  2  0
111113  1  0
113114  1  0
114115  1  0
113116  1  0
102117  1  0
117118  2  3
118119  1  0
119120  2  0
119121  1  0
121122  2  0
122123  1  0
123124  1  0
123125  2  0
125126  1  0
125127  1  0
127128  2  0
128129  1  0
129130  2  3
130131  1  0
131132  3  0
130133  1  0
133134  3  0
 13  2  1  0
 56 19  1  0
 98 57  1  0
116 99  1  0
129118  1  0
 12  5  1  0
 28 22  1  0
 35 29  1  0
 55 36  2  0
 67 60  1  0
 75 68  1  0
 97 76  2  0
116103  2  0
128121  1  0
 47 41  1  0
 54 48  1  0
 88 81  1  0
 96 89  1  0
110106  2  0
  1135  1  0
  6136  1  0
 11137  1  0
 23138  1  0
 24139  1  0
 26140  1  0
 26141  1  0
 26142  1  0
 27143  1  0
 28144  1  0
 30145  1  0
 31146  1  0
 33147  1  0
 33148  1  0
 33149  1  0
 34150  1  0
 35151  1  0
 42152  1  0
 43153  1  0
 45154  1  0
 45155  1  0
 45156  1  0
 46157  1  0
 47158  1  0
 49159  1  0
 50160  1  0
 52161  1  0
 52162  1  0
 52163  1  0
 53164  1  0
 54165  1  0
 61166  1  0
 62167  1  0
 65168  1  0
 65169  1  0
 65170  1  0
 66171  1  0
 67172  1  0
 69173  1  0
 70174  1  0
 73175  1  0
 73176  1  0
 73177  1  0
 74178  1  0
 75179  1  0
 82180  1  0
 83181  1  0
 86182  1  0
 86183  1  0
 86184  1  0
 87185  1  0
 88186  1  0
 90187  1  0
 91188  1  0
 94189  1  0
 94190  1  0
 94191  1  0
 95192  1  0
 96193  1  0
100194  1  0
101195  1  0
105196  1  0
107197  1  0
108198  1  0
110199  1  0
114200  1  0
114201  1  0
115202  1  0
115203  1  0
115204  1  0
117205  1  0
122206  1  0
127207  1  0
M  END

