
     RDKit          3D

248269  0  0  0  0  0  0  0  0999 V2000
    1.3380   -6.1454    2.9935 C   0  0  0  0  0  0  0  0  0  0  0  0
    0.1956   -5.9144    3.6590 C   0  0  0  0  0  0  0  0  0  0  0  0
   -0.7128   -4.7871    3.4798 C   0  0  0  0  0  0  0  0  0  0  0  0
   -0.8987   -4.1466    2.4149 O   0  0  0  0  0  0  0  0  0  0  0  0
   -1.5781   -4.7251    4.6460 C   0  0  0  0  0  0  0  0  0  0  0  0
   -2.6275   -3.8418    4.8975 C   0  0  0  0  0  0  0  0  0  0  0  0
   -3.4490   -4.0656    6.0190 C   0  0  0  0  0  0  0  0  0  0  0  0
   -4.4596   -3.2118    6.2997 F   0  0  0  0  0  0  0  0  0  0  0  0
   -3.2328   -5.2197    6.8189 C   0  0  0  0  0  0  0  0  0  0  0  0
   -4.0860   -5.4665    7.8463 F   0  0  0  0  0  0  0  0  0  0  0  0
   -2.1707   -6.0874    6.5467 C   0  0  0  0  0  0  0  0  0  0  0  0
   -1.3084   -5.7941    5.4779 C   0  0  0  0  0  0  0  0  0  0  0  0
   -0.2313   -6.6301    4.8837 C   0  0  0  0  0  0  0  0  0  0  0  0
   -0.1517   -7.9578    5.0661 C   0  0  0  0  0  0  0  0  0  0  0  0
    0.0846   -8.8496    3.9570 C   0  0  0  0  0  0  0  0  0  0  0  0
    0.2648   -9.5742    3.0724 N   0  0  0  0  0  0  0  0  0  0  0  0
   -0.1107   -8.5448    6.3809 C   0  0  0  0  0  0  0  0  0  0  0  0
    0.0161   -9.0208    7.4170 N   0  0  0  0  0  0  0  0  0  0  0  0
    1.6334   -5.5363    1.6999 C   0  0  0  0  0  0  0  0  0  0  0  0
    2.4601   -4.4368    1.4203 C   0  0  0  0  0  0  0  0  0  0  0  0
    3.1750   -3.6627    2.3981 N   0  0  0  0  0  0  0  0  0  0  0  0
    4.3457   -4.2779    2.9471 C   0  0  0  0  0  0  0  0  0  0  0  0
    5.4577   -4.5111    2.1200 C   0  0  0  0  0  0  0  0  0  0  0  0
    6.6018   -5.1197    2.6340 C   0  0  0  0  0  0  0  0  0  0  0  0
    6.6692   -5.4691    3.9917 C   0  0  0  0  0  0  0  0  0  0  0  0
    7.9125   -6.0849    4.5570 C   0  0  0  0  0  0  0  0  0  0  0  0
    5.5657   -5.2068    4.8284 C   0  0  0  0  0  0  0  0  0  0  0  0
    4.4152   -4.6098    4.3066 C   0  0  0  0  0  0  0  0  0  0  0  0
    3.0136   -2.2176    2.4529 C   0  0  0  0  0  0  0  0  0  0  0  0
    1.7981   -1.6122    2.0685 C   0  0  0  0  0  0  0  0  0  0  0  0
    1.7002   -0.2261    1.9252 C   0  0  0  0  0  0  0  0  0  0  0  0
    2.7887    0.6016    2.2351 C   0  0  0  0  0  0  0  0  0  0  0  0
    2.7033    2.0805    2.0112 C   0  0  0  0  0  0  0  0  0  0  0  0
    3.9798    0.0164    2.6933 C   0  0  0  0  0  0  0  0  0  0  0  0
    4.0918   -1.3723    2.8106 C   0  0  0  0  0  0  0  0  0  0  0  0
    2.3943   -4.1085    0.0703 C   0  0  0  0  0  0  0  0  0  0  0  0
    2.7766   -2.7298   -0.7404 S   0  0  0  0  0  0  0  0  0  0  0  0
    1.7672   -2.9809   -2.0878 C   0  0  0  0  0  0  0  0  0  0  0  0
    1.1773   -4.2735   -1.9221 C   0  0  0  0  0  0  0  0  0  0  0  0
    0.3086   -4.9595   -2.8637 N   0  0  0  0  0  0  0  0  0  0  0  0
    0.2353   -6.4013   -2.8212 C   0  0  0  0  0  0  0  0  0  0  0  0
    1.3876   -7.1681   -3.0569 C   0  0  0  0  0  0  0  0  0  0  0  0
    1.3435   -8.5596   -2.9383 C   0  0  0  0  0  0  0  0  0  0  0  0
    0.1468   -9.2007   -2.5807 C   0  0  0  0  0  0  0  0  0  0  0  0
    0.0938  -10.6933   -2.4821 C   0  0  0  0  0  0  0  0  0  0  0  0
   -1.0055   -8.4392   -2.3643 C   0  0  0  0  0  0  0  0  0  0  0  0
   -0.9614   -7.0457   -2.4786 C   0  0  0  0  0  0  0  0  0  0  0  0
   -0.3164   -4.3054   -3.9780 C   0  0  0  0  0  0  0  0  0  0  0  0
   -1.7139   -4.1532   -4.0092 C   0  0  0  0  0  0  0  0  0  0  0  0
   -2.3345   -3.5342   -5.0952 C   0  0  0  0  0  0  0  0  0  0  0  0
   -1.5632   -3.0463   -6.1589 C   0  0  0  0  0  0  0  0  0  0  0  0
   -2.2307   -2.4059   -7.3374 C   0  0  0  0  0  0  0  0  0  0  0  0
   -0.1692   -3.2323   -6.1534 C   0  0  0  0  0  0  0  0  0  0  0  0
    0.4490   -3.8599   -5.0675 C   0  0  0  0  0  0  0  0  0  0  0  0
    1.5389   -4.8340   -0.6884 C   0  0  0  0  0  0  0  0  0  0  0  0
    0.8290   -6.0014    0.2781 S   0  0  0  0  0  0  0  0  0  0  0  0
    1.0550   -1.7935   -2.6011 C   0  0  0  0  0  0  0  0  0  0  0  0
    1.5927   -0.4767   -2.5768 C   0  0  0  0  0  0  0  0  0  0  0  0
    2.8677   -0.1086   -3.1377 N   0  0  0  0  0  0  0  0  0  0  0  0
    2.9192    0.4883   -4.4407 C   0  0  0  0  0  0  0  0  0  0  0  0
    3.7990    1.5546   -4.6849 C   0  0  0  0  0  0  0  0  0  0  0  0
    4.0523    1.9810   -5.9939 C   0  0  0  0  0  0  0  0  0  0  0  0
    3.4321    1.3346   -7.0713 C   0  0  0  0  0  0  0  0  0  0  0  0
    3.8461    1.7997   -8.7517 S   0  0  0  0  0  0  0  0  0  0  0  0
    5.2603    0.6570   -8.8671 C   0  0  0  0  0  0  0  0  0  0  0  0
    2.5208    0.2962   -6.8326 C   0  0  0  0  0  0  0  0  0  0  0  0
    2.2615   -0.1216   -5.5246 C   0  0  0  0  0  0  0  0  0  0  0  0
    4.0952   -0.6593   -2.6431 C   0  0  0  0  0  0  0  0  0  0  0  0
    4.7495   -0.0684   -1.5486 C   0  0  0  0  0  0  0  0  0  0  0  0
    6.0355   -0.4896   -1.1880 C   0  0  0  0  0  0  0  0  0  0  0  0
    6.6643   -1.5177   -1.9007 C   0  0  0  0  0  0  0  0  0  0  0  0
    8.3641   -1.9643   -1.5317 S   0  0  0  0  0  0  0  0  0  0  0  0
    7.9303   -3.2365   -0.3075 C   0  0  0  0  0  0  0  0  0  0  0  0
    6.0026   -2.1310   -2.9708 C   0  0  0  0  0  0  0  0  0  0  0  0
    4.7396   -1.6866   -3.3515 C   0  0  0  0  0  0  0  0  0  0  0  0
    0.6006    0.4648   -2.2794 C   0  0  0  0  0  0  0  0  0  0  0  0
    0.5633    2.0776   -1.8313 S   0  0  0  0  0  0  0  0  0  0  0  0
   -1.1232    2.1383   -1.5276 C   0  0  0  0  0  0  0  0  0  0  0  0
   -1.6552    0.8682   -1.8313 C   0  0  0  0  0  0  0  0  0  0  0  0
   -2.9844    0.6665   -2.3638 N   0  0  0  0  0  0  0  0  0  0  0  0
   -3.8647   -0.3148   -1.7571 C   0  0  0  0  0  0  0  0  0  0  0  0
   -4.9584   -0.8608   -2.4643 C   0  0  0  0  0  0  0  0  0  0  0  0
   -5.7989   -1.7979   -1.8603 C   0  0  0  0  0  0  0  0  0  0  0  0
   -5.5609   -2.2174   -0.5474 C   0  0  0  0  0  0  0  0  0  0  0  0
   -6.6787   -3.3900    0.2305 S   0  0  0  0  0  0  0  0  0  0  0  0
   -5.7976   -4.8747   -0.3655 C   0  0  0  0  0  0  0  0  0  0  0  0
   -4.4774   -1.6999    0.1623 C   0  0  0  0  0  0  0  0  0  0  0  0
   -3.6387   -0.7535   -0.4343 C   0  0  0  0  0  0  0  0  0  0  0  0
   -3.2167    1.1684   -3.7015 C   0  0  0  0  0  0  0  0  0  0  0  0
   -4.3420    1.9620   -3.9844 C   0  0  0  0  0  0  0  0  0  0  0  0
   -4.5443    2.4833   -5.2734 C   0  0  0  0  0  0  0  0  0  0  0  0
   -3.6176    2.2083   -6.2896 C   0  0  0  0  0  0  0  0  0  0  0  0
   -3.8486    2.8648   -7.9434 S   0  0  0  0  0  0  0  0  0  0  0  0
   -3.1184    4.4811   -7.5497 C   0  0  0  0  0  0  0  0  0  0  0  0
   -2.5033    1.4174   -6.0201 C   0  0  0  0  0  0  0  0  0  0  0  0
   -2.3136    0.8808   -4.7458 C   0  0  0  0  0  0  0  0  0  0  0  0
   -0.6511   -0.0238   -2.1477 C   0  0  0  0  0  0  0  0  0  0  0  0
   -0.6263   -1.6678   -2.3348 S   0  0  0  0  0  0  0  0  0  0  0  0
   -1.6210    2.9418   -0.3869 C   0  0  0  0  0  0  0  0  0  0  0  0
   -2.3029    4.1699   -0.4403 C   0  0  0  0  0  0  0  0  0  0  0  0
   -3.3802    4.4513   -1.3507 N   0  0  0  0  0  0  0  0  0  0  0  0
   -3.2142    5.3999   -2.4290 C   0  0  0  0  0  0  0  0  0  0  0  0
   -2.1385    6.3121   -2.4427 C   0  0  0  0  0  0  0  0  0  0  0  0
   -2.0588    7.3135   -3.4194 C   0  0  0  0  0  0  0  0  0  0  0  0
   -3.0182    7.3820   -4.4326 C   0  0  0  0  0  0  0  0  0  0  0  0
   -2.8992    8.6543   -5.6882 S   0  0  0  0  0  0  0  0  0  0  0  0
   -4.2556    9.6774   -5.0043 C   0  0  0  0  0  0  0  0  0  0  0  0
   -4.0567    6.4500   -4.4716 C   0  0  0  0  0  0  0  0  0  0  0  0
   -4.1509    5.4617   -3.4876 C   0  0  0  0  0  0  0  0  0  0  0  0
   -4.6920    4.0039   -0.9180 C   0  0  0  0  0  0  0  0  0  0  0  0
   -5.7862    4.8938   -0.8823 C   0  0  0  0  0  0  0  0  0  0  0  0
   -7.0261    4.4742   -0.3877 C   0  0  0  0  0  0  0  0  0  0  0  0
   -7.1893    3.1610    0.0689 C   0  0  0  0  0  0  0  0  0  0  0  0
   -8.7901    2.5998    0.6541 S   0  0  0  0  0  0  0  0  0  0  0  0
   -8.3562    2.7356    2.4199 C   0  0  0  0  0  0  0  0  0  0  0  0
   -6.1051    2.2823    0.0652 C   0  0  0  0  0  0  0  0  0  0  0  0
   -4.8657    2.7106   -0.3972 C   0  0  0  0  0  0  0  0  0  0  0  0
   -2.2267    4.8284    0.7828 C   0  0  0  0  0  0  0  0  0  0  0  0
   -2.5823    6.3983    1.2591 S   0  0  0  0  0  0  0  0  0  0  0  0
   -1.9242    6.2182    2.8115 C   0  0  0  0  0  0  0  0  0  0  0  0
   -1.4925    4.8944    2.9974 C   0  0  0  0  0  0  0  0  0  0  0  0
   -1.3035    4.3120    4.2951 N   0  0  0  0  0  0  0  0  0  0  0  0
   -0.1090    3.5993    4.6345 C   0  0  0  0  0  0  0  0  0  0  0  0
   -0.0735    2.2032    4.5070 C   0  0  0  0  0  0  0  0  0  0  0  0
    1.0198    1.4782    4.9751 C   0  0  0  0  0  0  0  0  0  0  0  0
    2.0977    2.1495    5.5752 C   0  0  0  0  0  0  0  0  0  0  0  0
    3.5346    1.2173    6.0817 S   0  0  0  0  0  0  0  0  0  0  0  0
    3.0837    1.1440    7.8426 C   0  0  0  0  0  0  0  0  0  0  0  0
    2.0539    3.5384    5.7428 C   0  0  0  0  0  0  0  0  0  0  0  0
    0.9377    4.2557    5.2947 C   0  0  0  0  0  0  0  0  0  0  0  0
   -2.4655    4.0270    5.0933 C   0  0  0  0  0  0  0  0  0  0  0  0
   -3.5241    3.2704    4.5649 C   0  0  0  0  0  0  0  0  0  0  0  0
   -4.5506    2.8245    5.3969 C   0  0  0  0  0  0  0  0  0  0  0  0
   -4.5218    3.1256    6.7635 C   0  0  0  0  0  0  0  0  0  0  0  0
   -5.7628    2.4224    7.8517 S   0  0  0  0  0  0  0  0  0  0  0  0
   -4.8423    0.8659    8.0693 C   0  0  0  0  0  0  0  0  0  0  0  0
   -3.5090    3.9372    7.2778 C   0  0  0  0  0  0  0  0  0  0  0  0
   -2.4797    4.3889    6.4487 C   0  0  0  0  0  0  0  0  0  0  0  0
   -1.6244    4.1738    1.8059 C   0  0  0  0  0  0  0  0  0  0  0  0
   -1.0685    2.7046    1.2277 S   0  0  0  0  0  0  0  0  0  0  0  0
   -1.4304    7.3863    3.5564 C   0  0  0  0  0  0  0  0  0  0  0  0
   -0.1399    7.5759    3.8609 C   0  0  0  0  0  0  0  0  0  0  0  0
    0.9160    6.9924    3.0222 C   0  0  0  0  0  0  0  0  0  0  0  0
    1.1159    5.7688    2.7720 O   0  0  0  0  0  0  0  0  0  0  0  0
    1.6954    8.0820    2.4585 C   0  0  0  0  0  0  0  0  0  0  0  0
    2.4772    8.0985    1.3038 C   0  0  0  0  0  0  0  0  0  0  0  0
    2.8780    9.3321    0.7739 C   0  0  0  0  0  0  0  0  0  0  0  0
    3.5114    9.3828   -0.4318 F   0  0  0  0  0  0  0  0  0  0  0  0
    2.5952   10.5233    1.4788 C   0  0  0  0  0  0  0  0  0  0  0  0
    2.8681   11.7084    0.9001 F   0  0  0  0  0  0  0  0  0  0  0  0
    1.8478   10.4742    2.6768 C   0  0  0  0  0  0  0  0  0  0  0  0
    1.3685    9.2357    3.1172 C   0  0  0  0  0  0  0  0  0  0  0  0
    0.3961    8.9311    4.1835 C   0  0  0  0  0  0  0  0  0  0  0  0
    0.4198    9.4876    5.4250 C   0  0  0  0  0  0  0  0  0  0  0  0
   -0.1659    8.7675    6.5210 C   0  0  0  0  0  0  0  0  0  0  0  0
   -0.6320    8.2045    7.4197 N   0  0  0  0  0  0  0  0  0  0  0  0
    1.5268   10.3783    5.7718 C   0  0  0  0  0  0  0  0  0  0  0  0
    2.4341   11.0642    6.0096 N   0  0  0  0  0  0  0  0  0  0  0  0
    2.0419   -6.8740    3.3614 H   0  0  0  0  0  0  0  0  0  0  0  0
   -2.8184   -2.9974    4.2463 H   0  0  0  0  0  0  0  0  0  0  0  0
   -2.0668   -6.9906    7.1299 H   0  0  0  0  0  0  0  0  0  0  0  0
    5.4196   -4.2445    1.0741 H   0  0  0  0  0  0  0  0  0  0  0  0
    7.4352   -5.3096    1.9698 H   0  0  0  0  0  0  0  0  0  0  0  0
    7.6576   -6.9545    5.1961 H   0  0  0  0  0  0  0  0  0  0  0  0
    8.5851   -6.4385    3.7499 H   0  0  0  0  0  0  0  0  0  0  0  0
    8.4471   -5.3191    5.1670 H   0  0  0  0  0  0  0  0  0  0  0  0
    5.6156   -5.4312    5.8814 H   0  0  0  0  0  0  0  0  0  0  0  0
    3.5718   -4.4078    4.9519 H   0  0  0  0  0  0  0  0  0  0  0  0
    0.9461   -2.2218    1.8181 H   0  0  0  0  0  0  0  0  0  0  0  0
    0.7694    0.2004    1.5801 H   0  0  0  0  0  0  0  0  0  0  0  0
    1.6697    2.4290    2.1763 H   0  0  0  0  0  0  0  0  0  0  0  0
    3.0038    2.3244    0.9694 H   0  0  0  0  0  0  0  0  0  0  0  0
    3.3735    2.6239    2.7172 H   0  0  0  0  0  0  0  0  0  0  0  0
    4.8331    0.6411    2.9282 H   0  0  0  0  0  0  0  0  0  0  0  0
    5.0433   -1.7714    3.1321 H   0  0  0  0  0  0  0  0  0  0  0  0
    2.3233   -6.6830   -3.3058 H   0  0  0  0  0  0  0  0  0  0  0  0
    2.2485   -9.1353   -3.1124 H   0  0  0  0  0  0  0  0  0  0  0  0
    1.0371  -11.0861   -2.0458 H   0  0  0  0  0  0  0  0  0  0  0  0
   -0.7461  -11.0181   -1.8340 H   0  0  0  0  0  0  0  0  0  0  0  0
   -0.0463  -11.1194   -3.4988 H   0  0  0  0  0  0  0  0  0  0  0  0
   -1.9405   -8.9168   -2.0959 H   0  0  0  0  0  0  0  0  0  0  0  0
   -1.8468   -6.4791   -2.2437 H   0  0  0  0  0  0  0  0  0  0  0  0
   -2.3201   -4.4838   -3.1819 H   0  0  0  0  0  0  0  0  0  0  0  0
   -3.4100   -3.4250   -5.0928 H   0  0  0  0  0  0  0  0  0  0  0  0
   -2.3496   -3.1535   -8.1557 H   0  0  0  0  0  0  0  0  0  0  0  0
   -3.2374   -2.0348   -7.0585 H   0  0  0  0  0  0  0  0  0  0  0  0
   -1.6337   -1.5436   -7.6983 H   0  0  0  0  0  0  0  0  0  0  0  0
    0.4320   -2.8887   -6.9833 H   0  0  0  0  0  0  0  0  0  0  0  0
    1.5169   -4.0030   -5.0719 H   0  0  0  0  0  0  0  0  0  0  0  0
    4.3229    2.0329   -3.8665 H   0  0  0  0  0  0  0  0  0  0  0  0
    4.7491    2.7882   -6.1696 H   0  0  0  0  0  0  0  0  0  0  0  0
    6.0604    0.9662   -8.1573 H   0  0  0  0  0  0  0  0  0  0  0  0
    4.9351   -0.3873   -8.6338 H   0  0  0  0  0  0  0  0  0  0  0  0
    5.6646    0.6789   -9.9024 H   0  0  0  0  0  0  0  0  0  0  0  0
    2.0341   -0.1981   -7.6597 H   0  0  0  0  0  0  0  0  0  0  0  0
    1.6035   -0.9565   -5.3569 H   0  0  0  0  0  0  0  0  0  0  0  0
    4.2856    0.7524   -1.0178 H   0  0  0  0  0  0  0  0  0  0  0  0
    6.5642    0.0185   -0.3898 H   0  0  0  0  0  0  0  0  0  0  0  0
    7.2631   -4.0073   -0.7623 H   0  0  0  0  0  0  0  0  0  0  0  0
    8.8644   -3.7323    0.0404 H   0  0  0  0  0  0  0  0  0  0  0  0
    7.4252   -2.7616    0.5612 H   0  0  0  0  0  0  0  0  0  0  0  0
    6.4849   -2.9189   -3.5376 H   0  0  0  0  0  0  0  0  0  0  0  0
    4.2591   -2.1234   -4.2170 H   0  0  0  0  0  0  0  0  0  0  0  0
   -5.1649   -0.5767   -3.4862 H   0  0  0  0  0  0  0  0  0  0  0  0
   -6.6339   -2.2063   -2.4162 H   0  0  0  0  0  0  0  0  0  0  0  0
   -4.9617   -5.1032    0.3326 H   0  0  0  0  0  0  0  0  0  0  0  0
   -5.3919   -4.7237   -1.3921 H   0  0  0  0  0  0  0  0  0  0  0  0
   -6.5093   -5.7274   -0.3812 H   0  0  0  0  0  0  0  0  0  0  0  0
   -4.2835   -2.0225    1.1723 H   0  0  0  0  0  0  0  0  0  0  0  0
   -2.8048   -0.3729    0.1402 H   0  0  0  0  0  0  0  0  0  0  0  0
   -5.0513    2.1977   -3.2093 H   0  0  0  0  0  0  0  0  0  0  0  0
   -5.4092    3.0984   -5.4770 H   0  0  0  0  0  0  0  0  0  0  0  0
   -2.9255    5.0304   -8.4956 H   0  0  0  0  0  0  0  0  0  0  0  0
   -2.1592    4.3478   -7.0013 H   0  0  0  0  0  0  0  0  0  0  0  0
   -3.8318    5.0642   -6.9348 H   0  0  0  0  0  0  0  0  0  0  0  0
   -1.7971    1.1873   -6.8043 H   0  0  0  0  0  0  0  0  0  0  0  0
   -1.4621    0.2405   -4.5923 H   0  0  0  0  0  0  0  0  0  0  0  0
   -1.3823    6.2851   -1.6743 H   0  0  0  0  0  0  0  0  0  0  0  0
   -1.2356    8.0128   -3.4047 H   0  0  0  0  0  0  0  0  0  0  0  0
   -5.2326    9.2112   -5.2838 H   0  0  0  0  0  0  0  0  0  0  0  0
   -4.1823    9.7606   -3.8950 H   0  0  0  0  0  0  0  0  0  0  0  0
   -4.1967   10.6948   -5.4500 H   0  0  0  0  0  0  0  0  0  0  0  0
   -4.8018    6.4947   -5.2563 H   0  0  0  0  0  0  0  0  0  0  0  0
   -4.9793    4.7735   -3.5301 H   0  0  0  0  0  0  0  0  0  0  0  0
   -5.6695    5.9143   -1.2065 H   0  0  0  0  0  0  0  0  0  0  0  0
   -7.8606    5.1664   -0.3841 H   0  0  0  0  0  0  0  0  0  0  0  0
   -9.2601    2.5475    3.0337 H   0  0  0  0  0  0  0  0  0  0  0  0
   -7.5913    1.9707    2.6750 H   0  0  0  0  0  0  0  0  0  0  0  0
   -7.9593    3.7465    2.6525 H   0  0  0  0  0  0  0  0  0  0  0  0
   -6.2172    1.2726    0.4387 H   0  0  0  0  0  0  0  0  0  0  0  0
   -4.0435    2.0237   -0.3349 H   0  0  0  0  0  0  0  0  0  0  0  0
   -0.9028    1.6796    4.0547 H   0  0  0  0  0  0  0  0  0  0  0  0
    1.0415    0.4015    4.8591 H   0  0  0  0  0  0  0  0  0  0  0  0
    3.2296    2.1404    8.3010 H   0  0  0  0  0  0  0  0  0  0  0  0
    2.0318    0.8145    7.9730 H   0  0  0  0  0  0  0  0  0  0  0  0
    3.7443    0.4191    8.3591 H   0  0  0  0  0  0  0  0  0  0  0  0
    2.8670    4.0545    6.2305 H   0  0  0  0  0  0  0  0  0  0  0  0
    0.8854    5.3139    5.4827 H   0  0  0  0  0  0  0  0  0  0  0  0
   -3.5165    2.9617    3.5266 H   0  0  0  0  0  0  0  0  0  0  0  0
   -5.3347    2.2022    4.9857 H   0  0  0  0  0  0  0  0  0  0  0  0
   -4.5493    0.4250    7.0893 H   0  0  0  0  0  0  0  0  0  0  0  0
   -5.4830    0.1444    8.6089 H   0  0  0  0  0  0  0  0  0  0  0  0
   -3.9262    1.0592    8.6722 H   0  0  0  0  0  0  0  0  0  0  0  0
   -3.4875    4.1733    8.3317 H   0  0  0  0  0  0  0  0  0  0  0  0
   -1.6719    4.9765    6.8611 H   0  0  0  0  0  0  0  0  0  0  0  0
   -2.0928    8.2357    3.6121 H   0  0  0  0  0  0  0  0  0  0  0  0
    2.6811    7.1782    0.7718 H   0  0  0  0  0  0  0  0  0  0  0  0
    1.5837   11.3982    3.2020 H   0  0  0  0  0  0  0  0  0  0  0  0
  1  2  2  3
  2  3  1  0
  3  4  2  0
  3  5  1  0
  5  6  2  0
  6  7  1  0
  7  8  1  0
  7  9  2  0
  9 10  1  0
  9 11  1  0
 11 12  2  0
 12 13  1  0
 13 14  2  3
 14 15  1  0
 15 16  3  0
 14 17  1  0
 17 18  3  0
  1 19  1  0
 19 20  2  0
 20 21  1  0
 21 22  1  0
 22 23  2  0
 23 24  1  0
 24 25  2  0
 25 26  1  0
 25 27  1  0
 27 28  2  0
 21 29  1  0
 29 30  2  0
 30 31  1  0
 31 32  2  0
 32 33  1  0
 32 34  1  0
 34 35  2  0
 20 36  1  0
 36 37  1  0
 37 38  1  0
 38 39  2  0
 39 40  1  0
 40 41  1  0
 41 42  2  0
 42 43  1  0
 43 44  2  0
 44 45  1  0
 44 46  1  0
 46 47  2  0
 40 48  1  0
 48 49  2  0
 49 50  1  0
 50 51  2  0
 51 52  1  0
 51 53  1  0
 53 54  2  0
 39 55  1  0
 55 56  1  0
 38 57  1  0
 57 58  2  0
 58 59  1  0
 59 60  1  0
 60 61  2  0
 61 62  1  0
 62 63  2  0
 63 64  1  0
 64 65  1  0
 63 66  1  0
 66 67  2  0
 59 68  1  0
 68 69  2  0
 69 70  1  0
 70 71  2  0
 71 72  1  0
 72 73  1  0
 71 74  1  0
 74 75  2  0
 58 76  1  0
 76 77  1  0
 77 78  1  0
 78 79  2  0
 79 80  1  0
 80 81  1  0
 81 82  2  0
 82 83  1  0
 83 84  2  0
 84 85  1  0
 85 86  1  0
 84 87  1  0
 87 88  2  0
 80 89  1  0
 89 90  2  0
 90 91  1  0
 91 92  2  0
 92 93  1  0
 93 94  1  0
 92 95  1  0
 95 96  2  0
 79 97  1  0
 97 98  1  0
 78 99  1  0
 99100  2  0
100101  1  0
101102  1  0
102103  2  0
103104  1  0
104105  2  0
105106  1  0
106107  1  0
105108  1  0
108109  2  0
101110  1  0
110111  2  0
111112  1  0
112113  2  0
113114  1  0
114115  1  0
113116  1  0
116117  2  0
100118  1  0
118119  1  0
119120  1  0
120121  2  0
121122  1  0
122123  1  0
123124  2  0
124125  1  0
125126  2  0
126127  1  0
127128  1  0
126129  1  0
129130  2  0
122131  1  0
131132  2  0
132133  1  0
133134  2  0
134135  1  0
135136  1  0
134137  1  0
137138  2  0
121139  1  0
139140  1  0
120141  1  0
141142  2  3
142143  1  0
143144  2  0
143145  1  0
145146  2  0
146147  1  0
147148  1  0
147149  2  0
149150  1  0
149151  1  0
151152  2  0
152153  1  0
153154  2  3
154155  1  0
155156  3  0
154157  1  0
157158  3  0
 13  2  1  0
 56 19  1  0
 98 57  1  0
140 99  1  0
153142  1  0
 12  5  1  0
 28 22  1  0
 35 29  1  0
 55 36  2  0
 67 60  1  0
 75 68  1  0
 97 76  2  0
109102  1  0
117110  1  0
139118  2  0
152145  1  0
 47 41  1  0
 54 48  1  0
 88 81  1  0
 96 89  1  0
130123  1  0
138131  1  0
  1159  1  0
  6160  1  0
 11161  1  0
 23162  1  0
 24163  1  0
 26164  1  0
 26165  1  0
 26166  1  0
 27167  1  0
 28168  1  0
 30169  1  0
 31170  1  0
 33171  1  0
 33172  1  0
 33173  1  0
 34174  1  0
 35175  1  0
 42176  1  0
 43177  1  0
 45178  1  0
 45179  1  0
 45180  1  0
 46181  1  0
 47182  1  0
 49183  1  0
 50184  1  0
 52185  1  0
 52186  1  0
 52187  1  0
 53188  1  0
 54189  1  0
 61190  1  0
 62191  1  0
 65192  1  0
 65193  1  0
 65194  1  0
 66195  1  0
 67196  1  0
 69197  1  0
 70198  1  0
 73199  1  0
 73200  1  0
 73201  1  0
 74202  1  0
 75203  1  0
 82204  1  0
 83205  1  0
 86206  1  0
 86207  1  0
 86208  1  0
 87209  1  0
 88210  1  0
 90211  1  0
 91212  1  0
 94213  1  0
 94214  1  0
 94215  1  0
 95216  1  0
 96217  1  0
103218  1  0
104219  1  0
107220  1  0
107221  1  0
107222  1  0
108223  1  0
109224  1  0
111225  1  0
112226  1  0
115227  1  0
115228  1  0
115229  1  0
116230  1  0
117231  1  0
124232  1  0
125233  1  0
128234  1  0
128235  1  0
128236  1  0
129237  1  0
130238  1  0
132239  1  0
133240  1  0
136241  1  0
136242  1  0
136243  1  0
137244  1  0
138245  1  0
141246  1  0
146247  1  0
151248  1  0
M  END

