
     RDKit          3D

140151  0  0  0  0  0  0  0  0999 V2000
    2.0821    2.8766    6.4837 C   0  0  0  0  0  0  0  0  0  0  0  0
    0.7382    2.9318    6.3887 C   0  0  0  0  0  0  0  0  0  0  0  0
   -0.0972    2.1631    5.4558 C   0  0  0  0  0  0  0  0  0  0  0  0
    0.2010    1.0630    4.9176 O   0  0  0  0  0  0  0  0  0  0  0  0
   -1.3597    2.8466    5.3030 C   0  0  0  0  0  0  0  0  0  0  0  0
   -2.3961    2.5601    4.4164 C   0  0  0  0  0  0  0  0  0  0  0  0
   -3.4900    3.4323    4.3670 C   0  0  0  0  0  0  0  0  0  0  0  0
   -4.5150    3.1864    3.5145 F   0  0  0  0  0  0  0  0  0  0  0  0
   -3.5156    4.5874    5.1762 C   0  0  0  0  0  0  0  0  0  0  0  0
   -4.5576    5.4528    5.0901 F   0  0  0  0  0  0  0  0  0  0  0  0
   -2.4609    4.8513    6.0685 C   0  0  0  0  0  0  0  0  0  0  0  0
   -1.3952    3.9417    6.1490 C   0  0  0  0  0  0  0  0  0  0  0  0
   -0.1576    3.9697    6.9792 C   0  0  0  0  0  0  0  0  0  0  0  0
   -0.0117    4.5580    8.1883 C   0  0  0  0  0  0  0  0  0  0  0  0
    1.1035    4.2604    9.0490 C   0  0  0  0  0  0  0  0  0  0  0  0
    1.9891    4.0209    9.7527 N   0  0  0  0  0  0  0  0  0  0  0  0
   -1.0375    5.3923    8.7631 C   0  0  0  0  0  0  0  0  0  0  0  0
   -1.8603    6.0641    9.2248 N   0  0  0  0  0  0  0  0  0  0  0  0
    2.8945    2.0322    5.5930 C   0  0  0  0  0  0  0  0  0  0  0  0
    3.5427    0.8573    5.9445 C   0  0  0  0  0  0  0  0  0  0  0  0
    3.9493    0.0966    4.8360 C   0  0  0  0  0  0  0  0  0  0  0  0
    4.6692   -1.5397    5.0144 S   0  0  0  0  0  0  0  0  0  0  0  0
    6.3897   -0.9682    4.8136 C   0  0  0  0  0  0  0  0  0  0  0  0
    6.9254   -0.3760    6.1076 C   0  0  0  0  0  0  0  0  0  0  0  0
    3.6402    0.6876    3.6054 C   0  0  0  0  0  0  0  0  0  0  0  0
    2.8692    2.1418    3.9238 S   0  0  0  0  0  0  0  0  0  0  0  0
    3.4593   -0.0133    2.3236 C   0  0  0  0  0  0  0  0  0  0  0  0
    3.3706    0.6090    1.0634 C   0  0  0  0  0  0  0  0  0  0  0  0
    4.0560    1.8157    0.6922 N   0  0  0  0  0  0  0  0  0  0  0  0
    3.4521    3.1144    0.8865 C   0  0  0  0  0  0  0  0  0  0  0  0
    2.0541    3.2809    0.8629 C   0  0  0  0  0  0  0  0  0  0  0  0
    1.4818    4.5220    1.1517 C   0  0  0  0  0  0  0  0  0  0  0  0
    2.2973    5.6179    1.4497 C   0  0  0  0  0  0  0  0  0  0  0  0
    1.5595    7.1882    1.9127 S   0  0  0  0  0  0  0  0  0  0  0  0
    1.6013    7.8729    0.2289 C   0  0  0  0  0  0  0  0  0  0  0  0
    3.6874    5.4740    1.4452 C   0  0  0  0  0  0  0  0  0  0  0  0
    4.2615    4.2311    1.1633 C   0  0  0  0  0  0  0  0  0  0  0  0
    5.3241    1.6751    0.0251 C   0  0  0  0  0  0  0  0  0  0  0  0
    5.5801    2.3539   -1.1791 C   0  0  0  0  0  0  0  0  0  0  0  0
    6.7813    2.1495   -1.8640 C   0  0  0  0  0  0  0  0  0  0  0  0
    7.7364    1.2599   -1.3567 C   0  0  0  0  0  0  0  0  0  0  0  0
    9.2543    0.9473   -2.2667 S   0  0  0  0  0  0  0  0  0  0  0  0
    8.5664   -0.4904   -3.1521 C   0  0  0  0  0  0  0  0  0  0  0  0
    7.4975    0.5948   -0.1484 C   0  0  0  0  0  0  0  0  0  0  0  0
    6.2962    0.7964    0.5354 C   0  0  0  0  0  0  0  0  0  0  0  0
    2.6771   -0.1790    0.1505 C   0  0  0  0  0  0  0  0  0  0  0  0
    1.9385    0.1480   -1.3190 S   0  0  0  0  0  0  0  0  0  0  0  0
    1.0120   -1.2856   -1.3176 C   0  0  0  0  0  0  0  0  0  0  0  0
    1.3160   -2.0256   -0.1630 C   0  0  0  0  0  0  0  0  0  0  0  0
    0.8942   -3.3783    0.0759 N   0  0  0  0  0  0  0  0  0  0  0  0
   -0.3472   -3.6532    0.7561 C   0  0  0  0  0  0  0  0  0  0  0  0
   -0.7838   -2.8369    1.8187 C   0  0  0  0  0  0  0  0  0  0  0  0
   -2.0323   -3.0530    2.4133 C   0  0  0  0  0  0  0  0  0  0  0  0
   -2.8671   -4.0707    1.9381 C   0  0  0  0  0  0  0  0  0  0  0  0
   -4.4928   -4.3166    2.6585 S   0  0  0  0  0  0  0  0  0  0  0  0
   -5.2754   -3.0356    1.6258 C   0  0  0  0  0  0  0  0  0  0  0  0
   -2.4414   -4.8913    0.8818 C   0  0  0  0  0  0  0  0  0  0  0  0
   -1.1874   -4.6865    0.3005 C   0  0  0  0  0  0  0  0  0  0  0  0
    1.7622   -4.4486   -0.3480 C   0  0  0  0  0  0  0  0  0  0  0  0
    2.4663   -4.3596   -1.5653 C   0  0  0  0  0  0  0  0  0  0  0  0
    3.3255   -5.3844   -1.9674 C   0  0  0  0  0  0  0  0  0  0  0  0
    3.4924   -6.5161   -1.1626 C   0  0  0  0  0  0  0  0  0  0  0  0
    4.5761   -7.8416   -1.6959 S   0  0  0  0  0  0  0  0  0  0  0  0
    3.2746   -8.6788   -2.6521 C   0  0  0  0  0  0  0  0  0  0  0  0
    2.8114   -6.6080    0.0565 C   0  0  0  0  0  0  0  0  0  0  0  0
    1.9513   -5.5807    0.4634 C   0  0  0  0  0  0  0  0  0  0  0  0
    2.2405   -1.3658    0.6339 C   0  0  0  0  0  0  0  0  0  0  0  0
    2.6849   -1.5337    2.2362 S   0  0  0  0  0  0  0  0  0  0  0  0
   -0.1679   -1.4828   -2.1696 C   0  0  0  0  0  0  0  0  0  0  0  0
   -1.4408   -1.7202   -1.6714 C   0  0  0  0  0  0  0  0  0  0  0  0
   -2.4657   -1.4756   -2.5859 C   0  0  0  0  0  0  0  0  0  0  0  0
   -4.1926   -1.4229   -2.0648 S   0  0  0  0  0  0  0  0  0  0  0  0
   -4.1719    0.3479   -1.6072 C   0  0  0  0  0  0  0  0  0  0  0  0
   -3.6324    0.5467   -0.1939 C   0  0  0  0  0  0  0  0  0  0  0  0
   -2.0042   -1.0983   -3.8500 C   0  0  0  0  0  0  0  0  0  0  0  0
   -0.3308   -0.9391   -3.7575 S   0  0  0  0  0  0  0  0  0  0  0  0
   -2.8218   -0.5558   -4.9448 C   0  0  0  0  0  0  0  0  0  0  0  0
   -3.9509   -1.1337   -5.3898 C   0  0  0  0  0  0  0  0  0  0  0  0
   -4.3022   -2.5480   -5.2254 C   0  0  0  0  0  0  0  0  0  0  0  0
   -3.6703   -3.4048   -4.5486 O   0  0  0  0  0  0  0  0  0  0  0  0
   -5.4531   -2.8328   -6.0518 C   0  0  0  0  0  0  0  0  0  0  0  0
   -6.1182   -4.0538   -6.2050 C   0  0  0  0  0  0  0  0  0  0  0  0
   -7.2139   -4.1083   -7.0758 C   0  0  0  0  0  0  0  0  0  0  0  0
   -7.8867   -5.2753   -7.2444 F   0  0  0  0  0  0  0  0  0  0  0  0
   -7.6186   -2.9611   -7.7759 C   0  0  0  0  0  0  0  0  0  0  0  0
   -8.6816   -3.0260   -8.6193 F   0  0  0  0  0  0  0  0  0  0  0  0
   -6.9336   -1.7429   -7.6086 C   0  0  0  0  0  0  0  0  0  0  0  0
   -5.8444   -1.6862   -6.7231 C   0  0  0  0  0  0  0  0  0  0  0  0
   -4.9752   -0.5442   -6.3046 C   0  0  0  0  0  0  0  0  0  0  0  0
   -5.2071    0.7811   -6.5108 C   0  0  0  0  0  0  0  0  0  0  0  0
   -6.2820    1.2710   -7.3379 C   0  0  0  0  0  0  0  0  0  0  0  0
   -7.1429    1.6810   -7.9887 N   0  0  0  0  0  0  0  0  0  0  0  0
   -4.5128    1.7990   -5.7705 C   0  0  0  0  0  0  0  0  0  0  0  0
   -3.9715    2.6245   -5.1677 N   0  0  0  0  0  0  0  0  0  0  0  0
    2.6185    3.5530    7.1345 H   0  0  0  0  0  0  0  0  0  0  0  0
   -2.3486    1.7002    3.7616 H   0  0  0  0  0  0  0  0  0  0  0  0
   -2.4678    5.7646    6.6405 H   0  0  0  0  0  0  0  0  0  0  0  0
    3.6250    0.5083    6.9631 H   0  0  0  0  0  0  0  0  0  0  0  0
    7.0146   -1.8456    4.5380 H   0  0  0  0  0  0  0  0  0  0  0  0
    6.4667   -0.2254    3.9908 H   0  0  0  0  0  0  0  0  0  0  0  0
    6.3714    0.5470    6.3699 H   0  0  0  0  0  0  0  0  0  0  0  0
    6.8232   -1.1080    6.9341 H   0  0  0  0  0  0  0  0  0  0  0  0
    8.0009   -0.1225    5.9842 H   0  0  0  0  0  0  0  0  0  0  0  0
    1.4017    2.4419    0.6613 H   0  0  0  0  0  0  0  0  0  0  0  0
    0.4054    4.6238    1.1609 H   0  0  0  0  0  0  0  0  0  0  0  0
    1.2536    8.9223    0.2559 H   0  0  0  0  0  0  0  0  0  0  0  0
    0.9248    7.2890   -0.4326 H   0  0  0  0  0  0  0  0  0  0  0  0
    2.6348    7.8456   -0.1799 H   0  0  0  0  0  0  0  0  0  0  0  0
    4.3266    6.3193    1.6796 H   0  0  0  0  0  0  0  0  0  0  0  0
    5.3409    4.1285    1.1987 H   0  0  0  0  0  0  0  0  0  0  0  0
    4.8398    3.0251   -1.5933 H   0  0  0  0  0  0  0  0  0  0  0  0
    6.9611    2.6665   -2.8003 H   0  0  0  0  0  0  0  0  0  0  0  0
    8.2467   -1.2725   -2.4259 H   0  0  0  0  0  0  0  0  0  0  0  0
    7.7021   -0.1849   -3.7816 H   0  0  0  0  0  0  0  0  0  0  0  0
    9.3499   -0.9235   -3.8122 H   0  0  0  0  0  0  0  0  0  0  0  0
    8.2374   -0.0957    0.2447 H   0  0  0  0  0  0  0  0  0  0  0  0
    6.1292    0.2618    1.4592 H   0  0  0  0  0  0  0  0  0  0  0  0
   -0.1744   -2.0283    2.1806 H   0  0  0  0  0  0  0  0  0  0  0  0
   -2.3676   -2.4104    3.2185 H   0  0  0  0  0  0  0  0  0  0  0  0
   -4.9634   -2.0332    1.9819 H   0  0  0  0  0  0  0  0  0  0  0  0
   -6.3804   -3.1202    1.7186 H   0  0  0  0  0  0  0  0  0  0  0  0
   -4.9895   -3.1532    0.5559 H   0  0  0  0  0  0  0  0  0  0  0  0
   -3.0865   -5.6735    0.5013 H   0  0  0  0  0  0  0  0  0  0  0  0
   -0.8798   -5.3151   -0.5253 H   0  0  0  0  0  0  0  0  0  0  0  0
    2.3390   -3.5059   -2.2153 H   0  0  0  0  0  0  0  0  0  0  0  0
    3.8541   -5.2973   -2.9087 H   0  0  0  0  0  0  0  0  0  0  0  0
    2.9365   -8.0216   -3.4826 H   0  0  0  0  0  0  0  0  0  0  0  0
    2.4072   -8.9171   -1.9971 H   0  0  0  0  0  0  0  0  0  0  0  0
    3.6823   -9.6209   -3.0724 H   0  0  0  0  0  0  0  0  0  0  0  0
    2.9405   -7.4808    0.6871 H   0  0  0  0  0  0  0  0  0  0  0  0
    1.4456   -5.6642    1.4185 H   0  0  0  0  0  0  0  0  0  0  0  0
   -1.6540   -1.9111   -0.6330 H   0  0  0  0  0  0  0  0  0  0  0  0
   -5.2172    0.7161   -1.6492 H   0  0  0  0  0  0  0  0  0  0  0  0
   -3.5730    0.9378   -2.3323 H   0  0  0  0  0  0  0  0  0  0  0  0
   -2.5480    0.3100   -0.1557 H   0  0  0  0  0  0  0  0  0  0  0  0
   -4.1799   -0.1074    0.5249 H   0  0  0  0  0  0  0  0  0  0  0  0
   -3.7687    1.6138    0.1065 H   0  0  0  0  0  0  0  0  0  0  0  0
   -2.4826    0.3705   -5.3772 H   0  0  0  0  0  0  0  0  0  0  0  0
   -5.8010   -4.9348   -5.6637 H   0  0  0  0  0  0  0  0  0  0  0  0
   -7.2580   -0.8910   -8.1789 H   0  0  0  0  0  0  0  0  0  0  0  0
  1  2  2  3
  2  3  1  0
  3  4  2  0
  3  5  1  0
  5  6  2  0
  6  7  1  0
  7  8  1  0
  7  9  2  0
  9 10  1  0
  9 11  1  0
 11 12  2  0
 12 13  1  0
 13 14  2  3
 14 15  1  0
 15 16  3  0
 14 17  1  0
 17 18  3  0
  1 19  1  0
 19 20  2  0
 20 21  1  0
 21 22  1  0
 22 23  1  0
 23 24  1  0
 21 25  2  0
 25 26  1  0
 25 27  1  0
 27 28  2  0
 28 29  1  0
 29 30  1  0
 30 31  2  0
 31 32  1  0
 32 33  2  0
 33 34  1  0
 34 35  1  0
 33 36  1  0
 36 37  2  0
 29 38  1  0
 38 39  2  0
 39 40  1  0
 40 41  2  0
 41 42  1  0
 42 43  1  0
 41 44  1  0
 44 45  2  0
 28 46  1  0
 46 47  1  0
 47 48  1  0
 48 49  2  0
 49 50  1  0
 50 51  1  0
 51 52  2  0
 52 53  1  0
 53 54  2  0
 54 55  1  0
 55 56  1  0
 54 57  1  0
 57 58  2  0
 50 59  1  0
 59 60  2  0
 60 61  1  0
 61 62  2  0
 62 63  1  0
 63 64  1  0
 62 65  1  0
 65 66  2  0
 49 67  1  0
 67 68  1  0
 48 69  1  0
 69 70  2  0
 70 71  1  0
 71 72  1  0
 72 73  1  0
 73 74  1  0
 71 75  2  0
 75 76  1  0
 75 77  1  0
 77 78  2  3
 78 79  1  0
 79 80  2  0
 79 81  1  0
 81 82  2  0
 82 83  1  0
 83 84  1  0
 83 85  2  0
 85 86  1  0
 85 87  1  0
 87 88  2  0
 88 89  1  0
 89 90  2  3
 90 91  1  0
 91 92  3  0
 90 93  1  0
 93 94  3  0
 13  2  1  0
 26 19  1  0
 68 27  1  0
 76 69  1  0
 89 78  1  0
 12  5  1  0
 37 30  1  0
 45 38  1  0
 67 46  2  0
 88 81  1  0
 58 51  1  0
 66 59  1  0
  1 95  1  0
  6 96  1  0
 11 97  1  0
 20 98  1  0
 23 99  1  0
 23100  1  0
 24101  1  0
 24102  1  0
 24103  1  0
 31104  1  0
 32105  1  0
 35106  1  0
 35107  1  0
 35108  1  0
 36109  1  0
 37110  1  0
 39111  1  0
 40112  1  0
 43113  1  0
 43114  1  0
 43115  1  0
 44116  1  0
 45117  1  0
 52118  1  0
 53119  1  0
 56120  1  0
 56121  1  0
 56122  1  0
 57123  1  0
 58124  1  0
 60125  1  0
 61126  1  0
 64127  1  0
 64128  1  0
 64129  1  0
 65130  1  0
 66131  1  0
 70132  1  0
 73133  1  0
 73134  1  0
 74135  1  0
 74136  1  0
 74137  1  0
 77138  1  0
 82139  1  0
 87140  1  0
M  END

