
     RDKit          3D

169186  0  0  0  0  0  0  0  0999 V2000
    2.2317   -5.4778    7.6064 C   0  0  0  0  0  0  0  0  0  0  0  0
    2.3304   -4.8274    8.7754 C   0  0  0  0  0  0  0  0  0  0  0  0
    3.1821   -5.2951    9.8630 C   0  0  0  0  0  0  0  0  0  0  0  0
    3.6670   -6.4498    9.9839 O   0  0  0  0  0  0  0  0  0  0  0  0
    3.4474   -4.1781   10.7422 C   0  0  0  0  0  0  0  0  0  0  0  0
    4.3223   -4.1183   11.8256 C   0  0  0  0  0  0  0  0  0  0  0  0
    4.4508   -2.8989   12.5122 C   0  0  0  0  0  0  0  0  0  0  0  0
    5.2796   -2.8180   13.5854 F   0  0  0  0  0  0  0  0  0  0  0  0
    3.7472   -1.7598   12.0744 C   0  0  0  0  0  0  0  0  0  0  0  0
    3.8952   -0.5824   12.7321 F   0  0  0  0  0  0  0  0  0  0  0  0
    2.8854   -1.8359   10.9667 C   0  0  0  0  0  0  0  0  0  0  0  0
    2.7290   -3.0712   10.3123 C   0  0  0  0  0  0  0  0  0  0  0  0
    1.8894   -3.4488    9.1410 C   0  0  0  0  0  0  0  0  0  0  0  0
    0.7099   -2.8781    8.7891 C   0  0  0  0  0  0  0  0  0  0  0  0
   -0.2560   -3.5734    7.9767 C   0  0  0  0  0  0  0  0  0  0  0  0
   -1.0459   -4.1314    7.3396 N   0  0  0  0  0  0  0  0  0  0  0  0
    0.2159   -1.6862    9.4300 C   0  0  0  0  0  0  0  0  0  0  0  0
   -0.2029   -0.7359    9.9474 N   0  0  0  0  0  0  0  0  0  0  0  0
    1.9263   -4.8209    6.3272 C   0  0  0  0  0  0  0  0  0  0  0  0
    1.2484   -5.4252    5.2706 C   0  0  0  0  0  0  0  0  0  0  0  0
    1.2465   -4.6471    4.1022 C   0  0  0  0  0  0  0  0  0  0  0  0
    0.6124   -4.9713    2.8861 C   0  0  0  0  0  0  0  0  0  0  0  0
   -0.2403   -6.1612    2.7662 C   0  0  0  0  0  0  0  0  0  0  0  0
    0.3132   -7.7248    2.5051 S   0  0  0  0  0  0  0  0  0  0  0  0
   -1.1730   -8.4940    2.7296 C   0  0  0  0  0  0  0  0  0  0  0  0
   -1.3907   -9.9813    2.7898 C   0  0  0  0  0  0  0  0  0  0  0  0
   -0.4467  -10.7505    1.8712 C   0  0  0  0  0  0  0  0  0  0  0  0
   -2.1178   -7.5184    3.0538 C   0  0  0  0  0  0  0  0  0  0  0  0
   -3.7944   -7.8759    3.4534 Cl  0  0  0  0  0  0  0  0  0  0  0  0
   -1.5948   -6.2160    3.0761 C   0  0  0  0  0  0  0  0  0  0  0  0
   -2.5309   -4.7953    3.5156 Cl  0  0  0  0  0  0  0  0  0  0  0  0
    0.7642   -4.0697    1.8208 C   0  0  0  0  0  0  0  0  0  0  0  0
    1.5080   -2.8928    1.9466 C   0  0  0  0  0  0  0  0  0  0  0  0
    2.1124   -2.5423    3.1737 C   0  0  0  0  0  0  0  0  0  0  0  0
    2.8659   -1.2827    3.3407 C   0  0  0  0  0  0  0  0  0  0  0  0
    3.9468   -0.8896    2.5658 C   0  0  0  0  0  0  0  0  0  0  0  0
    4.3395    0.4330    2.7892 C   0  0  0  0  0  0  0  0  0  0  0  0
    3.5547    1.0842    3.7357 C   0  0  0  0  0  0  0  0  0  0  0  0
    3.6917    2.5202    4.1365 C   0  0  0  0  0  0  0  0  0  0  0  0
    4.8712    2.7132    5.0815 C   0  0  0  0  0  0  0  0  0  0  0  0
    2.3883    0.0131    4.3046 S   0  0  0  0  0  0  0  0  0  0  0  0
    1.9509   -3.4470    4.2357 C   0  0  0  0  0  0  0  0  0  0  0  0
    2.5668   -3.3446    5.8002 S   0  0  0  0  0  0  0  0  0  0  0  0
    1.5057   -2.1200    0.7802 C   0  0  0  0  0  0  0  0  0  0  0  0
    0.7695   -2.6850   -0.2575 C   0  0  0  0  0  0  0  0  0  0  0  0
    0.0985   -4.1447    0.2719 S   0  0  0  0  0  0  0  0  0  0  0  0
    0.5283   -2.0203   -1.5454 C   0  0  0  0  0  0  0  0  0  0  0  0
    1.3390   -1.0033   -2.0792 C   0  0  0  0  0  0  0  0  0  0  0  0
    2.7795   -1.0230   -1.9549 N   0  0  0  0  0  0  0  0  0  0  0  0
    3.4660   -2.2938   -1.9300 C   0  0  0  0  0  0  0  0  0  0  0  0
    4.5179   -2.5177   -1.0263 C   0  0  0  0  0  0  0  0  0  0  0  0
    5.0134   -3.8133   -0.8304 C   0  0  0  0  0  0  0  0  0  0  0  0
    4.4827   -4.8824   -1.5593 C   0  0  0  0  0  0  0  0  0  0  0  0
    4.9853   -6.5630   -1.2067 S   0  0  0  0  0  0  0  0  0  0  0  0
    3.6182   -6.8508   -0.0296 C   0  0  0  0  0  0  0  0  0  0  0  0
    3.5256   -4.6421   -2.5500 C   0  0  0  0  0  0  0  0  0  0  0  0
    3.0274   -3.3531   -2.7397 C   0  0  0  0  0  0  0  0  0  0  0  0
    3.5502    0.1767   -2.1373 C   0  0  0  0  0  0  0  0  0  0  0  0
    4.3465    0.3242   -3.2828 C   0  0  0  0  0  0  0  0  0  0  0  0
    5.1016    1.4829   -3.4693 C   0  0  0  0  0  0  0  0  0  0  0  0
    5.0644    2.5038   -2.5076 C   0  0  0  0  0  0  0  0  0  0  0  0
    6.0332    3.9936   -2.7616 S   0  0  0  0  0  0  0  0  0  0  0  0
    4.7321    4.8143   -3.7359 C   0  0  0  0  0  0  0  0  0  0  0  0
    4.2701    2.3620   -1.3628 C   0  0  0  0  0  0  0  0  0  0  0  0
    3.5077    1.2028   -1.1772 C   0  0  0  0  0  0  0  0  0  0  0  0
    0.6765   -0.3290   -3.1049 C   0  0  0  0  0  0  0  0  0  0  0  0
    0.7237    1.2756   -3.5654 S   0  0  0  0  0  0  0  0  0  0  0  0
   -0.7923    1.2670   -4.3436 C   0  0  0  0  0  0  0  0  0  0  0  0
   -1.3226   -0.0372   -4.2880 C   0  0  0  0  0  0  0  0  0  0  0  0
   -2.4454   -0.5154   -5.0807 N   0  0  0  0  0  0  0  0  0  0  0  0
   -2.8037   -1.9034   -5.0219 C   0  0  0  0  0  0  0  0  0  0  0  0
   -3.8175   -2.3392   -4.1559 C   0  0  0  0  0  0  0  0  0  0  0  0
   -4.1053   -3.7024   -4.0504 C   0  0  0  0  0  0  0  0  0  0  0  0
   -3.3615   -4.6372   -4.7847 C   0  0  0  0  0  0  0  0  0  0  0  0
   -3.6959   -6.3863   -4.6079 S   0  0  0  0  0  0  0  0  0  0  0  0
   -2.5623   -6.5823   -3.1974 C   0  0  0  0  0  0  0  0  0  0  0  0
   -2.3596   -4.2012   -5.6570 C   0  0  0  0  0  0  0  0  0  0  0  0
   -2.0834   -2.8375   -5.7783 C   0  0  0  0  0  0  0  0  0  0  0  0
   -2.9104    0.2124   -6.2329 C   0  0  0  0  0  0  0  0  0  0  0  0
   -2.0024    0.7275   -7.1731 C   0  0  0  0  0  0  0  0  0  0  0  0
   -2.4647    1.4608   -8.2670 C   0  0  0  0  0  0  0  0  0  0  0  0
   -3.8372    1.6685   -8.4398 C   0  0  0  0  0  0  0  0  0  0  0  0
   -4.4269    2.6319   -9.8363 S   0  0  0  0  0  0  0  0  0  0  0  0
   -4.3054    4.2123   -8.9403 C   0  0  0  0  0  0  0  0  0  0  0  0
   -4.7488    1.1226   -7.5304 C   0  0  0  0  0  0  0  0  0  0  0  0
   -4.2902    0.3936   -6.4339 C   0  0  0  0  0  0  0  0  0  0  0  0
   -0.5187   -0.8601   -3.4834 C   0  0  0  0  0  0  0  0  0  0  0  0
   -0.9053   -2.1338   -2.4438 S   0  0  0  0  0  0  0  0  0  0  0  0
   -1.5649    2.5207   -4.5411 C   0  0  0  0  0  0  0  0  0  0  0  0
   -2.8619    2.6679   -4.0134 C   0  0  0  0  0  0  0  0  0  0  0  0
   -3.5169    3.9253   -3.9909 C   0  0  0  0  0  0  0  0  0  0  0  0
   -4.8501    3.9030   -3.4632 N   0  0  0  0  0  0  0  0  0  0  0  0
   -4.9814    2.3628   -3.0754 S   0  0  0  0  0  4  0  0  0  0  0  0
   -3.6276    1.6054   -3.4395 N   0  0  0  0  0  0  0  0  0  0  0  0
   -2.8641    5.0942   -4.4084 C   0  0  0  0  0  0  0  0  0  0  0  0
   -1.6109    4.9503   -5.0182 C   0  0  0  0  0  0  0  0  0  0  0  0
   -0.9290    6.0073   -5.5395 N   0  0  0  0  0  0  0  0  0  0  0  0
    0.4332    5.2491   -6.0845 S   0  0  0  0  0  0  0  0  0  0  0  0
    0.2524    3.6518   -5.6979 N   0  0  0  0  0  0  0  0  0  0  0  0
   -0.9598    3.6725   -5.0895 C   0  0  0  0  0  0  0  0  0  0  0  0
   -3.4532    6.4373   -4.2026 C   0  0  0  0  0  0  0  0  0  0  0  0
   -3.8389    6.9179   -3.0032 C   0  0  0  0  0  0  0  0  0  0  0  0
   -3.8946    6.1767   -1.7318 C   0  0  0  0  0  0  0  0  0  0  0  0
   -3.2022    5.1733   -1.4140 O   0  0  0  0  0  0  0  0  0  0  0  0
   -4.8641    6.8342   -0.8764 C   0  0  0  0  0  0  0  0  0  0  0  0
   -5.4453    6.3547    0.2986 C   0  0  0  0  0  0  0  0  0  0  0  0
   -6.5077    7.0797    0.8716 C   0  0  0  0  0  0  0  0  0  0  0  0
   -7.1973    6.5616    2.0976 C   0  0  0  0  0  0  0  0  0  0  0  0
   -6.9747    8.2536    0.2375 C   0  0  0  0  0  0  0  0  0  0  0  0
   -8.0321    8.9344    0.7397 F   0  0  0  0  0  0  0  0  0  0  0  0
   -6.3726    8.7127   -0.9488 C   0  0  0  0  0  0  0  0  0  0  0  0
   -5.2892    8.0001   -1.4832 C   0  0  0  0  0  0  0  0  0  0  0  0
   -4.5570    8.2002   -2.7543 C   0  0  0  0  0  0  0  0  0  0  0  0
   -4.2934    9.3981   -3.3402 C   0  0  0  0  0  0  0  0  0  0  0  0
   -4.7950   10.6357   -2.8050 C   0  0  0  0  0  0  0  0  0  0  0  0
   -5.1799   11.6345   -2.3681 N   0  0  0  0  0  0  0  0  0  0  0  0
   -3.3427    9.5295   -4.4111 C   0  0  0  0  0  0  0  0  0  0  0  0
   -2.5709    9.6476   -5.2688 N   0  0  0  0  0  0  0  0  0  0  0  0
    2.5536   -6.5100    7.5578 H   0  0  0  0  0  0  0  0  0  0  0  0
    4.8751   -4.9907   12.1418 H   0  0  0  0  0  0  0  0  0  0  0  0
    2.3894   -0.9417   10.6281 H   0  0  0  0  0  0  0  0  0  0  0  0
    0.7798   -6.3996    5.3465 H   0  0  0  0  0  0  0  0  0  0  0  0
   -1.2413  -10.3215    3.8345 H   0  0  0  0  0  0  0  0  0  0  0  0
   -2.4364  -10.2190    2.5014 H   0  0  0  0  0  0  0  0  0  0  0  0
   -0.5804  -10.4267    0.8150 H   0  0  0  0  0  0  0  0  0  0  0  0
    0.6110  -10.6003    2.1850 H   0  0  0  0  0  0  0  0  0  0  0  0
   -0.6744  -11.8358    1.9401 H   0  0  0  0  0  0  0  0  0  0  0  0
    4.4230   -1.5370    1.8406 H   0  0  0  0  0  0  0  0  0  0  0  0
    5.1401    0.9123    2.2467 H   0  0  0  0  0  0  0  0  0  0  0  0
    2.7602    2.8656    4.6305 H   0  0  0  0  0  0  0  0  0  0  0  0
    3.8436    3.1384    3.2247 H   0  0  0  0  0  0  0  0  0  0  0  0
    5.0557    3.7978    5.2406 H   0  0  0  0  0  0  0  0  0  0  0  0
    4.6458    2.2426    6.0661 H   0  0  0  0  0  0  0  0  0  0  0  0
    5.7931    2.2542    4.6579 H   0  0  0  0  0  0  0  0  0  0  0  0
    1.9820   -1.1525    0.7043 H   0  0  0  0  0  0  0  0  0  0  0  0
    4.9047   -1.7019   -0.4276 H   0  0  0  0  0  0  0  0  0  0  0  0
    5.7812   -3.9836   -0.0834 H   0  0  0  0  0  0  0  0  0  0  0  0
    2.6912   -6.3258   -0.3352 H   0  0  0  0  0  0  0  0  0  0  0  0
    3.9140   -6.5023    0.9812 H   0  0  0  0  0  0  0  0  0  0  0  0
    3.3900   -7.9337    0.0121 H   0  0  0  0  0  0  0  0  0  0  0  0
    3.1261   -5.4589   -3.1368 H   0  0  0  0  0  0  0  0  0  0  0  0
    2.2498   -3.1943   -3.4741 H   0  0  0  0  0  0  0  0  0  0  0  0
    4.3732   -0.4629   -4.0333 H   0  0  0  0  0  0  0  0  0  0  0  0
    5.7033    1.5946   -4.3652 H   0  0  0  0  0  0  0  0  0  0  0  0
    5.1372    5.7443   -4.1816 H   0  0  0  0  0  0  0  0  0  0  0  0
    4.3960    4.1531   -4.5590 H   0  0  0  0  0  0  0  0  0  0  0  0
    3.8712    5.0740   -3.0872 H   0  0  0  0  0  0  0  0  0  0  0  0
    4.2349    3.1472   -0.6176 H   0  0  0  0  0  0  0  0  0  0  0  0
    2.8900    1.0960   -0.2963 H   0  0  0  0  0  0  0  0  0  0  0  0
   -4.3729   -1.6226   -3.5618 H   0  0  0  0  0  0  0  0  0  0  0  0
   -4.8778   -4.0373   -3.3694 H   0  0  0  0  0  0  0  0  0  0  0  0
   -2.7984   -5.8384   -2.4054 H   0  0  0  0  0  0  0  0  0  0  0  0
   -1.5143   -6.4484   -3.5349 H   0  0  0  0  0  0  0  0  0  0  0  0
   -2.6699   -7.6030   -2.7768 H   0  0  0  0  0  0  0  0  0  0  0  0
   -1.7906   -4.9135   -6.2415 H   0  0  0  0  0  0  0  0  0  0  0  0
   -1.2997   -2.5015   -6.4482 H   0  0  0  0  0  0  0  0  0  0  0  0
   -0.9373    0.5684   -7.0577 H   0  0  0  0  0  0  0  0  0  0  0  0
   -1.7571    1.8637   -8.9809 H   0  0  0  0  0  0  0  0  0  0  0  0
   -4.9058    4.1655   -8.0056 H   0  0  0  0  0  0  0  0  0  0  0  0
   -4.7071    5.0222   -9.5852 H   0  0  0  0  0  0  0  0  0  0  0  0
   -3.2413    4.4292   -8.6969 H   0  0  0  0  0  0  0  0  0  0  0  0
   -5.8150    1.2669   -7.6699 H   0  0  0  0  0  0  0  0  0  0  0  0
   -5.0020   -0.0138   -5.7248 H   0  0  0  0  0  0  0  0  0  0  0  0
   -3.5494    7.0493   -5.0846 H   0  0  0  0  0  0  0  0  0  0  0  0
   -5.1081    5.4180    0.7279 H   0  0  0  0  0  0  0  0  0  0  0  0
   -8.2086    6.2008    1.8267 H   0  0  0  0  0  0  0  0  0  0  0  0
   -7.2931    7.3698    2.8570 H   0  0  0  0  0  0  0  0  0  0  0  0
   -6.6346    5.7226    2.5575 H   0  0  0  0  0  0  0  0  0  0  0  0
   -6.7783    9.5780   -1.4528 H   0  0  0  0  0  0  0  0  0  0  0  0
  1  2  2  3
  2  3  1  0
  3  4  2  0
  3  5  1  0
  5  6  2  0
  6  7  1  0
  7  8  1  0
  7  9  2  0
  9 10  1  0
  9 11  1  0
 11 12  2  0
 12 13  1  0
 13 14  2  3
 14 15  1  0
 15 16  3  0
 14 17  1  0
 17 18  3  0
  1 19  1  0
 19 20  2  0
 20 21  1  0
 21 22  2  0
 22 23  1  0
 23 24  1  0
 24 25  1  0
 25 26  1  0
 26 27  1  0
 25 28  2  0
 28 29  1  0
 28 30  1  0
 30 31  1  0
 22 32  1  0
 32 33  2  0
 33 34  1  0
 34 35  1  0
 35 36  2  0
 36 37  1  0
 37 38  2  0
 38 39  1  0
 39 40  1  0
 38 41  1  0
 34 42  2  0
 42 43  1  0
 33 44  1  0
 44 45  2  0
 45 46  1  0
 45 47  1  0
 47 48  2  0
 48 49  1  0
 49 50  1  0
 50 51  2  0
 51 52  1  0
 52 53  2  0
 53 54  1  0
 54 55  1  0
 53 56  1  0
 56 57  2  0
 49 58  1  0
 58 59  2  0
 59 60  1  0
 60 61  2  0
 61 62  1  0
 62 63  1  0
 61 64  1  0
 64 65  2  0
 48 66  1  0
 66 67  1  0
 67 68  1  0
 68 69  2  0
 69 70  1  0
 70 71  1  0
 71 72  2  0
 72 73  1  0
 73 74  2  0
 74 75  1  0
 75 76  1  0
 74 77  1  0
 77 78  2  0
 70 79  1  0
 79 80  2  0
 80 81  1  0
 81 82  2  0
 82 83  1  0
 83 84  1  0
 82 85  1  0
 85 86  2  0
 69 87  1  0
 87 88  1  0
 68 89  1  0
 89 90  2  0
 90 91  1  0
 91 92  1  0
 92 93  2  0
 93 94  2  0
 91 95  2  0
 95 96  1  0
 96 97  2  0
 97 98  1  0
 98 99  1  0
 99100  2  0
 95101  1  0
101102  2  3
102103  1  0
103104  2  0
103105  1  0
105106  2  0
106107  1  0
107108  1  0
107109  2  0
109110  1  0
109111  1  0
111112  2  0
112113  1  0
113114  2  3
114115  1  0
115116  3  0
114117  1  0
117118  3  0
 13  2  1  0
 43 19  1  0
 88 47  1  0
100 89  1  0
113102  1  0
 12  5  1  0
 42 21  1  0
 57 50  1  0
 65 58  1  0
 87 66  2  0
 94 90  1  0
100 96  1  0
112105  1  0
 30 23  2  0
 46 32  1  0
 78 71  1  0
 86 79  1  0
 41 35  1  0
  1119  1  0
  6120  1  0
 11121  1  0
 20122  1  0
 26123  1  0
 26124  1  0
 27125  1  0
 27126  1  0
 27127  1  0
 36128  1  0
 37129  1  0
 39130  1  0
 39131  1  0
 40132  1  0
 40133  1  0
 40134  1  0
 44135  1  0
 51136  1  0
 52137  1  0
 55138  1  0
 55139  1  0
 55140  1  0
 56141  1  0
 57142  1  0
 59143  1  0
 60144  1  0
 63145  1  0
 63146  1  0
 63147  1  0
 64148  1  0
 65149  1  0
 72150  1  0
 73151  1  0
 76152  1  0
 76153  1  0
 76154  1  0
 77155  1  0
 78156  1  0
 80157  1  0
 81158  1  0
 84159  1  0
 84160  1  0
 84161  1  0
 85162  1  0
 86163  1  0
101164  1  0
106165  1  0
108166  1  0
108167  1  0
108168  1  0
111169  1  0
M  END

