
     RDKit          3D

175190  0  0  0  0  0  0  0  0999 V2000
   -1.1344   -1.8358   -6.6004 C   0  0  0  0  0  0  0  0  0  0  0  0
   -1.8111   -2.9931   -6.6028 C   0  0  0  0  0  0  0  0  0  0  0  0
   -2.4130   -3.6201   -5.4265 C   0  0  0  0  0  0  0  0  0  0  0  0
   -2.9429   -2.9990   -4.4710 O   0  0  0  0  0  0  0  0  0  0  0  0
   -2.4339   -5.0638   -5.6294 C   0  0  0  0  0  0  0  0  0  0  0  0
   -2.0425   -5.3160   -6.9408 C   0  0  0  0  0  0  0  0  0  0  0  0
   -1.7916   -6.6297   -7.3582 C   0  0  0  0  0  0  0  0  0  0  0  0
   -1.9292   -7.6842   -6.4411 C   0  0  0  0  0  0  0  0  0  0  0  0
   -2.3057   -7.4311   -5.1042 C   0  0  0  0  0  0  0  0  0  0  0  0
   -2.3563   -8.4794   -4.1730 C   0  0  0  0  0  0  0  0  0  0  0  0
   -2.6856   -8.2207   -2.8385 C   0  0  0  0  0  0  0  0  0  0  0  0
   -2.9802   -6.9222   -2.4335 C   0  0  0  0  0  0  0  0  0  0  0  0
   -2.9445   -5.8660   -3.3444 C   0  0  0  0  0  0  0  0  0  0  0  0
   -2.5918   -6.1029   -4.6874 C   0  0  0  0  0  0  0  0  0  0  0  0
   -1.7804   -4.0374   -7.6560 C   0  0  0  0  0  0  0  0  0  0  0  0
   -1.7287   -3.8380   -8.9946 C   0  0  0  0  0  0  0  0  0  0  0  0
   -1.8515   -4.9146   -9.9375 C   0  0  0  0  0  0  0  0  0  0  0  0
   -1.9474   -5.7697  -10.7126 N   0  0  0  0  0  0  0  0  0  0  0  0
   -1.6714   -2.5212   -9.5713 C   0  0  0  0  0  0  0  0  0  0  0  0
   -1.6310   -1.4636  -10.0401 N   0  0  0  0  0  0  0  0  0  0  0  0
   -0.8508   -1.0632   -5.3787 C   0  0  0  0  0  0  0  0  0  0  0  0
   -0.2790   -1.5327   -4.1717 C   0  0  0  0  0  0  0  0  0  0  0  0
    0.3020   -2.8447   -3.9637 N   0  0  0  0  0  0  0  0  0  0  0  0
    0.9685   -3.5460   -5.0421 C   0  0  0  0  0  0  0  0  0  0  0  0
    1.7675   -2.8535   -5.9714 C   0  0  0  0  0  0  0  0  0  0  0  0
    2.4134   -3.5435   -7.0065 C   0  0  0  0  0  0  0  0  0  0  0  0
    2.2801   -4.9339   -7.1146 C   0  0  0  0  0  0  0  0  0  0  0  0
    3.1568   -5.8281   -8.3999 S   0  0  0  0  0  0  0  0  0  0  0  0
    1.7594   -5.8071   -9.5620 C   0  0  0  0  0  0  0  0  0  0  0  0
    1.5119   -5.6336   -6.1779 C   0  0  0  0  0  0  0  0  0  0  0  0
    0.8597   -4.9470   -5.1543 C   0  0  0  0  0  0  0  0  0  0  0  0
    0.3110   -3.4384   -2.6480 C   0  0  0  0  0  0  0  0  0  0  0  0
   -0.8564   -3.4811   -1.8623 C   0  0  0  0  0  0  0  0  0  0  0  0
   -0.8529   -4.1522   -0.6317 C   0  0  0  0  0  0  0  0  0  0  0  0
    0.3102   -4.7829   -0.1772 C   0  0  0  0  0  0  0  0  0  0  0  0
    0.2909   -5.7012    1.3631 S   0  0  0  0  0  0  0  0  0  0  0  0
    0.0709   -7.3131    0.5431 C   0  0  0  0  0  0  0  0  0  0  0  0
    1.4866   -4.7089   -0.9357 C   0  0  0  0  0  0  0  0  0  0  0  0
    1.4866   -4.0414   -2.1592 C   0  0  0  0  0  0  0  0  0  0  0  0
   -0.2333   -0.4982   -3.2326 C   0  0  0  0  0  0  0  0  0  0  0  0
    0.2265   -0.3691   -1.6311 S   0  0  0  0  0  0  0  0  0  0  0  0
   -0.1623    1.2869   -1.4781 C   0  0  0  0  0  0  0  0  0  0  0  0
   -0.6446    1.7388   -2.7148 C   0  0  0  0  0  0  0  0  0  0  0  0
   -0.7684    3.1249   -3.0819 N   0  0  0  0  0  0  0  0  0  0  0  0
   -2.0135    3.5307   -3.6889 C   0  0  0  0  0  0  0  0  0  0  0  0
   -2.0343    4.0348   -5.0014 C   0  0  0  0  0  0  0  0  0  0  0  0
   -3.2458    4.3717   -5.6066 C   0  0  0  0  0  0  0  0  0  0  0  0
   -4.4503    4.1792   -4.9225 C   0  0  0  0  0  0  0  0  0  0  0  0
   -6.0090    4.5958   -5.7214 S   0  0  0  0  0  0  0  0  0  0  0  0
   -6.2317    2.9321   -6.4253 C   0  0  0  0  0  0  0  0  0  0  0  0
   -4.4445    3.6604   -3.6210 C   0  0  0  0  0  0  0  0  0  0  0  0
   -3.2316    3.3288   -3.0116 C   0  0  0  0  0  0  0  0  0  0  0  0
    0.4360    3.9191   -3.2807 C   0  0  0  0  0  0  0  0  0  0  0  0
    0.3480    5.3192   -3.4297 C   0  0  0  0  0  0  0  0  0  0  0  0
    1.4842    6.0796   -3.7253 C   0  0  0  0  0  0  0  0  0  0  0  0
    2.7390    5.4622   -3.8167 C   0  0  0  0  0  0  0  0  0  0  0  0
    4.2091    6.4511   -4.1173 S   0  0  0  0  0  0  0  0  0  0  0  0
    4.0633    6.3419   -5.9289 C   0  0  0  0  0  0  0  0  0  0  0  0
    2.8478    4.0805   -3.6463 C   0  0  0  0  0  0  0  0  0  0  0  0
    1.7103    3.3123   -3.3764 C   0  0  0  0  0  0  0  0  0  0  0  0
   -0.6772    0.7082   -3.6607 C   0  0  0  0  0  0  0  0  0  0  0  0
   -1.1844    0.5983   -5.2580 S   0  0  0  0  0  0  0  0  0  0  0  0
   -0.5344    1.8314   -0.1539 C   0  0  0  0  0  0  0  0  0  0  0  0
   -1.6462    1.2543    0.4944 C   0  0  0  0  0  0  0  0  0  0  0  0
   -2.4977    0.4461   -0.1933 F   0  0  0  0  0  0  0  0  0  0  0  0
   -1.8231    1.4053    1.8657 C   0  0  0  0  0  0  0  0  0  0  0  0
   -2.8435    0.7499    2.4811 F   0  0  0  0  0  0  0  0  0  0  0  0
   -0.9027    2.1431    2.6209 C   0  0  0  0  0  0  0  0  0  0  0  0
    0.1223    2.8441    1.9616 C   0  0  0  0  0  0  0  0  0  0  0  0
    0.9801    3.6334    2.6623 N   0  0  0  0  0  0  0  0  0  0  0  0
    1.9877    4.3243    2.0681 C   0  0  0  0  0  0  0  0  0  0  0  0
    2.8733    5.1809    2.9531 C   0  0  0  0  0  0  0  0  0  0  0  0
    2.0457    6.1674    3.7672 C   0  0  0  0  0  0  0  0  0  0  0  0
    2.1783    4.1732    0.6684 C   0  0  0  0  0  0  0  0  0  0  0  0
    1.3363    3.3504   -0.0271 N   0  0  0  0  0  0  0  0  0  0  0  0
    0.3105    2.6916    0.5715 C   0  0  0  0  0  0  0  0  0  0  0  0
    3.2503    4.9076   -0.0892 C   0  0  0  0  0  0  0  0  0  0  0  0
    2.8391    6.3574   -0.3559 C   0  0  0  0  0  0  0  0  0  0  0  0
   -0.8871    1.9820    4.1009 C   0  0  0  0  0  0  0  0  0  0  0  0
   -0.6281    0.7110    4.6561 C   0  0  0  0  0  0  0  0  0  0  0  0
   -0.4568   -0.3916    3.8037 O   0  0  0  0  0  0  0  0  0  0  0  0
    0.7939   -1.0763    3.6723 C   0  0  0  0  0  0  0  0  0  0  0  0
    1.7487   -0.2740    2.7969 C   0  0  0  0  0  0  0  0  0  0  0  0
   -0.5815    0.5287    6.0531 C   0  0  0  0  0  0  0  0  0  0  0  0
   -0.4422   -0.7709    6.5457 O   0  0  0  0  0  0  0  0  0  0  0  0
   -1.5088   -1.4926    7.1440 C   0  0  0  0  0  0  0  0  0  0  0  0
   -2.5691   -1.8575    6.1029 C   0  0  0  0  0  0  0  0  0  0  0  0
   -0.6881    1.6313    6.9221 C   0  0  0  0  0  0  0  0  0  0  0  0
   -0.9500    2.8993    6.3697 C   0  0  0  0  0  0  0  0  0  0  0  0
   -1.0543    3.0728    4.9609 C   0  0  0  0  0  0  0  0  0  0  0  0
   -1.3341    4.3312    4.5190 N   0  0  0  0  0  0  0  0  0  0  0  0
   -1.4077    5.1471    5.9568 S   0  0  0  0  0  0  0  0  0  0  0  0
   -1.1153    4.0151    7.1262 N   0  0  0  0  0  0  0  0  0  0  0  0
   -0.5350    1.4967    8.3901 C   0  0  0  0  0  0  0  0  0  0  0  0
    0.6943    1.4134    8.9282 C   0  0  0  0  0  0  0  0  0  0  0  0
    1.6523    0.4110    8.4558 C   0  0  0  0  0  0  0  0  0  0  0  0
    1.4232   -0.8276    8.4456 O   0  0  0  0  0  0  0  0  0  0  0  0
    2.9484    1.0236    8.2180 C   0  0  0  0  0  0  0  0  0  0  0  0
    2.8938    2.3311    8.6622 C   0  0  0  0  0  0  0  0  0  0  0  0
    4.0125    3.1612    8.5021 C   0  0  0  0  0  0  0  0  0  0  0  0
    5.1761    2.6560    7.9061 C   0  0  0  0  0  0  0  0  0  0  0  0
    5.2181    1.3286    7.4339 C   0  0  0  0  0  0  0  0  0  0  0  0
    6.3726    0.8417    6.8007 C   0  0  0  0  0  0  0  0  0  0  0  0
    6.3956   -0.4611    6.2937 C   0  0  0  0  0  0  0  0  0  0  0  0
    5.2739   -1.2844    6.4115 C   0  0  0  0  0  0  0  0  0  0  0  0
    4.1215   -0.8209    7.0439 C   0  0  0  0  0  0  0  0  0  0  0  0
    4.0834    0.4880    7.5787 C   0  0  0  0  0  0  0  0  0  0  0  0
    1.5250    2.6278    9.1895 C   0  0  0  0  0  0  0  0  0  0  0  0
    1.1116    3.7482    9.8409 C   0  0  0  0  0  0  0  0  0  0  0  0
   -0.2083    3.8544   10.4029 C   0  0  0  0  0  0  0  0  0  0  0  0
   -1.2748    3.9385   10.8404 N   0  0  0  0  0  0  0  0  0  0  0  0
    1.9431    4.9087   10.0266 C   0  0  0  0  0  0  0  0  0  0  0  0
    2.6020    5.8475   10.1795 N   0  0  0  0  0  0  0  0  0  0  0  0
   -0.6540   -1.4709   -7.5005 H   0  0  0  0  0  0  0  0  0  0  0  0
   -1.4304   -6.8603   -8.3450 H   0  0  0  0  0  0  0  0  0  0  0  0
   -1.7077   -8.6948   -6.7656 H   0  0  0  0  0  0  0  0  0  0  0  0
   -2.1140   -9.4906   -4.4710 H   0  0  0  0  0  0  0  0  0  0  0  0
   -2.7041   -9.0291   -2.1200 H   0  0  0  0  0  0  0  0  0  0  0  0
   -3.2421   -6.7258   -1.4011 H   0  0  0  0  0  0  0  0  0  0  0  0
   -3.1866   -4.8745   -2.9873 H   0  0  0  0  0  0  0  0  0  0  0  0
    1.9041   -1.7838   -5.8886 H   0  0  0  0  0  0  0  0  0  0  0  0
    3.0216   -3.0038   -7.7174 H   0  0  0  0  0  0  0  0  0  0  0  0
    0.8656   -6.2565   -9.0934 H   0  0  0  0  0  0  0  0  0  0  0  0
    1.5339   -4.7649   -9.8726 H   0  0  0  0  0  0  0  0  0  0  0  0
    2.0246   -6.3994  -10.4598 H   0  0  0  0  0  0  0  0  0  0  0  0
    1.4171   -6.7138   -6.2468 H   0  0  0  0  0  0  0  0  0  0  0  0
    0.2729   -5.5088   -4.4385 H   0  0  0  0  0  0  0  0  0  0  0  0
   -1.7685   -3.0029   -2.2027 H   0  0  0  0  0  0  0  0  0  0  0  0
   -1.7633   -4.1984   -0.0481 H   0  0  0  0  0  0  0  0  0  0  0  0
   -0.1054   -8.0924    1.3145 H   0  0  0  0  0  0  0  0  0  0  0  0
    0.9864   -7.5711   -0.0286 H   0  0  0  0  0  0  0  0  0  0  0  0
   -0.8019   -7.2846   -0.1441 H   0  0  0  0  0  0  0  0  0  0  0  0
    2.3854   -5.2026   -0.5910 H   0  0  0  0  0  0  0  0  0  0  0  0
    2.3974   -4.0060   -2.7436 H   0  0  0  0  0  0  0  0  0  0  0  0
   -1.1125    4.1602   -5.5625 H   0  0  0  0  0  0  0  0  0  0  0  0
   -3.2482    4.7727   -6.6154 H   0  0  0  0  0  0  0  0  0  0  0  0
   -6.2633    2.1673   -5.6146 H   0  0  0  0  0  0  0  0  0  0  0  0
   -7.1949    2.9080   -6.9818 H   0  0  0  0  0  0  0  0  0  0  0  0
   -5.3991    2.7009   -7.1246 H   0  0  0  0  0  0  0  0  0  0  0  0
   -5.3776    3.5153   -3.0927 H   0  0  0  0  0  0  0  0  0  0  0  0
   -3.2327    2.9228   -2.0090 H   0  0  0  0  0  0  0  0  0  0  0  0
   -0.6045    5.8252   -3.3507 H   0  0  0  0  0  0  0  0  0  0  0  0
    1.3965    7.1480   -3.8579 H   0  0  0  0  0  0  0  0  0  0  0  0
    4.8823    6.9355   -6.3838 H   0  0  0  0  0  0  0  0  0  0  0  0
    4.1460    5.2810   -6.2593 H   0  0  0  0  0  0  0  0  0  0  0  0
    3.0927    6.7621   -6.2629 H   0  0  0  0  0  0  0  0  0  0  0  0
    3.8183    3.6002   -3.7028 H   0  0  0  0  0  0  0  0  0  0  0  0
    1.8362    2.2395   -3.2641 H   0  0  0  0  0  0  0  0  0  0  0  0
    3.4357    4.5140    3.6444 H   0  0  0  0  0  0  0  0  0  0  0  0
    3.6176    5.7646    2.3791 H   0  0  0  0  0  0  0  0  0  0  0  0
    1.3974    6.7789    3.1112 H   0  0  0  0  0  0  0  0  0  0  0  0
    2.7262    6.8487    4.3278 H   0  0  0  0  0  0  0  0  0  0  0  0
    1.4125    5.6273    4.5056 H   0  0  0  0  0  0  0  0  0  0  0  0
    3.4317    4.3924   -1.0510 H   0  0  0  0  0  0  0  0  0  0  0  0
    4.2134    4.8701    0.4613 H   0  0  0  0  0  0  0  0  0  0  0  0
    1.9870    6.3908   -1.0573 H   0  0  0  0  0  0  0  0  0  0  0  0
    3.6940    6.9095   -0.8002 H   0  0  0  0  0  0  0  0  0  0  0  0
    2.5390    6.8693    0.5780 H   0  0  0  0  0  0  0  0  0  0  0  0
    1.2587   -1.2585    4.6706 H   0  0  0  0  0  0  0  0  0  0  0  0
    0.6101   -2.0609    3.2017 H   0  0  0  0  0  0  0  0  0  0  0  0
    1.9829    0.6973    3.2869 H   0  0  0  0  0  0  0  0  0  0  0  0
    1.2672   -0.0751    1.8112 H   0  0  0  0  0  0  0  0  0  0  0  0
    2.6864   -0.8418    2.6428 H   0  0  0  0  0  0  0  0  0  0  0  0
   -1.1040   -2.4366    7.5800 H   0  0  0  0  0  0  0  0  0  0  0  0
   -1.9688   -0.9062    7.9748 H   0  0  0  0  0  0  0  0  0  0  0  0
   -2.0944   -2.3551    5.2313 H   0  0  0  0  0  0  0  0  0  0  0  0
   -3.3204   -2.5340    6.5472 H   0  0  0  0  0  0  0  0  0  0  0  0
   -3.0832   -0.9297    5.7467 H   0  0  0  0  0  0  0  0  0  0  0  0
   -1.2582    2.0885    8.9205 H   0  0  0  0  0  0  0  0  0  0  0  0
    4.0179    4.1929    8.8071 H   0  0  0  0  0  0  0  0  0  0  0  0
    6.0314    3.3095    7.7934 H   0  0  0  0  0  0  0  0  0  0  0  0
    7.2513    1.4689    6.6903 H   0  0  0  0  0  0  0  0  0  0  0  0
    7.2804   -0.8331    5.7936 H   0  0  0  0  0  0  0  0  0  0  0  0
    5.2994   -2.2868    6.0087 H   0  0  0  0  0  0  0  0  0  0  0  0
    3.2723   -1.4826    7.0991 H   0  0  0  0  0  0  0  0  0  0  0  0
  1  2  2  3
  2  3  1  0
  3  4  2  0
  3  5  1  0
  5  6  2  0
  6  7  1  0
  7  8  2  0
  8  9  1  0
  9 10  2  0
 10 11  1  0
 11 12  2  0
 12 13  1  0
 13 14  2  0
  6 15  1  0
 15 16  2  3
 16 17  1  0
 17 18  3  0
 16 19  1  0
 19 20  3  0
  1 21  1  0
 21 22  2  0
 22 23  1  0
 23 24  1  0
 24 25  2  0
 25 26  1  0
 26 27  2  0
 27 28  1  0
 28 29  1  0
 27 30  1  0
 30 31  2  0
 23 32  1  0
 32 33  2  0
 33 34  1  0
 34 35  2  0
 35 36  1  0
 36 37  1  0
 35 38  1  0
 38 39  2  0
 22 40  1  0
 40 41  1  0
 41 42  1  0
 42 43  2  0
 43 44  1  0
 44 45  1  0
 45 46  2  0
 46 47  1  0
 47 48  2  0
 48 49  1  0
 49 50  1  0
 48 51  1  0
 51 52  2  0
 44 53  1  0
 53 54  2  0
 54 55  1  0
 55 56  2  0
 56 57  1  0
 57 58  1  0
 56 59  1  0
 59 60  2  0
 43 61  1  0
 61 62  1  0
 42 63  1  0
 63 64  2  0
 64 65  1  0
 64 66  1  0
 66 67  1  0
 66 68  2  0
 68 69  1  0
 69 70  2  0
 70 71  1  0
 71 72  1  0
 72 73  1  0
 71 74  2  0
 74 75  1  0
 75 76  2  0
 74 77  1  0
 77 78  1  0
 68 79  1  0
 79 80  2  0
 80 81  1  0
 81 82  1  0
 82 83  1  0
 80 84  1  0
 84 85  1  0
 85 86  1  0
 86 87  1  0
 84 88  2  0
 88 89  1  0
 89 90  1  0
 90 91  2  0
 91 92  1  0
 92 93  1  0
 88 94  1  0
 94 95  2  3
 95 96  1  0
 96 97  2  0
 96 98  1  0
 98 99  2  0
 99100  1  0
100101  2  0
101102  1  0
102103  2  0
103104  1  0
104105  2  0
105106  1  0
106107  2  0
 99108  1  0
108109  2  3
109110  1  0
110111  3  0
109112  1  0
112113  3  0
 15  2  1  0
 62 21  1  0
 76 63  1  0
 90 79  1  0
108 95  1  0
 14  5  1  0
 31 24  1  0
 39 32  1  0
 61 40  2  0
 76 69  1  0
 93 89  2  0
107 98  1  0
 14  9  1  0
 52 45  1  0
 60 53  1  0
107102  1  0
  1114  1  0
  7115  1  0
  8116  1  0
 10117  1  0
 11118  1  0
 12119  1  0
 13120  1  0
 25121  1  0
 26122  1  0
 29123  1  0
 29124  1  0
 29125  1  0
 30126  1  0
 31127  1  0
 33128  1  0
 34129  1  0
 37130  1  0
 37131  1  0
 37132  1  0
 38133  1  0
 39134  1  0
 46135  1  0
 47136  1  0
 50137  1  0
 50138  1  0
 50139  1  0
 51140  1  0
 52141  1  0
 54142  1  0
 55143  1  0
 58144  1  0
 58145  1  0
 58146  1  0
 59147  1  0
 60148  1  0
 72149  1  0
 72150  1  0
 73151  1  0
 73152  1  0
 73153  1  0
 77154  1  0
 77155  1  0
 78156  1  0
 78157  1  0
 78158  1  0
 82159  1  0
 82160  1  0
 83161  1  0
 83162  1  0
 83163  1  0
 86164  1  0
 86165  1  0
 87166  1  0
 87167  1  0
 87168  1  0
 94169  1  0
100170  1  0
101171  1  0
103172  1  0
104173  1  0
105174  1  0
106175  1  0
M  END

