
     RDKit          3D

186201  0  0  0  0  0  0  0  0999 V2000
    3.0789   -4.6262   -5.2450 C   0  0  0  0  0  0  0  0  0  0  0  0
    4.3326   -4.8764   -4.8210 C   0  0  0  0  0  0  0  0  0  0  0  0
    5.0428   -4.1376   -3.7691 C   0  0  0  0  0  0  0  0  0  0  0  0
    4.7069   -3.0172   -3.3056 O   0  0  0  0  0  0  0  0  0  0  0  0
    6.1480   -4.9598   -3.2828 C   0  0  0  0  0  0  0  0  0  0  0  0
    6.1671   -6.1455   -4.0121 C   0  0  0  0  0  0  0  0  0  0  0  0
    7.0528   -7.1743   -3.6642 C   0  0  0  0  0  0  0  0  0  0  0  0
    7.9563   -6.9747   -2.6154 C   0  0  0  0  0  0  0  0  0  0  0  0
    7.9649   -5.7679   -1.8909 C   0  0  0  0  0  0  0  0  0  0  0  0
    8.8729   -5.5880   -0.8357 C   0  0  0  0  0  0  0  0  0  0  0  0
    8.8777   -4.3959   -0.1095 C   0  0  0  0  0  0  0  0  0  0  0  0
    7.9819   -3.3761   -0.4281 C   0  0  0  0  0  0  0  0  0  0  0  0
    7.0689   -3.5374   -1.4741 C   0  0  0  0  0  0  0  0  0  0  0  0
    7.0454   -4.7343   -2.2172 C   0  0  0  0  0  0  0  0  0  0  0  0
    5.1222   -6.1125   -5.0746 C   0  0  0  0  0  0  0  0  0  0  0  0
    5.0655   -6.8840   -6.1913 C   0  0  0  0  0  0  0  0  0  0  0  0
    4.1935   -6.5639   -7.2951 C   0  0  0  0  0  0  0  0  0  0  0  0
    3.4996   -6.3124   -8.1869 N   0  0  0  0  0  0  0  0  0  0  0  0
    5.9603   -7.9858   -6.4280 C   0  0  0  0  0  0  0  0  0  0  0  0
    6.6675   -8.8796   -6.6380 N   0  0  0  0  0  0  0  0  0  0  0  0
    2.3636   -3.3885   -4.9249 C   0  0  0  0  0  0  0  0  0  0  0  0
    2.7746   -2.1063   -5.2516 C   0  0  0  0  0  0  0  0  0  0  0  0
    1.9949   -1.0954   -4.6626 C   0  0  0  0  0  0  0  0  0  0  0  0
    2.2756    0.3434   -4.9092 C   0  0  0  0  0  0  0  0  0  0  0  0
    1.2454    1.2153   -5.3334 C   0  0  0  0  0  0  0  0  0  0  0  0
   -0.0743    0.7413   -5.4072 O   0  0  0  0  0  0  0  0  0  0  0  0
   -1.1942    1.5323   -5.8049 C   0  0  0  0  0  0  0  0  0  0  0  0
   -2.4754    0.7272   -5.6622 C   0  0  0  0  0  0  0  0  0  0  0  0
    1.5654    2.5360   -5.7016 C   0  0  0  0  0  0  0  0  0  0  0  0
    2.8811    2.9833   -5.6636 C   0  0  0  0  0  0  0  0  0  0  0  0
    3.8991    2.1362   -5.2376 C   0  0  0  0  0  0  0  0  0  0  0  0
    3.6137    0.8130   -4.8593 C   0  0  0  0  0  0  0  0  0  0  0  0
    4.6294   -0.0695   -4.4419 O   0  0  0  0  0  0  0  0  0  0  0  0
    6.0336    0.1310   -4.6145 C   0  0  0  0  0  0  0  0  0  0  0  0
    6.6208    0.8907   -3.4322 C   0  0  0  0  0  0  0  0  0  0  0  0
    0.9411   -1.6122   -3.8923 C   0  0  0  0  0  0  0  0  0  0  0  0
    1.0000   -3.2941   -3.9613 S   0  0  0  0  0  0  0  0  0  0  0  0
    0.0127   -0.9003   -3.0026 C   0  0  0  0  0  0  0  0  0  0  0  0
    0.3622   -0.0203   -1.9606 C   0  0  0  0  0  0  0  0  0  0  0  0
    1.7042    0.3395   -1.5917 N   0  0  0  0  0  0  0  0  0  0  0  0
    2.1995    1.6782   -1.8494 C   0  0  0  0  0  0  0  0  0  0  0  0
    3.5613    1.9755   -1.6514 C   0  0  0  0  0  0  0  0  0  0  0  0
    4.0337    3.2823   -1.7862 C   0  0  0  0  0  0  0  0  0  0  0  0
    3.1614    4.3119   -2.1370 C   0  0  0  0  0  0  0  0  0  0  0  0
    3.7538    6.0055   -2.1668 S   0  0  0  0  0  0  0  0  0  0  0  0
    4.1930    5.9744   -3.9305 C   0  0  0  0  0  0  0  0  0  0  0  0
    1.8170    4.0293   -2.3930 C   0  0  0  0  0  0  0  0  0  0  0  0
    1.3361    2.7224   -2.2542 C   0  0  0  0  0  0  0  0  0  0  0  0
    2.3081   -0.4449   -0.5408 C   0  0  0  0  0  0  0  0  0  0  0  0
    2.6665   -1.7822   -0.7633 C   0  0  0  0  0  0  0  0  0  0  0  0
    3.1667   -2.5629    0.2815 C   0  0  0  0  0  0  0  0  0  0  0  0
    3.3089   -2.0134    1.5613 C   0  0  0  0  0  0  0  0  0  0  0  0
    3.9094   -3.0251    2.9167 S   0  0  0  0  0  0  0  0  0  0  0  0
    5.6525   -2.5987    2.6252 C   0  0  0  0  0  0  0  0  0  0  0  0
    2.9700   -0.6757    1.7901 C   0  0  0  0  0  0  0  0  0  0  0  0
    2.4769    0.1057    0.7442 C   0  0  0  0  0  0  0  0  0  0  0  0
   -0.7208    0.1966   -1.1110 C   0  0  0  0  0  0  0  0  0  0  0  0
   -0.8347    0.8040    0.4420 S   0  0  0  0  0  0  0  0  0  0  0  0
   -2.4181    0.2332    0.6970 C   0  0  0  0  0  0  0  0  0  0  0  0
   -2.8599   -0.4452   -0.4511 C   0  0  0  0  0  0  0  0  0  0  0  0
   -4.1084   -1.1476   -0.5686 N   0  0  0  0  0  0  0  0  0  0  0  0
   -4.9408   -0.8918   -1.7186 C   0  0  0  0  0  0  0  0  0  0  0  0
   -5.5541   -1.9526   -2.4049 C   0  0  0  0  0  0  0  0  0  0  0  0
   -6.3603   -1.6982   -3.5187 C   0  0  0  0  0  0  0  0  0  0  0  0
   -6.5701   -0.3825   -3.9497 C   0  0  0  0  0  0  0  0  0  0  0  0
   -7.6547   -0.0619   -5.3427 S   0  0  0  0  0  0  0  0  0  0  0  0
   -6.3083   -0.0818   -6.5674 C   0  0  0  0  0  0  0  0  0  0  0  0
   -5.9543    0.6784   -3.2742 C   0  0  0  0  0  0  0  0  0  0  0  0
   -5.1412    0.4262   -2.1676 C   0  0  0  0  0  0  0  0  0  0  0  0
   -4.5336   -2.0612    0.4670 C   0  0  0  0  0  0  0  0  0  0  0  0
   -3.5994   -2.8898    1.1110 C   0  0  0  0  0  0  0  0  0  0  0  0
   -3.9982   -3.7315    2.1526 C   0  0  0  0  0  0  0  0  0  0  0  0
   -5.3377   -3.7542    2.5625 C   0  0  0  0  0  0  0  0  0  0  0  0
   -5.8374   -4.7850    3.9427 S   0  0  0  0  0  0  0  0  0  0  0  0
   -5.5789   -3.4714    5.1783 C   0  0  0  0  0  0  0  0  0  0  0  0
   -6.2789   -2.9535    1.9060 C   0  0  0  0  0  0  0  0  0  0  0  0
   -5.8818   -2.1093    0.8671 C   0  0  0  0  0  0  0  0  0  0  0  0
   -1.8742   -0.4481   -1.4371 C   0  0  0  0  0  0  0  0  0  0  0  0
   -1.6115   -1.3877   -2.7967 S   0  0  0  0  0  0  0  0  0  0  0  0
   -3.0848    0.3149    1.9974 C   0  0  0  0  0  0  0  0  0  0  0  0
   -4.1116    1.1921    2.3035 C   0  0  0  0  0  0  0  0  0  0  0  0
   -4.1885    1.5221    3.6734 C   0  0  0  0  0  0  0  0  0  0  0  0
   -5.0942    2.5879    4.1833 C   0  0  0  0  0  0  0  0  0  0  0  0
   -5.9392    2.3387    5.2882 C   0  0  0  0  0  0  0  0  0  0  0  0
   -5.8613    1.0875    5.9278 O   0  0  0  0  0  0  0  0  0  0  0  0
   -6.5923    0.6995    7.0937 C   0  0  0  0  0  0  0  0  0  0  0  0
   -6.0527    1.4013    8.3348 C   0  0  0  0  0  0  0  0  0  0  0  0
   -6.8586    3.3258    5.6890 C   0  0  0  0  0  0  0  0  0  0  0  0
   -6.9171    4.5496    5.0266 C   0  0  0  0  0  0  0  0  0  0  0  0
   -6.0743    4.8074    3.9485 C   0  0  0  0  0  0  0  0  0  0  0  0
   -5.1645    3.8288    3.5080 C   0  0  0  0  0  0  0  0  0  0  0  0
   -4.3195    4.0598    2.4112 O   0  0  0  0  0  0  0  0  0  0  0  0
   -4.3896    5.1885    1.5472 C   0  0  0  0  0  0  0  0  0  0  0  0
   -3.3664    5.0314    0.4334 C   0  0  0  0  0  0  0  0  0  0  0  0
   -3.2283    0.8580    4.4508 C   0  0  0  0  0  0  0  0  0  0  0  0
   -2.2949   -0.0793    3.4161 S   0  0  0  0  0  0  0  0  0  0  0  0
   -2.6817    1.2886    5.7499 C   0  0  0  0  0  0  0  0  0  0  0  0
   -1.5518    2.0291    5.7809 C   0  0  0  0  0  0  0  0  0  0  0  0
   -1.0087    2.7212    4.6076 C   0  0  0  0  0  0  0  0  0  0  0  0
   -1.7020    3.2896    3.7219 O   0  0  0  0  0  0  0  0  0  0  0  0
    0.4445    2.6475    4.6361 C   0  0  0  0  0  0  0  0  0  0  0  0
    0.8238    2.0498    5.8321 C   0  0  0  0  0  0  0  0  0  0  0  0
    2.1787    1.7970    6.0874 C   0  0  0  0  0  0  0  0  0  0  0  0
    3.1425    2.1597    5.1376 C   0  0  0  0  0  0  0  0  0  0  0  0
    2.7629    2.7713    3.9276 C   0  0  0  0  0  0  0  0  0  0  0  0
    3.7358    3.1308    2.9825 C   0  0  0  0  0  0  0  0  0  0  0  0
    3.3595    3.7361    1.7817 C   0  0  0  0  0  0  0  0  0  0  0  0
    2.0137    3.9675    1.5037 C   0  0  0  0  0  0  0  0  0  0  0  0
    1.0303    3.6086    2.4284 C   0  0  0  0  0  0  0  0  0  0  0  0
    1.3906    3.0189    3.6558 C   0  0  0  0  0  0  0  0  0  0  0  0
   -0.3845    1.7520    6.6590 C   0  0  0  0  0  0  0  0  0  0  0  0
   -0.4328    1.3881    7.9619 C   0  0  0  0  0  0  0  0  0  0  0  0
   -1.6549    1.4319    8.7204 C   0  0  0  0  0  0  0  0  0  0  0  0
   -2.6287    1.4598    9.3415 N   0  0  0  0  0  0  0  0  0  0  0  0
    0.7209    0.9388    8.6967 C   0  0  0  0  0  0  0  0  0  0  0  0
    1.6319    0.5428    9.2924 N   0  0  0  0  0  0  0  0  0  0  0  0
    2.5211   -5.3890   -5.7662 H   0  0  0  0  0  0  0  0  0  0  0  0
    7.0459   -8.1321   -4.1558 H   0  0  0  0  0  0  0  0  0  0  0  0
    8.6418   -7.7744   -2.3554 H   0  0  0  0  0  0  0  0  0  0  0  0
    9.5783   -6.3681   -0.5722 H   0  0  0  0  0  0  0  0  0  0  0  0
    9.5769   -4.2609    0.7046 H   0  0  0  0  0  0  0  0  0  0  0  0
    7.9956   -2.4524    0.1377 H   0  0  0  0  0  0  0  0  0  0  0  0
    6.4019   -2.7177   -1.6842 H   0  0  0  0  0  0  0  0  0  0  0  0
    3.6259   -1.9133   -5.8916 H   0  0  0  0  0  0  0  0  0  0  0  0
   -1.0750    1.8362   -6.8670 H   0  0  0  0  0  0  0  0  0  0  0  0
   -1.2681    2.4412   -5.1659 H   0  0  0  0  0  0  0  0  0  0  0  0
   -2.3737   -0.2499   -6.1818 H   0  0  0  0  0  0  0  0  0  0  0  0
   -2.6973    0.5566   -4.5880 H   0  0  0  0  0  0  0  0  0  0  0  0
   -3.3186    1.2918   -6.1104 H   0  0  0  0  0  0  0  0  0  0  0  0
    0.8061    3.2185   -6.0520 H   0  0  0  0  0  0  0  0  0  0  0  0
    3.1155    3.9917   -5.9785 H   0  0  0  0  0  0  0  0  0  0  0  0
    4.9076    2.5218   -5.2120 H   0  0  0  0  0  0  0  0  0  0  0  0
    6.2436    0.6561   -5.5686 H   0  0  0  0  0  0  0  0  0  0  0  0
    6.5265   -0.8655   -4.6672 H   0  0  0  0  0  0  0  0  0  0  0  0
    6.5185    0.2895   -2.5042 H   0  0  0  0  0  0  0  0  0  0  0  0
    7.6980    1.0886   -3.6191 H   0  0  0  0  0  0  0  0  0  0  0  0
    6.1068    1.8594   -3.2973 H   0  0  0  0  0  0  0  0  0  0  0  0
    4.2588    1.1987   -1.3674 H   0  0  0  0  0  0  0  0  0  0  0  0
    5.0788    3.4938   -1.5933 H   0  0  0  0  0  0  0  0  0  0  0  0
    4.8269    5.0922   -4.1620 H   0  0  0  0  0  0  0  0  0  0  0  0
    3.2647    5.9479   -4.5379 H   0  0  0  0  0  0  0  0  0  0  0  0
    4.7569    6.8984   -4.1766 H   0  0  0  0  0  0  0  0  0  0  0  0
    1.1382    4.8238   -2.6737 H   0  0  0  0  0  0  0  0  0  0  0  0
    0.2844    2.5396   -2.4387 H   0  0  0  0  0  0  0  0  0  0  0  0
    2.5596   -2.2181   -1.7439 H   0  0  0  0  0  0  0  0  0  0  0  0
    3.4355   -3.5967    0.0975 H   0  0  0  0  0  0  0  0  0  0  0  0
    5.9649   -2.9703    1.6274 H   0  0  0  0  0  0  0  0  0  0  0  0
    6.2800   -3.0796    3.4022 H   0  0  0  0  0  0  0  0  0  0  0  0
    5.7914   -1.5006    2.6839 H   0  0  0  0  0  0  0  0  0  0  0  0
    3.0778   -0.2422    2.7773 H   0  0  0  0  0  0  0  0  0  0  0  0
    2.1981    1.1339    0.9355 H   0  0  0  0  0  0  0  0  0  0  0  0
   -5.4042   -2.9729   -2.0800 H   0  0  0  0  0  0  0  0  0  0  0  0
   -6.8349   -2.5212   -4.0368 H   0  0  0  0  0  0  0  0  0  0  0  0
   -6.7490   -0.1013   -7.5876 H   0  0  0  0  0  0  0  0  0  0  0  0
   -5.6933    0.8342   -6.4567 H   0  0  0  0  0  0  0  0  0  0  0  0
   -5.6790   -0.9888   -6.4395 H   0  0  0  0  0  0  0  0  0  0  0  0
   -6.1149    1.6984   -3.6033 H   0  0  0  0  0  0  0  0  0  0  0  0
   -4.6845    1.2597   -1.6478 H   0  0  0  0  0  0  0  0  0  0  0  0
   -2.5579   -2.8782    0.8137 H   0  0  0  0  0  0  0  0  0  0  0  0
   -3.2667   -4.3607    2.6463 H   0  0  0  0  0  0  0  0  0  0  0  0
   -4.5137   -3.1525    5.1820 H   0  0  0  0  0  0  0  0  0  0  0  0
   -6.2291   -2.6014    4.9507 H   0  0  0  0  0  0  0  0  0  0  0  0
   -5.8437   -3.8612    6.1833 H   0  0  0  0  0  0  0  0  0  0  0  0
   -7.3190   -2.9768    2.2129 H   0  0  0  0  0  0  0  0  0  0  0  0
   -6.6188   -1.4735    0.3929 H   0  0  0  0  0  0  0  0  0  0  0  0
   -4.7091    1.6669    1.5396 H   0  0  0  0  0  0  0  0  0  0  0  0
   -6.4699   -0.3900    7.2360 H   0  0  0  0  0  0  0  0  0  0  0  0
   -7.6769    0.9056    6.9654 H   0  0  0  0  0  0  0  0  0  0  0  0
   -6.1634    2.4989    8.2589 H   0  0  0  0  0  0  0  0  0  0  0  0
   -4.9820    1.1560    8.4503 H   0  0  0  0  0  0  0  0  0  0  0  0
   -6.6023    1.0485    9.2342 H   0  0  0  0  0  0  0  0  0  0  0  0
   -7.5568    3.1555    6.4922 H   0  0  0  0  0  0  0  0  0  0  0  0
   -7.6426    5.2919    5.3259 H   0  0  0  0  0  0  0  0  0  0  0  0
   -6.1554    5.7618    3.4525 H   0  0  0  0  0  0  0  0  0  0  0  0
   -5.4064    5.2564    1.1043 H   0  0  0  0  0  0  0  0  0  0  0  0
   -4.1729    6.1223    2.1143 H   0  0  0  0  0  0  0  0  0  0  0  0
   -2.3433    5.0043    0.8636 H   0  0  0  0  0  0  0  0  0  0  0  0
   -3.5467    4.0861   -0.1228 H   0  0  0  0  0  0  0  0  0  0  0  0
   -3.4370    5.8875   -0.2691 H   0  0  0  0  0  0  0  0  0  0  0  0
   -2.9270    0.6501    6.5853 H   0  0  0  0  0  0  0  0  0  0  0  0
    2.5196    1.3107    6.9839 H   0  0  0  0  0  0  0  0  0  0  0  0
    4.1882    1.9633    5.3432 H   0  0  0  0  0  0  0  0  0  0  0  0
    4.7883    2.9497    3.1749 H   0  0  0  0  0  0  0  0  0  0  0  0
    4.1156    4.0289    1.0647 H   0  0  0  0  0  0  0  0  0  0  0  0
    1.7284    4.4267    0.5695 H   0  0  0  0  0  0  0  0  0  0  0  0
    0.0019    3.8020    2.1688 H   0  0  0  0  0  0  0  0  0  0  0  0
  1  2  2  3
  2  3  1  0
  3  4  2  0
  3  5  1  0
  5  6  2  0
  6  7  1  0
  7  8  2  0
  8  9  1  0
  9 10  2  0
 10 11  1  0
 11 12  2  0
 12 13  1  0
 13 14  2  0
  6 15  1  0
 15 16  2  3
 16 17  1  0
 17 18  3  0
 16 19  1  0
 19 20  3  0
  1 21  1  0
 21 22  2  0
 22 23  1  0
 23 24  1  0
 24 25  2  0
 25 26  1  0
 26 27  1  0
 27 28  1  0
 25 29  1  0
 29 30  2  0
 30 31  1  0
 31 32  2  0
 32 33  1  0
 33 34  1  0
 34 35  1  0
 23 36  2  0
 36 37  1  0
 36 38  1  0
 38 39  2  0
 39 40  1  0
 40 41  1  0
 41 42  2  0
 42 43  1  0
 43 44  2  0
 44 45  1  0
 45 46  1  0
 44 47  1  0
 47 48  2  0
 40 49  1  0
 49 50  2  0
 50 51  1  0
 51 52  2  0
 52 53  1  0
 53 54  1  0
 52 55  1  0
 55 56  2  0
 39 57  1  0
 57 58  1  0
 58 59  1  0
 59 60  2  0
 60 61  1  0
 61 62  1  0
 62 63  2  0
 63 64  1  0
 64 65  2  0
 65 66  1  0
 66 67  1  0
 65 68  1  0
 68 69  2  0
 61 70  1  0
 70 71  2  0
 71 72  1  0
 72 73  2  0
 73 74  1  0
 74 75  1  0
 73 76  1  0
 76 77  2  0
 60 78  1  0
 78 79  1  0
 59 80  1  0
 80 81  2  0
 81 82  1  0
 82 83  1  0
 83 84  2  0
 84 85  1  0
 85 86  1  0
 86 87  1  0
 84 88  1  0
 88 89  2  0
 89 90  1  0
 90 91  2  0
 91 92  1  0
 92 93  1  0
 93 94  1  0
 82 95  2  0
 95 96  1  0
 95 97  1  0
 97 98  2  3
 98 99  1  0
 99100  2  0
 99101  1  0
101102  2  0
102103  1  0
103104  2  0
104105  1  0
105106  2  0
106107  1  0
107108  2  0
108109  1  0
109110  2  0
102111  1  0
111112  2  3
112113  1  0
113114  3  0
112115  1  0
115116  3  0
 15  2  1  0
 37 21  1  0
 79 38  1  0
 96 80  1  0
111 98  1  0
 14  5  1  0
 32 24  1  0
 48 41  1  0
 56 49  1  0
 78 57  2  0
 91 83  1  0
110101  1  0
 14  9  1  0
 69 62  1  0
 77 70  1  0
110105  1  0
  1117  1  0
  7118  1  0
  8119  1  0
 10120  1  0
 11121  1  0
 12122  1  0
 13123  1  0
 22124  1  0
 27125  1  0
 27126  1  0
 28127  1  0
 28128  1  0
 28129  1  0
 29130  1  0
 30131  1  0
 31132  1  0
 34133  1  0
 34134  1  0
 35135  1  0
 35136  1  0
 35137  1  0
 42138  1  0
 43139  1  0
 46140  1  0
 46141  1  0
 46142  1  0
 47143  1  0
 48144  1  0
 50145  1  0
 51146  1  0
 54147  1  0
 54148  1  0
 54149  1  0
 55150  1  0
 56151  1  0
 63152  1  0
 64153  1  0
 67154  1  0
 67155  1  0
 67156  1  0
 68157  1  0
 69158  1  0
 71159  1  0
 72160  1  0
 75161  1  0
 75162  1  0
 75163  1  0
 76164  1  0
 77165  1  0
 81166  1  0
 86167  1  0
 86168  1  0
 87169  1  0
 87170  1  0
 87171  1  0
 88172  1  0
 89173  1  0
 90174  1  0
 93175  1  0
 93176  1  0
 94177  1  0
 94178  1  0
 94179  1  0
 97180  1  0
103181  1  0
104182  1  0
106183  1  0
107184  1  0
108185  1  0
109186  1  0
M  END

