
     RDKit          3D

142155  0  0  0  0  0  0  0  0999 V2000
    8.6991   -0.4923   -6.2043 C   0  0  0  0  0  0  0  0  0  0  0  0
    8.7462   -0.0489   -7.4701 C   0  0  0  0  0  0  0  0  0  0  0  0
    7.6526    0.6249   -8.1839 C   0  0  0  0  0  0  0  0  0  0  0  0
    6.4339    0.6172   -7.8657 O   0  0  0  0  0  0  0  0  0  0  0  0
    8.2280    1.3481   -9.3007 C   0  0  0  0  0  0  0  0  0  0  0  0
    7.5974    2.2441  -10.1616 C   0  0  0  0  0  0  0  0  0  0  0  0
    8.3794    2.9395  -11.0975 C   0  0  0  0  0  0  0  0  0  0  0  0
    7.5877    4.0751  -12.1807 Cl  0  0  0  0  0  0  0  0  0  0  0  0
    9.7788    2.7410  -11.1349 C   0  0  0  0  0  0  0  0  0  0  0  0
   10.8886    3.7099  -12.3610 Br  0  0  0  0  0  0  0  0  0  0  0  0
   10.3906    1.8353  -10.2513 C   0  0  0  0  0  0  0  0  0  0  0  0
    9.5902    1.1205   -9.3490 C   0  0  0  0  0  0  0  0  0  0  0  0
    9.9687    0.1356   -8.3001 C   0  0  0  0  0  0  0  0  0  0  0  0
   11.0661   -0.6638   -8.2961 C   0  0  0  0  0  0  0  0  0  0  0  0
   11.1516   -1.8203   -7.4376 C   0  0  0  0  0  0  0  0  0  0  0  0
   11.1976   -2.7572   -6.7605 N   0  0  0  0  0  0  0  0  0  0  0  0
   12.1118   -0.5448   -9.2776 C   0  0  0  0  0  0  0  0  0  0  0  0
   12.9570   -0.4626  -10.0648 N   0  0  0  0  0  0  0  0  0  0  0  0
    7.4456   -0.6008   -5.4466 C   0  0  0  0  0  0  0  0  0  0  0  0
    7.0309    0.4487   -4.5995 C   0  0  0  0  0  0  0  0  0  0  0  0
    5.8458    0.2893   -3.8857 C   0  0  0  0  0  0  0  0  0  0  0  0
    5.1901    1.1783   -2.9271 C   0  0  0  0  0  0  0  0  0  0  0  0
    5.5785    2.3211   -2.5680 O   0  0  0  0  0  0  0  0  0  0  0  0
    3.9990    0.4734   -2.4591 C   0  0  0  0  0  0  0  0  0  0  0  0
    3.9450   -0.7551   -3.0934 C   0  0  0  0  0  0  0  0  0  0  0  0
    5.0986   -0.8715   -3.9824 C   0  0  0  0  0  0  0  0  0  0  0  0
    5.4964   -1.9301   -4.7984 C   0  0  0  0  0  0  0  0  0  0  0  0
    6.6825   -1.7901   -5.5344 C   0  0  0  0  0  0  0  0  0  0  0  0
    2.9331   -1.6670   -2.8203 C   0  0  0  0  0  0  0  0  0  0  0  0
    1.9534   -1.3099   -1.8815 C   0  0  0  0  0  0  0  0  0  0  0  0
    1.9916   -0.0532   -1.2235 C   0  0  0  0  0  0  0  0  0  0  0  0
    3.0456    0.8445   -1.5106 C   0  0  0  0  0  0  0  0  0  0  0  0
    0.9215    0.2794   -0.2516 C   0  0  0  0  0  0  0  0  0  0  0  0
    0.2778    1.5243   -0.0506 C   0  0  0  0  0  0  0  0  0  0  0  0
    0.6945    2.7862   -0.5968 N   0  0  0  0  0  0  0  0  0  0  0  0
    1.6497    3.6035    0.1246 C   0  0  0  0  0  0  0  0  0  0  0  0
    2.5667    4.4100   -0.5775 C   0  0  0  0  0  0  0  0  0  0  0  0
    3.5489    5.1313    0.1070 C   0  0  0  0  0  0  0  0  0  0  0  0
    3.6222    5.0670    1.5025 C   0  0  0  0  0  0  0  0  0  0  0  0
    4.9064    5.9599    2.3767 S   0  0  0  0  0  0  0  0  0  0  0  0
    6.0400    4.5360    2.4120 C   0  0  0  0  0  0  0  0  0  0  0  0
    2.7013    4.2927    2.2130 C   0  0  0  0  0  0  0  0  0  0  0  0
    1.7318    3.5539    1.5297 C   0  0  0  0  0  0  0  0  0  0  0  0
    0.0733    3.2709   -1.8047 C   0  0  0  0  0  0  0  0  0  0  0  0
   -0.0725    2.4287   -2.9209 C   0  0  0  0  0  0  0  0  0  0  0  0
   -0.6293    2.9172   -4.1064 C   0  0  0  0  0  0  0  0  0  0  0  0
   -1.0542    4.2475   -4.1869 C   0  0  0  0  0  0  0  0  0  0  0  0
   -1.7696    4.8699   -5.7091 S   0  0  0  0  0  0  0  0  0  0  0  0
   -0.1888    5.5157   -6.3353 C   0  0  0  0  0  0  0  0  0  0  0  0
   -0.9411    5.0837   -3.0725 C   0  0  0  0  0  0  0  0  0  0  0  0
   -0.3734    4.6014   -1.8891 C   0  0  0  0  0  0  0  0  0  0  0  0
   -0.7961    1.4002    0.8319 C   0  0  0  0  0  0  0  0  0  0  0  0
   -1.9391    2.4601    1.4658 S   0  0  0  0  0  0  0  0  0  0  0  0
   -2.6563    1.2702    2.4582 C   0  0  0  0  0  0  0  0  0  0  0  0
   -2.0062    0.0418    2.2666 C   0  0  0  0  0  0  0  0  0  0  0  0
   -2.2823   -1.1519    3.0187 N   0  0  0  0  0  0  0  0  0  0  0  0
   -1.8702   -1.1894    4.4008 C   0  0  0  0  0  0  0  0  0  0  0  0
   -0.6014   -0.7162    4.7801 C   0  0  0  0  0  0  0  0  0  0  0  0
   -0.2399   -0.6605    6.1290 C   0  0  0  0  0  0  0  0  0  0  0  0
   -1.1444   -1.0714    7.1144 C   0  0  0  0  0  0  0  0  0  0  0  0
   -0.7083   -0.9310    8.8463 S   0  0  0  0  0  0  0  0  0  0  0  0
   -1.3720    0.7575    8.9931 C   0  0  0  0  0  0  0  0  0  0  0  0
   -2.4016   -1.5642    6.7459 C   0  0  0  0  0  0  0  0  0  0  0  0
   -2.7633   -1.6241    5.3982 C   0  0  0  0  0  0  0  0  0  0  0  0
   -3.0600   -2.2240    2.4410 C   0  0  0  0  0  0  0  0  0  0  0  0
   -2.8706   -3.5524    2.8722 C   0  0  0  0  0  0  0  0  0  0  0  0
   -3.6782   -4.5797    2.3794 C   0  0  0  0  0  0  0  0  0  0  0  0
   -4.6718   -4.3022    1.4380 C   0  0  0  0  0  0  0  0  0  0  0  0
   -5.7223   -5.6242    0.8303 S   0  0  0  0  0  0  0  0  0  0  0  0
   -4.5979   -6.0471   -0.5348 C   0  0  0  0  0  0  0  0  0  0  0  0
   -4.8485   -2.9940    0.9771 C   0  0  0  0  0  0  0  0  0  0  0  0
   -4.0432   -1.9624    1.4651 C   0  0  0  0  0  0  0  0  0  0  0  0
   -0.9805    0.1591    1.3419 C   0  0  0  0  0  0  0  0  0  0  0  0
    0.1434   -0.9012    0.7123 S   0  0  0  0  0  0  0  0  0  0  0  0
   -3.8689    1.4375    3.2705 C   0  0  0  0  0  0  0  0  0  0  0  0
   -3.7743    1.4113    4.6683 C   0  0  0  0  0  0  0  0  0  0  0  0
   -4.9134    1.1797    5.4435 C   0  0  0  0  0  0  0  0  0  0  0  0
   -6.1544    0.9784    4.8241 C   0  0  0  0  0  0  0  0  0  0  0  0
   -6.2706    1.1342    3.4340 C   0  0  0  0  0  0  0  0  0  0  0  0
   -7.4740    0.9831    2.8247 F   0  0  0  0  0  0  0  0  0  0  0  0
   -5.1310    1.3651    2.6587 C   0  0  0  0  0  0  0  0  0  0  0  0
   -5.2423    1.4244    1.3065 F   0  0  0  0  0  0  0  0  0  0  0  0
   -7.2972    0.5154    5.6296 C   0  0  0  0  0  0  0  0  0  0  0  0
   -7.7934   -0.7360    5.5344 C   0  0  0  0  0  0  0  0  0  0  0  0
   -7.3515   -1.7593    4.5752 C   0  0  0  0  0  0  0  0  0  0  0  0
   -6.2800   -1.7615    3.9181 O   0  0  0  0  0  0  0  0  0  0  0  0
   -8.3449   -2.8080    4.5389 C   0  0  0  0  0  0  0  0  0  0  0  0
   -8.4202   -3.8874    3.6590 C   0  0  0  0  0  0  0  0  0  0  0  0
   -9.5437   -4.7221    3.7122 C   0  0  0  0  0  0  0  0  0  0  0  0
   -9.6461   -6.0749    2.5928 Cl  0  0  0  0  0  0  0  0  0  0  0  0
  -10.5751   -4.4554    4.6442 C   0  0  0  0  0  0  0  0  0  0  0  0
  -12.1398   -5.5575    4.7315 Br  0  0  0  0  0  0  0  0  0  0  0  0
  -10.4798   -3.3523    5.5110 C   0  0  0  0  0  0  0  0  0  0  0  0
   -9.3324   -2.5471    5.4726 C   0  0  0  0  0  0  0  0  0  0  0  0
   -8.9869   -1.3095    6.2345 C   0  0  0  0  0  0  0  0  0  0  0  0
   -9.4939   -0.9333    7.4386 C   0  0  0  0  0  0  0  0  0  0  0  0
   -8.9621    0.1661    8.1976 C   0  0  0  0  0  0  0  0  0  0  0  0
   -8.5439    1.0522    8.8138 N   0  0  0  0  0  0  0  0  0  0  0  0
  -10.5172   -1.6930    8.1112 C   0  0  0  0  0  0  0  0  0  0  0  0
  -11.3374   -2.3040    8.6629 N   0  0  0  0  0  0  0  0  0  0  0  0
    9.6055   -0.7604   -5.6828 H   0  0  0  0  0  0  0  0  0  0  0  0
    6.5300    2.4117  -10.0973 H   0  0  0  0  0  0  0  0  0  0  0  0
   11.4625    1.7420  -10.2527 H   0  0  0  0  0  0  0  0  0  0  0  0
    7.6120    1.3570   -4.5064 H   0  0  0  0  0  0  0  0  0  0  0  0
    4.9121   -2.8396   -4.8584 H   0  0  0  0  0  0  0  0  0  0  0  0
    7.0105   -2.6003   -6.1696 H   0  0  0  0  0  0  0  0  0  0  0  0
    2.9011   -2.6311   -3.3125 H   0  0  0  0  0  0  0  0  0  0  0  0
    1.1567   -2.0132   -1.6816 H   0  0  0  0  0  0  0  0  0  0  0  0
    3.1535    1.7802   -0.9950 H   0  0  0  0  0  0  0  0  0  0  0  0
    2.5461    4.4513   -1.6591 H   0  0  0  0  0  0  0  0  0  0  0  0
    4.2638    5.7234   -0.4481 H   0  0  0  0  0  0  0  0  0  0  0  0
    6.2642    4.1959    1.3800 H   0  0  0  0  0  0  0  0  0  0  0  0
    6.9856    4.8385    2.9042 H   0  0  0  0  0  0  0  0  0  0  0  0
    5.5852    3.7031    2.9886 H   0  0  0  0  0  0  0  0  0  0  0  0
    2.7496    4.2412    3.2944 H   0  0  0  0  0  0  0  0  0  0  0  0
    1.0466    2.9482    2.1068 H   0  0  0  0  0  0  0  0  0  0  0  0
    0.2608    1.4014   -2.8832 H   0  0  0  0  0  0  0  0  0  0  0  0
   -0.7210    2.2630   -4.9650 H   0  0  0  0  0  0  0  0  0  0  0  0
    0.5730    4.7090   -6.3685 H   0  0  0  0  0  0  0  0  0  0  0  0
   -0.3368    5.9096   -7.3606 H   0  0  0  0  0  0  0  0  0  0  0  0
    0.1691    6.3385   -5.6814 H   0  0  0  0  0  0  0  0  0  0  0  0
   -1.2828    6.1094   -3.1211 H   0  0  0  0  0  0  0  0  0  0  0  0
   -0.2890    5.2619   -1.0352 H   0  0  0  0  0  0  0  0  0  0  0  0
    0.1057   -0.3821    4.0328 H   0  0  0  0  0  0  0  0  0  0  0  0
    0.7354   -0.2825    6.4058 H   0  0  0  0  0  0  0  0  0  0  0  0
   -0.8333    1.4414    8.3040 H   0  0  0  0  0  0  0  0  0  0  0  0
   -1.2422    1.1100   10.0351 H   0  0  0  0  0  0  0  0  0  0  0  0
   -2.4563    0.7630    8.7462 H   0  0  0  0  0  0  0  0  0  0  0  0
   -3.1058   -1.8774    7.5057 H   0  0  0  0  0  0  0  0  0  0  0  0
   -3.7573   -1.9646    5.1358 H   0  0  0  0  0  0  0  0  0  0  0  0
   -2.1044   -3.7915    3.5975 H   0  0  0  0  0  0  0  0  0  0  0  0
   -3.5310   -5.5913    2.7337 H   0  0  0  0  0  0  0  0  0  0  0  0
   -3.6026   -6.3392   -0.1358 H   0  0  0  0  0  0  0  0  0  0  0  0
   -4.4855   -5.1800   -1.2182 H   0  0  0  0  0  0  0  0  0  0  0  0
   -5.0207   -6.9032   -1.1009 H   0  0  0  0  0  0  0  0  0  0  0  0
   -5.6158   -2.7732    0.2443 H   0  0  0  0  0  0  0  0  0  0  0  0
   -4.2024   -0.9599    1.1010 H   0  0  0  0  0  0  0  0  0  0  0  0
   -2.8072    1.4774    5.1536 H   0  0  0  0  0  0  0  0  0  0  0  0
   -4.8108    1.0815    6.5173 H   0  0  0  0  0  0  0  0  0  0  0  0
   -7.7202    1.2322    6.3134 H   0  0  0  0  0  0  0  0  0  0  0  0
   -7.6402   -4.0565    2.9293 H   0  0  0  0  0  0  0  0  0  0  0  0
  -11.3062   -3.1367    6.1681 H   0  0  0  0  0  0  0  0  0  0  0  0
  1  2  2  3
  2  3  1  0
  3  4  2  0
  3  5  1  0
  5  6  2  0
  6  7  1  0
  7  8  1  0
  7  9  2  0
  9 10  1  0
  9 11  1  0
 11 12  2  0
 12 13  1  0
 13 14  2  3
 14 15  1  0
 15 16  3  0
 14 17  1  0
 17 18  3  0
  1 19  1  0
 19 20  2  0
 20 21  1  0
 21 22  1  0
 22 23  2  0
 22 24  1  0
 24 25  2  0
 25 26  1  0
 26 27  1  0
 27 28  2  0
 25 29  1  0
 29 30  2  0
 30 31  1  0
 31 32  2  0
 31 33  1  0
 33 34  2  0
 34 35  1  0
 35 36  1  0
 36 37  2  0
 37 38  1  0
 38 39  2  0
 39 40  1  0
 40 41  1  0
 39 42  1  0
 42 43  2  0
 35 44  1  0
 44 45  2  0
 45 46  1  0
 46 47  2  0
 47 48  1  0
 48 49  1  0
 47 50  1  0
 50 51  2  0
 34 52  1  0
 52 53  1  0
 53 54  1  0
 54 55  2  0
 55 56  1  0
 56 57  1  0
 57 58  2  0
 58 59  1  0
 59 60  2  0
 60 61  1  0
 61 62  1  0
 60 63  1  0
 63 64  2  0
 56 65  1  0
 65 66  2  0
 66 67  1  0
 67 68  2  0
 68 69  1  0
 69 70  1  0
 68 71  1  0
 71 72  2  0
 55 73  1  0
 73 74  1  0
 54 75  1  0
 75 76  2  0
 76 77  1  0
 77 78  2  0
 78 79  1  0
 79 80  1  0
 79 81  2  0
 81 82  1  0
 78 83  1  0
 83 84  2  3
 84 85  1  0
 85 86  2  0
 85 87  1  0
 87 88  2  0
 88 89  1  0
 89 90  1  0
 89 91  2  0
 91 92  1  0
 91 93  1  0
 93 94  2  0
 94 95  1  0
 95 96  2  3
 96 97  1  0
 97 98  3  0
 96 99  1  0
 99100  3  0
 13  2  1  0
 28 19  1  0
 74 33  1  0
 81 75  1  0
 95 84  1  0
 12  5  1  0
 26 21  2  0
 43 36  1  0
 51 44  1  0
 73 52  2  0
 94 87  1  0
 32 24  1  0
 64 57  1  0
 72 65  1  0
  1101  1  0
  6102  1  0
 11103  1  0
 20104  1  0
 27105  1  0
 28106  1  0
 29107  1  0
 30108  1  0
 32109  1  0
 37110  1  0
 38111  1  0
 41112  1  0
 41113  1  0
 41114  1  0
 42115  1  0
 43116  1  0
 45117  1  0
 46118  1  0
 49119  1  0
 49120  1  0
 49121  1  0
 50122  1  0
 51123  1  0
 58124  1  0
 59125  1  0
 62126  1  0
 62127  1  0
 62128  1  0
 63129  1  0
 64130  1  0
 66131  1  0
 67132  1  0
 70133  1  0
 70134  1  0
 70135  1  0
 71136  1  0
 72137  1  0
 76138  1  0
 77139  1  0
 83140  1  0
 88141  1  0
 93142  1  0
M  END

