
     RDKit          3D

108119  0  0  0  0  0  0  0  0999 V2000
    8.1508    6.0949   -1.3531 C   0  0  0  0  0  0  0  0  0  0  0  0
    9.1948    5.6250   -2.0574 C   0  0  0  0  0  0  0  0  0  0  0  0
   10.5195    5.4708   -1.4615 C   0  0  0  0  0  0  0  0  0  0  0  0
   10.9140    5.9913   -0.3834 O   0  0  0  0  0  0  0  0  0  0  0  0
   11.2865    4.5648   -2.2855 C   0  0  0  0  0  0  0  0  0  0  0  0
   12.5623    4.0533   -2.0481 C   0  0  0  0  0  0  0  0  0  0  0  0
   13.1054    3.1461   -2.9693 C   0  0  0  0  0  0  0  0  0  0  0  0
   14.7170    2.5094   -2.6707 Cl  0  0  0  0  0  0  0  0  0  0  0  0
   12.3546    2.7545   -4.1020 C   0  0  0  0  0  0  0  0  0  0  0  0
   13.0569    1.5171   -5.3834 Br  0  0  0  0  0  0  0  0  0  0  0  0
   11.0598    3.2698   -4.3050 C   0  0  0  0  0  0  0  0  0  0  0  0
   10.5370    4.1963   -3.3914 C   0  0  0  0  0  0  0  0  0  0  0  0
    9.2366    4.9301   -3.3812 C   0  0  0  0  0  0  0  0  0  0  0  0
    8.4777    5.2230   -4.4675 C   0  0  0  0  0  0  0  0  0  0  0  0
    7.5421    6.3164   -4.4768 C   0  0  0  0  0  0  0  0  0  0  0  0
    6.7878    7.1934   -4.5077 N   0  0  0  0  0  0  0  0  0  0  0  0
    8.6348    4.5503   -5.7302 C   0  0  0  0  0  0  0  0  0  0  0  0
    8.7380    4.0154   -6.7515 N   0  0  0  0  0  0  0  0  0  0  0  0
    6.7211    5.8654   -1.6446 C   0  0  0  0  0  0  0  0  0  0  0  0
    6.2459    4.6122   -2.1026 C   0  0  0  0  0  0  0  0  0  0  0  0
    4.8677    4.4373   -2.2447 C   0  0  0  0  0  0  0  0  0  0  0  0
    4.1005    3.2367   -2.5667 C   0  0  0  0  0  0  0  0  0  0  0  0
    4.5669    2.1093   -2.8791 O   0  0  0  0  0  0  0  0  0  0  0  0
    2.6899    3.5855   -2.3962 C   0  0  0  0  0  0  0  0  0  0  0  0
    2.6148    4.9121   -2.0116 C   0  0  0  0  0  0  0  0  0  0  0  0
    3.9739    5.4426   -1.9184 C   0  0  0  0  0  0  0  0  0  0  0  0
    4.4123    6.6797   -1.4543 C   0  0  0  0  0  0  0  0  0  0  0  0
    5.7958    6.8838   -1.3093 C   0  0  0  0  0  0  0  0  0  0  0  0
    1.4029    5.4974   -1.6506 C   0  0  0  0  0  0  0  0  0  0  0  0
    0.2497    4.6947   -1.6641 C   0  0  0  0  0  0  0  0  0  0  0  0
    0.3179    3.3263   -2.0296 C   0  0  0  0  0  0  0  0  0  0  0  0
    1.5584    2.7726   -2.4203 C   0  0  0  0  0  0  0  0  0  0  0  0
   -0.8796    2.4609   -1.8615 C   0  0  0  0  0  0  0  0  0  0  0  0
   -2.1192    2.8460   -2.4101 C   0  0  0  0  0  0  0  0  0  0  0  0
   -2.2074    3.9553   -3.1862 F   0  0  0  0  0  0  0  0  0  0  0  0
   -3.2763    2.0897   -2.1692 C   0  0  0  0  0  0  0  0  0  0  0  0
   -4.4616    2.4995   -2.6886 F   0  0  0  0  0  0  0  0  0  0  0  0
   -3.2173    0.9439   -1.3623 C   0  0  0  0  0  0  0  0  0  0  0  0
   -1.9795    0.5343   -0.8374 C   0  0  0  0  0  0  0  0  0  0  0  0
   -1.8899   -0.5911   -0.0792 N   0  0  0  0  0  0  0  0  0  0  0  0
   -0.7232   -1.0112    0.4695 C   0  0  0  0  0  0  0  0  0  0  0  0
   -0.7454   -2.2839    1.2742 C   0  0  0  0  0  0  0  0  0  0  0  0
   -0.5007   -3.4917    0.3776 C   0  0  0  0  0  0  0  0  0  0  0  0
    0.4480   -0.2609    0.2235 C   0  0  0  0  0  0  0  0  0  0  0  0
    0.3521    0.8684   -0.5296 N   0  0  0  0  0  0  0  0  0  0  0  0
   -0.8163    1.2847   -1.0820 C   0  0  0  0  0  0  0  0  0  0  0  0
    1.7915   -0.6083    0.8115 C   0  0  0  0  0  0  0  0  0  0  0  0
    2.0084    0.1377    2.1244 C   0  0  0  0  0  0  0  0  0  0  0  0
   -4.4332    0.1615   -1.0487 C   0  0  0  0  0  0  0  0  0  0  0  0
   -4.7877   -0.0414    0.3012 C   0  0  0  0  0  0  0  0  0  0  0  0
   -5.7388   -1.0104    0.6000 C   0  0  0  0  0  0  0  0  0  0  0  0
   -6.0617   -1.5988    1.8913 C   0  0  0  0  0  0  0  0  0  0  0  0
   -5.6594   -1.2086    3.0195 O   0  0  0  0  0  0  0  0  0  0  0  0
   -6.8637   -2.7808    1.6159 C   0  0  0  0  0  0  0  0  0  0  0  0
   -7.0490   -2.8810    0.2470 C   0  0  0  0  0  0  0  0  0  0  0  0
   -6.3358   -1.7714   -0.3924 C   0  0  0  0  0  0  0  0  0  0  0  0
   -6.0471   -1.5506   -1.7392 C   0  0  0  0  0  0  0  0  0  0  0  0
   -5.0963   -0.5649   -2.0669 C   0  0  0  0  0  0  0  0  0  0  0  0
   -7.6585   -4.0032   -0.3175 C   0  0  0  0  0  0  0  0  0  0  0  0
   -8.0731   -5.0394    0.5400 C   0  0  0  0  0  0  0  0  0  0  0  0
   -7.8392   -4.9537    1.9353 C   0  0  0  0  0  0  0  0  0  0  0  0
   -7.2455   -3.8022    2.4807 C   0  0  0  0  0  0  0  0  0  0  0  0
   -8.1206   -6.0876    2.8289 C   0  0  0  0  0  0  0  0  0  0  0  0
   -7.2307   -7.0807    3.0299 C   0  0  0  0  0  0  0  0  0  0  0  0
   -6.0595   -7.3653    2.1870 C   0  0  0  0  0  0  0  0  0  0  0  0
   -5.6385   -6.6672    1.2229 O   0  0  0  0  0  0  0  0  0  0  0  0
   -5.5055   -8.6399    2.5898 C   0  0  0  0  0  0  0  0  0  0  0  0
   -4.4485   -9.3407    2.0100 C   0  0  0  0  0  0  0  0  0  0  0  0
   -4.1147  -10.5974    2.5327 C   0  0  0  0  0  0  0  0  0  0  0  0
   -4.8574  -11.1410    3.5990 C   0  0  0  0  0  0  0  0  0  0  0  0
   -4.4559  -12.7317    4.2259 Cl  0  0  0  0  0  0  0  0  0  0  0  0
   -5.9278  -10.4207    4.1598 C   0  0  0  0  0  0  0  0  0  0  0  0
   -6.2263   -9.1401    3.6590 C   0  0  0  0  0  0  0  0  0  0  0  0
   -7.2743   -8.1598    4.0664 C   0  0  0  0  0  0  0  0  0  0  0  0
   -7.8867   -8.0984    5.2798 C   0  0  0  0  0  0  0  0  0  0  0  0
   -8.6767   -6.9686    5.6865 C   0  0  0  0  0  0  0  0  0  0  0  0
   -9.3063   -6.0593    6.0231 N   0  0  0  0  0  0  0  0  0  0  0  0
   -7.5920   -9.0383    6.3376 C   0  0  0  0  0  0  0  0  0  0  0  0
   -7.3392   -9.7769    7.1968 N   0  0  0  0  0  0  0  0  0  0  0  0
    8.3599    6.6023   -0.4162 H   0  0  0  0  0  0  0  0  0  0  0  0
   13.1177    4.3509   -1.1668 H   0  0  0  0  0  0  0  0  0  0  0  0
   10.4978    2.9306   -5.1580 H   0  0  0  0  0  0  0  0  0  0  0  0
    6.9215    3.7873   -2.2923 H   0  0  0  0  0  0  0  0  0  0  0  0
    3.7112    7.4551   -1.1761 H   0  0  0  0  0  0  0  0  0  0  0  0
    6.1465    7.8357   -0.9279 H   0  0  0  0  0  0  0  0  0  0  0  0
    1.3554    6.5293   -1.3314 H   0  0  0  0  0  0  0  0  0  0  0  0
   -0.6863    5.1256   -1.3368 H   0  0  0  0  0  0  0  0  0  0  0  0
    1.6515    1.7288   -2.6857 H   0  0  0  0  0  0  0  0  0  0  0  0
   -0.0034   -2.2579    2.0983 H   0  0  0  0  0  0  0  0  0  0  0  0
   -1.7443   -2.3954    1.7552 H   0  0  0  0  0  0  0  0  0  0  0  0
   -0.5319   -4.4237    0.9866 H   0  0  0  0  0  0  0  0  0  0  0  0
   -1.2902   -3.5511   -0.4081 H   0  0  0  0  0  0  0  0  0  0  0  0
    0.4975   -3.4148   -0.1141 H   0  0  0  0  0  0  0  0  0  0  0  0
    2.5907   -0.3198    0.0935 H   0  0  0  0  0  0  0  0  0  0  0  0
    1.8940   -1.6998    0.9777 H   0  0  0  0  0  0  0  0  0  0  0  0
    2.0741    1.2347    1.9280 H   0  0  0  0  0  0  0  0  0  0  0  0
    1.1619   -0.0455    2.8254 H   0  0  0  0  0  0  0  0  0  0  0  0
    2.9585   -0.2013    2.6021 H   0  0  0  0  0  0  0  0  0  0  0  0
   -4.2566    0.4664    1.0975 H   0  0  0  0  0  0  0  0  0  0  0  0
   -6.4904   -2.1637   -2.5138 H   0  0  0  0  0  0  0  0  0  0  0  0
   -4.8044   -0.4339   -3.1044 H   0  0  0  0  0  0  0  0  0  0  0  0
   -7.7686   -4.0956   -1.3915 H   0  0  0  0  0  0  0  0  0  0  0  0
   -8.5194   -5.9318    0.1212 H   0  0  0  0  0  0  0  0  0  0  0  0
   -7.0281   -3.7324    3.5404 H   0  0  0  0  0  0  0  0  0  0  0  0
   -9.0438   -6.0397    3.3818 H   0  0  0  0  0  0  0  0  0  0  0  0
   -3.8949   -8.9251    1.1762 H   0  0  0  0  0  0  0  0  0  0  0  0
   -3.2970  -11.1582    2.0970 H   0  0  0  0  0  0  0  0  0  0  0  0
   -6.5137  -10.8796    4.9390 H   0  0  0  0  0  0  0  0  0  0  0  0
  1  2  2  3
  2  3  1  0
  3  4  2  0
  3  5  1  0
  5  6  2  0
  6  7  1  0
  7  8  1  0
  7  9  2  0
  9 10  1  0
  9 11  1  0
 11 12  2  0
 12 13  1  0
 13 14  2  3
 14 15  1  0
 15 16  3  0
 14 17  1  0
 17 18  3  0
  1 19  1  0
 19 20  2  0
 20 21  1  0
 21 22  1  0
 22 23  2  0
 22 24  1  0
 24 25  2  0
 25 26  1  0
 26 27  1  0
 27 28  2  0
 25 29  1  0
 29 30  2  0
 30 31  1  0
 31 32  2  0
 31 33  1  0
 33 34  2  0
 34 35  1  0
 34 36  1  0
 36 37  1  0
 36 38  2  0
 38 39  1  0
 39 40  2  0
 40 41  1  0
 41 42  1  0
 42 43  1  0
 41 44  2  0
 44 45  1  0
 45 46  2  0
 44 47  1  0
 47 48  1  0
 38 49  1  0
 49 50  2  0
 50 51  1  0
 51 52  1  0
 52 53  2  0
 52 54  1  0
 54 55  2  0
 55 56  1  0
 56 57  1  0
 57 58  2  0
 55 59  1  0
 59 60  2  0
 60 61  1  0
 61 62  2  0
 61 63  1  0
 63 64  2  3
 64 65  1  0
 65 66  2  0
 65 67  1  0
 67 68  2  0
 68 69  1  0
 69 70  2  0
 70 71  1  0
 70 72  1  0
 72 73  2  0
 73 74  1  0
 74 75  2  3
 75 76  1  0
 76 77  3  0
 75 78  1  0
 78 79  3  0
 13  2  1  0
 28 19  1  0
 46 33  1  0
 58 49  1  0
 74 64  1  0
 12  5  1  0
 26 21  2  0
 46 39  1  0
 56 51  2  0
 73 67  1  0
 32 24  1  0
 62 54  1  0
  1 80  1  0
  6 81  1  0
 11 82  1  0
 20 83  1  0
 27 84  1  0
 28 85  1  0
 29 86  1  0
 30 87  1  0
 32 88  1  0
 42 89  1  0
 42 90  1  0
 43 91  1  0
 43 92  1  0
 43 93  1  0
 47 94  1  0
 47 95  1  0
 48 96  1  0
 48 97  1  0
 48 98  1  0
 50 99  1  0
 57100  1  0
 58101  1  0
 59102  1  0
 60103  1  0
 62104  1  0
 63105  1  0
 68106  1  0
 69107  1  0
 72108  1  0
M  END

