
     RDKit          3D

164177  0  0  0  0  0  0  0  0999 V2000
   -3.0288   -7.5084    1.7007 C   0  0  0  0  0  0  0  0  0  0  0  0
   -3.7848   -7.7616    2.7872 C   0  0  0  0  0  0  0  0  0  0  0  0
   -4.3284   -6.7426    3.6979 C   0  0  0  0  0  0  0  0  0  0  0  0
   -4.4696   -5.5159    3.4492 O   0  0  0  0  0  0  0  0  0  0  0  0
   -4.7298   -7.3930    4.9214 C   0  0  0  0  0  0  0  0  0  0  0  0
   -5.1840   -6.7958    6.0951 C   0  0  0  0  0  0  0  0  0  0  0  0
   -5.4455   -7.6093    7.2056 C   0  0  0  0  0  0  0  0  0  0  0  0
   -6.0277   -6.8616    8.6840 Cl  0  0  0  0  0  0  0  0  0  0  0  0
   -5.2272   -9.0039    7.1224 C   0  0  0  0  0  0  0  0  0  0  0  0
   -5.5472  -10.1512    8.6250 Br  0  0  0  0  0  0  0  0  0  0  0  0
   -4.7643   -9.5797    5.9229 C   0  0  0  0  0  0  0  0  0  0  0  0
   -4.5309   -8.7580    4.8076 C   0  0  0  0  0  0  0  0  0  0  0  0
   -4.0405   -9.0859    3.4334 C   0  0  0  0  0  0  0  0  0  0  0  0
   -4.0120  -10.3107    2.8452 C   0  0  0  0  0  0  0  0  0  0  0  0
   -3.7451  -10.4952    1.4454 C   0  0  0  0  0  0  0  0  0  0  0  0
   -3.5375  -10.6406    0.3147 N   0  0  0  0  0  0  0  0  0  0  0  0
   -4.3939  -11.5125    3.5380 C   0  0  0  0  0  0  0  0  0  0  0  0
   -4.7203  -12.4921    4.0659 N   0  0  0  0  0  0  0  0  0  0  0  0
   -2.6171   -6.1442    1.3178 C   0  0  0  0  0  0  0  0  0  0  0  0
   -1.7535   -5.4188    2.1499 C   0  0  0  0  0  0  0  0  0  0  0  0
   -1.2854   -5.9765    3.2959 F   0  0  0  0  0  0  0  0  0  0  0  0
   -1.3467   -4.1320    1.8036 C   0  0  0  0  0  0  0  0  0  0  0  0
   -0.4166   -3.5232    2.5858 F   0  0  0  0  0  0  0  0  0  0  0  0
   -1.8431   -3.5071    0.6405 C   0  0  0  0  0  0  0  0  0  0  0  0
   -2.6531   -4.2605   -0.2373 C   0  0  0  0  0  0  0  0  0  0  0  0
   -3.0717   -3.7446   -1.4255 N   0  0  0  0  0  0  0  0  0  0  0  0
   -3.8028   -4.4687   -2.3142 C   0  0  0  0  0  0  0  0  0  0  0  0
   -4.2206   -3.8122   -3.6052 C   0  0  0  0  0  0  0  0  0  0  0  0
   -5.6157   -3.2003   -3.4791 C   0  0  0  0  0  0  0  0  0  0  0  0
   -4.1606   -5.7985   -1.9832 C   0  0  0  0  0  0  0  0  0  0  0  0
   -3.7568   -6.3065   -0.7885 N   0  0  0  0  0  0  0  0  0  0  0  0
   -3.0230   -5.5816    0.0973 C   0  0  0  0  0  0  0  0  0  0  0  0
   -4.8999   -6.7167   -2.9261 C   0  0  0  0  0  0  0  0  0  0  0  0
   -3.9143   -7.4829   -3.8029 C   0  0  0  0  0  0  0  0  0  0  0  0
   -1.3732   -2.1422    0.3058 C   0  0  0  0  0  0  0  0  0  0  0  0
   -1.1025   -1.1402    1.2605 C   0  0  0  0  0  0  0  0  0  0  0  0
   -2.0827   -0.7788    2.2471 N   0  0  0  0  0  0  0  0  0  0  0  0
   -3.1736    0.0638    1.8427 C   0  0  0  0  0  0  0  0  0  0  0  0
   -4.0815   -0.3723    0.8604 C   0  0  0  0  0  0  0  0  0  0  0  0
   -5.0742    0.4875    0.3860 C   0  0  0  0  0  0  0  0  0  0  0  0
   -5.1780    1.7879    0.8930 C   0  0  0  0  0  0  0  0  0  0  0  0
   -6.4592    2.8867    0.2718 S   0  0  0  0  0  0  0  0  0  0  0  0
   -5.4235    3.5324   -1.0857 C   0  0  0  0  0  0  0  0  0  0  0  0
   -4.2892    2.2250    1.8847 C   0  0  0  0  0  0  0  0  0  0  0  0
   -3.2915    1.3624    2.3602 C   0  0  0  0  0  0  0  0  0  0  0  0
   -2.0988   -1.3754    3.5464 C   0  0  0  0  0  0  0  0  0  0  0  0
   -1.0717   -1.1039    4.4592 C   0  0  0  0  0  0  0  0  0  0  0  0
   -1.1179   -1.6576    5.7437 C   0  0  0  0  0  0  0  0  0  0  0  0
   -2.1847   -2.4852    6.1158 C   0  0  0  0  0  0  0  0  0  0  0  0
   -2.2805   -3.1317    7.7855 S   0  0  0  0  0  0  0  0  0  0  0  0
   -3.2398   -1.7079    8.3948 C   0  0  0  0  0  0  0  0  0  0  0  0
   -3.1914   -2.7835    5.1896 C   0  0  0  0  0  0  0  0  0  0  0  0
   -3.1579   -2.2197    3.9141 C   0  0  0  0  0  0  0  0  0  0  0  0
   -0.2725   -0.1697    0.7099 C   0  0  0  0  0  0  0  0  0  0  0  0
    0.7419    0.9915    1.3777 S   0  0  0  0  0  0  0  0  0  0  0  0
    1.5002    1.3546   -0.1121 C   0  0  0  0  0  0  0  0  0  0  0  0
    0.9035    0.6027   -1.1412 C   0  0  0  0  0  0  0  0  0  0  0  0
    0.7983    1.0904   -2.4934 N   0  0  0  0  0  0  0  0  0  0  0  0
    1.6624    0.5745   -3.5278 C   0  0  0  0  0  0  0  0  0  0  0  0
    1.9760   -0.7932   -3.5968 C   0  0  0  0  0  0  0  0  0  0  0  0
    2.7663   -1.2837   -4.6372 C   0  0  0  0  0  0  0  0  0  0  0  0
    3.2513   -0.4161   -5.6200 C   0  0  0  0  0  0  0  0  0  0  0  0
    4.2153   -1.0577   -6.9877 S   0  0  0  0  0  0  0  0  0  0  0  0
    2.7516   -1.3024   -8.0518 C   0  0  0  0  0  0  0  0  0  0  0  0
    2.9776    0.9539   -5.5345 C   0  0  0  0  0  0  0  0  0  0  0  0
    2.1884    1.4468   -4.4948 C   0  0  0  0  0  0  0  0  0  0  0  0
   -0.2558    2.0365   -2.8092 C   0  0  0  0  0  0  0  0  0  0  0  0
   -0.6292    3.0435   -1.8916 C   0  0  0  0  0  0  0  0  0  0  0  0
   -1.6374    3.9549   -2.2077 C   0  0  0  0  0  0  0  0  0  0  0  0
   -2.2845    3.8812   -3.4447 C   0  0  0  0  0  0  0  0  0  0  0  0
   -3.5239    5.1062   -3.8715 S   0  0  0  0  0  0  0  0  0  0  0  0
   -2.3123    6.2285   -4.6401 C   0  0  0  0  0  0  0  0  0  0  0  0
   -1.9434    2.8792   -4.3537 C   0  0  0  0  0  0  0  0  0  0  0  0
   -0.9432    1.9553   -4.0357 C   0  0  0  0  0  0  0  0  0  0  0  0
   -0.0195   -0.2917   -0.6155 C   0  0  0  0  0  0  0  0  0  0  0  0
   -0.7125   -1.6960   -1.2069 S   0  0  0  0  0  0  0  0  0  0  0  0
    2.7520    2.1368   -0.2604 C   0  0  0  0  0  0  0  0  0  0  0  0
    3.8109    1.5836   -1.0088 C   0  0  0  0  0  0  0  0  0  0  0  0
    3.7293    0.3210   -1.4898 F   0  0  0  0  0  0  0  0  0  0  0  0
    4.9966    2.2896   -1.1983 C   0  0  0  0  0  0  0  0  0  0  0  0
    5.9918    1.7277   -1.9339 F   0  0  0  0  0  0  0  0  0  0  0  0
    5.1736    3.5510   -0.6186 C   0  0  0  0  0  0  0  0  0  0  0  0
    4.1760    4.0664    0.2283 C   0  0  0  0  0  0  0  0  0  0  0  0
    4.3768    5.2207    0.9142 N   0  0  0  0  0  0  0  0  0  0  0  0
    3.4362    5.7398    1.7478 C   0  0  0  0  0  0  0  0  0  0  0  0
    3.7771    7.0042    2.4905 C   0  0  0  0  0  0  0  0  0  0  0  0
    3.4808    8.2342    1.6394 C   0  0  0  0  0  0  0  0  0  0  0  0
    2.1769    5.0940    1.8432 C   0  0  0  0  0  0  0  0  0  0  0  0
    1.9895    3.9217    1.1760 N   0  0  0  0  0  0  0  0  0  0  0  0
    2.9541    3.3739    0.3882 C   0  0  0  0  0  0  0  0  0  0  0  0
    1.0555    5.6044    2.7038 C   0  0  0  0  0  0  0  0  0  0  0  0
    1.1332    5.0115    4.1081 C   0  0  0  0  0  0  0  0  0  0  0  0
    6.4911    4.1840   -0.7517 C   0  0  0  0  0  0  0  0  0  0  0  0
    6.8326    5.3002   -1.4287 C   0  0  0  0  0  0  0  0  0  0  0  0
    8.2208    5.7747   -1.3821 C   0  0  0  0  0  0  0  0  0  0  0  0
    9.1913    5.1789   -0.8399 O   0  0  0  0  0  0  0  0  0  0  0  0
    8.3164    7.0389   -2.0611 C   0  0  0  0  0  0  0  0  0  0  0  0
    9.4658    7.7917   -2.2903 C   0  0  0  0  0  0  0  0  0  0  0  0
    9.3628    8.9541   -3.0658 C   0  0  0  0  0  0  0  0  0  0  0  0
   10.8125    9.9139   -3.3504 Cl  0  0  0  0  0  0  0  0  0  0  0  0
    8.1178    9.3248   -3.6191 C   0  0  0  0  0  0  0  0  0  0  0  0
    7.9493   10.8734   -4.7360 Br  0  0  0  0  0  0  0  0  0  0  0  0
    6.9759    8.5379   -3.3816 C   0  0  0  0  0  0  0  0  0  0  0  0
    7.0769    7.3952   -2.5603 C   0  0  0  0  0  0  0  0  0  0  0  0
    6.0608    6.3412   -2.2109 C   0  0  0  0  0  0  0  0  0  0  0  0
    4.7584    6.3541   -2.6068 C   0  0  0  0  0  0  0  0  0  0  0  0
    4.0995    7.5648   -3.0228 C   0  0  0  0  0  0  0  0  0  0  0  0
    3.5521    8.5333   -3.3481 N   0  0  0  0  0  0  0  0  0  0  0  0
    3.9137    5.1997   -2.6656 C   0  0  0  0  0  0  0  0  0  0  0  0
    3.1928    4.2984   -2.7205 N   0  0  0  0  0  0  0  0  0  0  0  0
   -2.5939   -8.3067    1.1276 H   0  0  0  0  0  0  0  0  0  0  0  0
   -5.3199   -5.7223    6.1535 H   0  0  0  0  0  0  0  0  0  0  0  0
   -4.5749  -10.6405    5.8988 H   0  0  0  0  0  0  0  0  0  0  0  0
   -4.2034   -4.5419   -4.4445 H   0  0  0  0  0  0  0  0  0  0  0  0
   -3.4960   -3.0128   -3.8704 H   0  0  0  0  0  0  0  0  0  0  0  0
   -6.0107   -2.9605   -4.4872 H   0  0  0  0  0  0  0  0  0  0  0  0
   -5.5672   -2.2678   -2.8808 H   0  0  0  0  0  0  0  0  0  0  0  0
   -6.3189   -3.9065   -2.9882 H   0  0  0  0  0  0  0  0  0  0  0  0
   -5.6178   -6.1567   -3.5580 H   0  0  0  0  0  0  0  0  0  0  0  0
   -5.4927   -7.4462   -2.3343 H   0  0  0  0  0  0  0  0  0  0  0  0
   -3.2663   -6.7785   -4.3711 H   0  0  0  0  0  0  0  0  0  0  0  0
   -3.2715   -8.1412   -3.1794 H   0  0  0  0  0  0  0  0  0  0  0  0
   -4.4731   -8.1096   -4.5298 H   0  0  0  0  0  0  0  0  0  0  0  0
   -4.0150   -1.3726    0.4566 H   0  0  0  0  0  0  0  0  0  0  0  0
   -5.7575    0.1415   -0.3799 H   0  0  0  0  0  0  0  0  0  0  0  0
   -4.9375    2.6987   -1.6475 H   0  0  0  0  0  0  0  0  0  0  0  0
   -4.6422    4.2192   -0.6704 H   0  0  0  0  0  0  0  0  0  0  0  0
   -6.0723    4.1092   -1.7874 H   0  0  0  0  0  0  0  0  0  0  0  0
   -4.3667    3.2288    2.2824 H   0  0  0  0  0  0  0  0  0  0  0  0
   -2.5931    1.7143    3.1083 H   0  0  0  0  0  0  0  0  0  0  0  0
   -0.2500   -0.4528    4.1824 H   0  0  0  0  0  0  0  0  0  0  0  0
   -0.3401   -1.4168    6.4561 H   0  0  0  0  0  0  0  0  0  0  0  0
   -3.4352   -1.8354    9.4787 H   0  0  0  0  0  0  0  0  0  0  0  0
   -4.2087   -1.6437    7.8588 H   0  0  0  0  0  0  0  0  0  0  0  0
   -2.6669   -0.7707    8.2425 H   0  0  0  0  0  0  0  0  0  0  0  0
   -4.0136   -3.4241    5.4718 H   0  0  0  0  0  0  0  0  0  0  0  0
   -3.9493   -2.4517    3.2091 H   0  0  0  0  0  0  0  0  0  0  0  0
    1.6018   -1.4787   -2.8523 H   0  0  0  0  0  0  0  0  0  0  0  0
    2.9839   -2.3413   -4.6854 H   0  0  0  0  0  0  0  0  0  0  0  0
    3.0776   -1.6878   -9.0388 H   0  0  0  0  0  0  0  0  0  0  0  0
    2.2221   -0.3388   -8.2002 H   0  0  0  0  0  0  0  0  0  0  0  0
    2.0648   -2.0405   -7.5845 H   0  0  0  0  0  0  0  0  0  0  0  0
    3.3636    1.6353   -6.2880 H   0  0  0  0  0  0  0  0  0  0  0  0
    1.9807    2.5121   -4.4509 H   0  0  0  0  0  0  0  0  0  0  0  0
   -0.1369    3.1546   -0.9405 H   0  0  0  0  0  0  0  0  0  0  0  0
   -1.9069    4.7276   -1.4974 H   0  0  0  0  0  0  0  0  0  0  0  0
   -2.8185    7.1786   -4.9045 H   0  0  0  0  0  0  0  0  0  0  0  0
   -1.9062    5.7652   -5.5644 H   0  0  0  0  0  0  0  0  0  0  0  0
   -1.4845    6.4479   -3.9348 H   0  0  0  0  0  0  0  0  0  0  0  0
   -2.4496    2.8170   -5.3101 H   0  0  0  0  0  0  0  0  0  0  0  0
   -0.7062    1.1775   -4.7480 H   0  0  0  0  0  0  0  0  0  0  0  0
    3.2301    7.0647    3.4591 H   0  0  0  0  0  0  0  0  0  0  0  0
    4.8609    6.9971    2.7461 H   0  0  0  0  0  0  0  0  0  0  0  0
    4.1545    8.2517    0.7586 H   0  0  0  0  0  0  0  0  0  0  0  0
    2.4237    8.2415    1.3050 H   0  0  0  0  0  0  0  0  0  0  0  0
    3.6659    9.1466    2.2467 H   0  0  0  0  0  0  0  0  0  0  0  0
    1.0628    6.7114    2.7610 H   0  0  0  0  0  0  0  0  0  0  0  0
    0.0818    5.3171    2.2505 H   0  0  0  0  0  0  0  0  0  0  0  0
    0.3604    5.4783    4.7579 H   0  0  0  0  0  0  0  0  0  0  0  0
    2.1350    5.2022    4.5576 H   0  0  0  0  0  0  0  0  0  0  0  0
    0.9585    3.9134    4.0729 H   0  0  0  0  0  0  0  0  0  0  0  0
    7.2915    3.6158   -0.2933 H   0  0  0  0  0  0  0  0  0  0  0  0
   10.4190    7.4749   -1.8920 H   0  0  0  0  0  0  0  0  0  0  0  0
    6.0662    8.8186   -3.8741 H   0  0  0  0  0  0  0  0  0  0  0  0
  1  2  2  3
  2  3  1  0
  3  4  2  0
  3  5  1  0
  5  6  2  0
  6  7  1  0
  7  8  1  0
  7  9  2  0
  9 10  1  0
  9 11  1  0
 11 12  2  0
 12 13  1  0
 13 14  2  3
 14 15  1  0
 15 16  3  0
 14 17  1  0
 17 18  3  0
  1 19  1  0
 19 20  2  0
 20 21  1  0
 20 22  1  0
 22 23  1  0
 22 24  2  0
 24 25  1  0
 25 26  2  0
 26 27  1  0
 27 28  1  0
 28 29  1  0
 27 30  2  0
 30 31  1  0
 31 32  2  0
 30 33  1  0
 33 34  1  0
 24 35  1  0
 35 36  2  0
 36 37  1  0
 37 38  1  0
 38 39  2  0
 39 40  1  0
 40 41  2  0
 41 42  1  0
 42 43  1  0
 41 44  1  0
 44 45  2  0
 37 46  1  0
 46 47  2  0
 47 48  1  0
 48 49  2  0
 49 50  1  0
 50 51  1  0
 49 52  1  0
 52 53  2  0
 36 54  1  0
 54 55  1  0
 55 56  1  0
 56 57  2  0
 57 58  1  0
 58 59  1  0
 59 60  2  0
 60 61  1  0
 61 62  2  0
 62 63  1  0
 63 64  1  0
 62 65  1  0
 65 66  2  0
 58 67  1  0
 67 68  2  0
 68 69  1  0
 69 70  2  0
 70 71  1  0
 71 72  1  0
 70 73  1  0
 73 74  2  0
 57 75  1  0
 75 76  1  0
 56 77  1  0
 77 78  2  0
 78 79  1  0
 78 80  1  0
 80 81  1  0
 80 82  2  0
 82 83  1  0
 83 84  2  0
 84 85  1  0
 85 86  1  0
 86 87  1  0
 85 88  2  0
 88 89  1  0
 89 90  2  0
 88 91  1  0
 91 92  1  0
 82 93  1  0
 93 94  2  3
 94 95  1  0
 95 96  2  0
 95 97  1  0
 97 98  2  0
 98 99  1  0
 99100  1  0
 99101  2  0
101102  1  0
101103  1  0
103104  2  0
104105  1  0
105106  2  3
106107  1  0
107108  3  0
106109  1  0
109110  3  0
 13  2  1  0
 32 19  1  0
 76 35  1  0
 90 77  1  0
105 94  1  0
 12  5  1  0
 32 25  1  0
 45 38  1  0
 53 46  1  0
 75 54  2  0
 90 83  1  0
104 97  1  0
 66 59  1  0
 74 67  1  0
  1111  1  0
  6112  1  0
 11113  1  0
 28114  1  0
 28115  1  0
 29116  1  0
 29117  1  0
 29118  1  0
 33119  1  0
 33120  1  0
 34121  1  0
 34122  1  0
 34123  1  0
 39124  1  0
 40125  1  0
 43126  1  0
 43127  1  0
 43128  1  0
 44129  1  0
 45130  1  0
 47131  1  0
 48132  1  0
 51133  1  0
 51134  1  0
 51135  1  0
 52136  1  0
 53137  1  0
 60138  1  0
 61139  1  0
 64140  1  0
 64141  1  0
 64142  1  0
 65143  1  0
 66144  1  0
 68145  1  0
 69146  1  0
 72147  1  0
 72148  1  0
 72149  1  0
 73150  1  0
 74151  1  0
 86152  1  0
 86153  1  0
 87154  1  0
 87155  1  0
 87156  1  0
 91157  1  0
 91158  1  0
 92159  1  0
 92160  1  0
 92161  1  0
 93162  1  0
 98163  1  0
103164  1  0
M  END

