
     RDKit          3D

257281  0  0  0  0  0  0  0  0999 V2000
    1.4491    7.9901   -1.7521 C   0  0  0  0  0  0  0  0  0  0  0  0
    2.6701    8.5481   -1.8372 C   0  0  0  0  0  0  0  0  0  0  0  0
    3.7304    8.0869   -2.7374 C   0  0  0  0  0  0  0  0  0  0  0  0
    3.6802    7.0941   -3.5103 O   0  0  0  0  0  0  0  0  0  0  0  0
    4.8203    9.0305   -2.6758 C   0  0  0  0  0  0  0  0  0  0  0  0
    6.0110    8.9948   -3.3951 C   0  0  0  0  0  0  0  0  0  0  0  0
    6.9211   10.0457   -3.2445 C   0  0  0  0  0  0  0  0  0  0  0  0
    8.4156   10.0007   -4.1636 Cl  0  0  0  0  0  0  0  0  0  0  0  0
    6.6218   11.1146   -2.3704 C   0  0  0  0  0  0  0  0  0  0  0  0
    7.8376   12.5732   -2.1417 Br  0  0  0  0  0  0  0  0  0  0  0  0
    5.4116   11.1292   -1.6540 C   0  0  0  0  0  0  0  0  0  0  0  0
    4.5045   10.0651   -1.8121 C   0  0  0  0  0  0  0  0  0  0  0  0
    3.1599    9.8153   -1.2013 C   0  0  0  0  0  0  0  0  0  0  0  0
    2.5966   10.4930   -0.1626 C   0  0  0  0  0  0  0  0  0  0  0  0
    1.4106   10.0374    0.5194 C   0  0  0  0  0  0  0  0  0  0  0  0
    0.4718    9.6862    1.0957 N   0  0  0  0  0  0  0  0  0  0  0  0
    3.1915   11.6556    0.4280 C   0  0  0  0  0  0  0  0  0  0  0  0
    3.6491   12.5866    0.9506 N   0  0  0  0  0  0  0  0  0  0  0  0
    1.1616    6.6351   -2.2268 C   0  0  0  0  0  0  0  0  0  0  0  0
    1.2906    5.4844   -1.4329 C   0  0  0  0  0  0  0  0  0  0  0  0
    2.2417    5.3561   -0.3677 N   0  0  0  0  0  0  0  0  0  0  0  0
    3.6445    5.4350   -0.6698 C   0  0  0  0  0  0  0  0  0  0  0  0
    4.4799    6.2684    0.0894 C   0  0  0  0  0  0  0  0  0  0  0  0
    5.8295    6.4012   -0.2457 C   0  0  0  0  0  0  0  0  0  0  0  0
    6.3666    5.6840   -1.3266 C   0  0  0  0  0  0  0  0  0  0  0  0
    7.8047    5.8762   -1.7126 C   0  0  0  0  0  0  0  0  0  0  0  0
    5.5371    4.8293   -2.0678 C   0  0  0  0  0  0  0  0  0  0  0  0
    4.1865    4.7034   -1.7402 C   0  0  0  0  0  0  0  0  0  0  0  0
    1.8284    4.8789    0.9212 C   0  0  0  0  0  0  0  0  0  0  0  0
    2.2553    3.6196    1.3749 C   0  0  0  0  0  0  0  0  0  0  0  0
    1.9473    3.1968    2.6711 C   0  0  0  0  0  0  0  0  0  0  0  0
    1.2189    4.0341    3.5312 C   0  0  0  0  0  0  0  0  0  0  0  0
    0.9910    3.6235    4.9556 C   0  0  0  0  0  0  0  0  0  0  0  0
    0.7915    5.2929    3.0761 C   0  0  0  0  0  0  0  0  0  0  0  0
    1.0826    5.7050    1.7694 C   0  0  0  0  0  0  0  0  0  0  0  0
    0.6351    4.4067   -2.0160 C   0  0  0  0  0  0  0  0  0  0  0  0
    0.4006    2.8084   -1.5875 S   0  0  0  0  0  0  0  0  0  0  0  0
   -0.4913    2.4313   -2.9887 C   0  0  0  0  0  0  0  0  0  0  0  0
   -0.5455    3.5576   -3.8299 C   0  0  0  0  0  0  0  0  0  0  0  0
   -0.7161    3.4759   -5.2511 N   0  0  0  0  0  0  0  0  0  0  0  0
   -1.7741    4.2554   -5.8323 C   0  0  0  0  0  0  0  0  0  0  0  0
   -3.1123    3.9081   -5.5977 C   0  0  0  0  0  0  0  0  0  0  0  0
   -4.1435    4.6478   -6.1860 C   0  0  0  0  0  0  0  0  0  0  0  0
   -3.8450    5.7488   -7.0081 C   0  0  0  0  0  0  0  0  0  0  0  0
   -4.9399    6.5613   -7.6280 C   0  0  0  0  0  0  0  0  0  0  0  0
   -2.5079    6.1104   -7.2196 C   0  0  0  0  0  0  0  0  0  0  0  0
   -1.4787    5.3720   -6.6310 C   0  0  0  0  0  0  0  0  0  0  0  0
    0.2979    2.8315   -6.0773 C   0  0  0  0  0  0  0  0  0  0  0  0
    1.4596    2.2596   -5.5036 C   0  0  0  0  0  0  0  0  0  0  0  0
    2.3636    1.5369   -6.2816 C   0  0  0  0  0  0  0  0  0  0  0  0
    2.1719    1.4129   -7.6640 C   0  0  0  0  0  0  0  0  0  0  0  0
    3.0655    0.5215   -8.4689 C   0  0  0  0  0  0  0  0  0  0  0  0
    1.0632    2.0279   -8.2574 C   0  0  0  0  0  0  0  0  0  0  0  0
    0.1359    2.7213   -7.4756 C   0  0  0  0  0  0  0  0  0  0  0  0
    0.0589    4.6561   -3.2191 C   0  0  0  0  0  0  0  0  0  0  0  0
    0.2641    6.2700   -3.6349 S   0  0  0  0  0  0  0  0  0  0  0  0
   -1.4037    1.2861   -3.0313 C   0  0  0  0  0  0  0  0  0  0  0  0
   -0.9255   -0.0332   -3.1357 C   0  0  0  0  0  0  0  0  0  0  0  0
   -0.4236   -0.5625   -4.3792 N   0  0  0  0  0  0  0  0  0  0  0  0
    0.5103   -1.6558   -4.3236 C   0  0  0  0  0  0  0  0  0  0  0  0
    0.1531   -2.9145   -4.8425 C   0  0  0  0  0  0  0  0  0  0  0  0
    1.0284   -3.9972   -4.7444 C   0  0  0  0  0  0  0  0  0  0  0  0
    2.2830   -3.8295   -4.1468 C   0  0  0  0  0  0  0  0  0  0  0  0
    3.4037   -5.2254   -4.0355 S   0  0  0  0  0  0  0  0  0  0  0  0
    3.9846   -5.0576   -5.7536 C   0  0  0  0  0  0  0  0  0  0  0  0
    2.6481   -2.5795   -3.6281 C   0  0  0  0  0  0  0  0  0  0  0  0
    1.7629   -1.4961   -3.7122 C   0  0  0  0  0  0  0  0  0  0  0  0
   -1.1890   -0.3494   -5.5972 C   0  0  0  0  0  0  0  0  0  0  0  0
   -2.5713   -0.0615   -5.5547 C   0  0  0  0  0  0  0  0  0  0  0  0
   -3.2917    0.1691   -6.7252 C   0  0  0  0  0  0  0  0  0  0  0  0
   -2.6511    0.1063   -7.9645 C   0  0  0  0  0  0  0  0  0  0  0  0
   -3.5728    0.4475   -9.4639 S   0  0  0  0  0  0  0  0  0  0  0  0
   -3.7559    2.2303   -9.1210 C   0  0  0  0  0  0  0  0  0  0  0  0
   -1.2980   -0.2379   -8.0314 C   0  0  0  0  0  0  0  0  0  0  0  0
   -0.5761   -0.4808   -6.8559 C   0  0  0  0  0  0  0  0  0  0  0  0
   -1.6217   -0.8669   -2.2640 C   0  0  0  0  0  0  0  0  0  0  0  0
   -1.3989   -2.4250   -1.7402 S   0  0  0  0  0  0  0  0  0  0  0  0
   -2.7032   -2.4080   -0.6318 C   0  0  0  0  0  0  0  0  0  0  0  0
   -3.4370   -1.2160   -0.8302 C   0  0  0  0  0  0  0  0  0  0  0  0
   -4.8879   -1.1350   -0.7903 N   0  0  0  0  0  0  0  0  0  0  0  0
   -5.5261   -0.4449   -1.8811 C   0  0  0  0  0  0  0  0  0  0  0  0
   -6.2589    0.7334   -1.6679 C   0  0  0  0  0  0  0  0  0  0  0  0
   -6.8865    1.3732   -2.7469 C   0  0  0  0  0  0  0  0  0  0  0  0
   -6.7659    0.8518   -4.0443 C   0  0  0  0  0  0  0  0  0  0  0  0
   -7.4952    1.7116   -5.4321 S   0  0  0  0  0  0  0  0  0  0  0  0
   -8.9582    0.6292   -5.4782 C   0  0  0  0  0  0  0  0  0  0  0  0
   -6.0378   -0.3250   -4.2568 C   0  0  0  0  0  0  0  0  0  0  0  0
   -5.4257   -0.9711   -3.1805 C   0  0  0  0  0  0  0  0  0  0  0  0
   -5.7295   -2.1496   -0.2066 C   0  0  0  0  0  0  0  0  0  0  0  0
   -6.8682   -1.7614    0.5246 C   0  0  0  0  0  0  0  0  0  0  0  0
   -7.8869   -2.6762    0.8037 C   0  0  0  0  0  0  0  0  0  0  0  0
   -7.7778   -3.9975    0.3618 C   0  0  0  0  0  0  0  0  0  0  0  0
   -9.1679   -5.1194    0.5212 S   0  0  0  0  0  0  0  0  0  0  0  0
   -8.7410   -5.6687    2.1998 C   0  0  0  0  0  0  0  0  0  0  0  0
   -6.6302   -4.4117   -0.3214 C   0  0  0  0  0  0  0  0  0  0  0  0
   -5.6209   -3.4934   -0.6203 C   0  0  0  0  0  0  0  0  0  0  0  0
   -2.6835   -0.3368   -1.6308 C   0  0  0  0  0  0  0  0  0  0  0  0
   -2.7680    1.2915   -2.0052 S   0  0  0  0  0  0  0  0  0  0  0  0
   -2.5850   -3.1901    0.6228 C   0  0  0  0  0  0  0  0  0  0  0  0
   -3.0543   -2.8948    1.9321 C   0  0  0  0  0  0  0  0  0  0  0  0
   -3.8484   -1.7516    2.3192 N   0  0  0  0  0  0  0  0  0  0  0  0
   -4.8936   -1.9837    3.2979 C   0  0  0  0  0  0  0  0  0  0  0  0
   -5.0721   -1.1181    4.3934 C   0  0  0  0  0  0  0  0  0  0  0  0
   -6.0078   -1.4070    5.3887 C   0  0  0  0  0  0  0  0  0  0  0  0
   -6.7636   -2.5840    5.3262 C   0  0  0  0  0  0  0  0  0  0  0  0
   -7.7804   -2.9091    6.3817 C   0  0  0  0  0  0  0  0  0  0  0  0
   -6.5731   -3.4640    4.2572 C   0  0  0  0  0  0  0  0  0  0  0  0
   -5.6495   -3.1695    3.2546 C   0  0  0  0  0  0  0  0  0  0  0  0
   -3.3772   -0.4094    2.0434 C   0  0  0  0  0  0  0  0  0  0  0  0
   -4.3015    0.6373    1.8674 C   0  0  0  0  0  0  0  0  0  0  0  0
   -3.8650    1.9306    1.5753 C   0  0  0  0  0  0  0  0  0  0  0  0
   -2.4992    2.1986    1.4245 C   0  0  0  0  0  0  0  0  0  0  0  0
   -2.0384    3.6006    1.1664 C   0  0  0  0  0  0  0  0  0  0  0  0
   -1.5677    1.1664    1.6199 C   0  0  0  0  0  0  0  0  0  0  0  0
   -2.0029   -0.1283    1.9195 C   0  0  0  0  0  0  0  0  0  0  0  0
   -2.3890   -3.6652    2.9022 C   0  0  0  0  0  0  0  0  0  0  0  0
   -2.1743   -3.3906    4.5330 S   0  0  0  0  0  0  0  0  0  0  0  0
   -0.7276   -4.2669    4.6769 C   0  0  0  0  0  0  0  0  0  0  0  0
   -0.3617   -4.7281    3.3800 C   0  0  0  0  0  0  0  0  0  0  0  0
    0.9901   -5.0041    2.9331 N   0  0  0  0  0  0  0  0  0  0  0  0
    2.0826   -4.1245    3.3065 C   0  0  0  0  0  0  0  0  0  0  0  0
    1.8631   -2.7520    3.5405 C   0  0  0  0  0  0  0  0  0  0  0  0
    2.9105   -1.9284    3.9617 C   0  0  0  0  0  0  0  0  0  0  0  0
    4.1976   -2.4557    4.1336 C   0  0  0  0  0  0  0  0  0  0  0  0
    5.3272   -1.5689    4.5627 C   0  0  0  0  0  0  0  0  0  0  0  0
    4.4363   -3.8030    3.8346 C   0  0  0  0  0  0  0  0  0  0  0  0
    3.3881   -4.6317    3.4308 C   0  0  0  0  0  0  0  0  0  0  0  0
    1.1817   -5.9818    1.8758 C   0  0  0  0  0  0  0  0  0  0  0  0
    2.0299   -5.7091    0.7822 C   0  0  0  0  0  0  0  0  0  0  0  0
    2.1422   -6.6155   -0.2743 C   0  0  0  0  0  0  0  0  0  0  0  0
    1.3857   -7.7928   -0.2782 C   0  0  0  0  0  0  0  0  0  0  0  0
    1.5185   -8.7641   -1.4113 C   0  0  0  0  0  0  0  0  0  0  0  0
    0.5452   -8.0751    0.8064 C   0  0  0  0  0  0  0  0  0  0  0  0
    0.4408   -7.1772    1.8725 C   0  0  0  0  0  0  0  0  0  0  0  0
   -1.3735   -4.4423    2.4523 C   0  0  0  0  0  0  0  0  0  0  0  0
   -1.3224   -4.3201    0.7905 S   0  0  0  0  0  0  0  0  0  0  0  0
    0.1325   -4.0303    5.8469 C   0  0  0  0  0  0  0  0  0  0  0  0
    1.0874   -4.8447    6.3246 C   0  0  0  0  0  0  0  0  0  0  0  0
    1.4591   -6.1493    5.7667 C   0  0  0  0  0  0  0  0  0  0  0  0
    0.6925   -6.9501    5.1731 O   0  0  0  0  0  0  0  0  0  0  0  0
    2.8626   -6.3873    6.0453 C   0  0  0  0  0  0  0  0  0  0  0  0
    3.6799   -7.4387    5.5656 C   0  0  0  0  0  0  0  0  0  0  0  0
    4.9953   -7.3581    5.9848 C   0  0  0  0  0  0  0  0  0  0  0  0
    5.4715   -6.3322    6.8671 C   0  0  0  0  0  0  0  0  0  0  0  0
    4.6791   -5.3084    7.3471 C   0  0  0  0  0  0  0  0  0  0  0  0
    3.3442   -5.3326    6.8666 C   0  0  0  0  0  0  0  0  0  0  0  0
    2.2499   -4.3767    7.1328 C   0  0  0  0  0  0  0  0  0  0  0  0
    2.3219   -3.2697    7.9014 C   0  0  0  0  0  0  0  0  0  0  0  0
    1.1547   -2.6468    8.4732 C   0  0  0  0  0  0  0  0  0  0  0  0
    0.2216   -2.1581    8.9513 N   0  0  0  0  0  0  0  0  0  0  0  0
    3.5424   -2.5027    7.9906 C   0  0  0  0  0  0  0  0  0  0  0  0
    4.4965   -1.8312    7.9995 N   0  0  0  0  0  0  0  0  0  0  0  0
    6.8418   -6.9321    6.8606 C   0  0  0  0  0  0  0  0  0  0  0  0
    7.2943   -7.7407    8.1125 C   0  0  0  0  0  0  0  0  0  0  0  0
    6.1015   -8.4171    8.7574 C   0  0  0  0  0  0  0  0  0  0  0  0
    5.6913   -9.3629    7.9119 C   0  0  0  0  0  0  0  0  0  0  0  0
    6.6130   -9.2954    6.7145 C   0  0  0  0  0  0  0  0  0  0  0  0
    7.9063   -8.9452    7.4255 C   0  0  0  0  0  0  0  0  0  0  0  0
    6.3677   -7.9687    5.9311 C   0  0  0  0  0  0  0  0  0  0  0  0
    0.6402    8.4896   -1.2534 H   0  0  0  0  0  0  0  0  0  0  0  0
    6.2213    8.1788   -4.0796 H   0  0  0  0  0  0  0  0  0  0  0  0
    5.2097   11.9674   -1.0101 H   0  0  0  0  0  0  0  0  0  0  0  0
    4.0722    6.8388    0.9147 H   0  0  0  0  0  0  0  0  0  0  0  0
    6.4537    7.0728    0.3297 H   0  0  0  0  0  0  0  0  0  0  0  0
    8.4536    5.7907   -0.8176 H   0  0  0  0  0  0  0  0  0  0  0  0
    8.1300    5.1104   -2.4500 H   0  0  0  0  0  0  0  0  0  0  0  0
    7.9363    6.8804   -2.1638 H   0  0  0  0  0  0  0  0  0  0  0  0
    5.9287    4.2677   -2.9071 H   0  0  0  0  0  0  0  0  0  0  0  0
    3.5527    4.0467   -2.3284 H   0  0  0  0  0  0  0  0  0  0  0  0
    2.8336    2.9751    0.7290 H   0  0  0  0  0  0  0  0  0  0  0  0
    2.2906    2.2264    3.0097 H   0  0  0  0  0  0  0  0  0  0  0  0
    0.7524    2.5407    5.0120 H   0  0  0  0  0  0  0  0  0  0  0  0
    1.9114    3.8196    5.5475 H   0  0  0  0  0  0  0  0  0  0  0  0
    0.1486    4.1912    5.4073 H   0  0  0  0  0  0  0  0  0  0  0  0
    0.2511    5.9640    3.7310 H   0  0  0  0  0  0  0  0  0  0  0  0
    0.7694    6.6859    1.4353 H   0  0  0  0  0  0  0  0  0  0  0  0
   -3.3535    3.0600   -4.9646 H   0  0  0  0  0  0  0  0  0  0  0  0
   -5.1722    4.3633   -5.9993 H   0  0  0  0  0  0  0  0  0  0  0  0
   -5.9096    6.0217   -7.5933 H   0  0  0  0  0  0  0  0  0  0  0  0
   -4.6983    6.7697   -8.6927 H   0  0  0  0  0  0  0  0  0  0  0  0
   -5.0446    7.5268   -7.0880 H   0  0  0  0  0  0  0  0  0  0  0  0
   -2.2604    6.9644   -7.8356 H   0  0  0  0  0  0  0  0  0  0  0  0
   -0.4480    5.6626   -6.7977 H   0  0  0  0  0  0  0  0  0  0  0  0
    1.6631    2.3326   -4.4457 H   0  0  0  0  0  0  0  0  0  0  0  0
    3.2070    1.0522   -5.8006 H   0  0  0  0  0  0  0  0  0  0  0  0
    4.1161    0.6075   -8.1209 H   0  0  0  0  0  0  0  0  0  0  0  0
    2.7321   -0.5315   -8.3528 H   0  0  0  0  0  0  0  0  0  0  0  0
    3.0295    0.7905   -9.5460 H   0  0  0  0  0  0  0  0  0  0  0  0
    0.8853    1.9258   -9.3207 H   0  0  0  0  0  0  0  0  0  0  0  0
   -0.7248    3.1406   -7.9701 H   0  0  0  0  0  0  0  0  0  0  0  0
   -0.8190   -3.0632   -5.2962 H   0  0  0  0  0  0  0  0  0  0  0  0
    0.7389   -4.9614   -5.1437 H   0  0  0  0  0  0  0  0  0  0  0  0
    4.4245   -4.0513   -5.9115 H   0  0  0  0  0  0  0  0  0  0  0  0
    3.1436   -5.2130   -6.4615 H   0  0  0  0  0  0  0  0  0  0  0  0
    4.7570   -5.8242   -5.9511 H   0  0  0  0  0  0  0  0  0  0  0  0
    3.6139   -2.4446   -3.1584 H   0  0  0  0  0  0  0  0  0  0  0  0
    2.0464   -0.5374   -3.2967 H   0  0  0  0  0  0  0  0  0  0  0  0
   -3.1035   -0.0225   -4.6204 H   0  0  0  0  0  0  0  0  0  0  0  0
   -4.3426    0.4254   -6.6613 H   0  0  0  0  0  0  0  0  0  0  0  0
   -4.5949    2.3861   -8.4086 H   0  0  0  0  0  0  0  0  0  0  0  0
   -2.8295    2.6601   -8.6927 H   0  0  0  0  0  0  0  0  0  0  0  0
   -3.9872    2.7593  -10.0672 H   0  0  0  0  0  0  0  0  0  0  0  0
   -0.8070   -0.3257   -8.9922 H   0  0  0  0  0  0  0  0  0  0  0  0
    0.4658   -0.7527   -6.9350 H   0  0  0  0  0  0  0  0  0  0  0  0
   -6.3404    1.1516   -0.6738 H   0  0  0  0  0  0  0  0  0  0  0  0
   -7.4395    2.2878   -2.5759 H   0  0  0  0  0  0  0  0  0  0  0  0
   -9.4352    0.5802   -4.4760 H   0  0  0  0  0  0  0  0  0  0  0  0
   -8.6559   -0.3916   -5.8009 H   0  0  0  0  0  0  0  0  0  0  0  0
   -9.6953    1.0303   -6.2061 H   0  0  0  0  0  0  0  0  0  0  0  0
   -5.9421   -0.7385   -5.2521 H   0  0  0  0  0  0  0  0  0  0  0  0
   -4.8630   -1.8799   -3.3565 H   0  0  0  0  0  0  0  0  0  0  0  0
   -7.0024   -0.7264    0.8074 H   0  0  0  0  0  0  0  0  0  0  0  0
   -8.7754   -2.3455    1.3206 H   0  0  0  0  0  0  0  0  0  0  0  0
   -8.9744   -4.8567    2.9186 H   0  0  0  0  0  0  0  0  0  0  0  0
   -9.3558   -6.5567    2.4598 H   0  0  0  0  0  0  0  0  0  0  0  0
   -7.6665   -5.9456    2.2605 H   0  0  0  0  0  0  0  0  0  0  0  0
   -6.5474   -5.4278   -0.6856 H   0  0  0  0  0  0  0  0  0  0  0  0
   -4.8100   -3.8085   -1.2616 H   0  0  0  0  0  0  0  0  0  0  0  0
   -4.4615   -0.2337    4.5022 H   0  0  0  0  0  0  0  0  0  0  0  0
   -6.1203   -0.7270    6.2221 H   0  0  0  0  0  0  0  0  0  0  0  0
   -7.6471   -2.2716    7.2834 H   0  0  0  0  0  0  0  0  0  0  0  0
   -7.6751   -3.9699    6.6916 H   0  0  0  0  0  0  0  0  0  0  0  0
   -8.7999   -2.7500    5.9736 H   0  0  0  0  0  0  0  0  0  0  0  0
   -7.1223   -4.3933    4.2203 H   0  0  0  0  0  0  0  0  0  0  0  0
   -5.5057   -3.8871    2.4574 H   0  0  0  0  0  0  0  0  0  0  0  0
   -5.3610    0.4573    1.9736 H   0  0  0  0  0  0  0  0  0  0  0  0
   -4.5953    2.7186    1.4543 H   0  0  0  0  0  0  0  0  0  0  0  0
   -1.0781    3.6039    0.6172 H   0  0  0  0  0  0  0  0  0  0  0  0
   -2.7927    4.1614    0.5701 H   0  0  0  0  0  0  0  0  0  0  0  0
   -1.8855    4.1241    2.1345 H   0  0  0  0  0  0  0  0  0  0  0  0
   -0.5094    1.3628    1.5226 H   0  0  0  0  0  0  0  0  0  0  0  0
   -1.2683   -0.9104    2.0695 H   0  0  0  0  0  0  0  0  0  0  0  0
    0.8809   -2.3159    3.4081 H   0  0  0  0  0  0  0  0  0  0  0  0
    2.7146   -0.8802    4.1629 H   0  0  0  0  0  0  0  0  0  0  0  0
    5.8346   -1.1584    3.6655 H   0  0  0  0  0  0  0  0  0  0  0  0
    4.9493   -0.7280    5.1831 H   0  0  0  0  0  0  0  0  0  0  0  0
    6.0602   -2.1417    5.1700 H   0  0  0  0  0  0  0  0  0  0  0  0
    5.4302   -4.2210    3.9324 H   0  0  0  0  0  0  0  0  0  0  0  0
    3.5908   -5.6755    3.2309 H   0  0  0  0  0  0  0  0  0  0  0  0
    2.5910   -4.7802    0.7384 H   0  0  0  0  0  0  0  0  0  0  0  0
    2.8058   -6.3875   -1.0953 H   0  0  0  0  0  0  0  0  0  0  0  0
    2.3958   -9.4216   -1.2406 H   0  0  0  0  0  0  0  0  0  0  0  0
    0.6088   -9.3963   -1.5023 H   0  0  0  0  0  0  0  0  0  0  0  0
    1.6540   -8.2218   -2.3719 H   0  0  0  0  0  0  0  0  0  0  0  0
   -0.0421   -8.9830    0.8225 H   0  0  0  0  0  0  0  0  0  0  0  0
   -0.2319   -7.4098    2.6924 H   0  0  0  0  0  0  0  0  0  0  0  0
    0.0292   -3.0424    6.2714 H   0  0  0  0  0  0  0  0  0  0  0  0
    3.3237   -8.2205    4.9016 H   0  0  0  0  0  0  0  0  0  0  0  0
    5.0638   -4.5726    8.0415 H   0  0  0  0  0  0  0  0  0  0  0  0
    7.6248   -6.2677    6.4285 H   0  0  0  0  0  0  0  0  0  0  0  0
    7.9598   -7.1949    8.8100 H   0  0  0  0  0  0  0  0  0  0  0  0
    5.7010   -8.2403    9.7500 H   0  0  0  0  0  0  0  0  0  0  0  0
    4.9043  -10.0862    8.0949 H   0  0  0  0  0  0  0  0  0  0  0  0
    6.6469  -10.2116    6.0842 H   0  0  0  0  0  0  0  0  0  0  0  0
    8.2521   -9.7322    8.1379 H   0  0  0  0  0  0  0  0  0  0  0  0
    8.7392   -8.6766    6.7304 H   0  0  0  0  0  0  0  0  0  0  0  0
    6.8475   -7.9118    4.9290 H   0  0  0  0  0  0  0  0  0  0  0  0
  1  2  2  3
  2  3  1  0
  3  4  2  0
  3  5  1  0
  5  6  2  0
  6  7  1  0
  7  8  1  0
  7  9  2  0
  9 10  1  0
  9 11  1  0
 11 12  2  0
 12 13  1  0
 13 14  2  3
 14 15  1  0
 15 16  3  0
 14 17  1  0
 17 18  3  0
  1 19  1  0
 19 20  2  0
 20 21  1  0
 21 22  1  0
 22 23  2  0
 23 24  1  0
 24 25  2  0
 25 26  1  0
 25 27  1  0
 27 28  2  0
 21 29  1  0
 29 30  2  0
 30 31  1  0
 31 32  2  0
 32 33  1  0
 32 34  1  0
 34 35  2  0
 20 36  1  0
 36 37  1  0
 37 38  1  0
 38 39  2  0
 39 40  1  0
 40 41  1  0
 41 42  2  0
 42 43  1  0
 43 44  2  0
 44 45  1  0
 44 46  1  0
 46 47  2  0
 40 48  1  0
 48 49  2  0
 49 50  1  0
 50 51  2  0
 51 52  1  0
 51 53  1  0
 53 54  2  0
 39 55  1  0
 55 56  1  0
 38 57  1  0
 57 58  2  0
 58 59  1  0
 59 60  1  0
 60 61  2  0
 61 62  1  0
 62 63  2  0
 63 64  1  0
 64 65  1  0
 63 66  1  0
 66 67  2  0
 59 68  1  0
 68 69  2  0
 69 70  1  0
 70 71  2  0
 71 72  1  0
 72 73  1  0
 71 74  1  0
 74 75  2  0
 58 76  1  0
 76 77  1  0
 77 78  1  0
 78 79  2  0
 79 80  1  0
 80 81  1  0
 81 82  2  0
 82 83  1  0
 83 84  2  0
 84 85  1  0
 85 86  1  0
 84 87  1  0
 87 88  2  0
 80 89  1  0
 89 90  2  0
 90 91  1  0
 91 92  2  0
 92 93  1  0
 93 94  1  0
 92 95  1  0
 95 96  2  0
 79 97  1  0
 97 98  1  0
 78 99  1  0
 99100  2  0
100101  1  0
101102  1  0
102103  2  0
103104  1  0
104105  2  0
105106  1  0
105107  1  0
107108  2  0
101109  1  0
109110  2  0
110111  1  0
111112  2  0
112113  1  0
112114  1  0
114115  2  0
100116  1  0
116117  1  0
117118  1  0
118119  2  0
119120  1  0
120121  1  0
121122  2  0
122123  1  0
123124  2  0
124125  1  0
124126  1  0
126127  2  0
120128  1  0
128129  2  0
129130  1  0
130131  2  0
131132  1  0
131133  1  0
133134  2  0
119135  1  0
135136  1  0
118137  1  0
137138  2  3
138139  1  0
139140  2  0
139141  1  0
141142  2  0
142143  1  0
143144  2  0
144145  1  0
145146  2  0
146147  1  0
147148  2  3
148149  1  0
149150  3  0
148151  1  0
151152  3  0
144153  1  0
153154  1  0
154155  1  0
155156  2  0
156157  1  0
157158  1  0
157159  1  0
 13  2  1  0
 56 19  1  0
 98 57  1  0
136 99  1  0
147138  1  0
159153  1  0
 12  5  1  0
 28 22  1  0
 35 29  1  0
 55 36  2  0
 67 60  1  0
 75 68  1  0
 97 76  2  0
108102  1  0
115109  1  0
135116  2  0
146141  1  0
158154  1  0
 47 41  1  0
 54 48  1  0
 88 81  1  0
 96 89  1  0
127121  1  0
134128  1  0
159143  1  0
  1160  1  0
  6161  1  0
 11162  1  0
 23163  1  0
 24164  1  0
 26165  1  0
 26166  1  0
 26167  1  0
 27168  1  0
 28169  1  0
 30170  1  0
 31171  1  0
 33172  1  0
 33173  1  0
 33174  1  0
 34175  1  0
 35176  1  0
 42177  1  0
 43178  1  0
 45179  1  0
 45180  1  0
 45181  1  0
 46182  1  0
 47183  1  0
 49184  1  0
 50185  1  0
 52186  1  0
 52187  1  0
 52188  1  0
 53189  1  0
 54190  1  0
 61191  1  0
 62192  1  0
 65193  1  0
 65194  1  0
 65195  1  0
 66196  1  0
 67197  1  0
 69198  1  0
 70199  1  0
 73200  1  0
 73201  1  0
 73202  1  0
 74203  1  0
 75204  1  0
 82205  1  0
 83206  1  0
 86207  1  0
 86208  1  0
 86209  1  0
 87210  1  0
 88211  1  0
 90212  1  0
 91213  1  0
 94214  1  0
 94215  1  0
 94216  1  0
 95217  1  0
 96218  1  0
103219  1  0
104220  1  0
106221  1  0
106222  1  0
106223  1  0
107224  1  0
108225  1  0
110226  1  0
111227  1  0
113228  1  0
113229  1  0
113230  1  0
114231  1  0
115232  1  0
122233  1  0
123234  1  0
125235  1  0
125236  1  0
125237  1  0
126238  1  0
127239  1  0
129240  1  0
130241  1  0
132242  1  0
132243  1  0
132244  1  0
133245  1  0
134246  1  0
137247  1  0
142248  1  0
145249  1  0
153250  1  0
154251  1  0
155252  1  0
156253  1  0
157254  1  0
158255  1  0
158256  1  0
159257  1  0
M  END

