
     RDKit          3D

222242  0  0  0  0  0  0  0  0999 V2000
    1.5989   -0.0810    6.6648 C   0  0  0  0  0  0  0  0  0  0  0  0
    2.7003    0.6569    6.4131 C   0  0  0  0  0  0  0  0  0  0  0  0
    3.2803    0.8745    5.0780 C   0  0  0  0  0  0  0  0  0  0  0  0
    3.0897    0.1651    4.0522 O   0  0  0  0  0  0  0  0  0  0  0  0
    4.1059    2.0626    5.1201 C   0  0  0  0  0  0  0  0  0  0  0  0
    4.6964    2.7345    4.0560 C   0  0  0  0  0  0  0  0  0  0  0  0
    5.3115    3.9686    4.2949 C   0  0  0  0  0  0  0  0  0  0  0  0
    6.0135    4.8391    2.9432 Cl  0  0  0  0  0  0  0  0  0  0  0  0
    5.3075    4.5166    5.5986 C   0  0  0  0  0  0  0  0  0  0  0  0
    6.0609    6.2391    5.9564 Br  0  0  0  0  0  0  0  0  0  0  0  0
    4.6970    3.8210    6.6549 C   0  0  0  0  0  0  0  0  0  0  0  0
    4.1202    2.5648    6.4093 C   0  0  0  0  0  0  0  0  0  0  0  0
    3.3557    1.6574    7.3131 C   0  0  0  0  0  0  0  0  0  0  0  0
    3.3801    1.6527    8.6712 C   0  0  0  0  0  0  0  0  0  0  0  0
    2.7417    0.6275    9.4550 C   0  0  0  0  0  0  0  0  0  0  0  0
    2.2265   -0.1852   10.1053 N   0  0  0  0  0  0  0  0  0  0  0  0
    4.1500    2.6023    9.4326 C   0  0  0  0  0  0  0  0  0  0  0  0
    4.7621    3.3748   10.0473 N   0  0  0  0  0  0  0  0  0  0  0  0
    0.7868   -0.6130    5.5641 C   0  0  0  0  0  0  0  0  0  0  0  0
   -0.0302    0.1746    4.7495 C   0  0  0  0  0  0  0  0  0  0  0  0
   -0.5946    1.4179    5.1963 N   0  0  0  0  0  0  0  0  0  0  0  0
    0.1718    2.6333    5.0837 C   0  0  0  0  0  0  0  0  0  0  0  0
    0.1846    3.5718    6.1353 C   0  0  0  0  0  0  0  0  0  0  0  0
    0.9066    4.7652    6.0159 C   0  0  0  0  0  0  0  0  0  0  0  0
    1.6480    5.0230    4.8542 C   0  0  0  0  0  0  0  0  0  0  0  0
    2.3680    6.3261    4.6976 C   0  0  0  0  0  0  0  0  0  0  0  0
    1.6502    4.0869    3.8109 C   0  0  0  0  0  0  0  0  0  0  0  0
    0.9201    2.8981    3.9262 C   0  0  0  0  0  0  0  0  0  0  0  0
   -1.8825    1.3981    5.8612 C   0  0  0  0  0  0  0  0  0  0  0  0
   -2.7939    2.4552    5.6858 C   0  0  0  0  0  0  0  0  0  0  0  0
   -4.0433    2.4301    6.3154 C   0  0  0  0  0  0  0  0  0  0  0  0
   -4.4092    1.3429    7.1225 C   0  0  0  0  0  0  0  0  0  0  0  0
   -5.7275    1.3444    7.8398 C   0  0  0  0  0  0  0  0  0  0  0  0
   -3.5046    0.2854    7.3079 C   0  0  0  0  0  0  0  0  0  0  0  0
   -2.2617    0.3051    6.6677 C   0  0  0  0  0  0  0  0  0  0  0  0
   -0.5962   -0.5888    3.7435 C   0  0  0  0  0  0  0  0  0  0  0  0
   -1.6842   -0.2525    2.5315 S   0  0  0  0  0  0  0  0  0  0  0  0
   -1.8413   -1.8754    2.0208 C   0  0  0  0  0  0  0  0  0  0  0  0
   -1.0698   -2.7002    2.8750 C   0  0  0  0  0  0  0  0  0  0  0  0
   -1.3772   -4.0796    3.1459 N   0  0  0  0  0  0  0  0  0  0  0  0
   -0.2981   -4.9646    3.5307 C   0  0  0  0  0  0  0  0  0  0  0  0
    0.9247   -4.9354    2.8378 C   0  0  0  0  0  0  0  0  0  0  0  0
    1.9803   -5.7664    3.2210 C   0  0  0  0  0  0  0  0  0  0  0  0
    1.8464   -6.6121    4.3308 C   0  0  0  0  0  0  0  0  0  0  0  0
    2.9704   -7.5278    4.7242 C   0  0  0  0  0  0  0  0  0  0  0  0
    0.6406   -6.6309    5.0442 C   0  0  0  0  0  0  0  0  0  0  0  0
   -0.4205   -5.8108    4.6495 C   0  0  0  0  0  0  0  0  0  0  0  0
   -2.7601   -4.4488    3.3880 C   0  0  0  0  0  0  0  0  0  0  0  0
   -3.2059   -5.7519    3.1234 C   0  0  0  0  0  0  0  0  0  0  0  0
   -4.5415   -6.1076    3.3411 C   0  0  0  0  0  0  0  0  0  0  0  0
   -5.4471   -5.1716    3.8623 C   0  0  0  0  0  0  0  0  0  0  0  0
   -6.8858   -5.5442    4.0515 C   0  0  0  0  0  0  0  0  0  0  0  0
   -5.0071   -3.8748    4.1496 C   0  0  0  0  0  0  0  0  0  0  0  0
   -3.6747   -3.5172    3.9308 C   0  0  0  0  0  0  0  0  0  0  0  0
   -0.3392   -1.9201    3.7848 C   0  0  0  0  0  0  0  0  0  0  0  0
    0.6804   -2.2464    5.0886 S   0  0  0  0  0  0  0  0  0  0  0  0
   -2.5998   -2.2254    0.7955 C   0  0  0  0  0  0  0  0  0  0  0  0
   -2.2120   -3.1196   -0.2394 C   0  0  0  0  0  0  0  0  0  0  0  0
   -1.1855   -4.1235   -0.1405 N   0  0  0  0  0  0  0  0  0  0  0  0
    0.1179   -3.7930   -0.6735 C   0  0  0  0  0  0  0  0  0  0  0  0
    0.7331   -4.6303   -1.6257 C   0  0  0  0  0  0  0  0  0  0  0  0
    2.0236   -4.3593   -2.0776 C   0  0  0  0  0  0  0  0  0  0  0  0
    2.6818   -3.1984   -1.6653 C   0  0  0  0  0  0  0  0  0  0  0  0
    4.2863   -2.7981   -2.3453 S   0  0  0  0  0  0  0  0  0  0  0  0
    3.5687   -2.2762   -3.9341 C   0  0  0  0  0  0  0  0  0  0  0  0
    2.0555   -2.3259   -0.7686 C   0  0  0  0  0  0  0  0  0  0  0  0
    0.7827   -2.6187   -0.2728 C   0  0  0  0  0  0  0  0  0  0  0  0
   -1.5582   -5.5143    0.0896 C   0  0  0  0  0  0  0  0  0  0  0  0
   -0.5808   -6.4740    0.4309 C   0  0  0  0  0  0  0  0  0  0  0  0
   -0.9140   -7.8165    0.6055 C   0  0  0  0  0  0  0  0  0  0  0  0
   -2.2323   -8.2356    0.4345 C   0  0  0  0  0  0  0  0  0  0  0  0
   -2.6487   -9.9652    0.6806 S   0  0  0  0  0  0  0  0  0  0  0  0
   -2.8894   -9.7825    2.4762 C   0  0  0  0  0  0  0  0  0  0  0  0
   -3.2217   -7.3058    0.0984 C   0  0  0  0  0  0  0  0  0  0  0  0
   -2.8899   -5.9558   -0.0790 C   0  0  0  0  0  0  0  0  0  0  0  0
   -2.7495   -2.7376   -1.4818 C   0  0  0  0  0  0  0  0  0  0  0  0
   -2.1718   -2.9596   -3.0392 S   0  0  0  0  0  0  0  0  0  0  0  0
   -2.8685   -1.5531   -3.7218 C   0  0  0  0  0  0  0  0  0  0  0  0
   -3.5845   -0.9113   -2.6752 C   0  0  0  0  0  0  0  0  0  0  0  0
   -4.0252    0.4536   -2.6898 N   0  0  0  0  0  0  0  0  0  0  0  0
   -5.4117    0.7065   -2.9928 C   0  0  0  0  0  0  0  0  0  0  0  0
   -6.4323    0.0633   -2.2678 C   0  0  0  0  0  0  0  0  0  0  0  0
   -7.7765    0.3173   -2.5582 C   0  0  0  0  0  0  0  0  0  0  0  0
   -8.1156    1.2092   -3.5822 C   0  0  0  0  0  0  0  0  0  0  0  0
   -9.8379    1.4868   -4.0022 S   0  0  0  0  0  0  0  0  0  0  0  0
  -10.0168    2.9134   -2.8855 C   0  0  0  0  0  0  0  0  0  0  0  0
   -7.1084    1.8472   -4.3098 C   0  0  0  0  0  0  0  0  0  0  0  0
   -5.7652    1.6073   -4.0091 C   0  0  0  0  0  0  0  0  0  0  0  0
   -3.1811    1.4879   -2.1168 C   0  0  0  0  0  0  0  0  0  0  0  0
   -1.7744    1.3816   -2.1736 C   0  0  0  0  0  0  0  0  0  0  0  0
   -0.9623    2.4244   -1.7308 C   0  0  0  0  0  0  0  0  0  0  0  0
   -1.5340    3.5712   -1.1785 C   0  0  0  0  0  0  0  0  0  0  0  0
   -0.5058    4.9750   -0.7625 S   0  0  0  0  0  0  0  0  0  0  0  0
   -0.2458    4.4561    0.9594 C   0  0  0  0  0  0  0  0  0  0  0  0
   -2.9207    3.6489   -1.0223 C   0  0  0  0  0  0  0  0  0  0  0  0
   -3.7424    2.6222   -1.4979 C   0  0  0  0  0  0  0  0  0  0  0  0
   -3.5089   -1.6165   -1.4708 C   0  0  0  0  0  0  0  0  0  0  0  0
   -3.6072   -1.0469    0.0930 S   0  0  0  0  0  0  0  0  0  0  0  0
   -2.2880   -0.9365   -4.9535 C   0  0  0  0  0  0  0  0  0  0  0  0
   -2.1959    0.4436   -5.1948 C   0  0  0  0  0  0  0  0  0  0  0  0
   -1.0141    0.8388   -5.8646 C   0  0  0  0  0  0  0  0  0  0  0  0
   -0.4773    2.1582   -5.9533 C   0  0  0  0  0  0  0  0  0  0  0  0
   -1.2656    3.4192   -5.8024 C   0  0  0  0  0  0  0  0  0  0  0  0
   -0.9979    4.6199   -6.4782 C   0  0  0  0  0  0  0  0  0  0  0  0
   -1.9025    5.6562   -6.2044 C   0  0  0  0  0  0  0  0  0  0  0  0
   -2.9017    5.2801   -5.3262 C   0  0  0  0  0  0  0  0  0  0  0  0
   -4.2711    6.3053   -4.8035 S   0  0  0  0  0  0  0  0  0  0  0  0
   -3.5294    6.6702   -3.1772 C   0  0  0  0  0  0  0  0  0  0  0  0
   -4.3162    7.7613   -2.4754 C   0  0  0  0  0  0  0  0  0  0  0  0
   -2.6496    3.6849   -4.8755 S   0  0  0  0  0  0  0  0  0  0  0  0
    0.9060    2.2283   -6.2275 C   0  0  0  0  0  0  0  0  0  0  0  0
    1.6605    1.1245   -6.6380 C   0  0  0  0  0  0  0  0  0  0  0  0
    1.0613   -0.1408   -6.7822 C   0  0  0  0  0  0  0  0  0  0  0  0
    1.7994   -1.2681   -7.4065 C   0  0  0  0  0  0  0  0  0  0  0  0
    1.8756   -2.5856   -6.9539 C   0  0  0  0  0  0  0  0  0  0  0  0
    2.6153   -3.4255   -7.7933 C   0  0  0  0  0  0  0  0  0  0  0  0
    3.1001   -2.7775   -8.9190 C   0  0  0  0  0  0  0  0  0  0  0  0
    3.9611   -3.5622  -10.2859 S   0  0  0  0  0  0  0  0  0  0  0  0
    5.6401   -3.2812   -9.6323 C   0  0  0  0  0  0  0  0  0  0  0  0
    6.1114   -1.8562   -9.9174 C   0  0  0  0  0  0  0  0  0  0  0  0
    2.6208   -1.1677   -8.8749 S   0  0  0  0  0  0  0  0  0  0  0  0
   -0.2511   -0.2626   -6.2918 C   0  0  0  0  0  0  0  0  0  0  0  0
   -1.0171   -1.6710   -5.7904 S   0  0  0  0  0  0  0  0  0  0  0  0
    3.0387    1.3873   -6.6886 C   0  0  0  0  0  0  0  0  0  0  0  0
    3.3735    2.6679   -6.2471 C   0  0  0  0  0  0  0  0  0  0  0  0
    1.9591    3.5033   -5.8888 S   0  0  0  0  0  0  0  0  0  0  0  0
    4.7278    3.1916   -5.9913 C   0  0  0  0  0  0  0  0  0  0  0  0
    5.7023    2.5063   -5.3572 C   0  0  0  0  0  0  0  0  0  0  0  0
    5.6156    1.1382   -4.8509 C   0  0  0  0  0  0  0  0  0  0  0  0
    4.5632    0.5459   -4.4925 O   0  0  0  0  0  0  0  0  0  0  0  0
    6.9605    0.6230   -4.6967 C   0  0  0  0  0  0  0  0  0  0  0  0
    7.3612   -0.6763   -4.3888 C   0  0  0  0  0  0  0  0  0  0  0  0
    8.7273   -0.9668   -4.3601 C   0  0  0  0  0  0  0  0  0  0  0  0
    9.2242   -2.6048   -3.9661 Cl  0  0  0  0  0  0  0  0  0  0  0  0
    9.6757    0.0432   -4.6518 C   0  0  0  0  0  0  0  0  0  0  0  0
   11.5609   -0.3200   -4.6420 Br  0  0  0  0  0  0  0  0  0  0  0  0
    9.2451    1.3423   -4.9726 C   0  0  0  0  0  0  0  0  0  0  0  0
    7.8726    1.6275   -4.9719 C   0  0  0  0  0  0  0  0  0  0  0  0
    7.1399    2.8947   -5.2449 C   0  0  0  0  0  0  0  0  0  0  0  0
    7.6159    4.1511   -5.0587 C   0  0  0  0  0  0  0  0  0  0  0  0
    9.0164    4.4256   -4.8362 C   0  0  0  0  0  0  0  0  0  0  0  0
   10.1392    4.6560   -4.6619 N   0  0  0  0  0  0  0  0  0  0  0  0
    6.7286    5.2783   -4.8743 C   0  0  0  0  0  0  0  0  0  0  0  0
    6.0103    6.1746   -4.7318 N   0  0  0  0  0  0  0  0  0  0  0  0
    1.1422   -0.0885    7.6435 H   0  0  0  0  0  0  0  0  0  0  0  0
    4.6379    2.3245    3.0538 H   0  0  0  0  0  0  0  0  0  0  0  0
    4.6481    4.2938    7.6186 H   0  0  0  0  0  0  0  0  0  0  0  0
   -0.3636    3.3824    7.0514 H   0  0  0  0  0  0  0  0  0  0  0  0
    0.8795    5.4847    6.8248 H   0  0  0  0  0  0  0  0  0  0  0  0
    1.6891    7.0706    4.2317 H   0  0  0  0  0  0  0  0  0  0  0  0
    3.2636    6.2043    4.0537 H   0  0  0  0  0  0  0  0  0  0  0  0
    2.7050    6.7123    5.6821 H   0  0  0  0  0  0  0  0  0  0  0  0
    2.2220    4.2719    2.9148 H   0  0  0  0  0  0  0  0  0  0  0  0
    0.9191    2.1975    3.0988 H   0  0  0  0  0  0  0  0  0  0  0  0
   -2.5375    3.2972    5.0623 H   0  0  0  0  0  0  0  0  0  0  0  0
   -4.7253    3.2628    6.1799 H   0  0  0  0  0  0  0  0  0  0  0  0
   -6.5231    1.7421    7.1747 H   0  0  0  0  0  0  0  0  0  0  0  0
   -6.0194    0.3175    8.1506 H   0  0  0  0  0  0  0  0  0  0  0  0
   -5.6534    1.9846    8.7442 H   0  0  0  0  0  0  0  0  0  0  0  0
   -3.7661   -0.5579    7.9310 H   0  0  0  0  0  0  0  0  0  0  0  0
   -1.5913   -0.5252    6.8311 H   0  0  0  0  0  0  0  0  0  0  0  0
    1.0591   -4.2726    1.9966 H   0  0  0  0  0  0  0  0  0  0  0  0
    2.8962   -5.7527    2.6436 H   0  0  0  0  0  0  0  0  0  0  0  0
    2.9515   -7.7323    5.8164 H   0  0  0  0  0  0  0  0  0  0  0  0
    2.8691   -8.4893    4.1783 H   0  0  0  0  0  0  0  0  0  0  0  0
    3.9563   -7.0733    4.4774 H   0  0  0  0  0  0  0  0  0  0  0  0
    0.5179   -7.2721    5.9103 H   0  0  0  0  0  0  0  0  0  0  0  0
   -1.3296   -5.8172    5.2358 H   0  0  0  0  0  0  0  0  0  0  0  0
   -2.5206   -6.4910    2.7359 H   0  0  0  0  0  0  0  0  0  0  0  0
   -4.8690   -7.1093    3.1002 H   0  0  0  0  0  0  0  0  0  0  0  0
   -6.9895   -6.6258    4.2857 H   0  0  0  0  0  0  0  0  0  0  0  0
   -7.4473   -5.3233    3.1194 H   0  0  0  0  0  0  0  0  0  0  0  0
   -7.3362   -4.9673    4.8895 H   0  0  0  0  0  0  0  0  0  0  0  0
   -5.6939   -3.1341    4.5453 H   0  0  0  0  0  0  0  0  0  0  0  0
   -3.3680   -2.5112    4.1857 H   0  0  0  0  0  0  0  0  0  0  0  0
    0.2174   -5.5042   -2.0096 H   0  0  0  0  0  0  0  0  0  0  0  0
    2.4902   -5.0269   -2.7904 H   0  0  0  0  0  0  0  0  0  0  0  0
    3.0485   -3.1306   -4.4050 H   0  0  0  0  0  0  0  0  0  0  0  0
    4.3718   -1.9497   -4.6182 H   0  0  0  0  0  0  0  0  0  0  0  0
    2.8521   -1.4431   -3.7708 H   0  0  0  0  0  0  0  0  0  0  0  0
    2.5577   -1.4225   -0.4491 H   0  0  0  0  0  0  0  0  0  0  0  0
    0.3270   -1.9363    0.4312 H   0  0  0  0  0  0  0  0  0  0  0  0
    0.4552   -6.1910    0.5425 H   0  0  0  0  0  0  0  0  0  0  0  0
   -0.1390   -8.5286    0.8684 H   0  0  0  0  0  0  0  0  0  0  0  0
   -2.0322   -9.2496    2.9370 H   0  0  0  0  0  0  0  0  0  0  0  0
   -3.8258   -9.2238    2.6639 H   0  0  0  0  0  0  0  0  0  0  0  0
   -2.9723  -10.7860    2.9339 H   0  0  0  0  0  0  0  0  0  0  0  0
   -4.2495   -7.6272   -0.0250 H   0  0  0  0  0  0  0  0  0  0  0  0
   -3.6796   -5.2700   -0.3542 H   0  0  0  0  0  0  0  0  0  0  0  0
   -6.1903   -0.6318   -1.4746 H   0  0  0  0  0  0  0  0  0  0  0  0
   -8.5545   -0.1834   -1.9876 H   0  0  0  0  0  0  0  0  0  0  0  0
   -9.2229    3.6608   -3.0775 H   0  0  0  0  0  0  0  0  0  0  0  0
  -11.0032    3.3836   -3.0587 H   0  0  0  0  0  0  0  0  0  0  0  0
   -9.9559    2.5713   -1.8309 H   0  0  0  0  0  0  0  0  0  0  0  0
   -7.3658    2.5238   -5.1197 H   0  0  0  0  0  0  0  0  0  0  0  0
   -5.0017    2.1067   -4.5832 H   0  0  0  0  0  0  0  0  0  0  0  0
   -1.3000    0.5050   -2.5983 H   0  0  0  0  0  0  0  0  0  0  0  0
    0.1138    2.3505   -1.8423 H   0  0  0  0  0  0  0  0  0  0  0  0
   -1.2160    4.4125    1.4965 H   0  0  0  0  0  0  0  0  0  0  0  0
    0.2540    3.4658    0.9743 H   0  0  0  0  0  0  0  0  0  0  0  0
    0.4076    5.1980    1.4584 H   0  0  0  0  0  0  0  0  0  0  0  0
   -3.3652    4.5126   -0.5459 H   0  0  0  0  0  0  0  0  0  0  0  0
   -4.8149    2.7239   -1.3889 H   0  0  0  0  0  0  0  0  0  0  0  0
   -2.8792    1.1306   -4.7567 H   0  0  0  0  0  0  0  0  0  0  0  0
   -0.1846    4.7462   -7.1770 H   0  0  0  0  0  0  0  0  0  0  0  0
   -1.8503    6.6294   -6.6660 H   0  0  0  0  0  0  0  0  0  0  0  0
   -3.5570    5.7495   -2.5662 H   0  0  0  0  0  0  0  0  0  0  0  0
   -2.4696    6.9915   -3.2961 H   0  0  0  0  0  0  0  0  0  0  0  0
   -3.9077    7.9151   -1.4539 H   0  0  0  0  0  0  0  0  0  0  0  0
   -4.2410    8.7185   -3.0410 H   0  0  0  0  0  0  0  0  0  0  0  0
   -5.3847    7.4687   -2.3876 H   0  0  0  0  0  0  0  0  0  0  0  0
    1.4211   -2.9343   -6.0391 H   0  0  0  0  0  0  0  0  0  0  0  0
    2.7775   -4.4766   -7.5941 H   0  0  0  0  0  0  0  0  0  0  0  0
    6.3292   -3.9890  -10.1452 H   0  0  0  0  0  0  0  0  0  0  0  0
    5.6802   -3.4873   -8.5415 H   0  0  0  0  0  0  0  0  0  0  0  0
    7.1928   -1.7679   -9.6900 H   0  0  0  0  0  0  0  0  0  0  0  0
    5.5561   -1.1294   -9.2865 H   0  0  0  0  0  0  0  0  0  0  0  0
    5.9568   -1.6089  -10.9871 H   0  0  0  0  0  0  0  0  0  0  0  0
    3.7770    0.6393   -6.9396 H   0  0  0  0  0  0  0  0  0  0  0  0
    4.9262    4.1872   -6.3600 H   0  0  0  0  0  0  0  0  0  0  0  0
    6.6322   -1.4533   -4.2087 H   0  0  0  0  0  0  0  0  0  0  0  0
    9.9741    2.0845   -5.2493 H   0  0  0  0  0  0  0  0  0  0  0  0
  1  2  2  3
  2  3  1  0
  3  4  2  0
  3  5  1  0
  5  6  2  0
  6  7  1  0
  7  8  1  0
  7  9  2  0
  9 10  1  0
  9 11  1  0
 11 12  2  0
 12 13  1  0
 13 14  2  3
 14 15  1  0
 15 16  3  0
 14 17  1  0
 17 18  3  0
  1 19  1  0
 19 20  2  0
 20 21  1  0
 21 22  1  0
 22 23  2  0
 23 24  1  0
 24 25  2  0
 25 26  1  0
 25 27  1  0
 27 28  2  0
 21 29  1  0
 29 30  2  0
 30 31  1  0
 31 32  2  0
 32 33  1  0
 32 34  1  0
 34 35  2  0
 20 36  1  0
 36 37  1  0
 37 38  1  0
 38 39  2  0
 39 40  1  0
 40 41  1  0
 41 42  2  0
 42 43  1  0
 43 44  2  0
 44 45  1  0
 44 46  1  0
 46 47  2  0
 40 48  1  0
 48 49  2  0
 49 50  1  0
 50 51  2  0
 51 52  1  0
 51 53  1  0
 53 54  2  0
 39 55  1  0
 55 56  1  0
 38 57  1  0
 57 58  2  0
 58 59  1  0
 59 60  1  0
 60 61  2  0
 61 62  1  0
 62 63  2  0
 63 64  1  0
 64 65  1  0
 63 66  1  0
 66 67  2  0
 59 68  1  0
 68 69  2  0
 69 70  1  0
 70 71  2  0
 71 72  1  0
 72 73  1  0
 71 74  1  0
 74 75  2  0
 58 76  1  0
 76 77  1  0
 77 78  1  0
 78 79  2  0
 79 80  1  0
 80 81  1  0
 81 82  2  0
 82 83  1  0
 83 84  2  0
 84 85  1  0
 85 86  1  0
 84 87  1  0
 87 88  2  0
 80 89  1  0
 89 90  2  0
 90 91  1  0
 91 92  2  0
 92 93  1  0
 93 94  1  0
 92 95  1  0
 95 96  2  0
 79 97  1  0
 97 98  1  0
 78 99  1  0
 99100  2  0
100101  1  0
101102  2  0
102103  1  0
103104  2  0
104105  1  0
105106  2  0
106107  1  0
107108  1  0
108109  1  0
106110  1  0
102111  1  0
111112  2  0
112113  1  0
113114  1  0
114115  2  0
115116  1  0
116117  2  0
117118  1  0
118119  1  0
119120  1  0
117121  1  0
113122  2  0
122123  1  0
112124  1  0
124125  2  0
125126  1  0
125127  1  0
127128  2  3
128129  1  0
129130  2  0
129131  1  0
131132  2  0
132133  1  0
133134  1  0
133135  2  0
135136  1  0
135137  1  0
137138  2  0
138139  1  0
139140  2  3
140141  1  0
141142  3  0
140143  1  0
143144  3  0
 13  2  1  0
 56 19  1  0
 98 57  1  0
123 99  1  0
139128  1  0
 12  5  1  0
 28 22  1  0
 35 29  1  0
 55 36  2  0
 67 60  1  0
 75 68  1  0
 97 76  2  0
122101  1  0
138131  1  0
 47 41  1  0
 54 48  1  0
 88 81  1  0
 96 89  1  0
110103  1  0
126111  1  0
121114  1  0
  1145  1  0
  6146  1  0
 11147  1  0
 23148  1  0
 24149  1  0
 26150  1  0
 26151  1  0
 26152  1  0
 27153  1  0
 28154  1  0
 30155  1  0
 31156  1  0
 33157  1  0
 33158  1  0
 33159  1  0
 34160  1  0
 35161  1  0
 42162  1  0
 43163  1  0
 45164  1  0
 45165  1  0
 45166  1  0
 46167  1  0
 47168  1  0
 49169  1  0
 50170  1  0
 52171  1  0
 52172  1  0
 52173  1  0
 53174  1  0
 54175  1  0
 61176  1  0
 62177  1  0
 65178  1  0
 65179  1  0
 65180  1  0
 66181  1  0
 67182  1  0
 69183  1  0
 70184  1  0
 73185  1  0
 73186  1  0
 73187  1  0
 74188  1  0
 75189  1  0
 82190  1  0
 83191  1  0
 86192  1  0
 86193  1  0
 86194  1  0
 87195  1  0
 88196  1  0
 90197  1  0
 91198  1  0
 94199  1  0
 94200  1  0
 94201  1  0
 95202  1  0
 96203  1  0
100204  1  0
104205  1  0
105206  1  0
108207  1  0
108208  1  0
109209  1  0
109210  1  0
109211  1  0
115212  1  0
116213  1  0
119214  1  0
119215  1  0
120216  1  0
120217  1  0
120218  1  0
124219  1  0
127220  1  0
132221  1  0
137222  1  0
M  END

