
     RDKit          3D

102111  0  0  0  0  0  0  0  0999 V2000
    4.6552    3.4861    0.1328 C   0  0  0  0  0  0  0  0  0  0  0  0
    4.0709    4.6172    0.5866 C   0  0  0  0  0  0  0  0  0  0  0  0
    3.2602    4.7299    1.8099 C   0  0  0  0  0  0  0  0  0  0  0  0
    2.8646    3.7841    2.5420 O   0  0  0  0  0  0  0  0  0  0  0  0
    3.0027    6.1302    2.0609 C   0  0  0  0  0  0  0  0  0  0  0  0
    2.3099    6.6892    3.1331 C   0  0  0  0  0  0  0  0  0  0  0  0
    2.1370    8.0775    3.1684 C   0  0  0  0  0  0  0  0  0  0  0  0
    1.2757    8.7876    4.5236 Cl  0  0  0  0  0  0  0  0  0  0  0  0
    2.6623    8.8791    2.1335 C   0  0  0  0  0  0  0  0  0  0  0  0
    2.4166   10.7781    2.1272 Br  0  0  0  0  0  0  0  0  0  0  0  0
    3.3728    8.2904    1.0714 C   0  0  0  0  0  0  0  0  0  0  0  0
    3.5442    6.8953    1.0432 C   0  0  0  0  0  0  0  0  0  0  0  0
    4.1901    6.0044    0.0264 C   0  0  0  0  0  0  0  0  0  0  0  0
    4.6010    6.3526   -1.2231 C   0  0  0  0  0  0  0  0  0  0  0  0
    4.8357    5.3784   -2.2589 C   0  0  0  0  0  0  0  0  0  0  0  0
    5.0067    4.6052   -3.1045 N   0  0  0  0  0  0  0  0  0  0  0  0
    4.7556    7.7192   -1.6480 C   0  0  0  0  0  0  0  0  0  0  0  0
    4.9035    8.8085   -2.0074 N   0  0  0  0  0  0  0  0  0  0  0  0
    4.2749    2.1510    0.6088 C   0  0  0  0  0  0  0  0  0  0  0  0
    4.5935    1.5708    1.8340 C   0  0  0  0  0  0  0  0  0  0  0  0
    3.8829    0.3801    2.0756 C   0  0  0  0  0  0  0  0  0  0  0  0
    4.0140   -0.4065    3.3217 C   0  0  0  0  0  0  0  0  0  0  0  0
    4.0507    0.2318    4.5748 C   0  0  0  0  0  0  0  0  0  0  0  0
    4.1136   -0.5248    5.7483 C   0  0  0  0  0  0  0  0  0  0  0  0
    4.1532   -1.9198    5.6838 C   0  0  0  0  0  0  0  0  0  0  0  0
    4.1436   -2.5578    4.4450 C   0  0  0  0  0  0  0  0  0  0  0  0
    4.0705   -1.8078    3.2683 C   0  0  0  0  0  0  0  0  0  0  0  0
    3.0170    0.0415    1.0314 C   0  0  0  0  0  0  0  0  0  0  0  0
    3.1243    1.2149   -0.1620 S   0  0  0  0  0  0  0  0  0  0  0  0
    1.8755   -0.8835    1.0997 C   0  0  0  0  0  0  0  0  0  0  0  0
    0.7388   -0.5017    1.8217 C   0  0  0  0  0  0  0  0  0  0  0  0
    0.7703    0.6028    2.6085 F   0  0  0  0  0  0  0  0  0  0  0  0
   -0.4649   -1.1924    1.6604 C   0  0  0  0  0  0  0  0  0  0  0  0
   -1.5714   -0.7106    2.2775 F   0  0  0  0  0  0  0  0  0  0  0  0
   -0.5512   -2.2838    0.7717 C   0  0  0  0  0  0  0  0  0  0  0  0
    0.6260   -2.7395    0.1387 C   0  0  0  0  0  0  0  0  0  0  0  0
    0.6132   -3.8409   -0.6600 N   0  0  0  0  0  0  0  0  0  0  0  0
    1.7303   -4.2910   -1.2985 C   0  0  0  0  0  0  0  0  0  0  0  0
    1.6150   -5.5420   -2.1286 C   0  0  0  0  0  0  0  0  0  0  0  0
    1.7738   -6.7823   -1.2609 C   0  0  0  0  0  0  0  0  0  0  0  0
    2.9496   -3.5981   -1.1047 C   0  0  0  0  0  0  0  0  0  0  0  0
    2.9534   -2.4797   -0.3282 N   0  0  0  0  0  0  0  0  0  0  0  0
    1.8358   -2.0367    0.3042 C   0  0  0  0  0  0  0  0  0  0  0  0
    4.2467   -4.0034   -1.7493 C   0  0  0  0  0  0  0  0  0  0  0  0
    4.4259   -3.2911   -3.0854 C   0  0  0  0  0  0  0  0  0  0  0  0
   -1.8763   -2.8032    0.3653 C   0  0  0  0  0  0  0  0  0  0  0  0
   -3.0008   -2.9476    1.1777 C   0  0  0  0  0  0  0  0  0  0  0  0
   -4.2016   -3.1265    0.4633 C   0  0  0  0  0  0  0  0  0  0  0  0
   -5.5223   -3.2444    1.1328 C   0  0  0  0  0  0  0  0  0  0  0  0
   -5.6636   -4.0307    2.2884 C   0  0  0  0  0  0  0  0  0  0  0  0
   -6.9140   -4.1747    2.8993 C   0  0  0  0  0  0  0  0  0  0  0  0
   -8.0316   -3.5237    2.3744 C   0  0  0  0  0  0  0  0  0  0  0  0
   -7.9011   -2.7278    1.2359 C   0  0  0  0  0  0  0  0  0  0  0  0
   -6.6516   -2.5733    0.6261 C   0  0  0  0  0  0  0  0  0  0  0  0
   -4.0063   -3.1047   -0.9228 C   0  0  0  0  0  0  0  0  0  0  0  0
   -2.3653   -2.9125   -1.2356 S   0  0  0  0  0  0  0  0  0  0  0  0
   -5.0431   -3.2333   -1.9649 C   0  0  0  0  0  0  0  0  0  0  0  0
   -5.2658   -2.2818   -2.8965 C   0  0  0  0  0  0  0  0  0  0  0  0
   -4.7185   -0.9144   -2.8684 C   0  0  0  0  0  0  0  0  0  0  0  0
   -3.8681   -0.4586   -2.0573 O   0  0  0  0  0  0  0  0  0  0  0  0
   -5.4234   -0.1150   -3.8448 C   0  0  0  0  0  0  0  0  0  0  0  0
   -5.2857    1.2516   -4.0980 C   0  0  0  0  0  0  0  0  0  0  0  0
   -6.1564    1.8495   -5.0172 C   0  0  0  0  0  0  0  0  0  0  0  0
   -7.1623    1.0898   -5.6368 C   0  0  0  0  0  0  0  0  0  0  0  0
   -8.2757    1.8596   -6.7550 Cl  0  0  0  0  0  0  0  0  0  0  0  0
   -7.2920   -0.2833   -5.3563 C   0  0  0  0  0  0  0  0  0  0  0  0
   -6.3792   -0.8904   -4.4782 C   0  0  0  0  0  0  0  0  0  0  0  0
   -6.2899   -2.2996   -3.9915 C   0  0  0  0  0  0  0  0  0  0  0  0
   -6.8339   -3.3955   -4.5863 C   0  0  0  0  0  0  0  0  0  0  0  0
   -6.5441   -4.7376   -4.1501 C   0  0  0  0  0  0  0  0  0  0  0  0
   -6.3158   -5.8214   -3.8160 N   0  0  0  0  0  0  0  0  0  0  0  0
   -7.6033   -3.3160   -5.8000 C   0  0  0  0  0  0  0  0  0  0  0  0
   -8.2075   -3.2775   -6.7851 N   0  0  0  0  0  0  0  0  0  0  0  0
    5.3338    3.5084   -0.7029 H   0  0  0  0  0  0  0  0  0  0  0  0
    1.9217    6.0651    3.9256 H   0  0  0  0  0  0  0  0  0  0  0  0
    3.7598    8.9343    0.3025 H   0  0  0  0  0  0  0  0  0  0  0  0
    5.2907    2.0099    2.5344 H   0  0  0  0  0  0  0  0  0  0  0  0
    4.0136    1.3115    4.6416 H   0  0  0  0  0  0  0  0  0  0  0  0
    4.1169   -0.0273    6.7100 H   0  0  0  0  0  0  0  0  0  0  0  0
    4.1909   -2.4990    6.5953 H   0  0  0  0  0  0  0  0  0  0  0  0
    4.1787   -3.6381    4.3928 H   0  0  0  0  0  0  0  0  0  0  0  0
    4.0489   -2.3258    2.3172 H   0  0  0  0  0  0  0  0  0  0  0  0
    0.6136   -5.5641   -2.6059 H   0  0  0  0  0  0  0  0  0  0  0  0
    2.3571   -5.5496   -2.9524 H   0  0  0  0  0  0  0  0  0  0  0  0
    2.7545   -6.7713   -0.7437 H   0  0  0  0  0  0  0  0  0  0  0  0
    1.7090   -7.6970   -1.8906 H   0  0  0  0  0  0  0  0  0  0  0  0
    0.9666   -6.8154   -0.4923 H   0  0  0  0  0  0  0  0  0  0  0  0
    4.3151   -5.1038   -1.8789 H   0  0  0  0  0  0  0  0  0  0  0  0
    5.0878   -3.7104   -1.0809 H   0  0  0  0  0  0  0  0  0  0  0  0
    5.4390   -3.5078   -3.4922 H   0  0  0  0  0  0  0  0  0  0  0  0
    4.3456   -2.1892   -2.9563 H   0  0  0  0  0  0  0  0  0  0  0  0
    3.6679   -3.6425   -3.8190 H   0  0  0  0  0  0  0  0  0  0  0  0
   -2.9609   -2.8636    2.2574 H   0  0  0  0  0  0  0  0  0  0  0  0
   -4.8107   -4.5470    2.7064 H   0  0  0  0  0  0  0  0  0  0  0  0
   -7.0160   -4.7942    3.7776 H   0  0  0  0  0  0  0  0  0  0  0  0
   -8.9965   -3.6352    2.8447 H   0  0  0  0  0  0  0  0  0  0  0  0
   -8.7612   -2.2067    0.8340 H   0  0  0  0  0  0  0  0  0  0  0  0
   -6.5664   -1.9224   -0.2350 H   0  0  0  0  0  0  0  0  0  0  0  0
   -5.6960   -4.0855   -1.8813 H   0  0  0  0  0  0  0  0  0  0  0  0
   -4.5394    1.8423   -3.5842 H   0  0  0  0  0  0  0  0  0  0  0  0
   -6.0682    2.9046   -5.2315 H   0  0  0  0  0  0  0  0  0  0  0  0
   -8.1105   -0.8291   -5.7987 H   0  0  0  0  0  0  0  0  0  0  0  0
  1  2  2  3
  2  3  1  0
  3  4  2  0
  3  5  1  0
  5  6  2  0
  6  7  1  0
  7  8  1  0
  7  9  2  0
  9 10  1  0
  9 11  1  0
 11 12  2  0
 12 13  1  0
 13 14  2  3
 14 15  1  0
 15 16  3  0
 14 17  1  0
 17 18  3  0
  1 19  1  0
 19 20  2  0
 20 21  1  0
 21 22  1  0
 22 23  2  0
 23 24  1  0
 24 25  2  0
 25 26  1  0
 26 27  2  0
 21 28  2  0
 28 29  1  0
 28 30  1  0
 30 31  2  0
 31 32  1  0
 31 33  1  0
 33 34  1  0
 33 35  2  0
 35 36  1  0
 36 37  2  0
 37 38  1  0
 38 39  1  0
 39 40  1  0
 38 41  2  0
 41 42  1  0
 42 43  2  0
 41 44  1  0
 44 45  1  0
 35 46  1  0
 46 47  2  0
 47 48  1  0
 48 49  1  0
 49 50  2  0
 50 51  1  0
 51 52  2  0
 52 53  1  0
 53 54  2  0
 48 55  2  0
 55 56  1  0
 55 57  1  0
 57 58  2  3
 58 59  1  0
 59 60  2  0
 59 61  1  0
 61 62  2  0
 62 63  1  0
 63 64  2  0
 64 65  1  0
 64 66  1  0
 66 67  2  0
 67 68  1  0
 68 69  2  3
 69 70  1  0
 70 71  3  0
 69 72  1  0
 72 73  3  0
 13  2  1  0
 29 19  1  0
 43 30  1  0
 56 46  1  0
 68 58  1  0
 12  5  1  0
 27 22  1  0
 43 36  1  0
 54 49  1  0
 67 61  1  0
  1 74  1  0
  6 75  1  0
 11 76  1  0
 20 77  1  0
 23 78  1  0
 24 79  1  0
 25 80  1  0
 26 81  1  0
 27 82  1  0
 39 83  1  0
 39 84  1  0
 40 85  1  0
 40 86  1  0
 40 87  1  0
 44 88  1  0
 44 89  1  0
 45 90  1  0
 45 91  1  0
 45 92  1  0
 47 93  1  0
 50 94  1  0
 51 95  1  0
 52 96  1  0
 53 97  1  0
 54 98  1  0
 57 99  1  0
 62100  1  0
 63101  1  0
 66102  1  0
M  END

