
     RDKit          3D

184203  0  0  0  0  0  0  0  0999 V2000
   -4.3964   -4.0307   -6.1720 C   0  0  0  0  0  0  0  0  0  0  0  0
   -4.3205   -3.3151   -7.3110 C   0  0  0  0  0  0  0  0  0  0  0  0
   -3.3517   -2.2465   -7.5868 C   0  0  0  0  0  0  0  0  0  0  0  0
   -2.2188   -2.1047   -7.0495 O   0  0  0  0  0  0  0  0  0  0  0  0
   -3.8660   -1.4338   -8.6678 C   0  0  0  0  0  0  0  0  0  0  0  0
   -3.3555   -0.2328   -9.1531 C   0  0  0  0  0  0  0  0  0  0  0  0
   -4.0849    0.4584  -10.1268 C   0  0  0  0  0  0  0  0  0  0  0  0
   -3.4478    1.9808  -10.7291 Cl  0  0  0  0  0  0  0  0  0  0  0  0
   -5.3238   -0.0527  -10.5820 C   0  0  0  0  0  0  0  0  0  0  0  0
   -6.3797    0.8903  -11.8731 Br  0  0  0  0  0  0  0  0  0  0  0  0
   -5.8137   -1.2704  -10.0753 C   0  0  0  0  0  0  0  0  0  0  0  0
   -5.0500   -1.9773   -9.1314 C   0  0  0  0  0  0  0  0  0  0  0  0
   -5.3325   -3.2567   -8.4141 C   0  0  0  0  0  0  0  0  0  0  0  0
   -6.2213   -4.2174   -8.7890 C   0  0  0  0  0  0  0  0  0  0  0  0
   -6.3244   -5.4838   -8.1183 C   0  0  0  0  0  0  0  0  0  0  0  0
   -6.4107   -6.5012   -7.5781 N   0  0  0  0  0  0  0  0  0  0  0  0
   -7.0690   -4.0797   -9.9477 C   0  0  0  0  0  0  0  0  0  0  0  0
   -7.7564   -3.9800  -10.8720 N   0  0  0  0  0  0  0  0  0  0  0  0
   -3.6525   -3.7171   -4.9429 C   0  0  0  0  0  0  0  0  0  0  0  0
   -3.3534   -4.6492   -3.9461 C   0  0  0  0  0  0  0  0  0  0  0  0
   -2.9621   -4.0559   -2.7343 C   0  0  0  0  0  0  0  0  0  0  0  0
   -2.6707   -4.7280   -1.5291 C   0  0  0  0  0  0  0  0  0  0  0  0
   -2.5111   -6.1893   -1.4514 C   0  0  0  0  0  0  0  0  0  0  0  0
   -1.4133   -6.7971   -2.0764 C   0  0  0  0  0  0  0  0  0  0  0  0
   -1.1376   -8.1455   -1.8571 C   0  0  0  0  0  0  0  0  0  0  0  0
   -1.9542   -8.9053   -1.0030 C   0  0  0  0  0  0  0  0  0  0  0  0
   -1.6435  -10.2449   -0.7221 C   0  0  0  0  0  0  0  0  0  0  0  0
   -2.4626  -11.0009    0.1446 C   0  0  0  0  0  0  0  0  0  0  0  0
   -2.1819  -12.3354    0.4747 O   0  0  0  0  0  0  0  0  0  0  0  0
   -0.9590  -13.0167    0.1855 C   0  0  0  0  0  0  0  0  0  0  0  0
    0.1645  -12.5305    1.0988 C   0  0  0  0  0  0  0  0  0  0  0  0
   -3.6031  -10.4052    0.7000 C   0  0  0  0  0  0  0  0  0  0  0  0
   -3.9106   -9.0683    0.4366 C   0  0  0  0  0  0  0  0  0  0  0  0
   -3.0874   -8.3077   -0.4047 C   0  0  0  0  0  0  0  0  0  0  0  0
   -3.3543   -6.9484   -0.6290 C   0  0  0  0  0  0  0  0  0  0  0  0
   -2.4411   -3.9320   -0.3938 C   0  0  0  0  0  0  0  0  0  0  0  0
   -2.4765   -2.5372   -0.4437 C   0  0  0  0  0  0  0  0  0  0  0  0
   -2.6900   -1.8595   -1.6594 C   0  0  0  0  0  0  0  0  0  0  0  0
   -2.5900   -0.3874   -1.7512 C   0  0  0  0  0  0  0  0  0  0  0  0
   -1.5020    0.2010   -2.4184 C   0  0  0  0  0  0  0  0  0  0  0  0
   -1.3123    1.5947   -2.3826 C   0  0  0  0  0  0  0  0  0  0  0  0
   -0.2040    2.1894   -2.9996 C   0  0  0  0  0  0  0  0  0  0  0  0
   -0.0086    3.5707   -2.9331 C   0  0  0  0  0  0  0  0  0  0  0  0
   -0.9254    4.3810   -2.2401 C   0  0  0  0  0  0  0  0  0  0  0  0
   -0.7743    5.7716   -2.1163 O   0  0  0  0  0  0  0  0  0  0  0  0
    0.1655    6.5777   -2.8384 C   0  0  0  0  0  0  0  0  0  0  0  0
   -0.2637    6.7438   -4.2923 C   0  0  0  0  0  0  0  0  0  0  0  0
   -2.0313    3.7931   -1.6157 C   0  0  0  0  0  0  0  0  0  0  0  0
   -2.2355    2.4054   -1.6836 C   0  0  0  0  0  0  0  0  0  0  0  0
   -3.3443    1.8163   -1.0567 C   0  0  0  0  0  0  0  0  0  0  0  0
   -3.5193    0.4286   -1.0890 C   0  0  0  0  0  0  0  0  0  0  0  0
   -2.9526   -2.6577   -2.7846 C   0  0  0  0  0  0  0  0  0  0  0  0
   -3.4443   -2.1567   -4.3090 S   0  0  0  0  0  0  0  0  0  0  0  0
   -2.2143   -1.9433    0.7916 C   0  0  0  0  0  0  0  0  0  0  0  0
   -1.9786   -2.8667    1.8052 C   0  0  0  0  0  0  0  0  0  0  0  0
   -2.0432   -4.4258    1.1732 S   0  0  0  0  0  0  0  0  0  0  0  0
   -1.5551   -2.4769    3.1529 C   0  0  0  0  0  0  0  0  0  0  0  0
   -2.2115   -1.4385    3.8039 C   0  0  0  0  0  0  0  0  0  0  0  0
   -1.3573   -0.5673    4.4917 C   0  0  0  0  0  0  0  0  0  0  0  0
   -1.7097    0.7329    4.9153 C   0  0  0  0  0  0  0  0  0  0  0  0
   -3.1304    1.1433    5.0317 C   0  0  0  0  0  0  0  0  0  0  0  0
   -3.7441    2.2261    4.4034 C   0  0  0  0  0  0  0  0  0  0  0  0
   -5.1280    2.2834    4.6013 C   0  0  0  0  0  0  0  0  0  0  0  0
   -5.6107    1.2434    5.3845 C   0  0  0  0  0  0  0  0  0  0  0  0
   -7.0279    0.9136    5.5862 C   0  0  0  0  0  0  0  0  0  0  0  0
   -7.9285    1.7143    6.1707 C   0  0  0  0  0  0  0  0  0  0  0  0
   -7.6325    2.9367    6.9420 C   0  0  0  0  0  0  0  0  0  0  0  0
   -8.6137    3.8218    7.3935 C   0  0  0  0  0  0  0  0  0  0  0  0
   -8.1300    4.7984    8.2729 C   0  0  0  0  0  0  0  0  0  0  0  0
   -6.7677    4.6932    8.5049 C   0  0  0  0  0  0  0  0  0  0  0  0
   -5.8177    5.7030    9.6453 S   0  0  0  0  0  0  0  0  0  0  0  0
   -5.4440    7.0156    8.4343 C   0  0  0  0  0  0  0  0  0  0  0  0
   -6.5490    8.0605    8.4294 C   0  0  0  0  0  0  0  0  0  0  0  0
   -6.1630    3.3783    7.6510 S   0  0  0  0  0  0  0  0  0  0  0  0
   -4.3287    0.2415    5.8054 S   0  0  0  0  0  0  0  0  0  0  0  0
   -0.6445    1.6436    5.0538 C   0  0  0  0  0  0  0  0  0  0  0  0
    0.6925    1.2644    4.9159 C   0  0  0  0  0  0  0  0  0  0  0  0
    1.0383   -0.0856    4.7083 C   0  0  0  0  0  0  0  0  0  0  0  0
    2.4552   -0.4923    4.6305 C   0  0  0  0  0  0  0  0  0  0  0  0
    3.3995   -0.2176    5.6122 C   0  0  0  0  0  0  0  0  0  0  0  0
    4.6966   -0.5949    5.2557 C   0  0  0  0  0  0  0  0  0  0  0  0
    4.7844   -1.1643    3.9852 C   0  0  0  0  0  0  0  0  0  0  0  0
    6.0060   -1.6091    3.2887 C   0  0  0  0  0  0  0  0  0  0  0  0
    7.1807   -1.7372    3.9167 C   0  0  0  0  0  0  0  0  0  0  0  0
    8.4279   -2.1398    3.2445 C   0  0  0  0  0  0  0  0  0  0  0  0
    8.5942   -2.5817    1.9301 C   0  0  0  0  0  0  0  0  0  0  0  0
    9.9252   -2.8811    1.6127 C   0  0  0  0  0  0  0  0  0  0  0  0
   10.7983   -2.6689    2.6717 C   0  0  0  0  0  0  0  0  0  0  0  0
   12.5586   -3.0065    2.6687 S   0  0  0  0  0  0  0  0  0  0  0  0
   13.0478   -1.3064    2.2242 C   0  0  0  0  0  0  0  0  0  0  0  0
   13.0920   -1.1406    0.7100 C   0  0  0  0  0  0  0  0  0  0  0  0
    9.9311   -2.1274    4.0023 S   0  0  0  0  0  0  0  0  0  0  0  0
    3.2422   -1.1843    3.3105 S   0  0  0  0  0  0  0  0  0  0  0  0
   -0.0176   -0.9626    4.4231 C   0  0  0  0  0  0  0  0  0  0  0  0
    0.0835   -2.3747    3.5226 S   0  0  0  0  0  0  0  0  0  0  0  0
    1.5596    2.3507    4.6804 C   0  0  0  0  0  0  0  0  0  0  0  0
    0.9068    3.5835    4.5432 C   0  0  0  0  0  0  0  0  0  0  0  0
   -0.7211    3.3131    4.9096 S   0  0  0  0  0  0  0  0  0  0  0  0
    1.3968    4.6455    3.6100 C   0  0  0  0  0  0  0  0  0  0  0  0
    2.7645    4.6648    3.2523 C   0  0  0  0  0  0  0  0  0  0  0  0
    3.2036    5.2779    2.0710 C   0  0  0  0  0  0  0  0  0  0  0  0
    4.5138    5.1915    1.7309 F   0  0  0  0  0  0  0  0  0  0  0  0
    2.2889    5.9120    1.2147 C   0  0  0  0  0  0  0  0  0  0  0  0
    0.9679    6.0769    1.6472 C   0  0  0  0  0  0  0  0  0  0  0  0
    0.5126    5.4393    2.8404 C   0  0  0  0  0  0  0  0  0  0  0  0
   -0.8106    5.5835    3.1229 N   0  0  0  0  0  0  0  0  0  0  0  0
   -1.3086    6.5018    1.8413 S   0  0  0  0  0  0  0  0  0  0  0  0
    0.0333    6.7441    0.9112 N   0  0  0  0  0  0  0  0  0  0  0  0
    2.6828    6.4115   -0.1166 C   0  0  0  0  0  0  0  0  0  0  0  0
    3.3074    5.7027   -1.0717 C   0  0  0  0  0  0  0  0  0  0  0  0
    3.9280    6.3454   -2.2277 C   0  0  0  0  0  0  0  0  0  0  0  0
    3.7815    7.5484   -2.5735 O   0  0  0  0  0  0  0  0  0  0  0  0
    4.7692    5.3847   -2.9016 C   0  0  0  0  0  0  0  0  0  0  0  0
    5.4749    5.5495   -4.0946 C   0  0  0  0  0  0  0  0  0  0  0  0
    6.1348    4.4402   -4.6525 C   0  0  0  0  0  0  0  0  0  0  0  0
    6.8255    4.5817   -5.9791 C   0  0  0  0  0  0  0  0  0  0  0  0
    6.0396    3.1839   -4.0177 C   0  0  0  0  0  0  0  0  0  0  0  0
    6.5962    2.0839   -4.5844 F   0  0  0  0  0  0  0  0  0  0  0  0
    5.3146    3.0396   -2.8205 C   0  0  0  0  0  0  0  0  0  0  0  0
    4.6904    4.1645   -2.2515 C   0  0  0  0  0  0  0  0  0  0  0  0
    3.7299    4.2676   -1.1107 C   0  0  0  0  0  0  0  0  0  0  0  0
    3.1596    3.2162   -0.4703 C   0  0  0  0  0  0  0  0  0  0  0  0
    1.8045    3.2350    0.0161 C   0  0  0  0  0  0  0  0  0  0  0  0
    0.7139    3.1962    0.4111 N   0  0  0  0  0  0  0  0  0  0  0  0
    3.8341    1.9528   -0.3200 C   0  0  0  0  0  0  0  0  0  0  0  0
    4.3697    0.9384   -0.1734 N   0  0  0  0  0  0  0  0  0  0  0  0
   -5.1385   -4.8030   -6.0613 H   0  0  0  0  0  0  0  0  0  0  0  0
   -2.4253    0.1640   -8.7655 H   0  0  0  0  0  0  0  0  0  0  0  0
   -6.7794   -1.6150  -10.4064 H   0  0  0  0  0  0  0  0  0  0  0  0
   -3.4848   -5.7176   -4.0779 H   0  0  0  0  0  0  0  0  0  0  0  0
   -0.7463   -6.2112   -2.7001 H   0  0  0  0  0  0  0  0  0  0  0  0
   -0.2746   -8.5915   -2.3330 H   0  0  0  0  0  0  0  0  0  0  0  0
   -0.7654  -10.6866   -1.1764 H   0  0  0  0  0  0  0  0  0  0  0  0
   -0.6863  -12.8903   -0.8848 H   0  0  0  0  0  0  0  0  0  0  0  0
   -1.1178  -14.1031    0.3589 H   0  0  0  0  0  0  0  0  0  0  0  0
    1.1419  -12.8624    0.6951 H   0  0  0  0  0  0  0  0  0  0  0  0
    0.0343  -12.9619    2.1128 H   0  0  0  0  0  0  0  0  0  0  0  0
    0.1631  -11.4261    1.1686 H   0  0  0  0  0  0  0  0  0  0  0  0
   -4.2475  -10.9822    1.3534 H   0  0  0  0  0  0  0  0  0  0  0  0
   -4.7849   -8.6245    0.8987 H   0  0  0  0  0  0  0  0  0  0  0  0
   -4.2083   -6.4782   -0.1483 H   0  0  0  0  0  0  0  0  0  0  0  0
   -0.7812   -0.4360   -2.9203 H   0  0  0  0  0  0  0  0  0  0  0  0
    0.5231    1.5821   -3.5275 H   0  0  0  0  0  0  0  0  0  0  0  0
    0.8637    3.9911   -3.4202 H   0  0  0  0  0  0  0  0  0  0  0  0
    0.1949    7.5795   -2.3580 H   0  0  0  0  0  0  0  0  0  0  0  0
    1.1813    6.1520   -2.7731 H   0  0  0  0  0  0  0  0  0  0  0  0
   -1.3467    6.9786   -4.3395 H   0  0  0  0  0  0  0  0  0  0  0  0
    0.3048    7.5755   -4.7585 H   0  0  0  0  0  0  0  0  0  0  0  0
   -0.0553    5.8105   -4.8560 H   0  0  0  0  0  0  0  0  0  0  0  0
   -2.7247    4.4248   -1.0740 H   0  0  0  0  0  0  0  0  0  0  0  0
   -4.0587    2.4224   -0.5165 H   0  0  0  0  0  0  0  0  0  0  0  0
   -4.3640   -0.0131   -0.5641 H   0  0  0  0  0  0  0  0  0  0  0  0
   -2.1550   -0.8731    0.9495 H   0  0  0  0  0  0  0  0  0  0  0  0
   -3.2419   -1.1973    3.5817 H   0  0  0  0  0  0  0  0  0  0  0  0
   -3.2242    2.9241    3.7655 H   0  0  0  0  0  0  0  0  0  0  0  0
   -5.7657    3.0343    4.1452 H   0  0  0  0  0  0  0  0  0  0  0  0
   -7.3757   -0.0266    5.1706 H   0  0  0  0  0  0  0  0  0  0  0  0
   -8.9610    1.3985    6.1384 H   0  0  0  0  0  0  0  0  0  0  0  0
   -9.6671    3.7309    7.1381 H   0  0  0  0  0  0  0  0  0  0  0  0
   -8.7698    5.5401    8.7378 H   0  0  0  0  0  0  0  0  0  0  0  0
   -5.3119    6.5940    7.4159 H   0  0  0  0  0  0  0  0  0  0  0  0
   -4.4908    7.5022    8.7318 H   0  0  0  0  0  0  0  0  0  0  0  0
   -6.2640    8.8994    7.7561 H   0  0  0  0  0  0  0  0  0  0  0  0
   -7.4890    7.6072    8.0534 H   0  0  0  0  0  0  0  0  0  0  0  0
   -6.7025    8.4628    9.4538 H   0  0  0  0  0  0  0  0  0  0  0  0
    3.1618    0.2647    6.5541 H   0  0  0  0  0  0  0  0  0  0  0  0
    5.5400   -0.4202    5.9068 H   0  0  0  0  0  0  0  0  0  0  0  0
    5.9351   -1.8197    2.2305 H   0  0  0  0  0  0  0  0  0  0  0  0
    7.2558   -1.5426    4.9769 H   0  0  0  0  0  0  0  0  0  0  0  0
    7.7884   -2.7048    1.2180 H   0  0  0  0  0  0  0  0  0  0  0  0
   10.2427   -3.2649    0.6550 H   0  0  0  0  0  0  0  0  0  0  0  0
   14.0611   -1.1175    2.6378 H   0  0  0  0  0  0  0  0  0  0  0  0
   12.3493   -0.5646    2.6666 H   0  0  0  0  0  0  0  0  0  0  0  0
   13.4453   -0.1187    0.4606 H   0  0  0  0  0  0  0  0  0  0  0  0
   13.7926   -1.8766    0.2647 H   0  0  0  0  0  0  0  0  0  0  0  0
   12.0848   -1.2907    0.2730 H   0  0  0  0  0  0  0  0  0  0  0  0
    2.5798    2.1912    4.3672 H   0  0  0  0  0  0  0  0  0  0  0  0
    3.4983    4.1335    3.8403 H   0  0  0  0  0  0  0  0  0  0  0  0
    2.4550    7.4534   -0.3169 H   0  0  0  0  0  0  0  0  0  0  0  0
    5.4828    6.5061   -4.5961 H   0  0  0  0  0  0  0  0  0  0  0  0
    7.2407    5.6052   -6.0994 H   0  0  0  0  0  0  0  0  0  0  0  0
    7.6584    3.8569   -6.0652 H   0  0  0  0  0  0  0  0  0  0  0  0
    6.0905    4.3885   -6.7843 H   0  0  0  0  0  0  0  0  0  0  0  0
    5.2324    2.0556   -2.3944 H   0  0  0  0  0  0  0  0  0  0  0  0
  1  2  2  3
  2  3  1  0
  3  4  2  0
  3  5  1  0
  5  6  2  0
  6  7  1  0
  7  8  1  0
  7  9  2  0
  9 10  1  0
  9 11  1  0
 11 12  2  0
 12 13  1  0
 13 14  2  3
 14 15  1  0
 15 16  3  0
 14 17  1  0
 17 18  3  0
  1 19  1  0
 19 20  2  0
 20 21  1  0
 21 22  2  0
 22 23  1  0
 23 24  2  0
 24 25  1  0
 25 26  2  0
 26 27  1  0
 27 28  2  0
 28 29  1  0
 29 30  1  0
 30 31  1  0
 28 32  1  0
 32 33  2  0
 33 34  1  0
 34 35  2  0
 22 36  1  0
 36 37  2  0
 37 38  1  0
 38 39  1  0
 39 40  2  0
 40 41  1  0
 41 42  2  0
 42 43  1  0
 43 44  2  0
 44 45  1  0
 45 46  1  0
 46 47  1  0
 44 48  1  0
 48 49  2  0
 49 50  1  0
 50 51  2  0
 38 52  2  0
 52 53  1  0
 37 54  1  0
 54 55  2  0
 55 56  1  0
 55 57  1  0
 57 58  2  0
 58 59  1  0
 59 60  2  0
 60 61  1  0
 61 62  2  0
 62 63  1  0
 63 64  2  0
 64 65  1  0
 65 66  2  3
 66 67  1  0
 67 68  2  0
 68 69  1  0
 69 70  2  0
 70 71  1  0
 71 72  1  0
 72 73  1  0
 70 74  1  0
 64 75  1  0
 60 76  1  0
 76 77  2  0
 77 78  1  0
 78 79  1  0
 79 80  2  0
 80 81  1  0
 81 82  2  0
 82 83  1  0
 83 84  2  3
 84 85  1  0
 85 86  2  0
 86 87  1  0
 87 88  2  0
 88 89  1  0
 89 90  1  0
 90 91  1  0
 88 92  1  0
 82 93  1  0
 78 94  2  0
 94 95  1  0
 77 96  1  0
 96 97  2  0
 97 98  1  0
 97 99  1  0
 99100  2  0
100101  1  0
101102  1  0
101103  2  0
103104  1  0
104105  1  0
105106  2  0
106107  1  0
107108  1  0
103109  1  0
109110  2  3
110111  1  0
111112  2  0
111113  1  0
113114  2  0
114115  1  0
115116  1  0
115117  2  0
117118  1  0
117119  1  0
119120  2  0
120121  1  0
121122  2  3
122123  1  0
123124  3  0
122125  1  0
125126  3  0
 13  2  1  0
 53 19  1  0
 95 57  1  0
105 99  1  0
121110  1  0
 12  5  1  0
 52 21  1  0
 94 59  1  0
108104  2  0
120113  1  0
 35 23  1  0
 56 36  1  0
 75 61  1  0
 98 76  1  0
 34 26  1  0
 51 39  1  0
 74 67  1  0
 93 79  1  0
 49 41  1  0
 92 85  1  0
  1127  1  0
  6128  1  0
 11129  1  0
 20130  1  0
 24131  1  0
 25132  1  0
 27133  1  0
 30134  1  0
 30135  1  0
 31136  1  0
 31137  1  0
 31138  1  0
 32139  1  0
 33140  1  0
 35141  1  0
 40142  1  0
 42143  1  0
 43144  1  0
 46145  1  0
 46146  1  0
 47147  1  0
 47148  1  0
 47149  1  0
 48150  1  0
 50151  1  0
 51152  1  0
 54153  1  0
 58154  1  0
 62155  1  0
 63156  1  0
 65157  1  0
 66158  1  0
 68159  1  0
 69160  1  0
 72161  1  0
 72162  1  0
 73163  1  0
 73164  1  0
 73165  1  0
 80166  1  0
 81167  1  0
 83168  1  0
 84169  1  0
 86170  1  0
 87171  1  0
 90172  1  0
 90173  1  0
 91174  1  0
 91175  1  0
 91176  1  0
 96177  1  0
100178  1  0
109179  1  0
114180  1  0
116181  1  0
116182  1  0
116183  1  0
119184  1  0
M  END

