
     RDKit          3D

133143  0  0  0  0  0  0  0  0999 V2000
    3.4418   -2.9821   12.0085 N   0  0  0  0  0  0  0  0  0  0  0  0
    2.8229   -2.8813   11.0349 C   0  0  0  0  0  0  0  0  0  0  0  0
    2.0441   -2.7620    9.8315 C   0  0  0  0  0  0  0  0  0  0  0  0
    0.6589   -2.6952    9.7664 C   0  0  0  0  0  0  0  0  0  0  0  0
    0.1765   -2.5729    8.4560 C   0  0  0  0  0  0  0  0  0  0  0  0
    1.1912   -2.5346    7.4994 C   0  0  0  0  0  0  0  0  0  0  0  0
    2.6761   -2.6646    8.2761 S   0  0  0  0  0  0  0  0  0  0  0  0
    1.0112   -2.3666    6.0483 C   0  0  0  0  0  0  0  0  0  0  0  0
    2.0347   -2.2108    5.1208 C   0  0  0  0  0  0  0  0  0  0  0  0
    1.5746   -1.9323    3.8253 C   0  0  0  0  0  0  0  0  0  0  0  0
    2.4946   -1.5550    2.7282 C   0  0  0  0  0  0  0  0  0  0  0  0
    3.2892   -0.3918    2.8199 C   0  0  0  0  0  0  0  0  0  0  0  0
    3.3737    0.3265    4.0130 O   0  0  0  0  0  0  0  0  0  0  0  0
    2.3945    1.2990    4.3697 C   0  0  0  0  0  0  0  0  0  0  0  0
    2.8167    1.9901    5.6507 C   0  0  0  0  0  0  0  0  0  0  0  0
    4.0394    0.0379    1.7205 C   0  0  0  0  0  0  0  0  0  0  0  0
    4.0194   -0.6821    0.5270 C   0  0  0  0  0  0  0  0  0  0  0  0
    3.3078   -1.8815    0.4555 C   0  0  0  0  0  0  0  0  0  0  0  0
    2.5817   -2.3442    1.5572 C   0  0  0  0  0  0  0  0  0  0  0  0
    1.9885   -3.6047    1.4910 O   0  0  0  0  0  0  0  0  0  0  0  0
    2.5368   -4.7146    2.2035 C   0  0  0  0  0  0  0  0  0  0  0  0
    2.2451   -6.0020    1.4451 C   0  0  0  0  0  0  0  0  0  0  0  0
    0.1673   -1.8759    3.7281 C   0  0  0  0  0  0  0  0  0  0  0  0
   -0.4647   -2.1587    5.2609 S   0  0  0  0  0  0  0  0  0  0  0  0
   -0.5925   -1.2953    2.6022 C   0  0  0  0  0  0  0  0  0  0  0  0
   -0.6056    0.0949    2.3880 C   0  0  0  0  0  0  0  0  0  0  0  0
   -1.2897    0.9691    3.3171 N   0  0  0  0  0  0  0  0  0  0  0  0
   -2.5442    0.5285    3.8646 C   0  0  0  0  0  0  0  0  0  0  0  0
   -3.6157    0.2434    3.0048 C   0  0  0  0  0  0  0  0  0  0  0  0
   -4.8294   -0.2293    3.5194 C   0  0  0  0  0  0  0  0  0  0  0  0
   -4.9740   -0.4393    4.8951 C   0  0  0  0  0  0  0  0  0  0  0  0
   -6.5117   -1.0943    5.5464 S   0  0  0  0  0  0  0  0  0  0  0  0
   -6.0070   -2.8345    5.3143 C   0  0  0  0  0  0  0  0  0  0  0  0
   -3.9101   -0.1461    5.7575 C   0  0  0  0  0  0  0  0  0  0  0  0
   -2.7025    0.3493    5.2474 C   0  0  0  0  0  0  0  0  0  0  0  0
   -0.9996    2.3681    3.3971 C   0  0  0  0  0  0  0  0  0  0  0  0
   -1.3692    3.2356    2.3565 C   0  0  0  0  0  0  0  0  0  0  0  0
   -1.0824    4.6015    2.4521 C   0  0  0  0  0  0  0  0  0  0  0  0
   -0.4863    5.1199    3.6077 C   0  0  0  0  0  0  0  0  0  0  0  0
   -0.0972    6.8741    3.7096 S   0  0  0  0  0  0  0  0  0  0  0  0
    1.6137    6.6413    3.1480 C   0  0  0  0  0  0  0  0  0  0  0  0
   -0.2063    4.2680    4.6800 C   0  0  0  0  0  0  0  0  0  0  0  0
   -0.4709    2.8994    4.5781 C   0  0  0  0  0  0  0  0  0  0  0  0
   -0.5206    0.3875    1.0202 C   0  0  0  0  0  0  0  0  0  0  0  0
    0.4072    1.5467    0.2472 S   0  0  0  0  0  0  0  0  0  0  0  0
    0.5321    0.7412   -1.2418 C   0  0  0  0  0  0  0  0  0  0  0  0
   -0.1504   -0.4911   -1.1281 C   0  0  0  0  0  0  0  0  0  0  0  0
   -0.4980   -1.3606   -2.2305 N   0  0  0  0  0  0  0  0  0  0  0  0
   -1.0755   -0.8236   -3.4484 C   0  0  0  0  0  0  0  0  0  0  0  0
   -0.9031   -1.5013   -4.6716 C   0  0  0  0  0  0  0  0  0  0  0  0
   -1.3221   -0.9176   -5.8715 C   0  0  0  0  0  0  0  0  0  0  0  0
   -1.9252    0.3445   -5.8688 C   0  0  0  0  0  0  0  0  0  0  0  0
   -2.3910    1.1125   -7.4236 S   0  0  0  0  0  0  0  0  0  0  0  0
   -0.7574    1.8841   -7.6829 C   0  0  0  0  0  0  0  0  0  0  0  0
   -2.1611    0.9972   -4.6568 C   0  0  0  0  0  0  0  0  0  0  0  0
   -1.7490    0.4155   -3.4529 C   0  0  0  0  0  0  0  0  0  0  0  0
   -0.5533   -2.7771   -1.9999 C   0  0  0  0  0  0  0  0  0  0  0  0
    0.6277   -3.5185   -1.9056 C   0  0  0  0  0  0  0  0  0  0  0  0
    0.5782   -4.8852   -1.6063 C   0  0  0  0  0  0  0  0  0  0  0  0
   -0.6492   -5.5063   -1.3588 C   0  0  0  0  0  0  0  0  0  0  0  0
   -0.7273   -7.2406   -0.8998 S   0  0  0  0  0  0  0  0  0  0  0  0
   -0.9324   -7.8203   -2.6131 C   0  0  0  0  0  0  0  0  0  0  0  0
   -1.8333   -4.7640   -1.4627 C   0  0  0  0  0  0  0  0  0  0  0  0
   -1.7881   -3.4115   -1.8014 C   0  0  0  0  0  0  0  0  0  0  0  0
   -0.6371   -0.6800    0.1730 C   0  0  0  0  0  0  0  0  0  0  0  0
   -0.6613   -2.0757    1.1033 S   0  0  0  0  0  0  0  0  0  0  0  0
    1.4834    1.1542   -2.3033 C   0  0  0  0  0  0  0  0  0  0  0  0
    2.4721    2.1301   -2.1698 C   0  0  0  0  0  0  0  0  0  0  0  0
    3.3351    2.2358   -3.2737 C   0  0  0  0  0  0  0  0  0  0  0  0
    4.7850    3.2866   -3.2356 S   0  0  0  0  0  0  0  0  0  0  0  0
    3.9458    4.7650   -3.8968 C   0  0  0  0  0  0  0  0  0  0  0  0
    3.5733    5.6979   -2.7503 C   0  0  0  0  0  0  0  0  0  0  0  0
    3.0183    1.3452   -4.3122 C   0  0  0  0  0  0  0  0  0  0  0  0
    1.7211    0.4122   -3.7883 S   0  0  0  0  0  0  0  0  0  0  0  0
    3.6399    1.1881   -5.6390 C   0  0  0  0  0  0  0  0  0  0  0  0
    3.1751    0.3341   -6.6407 C   0  0  0  0  0  0  0  0  0  0  0  0
    3.9003    0.4220   -7.8349 C   0  0  0  0  0  0  0  0  0  0  0  0
    4.9379    1.3480   -7.7727 C   0  0  0  0  0  0  0  0  0  0  0  0
    5.7913    1.7321   -8.8635 C   0  0  0  0  0  0  0  0  0  0  0  0
    6.4654    2.0583   -9.7393 N   0  0  0  0  0  0  0  0  0  0  0  0
    4.9340    2.0746   -6.2602 S   0  0  0  0  0  0  0  0  0  0  0  0
    0.0143   -2.7474   10.6365 H   0  0  0  0  0  0  0  0  0  0  0  0
   -0.8741   -2.4926    8.2223 H   0  0  0  0  0  0  0  0  0  0  0  0
    3.0808   -2.2451    5.3829 H   0  0  0  0  0  0  0  0  0  0  0  0
    1.4188    0.7962    4.4995 H   0  0  0  0  0  0  0  0  0  0  0  0
    2.2904    2.0544    3.5558 H   0  0  0  0  0  0  0  0  0  0  0  0
    3.7563    2.5686    5.4755 H   0  0  0  0  0  0  0  0  0  0  0  0
    2.0223    2.6944    5.9844 H   0  0  0  0  0  0  0  0  0  0  0  0
    2.9887    1.2490    6.4682 H   0  0  0  0  0  0  0  0  0  0  0  0
    4.6316    0.9341    1.7922 H   0  0  0  0  0  0  0  0  0  0  0  0
    4.5858   -0.3335   -0.3271 H   0  0  0  0  0  0  0  0  0  0  0  0
    3.3423   -2.4685   -0.4494 H   0  0  0  0  0  0  0  0  0  0  0  0
    2.0881   -4.7581    3.2293 H   0  0  0  0  0  0  0  0  0  0  0  0
    3.6392   -4.6132    2.2911 H   0  0  0  0  0  0  0  0  0  0  0  0
    2.6937   -5.9506    0.4326 H   0  0  0  0  0  0  0  0  0  0  0  0
    1.1422   -6.1572    1.3633 H   0  0  0  0  0  0  0  0  0  0  0  0
    2.6905   -6.8704    1.9818 H   0  0  0  0  0  0  0  0  0  0  0  0
   -3.5114    0.3962    1.9407 H   0  0  0  0  0  0  0  0  0  0  0  0
   -5.6449   -0.4572    2.8466 H   0  0  0  0  0  0  0  0  0  0  0  0
   -5.0880   -3.0467    5.8897 H   0  0  0  0  0  0  0  0  0  0  0  0
   -6.8101   -3.5026    5.6684 H   0  0  0  0  0  0  0  0  0  0  0  0
   -5.8299   -3.0411    4.2319 H   0  0  0  0  0  0  0  0  0  0  0  0
   -4.0077   -0.3131    6.8245 H   0  0  0  0  0  0  0  0  0  0  0  0
   -1.8921    0.5586    5.9227 H   0  0  0  0  0  0  0  0  0  0  0  0
   -1.8681    2.8590    1.4740 H   0  0  0  0  0  0  0  0  0  0  0  0
   -1.3375    5.2551    1.6322 H   0  0  0  0  0  0  0  0  0  0  0  0
    1.6566    6.0914    2.1870 H   0  0  0  0  0  0  0  0  0  0  0  0
    2.0964    7.6372    3.0064 H   0  0  0  0  0  0  0  0  0  0  0  0
    2.1872    6.0714    3.9099 H   0  0  0  0  0  0  0  0  0  0  0  0
    0.2161    4.6701    5.5923 H   0  0  0  0  0  0  0  0  0  0  0  0
   -0.2619    2.2587    5.4191 H   0  0  0  0  0  0  0  0  0  0  0  0
   -0.3941   -2.4558   -4.7075 H   0  0  0  0  0  0  0  0  0  0  0  0
   -1.1473   -1.4330   -6.8079 H   0  0  0  0  0  0  0  0  0  0  0  0
   -0.5261    2.5688   -6.8484 H   0  0  0  0  0  0  0  0  0  0  0  0
   -0.7644    2.4606   -8.6321 H   0  0  0  0  0  0  0  0  0  0  0  0
    0.0286    1.0959   -7.7423 H   0  0  0  0  0  0  0  0  0  0  0  0
   -2.6454    1.9624   -4.6436 H   0  0  0  0  0  0  0  0  0  0  0  0
   -1.9375    0.9469   -2.5311 H   0  0  0  0  0  0  0  0  0  0  0  0
    1.5897   -3.0365   -2.0613 H   0  0  0  0  0  0  0  0  0  0  0  0
    1.4934   -5.4498   -1.5560 H   0  0  0  0  0  0  0  0  0  0  0  0
   -1.7424   -7.2565   -3.1210 H   0  0  0  0  0  0  0  0  0  0  0  0
    0.0148   -7.6995   -3.1696 H   0  0  0  0  0  0  0  0  0  0  0  0
   -1.1908   -8.9011   -2.5925 H   0  0  0  0  0  0  0  0  0  0  0  0
   -2.7905   -5.2379   -1.2792 H   0  0  0  0  0  0  0  0  0  0  0  0
   -2.7065   -2.8487   -1.8894 H   0  0  0  0  0  0  0  0  0  0  0  0
    2.6009    2.7264   -1.2758 H   0  0  0  0  0  0  0  0  0  0  0  0
    3.0263    4.5020   -4.4839 H   0  0  0  0  0  0  0  0  0  0  0  0
    4.6516    5.3028   -4.5710 H   0  0  0  0  0  0  0  0  0  0  0  0
    3.1305    6.6303   -3.1617 H   0  0  0  0  0  0  0  0  0  0  0  0
    2.8372    5.2077   -2.0788 H   0  0  0  0  0  0  0  0  0  0  0  0
    4.4866    5.9583   -2.1675 H   0  0  0  0  0  0  0  0  0  0  0  0
    2.3183   -0.3086   -6.5273 H   0  0  0  0  0  0  0  0  0  0  0  0
    3.6637   -0.1528   -8.7202 H   0  0  0  0  0  0  0  0  0  0  0  0
  1  2  3  0
  2  3  1  0
  3  4  2  0
  4  5  1  0
  5  6  2  0
  6  7  1  0
  6  8  1  0
  8  9  2  0
  9 10  1  0
 10 11  1  0
 11 12  2  0
 12 13  1  0
 13 14  1  0
 14 15  1  0
 12 16  1  0
 16 17  2  0
 17 18  1  0
 18 19  2  0
 19 20  1  0
 20 21  1  0
 21 22  1  0
 10 23  2  0
 23 24  1  0
 23 25  1  0
 25 26  2  0
 26 27  1  0
 27 28  1  0
 28 29  2  0
 29 30  1  0
 30 31  2  0
 31 32  1  0
 32 33  1  0
 31 34  1  0
 34 35  2  0
 27 36  1  0
 36 37  2  0
 37 38  1  0
 38 39  2  0
 39 40  1  0
 40 41  1  0
 39 42  1  0
 42 43  2  0
 26 44  1  0
 44 45  1  0
 45 46  1  0
 46 47  2  0
 47 48  1  0
 48 49  1  0
 49 50  2  0
 50 51  1  0
 51 52  2  0
 52 53  1  0
 53 54  1  0
 52 55  1  0
 55 56  2  0
 48 57  1  0
 57 58  2  0
 58 59  1  0
 59 60  2  0
 60 61  1  0
 61 62  1  0
 60 63  1  0
 63 64  2  0
 47 65  1  0
 65 66  1  0
 46 67  1  0
 67 68  2  0
 68 69  1  0
 69 70  1  0
 70 71  1  0
 71 72  1  0
 69 73  2  0
 73 74  1  0
 73 75  1  0
 75 76  2  0
 76 77  1  0
 77 78  2  0
 78 79  1  0
 79 80  3  0
 78 81  1  0
  7  3  1  0
 24  8  1  0
 66 25  1  0
 74 67  1  0
 81 75  1  0
 19 11  1  0
 35 28  1  0
 43 36  1  0
 65 44  2  0
 56 49  1  0
 64 57  1  0
  4 82  1  0
  5 83  1  0
  9 84  1  0
 14 85  1  0
 14 86  1  0
 15 87  1  0
 15 88  1  0
 15 89  1  0
 16 90  1  0
 17 91  1  0
 18 92  1  0
 21 93  1  0
 21 94  1  0
 22 95  1  0
 22 96  1  0
 22 97  1  0
 29 98  1  0
 30 99  1  0
 33100  1  0
 33101  1  0
 33102  1  0
 34103  1  0
 35104  1  0
 37105  1  0
 38106  1  0
 41107  1  0
 41108  1  0
 41109  1  0
 42110  1  0
 43111  1  0
 50112  1  0
 51113  1  0
 54114  1  0
 54115  1  0
 54116  1  0
 55117  1  0
 56118  1  0
 58119  1  0
 59120  1  0
 62121  1  0
 62122  1  0
 62123  1  0
 63124  1  0
 64125  1  0
 68126  1  0
 71127  1  0
 71128  1  0
 72129  1  0
 72130  1  0
 72131  1  0
 76132  1  0
 77133  1  0
M  END

