
     RDKit          3D

228247  0  0  0  0  0  0  0  0999 V2000
    9.6861   -3.8826   -7.5198 N   0  0  0  0  0  0  0  0  0  0  0  0
    8.9014   -3.0742   -7.2419 C   0  0  0  0  0  0  0  0  0  0  0  0
    7.9437   -2.0627   -6.8875 C   0  0  0  0  0  0  0  0  0  0  0  0
    8.0746   -0.7100   -7.1506 C   0  0  0  0  0  0  0  0  0  0  0  0
    7.0704    0.0590   -6.5478 C   0  0  0  0  0  0  0  0  0  0  0  0
    6.1404   -0.6954   -5.8357 C   0  0  0  0  0  0  0  0  0  0  0  0
    6.5981   -2.3160   -5.9160 S   0  0  0  0  0  0  0  0  0  0  0  0
    5.0415   -0.1705   -5.0054 C   0  0  0  0  0  0  0  0  0  0  0  0
    4.4723    1.1230   -5.0801 C   0  0  0  0  0  0  0  0  0  0  0  0
    4.4440    1.9061   -6.2986 N   0  0  0  0  0  0  0  0  0  0  0  0
    4.3837    3.3426   -6.2297 C   0  0  0  0  0  0  0  0  0  0  0  0
    3.3715    4.0381   -6.9136 C   0  0  0  0  0  0  0  0  0  0  0  0
    3.2455    5.4202   -6.7676 C   0  0  0  0  0  0  0  0  0  0  0  0
    4.1208    6.1247   -5.9344 C   0  0  0  0  0  0  0  0  0  0  0  0
    3.8418    7.8689   -5.6095 S   0  0  0  0  0  0  0  0  0  0  0  0
    4.7148    8.4461   -7.0987 C   0  0  0  0  0  0  0  0  0  0  0  0
    5.1474    5.4418   -5.2754 C   0  0  0  0  0  0  0  0  0  0  0  0
    5.2792    4.0554   -5.4196 C   0  0  0  0  0  0  0  0  0  0  0  0
    4.2629    1.2294   -7.5645 C   0  0  0  0  0  0  0  0  0  0  0  0
    3.4153    0.1097   -7.6539 C   0  0  0  0  0  0  0  0  0  0  0  0
    3.4063   -0.6893   -8.7977 C   0  0  0  0  0  0  0  0  0  0  0  0
    4.2419   -0.3784   -9.8745 C   0  0  0  0  0  0  0  0  0  0  0  0
    4.3089   -1.4839  -11.2857 S   0  0  0  0  0  0  0  0  0  0  0  0
    5.4944   -2.6287  -10.4999 C   0  0  0  0  0  0  0  0  0  0  0  0
    5.0316    0.7763   -9.8307 C   0  0  0  0  0  0  0  0  0  0  0  0
    5.0332    1.5871   -8.6886 C   0  0  0  0  0  0  0  0  0  0  0  0
    3.5358    1.2972   -4.0517 C   0  0  0  0  0  0  0  0  0  0  0  0
    2.5050    2.5321   -3.5525 S   0  0  0  0  0  0  0  0  0  0  0  0
    1.6862    1.5760   -2.3997 C   0  0  0  0  0  0  0  0  0  0  0  0
    2.2123    0.2717   -2.4306 C   0  0  0  0  0  0  0  0  0  0  0  0
    1.4579   -0.8830   -2.0154 N   0  0  0  0  0  0  0  0  0  0  0  0
    0.2382   -1.1916   -2.7103 C   0  0  0  0  0  0  0  0  0  0  0  0
    0.2296   -1.3885   -4.1012 C   0  0  0  0  0  0  0  0  0  0  0  0
   -0.9481   -1.7706   -4.7555 C   0  0  0  0  0  0  0  0  0  0  0  0
   -2.1325   -1.9365   -4.0264 C   0  0  0  0  0  0  0  0  0  0  0  0
   -3.6361   -2.4921   -4.8355 S   0  0  0  0  0  0  0  0  0  0  0  0
   -4.0049   -0.9033   -5.6597 C   0  0  0  0  0  0  0  0  0  0  0  0
   -2.1192   -1.7607   -2.6370 C   0  0  0  0  0  0  0  0  0  0  0  0
   -0.9433   -1.3804   -1.9883 C   0  0  0  0  0  0  0  0  0  0  0  0
    2.0415   -1.8892   -1.1674 C   0  0  0  0  0  0  0  0  0  0  0  0
    2.2284   -3.2001   -1.6451 C   0  0  0  0  0  0  0  0  0  0  0  0
    2.7569   -4.1868   -0.8004 C   0  0  0  0  0  0  0  0  0  0  0  0
    3.1028   -3.8701    0.5138 C   0  0  0  0  0  0  0  0  0  0  0  0
    3.7496   -5.1338    1.6173 S   0  0  0  0  0  0  0  0  0  0  0  0
    5.4763   -4.5780    1.4547 C   0  0  0  0  0  0  0  0  0  0  0  0
    2.9181   -2.5729    0.9847 C   0  0  0  0  0  0  0  0  0  0  0  0
    2.4128   -1.5824    0.1437 C   0  0  0  0  0  0  0  0  0  0  0  0
    3.2719    0.1807   -3.3232 C   0  0  0  0  0  0  0  0  0  0  0  0
    4.2638   -1.0802   -3.7991 S   0  0  0  0  0  0  0  0  0  0  0  0
    0.9227    2.0932   -1.2511 C   0  0  0  0  0  0  0  0  0  0  0  0
   -0.4621    1.8783   -1.0815 C   0  0  0  0  0  0  0  0  0  0  0  0
   -1.4555    2.1291   -2.1059 N   0  0  0  0  0  0  0  0  0  0  0  0
   -2.8453    2.1951   -1.7416 C   0  0  0  0  0  0  0  0  0  0  0  0
   -3.3107    3.2461   -0.9306 C   0  0  0  0  0  0  0  0  0  0  0  0
   -4.6737    3.3622   -0.6465 C   0  0  0  0  0  0  0  0  0  0  0  0
   -5.5846    2.4443   -1.1840 C   0  0  0  0  0  0  0  0  0  0  0  0
   -7.3426    2.6352   -0.8861 S   0  0  0  0  0  0  0  0  0  0  0  0
   -7.6268    3.5994   -2.4088 C   0  0  0  0  0  0  0  0  0  0  0  0
   -5.1240    1.3852   -1.9679 C   0  0  0  0  0  0  0  0  0  0  0  0
   -3.7598    1.2703   -2.2503 C   0  0  0  0  0  0  0  0  0  0  0  0
   -1.1149    2.9386   -3.2510 C   0  0  0  0  0  0  0  0  0  0  0  0
   -0.4829    4.1847   -3.0711 C   0  0  0  0  0  0  0  0  0  0  0  0
   -0.2392    5.0204   -4.1673 C   0  0  0  0  0  0  0  0  0  0  0  0
   -0.6970    4.6542   -5.4392 C   0  0  0  0  0  0  0  0  0  0  0  0
   -0.4789    5.7772   -6.8186 S   0  0  0  0  0  0  0  0  0  0  0  0
   -1.9271    6.7897   -6.3808 C   0  0  0  0  0  0  0  0  0  0  0  0
   -1.3121    3.4126   -5.6290 C   0  0  0  0  0  0  0  0  0  0  0  0
   -1.5087    2.5517   -4.5402 C   0  0  0  0  0  0  0  0  0  0  0  0
   -0.7630    1.5960    0.2581 C   0  0  0  0  0  0  0  0  0  0  0  0
   -1.9680    0.6819    0.9798 S   0  0  0  0  0  0  0  0  0  0  0  0
   -1.1736    0.4941    2.4756 C   0  0  0  0  0  0  0  0  0  0  0  0
    0.0516    1.1961    2.4091 C   0  0  0  0  0  0  0  0  0  0  0  0
    0.8820    1.5072    3.5507 N   0  0  0  0  0  0  0  0  0  0  0  0
    0.3345    2.2373    4.6739 C   0  0  0  0  0  0  0  0  0  0  0  0
    0.9368    2.1423    5.9463 C   0  0  0  0  0  0  0  0  0  0  0  0
    0.4122    2.8472    7.0348 C   0  0  0  0  0  0  0  0  0  0  0  0
   -0.7054    3.6645    6.8675 C   0  0  0  0  0  0  0  0  0  0  0  0
   -1.3225    4.6282    8.2530 S   0  0  0  0  0  0  0  0  0  0  0  0
   -2.3859    3.2975    8.8933 C   0  0  0  0  0  0  0  0  0  0  0  0
   -1.3238    3.7601    5.6177 C   0  0  0  0  0  0  0  0  0  0  0  0
   -0.8057    3.0500    4.5270 C   0  0  0  0  0  0  0  0  0  0  0  0
    2.2994    1.3095    3.4625 C   0  0  0  0  0  0  0  0  0  0  0  0
    2.8320    0.0130    3.4842 C   0  0  0  0  0  0  0  0  0  0  0  0
    4.2114   -0.1803    3.3643 C   0  0  0  0  0  0  0  0  0  0  0  0
    5.0643    0.9183    3.1990 C   0  0  0  0  0  0  0  0  0  0  0  0
    6.8143    0.6503    2.9368 S   0  0  0  0  0  0  0  0  0  0  0  0
    6.6288    0.5171    1.1264 C   0  0  0  0  0  0  0  0  0  0  0  0
    4.5388    2.2133    3.2156 C   0  0  0  0  0  0  0  0  0  0  0  0
    3.1607    2.4109    3.3624 C   0  0  0  0  0  0  0  0  0  0  0  0
    0.2607    1.7296    1.1324 C   0  0  0  0  0  0  0  0  0  0  0  0
    1.6524    2.1058    0.2897 S   0  0  0  0  0  0  0  0  0  0  0  0
   -1.4861   -0.5653    3.4644 C   0  0  0  0  0  0  0  0  0  0  0  0
   -2.3295   -1.6879    3.2803 C   0  0  0  0  0  0  0  0  0  0  0  0
   -3.2318   -1.8902    2.1796 N   0  0  0  0  0  0  0  0  0  0  0  0
   -2.9848   -3.0137    1.3057 C   0  0  0  0  0  0  0  0  0  0  0  0
   -1.6878   -3.2617    0.8200 C   0  0  0  0  0  0  0  0  0  0  0  0
   -1.4540   -4.3127   -0.0724 C   0  0  0  0  0  0  0  0  0  0  0  0
   -2.5063   -5.1544   -0.4512 C   0  0  0  0  0  0  0  0  0  0  0  0
   -2.2379   -6.4665   -1.6457 S   0  0  0  0  0  0  0  0  0  0  0  0
   -2.7329   -5.4295   -3.0567 C   0  0  0  0  0  0  0  0  0  0  0  0
   -3.7823   -4.9571    0.0785 C   0  0  0  0  0  0  0  0  0  0  0  0
   -4.0201   -3.8987    0.9583 C   0  0  0  0  0  0  0  0  0  0  0  0
   -4.4786   -1.1524    2.1257 C   0  0  0  0  0  0  0  0  0  0  0  0
   -5.1604   -0.9934    0.9050 C   0  0  0  0  0  0  0  0  0  0  0  0
   -6.4102   -0.3686    0.8674 C   0  0  0  0  0  0  0  0  0  0  0  0
   -6.9692    0.1454    2.0355 C   0  0  0  0  0  0  0  0  0  0  0  0
   -8.5854    0.9354    1.9965 S   0  0  0  0  0  0  0  0  0  0  0  0
   -9.4858   -0.6281    2.2387 C   0  0  0  0  0  0  0  0  0  0  0  0
   -6.2746    0.0554    3.2411 C   0  0  0  0  0  0  0  0  0  0  0  0
   -5.0403   -0.5912    3.2930 C   0  0  0  0  0  0  0  0  0  0  0  0
   -2.1577   -2.6319    4.2898 C   0  0  0  0  0  0  0  0  0  0  0  0
   -2.7991   -4.1472    4.6350 S   0  0  0  0  0  0  0  0  0  0  0  0
   -1.8452   -4.3788    6.0335 C   0  0  0  0  0  0  0  0  0  0  0  0
   -1.0315   -3.2510    6.2130 C   0  0  0  0  0  0  0  0  0  0  0  0
   -0.1526   -3.0198    7.3245 N   0  0  0  0  0  0  0  0  0  0  0  0
   -0.7321   -2.6604    8.5978 C   0  0  0  0  0  0  0  0  0  0  0  0
   -0.2027   -3.1727    9.7935 C   0  0  0  0  0  0  0  0  0  0  0  0
   -0.7868   -2.8487   11.0221 C   0  0  0  0  0  0  0  0  0  0  0  0
   -1.8998   -1.9993   11.0645 C   0  0  0  0  0  0  0  0  0  0  0  0
   -2.6618   -1.5852   12.6336 S   0  0  0  0  0  0  0  0  0  0  0  0
   -3.8418   -2.9689   12.5611 C   0  0  0  0  0  0  0  0  0  0  0  0
   -2.4302   -1.4821    9.8807 C   0  0  0  0  0  0  0  0  0  0  0  0
   -1.8530   -1.8099    8.6548 C   0  0  0  0  0  0  0  0  0  0  0  0
    1.2652   -2.9043    7.0679 C   0  0  0  0  0  0  0  0  0  0  0  0
    1.8656   -3.6757    6.0522 C   0  0  0  0  0  0  0  0  0  0  0  0
    3.2129   -3.4917    5.7226 C   0  0  0  0  0  0  0  0  0  0  0  0
    3.9839   -2.5592    6.4199 C   0  0  0  0  0  0  0  0  0  0  0  0
    5.7040   -2.3038    5.9903 S   0  0  0  0  0  0  0  0  0  0  0  0
    6.3086   -3.6049    7.1121 C   0  0  0  0  0  0  0  0  0  0  0  0
    3.4001   -1.7992    7.4417 C   0  0  0  0  0  0  0  0  0  0  0  0
    2.0531   -1.9651    7.7639 C   0  0  0  0  0  0  0  0  0  0  0  0
   -1.2418   -2.3076    5.2226 C   0  0  0  0  0  0  0  0  0  0  0  0
   -0.5676   -0.8239    4.8794 S   0  0  0  0  0  0  0  0  0  0  0  0
   -1.8463   -5.5980    6.8606 C   0  0  0  0  0  0  0  0  0  0  0  0
   -0.8222   -6.0294    7.7036 C   0  0  0  0  0  0  0  0  0  0  0  0
   -1.1033   -7.2350    8.3515 C   0  0  0  0  0  0  0  0  0  0  0  0
   -2.3427   -7.7543    8.0081 C   0  0  0  0  0  0  0  0  0  0  0  0
   -2.9064   -8.9735    8.5117 C   0  0  0  0  0  0  0  0  0  0  0  0
   -3.3596   -9.9568    8.9159 N   0  0  0  0  0  0  0  0  0  0  0  0
   -3.0990   -6.7281    6.9116 S   0  0  0  0  0  0  0  0  0  0  0  0
    8.8918   -0.2773   -7.7207 H   0  0  0  0  0  0  0  0  0  0  0  0
    7.0541    1.1417   -6.6017 H   0  0  0  0  0  0  0  0  0  0  0  0
    2.6481    3.5055   -7.5159 H   0  0  0  0  0  0  0  0  0  0  0  0
    2.4409    5.9321   -7.2688 H   0  0  0  0  0  0  0  0  0  0  0  0
    5.7641    8.0868   -7.0957 H   0  0  0  0  0  0  0  0  0  0  0  0
    4.1873    8.0879   -8.0054 H   0  0  0  0  0  0  0  0  0  0  0  0
    4.7201    9.5570   -7.1041 H   0  0  0  0  0  0  0  0  0  0  0  0
    5.8216    5.9843   -4.6248 H   0  0  0  0  0  0  0  0  0  0  0  0
    6.0693    3.5384   -4.8879 H   0  0  0  0  0  0  0  0  0  0  0  0
    2.7945   -0.1799   -6.8130 H   0  0  0  0  0  0  0  0  0  0  0  0
    2.7800   -1.5715   -8.8276 H   0  0  0  0  0  0  0  0  0  0  0  0
    6.4514   -2.1051  -10.2980 H   0  0  0  0  0  0  0  0  0  0  0  0
    5.0831   -3.0265   -9.5486 H   0  0  0  0  0  0  0  0  0  0  0  0
    5.6873   -3.4814  -11.1824 H   0  0  0  0  0  0  0  0  0  0  0  0
    5.6648    1.0323  -10.6695 H   0  0  0  0  0  0  0  0  0  0  0  0
    5.6895    2.4460   -8.6466 H   0  0  0  0  0  0  0  0  0  0  0  0
    1.1481   -1.2971   -4.6755 H   0  0  0  0  0  0  0  0  0  0  0  0
   -0.9390   -1.9474   -5.8260 H   0  0  0  0  0  0  0  0  0  0  0  0
   -5.0732   -0.8879   -5.9554 H   0  0  0  0  0  0  0  0  0  0  0  0
   -3.3794   -0.8094   -6.5691 H   0  0  0  0  0  0  0  0  0  0  0  0
   -3.8181   -0.0316   -5.0020 H   0  0  0  0  0  0  0  0  0  0  0  0
   -3.0118   -1.9315   -2.0531 H   0  0  0  0  0  0  0  0  0  0  0  0
   -0.9422   -1.2391   -0.9177 H   0  0  0  0  0  0  0  0  0  0  0  0
    1.9767   -3.4533   -2.6705 H   0  0  0  0  0  0  0  0  0  0  0  0
    2.9059   -5.1939   -1.1721 H   0  0  0  0  0  0  0  0  0  0  0  0
    6.1385   -5.3184    1.9469 H   0  0  0  0  0  0  0  0  0  0  0  0
    5.6047   -3.5949    1.9536 H   0  0  0  0  0  0  0  0  0  0  0  0
    5.7627   -4.4969    0.3851 H   0  0  0  0  0  0  0  0  0  0  0  0
    3.1843   -2.3390    1.9988 H   0  0  0  0  0  0  0  0  0  0  0  0
    2.2815   -0.5792    0.5267 H   0  0  0  0  0  0  0  0  0  0  0  0
   -2.6144    3.9729   -0.5404 H   0  0  0  0  0  0  0  0  0  0  0  0
   -5.0241    4.1885   -0.0396 H   0  0  0  0  0  0  0  0  0  0  0  0
   -8.7185    3.7366   -2.5481 H   0  0  0  0  0  0  0  0  0  0  0  0
   -7.2206    3.0550   -3.2860 H   0  0  0  0  0  0  0  0  0  0  0  0
   -7.1398    4.5931   -2.3244 H   0  0  0  0  0  0  0  0  0  0  0  0
   -5.8149    0.6728   -2.3938 H   0  0  0  0  0  0  0  0  0  0  0  0
   -3.4147    0.4730   -2.8827 H   0  0  0  0  0  0  0  0  0  0  0  0
   -0.1876    4.5150   -2.0849 H   0  0  0  0  0  0  0  0  0  0  0  0
    0.2509    5.9737   -4.0197 H   0  0  0  0  0  0  0  0  0  0  0  0
   -2.8576    6.1853   -6.4460 H   0  0  0  0  0  0  0  0  0  0  0  0
   -1.9973    7.6500   -7.0806 H   0  0  0  0  0  0  0  0  0  0  0  0
   -1.8151    7.1874   -5.3466 H   0  0  0  0  0  0  0  0  0  0  0  0
   -1.6371    3.1054   -6.6127 H   0  0  0  0  0  0  0  0  0  0  0  0
   -1.9652    1.5859   -4.7024 H   0  0  0  0  0  0  0  0  0  0  0  0
    1.8128    1.5248    6.1024 H   0  0  0  0  0  0  0  0  0  0  0  0
    0.9003    2.7789    7.9992 H   0  0  0  0  0  0  0  0  0  0  0  0
   -1.7710    2.4150    9.1721 H   0  0  0  0  0  0  0  0  0  0  0  0
   -2.9167    3.6679    9.7980 H   0  0  0  0  0  0  0  0  0  0  0  0
   -3.1373    3.0083    8.1287 H   0  0  0  0  0  0  0  0  0  0  0  0
   -2.1890    4.3970    5.4766 H   0  0  0  0  0  0  0  0  0  0  0  0
   -1.2973    3.1442    3.5631 H   0  0  0  0  0  0  0  0  0  0  0  0
    2.1757   -0.8429    3.5873 H   0  0  0  0  0  0  0  0  0  0  0  0
    4.6183   -1.1826    3.3721 H   0  0  0  0  0  0  0  0  0  0  0  0
    7.6177    0.3070    0.6727 H   0  0  0  0  0  0  0  0  0  0  0  0
    6.2359    1.4709    0.7126 H   0  0  0  0  0  0  0  0  0  0  0  0
    5.9364   -0.3135    0.8699 H   0  0  0  0  0  0  0  0  0  0  0  0
    5.1921    3.0692    3.0951 H   0  0  0  0  0  0  0  0  0  0  0  0
    2.7551    3.4109    3.3535 H   0  0  0  0  0  0  0  0  0  0  0  0
   -0.8599   -2.6189    1.1039 H   0  0  0  0  0  0  0  0  0  0  0  0
   -0.4590   -4.4668   -0.4684 H   0  0  0  0  0  0  0  0  0  0  0  0
   -1.9676   -4.6416   -3.2096 H   0  0  0  0  0  0  0  0  0  0  0  0
   -2.7935   -6.0507   -3.9766 H   0  0  0  0  0  0  0  0  0  0  0  0
   -3.7300   -4.9747   -2.8796 H   0  0  0  0  0  0  0  0  0  0  0  0
   -4.5889   -5.6195   -0.1968 H   0  0  0  0  0  0  0  0  0  0  0  0
   -5.0183   -3.7636    1.3581 H   0  0  0  0  0  0  0  0  0  0  0  0
   -4.7402   -1.3701   -0.0218 H   0  0  0  0  0  0  0  0  0  0  0  0
   -6.9431   -0.2933   -0.0738 H   0  0  0  0  0  0  0  0  0  0  0  0
   -9.1652   -1.1140    3.1821 H   0  0  0  0  0  0  0  0  0  0  0  0
  -10.5706   -0.4130    2.2965 H   0  0  0  0  0  0  0  0  0  0  0  0
   -9.2998   -1.3116    1.3860 H   0  0  0  0  0  0  0  0  0  0  0  0
   -6.6982    0.4720    4.1474 H   0  0  0  0  0  0  0  0  0  0  0  0
   -4.5434   -0.6828    4.2504 H   0  0  0  0  0  0  0  0  0  0  0  0
    0.6496   -3.8424    9.7692 H   0  0  0  0  0  0  0  0  0  0  0  0
   -0.3754   -3.2495   11.9374 H   0  0  0  0  0  0  0  0  0  0  0  0
   -3.2982   -3.9347   12.6230 H   0  0  0  0  0  0  0  0  0  0  0  0
   -4.4295   -2.9235   11.6209 H   0  0  0  0  0  0  0  0  0  0  0  0
   -4.5403   -2.8916   13.4201 H   0  0  0  0  0  0  0  0  0  0  0  0
   -3.2972   -0.8321    9.9034 H   0  0  0  0  0  0  0  0  0  0  0  0
   -2.2890   -1.4014    7.7503 H   0  0  0  0  0  0  0  0  0  0  0  0
    1.2852   -4.4097    5.5050 H   0  0  0  0  0  0  0  0  0  0  0  0
    3.6496   -4.0713    4.9178 H   0  0  0  0  0  0  0  0  0  0  0  0
    5.9304   -4.5937    6.7793 H   0  0  0  0  0  0  0  0  0  0  0  0
    5.9690   -3.4024    8.1509 H   0  0  0  0  0  0  0  0  0  0  0  0
    7.4161   -3.6146    7.0865 H   0  0  0  0  0  0  0  0  0  0  0  0
    3.9853   -1.0641    7.9770 H   0  0  0  0  0  0  0  0  0  0  0  0
    1.6202   -1.3402    8.5298 H   0  0  0  0  0  0  0  0  0  0  0  0
    0.1170   -5.5137    7.8357 H   0  0  0  0  0  0  0  0  0  0  0  0
   -0.4185   -7.7127    9.0418 H   0  0  0  0  0  0  0  0  0  0  0  0
  1  2  3  0
  2  3  1  0
  3  4  2  0
  4  5  1  0
  5  6  2  0
  6  7  1  0
  6  8  1  0
  8  9  2  0
  9 10  1  0
 10 11  1  0
 11 12  2  0
 12 13  1  0
 13 14  2  0
 14 15  1  0
 15 16  1  0
 14 17  1  0
 17 18  2  0
 10 19  1  0
 19 20  2  0
 20 21  1  0
 21 22  2  0
 22 23  1  0
 23 24  1  0
 22 25  1  0
 25 26  2  0
  9 27  1  0
 27 28  1  0
 28 29  1  0
 29 30  2  0
 30 31  1  0
 31 32  1  0
 32 33  2  0
 33 34  1  0
 34 35  2  0
 35 36  1  0
 36 37  1  0
 35 38  1  0
 38 39  2  0
 31 40  1  0
 40 41  2  0
 41 42  1  0
 42 43  2  0
 43 44  1  0
 44 45  1  0
 43 46  1  0
 46 47  2  0
 30 48  1  0
 48 49  1  0
 29 50  1  0
 50 51  2  0
 51 52  1  0
 52 53  1  0
 53 54  2  0
 54 55  1  0
 55 56  2  0
 56 57  1  0
 57 58  1  0
 56 59  1  0
 59 60  2  0
 52 61  1  0
 61 62  2  0
 62 63  1  0
 63 64  2  0
 64 65  1  0
 65 66  1  0
 64 67  1  0
 67 68  2  0
 51 69  1  0
 69 70  1  0
 70 71  1  0
 71 72  2  0
 72 73  1  0
 73 74  1  0
 74 75  2  0
 75 76  1  0
 76 77  2  0
 77 78  1  0
 78 79  1  0
 77 80  1  0
 80 81  2  0
 73 82  1  0
 82 83  2  0
 83 84  1  0
 84 85  2  0
 85 86  1  0
 86 87  1  0
 85 88  1  0
 88 89  2  0
 72 90  1  0
 90 91  1  0
 71 92  1  0
 92 93  2  0
 93 94  1  0
 94 95  1  0
 95 96  2  0
 96 97  1  0
 97 98  2  0
 98 99  1  0
 99100  1  0
 98101  1  0
101102  2  0
 94103  1  0
103104  2  0
104105  1  0
105106  2  0
106107  1  0
107108  1  0
106109  1  0
109110  2  0
 93111  1  0
111112  1  0
112113  1  0
113114  2  0
114115  1  0
115116  1  0
116117  2  0
117118  1  0
118119  2  0
119120  1  0
120121  1  0
119122  1  0
122123  2  0
115124  1  0
124125  2  0
125126  1  0
126127  2  0
127128  1  0
128129  1  0
127130  1  0
130131  2  0
114132  1  0
132133  1  0
113134  1  0
134135  2  0
135136  1  0
136137  2  0
137138  1  0
138139  3  0
137140  1  0
  7  3  1  0
 49  8  1  0
 91 50  1  0
133 92  1  0
140134  1  0
 18 11  1  0
 26 19  1  0
 48 27  2  0
 60 53  1  0
 68 61  1  0
 90 69  2  0
102 95  1  0
110103  1  0
132111  2  0
 39 32  1  0
 47 40  1  0
 81 74  1  0
 89 82  1  0
123116  1  0
131124  1  0
  4141  1  0
  5142  1  0
 12143  1  0
 13144  1  0
 16145  1  0
 16146  1  0
 16147  1  0
 17148  1  0
 18149  1  0
 20150  1  0
 21151  1  0
 24152  1  0
 24153  1  0
 24154  1  0
 25155  1  0
 26156  1  0
 33157  1  0
 34158  1  0
 37159  1  0
 37160  1  0
 37161  1  0
 38162  1  0
 39163  1  0
 41164  1  0
 42165  1  0
 45166  1  0
 45167  1  0
 45168  1  0
 46169  1  0
 47170  1  0
 54171  1  0
 55172  1  0
 58173  1  0
 58174  1  0
 58175  1  0
 59176  1  0
 60177  1  0
 62178  1  0
 63179  1  0
 66180  1  0
 66181  1  0
 66182  1  0
 67183  1  0
 68184  1  0
 75185  1  0
 76186  1  0
 79187  1  0
 79188  1  0
 79189  1  0
 80190  1  0
 81191  1  0
 83192  1  0
 84193  1  0
 87194  1  0
 87195  1  0
 87196  1  0
 88197  1  0
 89198  1  0
 96199  1  0
 97200  1  0
100201  1  0
100202  1  0
100203  1  0
101204  1  0
102205  1  0
104206  1  0
105207  1  0
108208  1  0
108209  1  0
108210  1  0
109211  1  0
110212  1  0
117213  1  0
118214  1  0
121215  1  0
121216  1  0
121217  1  0
122218  1  0
123219  1  0
125220  1  0
126221  1  0
129222  1  0
129223  1  0
129224  1  0
130225  1  0
131226  1  0
135227  1  0
136228  1  0
M  END

