
     RDKit          3D

126139  0  0  0  0  0  0  0  0999 V2000
   -7.1832    0.0397   11.1789 N   0  0  0  0  0  0  0  0  0  0  0  0
   -6.1907   -0.3190   10.7031 C   0  0  0  0  0  0  0  0  0  0  0  0
   -4.9592   -0.7743   10.1186 C   0  0  0  0  0  0  0  0  0  0  0  0
   -3.7834   -1.0163   10.8070 C   0  0  0  0  0  0  0  0  0  0  0  0
   -2.7402   -1.4558    9.9787 C   0  0  0  0  0  0  0  0  0  0  0  0
   -3.0949   -1.5503    8.6304 C   0  0  0  0  0  0  0  0  0  0  0  0
   -4.7162   -1.0869    8.4920 S   0  0  0  0  0  0  0  0  0  0  0  0
   -2.2138   -1.9370    7.4954 C   0  0  0  0  0  0  0  0  0  0  0  0
   -2.6847   -1.8042    6.1660 C   0  0  0  0  0  0  0  0  0  0  0  0
   -1.8184   -2.1005    5.1095 C   0  0  0  0  0  0  0  0  0  0  0  0
   -2.0307   -1.8952    3.7836 N   0  0  0  0  0  0  0  0  0  0  0  0
   -3.2616   -1.4016    3.1534 C   0  0  0  0  0  0  0  0  0  0  0  0
   -4.2767   -2.5279    3.0221 C   0  0  0  0  0  0  0  0  0  0  0  0
   -0.8515   -2.2057    3.1854 C   0  0  0  0  0  0  0  0  0  0  0  0
    0.0832   -2.6196    4.1157 C   0  0  0  0  0  0  0  0  0  0  0  0
   -0.5332   -2.5434    5.3454 C   0  0  0  0  0  0  0  0  0  0  0  0
   -0.0360   -2.7063    6.6363 C   0  0  0  0  0  0  0  0  0  0  0  0
   -0.8884   -2.4056    7.7138 C   0  0  0  0  0  0  0  0  0  0  0  0
    1.4119   -2.8693    3.7714 C   0  0  0  0  0  0  0  0  0  0  0  0
    1.8011   -2.6313    2.4402 C   0  0  0  0  0  0  0  0  0  0  0  0
    0.8645   -2.1647    1.4886 C   0  0  0  0  0  0  0  0  0  0  0  0
   -0.4808   -1.9722    1.8600 C   0  0  0  0  0  0  0  0  0  0  0  0
    1.3397   -1.4787    0.2872 C   0  0  0  0  0  0  0  0  0  0  0  0
    1.1617   -1.8740   -1.0527 C   0  0  0  0  0  0  0  0  0  0  0  0
    0.6090   -3.1421   -1.4522 N   0  0  0  0  0  0  0  0  0  0  0  0
    1.4817   -4.2351   -1.7721 C   0  0  0  0  0  0  0  0  0  0  0  0
    1.3041   -5.4820   -1.1537 C   0  0  0  0  0  0  0  0  0  0  0  0
    2.1475   -6.5506   -1.4681 C   0  0  0  0  0  0  0  0  0  0  0  0
    3.1545   -6.3893   -2.4294 C   0  0  0  0  0  0  0  0  0  0  0  0
    4.2107   -7.7771   -2.8738 S   0  0  0  0  0  0  0  0  0  0  0  0
    3.1021   -8.3410   -4.2143 C   0  0  0  0  0  0  0  0  0  0  0  0
    3.3378   -5.1453   -3.0484 C   0  0  0  0  0  0  0  0  0  0  0  0
    2.5094   -4.0689   -2.7164 C   0  0  0  0  0  0  0  0  0  0  0  0
   -0.8037   -3.2524   -1.6942 C   0  0  0  0  0  0  0  0  0  0  0  0
   -1.3365   -2.8808   -2.9390 C   0  0  0  0  0  0  0  0  0  0  0  0
   -2.7195   -2.8228   -3.1250 C   0  0  0  0  0  0  0  0  0  0  0  0
   -3.5802   -3.1663   -2.0766 C   0  0  0  0  0  0  0  0  0  0  0  0
   -5.3550   -3.0255   -2.2972 S   0  0  0  0  0  0  0  0  0  0  0  0
   -5.4470   -1.3513   -1.5787 C   0  0  0  0  0  0  0  0  0  0  0  0
   -3.0547   -3.6227   -0.8616 C   0  0  0  0  0  0  0  0  0  0  0  0
   -1.6702   -3.6714   -0.6742 C   0  0  0  0  0  0  0  0  0  0  0  0
    1.3497   -0.7848   -1.9185 C   0  0  0  0  0  0  0  0  0  0  0  0
    1.0263   -0.4899   -3.5375 S   0  0  0  0  0  0  0  0  0  0  0  0
    1.1832    1.2083   -3.4199 C   0  0  0  0  0  0  0  0  0  0  0  0
    1.4665    1.5448   -2.0843 C   0  0  0  0  0  0  0  0  0  0  0  0
    1.2064    2.8342   -1.4999 N   0  0  0  0  0  0  0  0  0  0  0  0
    2.2915    3.7493   -1.2031 C   0  0  0  0  0  0  0  0  0  0  0  0
    3.6283    3.3096   -1.1560 C   0  0  0  0  0  0  0  0  0  0  0  0
    4.6552    4.2018   -0.8344 C   0  0  0  0  0  0  0  0  0  0  0  0
    4.3626    5.5364   -0.5422 C   0  0  0  0  0  0  0  0  0  0  0  0
    5.6717    6.6512   -0.0225 S   0  0  0  0  0  0  0  0  0  0  0  0
    5.4176    6.3018    1.7482 C   0  0  0  0  0  0  0  0  0  0  0  0
    3.0451    5.9906   -0.6077 C   0  0  0  0  0  0  0  0  0  0  0  0
    2.0154    5.1081   -0.9465 C   0  0  0  0  0  0  0  0  0  0  0  0
   -0.0797    3.0161   -0.8705 C   0  0  0  0  0  0  0  0  0  0  0  0
   -1.2567    2.9491   -1.6301 C   0  0  0  0  0  0  0  0  0  0  0  0
   -2.5044    3.1079   -1.0204 C   0  0  0  0  0  0  0  0  0  0  0  0
   -2.5869    3.3271    0.3601 C   0  0  0  0  0  0  0  0  0  0  0  0
   -4.1904    3.5738    1.1355 S   0  0  0  0  0  0  0  0  0  0  0  0
   -4.3961    1.8191    1.5690 C   0  0  0  0  0  0  0  0  0  0  0  0
   -1.4194    3.3867    1.1279 C   0  0  0  0  0  0  0  0  0  0  0  0
   -0.1732    3.2288    0.5156 C   0  0  0  0  0  0  0  0  0  0  0  0
    1.5926    0.4022   -1.3030 C   0  0  0  0  0  0  0  0  0  0  0  0
    1.6447    0.1902    0.3488 S   0  0  0  0  0  0  0  0  0  0  0  0
    0.8213    2.1686   -4.4882 C   0  0  0  0  0  0  0  0  0  0  0  0
    1.6376    3.2741   -4.7691 C   0  0  0  0  0  0  0  0  0  0  0  0
    1.2314    4.2844   -5.6757 C   0  0  0  0  0  0  0  0  0  0  0  0
    2.1412    5.3903   -5.7760 N   0  0  0  0  0  0  0  0  0  0  0  0
    3.2952    4.9132   -4.7850 S   0  0  0  0  0  4  0  0  0  0  0  0
    2.9158    3.4968   -4.1597 N   0  0  0  0  0  0  0  0  0  0  0  0
    0.0094    4.2026   -6.3683 C   0  0  0  0  0  0  0  0  0  0  0  0
   -0.7872    3.0630   -6.1402 C   0  0  0  0  0  0  0  0  0  0  0  0
   -1.9720    2.8502   -6.7763 N   0  0  0  0  0  0  0  0  0  0  0  0
   -2.4389    1.4180   -6.0996 S   0  0  0  0  0  0  0  0  0  0  0  0
   -1.2417    1.0092   -5.0367 N   0  0  0  0  0  0  0  0  0  0  0  0
   -0.3817    2.0491   -5.2077 C   0  0  0  0  0  0  0  0  0  0  0  0
   -0.4395    5.2987   -7.2598 C   0  0  0  0  0  0  0  0  0  0  0  0
    0.3738    6.0645   -8.1017 C   0  0  0  0  0  0  0  0  0  0  0  0
   -0.3113    7.0978   -8.7527 C   0  0  0  0  0  0  0  0  0  0  0  0
   -1.6563    7.1509   -8.4176 C   0  0  0  0  0  0  0  0  0  0  0  0
   -2.5990    8.1227   -8.8957 C   0  0  0  0  0  0  0  0  0  0  0  0
   -3.3563    8.9047   -9.2886 N   0  0  0  0  0  0  0  0  0  0  0  0
   -2.0027    5.9276   -7.3185 S   0  0  0  0  0  0  0  0  0  0  0  0
   -3.6781   -0.8853   11.8761 H   0  0  0  0  0  0  0  0  0  0  0  0
   -1.7557   -1.6753   10.3710 H   0  0  0  0  0  0  0  0  0  0  0  0
   -3.6824   -1.4424    5.9563 H   0  0  0  0  0  0  0  0  0  0  0  0
   -3.0550   -0.9825    2.1483 H   0  0  0  0  0  0  0  0  0  0  0  0
   -3.6908   -0.5757    3.7604 H   0  0  0  0  0  0  0  0  0  0  0  0
   -5.1844   -2.1611    2.4952 H   0  0  0  0  0  0  0  0  0  0  0  0
   -3.8448   -3.3670    2.4405 H   0  0  0  0  0  0  0  0  0  0  0  0
   -4.5772   -2.8931    4.0254 H   0  0  0  0  0  0  0  0  0  0  0  0
    0.9850   -3.0226    6.8089 H   0  0  0  0  0  0  0  0  0  0  0  0
   -0.4972   -2.5230    8.7145 H   0  0  0  0  0  0  0  0  0  0  0  0
    2.1412   -3.1571    4.5209 H   0  0  0  0  0  0  0  0  0  0  0  0
    2.8458   -2.7282    2.1702 H   0  0  0  0  0  0  0  0  0  0  0  0
   -1.1747   -1.5380    1.1551 H   0  0  0  0  0  0  0  0  0  0  0  0
    0.5257   -5.6218   -0.4118 H   0  0  0  0  0  0  0  0  0  0  0  0
    2.0084   -7.5075   -0.9808 H   0  0  0  0  0  0  0  0  0  0  0  0
    3.5562   -9.2276   -4.7019 H   0  0  0  0  0  0  0  0  0  0  0  0
    2.1129   -8.6258   -3.7961 H   0  0  0  0  0  0  0  0  0  0  0  0
    2.9824   -7.5393   -4.9701 H   0  0  0  0  0  0  0  0  0  0  0  0
    4.1111   -5.0172   -3.7998 H   0  0  0  0  0  0  0  0  0  0  0  0
    2.6553   -3.1164   -3.2096 H   0  0  0  0  0  0  0  0  0  0  0  0
   -0.6836   -2.6280   -3.7566 H   0  0  0  0  0  0  0  0  0  0  0  0
   -3.1173   -2.5013   -4.0830 H   0  0  0  0  0  0  0  0  0  0  0  0
   -6.3880   -0.8690   -1.9092 H   0  0  0  0  0  0  0  0  0  0  0  0
   -4.5988   -0.7256   -1.9181 H   0  0  0  0  0  0  0  0  0  0  0  0
   -5.4403   -1.4187   -0.4739 H   0  0  0  0  0  0  0  0  0  0  0  0
   -3.7154   -3.9037   -0.0527 H   0  0  0  0  0  0  0  0  0  0  0  0
   -1.2722   -4.0074    0.2750 H   0  0  0  0  0  0  0  0  0  0  0  0
    3.8834    2.2790   -1.3596 H   0  0  0  0  0  0  0  0  0  0  0  0
    5.6785    3.8527   -0.7964 H   0  0  0  0  0  0  0  0  0  0  0  0
    5.5992    5.2262    1.9579 H   0  0  0  0  0  0  0  0  0  0  0  0
    6.1290    6.9052    2.3467 H   0  0  0  0  0  0  0  0  0  0  0  0
    4.3819    6.5716    2.0458 H   0  0  0  0  0  0  0  0  0  0  0  0
    2.8109    7.0256   -0.3862 H   0  0  0  0  0  0  0  0  0  0  0  0
    1.0013    5.4817   -0.9957 H   0  0  0  0  0  0  0  0  0  0  0  0
   -1.2121    2.7862   -2.6958 H   0  0  0  0  0  0  0  0  0  0  0  0
   -3.4025    3.0605   -1.6230 H   0  0  0  0  0  0  0  0  0  0  0  0
   -5.3345    1.7029    2.1463 H   0  0  0  0  0  0  0  0  0  0  0  0
   -3.5418    1.4834    2.1932 H   0  0  0  0  0  0  0  0  0  0  0  0
   -4.4625    1.2095    0.6461 H   0  0  0  0  0  0  0  0  0  0  0  0
   -1.4785    3.5562    2.1959 H   0  0  0  0  0  0  0  0  0  0  0  0
    0.7238    3.2678    1.1262 H   0  0  0  0  0  0  0  0  0  0  0  0
    1.4336    5.8881   -8.2437 H   0  0  0  0  0  0  0  0  0  0  0  0
    0.1665    7.7931   -9.4332 H   0  0  0  0  0  0  0  0  0  0  0  0
  1  2  3  0
  2  3  1  0
  3  4  2  0
  4  5  1  0
  5  6  2  0
  6  7  1  0
  6  8  1  0
  8  9  2  0
  9 10  1  0
 10 11  1  0
 11 12  1  0
 12 13  1  0
 11 14  1  0
 14 15  2  0
 15 16  1  0
 16 17  1  0
 17 18  2  0
 15 19  1  0
 19 20  2  0
 20 21  1  0
 21 22  2  0
 21 23  1  0
 23 24  2  0
 24 25  1  0
 25 26  1  0
 26 27  2  0
 27 28  1  0
 28 29  2  0
 29 30  1  0
 30 31  1  0
 29 32  1  0
 32 33  2  0
 25 34  1  0
 34 35  2  0
 35 36  1  0
 36 37  2  0
 37 38  1  0
 38 39  1  0
 37 40  1  0
 40 41  2  0
 24 42  1  0
 42 43  1  0
 43 44  1  0
 44 45  2  0
 45 46  1  0
 46 47  1  0
 47 48  2  0
 48 49  1  0
 49 50  2  0
 50 51  1  0
 51 52  1  0
 50 53  1  0
 53 54  2  0
 46 55  1  0
 55 56  2  0
 56 57  1  0
 57 58  2  0
 58 59  1  0
 59 60  1  0
 58 61  1  0
 61 62  2  0
 45 63  1  0
 63 64  1  0
 44 65  1  0
 65 66  2  0
 66 67  1  0
 67 68  1  0
 68 69  2  0
 69 70  2  0
 67 71  2  0
 71 72  1  0
 72 73  2  0
 73 74  1  0
 74 75  1  0
 75 76  2  0
 71 77  1  0
 77 78  2  0
 78 79  1  0
 79 80  2  0
 80 81  1  0
 81 82  3  0
 80 83  1  0
  7  3  1  0
 18  8  1  0
 64 23  1  0
 76 65  1  0
 83 77  1  0
 16 10  2  0
 33 26  1  0
 41 34  1  0
 63 42  2  0
 70 66  1  0
 76 72  1  0
 22 14  1  0
 54 47  1  0
 62 55  1  0
  4 84  1  0
  5 85  1  0
  9 86  1  0
 12 87  1  0
 12 88  1  0
 13 89  1  0
 13 90  1  0
 13 91  1  0
 17 92  1  0
 18 93  1  0
 19 94  1  0
 20 95  1  0
 22 96  1  0
 27 97  1  0
 28 98  1  0
 31 99  1  0
 31100  1  0
 31101  1  0
 32102  1  0
 33103  1  0
 35104  1  0
 36105  1  0
 39106  1  0
 39107  1  0
 39108  1  0
 40109  1  0
 41110  1  0
 48111  1  0
 49112  1  0
 52113  1  0
 52114  1  0
 52115  1  0
 53116  1  0
 54117  1  0
 56118  1  0
 57119  1  0
 60120  1  0
 60121  1  0
 60122  1  0
 61123  1  0
 62124  1  0
 78125  1  0
 79126  1  0
M  END

