
     RDKit          3D

155169  0  0  0  0  0  0  0  0999 V2000
    3.5785    4.9875    8.5240 C   0  0  0  0  0  0  0  0  0  0  0  0
    4.2662    5.8914    7.8075 C   0  0  0  0  0  0  0  0  0  0  0  0
    4.2366    6.1559    6.3576 C   0  0  0  0  0  0  0  0  0  0  0  0
    3.4507    5.6440    5.5157 O   0  0  0  0  0  0  0  0  0  0  0  0
    5.2232    7.1935    6.0674 C   0  0  0  0  0  0  0  0  0  0  0  0
    5.5893    7.7541    4.8430 C   0  0  0  0  0  0  0  0  0  0  0  0
    6.5938    8.7354    4.8329 C   0  0  0  0  0  0  0  0  0  0  0  0
    7.2040    9.1447    6.0370 C   0  0  0  0  0  0  0  0  0  0  0  0
    6.8113    8.5762    7.2631 C   0  0  0  0  0  0  0  0  0  0  0  0
    5.8157    7.5990    7.2490 C   0  0  0  0  0  0  0  0  0  0  0  0
    5.2466    6.8364    8.3545 C   0  0  0  0  0  0  0  0  0  0  0  0
    5.5644    6.9535    9.5680 O   0  0  0  0  0  0  0  0  0  0  0  0
    2.7442    3.9294    7.9248 C   0  0  0  0  0  0  0  0  0  0  0  0
    1.4188    3.5987    8.2906 C   0  0  0  0  0  0  0  0  0  0  0  0
    0.6670    4.3552    9.3634 C   0  0  0  0  0  0  0  0  0  0  0  0
    1.2420    4.1304   10.7648 C   0  0  0  0  0  0  0  0  0  0  0  0
    0.9279    2.5150    7.5098 C   0  0  0  0  0  0  0  0  0  0  0  0
    1.8978    2.0209    6.6802 C   0  0  0  0  0  0  0  0  0  0  0  0
    3.3261    2.8687    6.7364 S   0  0  0  0  0  0  0  0  0  0  0  0
    1.3674    1.0097    5.8371 C   0  0  0  0  0  0  0  0  0  0  0  0
    0.0464    0.8818    6.0926 C   0  0  0  0  0  0  0  0  0  0  0  0
   -0.4311    1.8216    7.2058 C   0  0  0  0  0  0  0  0  0  0  0  0
   -0.9806    0.8919    8.3360 C   0  0  0  0  0  0  0  0  0  0  0  0
   -1.1027    1.4876    9.7347 C   0  0  0  0  0  0  0  0  0  0  0  0
   -1.5024    2.7399    6.5286 C   0  0  0  0  0  0  0  0  0  0  0  0
   -1.9213    4.0166    7.2515 C   0  0  0  0  0  0  0  0  0  0  0  0
   -0.6339    0.1229    5.1304 C   0  0  0  0  0  0  0  0  0  0  0  0
    0.2237   -0.3032    4.0990 C   0  0  0  0  0  0  0  0  0  0  0  0
    1.7933    0.2983    4.3936 S   0  0  0  0  0  0  0  0  0  0  0  0
   -0.1634   -0.9917    2.8393 C   0  0  0  0  0  0  0  0  0  0  0  0
    0.7716   -1.7451    2.1178 C   0  0  0  0  0  0  0  0  0  0  0  0
    2.0403   -2.0507    2.4420 N   0  0  0  0  0  0  0  0  0  0  0  0
    2.5106   -2.7231    1.3954 N   0  0  0  0  0  0  0  0  0  0  0  0
    3.8988   -3.1516    1.2753 C   0  0  0  0  0  0  0  0  0  0  0  0
    4.7177   -2.0605    0.5928 C   0  0  0  0  0  0  0  0  0  0  0  0
    1.6242   -2.8439    0.4124 N   0  0  0  0  0  0  0  0  0  0  0  0
    0.5193   -2.2349    0.8704 C   0  0  0  0  0  0  0  0  0  0  0  0
   -0.6943   -2.0368    0.2190 C   0  0  0  0  0  0  0  0  0  0  0  0
   -1.6930   -1.3358    0.9344 C   0  0  0  0  0  0  0  0  0  0  0  0
   -1.4323   -0.8166    2.2293 C   0  0  0  0  0  0  0  0  0  0  0  0
   -2.3926   -0.0667    2.8279 F   0  0  0  0  0  0  0  0  0  0  0  0
   -2.8887   -1.0706    0.3562 F   0  0  0  0  0  0  0  0  0  0  0  0
   -0.8535   -2.4064   -1.2029 C   0  0  0  0  0  0  0  0  0  0  0  0
   -1.9225   -3.1031   -1.7905 C   0  0  0  0  0  0  0  0  0  0  0  0
   -3.0258   -3.6732   -1.0708 N   0  0  0  0  0  0  0  0  0  0  0  0
   -4.3849   -3.2990   -1.4124 C   0  0  0  0  0  0  0  0  0  0  0  0
   -4.6519   -2.0549   -2.0210 C   0  0  0  0  0  0  0  0  0  0  0  0
   -5.9537   -1.7018   -2.3832 C   0  0  0  0  0  0  0  0  0  0  0  0
   -7.0128   -2.5789   -2.1397 C   0  0  0  0  0  0  0  0  0  0  0  0
   -8.6880   -2.1071   -2.5809 S   0  0  0  0  0  0  0  0  0  0  0  0
   -8.6079   -2.8689   -4.2327 C   0  0  0  0  0  0  0  0  0  0  0  0
   -6.7662   -3.8157   -1.5362 C   0  0  0  0  0  0  0  0  0  0  0  0
   -5.4624   -4.1783   -1.1809 C   0  0  0  0  0  0  0  0  0  0  0  0
   -2.7429   -4.7615   -0.1721 C   0  0  0  0  0  0  0  0  0  0  0  0
   -1.9573   -5.8437   -0.6000 C   0  0  0  0  0  0  0  0  0  0  0  0
   -1.7103   -6.9200    0.2548 C   0  0  0  0  0  0  0  0  0  0  0  0
   -2.2337   -6.9191    1.5512 C   0  0  0  0  0  0  0  0  0  0  0  0
   -1.9571   -8.3297    2.6269 S   0  0  0  0  0  0  0  0  0  0  0  0
   -0.4029   -7.6683    3.3043 C   0  0  0  0  0  0  0  0  0  0  0  0
   -3.0029   -5.8354    1.9926 C   0  0  0  0  0  0  0  0  0  0  0  0
   -3.2547   -4.7570    1.1350 C   0  0  0  0  0  0  0  0  0  0  0  0
   -1.7429   -3.2402   -3.1638 C   0  0  0  0  0  0  0  0  0  0  0  0
   -2.6168   -3.9715   -4.3958 S   0  0  0  0  0  0  0  0  0  0  0  0
   -1.5192   -3.5002   -5.6162 C   0  0  0  0  0  0  0  0  0  0  0  0
   -0.4512   -2.7941   -5.0428 C   0  0  0  0  0  0  0  0  0  0  0  0
    0.5889   -2.1361   -5.7890 N   0  0  0  0  0  0  0  0  0  0  0  0
    1.3922   -2.8748   -6.7288 C   0  0  0  0  0  0  0  0  0  0  0  0
    1.9364   -4.1233   -6.3822 C   0  0  0  0  0  0  0  0  0  0  0  0
    2.8220   -4.7714   -7.2487 C   0  0  0  0  0  0  0  0  0  0  0  0
    3.1646   -4.1827   -8.4721 C   0  0  0  0  0  0  0  0  0  0  0  0
    4.3705   -4.9696   -9.5387 S   0  0  0  0  0  0  0  0  0  0  0  0
    5.7628   -4.0248   -8.8465 C   0  0  0  0  0  0  0  0  0  0  0  0
    2.5927   -2.9611   -8.8429 C   0  0  0  0  0  0  0  0  0  0  0  0
    1.7144   -2.3105   -7.9752 C   0  0  0  0  0  0  0  0  0  0  0  0
    0.8937   -0.7544   -5.5152 C   0  0  0  0  0  0  0  0  0  0  0  0
    2.2273   -0.3267   -5.3981 C   0  0  0  0  0  0  0  0  0  0  0  0
    2.5173    1.0084   -5.1052 C   0  0  0  0  0  0  0  0  0  0  0  0
    1.4797    1.9314   -4.9406 C   0  0  0  0  0  0  0  0  0  0  0  0
    1.8540    3.6440   -4.5585 S   0  0  0  0  0  0  0  0  0  0  0  0
    1.9728    4.1360   -6.3054 C   0  0  0  0  0  0  0  0  0  0  0  0
    0.1495    1.5140   -5.0600 C   0  0  0  0  0  0  0  0  0  0  0  0
   -0.1426    0.1796   -5.3468 C   0  0  0  0  0  0  0  0  0  0  0  0
   -0.6181   -2.6743   -3.6626 C   0  0  0  0  0  0  0  0  0  0  0  0
    0.2595   -1.9712   -2.4199 S   0  0  0  0  0  0  0  0  0  0  0  0
   -1.7275   -3.7166   -7.0541 C   0  0  0  0  0  0  0  0  0  0  0  0
   -2.7800   -3.2233   -7.7168 C   0  0  0  0  0  0  0  0  0  0  0  0
   -3.8516   -2.3385   -7.2233 C   0  0  0  0  0  0  0  0  0  0  0  0
   -3.9556   -1.8507   -6.0674 O   0  0  0  0  0  0  0  0  0  0  0  0
   -4.7466   -2.0498   -8.3376 C   0  0  0  0  0  0  0  0  0  0  0  0
   -5.8946   -1.2574   -8.3678 C   0  0  0  0  0  0  0  0  0  0  0  0
   -6.5709   -1.1140   -9.5911 C   0  0  0  0  0  0  0  0  0  0  0  0
   -6.0923   -1.7602  -10.7511 C   0  0  0  0  0  0  0  0  0  0  0  0
   -4.9336   -2.5531  -10.6980 C   0  0  0  0  0  0  0  0  0  0  0  0
   -4.2766   -2.6806   -9.4739 C   0  0  0  0  0  0  0  0  0  0  0  0
   -3.0616   -3.4158   -9.1429 C   0  0  0  0  0  0  0  0  0  0  0  0
   -2.3671   -4.0960   -9.9481 O   0  0  0  0  0  0  0  0  0  0  0  0
    3.7049    4.9827    9.5963 H   0  0  0  0  0  0  0  0  0  0  0  0
    5.1198    7.4323    3.9223 H   0  0  0  0  0  0  0  0  0  0  0  0
    6.9068    9.1750    3.8963 H   0  0  0  0  0  0  0  0  0  0  0  0
    7.9811    9.8978    6.0174 H   0  0  0  0  0  0  0  0  0  0  0  0
    7.2769    8.8861    8.1901 H   0  0  0  0  0  0  0  0  0  0  0  0
    0.6786    5.4396    9.1269 H   0  0  0  0  0  0  0  0  0  0  0  0
   -0.3871    4.0486    9.3860 H   0  0  0  0  0  0  0  0  0  0  0  0
    1.9819    4.9156   11.0183 H   0  0  0  0  0  0  0  0  0  0  0  0
    1.7241    3.1347   10.8564 H   0  0  0  0  0  0  0  0  0  0  0  0
    0.4287    4.1952   11.5187 H   0  0  0  0  0  0  0  0  0  0  0  0
   -0.3199   -0.0007    8.4373 H   0  0  0  0  0  0  0  0  0  0  0  0
   -1.9791    0.5050    8.0324 H   0  0  0  0  0  0  0  0  0  0  0  0
   -1.4985    0.7111   10.4216 H   0  0  0  0  0  0  0  0  0  0  0  0
   -0.1091    1.7815   10.1146 H   0  0  0  0  0  0  0  0  0  0  0  0
   -1.8178    2.3277    9.7566 H   0  0  0  0  0  0  0  0  0  0  0  0
   -2.4213    2.1447    6.3379 H   0  0  0  0  0  0  0  0  0  0  0  0
   -1.1230    3.0605    5.5317 H   0  0  0  0  0  0  0  0  0  0  0  0
   -1.0641    4.7097    7.3331 H   0  0  0  0  0  0  0  0  0  0  0  0
   -2.3797    3.8020    8.2308 H   0  0  0  0  0  0  0  0  0  0  0  0
   -2.6855    4.5383    6.6390 H   0  0  0  0  0  0  0  0  0  0  0  0
   -1.6997   -0.0501    5.1591 H   0  0  0  0  0  0  0  0  0  0  0  0
    3.9540   -4.0860    0.6775 H   0  0  0  0  0  0  0  0  0  0  0  0
    4.3183   -3.3560    2.2824 H   0  0  0  0  0  0  0  0  0  0  0  0
    5.7759   -2.3843    0.5137 H   0  0  0  0  0  0  0  0  0  0  0  0
    4.6701   -1.1201    1.1840 H   0  0  0  0  0  0  0  0  0  0  0  0
    4.3190   -1.8698   -0.4272 H   0  0  0  0  0  0  0  0  0  0  0  0
   -3.8547   -1.3548   -2.2243 H   0  0  0  0  0  0  0  0  0  0  0  0
   -6.1371   -0.7437   -2.8531 H   0  0  0  0  0  0  0  0  0  0  0  0
   -9.5257   -2.6034   -4.8008 H   0  0  0  0  0  0  0  0  0  0  0  0
   -7.7195   -2.5040   -4.7850 H   0  0  0  0  0  0  0  0  0  0  0  0
   -8.5599   -3.9710   -4.1308 H   0  0  0  0  0  0  0  0  0  0  0  0
   -7.5827   -4.5011   -1.3485 H   0  0  0  0  0  0  0  0  0  0  0  0
   -5.3038   -5.1545   -0.7450 H   0  0  0  0  0  0  0  0  0  0  0  0
   -1.5578   -5.8679   -1.6064 H   0  0  0  0  0  0  0  0  0  0  0  0
   -1.1209   -7.7595   -0.0951 H   0  0  0  0  0  0  0  0  0  0  0  0
    0.0600   -8.4318    3.9648 H   0  0  0  0  0  0  0  0  0  0  0  0
   -0.6112   -6.7556    3.8993 H   0  0  0  0  0  0  0  0  0  0  0  0
    0.3044   -7.4284    2.4839 H   0  0  0  0  0  0  0  0  0  0  0  0
   -3.4124   -5.8350    2.9941 H   0  0  0  0  0  0  0  0  0  0  0  0
   -3.8574   -3.9304    1.4853 H   0  0  0  0  0  0  0  0  0  0  0  0
    1.7077   -4.5718   -5.4229 H   0  0  0  0  0  0  0  0  0  0  0  0
    3.2644   -5.7129   -6.9556 H   0  0  0  0  0  0  0  0  0  0  0  0
    5.6432   -2.9510   -9.0988 H   0  0  0  0  0  0  0  0  0  0  0  0
    6.7136   -4.3929   -9.2822 H   0  0  0  0  0  0  0  0  0  0  0  0
    5.7988   -4.1448   -7.7444 H   0  0  0  0  0  0  0  0  0  0  0  0
    2.8543   -2.5007   -9.7890 H   0  0  0  0  0  0  0  0  0  0  0  0
    1.2966   -1.3540   -8.2642 H   0  0  0  0  0  0  0  0  0  0  0  0
    3.0439   -1.0288   -5.5106 H   0  0  0  0  0  0  0  0  0  0  0  0
    3.5487    1.3268   -5.0105 H   0  0  0  0  0  0  0  0  0  0  0  0
    2.2241    5.2164   -6.3583 H   0  0  0  0  0  0  0  0  0  0  0  0
    1.0027    3.9627   -6.8129 H   0  0  0  0  0  0  0  0  0  0  0  0
    2.7704    3.5525   -6.8086 H   0  0  0  0  0  0  0  0  0  0  0  0
   -0.6565    2.2240   -4.9347 H   0  0  0  0  0  0  0  0  0  0  0  0
   -1.1760   -0.1276   -5.4415 H   0  0  0  0  0  0  0  0  0  0  0  0
   -0.9759   -4.2796   -7.5952 H   0  0  0  0  0  0  0  0  0  0  0  0
   -6.2544   -0.7636   -7.4740 H   0  0  0  0  0  0  0  0  0  0  0  0
   -7.4611   -0.4998   -9.6440 H   0  0  0  0  0  0  0  0  0  0  0  0
   -6.6194   -1.6408  -11.6886 H   0  0  0  0  0  0  0  0  0  0  0  0
   -4.5595   -3.0505  -11.5835 H   0  0  0  0  0  0  0  0  0  0  0  0
  1  2  2  3
  2  3  1  0
  3  4  2  0
  3  5  1  0
  5  6  2  0
  6  7  1  0
  7  8  2  0
  8  9  1  0
  9 10  2  0
 10 11  1  0
 11 12  2  0
  1 13  1  0
 13 14  2  0
 14 15  1  0
 15 16  1  0
 14 17  1  0
 17 18  2  0
 18 19  1  0
 18 20  1  0
 20 21  2  0
 21 22  1  0
 22 23  1  0
 23 24  1  0
 22 25  1  0
 25 26  1  0
 21 27  1  0
 27 28  2  0
 28 29  1  0
 28 30  1  0
 30 31  1  0
 31 32  2  0
 32 33  1  0
 33 34  1  0
 34 35  1  0
 33 36  1  0
 36 37  2  0
 37 38  1  0
 38 39  2  0
 39 40  1  0
 40 41  1  0
 39 42  1  0
 38 43  1  0
 43 44  2  0
 44 45  1  0
 45 46  1  0
 46 47  2  0
 47 48  1  0
 48 49  2  0
 49 50  1  0
 50 51  1  0
 49 52  1  0
 52 53  2  0
 45 54  1  0
 54 55  2  0
 55 56  1  0
 56 57  2  0
 57 58  1  0
 58 59  1  0
 57 60  1  0
 60 61  2  0
 44 62  1  0
 62 63  1  0
 63 64  1  0
 64 65  2  0
 65 66  1  0
 66 67  1  0
 67 68  2  0
 68 69  1  0
 69 70  2  0
 70 71  1  0
 71 72  1  0
 70 73  1  0
 73 74  2  0
 66 75  1  0
 75 76  2  0
 76 77  1  0
 77 78  2  0
 78 79  1  0
 79 80  1  0
 78 81  1  0
 81 82  2  0
 65 83  1  0
 83 84  1  0
 64 85  1  0
 85 86  2  3
 86 87  1  0
 87 88  2  0
 87 89  1  0
 89 90  2  0
 90 91  1  0
 91 92  2  0
 92 93  1  0
 93 94  2  0
 94 95  1  0
 95 96  2  0
 11  2  1  0
 19 13  1  0
 29 20  1  0
 40 30  2  0
 84 43  1  0
 95 86  1  0
 10  5  1  0
 22 17  1  0
 37 31  1  0
 53 46  1  0
 61 54  1  0
 83 62  2  0
 94 89  1  0
 74 67  1  0
 82 75  1  0
  1 97  1  0
  6 98  1  0
  7 99  1  0
  8100  1  0
  9101  1  0
 15102  1  0
 15103  1  0
 16104  1  0
 16105  1  0
 16106  1  0
 23107  1  0
 23108  1  0
 24109  1  0
 24110  1  0
 24111  1  0
 25112  1  0
 25113  1  0
 26114  1  0
 26115  1  0
 26116  1  0
 27117  1  0
 34118  1  0
 34119  1  0
 35120  1  0
 35121  1  0
 35122  1  0
 47123  1  0
 48124  1  0
 51125  1  0
 51126  1  0
 51127  1  0
 52128  1  0
 53129  1  0
 55130  1  0
 56131  1  0
 59132  1  0
 59133  1  0
 59134  1  0
 60135  1  0
 61136  1  0
 68137  1  0
 69138  1  0
 72139  1  0
 72140  1  0
 72141  1  0
 73142  1  0
 74143  1  0
 76144  1  0
 77145  1  0
 80146  1  0
 80147  1  0
 80148  1  0
 81149  1  0
 82150  1  0
 85151  1  0
 90152  1  0
 91153  1  0
 92154  1  0
 93155  1  0
M  END

