
     RDKit          3D

227247  0  0  0  0  0  0  0  0999 V2000
    3.2671   -5.7224    3.0016 C   0  0  0  0  0  0  0  0  0  0  0  0
    4.4492   -5.8236    3.6349 C   0  0  0  0  0  0  0  0  0  0  0  0
    4.6961   -6.9388    4.5520 C   0  0  0  0  0  0  0  0  0  0  0  0
    3.9521   -7.9458    4.7105 O   0  0  0  0  0  0  0  0  0  0  0  0
    5.9408   -6.7195    5.2321 C   0  0  0  0  0  0  0  0  0  0  0  0
    6.6039   -7.6041    6.0870 C   0  0  0  0  0  0  0  0  0  0  0  0
    7.8946   -7.2785    6.5273 C   0  0  0  0  0  0  0  0  0  0  0  0
    8.6439   -8.2125    7.4371 C   0  0  0  0  0  0  0  0  0  0  0  0
    8.4727   -6.0517    6.1383 C   0  0  0  0  0  0  0  0  0  0  0  0
    7.7923   -5.1875    5.2599 C   0  0  0  0  0  0  0  0  0  0  0  0
    6.5050   -5.5302    4.8021 C   0  0  0  0  0  0  0  0  0  0  0  0
    5.6415   -4.9102    3.7418 C   0  0  0  0  0  0  0  0  0  0  0  0
    6.0247   -3.9179    2.9042 C   0  0  0  0  0  0  0  0  0  0  0  0
    5.5284   -3.7679    1.5606 C   0  0  0  0  0  0  0  0  0  0  0  0
    5.1658   -3.6460    0.4681 N   0  0  0  0  0  0  0  0  0  0  0  0
    6.9951   -2.9237    3.2974 C   0  0  0  0  0  0  0  0  0  0  0  0
    7.7644   -2.1162    3.6099 N   0  0  0  0  0  0  0  0  0  0  0  0
    2.8196   -4.6975    2.0615 C   0  0  0  0  0  0  0  0  0  0  0  0
    2.3152   -5.0184    0.7903 C   0  0  0  0  0  0  0  0  0  0  0  0
    2.3339   -6.3372    0.2224 N   0  0  0  0  0  0  0  0  0  0  0  0
    3.6137   -6.8586   -0.1698 C   0  0  0  0  0  0  0  0  0  0  0  0
    4.1448   -7.9926    0.4647 C   0  0  0  0  0  0  0  0  0  0  0  0
    5.3787   -8.5093    0.0625 C   0  0  0  0  0  0  0  0  0  0  0  0
    6.0967   -7.8860   -0.9669 C   0  0  0  0  0  0  0  0  0  0  0  0
    7.6356   -8.5970   -1.5475 S   0  0  0  0  0  0  0  0  0  0  0  0
    6.8150   -9.6307   -2.8007 C   0  0  0  0  0  0  0  0  0  0  0  0
    5.5927   -6.7268   -1.5696 C   0  0  0  0  0  0  0  0  0  0  0  0
    4.3591   -6.2093   -1.1671 C   0  0  0  0  0  0  0  0  0  0  0  0
    1.1312   -7.1437    0.1578 C   0  0  0  0  0  0  0  0  0  0  0  0
    1.0922   -8.3050   -0.6387 C   0  0  0  0  0  0  0  0  0  0  0  0
   -0.0525   -9.1014   -0.6889 C   0  0  0  0  0  0  0  0  0  0  0  0
   -1.1912   -8.7380    0.0355 C   0  0  0  0  0  0  0  0  0  0  0  0
   -2.6588   -9.7663   -0.0386 S   0  0  0  0  0  0  0  0  0  0  0  0
   -3.3225   -8.9468   -1.5233 C   0  0  0  0  0  0  0  0  0  0  0  0
   -1.1721   -7.5889    0.8329 C   0  0  0  0  0  0  0  0  0  0  0  0
   -0.0203   -6.7968    0.8991 C   0  0  0  0  0  0  0  0  0  0  0  0
    1.7059   -3.9270    0.1993 C   0  0  0  0  0  0  0  0  0  0  0  0
    0.8603   -3.7156   -1.2208 S   0  0  0  0  0  0  0  0  0  0  0  0
    0.3595   -2.1236   -0.8575 C   0  0  0  0  0  0  0  0  0  0  0  0
    0.9094   -1.7586    0.3936 C   0  0  0  0  0  0  0  0  0  0  0  0
    0.7408   -0.4817    1.0271 N   0  0  0  0  0  0  0  0  0  0  0  0
    1.6025    0.6139    0.6490 C   0  0  0  0  0  0  0  0  0  0  0  0
    2.9081    0.3765    0.1721 C   0  0  0  0  0  0  0  0  0  0  0  0
    3.7339    1.4432   -0.1938 C   0  0  0  0  0  0  0  0  0  0  0  0
    3.2697    2.7587   -0.0930 C   0  0  0  0  0  0  0  0  0  0  0  0
    4.3328    4.1293   -0.5571 S   0  0  0  0  0  0  0  0  0  0  0  0
    3.8445    4.0708   -2.3120 C   0  0  0  0  0  0  0  0  0  0  0  0
    1.9758    3.0074    0.3715 C   0  0  0  0  0  0  0  0  0  0  0  0
    1.1454    1.9450    0.7493 C   0  0  0  0  0  0  0  0  0  0  0  0
   -0.1018   -0.3883    2.1937 C   0  0  0  0  0  0  0  0  0  0  0  0
   -1.4302   -0.8467    2.1503 C   0  0  0  0  0  0  0  0  0  0  0  0
   -2.2474   -0.7471    3.2797 C   0  0  0  0  0  0  0  0  0  0  0  0
   -1.7411   -0.2312    4.4740 C   0  0  0  0  0  0  0  0  0  0  0  0
   -2.7960   -0.1245    5.9175 S   0  0  0  0  0  0  0  0  0  0  0  0
   -2.3616   -1.7921    6.5209 C   0  0  0  0  0  0  0  0  0  0  0  0
   -0.4115    0.2027    4.5366 C   0  0  0  0  0  0  0  0  0  0  0  0
    0.4004    0.1353    3.4001 C   0  0  0  0  0  0  0  0  0  0  0  0
    1.6514   -2.8036    0.9542 C   0  0  0  0  0  0  0  0  0  0  0  0
    2.3926   -3.0814    2.4437 S   0  0  0  0  0  0  0  0  0  0  0  0
   -0.7657   -1.4298   -1.5242 C   0  0  0  0  0  0  0  0  0  0  0  0
   -2.1212   -1.8193   -1.3586 C   0  0  0  0  0  0  0  0  0  0  0  0
   -2.6251   -3.1645   -1.5842 N   0  0  0  0  0  0  0  0  0  0  0  0
   -4.0325   -3.4209   -1.4894 C   0  0  0  0  0  0  0  0  0  0  0  0
   -4.5640   -4.0691   -0.3657 C   0  0  0  0  0  0  0  0  0  0  0  0
   -5.9220   -4.4226   -0.3409 C   0  0  0  0  0  0  0  0  0  0  0  0
   -6.7479   -4.1146   -1.4287 C   0  0  0  0  0  0  0  0  0  0  0  0
   -8.4833   -4.5753   -1.4074 S   0  0  0  0  0  0  0  0  0  0  0  0
   -8.2017   -6.1805   -2.2191 C   0  0  0  0  0  0  0  0  0  0  0  0
   -6.2195   -3.4638   -2.5478 C   0  0  0  0  0  0  0  0  0  0  0  0
   -4.8656   -3.1328   -2.5840 C   0  0  0  0  0  0  0  0  0  0  0  0
   -1.9226   -4.0567   -2.4702 C   0  0  0  0  0  0  0  0  0  0  0  0
   -1.7693   -5.4093   -2.1228 C   0  0  0  0  0  0  0  0  0  0  0  0
   -1.0158   -6.2593   -2.9385 C   0  0  0  0  0  0  0  0  0  0  0  0
   -0.4331   -5.7788   -4.1129 C   0  0  0  0  0  0  0  0  0  0  0  0
    0.6086   -6.8516   -5.1030 S   0  0  0  0  0  0  0  0  0  0  0  0
    2.1137   -6.4538   -4.1535 C   0  0  0  0  0  0  0  0  0  0  0  0
   -0.6481   -4.4534   -4.5045 C   0  0  0  0  0  0  0  0  0  0  0  0
   -1.4011   -3.5977   -3.6938 C   0  0  0  0  0  0  0  0  0  0  0  0
   -2.9473   -0.6922   -1.3923 C   0  0  0  0  0  0  0  0  0  0  0  0
   -4.4754   -0.3382   -0.7901 S   0  0  0  0  0  0  0  0  0  0  0  0
   -4.4128    1.2958   -1.2580 C   0  0  0  0  0  0  0  0  0  0  0  0
   -3.1831    1.5693   -1.8830 C   0  0  0  0  0  0  0  0  0  0  0  0
   -3.1605    2.4175   -3.0415 N   0  0  0  0  0  0  0  0  0  0  0  0
   -4.0325    2.0978   -4.1456 C   0  0  0  0  0  0  0  0  0  0  0  0
   -4.0905    0.7888   -4.6587 C   0  0  0  0  0  0  0  0  0  0  0  0
   -5.0081    0.4585   -5.6605 C   0  0  0  0  0  0  0  0  0  0  0  0
   -5.9011    1.4226   -6.1430 C   0  0  0  0  0  0  0  0  0  0  0  0
   -7.0843    0.9991   -7.4270 S   0  0  0  0  0  0  0  0  0  0  0  0
   -8.2823    0.2594   -6.2696 C   0  0  0  0  0  0  0  0  0  0  0  0
   -5.8386    2.7322   -5.6494 C   0  0  0  0  0  0  0  0  0  0  0  0
   -4.9015    3.0704   -4.6700 C   0  0  0  0  0  0  0  0  0  0  0  0
   -2.2668    3.5303   -3.1445 C   0  0  0  0  0  0  0  0  0  0  0  0
   -1.1239    3.4287   -3.9532 C   0  0  0  0  0  0  0  0  0  0  0  0
   -0.4032    4.5784   -4.2951 C   0  0  0  0  0  0  0  0  0  0  0  0
   -0.8348    5.8311   -3.8467 C   0  0  0  0  0  0  0  0  0  0  0  0
   -0.0493    7.3229   -4.4585 S   0  0  0  0  0  0  0  0  0  0  0  0
   -1.1260    7.4574   -5.9260 C   0  0  0  0  0  0  0  0  0  0  0  0
   -1.9352    5.9243   -2.9809 C   0  0  0  0  0  0  0  0  0  0  0  0
   -2.6370    4.7711   -2.6135 C   0  0  0  0  0  0  0  0  0  0  0  0
   -2.3631    0.4474   -1.8260 C   0  0  0  0  0  0  0  0  0  0  0  0
   -0.7087    0.2258   -1.9483 S   0  0  0  0  0  0  0  0  0  0  0  0
   -5.1643    2.3598   -0.5912 C   0  0  0  0  0  0  0  0  0  0  0  0
   -4.6758    2.9318    0.5827 C   0  0  0  0  0  0  0  0  0  0  0  0
   -5.0120    4.2891    0.7228 C   0  0  0  0  0  0  0  0  0  0  0  0
   -4.4301    5.1857    1.6456 C   0  0  0  0  0  0  0  0  0  0  0  0
   -3.4164    4.7314    2.6189 C   0  0  0  0  0  0  0  0  0  0  0  0
   -3.8090    4.0751    3.7960 C   0  0  0  0  0  0  0  0  0  0  0  0
   -2.8490    3.6468    4.7199 C   0  0  0  0  0  0  0  0  0  0  0  0
   -1.4818    3.8628    4.4691 C   0  0  0  0  0  0  0  0  0  0  0  0
   -0.5069    3.4433    5.3853 C   0  0  0  0  0  0  0  0  0  0  0  0
    0.8488    3.6537    5.1141 C   0  0  0  0  0  0  0  0  0  0  0  0
    1.2392    4.3071    3.9466 C   0  0  0  0  0  0  0  0  0  0  0  0
    0.2775    4.7498    3.0316 C   0  0  0  0  0  0  0  0  0  0  0  0
   -1.0869    4.5238    3.2813 C   0  0  0  0  0  0  0  0  0  0  0  0
   -2.0553    4.9441    2.3596 C   0  0  0  0  0  0  0  0  0  0  0  0
   -4.6313    6.5596    1.4129 C   0  0  0  0  0  0  0  0  0  0  0  0
   -5.3616    7.0307    0.3162 C   0  0  0  0  0  0  0  0  0  0  0  0
   -6.0235    6.1283   -0.5427 C   0  0  0  0  0  0  0  0  0  0  0  0
   -6.8025    6.5421   -1.6304 O   0  0  0  0  0  0  0  0  0  0  0  0
   -7.9195    7.4220   -1.5025 C   0  0  0  0  0  0  0  0  0  0  0  0
   -9.0533    6.7565   -0.7356 C   0  0  0  0  0  0  0  0  0  0  0  0
   -5.8051    4.7611   -0.3241 C   0  0  0  0  0  0  0  0  0  0  0  0
   -6.0576    3.5207   -1.4285 S   0  0  0  0  0  0  0  0  0  0  0  0
   -5.1305    8.3881    0.0460 C   0  0  0  0  0  0  0  0  0  0  0  0
   -4.2539    8.9800    0.9495 C   0  0  0  0  0  0  0  0  0  0  0  0
   -3.7749    7.8384    2.0926 S   0  0  0  0  0  0  0  0  0  0  0  0
   -3.4896   10.1945    0.6324 C   0  0  0  0  0  0  0  0  0  0  0  0
   -2.3438   10.1548   -0.0894 C   0  0  0  0  0  0  0  0  0  0  0  0
   -1.5969    8.9300   -0.4279 C   0  0  0  0  0  0  0  0  0  0  0  0
   -1.9674    7.7405   -0.2463 O   0  0  0  0  0  0  0  0  0  0  0  0
   -0.3219    9.3041   -0.9819 C   0  0  0  0  0  0  0  0  0  0  0  0
    0.7136    8.4524   -1.3713 C   0  0  0  0  0  0  0  0  0  0  0  0
    1.8873    9.0166   -1.8950 C   0  0  0  0  0  0  0  0  0  0  0  0
    2.9865    8.1278   -2.3999 C   0  0  0  0  0  0  0  0  0  0  0  0
    1.9931   10.4171   -2.0164 C   0  0  0  0  0  0  0  0  0  0  0  0
    0.9436   11.2556   -1.5912 C   0  0  0  0  0  0  0  0  0  0  0  0
   -0.2312   10.6808   -1.0703 C   0  0  0  0  0  0  0  0  0  0  0  0
   -1.5044   11.3013   -0.5796 C   0  0  0  0  0  0  0  0  0  0  0  0
   -1.8980   12.5948   -0.7277 C   0  0  0  0  0  0  0  0  0  0  0  0
   -3.2332   13.0503   -0.4384 C   0  0  0  0  0  0  0  0  0  0  0  0
   -4.3019   13.4266   -0.2031 N   0  0  0  0  0  0  0  0  0  0  0  0
   -1.0271   13.6161   -1.2553 C   0  0  0  0  0  0  0  0  0  0  0  0
   -0.3414   14.4505   -1.6726 N   0  0  0  0  0  0  0  0  0  0  0  0
    2.5783   -6.5515    3.0991 H   0  0  0  0  0  0  0  0  0  0  0  0
    6.1389   -8.5464    6.3644 H   0  0  0  0  0  0  0  0  0  0  0  0
    8.3225   -9.2671    7.2737 H   0  0  0  0  0  0  0  0  0  0  0  0
    8.4535   -7.9370    8.4951 H   0  0  0  0  0  0  0  0  0  0  0  0
    9.7338   -8.1569    7.2327 H   0  0  0  0  0  0  0  0  0  0  0  0
    9.4631   -5.7775    6.4893 H   0  0  0  0  0  0  0  0  0  0  0  0
    8.3065   -4.2973    4.9404 H   0  0  0  0  0  0  0  0  0  0  0  0
    3.5924   -8.4826    1.2579 H   0  0  0  0  0  0  0  0  0  0  0  0
    5.7762   -9.3954    0.5425 H   0  0  0  0  0  0  0  0  0  0  0  0
    6.2442   -8.9872   -3.5056 H   0  0  0  0  0  0  0  0  0  0  0  0
    6.1256  -10.3500   -2.3087 H   0  0  0  0  0  0  0  0  0  0  0  0
    7.5829  -10.1979   -3.3692 H   0  0  0  0  0  0  0  0  0  0  0  0
    6.1470   -6.2353   -2.3602 H   0  0  0  0  0  0  0  0  0  0  0  0
    3.9694   -5.3160   -1.6432 H   0  0  0  0  0  0  0  0  0  0  0  0
    1.9456   -8.5995   -1.2362 H   0  0  0  0  0  0  0  0  0  0  0  0
   -0.0618   -9.9894   -1.3117 H   0  0  0  0  0  0  0  0  0  0  0  0
   -3.5518   -7.8829   -1.3042 H   0  0  0  0  0  0  0  0  0  0  0  0
   -2.5956   -9.0124   -2.3610 H   0  0  0  0  0  0  0  0  0  0  0  0
   -4.2567   -9.4557   -1.8309 H   0  0  0  0  0  0  0  0  0  0  0  0
   -2.0450   -7.3100    1.4049 H   0  0  0  0  0  0  0  0  0  0  0  0
   -0.0347   -5.9213    1.5337 H   0  0  0  0  0  0  0  0  0  0  0  0
    3.2937   -0.6328    0.0847 H   0  0  0  0  0  0  0  0  0  0  0  0
    4.7357    1.2496   -0.5515 H   0  0  0  0  0  0  0  0  0  0  0  0
    4.0006    3.0471   -2.7135 H   0  0  0  0  0  0  0  0  0  0  0  0
    4.4837    4.7818   -2.8756 H   0  0  0  0  0  0  0  0  0  0  0  0
    2.7808    4.3634   -2.4275 H   0  0  0  0  0  0  0  0  0  0  0  0
    1.6131    4.0259    0.4326 H   0  0  0  0  0  0  0  0  0  0  0  0
    0.1404    2.1591    1.1004 H   0  0  0  0  0  0  0  0  0  0  0  0
   -1.8413   -1.2609    1.2416 H   0  0  0  0  0  0  0  0  0  0  0  0
   -3.2776   -1.0801    3.2259 H   0  0  0  0  0  0  0  0  0  0  0  0
   -3.1440   -2.1270    7.2363 H   0  0  0  0  0  0  0  0  0  0  0  0
   -2.3073   -2.5245    5.6845 H   0  0  0  0  0  0  0  0  0  0  0  0
   -1.3842   -1.7494    7.0503 H   0  0  0  0  0  0  0  0  0  0  0  0
   -0.0045    0.5898    5.4580 H   0  0  0  0  0  0  0  0  0  0  0  0
    1.4294    0.4788    3.4572 H   0  0  0  0  0  0  0  0  0  0  0  0
   -3.9268   -4.3287    0.4728 H   0  0  0  0  0  0  0  0  0  0  0  0
   -6.3247   -4.9426    0.5210 H   0  0  0  0  0  0  0  0  0  0  0  0
   -7.5995   -6.8385   -1.5610 H   0  0  0  0  0  0  0  0  0  0  0  0
   -7.6795   -6.0380   -3.1857 H   0  0  0  0  0  0  0  0  0  0  0  0
   -9.1831   -6.6600   -2.4152 H   0  0  0  0  0  0  0  0  0  0  0  0
   -6.8509   -3.2304   -3.3946 H   0  0  0  0  0  0  0  0  0  0  0  0
   -4.4575   -2.6564   -3.4650 H   0  0  0  0  0  0  0  0  0  0  0  0
   -2.1855   -5.7839   -1.1925 H   0  0  0  0  0  0  0  0  0  0  0  0
   -0.8602   -7.2840   -2.6392 H   0  0  0  0  0  0  0  0  0  0  0  0
    2.3330   -5.3683   -4.2105 H   0  0  0  0  0  0  0  0  0  0  0  0
    1.9861   -6.7459   -3.0930 H   0  0  0  0  0  0  0  0  0  0  0  0
    2.9729   -7.0122   -4.5732 H   0  0  0  0  0  0  0  0  0  0  0  0
   -0.2198   -4.0776   -5.4237 H   0  0  0  0  0  0  0  0  0  0  0  0
   -1.5478   -2.5677   -4.0007 H   0  0  0  0  0  0  0  0  0  0  0  0
   -3.4253    0.0170   -4.2888 H   0  0  0  0  0  0  0  0  0  0  0  0
   -5.0366   -0.5539   -6.0503 H   0  0  0  0  0  0  0  0  0  0  0  0
   -7.9002   -0.7236   -5.9181 H   0  0  0  0  0  0  0  0  0  0  0  0
   -8.4566    0.9278   -5.3978 H   0  0  0  0  0  0  0  0  0  0  0  0
   -9.2460    0.1019   -6.7982 H   0  0  0  0  0  0  0  0  0  0  0  0
   -6.5253    3.4837   -6.0204 H   0  0  0  0  0  0  0  0  0  0  0  0
   -4.8878    4.0812   -4.2782 H   0  0  0  0  0  0  0  0  0  0  0  0
   -0.8322    2.4708   -4.3617 H   0  0  0  0  0  0  0  0  0  0  0  0
    0.4514    4.5026   -4.9550 H   0  0  0  0  0  0  0  0  0  0  0  0
   -0.6422    6.9366   -6.7825 H   0  0  0  0  0  0  0  0  0  0  0  0
   -2.1339    7.0152   -5.7459 H   0  0  0  0  0  0  0  0  0  0  0  0
   -1.2573    8.5326   -6.1836 H   0  0  0  0  0  0  0  0  0  0  0  0
   -2.2916    6.8909   -2.6602 H   0  0  0  0  0  0  0  0  0  0  0  0
   -3.5359    4.8647   -2.0162 H   0  0  0  0  0  0  0  0  0  0  0  0
   -3.9475    2.4299    1.2078 H   0  0  0  0  0  0  0  0  0  0  0  0
   -4.8594    3.9043    4.0067 H   0  0  0  0  0  0  0  0  0  0  0  0
   -3.1682    3.1447    5.6257 H   0  0  0  0  0  0  0  0  0  0  0  0
   -0.7933    2.9421    6.3075 H   0  0  0  0  0  0  0  0  0  0  0  0
    1.5968    3.3111    5.8159 H   0  0  0  0  0  0  0  0  0  0  0  0
    2.2888    4.4750    3.7406 H   0  0  0  0  0  0  0  0  0  0  0  0
    0.5931    5.2758    2.1391 H   0  0  0  0  0  0  0  0  0  0  0  0
   -1.7579    5.4390    1.4420 H   0  0  0  0  0  0  0  0  0  0  0  0
   -8.2700    7.6906   -2.5202 H   0  0  0  0  0  0  0  0  0  0  0  0
   -7.6351    8.3594   -0.9868 H   0  0  0  0  0  0  0  0  0  0  0  0
   -9.9274    7.4398   -0.6910 H   0  0  0  0  0  0  0  0  0  0  0  0
   -9.3554    5.8175   -1.2430 H   0  0  0  0  0  0  0  0  0  0  0  0
   -8.7309    6.5243    0.3010 H   0  0  0  0  0  0  0  0  0  0  0  0
   -5.4396    8.8801   -0.8644 H   0  0  0  0  0  0  0  0  0  0  0  0
   -3.9095   11.1248    0.9733 H   0  0  0  0  0  0  0  0  0  0  0  0
    0.5984    7.3784   -1.2860 H   0  0  0  0  0  0  0  0  0  0  0  0
    3.9786    8.6054   -2.2513 H   0  0  0  0  0  0  0  0  0  0  0  0
    2.8386    7.9400   -3.4846 H   0  0  0  0  0  0  0  0  0  0  0  0
    2.9867    7.1571   -1.8599 H   0  0  0  0  0  0  0  0  0  0  0  0
    2.8884   10.8597   -2.4395 H   0  0  0  0  0  0  0  0  0  0  0  0
    1.0828   12.3166   -1.6713 H   0  0  0  0  0  0  0  0  0  0  0  0
  1  2  2  3
  2  3  1  0
  3  4  2  0
  3  5  1  0
  5  6  2  0
  6  7  1  0
  7  8  1  0
  7  9  2  0
  9 10  1  0
 10 11  2  0
 11 12  1  0
 12 13  2  3
 13 14  1  0
 14 15  3  0
 13 16  1  0
 16 17  3  0
  1 18  1  0
 18 19  2  0
 19 20  1  0
 20 21  1  0
 21 22  2  0
 22 23  1  0
 23 24  2  0
 24 25  1  0
 25 26  1  0
 24 27  1  0
 27 28  2  0
 20 29  1  0
 29 30  2  0
 30 31  1  0
 31 32  2  0
 32 33  1  0
 33 34  1  0
 32 35  1  0
 35 36  2  0
 19 37  1  0
 37 38  1  0
 38 39  1  0
 39 40  2  0
 40 41  1  0
 41 42  1  0
 42 43  2  0
 43 44  1  0
 44 45  2  0
 45 46  1  0
 46 47  1  0
 45 48  1  0
 48 49  2  0
 41 50  1  0
 50 51  2  0
 51 52  1  0
 52 53  2  0
 53 54  1  0
 54 55  1  0
 53 56  1  0
 56 57  2  0
 40 58  1  0
 58 59  1  0
 39 60  1  0
 60 61  2  0
 61 62  1  0
 62 63  1  0
 63 64  2  0
 64 65  1  0
 65 66  2  0
 66 67  1  0
 67 68  1  0
 66 69  1  0
 69 70  2  0
 62 71  1  0
 71 72  2  0
 72 73  1  0
 73 74  2  0
 74 75  1  0
 75 76  1  0
 74 77  1  0
 77 78  2  0
 61 79  1  0
 79 80  1  0
 80 81  1  0
 81 82  2  0
 82 83  1  0
 83 84  1  0
 84 85  2  0
 85 86  1  0
 86 87  2  0
 87 88  1  0
 88 89  1  0
 87 90  1  0
 90 91  2  0
 83 92  1  0
 92 93  2  0
 93 94  1  0
 94 95  2  0
 95 96  1  0
 96 97  1  0
 95 98  1  0
 98 99  2  0
 82100  1  0
100101  1  0
 81102  1  0
102103  2  0
103104  1  0
104105  2  0
105106  1  0
106107  2  0
107108  1  0
108109  2  0
109110  1  0
110111  2  0
111112  1  0
112113  2  0
113114  1  0
114115  2  0
105116  1  0
116117  2  0
117118  1  0
118119  1  0
119120  1  0
120121  1  0
118122  2  0
122123  1  0
117124  1  0
124125  2  0
125126  1  0
125127  1  0
127128  2  3
128129  1  0
129130  2  0
129131  1  0
131132  2  0
132133  1  0
133134  1  0
133135  2  0
135136  1  0
136137  2  0
137138  1  0
138139  2  3
139140  1  0
140141  3  0
139142  1  0
142143  3  0
 12  2  1  0
 59 18  1  0
101 60  1  0
123102  1  0
138128  1  0
 11  5  1  0
 28 21  1  0
 36 29  1  0
 58 37  2  0
 70 63  1  0
 78 71  1  0
100 79  2  0
122104  1  0
137131  1  0
 49 42  1  0
 57 50  1  0
 91 84  1  0
 99 92  1  0
115106  1  0
126116  1  0
114109  1  0
  1144  1  0
  6145  1  0
  8146  1  0
  8147  1  0
  8148  1  0
  9149  1  0
 10150  1  0
 22151  1  0
 23152  1  0
 26153  1  0
 26154  1  0
 26155  1  0
 27156  1  0
 28157  1  0
 30158  1  0
 31159  1  0
 34160  1  0
 34161  1  0
 34162  1  0
 35163  1  0
 36164  1  0
 43165  1  0
 44166  1  0
 47167  1  0
 47168  1  0
 47169  1  0
 48170  1  0
 49171  1  0
 51172  1  0
 52173  1  0
 55174  1  0
 55175  1  0
 55176  1  0
 56177  1  0
 57178  1  0
 64179  1  0
 65180  1  0
 68181  1  0
 68182  1  0
 68183  1  0
 69184  1  0
 70185  1  0
 72186  1  0
 73187  1  0
 76188  1  0
 76189  1  0
 76190  1  0
 77191  1  0
 78192  1  0
 85193  1  0
 86194  1  0
 89195  1  0
 89196  1  0
 89197  1  0
 90198  1  0
 91199  1  0
 93200  1  0
 94201  1  0
 97202  1  0
 97203  1  0
 97204  1  0
 98205  1  0
 99206  1  0
103207  1  0
107208  1  0
108209  1  0
110210  1  0
111211  1  0
112212  1  0
113213  1  0
115214  1  0
120215  1  0
120216  1  0
121217  1  0
121218  1  0
121219  1  0
124220  1  0
127221  1  0
132222  1  0
134223  1  0
134224  1  0
134225  1  0
135226  1  0
136227  1  0
M  END

