
     RDKit          3D

158171  0  0  0  0  0  0  0  0999 V2000
   -4.1491    1.2155   -9.4491 C   0  0  0  0  0  0  0  0  0  0  0  0
   -5.4820    1.3266   -9.5711 C   0  0  0  0  0  0  0  0  0  0  0  0
   -6.2139    1.5633  -10.8206 C   0  0  0  0  0  0  0  0  0  0  0  0
   -5.8026    2.2721  -11.7705 O   0  0  0  0  0  0  0  0  0  0  0  0
   -7.5666    1.0480  -10.6125 C   0  0  0  0  0  0  0  0  0  0  0  0
   -8.6272    0.9068  -11.5029 C   0  0  0  0  0  0  0  0  0  0  0  0
   -9.8189    0.2990  -11.0412 C   0  0  0  0  0  0  0  0  0  0  0  0
  -10.9948    0.0913  -11.9621 C   0  0  0  0  0  0  0  0  0  0  0  0
   -9.9266   -0.1189   -9.6988 C   0  0  0  0  0  0  0  0  0  0  0  0
   -8.8572    0.0510   -8.8205 C   0  0  0  0  0  0  0  0  0  0  0  0
   -7.6896    0.6572   -9.2859 C   0  0  0  0  0  0  0  0  0  0  0  0
   -6.4934    1.0273   -8.5187 C   0  0  0  0  0  0  0  0  0  0  0  0
   -6.5937    1.7561   -7.3597 C   0  0  0  0  0  0  0  0  0  0  0  0
   -5.4682    2.4967   -6.8514 C   0  0  0  0  0  0  0  0  0  0  0  0
   -4.5805    3.1607   -6.4794 N   0  0  0  0  0  0  0  0  0  0  0  0
   -7.8545    2.3870   -7.0714 C   0  0  0  0  0  0  0  0  0  0  0  0
   -8.8511    2.9534   -6.9516 N   0  0  0  0  0  0  0  0  0  0  0  0
   -3.5183    0.4986   -8.3305 C   0  0  0  0  0  0  0  0  0  0  0  0
   -2.5454    1.1312   -7.5162 C   0  0  0  0  0  0  0  0  0  0  0  0
   -2.2071    0.5159   -6.3110 C   0  0  0  0  0  0  0  0  0  0  0  0
   -1.4002    0.9926   -5.3335 N   0  0  0  0  0  0  0  0  0  0  0  0
   -0.5589    2.1900   -5.3783 C   0  0  0  0  0  0  0  0  0  0  0  0
   -1.2869    3.3941   -4.8051 C   0  0  0  0  0  0  0  0  0  0  0  0
   -1.5091    0.0960   -4.3211 C   0  0  0  0  0  0  0  0  0  0  0  0
   -2.3279   -0.9580   -4.6552 C   0  0  0  0  0  0  0  0  0  0  0  0
   -2.7783   -0.6921   -5.9330 C   0  0  0  0  0  0  0  0  0  0  0  0
   -3.6515   -1.3856   -6.7607 C   0  0  0  0  0  0  0  0  0  0  0  0
   -4.0070   -0.7827   -7.9769 C   0  0  0  0  0  0  0  0  0  0  0  0
   -2.5197   -2.0505   -3.8126 C   0  0  0  0  0  0  0  0  0  0  0  0
   -1.8052   -2.0686   -2.5892 C   0  0  0  0  0  0  0  0  0  0  0  0
   -0.9857   -0.9696   -2.2087 C   0  0  0  0  0  0  0  0  0  0  0  0
   -0.8578    0.1358   -3.0924 C   0  0  0  0  0  0  0  0  0  0  0  0
   -0.0891   -1.0100   -1.0300 C   0  0  0  0  0  0  0  0  0  0  0  0
   -0.2434   -1.6630    0.2255 C   0  0  0  0  0  0  0  0  0  0  0  0
   -1.4798   -2.2199    0.7260 N   0  0  0  0  0  0  0  0  0  0  0  0
   -1.6427   -3.6551    0.6501 C   0  0  0  0  0  0  0  0  0  0  0  0
   -0.6637   -4.5095    1.2013 C   0  0  0  0  0  0  0  0  0  0  0  0
   -0.8040   -5.8958    1.1039 C   0  0  0  0  0  0  0  0  0  0  0  0
   -1.9137   -6.4473    0.4554 C   0  0  0  0  0  0  0  0  0  0  0  0
   -2.0797   -8.2306    0.3306 S   0  0  0  0  0  0  0  0  0  0  0  0
   -1.2708   -8.3315   -1.2947 C   0  0  0  0  0  0  0  0  0  0  0  0
   -2.8887   -5.6057   -0.0954 C   0  0  0  0  0  0  0  0  0  0  0  0
   -2.7530   -4.2209    0.0049 C   0  0  0  0  0  0  0  0  0  0  0  0
   -2.3849   -1.3888    1.5202 C   0  0  0  0  0  0  0  0  0  0  0  0
   -3.6488   -1.8695    1.9488 C   0  0  0  0  0  0  0  0  0  0  0  0
   -4.5123   -1.0645    2.6934 C   0  0  0  0  0  0  0  0  0  0  0  0
   -4.1138    0.2155    3.1015 C   0  0  0  0  0  0  0  0  0  0  0  0
   -5.2332    1.2322    4.0699 S   0  0  0  0  0  0  0  0  0  0  0  0
   -4.9146    0.3599    5.6362 C   0  0  0  0  0  0  0  0  0  0  0  0
   -2.8652    0.7048    2.7057 C   0  0  0  0  0  0  0  0  0  0  0  0
   -2.0224   -0.0707    1.9108 C   0  0  0  0  0  0  0  0  0  0  0  0
    0.8717   -1.3993    1.0431 C   0  0  0  0  0  0  0  0  0  0  0  0
    1.3182   -1.7415    2.6289 S   0  0  0  0  0  0  0  0  0  0  0  0
    2.7677   -0.8411    2.5959 C   0  0  0  0  0  0  0  0  0  0  0  0
    2.8794   -0.1924    1.3447 C   0  0  0  0  0  0  0  0  0  0  0  0
    3.7278    0.9445    1.0692 N   0  0  0  0  0  0  0  0  0  0  0  0
    3.8804    1.9783    2.0481 C   0  0  0  0  0  0  0  0  0  0  0  0
    2.7448    2.5292    2.6723 C   0  0  0  0  0  0  0  0  0  0  0  0
    2.8606    3.6809    3.4537 C   0  0  0  0  0  0  0  0  0  0  0  0
    4.1166    4.2826    3.6321 C   0  0  0  0  0  0  0  0  0  0  0  0
    4.2764    5.8107    4.5702 S   0  0  0  0  0  0  0  0  0  0  0  0
    4.4232    4.9536    6.1680 C   0  0  0  0  0  0  0  0  0  0  0  0
    5.2514    3.7192    3.0410 C   0  0  0  0  0  0  0  0  0  0  0  0
    5.1338    2.5841    2.2421 C   0  0  0  0  0  0  0  0  0  0  0  0
    4.0031    1.3205   -0.3059 C   0  0  0  0  0  0  0  0  0  0  0  0
    4.7775    0.4896   -1.1224 C   0  0  0  0  0  0  0  0  0  0  0  0
    5.0213    0.8485   -2.4573 C   0  0  0  0  0  0  0  0  0  0  0  0
    4.5011    2.0407   -2.9733 C   0  0  0  0  0  0  0  0  0  0  0  0
    4.9263    2.5617   -4.6394 S   0  0  0  0  0  0  0  0  0  0  0  0
    3.3668    2.0184   -5.3887 C   0  0  0  0  0  0  0  0  0  0  0  0
    3.6914    2.8531   -2.1692 C   0  0  0  0  0  0  0  0  0  0  0  0
    3.4432    2.4930   -0.8420 C   0  0  0  0  0  0  0  0  0  0  0  0
    1.8288   -0.5876    0.5077 C   0  0  0  0  0  0  0  0  0  0  0  0
    1.3639   -0.1494   -1.0270 S   0  0  0  0  0  0  0  0  0  0  0  0
    3.7819   -0.8754    3.6636 C   0  0  0  0  0  0  0  0  0  0  0  0
    5.1472   -0.6119    3.5366 C   0  0  0  0  0  0  0  0  0  0  0  0
    5.9019   -0.9585    4.6619 C   0  0  0  0  0  0  0  0  0  0  0  0
    7.6876   -0.7225    4.7016 S   0  0  0  0  0  0  0  0  0  0  0  0
    8.1133   -2.2340    3.7749 C   0  0  0  0  0  0  0  0  0  0  0  0
    8.0556   -3.4684    4.6800 C   0  0  0  0  0  0  0  0  0  0  0  0
    5.1299   -1.4941    5.6922 C   0  0  0  0  0  0  0  0  0  0  0  0
    3.5407   -1.5553    5.1818 S   0  0  0  0  0  0  0  0  0  0  0  0
    5.5821   -2.1058    6.9455 C   0  0  0  0  0  0  0  0  0  0  0  0
    5.5701   -1.3717    8.0672 C   0  0  0  0  0  0  0  0  0  0  0  0
    6.6539   -0.4688    8.4335 C   0  0  0  0  0  0  0  0  0  0  0  0
    7.6188   -0.1313    7.6932 O   0  0  0  0  0  0  0  0  0  0  0  0
    6.5017   -0.0948    9.8332 C   0  0  0  0  0  0  0  0  0  0  0  0
    7.3470    0.6815   10.6115 C   0  0  0  0  0  0  0  0  0  0  0  0
    6.9806    0.9343   11.9485 C   0  0  0  0  0  0  0  0  0  0  0  0
    7.8690    1.7636   12.8278 C   0  0  0  0  0  0  0  0  0  0  0  0
    5.7501    0.4768   12.4352 C   0  0  0  0  0  0  0  0  0  0  0  0
    4.9225   -0.3124   11.6257 C   0  0  0  0  0  0  0  0  0  0  0  0
    5.3301   -0.6315   10.3244 C   0  0  0  0  0  0  0  0  0  0  0  0
    4.7127   -1.5210    9.2879 C   0  0  0  0  0  0  0  0  0  0  0  0
    3.6465   -2.3559    9.4644 C   0  0  0  0  0  0  0  0  0  0  0  0
    3.3292   -3.4165    8.5638 C   0  0  0  0  0  0  0  0  0  0  0  0
    3.0528   -4.2806    7.8479 N   0  0  0  0  0  0  0  0  0  0  0  0
    2.8724   -2.4116   10.6620 C   0  0  0  0  0  0  0  0  0  0  0  0
    2.2616   -2.5607   11.6457 N   0  0  0  0  0  0  0  0  0  0  0  0
   -3.5086    1.5915  -10.2585 H   0  0  0  0  0  0  0  0  0  0  0  0
   -8.5291    1.2189  -12.5435 H   0  0  0  0  0  0  0  0  0  0  0  0
  -11.7793    0.8269  -11.7131 H   0  0  0  0  0  0  0  0  0  0  0  0
  -10.7099    0.2034  -13.0286 H   0  0  0  0  0  0  0  0  0  0  0  0
  -11.4029   -0.9409  -11.8142 H   0  0  0  0  0  0  0  0  0  0  0  0
  -10.8264   -0.6156   -9.3517 H   0  0  0  0  0  0  0  0  0  0  0  0
   -8.9242   -0.2946   -7.8011 H   0  0  0  0  0  0  0  0  0  0  0  0
   -2.1497    2.1084   -7.7795 H   0  0  0  0  0  0  0  0  0  0  0  0
   -0.2339    2.3901   -6.4170 H   0  0  0  0  0  0  0  0  0  0  0  0
    0.3607    2.0076   -4.7953 H   0  0  0  0  0  0  0  0  0  0  0  0
   -2.0562    3.7477   -5.5370 H   0  0  0  0  0  0  0  0  0  0  0  0
   -1.7469    3.1423   -3.8330 H   0  0  0  0  0  0  0  0  0  0  0  0
   -0.5647    4.2230   -4.6567 H   0  0  0  0  0  0  0  0  0  0  0  0
   -4.0842   -2.3320   -6.4550 H   0  0  0  0  0  0  0  0  0  0  0  0
   -4.7394   -1.2795   -8.6034 H   0  0  0  0  0  0  0  0  0  0  0  0
   -3.0989   -2.9009   -4.1204 H   0  0  0  0  0  0  0  0  0  0  0  0
   -1.8038   -2.9657   -2.0117 H   0  0  0  0  0  0  0  0  0  0  0  0
   -0.2383    0.9863   -2.8461 H   0  0  0  0  0  0  0  0  0  0  0  0
    0.1964   -4.1095    1.7111 H   0  0  0  0  0  0  0  0  0  0  0  0
   -0.0505   -6.5378    1.5348 H   0  0  0  0  0  0  0  0  0  0  0  0
   -0.2613   -7.8636   -1.2582 H   0  0  0  0  0  0  0  0  0  0  0  0
   -1.1762   -9.3936   -1.5946 H   0  0  0  0  0  0  0  0  0  0  0  0
   -1.8845   -7.7962   -2.0504 H   0  0  0  0  0  0  0  0  0  0  0  0
   -3.7435   -6.0260   -0.6040 H   0  0  0  0  0  0  0  0  0  0  0  0
   -3.5041   -3.5845   -0.4421 H   0  0  0  0  0  0  0  0  0  0  0  0
   -3.9729   -2.8743    1.7547 H   0  0  0  0  0  0  0  0  0  0  0  0
   -5.4731   -1.4565    2.9999 H   0  0  0  0  0  0  0  0  0  0  0  0
   -3.8342    0.4058    5.8953 H   0  0  0  0  0  0  0  0  0  0  0  0
   -5.2353   -0.7028    5.5580 H   0  0  0  0  0  0  0  0  0  0  0  0
   -5.4939    0.8419    6.4448 H   0  0  0  0  0  0  0  0  0  0  0  0
   -2.5628    1.7073    2.9864 H   0  0  0  0  0  0  0  0  0  0  0  0
   -1.0856    0.3732    1.6078 H   0  0  0  0  0  0  0  0  0  0  0  0
    1.7696    2.1061    2.5050 H   0  0  0  0  0  0  0  0  0  0  0  0
    1.9763    4.1063    3.9019 H   0  0  0  0  0  0  0  0  0  0  0  0
    3.4948    4.3533    6.3451 H   0  0  0  0  0  0  0  0  0  0  0  0
    4.5158    5.6977    6.9929 H   0  0  0  0  0  0  0  0  0  0  0  0
    5.3056    4.2728    6.1486 H   0  0  0  0  0  0  0  0  0  0  0  0
    6.2143    4.1912    3.1820 H   0  0  0  0  0  0  0  0  0  0  0  0
    6.0127    2.1910    1.7488 H   0  0  0  0  0  0  0  0  0  0  0  0
    5.1958   -0.4201   -0.7182 H   0  0  0  0  0  0  0  0  0  0  0  0
    5.6202    0.1991   -3.0693 H   0  0  0  0  0  0  0  0  0  0  0  0
    3.1309    0.9702   -5.1074 H   0  0  0  0  0  0  0  0  0  0  0  0
    2.5542    2.6962   -5.0687 H   0  0  0  0  0  0  0  0  0  0  0  0
    3.4595    2.0801   -6.4988 H   0  0  0  0  0  0  0  0  0  0  0  0
    3.2637    3.7642   -2.5672 H   0  0  0  0  0  0  0  0  0  0  0  0
    2.7856    3.1192   -0.2443 H   0  0  0  0  0  0  0  0  0  0  0  0
    5.5925   -0.2618    2.6111 H   0  0  0  0  0  0  0  0  0  0  0  0
    7.4391   -2.3675    2.9051 H   0  0  0  0  0  0  0  0  0  0  0  0
    9.1501   -2.1184    3.3977 H   0  0  0  0  0  0  0  0  0  0  0  0
    7.0109   -3.7073    4.9494 H   0  0  0  0  0  0  0  0  0  0  0  0
    8.4928   -4.3336    4.1331 H   0  0  0  0  0  0  0  0  0  0  0  0
    8.6570   -3.2953    5.5914 H   0  0  0  0  0  0  0  0  0  0  0  0
    5.2035   -3.1271    6.9876 H   0  0  0  0  0  0  0  0  0  0  0  0
    8.2696    1.0822   10.1919 H   0  0  0  0  0  0  0  0  0  0  0  0
    8.9079    1.7938   12.4271 H   0  0  0  0  0  0  0  0  0  0  0  0
    7.4492    2.7861   12.8892 H   0  0  0  0  0  0  0  0  0  0  0  0
    7.8778    1.3444   13.8609 H   0  0  0  0  0  0  0  0  0  0  0  0
    5.4305    0.7225   13.4472 H   0  0  0  0  0  0  0  0  0  0  0  0
    3.9844   -0.6496   12.0322 H   0  0  0  0  0  0  0  0  0  0  0  0
  1  2  2  3
  2  3  1  0
  3  4  2  0
  3  5  1  0
  5  6  2  0
  6  7  1  0
  7  8  1  0
  7  9  2  0
  9 10  1  0
 10 11  2  0
 11 12  1  0
 12 13  2  3
 13 14  1  0
 14 15  3  0
 13 16  1  0
 16 17  3  0
  1 18  1  0
 18 19  2  0
 19 20  1  0
 20 21  1  0
 21 22  1  0
 22 23  1  0
 21 24  1  0
 24 25  2  0
 25 26  1  0
 26 27  1  0
 27 28  2  0
 25 29  1  0
 29 30  2  0
 30 31  1  0
 31 32  2  0
 31 33  1  0
 33 34  2  0
 34 35  1  0
 35 36  1  0
 36 37  2  0
 37 38  1  0
 38 39  2  0
 39 40  1  0
 40 41  1  0
 39 42  1  0
 42 43  2  0
 35 44  1  0
 44 45  2  0
 45 46  1  0
 46 47  2  0
 47 48  1  0
 48 49  1  0
 47 50  1  0
 50 51  2  0
 34 52  1  0
 52 53  1  0
 53 54  1  0
 54 55  2  0
 55 56  1  0
 56 57  1  0
 57 58  2  0
 58 59  1  0
 59 60  2  0
 60 61  1  0
 61 62  1  0
 60 63  1  0
 63 64  2  0
 56 65  1  0
 65 66  2  0
 66 67  1  0
 67 68  2  0
 68 69  1  0
 69 70  1  0
 68 71  1  0
 71 72  2  0
 55 73  1  0
 73 74  1  0
 54 75  1  0
 75 76  2  0
 76 77  1  0
 77 78  1  0
 78 79  1  0
 79 80  1  0
 77 81  2  0
 81 82  1  0
 81 83  1  0
 83 84  2  3
 84 85  1  0
 85 86  2  0
 85 87  1  0
 87 88  2  0
 88 89  1  0
 89 90  1  0
 89 91  2  0
 91 92  1  0
 92 93  2  0
 93 94  1  0
 94 95  2  3
 95 96  1  0
 96 97  3  0
 95 98  1  0
 98 99  3  0
 12  2  1  0
 28 18  1  0
 74 33  1  0
 82 75  1  0
 94 84  1  0
 11  5  1  0
 26 20  2  0
 43 36  1  0
 51 44  1  0
 73 52  2  0
 93 87  1  0
 32 24  1  0
 64 57  1  0
 72 65  1  0
  1100  1  0
  6101  1  0
  8102  1  0
  8103  1  0
  8104  1  0
  9105  1  0
 10106  1  0
 19107  1  0
 22108  1  0
 22109  1  0
 23110  1  0
 23111  1  0
 23112  1  0
 27113  1  0
 28114  1  0
 29115  1  0
 30116  1  0
 32117  1  0
 37118  1  0
 38119  1  0
 41120  1  0
 41121  1  0
 41122  1  0
 42123  1  0
 43124  1  0
 45125  1  0
 46126  1  0
 49127  1  0
 49128  1  0
 49129  1  0
 50130  1  0
 51131  1  0
 58132  1  0
 59133  1  0
 62134  1  0
 62135  1  0
 62136  1  0
 63137  1  0
 64138  1  0
 66139  1  0
 67140  1  0
 70141  1  0
 70142  1  0
 70143  1  0
 71144  1  0
 72145  1  0
 76146  1  0
 79147  1  0
 79148  1  0
 80149  1  0
 80150  1  0
 80151  1  0
 83152  1  0
 88153  1  0
 90154  1  0
 90155  1  0
 90156  1  0
 91157  1  0
 92158  1  0
M  END

