
     RDKit          3D

210228  0  0  0  0  0  0  0  0999 V2000
   -5.1288    0.4596   -5.6053 C   0  0  0  0  0  0  0  0  0  0  0  0
   -4.7022   -0.8106   -5.7310 C   0  0  0  0  0  0  0  0  0  0  0  0
   -3.5507   -1.4241   -5.0607 C   0  0  0  0  0  0  0  0  0  0  0  0
   -2.5872   -0.8384   -4.5115 O   0  0  0  0  0  0  0  0  0  0  0  0
   -3.6789   -2.8536   -5.1077 C   0  0  0  0  0  0  0  0  0  0  0  0
   -2.7172   -3.8117   -4.7640 C   0  0  0  0  0  0  0  0  0  0  0  0
   -2.9952   -5.1554   -5.0123 C   0  0  0  0  0  0  0  0  0  0  0  0
   -4.1923   -5.5262   -5.6417 C   0  0  0  0  0  0  0  0  0  0  0  0
   -5.1209   -4.5662   -6.0201 C   0  0  0  0  0  0  0  0  0  0  0  0
   -4.8666   -3.2071   -5.7354 C   0  0  0  0  0  0  0  0  0  0  0  0
   -5.5579   -1.9614   -6.1748 C   0  0  0  0  0  0  0  0  0  0  0  0
   -6.6652   -1.9138   -6.9255 C   0  0  0  0  0  0  0  0  0  0  0  0
   -6.9906   -0.7593   -7.7497 C   0  0  0  0  0  0  0  0  0  0  0  0
   -7.1729    0.1072   -8.4842 N   0  0  0  0  0  0  0  0  0  0  0  0
   -7.6884   -2.9803   -6.8615 C   0  0  0  0  0  0  0  0  0  0  0  0
   -8.4997   -3.7758   -6.8176 N   0  0  0  0  0  0  0  0  0  0  0  0
   -4.3603    1.4646   -4.8439 C   0  0  0  0  0  0  0  0  0  0  0  0
   -3.0442    1.8542   -5.1512 C   0  0  0  0  0  0  0  0  0  0  0  0
   -2.3513    1.4990   -6.2999 C   0  0  0  0  0  0  0  0  0  0  0  0
   -1.0684    1.9977   -6.3116 C   0  0  0  0  0  0  0  0  0  0  0  0
    0.0766    1.6140   -7.2153 C   0  0  0  0  0  0  0  0  0  0  0  0
   -0.3284    1.0970   -8.5826 C   0  0  0  0  0  0  0  0  0  0  0  0
   -0.8406    2.9026   -4.9094 S   0  0  0  0  0  0  0  0  0  0  0  0
   -2.3340    2.6220   -4.1794 C   0  0  0  0  0  0  0  0  0  0  0  0
   -2.8190    2.9233   -2.8574 C   0  0  0  0  0  0  0  0  0  0  0  0
   -4.2323    2.7466   -2.7217 C   0  0  0  0  0  0  0  0  0  0  0  0
   -4.9441    2.0321   -3.7173 C   0  0  0  0  0  0  0  0  0  0  0  0
   -6.5360    1.8771   -3.2256 S   0  0  0  0  0  0  0  0  0  0  0  0
   -6.4089    2.7980   -1.8223 C   0  0  0  0  0  0  0  0  0  0  0  0
   -7.4823    3.0193   -0.8063 C   0  0  0  0  0  0  0  0  0  0  0  0
   -8.8497    2.5143   -1.2575 C   0  0  0  0  0  0  0  0  0  0  0  0
   -5.1011    3.2158   -1.7210 C   0  0  0  0  0  0  0  0  0  0  0  0
   -1.8020    3.0871   -1.6930 C   0  0  0  0  0  0  0  0  0  0  0  0
   -1.8520    3.0021   -0.2544 C   0  0  0  0  0  0  0  0  0  0  0  0
   -3.0327    3.1071    0.5591 N   0  0  0  0  0  0  0  0  0  0  0  0
   -3.7552    1.8823    0.8967 C   0  0  0  0  0  0  0  0  0  0  0  0
   -4.2513    1.6310    2.1901 C   0  0  0  0  0  0  0  0  0  0  0  0
   -4.9216    0.4334    2.4711 C   0  0  0  0  0  0  0  0  0  0  0  0
   -5.1965   -0.4775    1.4580 C   0  0  0  0  0  0  0  0  0  0  0  0
   -6.1012   -1.9712    1.8232 S   0  0  0  0  0  0  0  0  0  0  0  0
   -4.6554   -3.0638    1.5849 C   0  0  0  0  0  0  0  0  0  0  0  0
   -4.7172   -0.2541    0.1685 C   0  0  0  0  0  0  0  0  0  0  0  0
   -3.9124    0.8635   -0.0782 C   0  0  0  0  0  0  0  0  0  0  0  0
   -3.2511    4.3956    1.1587 C   0  0  0  0  0  0  0  0  0  0  0  0
   -3.0831    4.5960    2.5320 C   0  0  0  0  0  0  0  0  0  0  0  0
   -3.4995    5.7953    3.1201 C   0  0  0  0  0  0  0  0  0  0  0  0
   -3.9623    6.8452    2.3285 C   0  0  0  0  0  0  0  0  0  0  0  0
   -4.6271    8.3400    3.0681 S   0  0  0  0  0  0  0  0  0  0  0  0
   -3.0224    9.1793    3.1364 C   0  0  0  0  0  0  0  0  0  0  0  0
   -3.8900    6.7429    0.9321 C   0  0  0  0  0  0  0  0  0  0  0  0
   -3.5043    5.5299    0.3503 C   0  0  0  0  0  0  0  0  0  0  0  0
   -0.5826    2.8652    0.3914 C   0  0  0  0  0  0  0  0  0  0  0  0
   -0.0684    2.3815    1.9249 S   0  0  0  0  0  0  0  0  0  0  0  0
    1.5710    2.1488    1.4544 C   0  0  0  0  0  0  0  0  0  0  0  0
    1.7346    2.5941    0.1124 C   0  0  0  0  0  0  0  0  0  0  0  0
    3.0116    2.7230   -0.6739 N   0  0  0  0  0  0  0  0  0  0  0  0
    4.2975    3.1557   -0.1565 C   0  0  0  0  0  0  0  0  0  0  0  0
    4.9851    4.2815   -0.7929 C   0  0  0  0  0  0  0  0  0  0  0  0
    6.3748    4.3833   -0.8158 C   0  0  0  0  0  0  0  0  0  0  0  0
    7.1284    3.4713   -0.0478 C   0  0  0  0  0  0  0  0  0  0  0  0
    8.9218    3.6474   -0.0152 S   0  0  0  0  0  0  0  0  0  0  0  0
    8.8944    4.3938    1.6723 C   0  0  0  0  0  0  0  0  0  0  0  0
    6.4989    2.4667    0.7189 C   0  0  0  0  0  0  0  0  0  0  0  0
    5.1256    2.3167    0.6311 C   0  0  0  0  0  0  0  0  0  0  0  0
    2.9179    2.9473   -2.1300 C   0  0  0  0  0  0  0  0  0  0  0  0
    3.6640    2.1352   -3.0017 C   0  0  0  0  0  0  0  0  0  0  0  0
    3.8741    2.5289   -4.3355 C   0  0  0  0  0  0  0  0  0  0  0  0
    3.2090    3.6580   -4.8405 C   0  0  0  0  0  0  0  0  0  0  0  0
    3.5233    4.3318   -6.4883 S   0  0  0  0  0  0  0  0  0  0  0  0
    3.4538    2.7357   -7.3863 C   0  0  0  0  0  0  0  0  0  0  0  0
    2.4323    4.4536   -3.9821 C   0  0  0  0  0  0  0  0  0  0  0  0
    2.3798    4.1438   -2.6217 C   0  0  0  0  0  0  0  0  0  0  0  0
    0.4849    2.8864   -0.4377 C   0  0  0  0  0  0  0  0  0  0  0  0
   -0.1559    2.9315   -2.0025 S   0  0  0  0  0  0  0  0  0  0  0  0
    2.2800    1.0190    2.0790 C   0  0  0  0  0  0  0  0  0  0  0  0
    2.1142    0.6040    3.3983 C   0  0  0  0  0  0  0  0  0  0  0  0
    1.5466    1.4276    4.4519 N   0  0  0  0  0  0  0  0  0  0  0  0
    1.7843    2.8687    4.6079 C   0  0  0  0  0  0  0  0  0  0  0  0
    1.0158    3.6296    5.5270 C   0  0  0  0  0  0  0  0  0  0  0  0
    1.3199    4.9507    5.8109 C   0  0  0  0  0  0  0  0  0  0  0  0
    2.3301    5.6053    5.1088 C   0  0  0  0  0  0  0  0  0  0  0  0
    2.8175    7.2747    5.5707 S   0  0  0  0  0  0  0  0  0  0  0  0
    1.3719    8.0938    4.7836 C   0  0  0  0  0  0  0  0  0  0  0  0
    3.0692    4.9067    4.1386 C   0  0  0  0  0  0  0  0  0  0  0  0
    2.8338    3.5275    3.9259 C   0  0  0  0  0  0  0  0  0  0  0  0
    0.8985    0.7575    5.5446 C   0  0  0  0  0  0  0  0  0  0  0  0
    1.6484    0.4621    6.6993 C   0  0  0  0  0  0  0  0  0  0  0  0
    1.1019   -0.3659    7.6779 C   0  0  0  0  0  0  0  0  0  0  0  0
   -0.1780   -0.9303    7.5045 C   0  0  0  0  0  0  0  0  0  0  0  0
   -0.8151   -2.0637    8.7273 S   0  0  0  0  0  0  0  0  0  0  0  0
   -1.6834   -0.7670    9.7023 C   0  0  0  0  0  0  0  0  0  0  0  0
   -0.9229   -0.6108    6.3560 C   0  0  0  0  0  0  0  0  0  0  0  0
   -0.3597    0.1921    5.3710 C   0  0  0  0  0  0  0  0  0  0  0  0
    2.4934   -0.7485    3.5463 C   0  0  0  0  0  0  0  0  0  0  0  0
    2.2010   -1.9760    4.6844 S   0  0  0  0  0  0  0  0  0  0  0  0
    2.7532   -3.2764    3.7367 C   0  0  0  0  0  0  0  0  0  0  0  0
    3.2489   -2.7092    2.5485 C   0  0  0  0  0  0  0  0  0  0  0  0
    4.0157   -3.3951    1.5452 N   0  0  0  0  0  0  0  0  0  0  0  0
    5.4552   -3.4118    1.6685 C   0  0  0  0  0  0  0  0  0  0  0  0
    6.0704   -3.7023    2.9085 C   0  0  0  0  0  0  0  0  0  0  0  0
    7.4481   -3.5949    3.0721 C   0  0  0  0  0  0  0  0  0  0  0  0
    8.2431   -3.1541    2.0078 C   0  0  0  0  0  0  0  0  0  0  0  0
   10.0249   -3.0155    2.2117 S   0  0  0  0  0  0  0  0  0  0  0  0
    9.9683   -1.3660    2.9912 C   0  0  0  0  0  0  0  0  0  0  0  0
    7.6550   -2.8280    0.7764 C   0  0  0  0  0  0  0  0  0  0  0  0
    6.2735   -2.9667    0.6056 C   0  0  0  0  0  0  0  0  0  0  0  0
    3.2875   -3.9156    0.4211 C   0  0  0  0  0  0  0  0  0  0  0  0
    2.5248   -5.0747    0.5837 C   0  0  0  0  0  0  0  0  0  0  0  0
    1.5024   -5.4016   -0.3134 C   0  0  0  0  0  0  0  0  0  0  0  0
    1.2836   -4.5638   -1.4129 C   0  0  0  0  0  0  0  0  0  0  0  0
   -0.0512   -4.9474   -2.5283 S   0  0  0  0  0  0  0  0  0  0  0  0
   -1.3266   -4.0034   -1.6144 C   0  0  0  0  0  0  0  0  0  0  0  0
    2.0762   -3.4364   -1.6307 C   0  0  0  0  0  0  0  0  0  0  0  0
    3.0724   -3.1084   -0.7146 C   0  0  0  0  0  0  0  0  0  0  0  0
    2.9951   -1.3372    2.4542 C   0  0  0  0  0  0  0  0  0  0  0  0
    2.8799   -0.2937    1.1448 S   0  0  0  0  0  0  0  0  0  0  0  0
    2.7372   -4.7327    4.0530 C   0  0  0  0  0  0  0  0  0  0  0  0
    1.6316   -5.5293    4.1053 C   0  0  0  0  0  0  0  0  0  0  0  0
    1.5979   -6.8988    3.5762 C   0  0  0  0  0  0  0  0  0  0  0  0
    2.5723   -7.5627    3.1128 O   0  0  0  0  0  0  0  0  0  0  0  0
    0.2084   -7.3225    3.4832 C   0  0  0  0  0  0  0  0  0  0  0  0
   -0.3219   -8.5553    3.1521 C   0  0  0  0  0  0  0  0  0  0  0  0
   -1.7169   -8.7377    3.2561 C   0  0  0  0  0  0  0  0  0  0  0  0
   -2.5507   -7.6686    3.6326 C   0  0  0  0  0  0  0  0  0  0  0  0
   -1.9864   -6.4061    3.8751 C   0  0  0  0  0  0  0  0  0  0  0  0
   -0.5965   -6.2709    3.9427 C   0  0  0  0  0  0  0  0  0  0  0  0
    0.2513   -5.1444    4.3817 C   0  0  0  0  0  0  0  0  0  0  0  0
   -0.1161   -4.4218    5.4859 C   0  0  0  0  0  0  0  0  0  0  0  0
    0.8318   -4.1334    6.5381 C   0  0  0  0  0  0  0  0  0  0  0  0
    1.6047   -3.8909    7.3768 N   0  0  0  0  0  0  0  0  0  0  0  0
   -1.5030   -3.9426    5.6958 C   0  0  0  0  0  0  0  0  0  0  0  0
   -2.5969   -3.5418    5.8405 N   0  0  0  0  0  0  0  0  0  0  0  0
   -6.1175    0.7378   -5.9400 H   0  0  0  0  0  0  0  0  0  0  0  0
   -1.7747   -3.4901   -4.3567 H   0  0  0  0  0  0  0  0  0  0  0  0
   -2.2553   -5.9045   -4.7665 H   0  0  0  0  0  0  0  0  0  0  0  0
   -4.3807   -6.5721   -5.8762 H   0  0  0  0  0  0  0  0  0  0  0  0
   -6.0037   -4.8828   -6.5955 H   0  0  0  0  0  0  0  0  0  0  0  0
   -2.8160    0.8636   -7.0787 H   0  0  0  0  0  0  0  0  0  0  0  0
    0.7172    0.8637   -6.7056 H   0  0  0  0  0  0  0  0  0  0  0  0
    0.6969    2.5137   -7.3543 H   0  0  0  0  0  0  0  0  0  0  0  0
   -1.0782    0.2654   -8.4576 H   0  0  0  0  0  0  0  0  0  0  0  0
    0.5587    0.6699   -9.0901 H   0  0  0  0  0  0  0  0  0  0  0  0
   -0.7845    1.9209   -9.1809 H   0  0  0  0  0  0  0  0  0  0  0  0
   -7.5598    4.0945   -0.5699 H   0  0  0  0  0  0  0  0  0  0  0  0
   -7.1985    2.5104    0.1249 H   0  0  0  0  0  0  0  0  0  0  0  0
   -8.7996    1.4244   -1.4728 H   0  0  0  0  0  0  0  0  0  0  0  0
   -9.6034    2.6709   -0.4507 H   0  0  0  0  0  0  0  0  0  0  0  0
   -9.2039    3.0631   -2.1554 H   0  0  0  0  0  0  0  0  0  0  0  0
   -4.8072    3.8091   -0.8895 H   0  0  0  0  0  0  0  0  0  0  0  0
   -4.1447    2.3292    2.9962 H   0  0  0  0  0  0  0  0  0  0  0  0
   -5.2610    0.2698    3.4857 H   0  0  0  0  0  0  0  0  0  0  0  0
   -4.6341   -3.3686    0.5099 H   0  0  0  0  0  0  0  0  0  0  0  0
   -3.7011   -2.5756    1.8881 H   0  0  0  0  0  0  0  0  0  0  0  0
   -4.7767   -3.9680    2.2229 H   0  0  0  0  0  0  0  0  0  0  0  0
   -4.9014   -0.9479   -0.6442 H   0  0  0  0  0  0  0  0  0  0  0  0
   -3.4888    0.9194   -1.0689 H   0  0  0  0  0  0  0  0  0  0  0  0
   -2.6349    3.8483    3.1682 H   0  0  0  0  0  0  0  0  0  0  0  0
   -3.5213    5.8769    4.2021 H   0  0  0  0  0  0  0  0  0  0  0  0
   -2.3391    8.6557    3.8439 H   0  0  0  0  0  0  0  0  0  0  0  0
   -3.1781   10.2053    3.5214 H   0  0  0  0  0  0  0  0  0  0  0  0
   -2.5792    9.2370    2.1327 H   0  0  0  0  0  0  0  0  0  0  0  0
   -4.2045    7.5565    0.2905 H   0  0  0  0  0  0  0  0  0  0  0  0
   -3.4222    5.4638   -0.7281 H   0  0  0  0  0  0  0  0  0  0  0  0
    4.5279    5.0204   -1.4422 H   0  0  0  0  0  0  0  0  0  0  0  0
    6.8714    5.1838   -1.3879 H   0  0  0  0  0  0  0  0  0  0  0  0
    9.7667    5.0863    1.7957 H   0  0  0  0  0  0  0  0  0  0  0  0
    8.9695    3.5841    2.4489 H   0  0  0  0  0  0  0  0  0  0  0  0
    7.9790    5.0154    1.8267 H   0  0  0  0  0  0  0  0  0  0  0  0
    7.0927    1.7533    1.2602 H   0  0  0  0  0  0  0  0  0  0  0  0
    4.6948    1.5114    1.2487 H   0  0  0  0  0  0  0  0  0  0  0  0
    4.2087    1.2838   -2.6210 H   0  0  0  0  0  0  0  0  0  0  0  0
    4.5616    1.9951   -4.9736 H   0  0  0  0  0  0  0  0  0  0  0  0
    2.9064    1.9618   -6.8092 H   0  0  0  0  0  0  0  0  0  0  0  0
    4.4961    2.3789   -7.5967 H   0  0  0  0  0  0  0  0  0  0  0  0
    2.9366    2.8951   -8.3555 H   0  0  0  0  0  0  0  0  0  0  0  0
    1.9628    5.3859   -4.2944 H   0  0  0  0  0  0  0  0  0  0  0  0
    1.8965    4.8370   -1.9398 H   0  0  0  0  0  0  0  0  0  0  0  0
    0.1768    3.1603    6.0535 H   0  0  0  0  0  0  0  0  0  0  0  0
    0.7900    5.4496    6.6182 H   0  0  0  0  0  0  0  0  0  0  0  0
    1.3229    9.1406    5.1436 H   0  0  0  0  0  0  0  0  0  0  0  0
    0.4478    7.6019    5.0897 H   0  0  0  0  0  0  0  0  0  0  0  0
    1.4121    8.1104    3.6598 H   0  0  0  0  0  0  0  0  0  0  0  0
    3.8921    5.3750    3.6384 H   0  0  0  0  0  0  0  0  0  0  0  0
    3.5010    3.0112    3.2500 H   0  0  0  0  0  0  0  0  0  0  0  0
    2.6598    0.8427    6.7970 H   0  0  0  0  0  0  0  0  0  0  0  0
    1.6874   -0.6655    8.5435 H   0  0  0  0  0  0  0  0  0  0  0  0
   -2.7860   -0.8123    9.5127 H   0  0  0  0  0  0  0  0  0  0  0  0
   -1.2706    0.2621    9.5132 H   0  0  0  0  0  0  0  0  0  0  0  0
   -1.5122   -0.9557   10.7884 H   0  0  0  0  0  0  0  0  0  0  0  0
   -1.9012   -1.0111    6.1910 H   0  0  0  0  0  0  0  0  0  0  0  0
   -0.9311    0.4377    4.4762 H   0  0  0  0  0  0  0  0  0  0  0  0
    5.4830   -3.9918    3.7670 H   0  0  0  0  0  0  0  0  0  0  0  0
    7.9199   -3.8546    4.0121 H   0  0  0  0  0  0  0  0  0  0  0  0
    9.6944   -0.6110    2.2166 H   0  0  0  0  0  0  0  0  0  0  0  0
   10.9843   -1.1256    3.3721 H   0  0  0  0  0  0  0  0  0  0  0  0
    9.2731   -1.3563    3.8345 H   0  0  0  0  0  0  0  0  0  0  0  0
    8.2561   -2.4731   -0.0627 H   0  0  0  0  0  0  0  0  0  0  0  0
    5.8391   -2.6908   -0.3447 H   0  0  0  0  0  0  0  0  0  0  0  0
    2.6802   -5.6896    1.4655 H   0  0  0  0  0  0  0  0  0  0  0  0
    0.8878   -6.2778   -0.1319 H   0  0  0  0  0  0  0  0  0  0  0  0
   -1.2872   -4.2180   -0.5292 H   0  0  0  0  0  0  0  0  0  0  0  0
   -1.2035   -2.9121   -1.7807 H   0  0  0  0  0  0  0  0  0  0  0  0
   -2.3325   -4.3029   -1.9826 H   0  0  0  0  0  0  0  0  0  0  0  0
    1.9275   -2.8099   -2.4972 H   0  0  0  0  0  0  0  0  0  0  0  0
    3.6190   -2.2076   -0.8572 H   0  0  0  0  0  0  0  0  0  0  0  0
    3.6964   -5.2378    4.0681 H   0  0  0  0  0  0  0  0  0  0  0  0
    0.3078   -9.3870    2.8299 H   0  0  0  0  0  0  0  0  0  0  0  0
   -2.1568   -9.7135    3.0778 H   0  0  0  0  0  0  0  0  0  0  0  0
   -3.6266   -7.8072    3.7099 H   0  0  0  0  0  0  0  0  0  0  0  0
   -2.6432   -5.6030    4.1814 H   0  0  0  0  0  0  0  0  0  0  0  0
  1  2  2  3
  2  3  1  0
  3  4  2  0
  3  5  1  0
  5  6  2  0
  6  7  1  0
  7  8  2  0
  8  9  1  0
  9 10  2  0
 10 11  1  0
 11 12  2  3
 12 13  1  0
 13 14  3  0
 12 15  1  0
 15 16  3  0
  1 17  1  0
 17 18  2  0
 18 19  1  0
 19 20  2  0
 20 21  1  0
 21 22  1  0
 20 23  1  0
 23 24  1  0
 24 25  2  0
 25 26  1  0
 26 27  2  0
 27 28  1  0
 28 29  1  0
 29 30  1  0
 30 31  1  0
 29 32  2  0
 25 33  1  0
 33 34  2  0
 34 35  1  0
 35 36  1  0
 36 37  2  0
 37 38  1  0
 38 39  2  0
 39 40  1  0
 40 41  1  0
 39 42  1  0
 42 43  2  0
 35 44  1  0
 44 45  2  0
 45 46  1  0
 46 47  2  0
 47 48  1  0
 48 49  1  0
 47 50  1  0
 50 51  2  0
 34 52  1  0
 52 53  1  0
 53 54  1  0
 54 55  2  0
 55 56  1  0
 56 57  1  0
 57 58  2  0
 58 59  1  0
 59 60  2  0
 60 61  1  0
 61 62  1  0
 60 63  1  0
 63 64  2  0
 56 65  1  0
 65 66  2  0
 66 67  1  0
 67 68  2  0
 68 69  1  0
 69 70  1  0
 68 71  1  0
 71 72  2  0
 55 73  1  0
 73 74  1  0
 54 75  1  0
 75 76  2  0
 76 77  1  0
 77 78  1  0
 78 79  2  0
 79 80  1  0
 80 81  2  0
 81 82  1  0
 82 83  1  0
 81 84  1  0
 84 85  2  0
 77 86  1  0
 86 87  2  0
 87 88  1  0
 88 89  2  0
 89 90  1  0
 90 91  1  0
 89 92  1  0
 92 93  2  0
 76 94  1  0
 94 95  1  0
 95 96  1  0
 96 97  2  0
 97 98  1  0
 98 99  1  0
 99100  2  0
100101  1  0
101102  2  0
102103  1  0
103104  1  0
102105  1  0
105106  2  0
 98107  1  0
107108  2  0
108109  1  0
109110  2  0
110111  1  0
111112  1  0
110113  1  0
113114  2  0
 97115  1  0
115116  1  0
 96117  1  0
117118  2  3
118119  1  0
119120  2  0
119121  1  0
121122  2  0
122123  1  0
123124  2  0
124125  1  0
125126  2  0
126127  1  0
127128  2  3
128129  1  0
129130  3  0
128131  1  0
131132  3  0
 11  2  1  0
 27 17  1  0
 74 33  1  0
116 75  1  0
127118  1  0
 10  5  1  0
 24 18  1  0
 32 26  1  0
 43 36  1  0
 51 44  1  0
 73 52  2  0
 85 78  1  0
 93 86  1  0
115 94  2  0
126121  1  0
 64 57  1  0
 72 65  1  0
106 99  1  0
114107  1  0
  1133  1  0
  6134  1  0
  7135  1  0
  8136  1  0
  9137  1  0
 19138  1  0
 21139  1  0
 21140  1  0
 22141  1  0
 22142  1  0
 22143  1  0
 30144  1  0
 30145  1  0
 31146  1  0
 31147  1  0
 31148  1  0
 32149  1  0
 37150  1  0
 38151  1  0
 41152  1  0
 41153  1  0
 41154  1  0
 42155  1  0
 43156  1  0
 45157  1  0
 46158  1  0
 49159  1  0
 49160  1  0
 49161  1  0
 50162  1  0
 51163  1  0
 58164  1  0
 59165  1  0
 62166  1  0
 62167  1  0
 62168  1  0
 63169  1  0
 64170  1  0
 66171  1  0
 67172  1  0
 70173  1  0
 70174  1  0
 70175  1  0
 71176  1  0
 72177  1  0
 79178  1  0
 80179  1  0
 83180  1  0
 83181  1  0
 83182  1  0
 84183  1  0
 85184  1  0
 87185  1  0
 88186  1  0
 91187  1  0
 91188  1  0
 91189  1  0
 92190  1  0
 93191  1  0
100192  1  0
101193  1  0
104194  1  0
104195  1  0
104196  1  0
105197  1  0
106198  1  0
108199  1  0
109200  1  0
112201  1  0
112202  1  0
112203  1  0
113204  1  0
114205  1  0
117206  1  0
122207  1  0
123208  1  0
124209  1  0
125210  1  0
M  END

