
     RDKit          3D

211229  0  0  0  0  0  0  0  0999 V2000
    7.7768    5.2662   -0.1932 C   0  0  0  0  0  0  0  0  0  0  0  0
    8.6584    5.4636   -1.1864 C   0  0  0  0  0  0  0  0  0  0  0  0
    9.8868    4.6587   -1.2295 C   0  0  0  0  0  0  0  0  0  0  0  0
    9.9899    3.4678   -0.8357 O   0  0  0  0  0  0  0  0  0  0  0  0
   10.9925    5.4868   -1.6691 C   0  0  0  0  0  0  0  0  0  0  0  0
   12.3325    5.1328   -1.8519 C   0  0  0  0  0  0  0  0  0  0  0  0
   13.2350    6.1260   -2.2536 C   0  0  0  0  0  0  0  0  0  0  0  0
   12.7941    7.4410   -2.4646 C   0  0  0  0  0  0  0  0  0  0  0  0
   11.4434    7.7811   -2.2680 C   0  0  0  0  0  0  0  0  0  0  0  0
   10.5426    6.7748   -1.8768 C   0  0  0  0  0  0  0  0  0  0  0  0
    9.0811    6.8237   -1.6224 C   0  0  0  0  0  0  0  0  0  0  0  0
    8.2122    7.8106   -1.9521 C   0  0  0  0  0  0  0  0  0  0  0  0
    6.7905    7.5800   -1.9489 C   0  0  0  0  0  0  0  0  0  0  0  0
    5.6487    7.3872   -1.9626 N   0  0  0  0  0  0  0  0  0  0  0  0
    8.6218    9.0926   -2.4584 C   0  0  0  0  0  0  0  0  0  0  0  0
    8.9319   10.1233   -2.8791 N   0  0  0  0  0  0  0  0  0  0  0  0
    6.6470    4.2988   -0.3111 C   0  0  0  0  0  0  0  0  0  0  0  0
    6.7152    3.2590   -1.2687 C   0  0  0  0  0  0  0  0  0  0  0  0
    5.6886    2.3157   -1.3959 C   0  0  0  0  0  0  0  0  0  0  0  0
    4.5662    2.3584   -0.5644 C   0  0  0  0  0  0  0  0  0  0  0  0
    4.4802    3.3976    0.3890 C   0  0  0  0  0  0  0  0  0  0  0  0
    3.4681    3.6560    1.4335 C   0  0  0  0  0  0  0  0  0  0  0  0
    2.1951    3.2147    1.4536 C   0  0  0  0  0  0  0  0  0  0  0  0
    1.1777    3.5426    2.4694 C   0  0  0  0  0  0  0  0  0  0  0  0
    1.3969    3.5169    3.8563 C   0  0  0  0  0  0  0  0  0  0  0  0
    0.2464    3.7014    4.6068 C   0  0  0  0  0  0  0  0  0  0  0  0
   -1.0466    3.8625    3.5491 S   0  0  0  0  0  0  0  0  0  0  0  0
   -0.1598    3.7121    2.1330 C   0  0  0  0  0  0  0  0  0  0  0  0
    4.0233    4.7850    2.1760 C   0  0  0  0  0  0  0  0  0  0  0  0
    3.5053    5.3116    3.1970 O   0  0  0  0  0  0  0  0  0  0  0  0
    5.1706    5.3331    1.5252 N   0  0  0  0  0  0  0  0  0  0  0  0
    5.3094    6.7984    1.4338 C   0  0  0  0  0  0  0  0  0  0  0  0
    4.0242    7.4644    0.9315 C   0  0  0  0  0  0  0  0  0  0  0  0
    5.4691    4.3805    0.4821 C   0  0  0  0  0  0  0  0  0  0  0  0
    3.4916    1.3791   -0.7759 C   0  0  0  0  0  0  0  0  0  0  0  0
    3.1313    0.3495    0.1031 C   0  0  0  0  0  0  0  0  0  0  0  0
    4.0246   -0.2870    1.0257 N   0  0  0  0  0  0  0  0  0  0  0  0
    4.3066   -1.6878    0.8262 C   0  0  0  0  0  0  0  0  0  0  0  0
    4.1720   -2.6128    1.8788 C   0  0  0  0  0  0  0  0  0  0  0  0
    4.2701   -3.9861    1.6303 C   0  0  0  0  0  0  0  0  0  0  0  0
    4.5092   -4.4514    0.3328 C   0  0  0  0  0  0  0  0  0  0  0  0
    4.5378   -6.2115    0.0012 S   0  0  0  0  0  0  0  0  0  0  0  0
    2.7575   -6.3076   -0.3503 C   0  0  0  0  0  0  0  0  0  0  0  0
    4.6985   -3.5405   -0.7081 C   0  0  0  0  0  0  0  0  0  0  0  0
    4.5951   -2.1673   -0.4659 C   0  0  0  0  0  0  0  0  0  0  0  0
    4.3478    0.3545    2.2632 C   0  0  0  0  0  0  0  0  0  0  0  0
    5.6532    0.8105    2.4921 C   0  0  0  0  0  0  0  0  0  0  0  0
    5.9945    1.3621    3.7313 C   0  0  0  0  0  0  0  0  0  0  0  0
    5.0432    1.4440    4.7514 C   0  0  0  0  0  0  0  0  0  0  0  0
    5.5121    2.0858    6.3610 S   0  0  0  0  0  0  0  0  0  0  0  0
    4.9805    3.7822    5.9936 C   0  0  0  0  0  0  0  0  0  0  0  0
    3.7379    0.9841    4.5265 C   0  0  0  0  0  0  0  0  0  0  0  0
    3.3868    0.4575    3.2790 C   0  0  0  0  0  0  0  0  0  0  0  0
    1.8790   -0.1625   -0.2164 C   0  0  0  0  0  0  0  0  0  0  0  0
    0.8609   -1.2619    0.4959 S   0  0  0  0  0  0  0  0  0  0  0  0
   -0.4258   -1.0337   -0.6073 C   0  0  0  0  0  0  0  0  0  0  0  0
   -0.0034   -0.1056   -1.5907 C   0  0  0  0  0  0  0  0  0  0  0  0
   -0.4551   -0.1201   -2.9549 N   0  0  0  0  0  0  0  0  0  0  0  0
    0.2533   -1.0503   -3.8139 C   0  0  0  0  0  0  0  0  0  0  0  0
    0.9736   -0.5954   -4.9350 C   0  0  0  0  0  0  0  0  0  0  0  0
    1.7479   -1.4829   -5.6886 C   0  0  0  0  0  0  0  0  0  0  0  0
    1.8266   -2.8314   -5.3256 C   0  0  0  0  0  0  0  0  0  0  0  0
    2.8500   -3.9657   -6.2713 S   0  0  0  0  0  0  0  0  0  0  0  0
    4.2714   -3.8044   -5.1460 C   0  0  0  0  0  0  0  0  0  0  0  0
    1.1349   -3.2909   -4.2035 C   0  0  0  0  0  0  0  0  0  0  0  0
    0.3674   -2.4055   -3.4456 C   0  0  0  0  0  0  0  0  0  0  0  0
   -1.1487    1.0256   -3.5154 C   0  0  0  0  0  0  0  0  0  0  0  0
   -1.7390    0.9483   -4.7939 C   0  0  0  0  0  0  0  0  0  0  0  0
   -2.3804    2.0536   -5.3559 C   0  0  0  0  0  0  0  0  0  0  0  0
   -2.4418    3.2580   -4.6577 C   0  0  0  0  0  0  0  0  0  0  0  0
   -3.2469    4.6820   -5.3956 S   0  0  0  0  0  0  0  0  0  0  0  0
   -1.7404    5.2559   -6.2346 C   0  0  0  0  0  0  0  0  0  0  0  0
   -1.8851    3.3504   -3.3784 C   0  0  0  0  0  0  0  0  0  0  0  0
   -1.2476    2.2421   -2.8077 C   0  0  0  0  0  0  0  0  0  0  0  0
    1.2750    0.3818   -1.2929 C   0  0  0  0  0  0  0  0  0  0  0  0
    2.2697    1.5632   -1.9614 S   0  0  0  0  0  0  0  0  0  0  0  0
   -1.8182   -1.3421   -0.1754 C   0  0  0  0  0  0  0  0  0  0  0  0
   -3.0479   -1.4032   -0.8813 C   0  0  0  0  0  0  0  0  0  0  0  0
   -3.2186   -1.5342   -2.3038 N   0  0  0  0  0  0  0  0  0  0  0  0
   -2.8877   -2.8048   -2.9243 C   0  0  0  0  0  0  0  0  0  0  0  0
   -2.8801   -3.9999   -2.1685 C   0  0  0  0  0  0  0  0  0  0  0  0
   -2.6042   -5.2253   -2.7762 C   0  0  0  0  0  0  0  0  0  0  0  0
   -2.3249   -5.2873   -4.1421 C   0  0  0  0  0  0  0  0  0  0  0  0
   -2.0472   -6.8805   -4.9245 S   0  0  0  0  0  0  0  0  0  0  0  0
   -0.2486   -6.8534   -4.6462 C   0  0  0  0  0  0  0  0  0  0  0  0
   -2.3155   -4.1126   -4.9053 C   0  0  0  0  0  0  0  0  0  0  0  0
   -2.5881   -2.8831   -4.2983 C   0  0  0  0  0  0  0  0  0  0  0  0
   -4.1445   -0.6066   -2.9363 C   0  0  0  0  0  0  0  0  0  0  0  0
   -4.2369    0.7246   -2.4721 C   0  0  0  0  0  0  0  0  0  0  0  0
   -5.1836    1.6051   -3.0008 C   0  0  0  0  0  0  0  0  0  0  0  0
   -6.0552    1.1784   -4.0047 C   0  0  0  0  0  0  0  0  0  0  0  0
   -7.2872    2.3062   -4.6609 S   0  0  0  0  0  0  0  0  0  0  0  0
   -8.6232    1.6683   -3.6027 C   0  0  0  0  0  0  0  0  0  0  0  0
   -5.9840   -0.1350   -4.4732 C   0  0  0  0  0  0  0  0  0  0  0  0
   -5.0554   -1.0295   -3.9297 C   0  0  0  0  0  0  0  0  0  0  0  0
   -4.1269   -1.5897   -0.0050 C   0  0  0  0  0  0  0  0  0  0  0  0
   -5.7652   -1.9319   -0.1992 S   0  0  0  0  0  0  0  0  0  0  0  0
   -6.0328   -2.1942    1.4704 C   0  0  0  0  0  0  0  0  0  0  0  0
   -4.8363   -2.0015    2.1634 C   0  0  0  0  0  0  0  0  0  0  0  0
   -4.6593   -2.2537    3.5664 N   0  0  0  0  0  0  0  0  0  0  0  0
   -3.7388   -3.2873    3.9761 C   0  0  0  0  0  0  0  0  0  0  0  0
   -2.7860   -3.0410    4.9810 C   0  0  0  0  0  0  0  0  0  0  0  0
   -1.8556   -4.0226    5.3281 C   0  0  0  0  0  0  0  0  0  0  0  0
   -1.8596   -5.2572    4.6707 C   0  0  0  0  0  0  0  0  0  0  0  0
   -0.6267   -6.4923    5.0721 S   0  0  0  0  0  0  0  0  0  0  0  0
    0.5277   -5.9156    3.7866 C   0  0  0  0  0  0  0  0  0  0  0  0
   -2.8122   -5.5162    3.6814 C   0  0  0  0  0  0  0  0  0  0  0  0
   -3.7432   -4.5361    3.3281 C   0  0  0  0  0  0  0  0  0  0  0  0
   -5.2748   -1.3787    4.5355 C   0  0  0  0  0  0  0  0  0  0  0  0
   -5.6817   -1.8704    5.7882 C   0  0  0  0  0  0  0  0  0  0  0  0
   -6.2227   -1.0082    6.7466 C   0  0  0  0  0  0  0  0  0  0  0  0
   -6.3646    0.3538    6.4653 C   0  0  0  0  0  0  0  0  0  0  0  0
   -7.0490    1.4654    7.6976 S   0  0  0  0  0  0  0  0  0  0  0  0
   -5.4210    1.8965    8.3845 C   0  0  0  0  0  0  0  0  0  0  0  0
   -5.9881    0.8498    5.2132 C   0  0  0  0  0  0  0  0  0  0  0  0
   -5.4435   -0.0096    4.2522 C   0  0  0  0  0  0  0  0  0  0  0  0
   -3.8028   -1.6827    1.3009 C   0  0  0  0  0  0  0  0  0  0  0  0
   -2.1618   -1.5289    1.4908 S   0  0  0  0  0  0  0  0  0  0  0  0
   -7.2313   -2.7610    2.0999 C   0  0  0  0  0  0  0  0  0  0  0  0
   -7.5570   -4.0643    1.9815 C   0  0  0  0  0  0  0  0  0  0  0  0
   -6.9470   -5.0033    1.0329 C   0  0  0  0  0  0  0  0  0  0  0  0
   -6.6177   -4.7417   -0.1555 O   0  0  0  0  0  0  0  0  0  0  0  0
   -7.0203   -6.3315    1.5849 C   0  0  0  0  0  0  0  0  0  0  0  0
   -6.5415   -7.5221    1.0354 C   0  0  0  0  0  0  0  0  0  0  0  0
   -6.7798   -8.7161    1.7199 C   0  0  0  0  0  0  0  0  0  0  0  0
   -7.4537   -8.7033    2.9565 C   0  0  0  0  0  0  0  0  0  0  0  0
   -7.9351   -7.4972    3.4896 C   0  0  0  0  0  0  0  0  0  0  0  0
   -7.6887   -6.2977    2.7989 C   0  0  0  0  0  0  0  0  0  0  0  0
   -8.1390   -4.9011    3.0762 C   0  0  0  0  0  0  0  0  0  0  0  0
   -8.9077   -4.4738    4.1111 C   0  0  0  0  0  0  0  0  0  0  0  0
   -9.5847   -3.2035    4.0803 C   0  0  0  0  0  0  0  0  0  0  0  0
  -10.1560   -2.1932    4.0705 N   0  0  0  0  0  0  0  0  0  0  0  0
   -9.1909   -5.2799    5.2665 C   0  0  0  0  0  0  0  0  0  0  0  0
   -9.4234   -5.9155    6.2072 N   0  0  0  0  0  0  0  0  0  0  0  0
    7.8215    5.9526    0.6400 H   0  0  0  0  0  0  0  0  0  0  0  0
   12.6664    4.1220   -1.6705 H   0  0  0  0  0  0  0  0  0  0  0  0
   14.2758    5.8794   -2.4007 H   0  0  0  0  0  0  0  0  0  0  0  0
   13.4958    8.1984   -2.7889 H   0  0  0  0  0  0  0  0  0  0  0  0
   11.1421    8.8009   -2.4226 H   0  0  0  0  0  0  0  0  0  0  0  0
    7.5664    3.1636   -1.9257 H   0  0  0  0  0  0  0  0  0  0  0  0
    5.7797    1.5354   -2.1445 H   0  0  0  0  0  0  0  0  0  0  0  0
    1.8293    2.6266    0.6377 H   0  0  0  0  0  0  0  0  0  0  0  0
    2.3635    3.3406    4.3018 H   0  0  0  0  0  0  0  0  0  0  0  0
    0.1888    3.6921    5.6865 H   0  0  0  0  0  0  0  0  0  0  0  0
   -0.5632    3.7144    1.1315 H   0  0  0  0  0  0  0  0  0  0  0  0
    5.5572    7.2079    2.4397 H   0  0  0  0  0  0  0  0  0  0  0  0
    6.1069    7.0967    0.7425 H   0  0  0  0  0  0  0  0  0  0  0  0
    3.6876    6.9862   -0.0120 H   0  0  0  0  0  0  0  0  0  0  0  0
    4.2174    8.5396    0.7344 H   0  0  0  0  0  0  0  0  0  0  0  0
    3.2159    7.3936    1.6851 H   0  0  0  0  0  0  0  0  0  0  0  0
    3.9342   -2.2794    2.8778 H   0  0  0  0  0  0  0  0  0  0  0  0
    4.1284   -4.6878    2.4440 H   0  0  0  0  0  0  0  0  0  0  0  0
    2.4790   -7.3641   -0.5387 H   0  0  0  0  0  0  0  0  0  0  0  0
    2.1728   -5.9309    0.5131 H   0  0  0  0  0  0  0  0  0  0  0  0
    2.5147   -5.7074   -1.2507 H   0  0  0  0  0  0  0  0  0  0  0  0
    4.9056   -3.8929   -1.7112 H   0  0  0  0  0  0  0  0  0  0  0  0
    4.7155   -1.4777   -1.2954 H   0  0  0  0  0  0  0  0  0  0  0  0
    6.3997    0.7328    1.7109 H   0  0  0  0  0  0  0  0  0  0  0  0
    7.0073    1.7042    3.8998 H   0  0  0  0  0  0  0  0  0  0  0  0
    5.3846    4.4614    6.7704 H   0  0  0  0  0  0  0  0  0  0  0  0
    3.8757    3.8352    6.0194 H   0  0  0  0  0  0  0  0  0  0  0  0
    5.3566    4.1049    5.0025 H   0  0  0  0  0  0  0  0  0  0  0  0
    2.9990    1.0343    5.3118 H   0  0  0  0  0  0  0  0  0  0  0  0
    2.3821    0.0967    3.1115 H   0  0  0  0  0  0  0  0  0  0  0  0
    0.9734    0.4505   -5.2007 H   0  0  0  0  0  0  0  0  0  0  0  0
    2.3036   -1.1162   -6.5432 H   0  0  0  0  0  0  0  0  0  0  0  0
    4.5279   -2.7355   -4.9888 H   0  0  0  0  0  0  0  0  0  0  0  0
    5.1435   -4.3209   -5.5939 H   0  0  0  0  0  0  0  0  0  0  0  0
    4.0331   -4.2765   -4.1704 H   0  0  0  0  0  0  0  0  0  0  0  0
    1.2142   -4.3265   -3.8951 H   0  0  0  0  0  0  0  0  0  0  0  0
   -0.1359   -2.7902   -2.5718 H   0  0  0  0  0  0  0  0  0  0  0  0
   -1.6931    0.0384   -5.3697 H   0  0  0  0  0  0  0  0  0  0  0  0
   -2.8178    1.9722   -6.3442 H   0  0  0  0  0  0  0  0  0  0  0  0
   -1.3466    4.4620   -6.9073 H   0  0  0  0  0  0  0  0  0  0  0  0
   -1.9773    6.1570   -6.8386 H   0  0  0  0  0  0  0  0  0  0  0  0
   -0.9639    5.5191   -5.4880 H   0  0  0  0  0  0  0  0  0  0  0  0
   -1.9426    4.2790   -2.8235 H   0  0  0  0  0  0  0  0  0  0  0  0
   -0.8252    2.3518   -1.8170 H   0  0  0  0  0  0  0  0  0  0  0  0
   -3.1289   -3.9989   -1.1160 H   0  0  0  0  0  0  0  0  0  0  0  0
   -2.6326   -6.1332   -2.1882 H   0  0  0  0  0  0  0  0  0  0  0  0
    0.1788   -7.8279   -4.9582 H   0  0  0  0  0  0  0  0  0  0  0  0
   -0.0193   -6.6952   -3.5716 H   0  0  0  0  0  0  0  0  0  0  0  0
    0.2080   -6.0467   -5.2549 H   0  0  0  0  0  0  0  0  0  0  0  0
   -2.0957   -4.1539   -5.9632 H   0  0  0  0  0  0  0  0  0  0  0  0
   -2.5747   -1.9905   -4.9047 H   0  0  0  0  0  0  0  0  0  0  0  0
   -3.5834    1.0763   -1.6885 H   0  0  0  0  0  0  0  0  0  0  0  0
   -5.2393    2.6186   -2.6283 H   0  0  0  0  0  0  0  0  0  0  0  0
   -8.9324    0.6651   -3.9585 H   0  0  0  0  0  0  0  0  0  0  0  0
   -8.2893    1.5977   -2.5463 H   0  0  0  0  0  0  0  0  0  0  0  0
   -9.4934    2.3504   -3.6618 H   0  0  0  0  0  0  0  0  0  0  0  0
   -6.6697   -0.4766   -5.2396 H   0  0  0  0  0  0  0  0  0  0  0  0
   -5.0769   -2.0529   -4.2687 H   0  0  0  0  0  0  0  0  0  0  0  0
   -2.7546   -2.0803    5.4771 H   0  0  0  0  0  0  0  0  0  0  0  0
   -1.1218   -3.8172    6.0946 H   0  0  0  0  0  0  0  0  0  0  0  0
    0.7763   -4.8475    3.9473 H   0  0  0  0  0  0  0  0  0  0  0  0
    0.0659   -6.0376    2.7842 H   0  0  0  0  0  0  0  0  0  0  0  0
    1.4589   -6.5151    3.8304 H   0  0  0  0  0  0  0  0  0  0  0  0
   -2.8178   -6.4716    3.1697 H   0  0  0  0  0  0  0  0  0  0  0  0
   -4.4648   -4.7506    2.5515 H   0  0  0  0  0  0  0  0  0  0  0  0
   -5.5806   -2.9211    6.0208 H   0  0  0  0  0  0  0  0  0  0  0  0
   -6.5199   -1.3974    7.7104 H   0  0  0  0  0  0  0  0  0  0  0  0
   -5.5539    2.6167    9.2183 H   0  0  0  0  0  0  0  0  0  0  0  0
   -4.9171    0.9845    8.7730 H   0  0  0  0  0  0  0  0  0  0  0  0
   -4.7869    2.3639    7.6017 H   0  0  0  0  0  0  0  0  0  0  0  0
   -6.0963    1.9038    4.9884 H   0  0  0  0  0  0  0  0  0  0  0  0
   -5.1393    0.4016    3.2973 H   0  0  0  0  0  0  0  0  0  0  0  0
   -7.5756   -2.2076    2.9601 H   0  0  0  0  0  0  0  0  0  0  0  0
   -6.0321   -7.5229    0.0786 H   0  0  0  0  0  0  0  0  0  0  0  0
   -6.4327   -9.6530    1.3090 H   0  0  0  0  0  0  0  0  0  0  0  0
   -7.6361   -9.6302    3.4822 H   0  0  0  0  0  0  0  0  0  0  0  0
   -8.4866   -7.5359    4.4134 H   0  0  0  0  0  0  0  0  0  0  0  0
  1  2  2  3
  2  3  1  0
  3  4  2  0
  3  5  1  0
  5  6  2  0
  6  7  1  0
  7  8  2  0
  8  9  1  0
  9 10  2  0
 10 11  1  0
 11 12  2  3
 12 13  1  0
 13 14  3  0
 12 15  1  0
 15 16  3  0
  1 17  1  0
 17 18  2  0
 18 19  1  0
 19 20  2  0
 20 21  1  0
 21 22  1  0
 22 23  2  3
 23 24  1  0
 24 25  1  0
 25 26  2  0
 26 27  1  0
 27 28  1  0
 22 29  1  0
 29 30  2  0
 29 31  1  0
 31 32  1  0
 32 33  1  0
 31 34  1  0
 20 35  1  0
 35 36  2  0
 36 37  1  0
 37 38  1  0
 38 39  2  0
 39 40  1  0
 40 41  2  0
 41 42  1  0
 42 43  1  0
 41 44  1  0
 44 45  2  0
 37 46  1  0
 46 47  2  0
 47 48  1  0
 48 49  2  0
 49 50  1  0
 50 51  1  0
 49 52  1  0
 52 53  2  0
 36 54  1  0
 54 55  1  0
 55 56  1  0
 56 57  2  0
 57 58  1  0
 58 59  1  0
 59 60  2  0
 60 61  1  0
 61 62  2  0
 62 63  1  0
 63 64  1  0
 62 65  1  0
 65 66  2  0
 58 67  1  0
 67 68  2  0
 68 69  1  0
 69 70  2  0
 70 71  1  0
 71 72  1  0
 70 73  1  0
 73 74  2  0
 57 75  1  0
 75 76  1  0
 56 77  1  0
 77 78  2  0
 78 79  1  0
 79 80  1  0
 80 81  2  0
 81 82  1  0
 82 83  2  0
 83 84  1  0
 84 85  1  0
 83 86  1  0
 86 87  2  0
 79 88  1  0
 88 89  2  0
 89 90  1  0
 90 91  2  0
 91 92  1  0
 92 93  1  0
 91 94  1  0
 94 95  2  0
 78 96  1  0
 96 97  1  0
 97 98  1  0
 98 99  2  0
 99100  1  0
100101  1  0
101102  2  0
102103  1  0
103104  2  0
104105  1  0
105106  1  0
104107  1  0
107108  2  0
100109  1  0
109110  2  0
110111  1  0
111112  2  0
112113  1  0
113114  1  0
112115  1  0
115116  2  0
 99117  1  0
117118  1  0
 98119  1  0
119120  2  3
120121  1  0
121122  2  0
121123  1  0
123124  2  0
124125  1  0
125126  2  0
126127  1  0
127128  2  0
128129  1  0
129130  2  3
130131  1  0
131132  3  0
130133  1  0
133134  3  0
 11  2  1  0
 34 17  1  0
 76 35  1  0
118 77  1  0
129120  1  0
 10  5  1  0
 34 21  2  0
 45 38  1  0
 53 46  1  0
 75 54  2  0
 87 80  1  0
 95 88  1  0
117 96  2  0
128123  1  0
 28 24  2  0
 66 59  1  0
 74 67  1  0
108101  1  0
116109  1  0
  1135  1  0
  6136  1  0
  7137  1  0
  8138  1  0
  9139  1  0
 18140  1  0
 19141  1  0
 23142  1  0
 25143  1  0
 26144  1  0
 28145  1  0
 32146  1  0
 32147  1  0
 33148  1  0
 33149  1  0
 33150  1  0
 39151  1  0
 40152  1  0
 43153  1  0
 43154  1  0
 43155  1  0
 44156  1  0
 45157  1  0
 47158  1  0
 48159  1  0
 51160  1  0
 51161  1  0
 51162  1  0
 52163  1  0
 53164  1  0
 60165  1  0
 61166  1  0
 64167  1  0
 64168  1  0
 64169  1  0
 65170  1  0
 66171  1  0
 68172  1  0
 69173  1  0
 72174  1  0
 72175  1  0
 72176  1  0
 73177  1  0
 74178  1  0
 81179  1  0
 82180  1  0
 85181  1  0
 85182  1  0
 85183  1  0
 86184  1  0
 87185  1  0
 89186  1  0
 90187  1  0
 93188  1  0
 93189  1  0
 93190  1  0
 94191  1  0
 95192  1  0
102193  1  0
103194  1  0
106195  1  0
106196  1  0
106197  1  0
107198  1  0
108199  1  0
110200  1  0
111201  1  0
114202  1  0
114203  1  0
114204  1  0
115205  1  0
116206  1  0
119207  1  0
124208  1  0
125209  1  0
126210  1  0
127211  1  0
M  END

