
     RDKit          3D

222239  0  0  0  0  0  0  0  0999 V2000
   -7.4136    5.8428    3.4167 N   0  0  0  0  0  0  0  0  0  0  0  0
   -7.4497    4.8770    2.7767 C   0  0  0  0  0  0  0  0  0  0  0  0
   -7.4939    3.6662    1.9860 C   0  0  0  0  0  0  0  0  0  0  0  0
   -8.5932    2.8736    2.0350 C   0  0  0  0  0  0  0  0  0  0  0  0
   -9.7673    3.2539    2.7944 C   0  0  0  0  0  0  0  0  0  0  0  0
  -10.7019    3.5594    3.4042 N   0  0  0  0  0  0  0  0  0  0  0  0
   -8.6460    1.5881    1.3806 C   0  0  0  0  0  0  0  0  0  0  0  0
   -8.6923    0.5569    0.8536 N   0  0  0  0  0  0  0  0  0  0  0  0
   -6.2895    3.2991    1.1890 C   0  0  0  0  0  0  0  0  0  0  0  0
   -4.9465    3.4931    1.5593 C   0  0  0  0  0  0  0  0  0  0  0  0
   -4.5022    4.4641    2.5164 N   0  0  0  0  0  0  0  0  0  0  0  0
   -4.2386    4.0778    3.8874 C   0  0  0  0  0  0  0  0  0  0  0  0
   -3.8611    2.7610    4.2072 C   0  0  0  0  0  0  0  0  0  0  0  0
   -3.5614    2.4071    5.5263 C   0  0  0  0  0  0  0  0  0  0  0  0
   -3.6745    3.3493    6.5548 C   0  0  0  0  0  0  0  0  0  0  0  0
   -3.3402    2.9917    7.9744 C   0  0  0  0  0  0  0  0  0  0  0  0
   -4.0834    4.6573    6.2446 C   0  0  0  0  0  0  0  0  0  0  0  0
   -4.3659    5.0193    4.9275 C   0  0  0  0  0  0  0  0  0  0  0  0
   -4.1454    5.7793    2.0188 C   0  0  0  0  0  0  0  0  0  0  0  0
   -4.9490    6.4170    1.0507 C   0  0  0  0  0  0  0  0  0  0  0  0
   -4.5893    7.6618    0.5344 C   0  0  0  0  0  0  0  0  0  0  0  0
   -3.4099    8.2896    0.9497 C   0  0  0  0  0  0  0  0  0  0  0  0
   -3.0467    9.6474    0.4230 C   0  0  0  0  0  0  0  0  0  0  0  0
   -2.5992    7.6646    1.9102 C   0  0  0  0  0  0  0  0  0  0  0  0
   -2.9586    6.4152    2.4350 C   0  0  0  0  0  0  0  0  0  0  0  0
   -4.0794    2.9361    0.6271 C   0  0  0  0  0  0  0  0  0  0  0  0
   -2.4183    2.8651    0.4990 S   0  0  0  0  0  0  0  0  0  0  0  0
   -2.4222    2.1563   -1.0584 C   0  0  0  0  0  0  0  0  0  0  0  0
   -3.7584    2.0426   -1.5025 C   0  0  0  0  0  0  0  0  0  0  0  0
   -4.1592    2.0335   -2.8864 N   0  0  0  0  0  0  0  0  0  0  0  0
   -3.7326    3.1371   -3.7362 C   0  0  0  0  0  0  0  0  0  0  0  0
   -3.5870    2.9669   -5.1247 C   0  0  0  0  0  0  0  0  0  0  0  0
   -3.2165    4.0380   -5.9415 C   0  0  0  0  0  0  0  0  0  0  0  0
   -2.9624    5.2999   -5.3840 C   0  0  0  0  0  0  0  0  0  0  0  0
   -2.6345    6.4635   -6.2733 C   0  0  0  0  0  0  0  0  0  0  0  0
   -3.0999    5.4822   -4.0047 C   0  0  0  0  0  0  0  0  0  0  0  0
   -3.4802    4.4141   -3.1849 C   0  0  0  0  0  0  0  0  0  0  0  0
   -5.2559    1.1617   -3.2691 C   0  0  0  0  0  0  0  0  0  0  0  0
   -5.4673   -0.0437   -2.5742 C   0  0  0  0  0  0  0  0  0  0  0  0
   -6.4971   -0.9140   -2.9370 C   0  0  0  0  0  0  0  0  0  0  0  0
   -7.3474   -0.5891   -3.9992 C   0  0  0  0  0  0  0  0  0  0  0  0
   -8.4594   -1.5183   -4.3808 C   0  0  0  0  0  0  0  0  0  0  0  0
   -7.2036    0.6494   -4.6430 C   0  0  0  0  0  0  0  0  0  0  0  0
   -6.1769    1.5213   -4.2732 C   0  0  0  0  0  0  0  0  0  0  0  0
   -4.6460    2.4343   -0.4938 C   0  0  0  0  0  0  0  0  0  0  0  0
   -6.3084    2.6044   -0.3806 S   0  0  0  0  0  0  0  0  0  0  0  0
   -1.1655    1.6563   -1.6575 C   0  0  0  0  0  0  0  0  0  0  0  0
   -0.8694    0.2882   -1.9148 C   0  0  0  0  0  0  0  0  0  0  0  0
   -1.7297   -0.6454   -2.6017 N   0  0  0  0  0  0  0  0  0  0  0  0
   -1.5304   -0.7210   -4.0328 C   0  0  0  0  0  0  0  0  0  0  0  0
   -1.2625   -1.9504   -4.6685 C   0  0  0  0  0  0  0  0  0  0  0  0
   -1.0064   -1.9934   -6.0440 C   0  0  0  0  0  0  0  0  0  0  0  0
   -0.9967   -0.8147   -6.7953 C   0  0  0  0  0  0  0  0  0  0  0  0
   -0.6434   -0.8611   -8.5510 S   0  0  0  0  0  0  0  0  0  0  0  0
   -2.3891   -1.0572   -9.0236 C   0  0  0  0  0  0  0  0  0  0  0  0
   -1.2179    0.4146   -6.1669 C   0  0  0  0  0  0  0  0  0  0  0  0
   -1.4740    0.4582   -4.7941 C   0  0  0  0  0  0  0  0  0  0  0  0
   -2.3677   -1.7376   -1.8829 C   0  0  0  0  0  0  0  0  0  0  0  0
   -1.9392   -2.1140   -0.5939 C   0  0  0  0  0  0  0  0  0  0  0  0
   -2.5558   -3.1691    0.0873 C   0  0  0  0  0  0  0  0  0  0  0  0
   -3.6374   -3.8395   -0.4894 C   0  0  0  0  0  0  0  0  0  0  0  0
   -4.4855   -5.1256    0.4255 S   0  0  0  0  0  0  0  0  0  0  0  0
   -5.5172   -3.9426    1.3492 C   0  0  0  0  0  0  0  0  0  0  0  0
   -4.0744   -3.4782   -1.7696 C   0  0  0  0  0  0  0  0  0  0  0  0
   -3.4291   -2.4511   -2.4680 C   0  0  0  0  0  0  0  0  0  0  0  0
    0.4820    0.0118   -1.7152 C   0  0  0  0  0  0  0  0  0  0  0  0
    1.3366   -1.4138   -1.4684 S   0  0  0  0  0  0  0  0  0  0  0  0
    2.7299   -0.6660   -0.8296 C   0  0  0  0  0  0  0  0  0  0  0  0
    2.5009    0.7216   -0.8436 C   0  0  0  0  0  0  0  0  0  0  0  0
    3.4874    1.7026   -0.4869 N   0  0  0  0  0  0  0  0  0  0  0  0
    4.4243    1.9967   -1.5348 C   0  0  0  0  0  0  0  0  0  0  0  0
    3.9713    2.6152   -2.7115 C   0  0  0  0  0  0  0  0  0  0  0  0
    4.8008    2.6827   -3.8292 C   0  0  0  0  0  0  0  0  0  0  0  0
    6.0855    2.1316   -3.7825 C   0  0  0  0  0  0  0  0  0  0  0  0
    7.0670    2.0691   -5.2801 S   0  0  0  0  0  0  0  0  0  0  0  0
    6.3613    0.4723   -5.8140 C   0  0  0  0  0  0  0  0  0  0  0  0
    6.5645    1.5770   -2.5869 C   0  0  0  0  0  0  0  0  0  0  0  0
    5.7328    1.5087   -1.4642 C   0  0  0  0  0  0  0  0  0  0  0  0
    3.3500    2.5546    0.6799 C   0  0  0  0  0  0  0  0  0  0  0  0
    4.2136    3.6512    0.8797 C   0  0  0  0  0  0  0  0  0  0  0  0
    4.0555    4.4936    1.9854 C   0  0  0  0  0  0  0  0  0  0  0  0
    3.0304    4.2602    2.9049 C   0  0  0  0  0  0  0  0  0  0  0  0
    2.8148    5.3609    4.3056 S   0  0  0  0  0  0  0  0  0  0  0  0
    1.6895    6.4765    3.4084 C   0  0  0  0  0  0  0  0  0  0  0  0
    2.1783    3.1633    2.7360 C   0  0  0  0  0  0  0  0  0  0  0  0
    2.3332    2.3201    1.6318 C   0  0  0  0  0  0  0  0  0  0  0  0
    1.2437    1.0549   -1.3380 C   0  0  0  0  0  0  0  0  0  0  0  0
    0.3018    2.4274   -1.2328 S   0  0  0  0  0  0  0  0  0  0  0  0
    3.4553   -1.2885    0.2775 C   0  0  0  0  0  0  0  0  0  0  0  0
    4.6521   -2.0394    0.2691 C   0  0  0  0  0  0  0  0  0  0  0  0
    5.2627   -2.6021   -0.9129 N   0  0  0  0  0  0  0  0  0  0  0  0
    4.4224   -3.2428   -1.8909 C   0  0  0  0  0  0  0  0  0  0  0  0
    3.3591   -4.0747   -1.4860 C   0  0  0  0  0  0  0  0  0  0  0  0
    2.5878   -4.7507   -2.4322 C   0  0  0  0  0  0  0  0  0  0  0  0
    2.8994   -4.6414   -3.7944 C   0  0  0  0  0  0  0  0  0  0  0  0
    1.9603   -5.5770   -5.0041 S   0  0  0  0  0  0  0  0  0  0  0  0
    3.0315   -7.0444   -4.8587 C   0  0  0  0  0  0  0  0  0  0  0  0
    3.9638   -3.8259   -4.2058 C   0  0  0  0  0  0  0  0  0  0  0  0
    4.7310   -3.1432   -3.2603 C   0  0  0  0  0  0  0  0  0  0  0  0
    6.6655   -2.9397   -0.8835 C   0  0  0  0  0  0  0  0  0  0  0  0
    7.0689   -4.2866   -0.9285 C   0  0  0  0  0  0  0  0  0  0  0  0
    8.4120   -4.6260   -0.7409 C   0  0  0  0  0  0  0  0  0  0  0  0
    9.3689   -3.6265   -0.5336 C   0  0  0  0  0  0  0  0  0  0  0  0
   11.0725   -4.0728   -0.1890 S   0  0  0  0  0  0  0  0  0  0  0  0
   11.5433   -4.1525   -1.9437 C   0  0  0  0  0  0  0  0  0  0  0  0
    8.9776   -2.2792   -0.5259 C   0  0  0  0  0  0  0  0  0  0  0  0
    7.6326   -1.9383   -0.6954 C   0  0  0  0  0  0  0  0  0  0  0  0
    4.9874   -2.4320    1.5772 C   0  0  0  0  0  0  0  0  0  0  0  0
    6.2701   -3.2564    2.2704 S   0  0  0  0  0  0  0  0  0  0  0  0
    5.6268   -3.2210    3.8494 C   0  0  0  0  0  0  0  0  0  0  0  0
    4.3511   -2.6080    3.8287 C   0  0  0  0  0  0  0  0  0  0  0  0
    3.3844   -2.6503    4.9164 N   0  0  0  0  0  0  0  0  0  0  0  0
    2.0236   -2.2370    4.6899 C   0  0  0  0  0  0  0  0  0  0  0  0
    1.5739   -0.9761    5.1106 C   0  0  0  0  0  0  0  0  0  0  0  0
    0.2247   -0.6274    4.9548 C   0  0  0  0  0  0  0  0  0  0  0  0
   -0.6723   -1.5360    4.3751 C   0  0  0  0  0  0  0  0  0  0  0  0
   -2.4129   -1.1167    4.2162 S   0  0  0  0  0  0  0  0  0  0  0  0
   -2.1904   -0.2798    2.6193 C   0  0  0  0  0  0  0  0  0  0  0  0
   -0.2244   -2.7882    3.9504 C   0  0  0  0  0  0  0  0  0  0  0  0
    1.1187   -3.1374    4.1026 C   0  0  0  0  0  0  0  0  0  0  0  0
    3.5393   -3.5857    6.0047 C   0  0  0  0  0  0  0  0  0  0  0  0
    3.3170   -3.1614    7.3269 C   0  0  0  0  0  0  0  0  0  0  0  0
    3.3751   -4.0864    8.3800 C   0  0  0  0  0  0  0  0  0  0  0  0
    3.6597   -5.4360    8.1133 C   0  0  0  0  0  0  0  0  0  0  0  0
    3.6943   -6.6294    9.4545 S   0  0  0  0  0  0  0  0  0  0  0  0
    2.0000   -7.2138    9.1226 C   0  0  0  0  0  0  0  0  0  0  0  0
    3.8874   -5.8557    6.7994 C   0  0  0  0  0  0  0  0  0  0  0  0
    3.7949   -4.9403    5.7467 C   0  0  0  0  0  0  0  0  0  0  0  0
    4.0799   -2.1188    2.5408 C   0  0  0  0  0  0  0  0  0  0  0  0
    2.8328   -1.2393    1.8573 S   0  0  0  0  0  0  0  0  0  0  0  0
    6.4505   -3.4916    5.0506 C   0  0  0  0  0  0  0  0  0  0  0  0
    7.1066   -4.6582    5.2410 C   0  0  0  0  0  0  0  0  0  0  0  0
    6.9451   -5.7888    4.3562 C   0  0  0  0  0  0  0  0  0  0  0  0
    6.8143   -6.7169    3.6663 N   0  0  0  0  0  0  0  0  0  0  0  0
    7.9329   -4.8580    6.4054 C   0  0  0  0  0  0  0  0  0  0  0  0
    8.5748   -4.9943    7.3618 N   0  0  0  0  0  0  0  0  0  0  0  0
    6.5493   -2.4225    6.0251 C   0  0  0  0  0  0  0  0  0  0  0  0
    6.6296   -1.5702    6.8051 N   0  0  0  0  0  0  0  0  0  0  0  0
   -3.7677    2.0110    3.4359 H   0  0  0  0  0  0  0  0  0  0  0  0
   -3.2346    1.3972    5.7456 H   0  0  0  0  0  0  0  0  0  0  0  0
   -2.3664    3.4409    8.2530 H   0  0  0  0  0  0  0  0  0  0  0  0
   -3.2757    1.8927    8.1090 H   0  0  0  0  0  0  0  0  0  0  0  0
   -4.1239    3.3775    8.6614 H   0  0  0  0  0  0  0  0  0  0  0  0
   -4.1734    5.4015    7.0311 H   0  0  0  0  0  0  0  0  0  0  0  0
   -4.6737    6.0318    4.7144 H   0  0  0  0  0  0  0  0  0  0  0  0
   -5.8604    5.9530    0.6946 H   0  0  0  0  0  0  0  0  0  0  0  0
   -5.2365    8.1398   -0.1926 H   0  0  0  0  0  0  0  0  0  0  0  0
   -1.9426    9.7509    0.3440 H   0  0  0  0  0  0  0  0  0  0  0  0
   -3.4365   10.4265    1.1083 H   0  0  0  0  0  0  0  0  0  0  0  0
   -3.4784    9.8080   -0.5872 H   0  0  0  0  0  0  0  0  0  0  0  0
   -1.6936    8.1421    2.2546 H   0  0  0  0  0  0  0  0  0  0  0  0
   -2.3039    5.9373    3.1485 H   0  0  0  0  0  0  0  0  0  0  0  0
   -3.7755    2.0018   -5.5789 H   0  0  0  0  0  0  0  0  0  0  0  0
   -3.1399    3.8857   -7.0097 H   0  0  0  0  0  0  0  0  0  0  0  0
   -2.0289    6.1316   -7.1441 H   0  0  0  0  0  0  0  0  0  0  0  0
   -3.5746    6.9227   -6.6426 H   0  0  0  0  0  0  0  0  0  0  0  0
   -2.0522    7.2334   -5.7218 H   0  0  0  0  0  0  0  0  0  0  0  0
   -2.9297    6.4548   -3.5587 H   0  0  0  0  0  0  0  0  0  0  0  0
   -3.6040    4.6026   -2.1262 H   0  0  0  0  0  0  0  0  0  0  0  0
   -4.8420   -0.3142   -1.7339 H   0  0  0  0  0  0  0  0  0  0  0  0
   -6.6339   -1.8386   -2.3893 H   0  0  0  0  0  0  0  0  0  0  0  0
   -9.3616   -1.2727   -3.7805 H   0  0  0  0  0  0  0  0  0  0  0  0
   -8.1699   -2.5702   -4.1868 H   0  0  0  0  0  0  0  0  0  0  0  0
   -8.6993   -1.4185   -5.4617 H   0  0  0  0  0  0  0  0  0  0  0  0
   -7.8908    0.9444   -5.4282 H   0  0  0  0  0  0  0  0  0  0  0  0
   -6.1255    2.4796   -4.7592 H   0  0  0  0  0  0  0  0  0  0  0  0
   -1.2175   -2.8674   -4.1003 H   0  0  0  0  0  0  0  0  0  0  0  0
   -0.8015   -2.9440   -6.5169 H   0  0  0  0  0  0  0  0  0  0  0  0
   -2.4711   -1.0444  -10.1296 H   0  0  0  0  0  0  0  0  0  0  0  0
   -2.7802   -2.0261   -8.6483 H   0  0  0  0  0  0  0  0  0  0  0  0
   -2.9975   -0.2241   -8.6118 H   0  0  0  0  0  0  0  0  0  0  0  0
   -1.1745    1.3366   -6.7291 H   0  0  0  0  0  0  0  0  0  0  0  0
   -1.5950    1.4174   -4.3196 H   0  0  0  0  0  0  0  0  0  0  0  0
   -1.1135   -1.6168   -0.1171 H   0  0  0  0  0  0  0  0  0  0  0  0
   -2.2048   -3.4514    1.0700 H   0  0  0  0  0  0  0  0  0  0  0  0
   -6.1414   -3.3470    0.6486 H   0  0  0  0  0  0  0  0  0  0  0  0
   -6.1835   -4.4995    2.0387 H   0  0  0  0  0  0  0  0  0  0  0  0
   -4.8756   -3.2645    1.9465 H   0  0  0  0  0  0  0  0  0  0  0  0
   -4.9178   -3.9869   -2.2162 H   0  0  0  0  0  0  0  0  0  0  0  0
   -3.7881   -2.1925   -3.4567 H   0  0  0  0  0  0  0  0  0  0  0  0
    2.9575    2.9891   -2.7773 H   0  0  0  0  0  0  0  0  0  0  0  0
    4.4269    3.1114   -4.7477 H   0  0  0  0  0  0  0  0  0  0  0  0
    6.5920    0.3133   -6.8865 H   0  0  0  0  0  0  0  0  0  0  0  0
    5.2599    0.4628   -5.6883 H   0  0  0  0  0  0  0  0  0  0  0  0
    6.8137   -0.3444   -5.2159 H   0  0  0  0  0  0  0  0  0  0  0  0
    7.5601    1.1513   -2.5415 H   0  0  0  0  0  0  0  0  0  0  0  0
    6.0869    1.0461   -0.5506 H   0  0  0  0  0  0  0  0  0  0  0  0
    5.0099    3.8732    0.1803 H   0  0  0  0  0  0  0  0  0  0  0  0
    4.7297    5.3321    2.1154 H   0  0  0  0  0  0  0  0  0  0  0  0
    0.7579    5.9288    3.1298 H   0  0  0  0  0  0  0  0  0  0  0  0
    1.4208    7.3275    4.0627 H   0  0  0  0  0  0  0  0  0  0  0  0
    2.1891    6.8660    2.4951 H   0  0  0  0  0  0  0  0  0  0  0  0
    1.3744    2.9844    3.4403 H   0  0  0  0  0  0  0  0  0  0  0  0
    1.6420    1.4955    1.5218 H   0  0  0  0  0  0  0  0  0  0  0  0
    3.1256   -4.1929   -0.4384 H   0  0  0  0  0  0  0  0  0  0  0  0
    1.7781   -5.3894   -2.1101 H   0  0  0  0  0  0  0  0  0  0  0  0
    2.7057   -7.8106   -5.5912 H   0  0  0  0  0  0  0  0  0  0  0  0
    4.0868   -6.7725   -5.0682 H   0  0  0  0  0  0  0  0  0  0  0  0
    2.9501   -7.4723   -3.8371 H   0  0  0  0  0  0  0  0  0  0  0  0
    4.2109   -3.7422   -5.2574 H   0  0  0  0  0  0  0  0  0  0  0  0
    5.5631   -2.5316   -3.5837 H   0  0  0  0  0  0  0  0  0  0  0  0
    6.3372   -5.0751   -1.0614 H   0  0  0  0  0  0  0  0  0  0  0  0
    8.7051   -5.6639   -0.7440 H   0  0  0  0  0  0  0  0  0  0  0  0
   11.3951   -3.1592   -2.4162 H   0  0  0  0  0  0  0  0  0  0  0  0
   12.6122   -4.4344   -2.0223 H   0  0  0  0  0  0  0  0  0  0  0  0
   10.9276   -4.9197   -2.4634 H   0  0  0  0  0  0  0  0  0  0  0  0
    9.7123   -1.5039   -0.3498 H   0  0  0  0  0  0  0  0  0  0  0  0
    7.3389   -0.9005   -0.6508 H   0  0  0  0  0  0  0  0  0  0  0  0
    2.2595   -0.2783    5.5801 H   0  0  0  0  0  0  0  0  0  0  0  0
   -0.1212    0.3437    5.2842 H   0  0  0  0  0  0  0  0  0  0  0  0
   -3.1817   -0.1212    2.1429 H   0  0  0  0  0  0  0  0  0  0  0  0
   -1.5662   -0.8972    1.9521 H   0  0  0  0  0  0  0  0  0  0  0  0
   -1.6947    0.7024    2.7705 H   0  0  0  0  0  0  0  0  0  0  0  0
   -0.9096   -3.5003    3.5118 H   0  0  0  0  0  0  0  0  0  0  0  0
    1.4579   -4.1141    3.7836 H   0  0  0  0  0  0  0  0  0  0  0  0
    3.0820   -2.1273    7.5304 H   0  0  0  0  0  0  0  0  0  0  0  0
    3.1873   -3.7581    9.3926 H   0  0  0  0  0  0  0  0  0  0  0  0
    1.7396   -8.0222    9.8368 H   0  0  0  0  0  0  0  0  0  0  0  0
    1.9270   -7.6110    8.0887 H   0  0  0  0  0  0  0  0  0  0  0  0
    1.2797   -6.3810    9.2579 H   0  0  0  0  0  0  0  0  0  0  0  0
    4.0954   -6.8951    6.5839 H   0  0  0  0  0  0  0  0  0  0  0  0
    3.9043   -5.2930    4.7292 H   0  0  0  0  0  0  0  0  0  0  0  0
  1  2  3  0
  2  3  1  0
  3  4  2  3
  4  5  1  0
  5  6  3  0
  4  7  1  0
  7  8  3  0
  3  9  1  0
  9 10  2  0
 10 11  1  0
 11 12  1  0
 12 13  2  0
 13 14  1  0
 14 15  2  0
 15 16  1  0
 15 17  1  0
 17 18  2  0
 11 19  1  0
 19 20  2  0
 20 21  1  0
 21 22  2  0
 22 23  1  0
 22 24  1  0
 24 25  2  0
 10 26  1  0
 26 27  1  0
 27 28  1  0
 28 29  2  0
 29 30  1  0
 30 31  1  0
 31 32  2  0
 32 33  1  0
 33 34  2  0
 34 35  1  0
 34 36  1  0
 36 37  2  0
 30 38  1  0
 38 39  2  0
 39 40  1  0
 40 41  2  0
 41 42  1  0
 41 43  1  0
 43 44  2  0
 29 45  1  0
 45 46  1  0
 28 47  1  0
 47 48  2  0
 48 49  1  0
 49 50  1  0
 50 51  2  0
 51 52  1  0
 52 53  2  0
 53 54  1  0
 54 55  1  0
 53 56  1  0
 56 57  2  0
 49 58  1  0
 58 59  2  0
 59 60  1  0
 60 61  2  0
 61 62  1  0
 62 63  1  0
 61 64  1  0
 64 65  2  0
 48 66  1  0
 66 67  1  0
 67 68  1  0
 68 69  2  0
 69 70  1  0
 70 71  1  0
 71 72  2  0
 72 73  1  0
 73 74  2  0
 74 75  1  0
 75 76  1  0
 74 77  1  0
 77 78  2  0
 70 79  1  0
 79 80  2  0
 80 81  1  0
 81 82  2  0
 82 83  1  0
 83 84  1  0
 82 85  1  0
 85 86  2  0
 69 87  1  0
 87 88  1  0
 68 89  1  0
 89 90  2  0
 90 91  1  0
 91 92  1  0
 92 93  2  0
 93 94  1  0
 94 95  2  0
 95 96  1  0
 96 97  1  0
 95 98  1  0
 98 99  2  0
 91100  1  0
100101  2  0
101102  1  0
102103  2  0
103104  1  0
104105  1  0
103106  1  0
106107  2  0
 90108  1  0
108109  1  0
109110  1  0
110111  2  0
111112  1  0
112113  1  0
113114  2  0
114115  1  0
115116  2  0
116117  1  0
117118  1  0
116119  1  0
119120  2  0
112121  1  0
121122  2  0
122123  1  0
123124  2  0
124125  1  0
125126  1  0
124127  1  0
127128  2  0
111129  1  0
129130  1  0
110131  1  0
131132  2  3
132133  1  0
133134  3  0
132135  1  0
135136  3  0
131137  1  0
137138  3  0
 46  9  1  0
 88 47  1  0
130 89  1  0
 18 12  1  0
 25 19  1  0
 45 26  2  0
 57 50  1  0
 65 58  1  0
 87 66  2  0
 99 92  1  0
107100  1  0
129108  2  0
 37 31  1  0
 44 38  1  0
 78 71  1  0
 86 79  1  0
120113  1  0
128121  1  0
 13139  1  0
 14140  1  0
 16141  1  0
 16142  1  0
 16143  1  0
 17144  1  0
 18145  1  0
 20146  1  0
 21147  1  0
 23148  1  0
 23149  1  0
 23150  1  0
 24151  1  0
 25152  1  0
 32153  1  0
 33154  1  0
 35155  1  0
 35156  1  0
 35157  1  0
 36158  1  0
 37159  1  0
 39160  1  0
 40161  1  0
 42162  1  0
 42163  1  0
 42164  1  0
 43165  1  0
 44166  1  0
 51167  1  0
 52168  1  0
 55169  1  0
 55170  1  0
 55171  1  0
 56172  1  0
 57173  1  0
 59174  1  0
 60175  1  0
 63176  1  0
 63177  1  0
 63178  1  0
 64179  1  0
 65180  1  0
 72181  1  0
 73182  1  0
 76183  1  0
 76184  1  0
 76185  1  0
 77186  1  0
 78187  1  0
 80188  1  0
 81189  1  0
 84190  1  0
 84191  1  0
 84192  1  0
 85193  1  0
 86194  1  0
 93195  1  0
 94196  1  0
 97197  1  0
 97198  1  0
 97199  1  0
 98200  1  0
 99201  1  0
101202  1  0
102203  1  0
105204  1  0
105205  1  0
105206  1  0
106207  1  0
107208  1  0
114209  1  0
115210  1  0
118211  1  0
118212  1  0
118213  1  0
119214  1  0
120215  1  0
122216  1  0
123217  1  0
126218  1  0
126219  1  0
126220  1  0
127221  1  0
128222  1  0
M  END

