
     RDKit          3D

130139  0  0  0  0  0  0  0  0999 V2000
    6.1675   -2.5687    5.8435 C   0  0  0  0  0  0  0  0  0  0  0  0
    4.9535   -3.4948    6.0784 C   0  0  0  0  0  0  0  0  0  0  0  0
    3.8124   -2.7609    6.7940 C   0  0  0  0  0  0  0  0  0  0  0  0
    4.4727   -4.2170    4.8124 C   0  0  0  0  0  0  0  0  0  0  0  0
    4.7423   -5.5320    4.9183 C   0  0  0  0  0  0  0  0  0  0  0  0
    4.4911   -6.5302    3.9038 C   0  0  0  0  0  0  0  0  0  0  0  0
    4.2688   -7.3247    3.0928 N   0  0  0  0  0  0  0  0  0  0  0  0
    5.3160   -5.7811    6.2346 C   0  0  0  0  0  0  0  0  0  0  0  0
    5.6771   -6.9426    6.7965 C   0  0  0  0  0  0  0  0  0  0  0  0
    5.4433   -8.2128    6.1625 C   0  0  0  0  0  0  0  0  0  0  0  0
    5.2338   -9.2407    5.6705 N   0  0  0  0  0  0  0  0  0  0  0  0
    6.2781   -6.9529    8.1054 C   0  0  0  0  0  0  0  0  0  0  0  0
    6.7662   -6.9714    9.1540 N   0  0  0  0  0  0  0  0  0  0  0  0
    5.3990   -4.5647    6.9012 O   0  0  0  0  0  0  0  0  0  0  0  0
    3.6352   -3.6146    3.7217 C   0  0  0  0  0  0  0  0  0  0  0  0
    3.9165   -2.3460    3.1796 C   0  0  0  0  0  0  0  0  0  0  0  0
    5.0147   -1.6472    3.5371 F   0  0  0  0  0  0  0  0  0  0  0  0
    3.0782   -1.7905    2.2080 C   0  0  0  0  0  0  0  0  0  0  0  0
    2.0221   -2.5274    1.6460 C   0  0  0  0  0  0  0  0  0  0  0  0
    1.7210   -3.7729    2.2077 C   0  0  0  0  0  0  0  0  0  0  0  0
    2.4942   -4.2969    3.2500 C   0  0  0  0  0  0  0  0  0  0  0  0
    1.2038   -1.9922    0.5240 C   0  0  0  0  0  0  0  0  0  0  0  0
    1.5502   -0.9616   -0.3834 C   0  0  0  0  0  0  0  0  0  0  0  0
    2.8402   -0.3229   -0.5052 N   0  0  0  0  0  0  0  0  0  0  0  0
    2.8895    1.1199   -0.5302 C   0  0  0  0  0  0  0  0  0  0  0  0
    3.5346    1.7935   -1.5831 C   0  0  0  0  0  0  0  0  0  0  0  0
    3.4445    3.1851   -1.6882 C   0  0  0  0  0  0  0  0  0  0  0  0
    2.7063    3.9134   -0.7457 C   0  0  0  0  0  0  0  0  0  0  0  0
    2.4624    5.6786   -0.9489 S   0  0  0  0  0  0  0  0  0  0  0  0
    3.8878    6.1234    0.0988 C   0  0  0  0  0  0  0  0  0  0  0  0
    2.0830    3.2519    0.3182 C   0  0  0  0  0  0  0  0  0  0  0  0
    2.1808    1.8648    0.4315 C   0  0  0  0  0  0  0  0  0  0  0  0
    4.0446   -1.1067   -0.6563 C   0  0  0  0  0  0  0  0  0  0  0  0
    4.0053   -2.3825   -1.2610 C   0  0  0  0  0  0  0  0  0  0  0  0
    5.1249   -3.2200   -1.2131 C   0  0  0  0  0  0  0  0  0  0  0  0
    6.3085   -2.7796   -0.6096 C   0  0  0  0  0  0  0  0  0  0  0  0
    7.7054   -3.8930   -0.4302 S   0  0  0  0  0  0  0  0  0  0  0  0
    7.0687   -4.6044    1.1341 C   0  0  0  0  0  0  0  0  0  0  0  0
    6.3688   -1.4917   -0.0614 C   0  0  0  0  0  0  0  0  0  0  0  0
    5.2588   -0.6553   -0.1018 C   0  0  0  0  0  0  0  0  0  0  0  0
    0.4598   -0.5992   -1.1693 C   0  0  0  0  0  0  0  0  0  0  0  0
    0.1741    0.6264   -2.2728 S   0  0  0  0  0  0  0  0  0  0  0  0
   -1.4761    0.2545   -2.5018 C   0  0  0  0  0  0  0  0  0  0  0  0
   -1.7880   -0.8724   -1.7046 C   0  0  0  0  0  0  0  0  0  0  0  0
   -3.0155   -1.6064   -1.7883 N   0  0  0  0  0  0  0  0  0  0  0  0
   -3.1356   -2.4768   -2.9195 C   0  0  0  0  0  0  0  0  0  0  0  0
   -3.5800   -1.9743   -4.1530 C   0  0  0  0  0  0  0  0  0  0  0  0
   -3.6017   -2.8004   -5.2822 C   0  0  0  0  0  0  0  0  0  0  0  0
   -3.1833   -4.1300   -5.1809 C   0  0  0  0  0  0  0  0  0  0  0  0
   -3.1676   -5.1719   -6.6382 S   0  0  0  0  0  0  0  0  0  0  0  0
   -1.4428   -4.7740   -7.0764 C   0  0  0  0  0  0  0  0  0  0  0  0
   -2.7507   -4.6368   -3.9489 C   0  0  0  0  0  0  0  0  0  0  0  0
   -2.7387   -3.8165   -2.8178 C   0  0  0  0  0  0  0  0  0  0  0  0
   -3.9734   -1.6384   -0.6944 C   0  0  0  0  0  0  0  0  0  0  0  0
   -3.7571   -0.8890    0.4761 C   0  0  0  0  0  0  0  0  0  0  0  0
   -4.7224   -0.8403    1.4810 C   0  0  0  0  0  0  0  0  0  0  0  0
   -5.9034   -1.5818    1.3590 C   0  0  0  0  0  0  0  0  0  0  0  0
   -7.1689   -1.4603    2.6301 S   0  0  0  0  0  0  0  0  0  0  0  0
   -6.4068   -2.7209    3.6868 C   0  0  0  0  0  0  0  0  0  0  0  0
   -6.1162   -2.3676    0.2253 C   0  0  0  0  0  0  0  0  0  0  0  0
   -5.1616   -2.3996   -0.7984 C   0  0  0  0  0  0  0  0  0  0  0  0
   -0.6765   -1.3015   -0.9720 C   0  0  0  0  0  0  0  0  0  0  0  0
   -0.4223   -2.4332    0.2368 S   0  0  0  0  0  0  0  0  0  0  0  0
   -2.4141    1.2804   -3.0224 C   0  0  0  0  0  0  0  0  0  0  0  0
   -1.9835    2.1745   -4.0272 C   0  0  0  0  0  0  0  0  0  0  0  0
   -0.9095    1.8751   -4.8019 F   0  0  0  0  0  0  0  0  0  0  0  0
   -2.5778    3.4329   -4.1502 C   0  0  0  0  0  0  0  0  0  0  0  0
   -3.5998    3.8113   -3.2754 C   0  0  0  0  0  0  0  0  0  0  0  0
   -4.1472    2.8626   -2.4026 C   0  0  0  0  0  0  0  0  0  0  0  0
   -3.5622    1.6007   -2.2825 C   0  0  0  0  0  0  0  0  0  0  0  0
   -3.9134    5.2362   -3.0711 C   0  0  0  0  0  0  0  0  0  0  0  0
   -4.8172    5.9444   -3.7421 C   0  0  0  0  0  0  0  0  0  0  0  0
   -5.5970    5.4579   -4.8500 C   0  0  0  0  0  0  0  0  0  0  0  0
   -6.2110    5.0866   -5.7581 N   0  0  0  0  0  0  0  0  0  0  0  0
   -4.7741    7.3152   -3.2301 C   0  0  0  0  0  0  0  0  0  0  0  0
   -5.5277    8.3709   -3.5755 C   0  0  0  0  0  0  0  0  0  0  0  0
   -5.3443    9.6260   -2.8997 C   0  0  0  0  0  0  0  0  0  0  0  0
   -5.1826   10.6376   -2.3563 N   0  0  0  0  0  0  0  0  0  0  0  0
   -6.5722    8.2872   -4.5668 C   0  0  0  0  0  0  0  0  0  0  0  0
   -7.4006    8.2390   -5.3783 N   0  0  0  0  0  0  0  0  0  0  0  0
   -3.7972    7.3845   -2.2445 O   0  0  0  0  0  0  0  0  0  0  0  0
   -3.2096    6.1038   -2.0435 C   0  0  0  0  0  0  0  0  0  0  0  0
   -1.7049    6.1795   -2.3223 C   0  0  0  0  0  0  0  0  0  0  0  0
   -3.4795    5.6327   -0.6119 C   0  0  0  0  0  0  0  0  0  0  0  0
    6.8608   -2.6066    6.7155 H   0  0  0  0  0  0  0  0  0  0  0  0
    5.8548   -1.5117    5.7358 H   0  0  0  0  0  0  0  0  0  0  0  0
    6.7358   -2.8925    4.9430 H   0  0  0  0  0  0  0  0  0  0  0  0
    2.9843   -3.4745    6.9993 H   0  0  0  0  0  0  0  0  0  0  0  0
    4.1716   -2.3451    7.7585 H   0  0  0  0  0  0  0  0  0  0  0  0
    3.4345   -1.9343    6.1583 H   0  0  0  0  0  0  0  0  0  0  0  0
    3.2738   -0.7755    1.8984 H   0  0  0  0  0  0  0  0  0  0  0  0
    0.8885   -4.3552    1.8512 H   0  0  0  0  0  0  0  0  0  0  0  0
    2.1879   -5.2438    3.6907 H   0  0  0  0  0  0  0  0  0  0  0  0
    4.0604    1.2338   -2.3425 H   0  0  0  0  0  0  0  0  0  0  0  0
    3.9156    3.6972   -2.5158 H   0  0  0  0  0  0  0  0  0  0  0  0
    3.7490    5.7271    1.1313 H   0  0  0  0  0  0  0  0  0  0  0  0
    4.8251    5.7057   -0.3373 H   0  0  0  0  0  0  0  0  0  0  0  0
    3.9721    7.2311    0.1434 H   0  0  0  0  0  0  0  0  0  0  0  0
    1.5122    3.8133    1.0552 H   0  0  0  0  0  0  0  0  0  0  0  0
    1.6656    1.3656    1.2436 H   0  0  0  0  0  0  0  0  0  0  0  0
    3.0923   -2.7512   -1.7026 H   0  0  0  0  0  0  0  0  0  0  0  0
    5.0837   -4.2076   -1.6388 H   0  0  0  0  0  0  0  0  0  0  0  0
    6.1964   -5.2565    0.9098 H   0  0  0  0  0  0  0  0  0  0  0  0
    6.7554   -3.8005    1.8369 H   0  0  0  0  0  0  0  0  0  0  0  0
    7.8615   -5.2148    1.6005 H   0  0  0  0  0  0  0  0  0  0  0  0
    7.2809   -1.1543    0.4269 H   0  0  0  0  0  0  0  0  0  0  0  0
    5.3191    0.3065    0.3814 H   0  0  0  0  0  0  0  0  0  0  0  0
   -3.8952   -0.9360   -4.2399 H   0  0  0  0  0  0  0  0  0  0  0  0
   -3.9397   -2.4027   -6.2276 H   0  0  0  0  0  0  0  0  0  0  0  0
   -1.3265   -3.6763   -7.1745 H   0  0  0  0  0  0  0  0  0  0  0  0
   -0.7330   -5.1538   -6.3064 H   0  0  0  0  0  0  0  0  0  0  0  0
   -1.2056   -5.2499   -8.0499 H   0  0  0  0  0  0  0  0  0  0  0  0
   -2.4344   -5.6703   -3.8732 H   0  0  0  0  0  0  0  0  0  0  0  0
   -2.3816   -4.1924   -1.8789 H   0  0  0  0  0  0  0  0  0  0  0  0
   -2.8738   -0.2947    0.5982 H   0  0  0  0  0  0  0  0  0  0  0  0
   -4.5567   -0.2321    2.3577 H   0  0  0  0  0  0  0  0  0  0  0  0
   -5.3749   -2.4200    3.9683 H   0  0  0  0  0  0  0  0  0  0  0  0
   -6.3828   -3.6888    3.1453 H   0  0  0  0  0  0  0  0  0  0  0  0
   -7.0143   -2.8427    4.6118 H   0  0  0  0  0  0  0  0  0  0  0  0
   -7.0296   -2.9385    0.1235 H   0  0  0  0  0  0  0  0  0  0  0  0
   -5.3680   -2.9991   -1.6777 H   0  0  0  0  0  0  0  0  0  0  0  0
   -2.1442    4.1511   -4.8269 H   0  0  0  0  0  0  0  0  0  0  0  0
   -4.9467    3.1482   -1.7190 H   0  0  0  0  0  0  0  0  0  0  0  0
   -3.9151    0.9548   -1.4970 H   0  0  0  0  0  0  0  0  0  0  0  0
   -1.5329    6.5545   -3.3558 H   0  0  0  0  0  0  0  0  0  0  0  0
   -1.2072    6.8819   -1.6189 H   0  0  0  0  0  0  0  0  0  0  0  0
   -1.2239    5.1823   -2.2088 H   0  0  0  0  0  0  0  0  0  0  0  0
   -4.5702    5.5695   -0.4239 H   0  0  0  0  0  0  0  0  0  0  0  0
   -3.0207    4.6360   -0.4321 H   0  0  0  0  0  0  0  0  0  0  0  0
   -3.0422    6.3513    0.1175 H   0  0  0  0  0  0  0  0  0  0  0  0
  1  2  1  0
  2  3  1  0
  2  4  1  0
  4  5  2  0
  5  6  1  0
  6  7  3  0
  5  8  1  0
  8  9  2  3
  9 10  1  0
 10 11  3  0
  9 12  1  0
 12 13  3  0
  8 14  1  0
  4 15  1  0
 15 16  2  0
 16 17  1  0
 16 18  1  0
 18 19  2  0
 19 20  1  0
 20 21  2  0
 19 22  1  0
 22 23  2  0
 23 24  1  0
 24 25  1  0
 25 26  2  0
 26 27  1  0
 27 28  2  0
 28 29  1  0
 29 30  1  0
 28 31  1  0
 31 32  2  0
 24 33  1  0
 33 34  2  0
 34 35  1  0
 35 36  2  0
 36 37  1  0
 37 38  1  0
 36 39  1  0
 39 40  2  0
 23 41  1  0
 41 42  1  0
 42 43  1  0
 43 44  2  0
 44 45  1  0
 45 46  1  0
 46 47  2  0
 47 48  1  0
 48 49  2  0
 49 50  1  0
 50 51  1  0
 49 52  1  0
 52 53  2  0
 45 54  1  0
 54 55  2  0
 55 56  1  0
 56 57  2  0
 57 58  1  0
 58 59  1  0
 57 60  1  0
 60 61  2  0
 44 62  1  0
 62 63  1  0
 43 64  1  0
 64 65  2  0
 65 66  1  0
 65 67  1  0
 67 68  2  0
 68 69  1  0
 69 70  2  0
 68 71  1  0
 71 72  2  0
 72 73  1  0
 73 74  3  0
 72 75  1  0
 75 76  2  3
 76 77  1  0
 77 78  3  0
 76 79  1  0
 79 80  3  0
 75 81  1  0
 81 82  1  0
 82 83  1  0
 82 84  1  0
 14  2  1  0
 21 15  1  0
 63 22  1  0
 70 64  1  0
 82 71  1  0
 32 25  1  0
 40 33  1  0
 62 41  2  0
 53 46  1  0
 61 54  1  0
  1 85  1  0
  1 86  1  0
  1 87  1  0
  3 88  1  0
  3 89  1  0
  3 90  1  0
 18 91  1  0
 20 92  1  0
 21 93  1  0
 26 94  1  0
 27 95  1  0
 30 96  1  0
 30 97  1  0
 30 98  1  0
 31 99  1  0
 32100  1  0
 34101  1  0
 35102  1  0
 38103  1  0
 38104  1  0
 38105  1  0
 39106  1  0
 40107  1  0
 47108  1  0
 48109  1  0
 51110  1  0
 51111  1  0
 51112  1  0
 52113  1  0
 53114  1  0
 55115  1  0
 56116  1  0
 59117  1  0
 59118  1  0
 59119  1  0
 60120  1  0
 61121  1  0
 67122  1  0
 69123  1  0
 70124  1  0
 83125  1  0
 83126  1  0
 83127  1  0
 84128  1  0
 84129  1  0
 84130  1  0
M  END

