
     RDKit          3D

152165  0  0  0  0  0  0  0  0999 V2000
    3.5135   -1.9114   -3.7467 C   0  0  0  0  0  0  0  0  0  0  0  0
    4.0370   -2.9373   -2.7217 C   0  0  0  0  0  0  0  0  0  0  0  0
    4.1750   -2.3222   -1.3190 C   0  0  0  0  0  0  0  0  0  0  0  0
    3.2072   -4.2141   -2.7196 C   0  0  0  0  0  0  0  0  0  0  0  0
    3.9946   -5.2571   -3.0493 C   0  0  0  0  0  0  0  0  0  0  0  0
    3.6163   -6.6396   -3.0523 C   0  0  0  0  0  0  0  0  0  0  0  0
    3.3239   -7.7619   -3.0456 N   0  0  0  0  0  0  0  0  0  0  0  0
    5.3375   -4.7504   -3.3074 C   0  0  0  0  0  0  0  0  0  0  0  0
    6.4503   -5.4269   -3.6531 C   0  0  0  0  0  0  0  0  0  0  0  0
    6.4666   -6.8520   -3.8629 C   0  0  0  0  0  0  0  0  0  0  0  0
    6.4769   -7.9970   -4.0370 N   0  0  0  0  0  0  0  0  0  0  0  0
    7.7137   -4.7283   -3.8058 C   0  0  0  0  0  0  0  0  0  0  0  0
    8.7350   -4.2096   -3.8912 N   0  0  0  0  0  0  0  0  0  0  0  0
    5.3254   -3.3802   -3.1284 O   0  0  0  0  0  0  0  0  0  0  0  0
    1.7267   -4.2223   -2.4496 C   0  0  0  0  0  0  0  0  0  0  0  0
    0.8100   -5.2765   -2.6176 C   0  0  0  0  0  0  0  0  0  0  0  0
   -0.5333   -4.9086   -2.3704 C   0  0  0  0  0  0  0  0  0  0  0  0
   -1.9131   -6.0744   -2.4415 S   0  0  0  0  0  0  0  0  0  0  0  0
   -1.5585   -6.8311   -4.0909 C   0  0  0  0  0  0  0  0  0  0  0  0
   -1.4491   -5.8197   -5.2286 C   0  0  0  0  0  0  0  0  0  0  0  0
   -0.6761   -3.5844   -1.9535 C   0  0  0  0  0  0  0  0  0  0  0  0
    0.8357   -2.8821   -1.9706 S   0  0  0  0  0  0  0  0  0  0  0  0
   -1.8634   -2.8754   -1.4338 C   0  0  0  0  0  0  0  0  0  0  0  0
   -2.3994   -1.7222   -2.0324 C   0  0  0  0  0  0  0  0  0  0  0  0
   -2.3998   -1.4607   -3.4351 N   0  0  0  0  0  0  0  0  0  0  0  0
   -3.6488   -1.5580   -4.1424 C   0  0  0  0  0  0  0  0  0  0  0  0
   -4.4229   -2.7334   -4.0765 C   0  0  0  0  0  0  0  0  0  0  0  0
   -5.6715   -2.8006   -4.7040 C   0  0  0  0  0  0  0  0  0  0  0  0
   -6.1614   -1.6890   -5.4049 C   0  0  0  0  0  0  0  0  0  0  0  0
   -7.7104   -1.7947   -6.3017 S   0  0  0  0  0  0  0  0  0  0  0  0
   -8.6732   -0.8982   -5.0370 C   0  0  0  0  0  0  0  0  0  0  0  0
   -5.3929   -0.5199   -5.4698 C   0  0  0  0  0  0  0  0  0  0  0  0
   -4.1474   -0.4483   -4.8397 C   0  0  0  0  0  0  0  0  0  0  0  0
   -1.2077   -1.1134   -4.1484 C   0  0  0  0  0  0  0  0  0  0  0  0
   -0.6778    0.1743   -4.0395 C   0  0  0  0  0  0  0  0  0  0  0  0
    0.3286    0.5915   -4.9195 C   0  0  0  0  0  0  0  0  0  0  0  0
    0.8084   -0.2786   -5.9090 C   0  0  0  0  0  0  0  0  0  0  0  0
    1.8182    0.3539   -7.2551 S   0  0  0  0  0  0  0  0  0  0  0  0
    3.4204    0.0881   -6.4536 C   0  0  0  0  0  0  0  0  0  0  0  0
    0.3410   -1.5980   -5.9663 C   0  0  0  0  0  0  0  0  0  0  0  0
   -0.6862   -1.9944   -5.1028 C   0  0  0  0  0  0  0  0  0  0  0  0
   -3.0312   -0.8768   -1.1258 C   0  0  0  0  0  0  0  0  0  0  0  0
   -3.0949    0.7878   -1.1213 S   0  0  0  0  0  0  0  0  0  0  0  0
   -3.1183    0.9522    0.5488 C   0  0  0  0  0  0  0  0  0  0  0  0
   -3.1129   -0.3151    1.1359 C   0  0  0  0  0  0  0  0  0  0  0  0
   -3.0303   -0.5638    2.5482 N   0  0  0  0  0  0  0  0  0  0  0  0
   -1.8619   -0.1758    3.2848 C   0  0  0  0  0  0  0  0  0  0  0  0
   -1.9871    0.4177    4.5499 C   0  0  0  0  0  0  0  0  0  0  0  0
   -0.8681    0.5643    5.3678 C   0  0  0  0  0  0  0  0  0  0  0  0
    0.3916    0.1381    4.9322 C   0  0  0  0  0  0  0  0  0  0  0  0
    1.8032    0.1732    6.0246 S   0  0  0  0  0  0  0  0  0  0  0  0
    1.4949   -1.5116    6.6550 C   0  0  0  0  0  0  0  0  0  0  0  0
    0.5338   -0.4021    3.6410 C   0  0  0  0  0  0  0  0  0  0  0  0
   -0.5842   -0.5176    2.8213 C   0  0  0  0  0  0  0  0  0  0  0  0
   -4.0642   -1.3382    3.1921 C   0  0  0  0  0  0  0  0  0  0  0  0
   -3.7284   -2.2875    4.1760 C   0  0  0  0  0  0  0  0  0  0  0  0
   -4.7176   -3.0297    4.8231 C   0  0  0  0  0  0  0  0  0  0  0  0
   -6.0612   -2.8307    4.5053 C   0  0  0  0  0  0  0  0  0  0  0  0
   -7.3307   -3.7274    5.3939 S   0  0  0  0  0  0  0  0  0  0  0  0
   -7.2592   -5.1939    4.3188 C   0  0  0  0  0  0  0  0  0  0  0  0
   -6.4177   -1.9056    3.5071 C   0  0  0  0  0  0  0  0  0  0  0  0
   -5.4236   -1.1531    2.8624 C   0  0  0  0  0  0  0  0  0  0  0  0
   -3.0240   -1.3182    0.1625 C   0  0  0  0  0  0  0  0  0  0  0  0
   -2.2046   -2.7784    0.2284 S   0  0  0  0  0  0  0  0  0  0  0  0
   -2.4510    2.1209    1.1961 C   0  0  0  0  0  0  0  0  0  0  0  0
   -2.9800    3.3562    1.6317 C   0  0  0  0  0  0  0  0  0  0  0  0
   -2.0108    4.3630    1.7032 C   0  0  0  0  0  0  0  0  0  0  0  0
   -2.3900    6.0795    2.0704 S   0  0  0  0  0  0  0  0  0  0  0  0
   -1.7326    6.0357    3.7932 C   0  0  0  0  0  0  0  0  0  0  0  0
   -2.5112    5.0740    4.6864 C   0  0  0  0  0  0  0  0  0  0  0  0
   -0.7148    3.9134    1.4720 C   0  0  0  0  0  0  0  0  0  0  0  0
   -0.7850    2.2989    1.0973 S   0  0  0  0  0  0  0  0  0  0  0  0
    0.4395    4.7832    1.2350 C   0  0  0  0  0  0  0  0  0  0  0  0
    1.5405    4.7934    2.0095 C   0  0  0  0  0  0  0  0  0  0  0  0
    1.8715    3.7640    3.0013 C   0  0  0  0  0  0  0  0  0  0  0  0
    1.0841    2.9136    3.5039 O   0  0  0  0  0  0  0  0  0  0  0  0
    3.2646    3.8769    3.3430 C   0  0  0  0  0  0  0  0  0  0  0  0
    4.0057    3.0333    4.2095 C   0  0  0  0  0  0  0  0  0  0  0  0
    5.3402    3.3849    4.3197 C   0  0  0  0  0  0  0  0  0  0  0  0
    5.9267    4.4687    3.5873 C   0  0  0  0  0  0  0  0  0  0  0  0
    5.2169    5.3040    2.7343 C   0  0  0  0  0  0  0  0  0  0  0  0
    3.8259    4.9965    2.6549 C   0  0  0  0  0  0  0  0  0  0  0  0
    2.7413    5.6817    1.9005 C   0  0  0  0  0  0  0  0  0  0  0  0
    2.7673    6.9637    1.4488 C   0  0  0  0  0  0  0  0  0  0  0  0
    3.9389    7.8070    1.5784 C   0  0  0  0  0  0  0  0  0  0  0  0
    4.8490    8.5082    1.6860 N   0  0  0  0  0  0  0  0  0  0  0  0
    1.5790    7.6564    1.0097 C   0  0  0  0  0  0  0  0  0  0  0  0
    0.6274    8.2165    0.6742 N   0  0  0  0  0  0  0  0  0  0  0  0
    7.2681    4.1275    4.1314 C   0  0  0  0  0  0  0  0  0  0  0  0
    8.2490    3.3655    3.1860 C   0  0  0  0  0  0  0  0  0  0  0  0
    7.4844    2.4147    2.2816 C   0  0  0  0  0  0  0  0  0  0  0  0
    7.0065    1.4437    3.0597 C   0  0  0  0  0  0  0  0  0  0  0  0
    7.4226    1.7794    4.4638 C   0  0  0  0  0  0  0  0  0  0  0  0
    8.7986    2.3543    4.1769 C   0  0  0  0  0  0  0  0  0  0  0  0
    6.6740    3.0628    4.9418 C   0  0  0  0  0  0  0  0  0  0  0  0
    3.1420   -2.4235   -4.6638 H   0  0  0  0  0  0  0  0  0  0  0  0
    2.6724   -1.3079   -3.3360 H   0  0  0  0  0  0  0  0  0  0  0  0
    4.3261   -1.2031   -4.0443 H   0  0  0  0  0  0  0  0  0  0  0  0
    3.2375   -1.8330   -0.9791 H   0  0  0  0  0  0  0  0  0  0  0  0
    4.4373   -3.1139   -0.5850 H   0  0  0  0  0  0  0  0  0  0  0  0
    4.9900   -1.5628   -1.3164 H   0  0  0  0  0  0  0  0  0  0  0  0
    1.0875   -6.2762   -2.9106 H   0  0  0  0  0  0  0  0  0  0  0  0
   -2.3808   -7.5294   -4.3180 H   0  0  0  0  0  0  0  0  0  0  0  0
   -0.6278   -7.4313   -4.0453 H   0  0  0  0  0  0  0  0  0  0  0  0
   -0.5144   -5.2281   -5.1399 H   0  0  0  0  0  0  0  0  0  0  0  0
   -2.3283   -5.1281   -5.2231 H   0  0  0  0  0  0  0  0  0  0  0  0
   -1.4276   -6.3520   -6.2056 H   0  0  0  0  0  0  0  0  0  0  0  0
   -4.0443   -3.5977   -3.5549 H   0  0  0  0  0  0  0  0  0  0  0  0
   -6.2446   -3.7182   -4.6543 H   0  0  0  0  0  0  0  0  0  0  0  0
   -8.3151    0.1532   -4.9868 H   0  0  0  0  0  0  0  0  0  0  0  0
   -9.7439   -0.9064   -5.3494 H   0  0  0  0  0  0  0  0  0  0  0  0
   -8.5586   -1.3937   -4.0452 H   0  0  0  0  0  0  0  0  0  0  0  0
   -5.7571    0.3469   -6.0205 H   0  0  0  0  0  0  0  0  0  0  0  0
   -3.5800    0.4807   -4.8860 H   0  0  0  0  0  0  0  0  0  0  0  0
   -1.0768    0.8710   -3.3279 H   0  0  0  0  0  0  0  0  0  0  0  0
    0.6628    1.6217   -4.8916 H   0  0  0  0  0  0  0  0  0  0  0  0
    3.6764   -0.9890   -6.4814 H   0  0  0  0  0  0  0  0  0  0  0  0
    4.2018    0.6355   -7.0270 H   0  0  0  0  0  0  0  0  0  0  0  0
    3.3991    0.4806   -5.4231 H   0  0  0  0  0  0  0  0  0  0  0  0
    0.6859   -2.2726   -6.7339 H   0  0  0  0  0  0  0  0  0  0  0  0
   -1.1166   -2.9683   -5.2311 H   0  0  0  0  0  0  0  0  0  0  0  0
   -2.9575    0.6845    4.9315 H   0  0  0  0  0  0  0  0  0  0  0  0
   -0.9798    1.0063    6.3516 H   0  0  0  0  0  0  0  0  0  0  0  0
    1.4330   -2.2325    5.8183 H   0  0  0  0  0  0  0  0  0  0  0  0
    0.5471   -1.5026    7.2303 H   0  0  0  0  0  0  0  0  0  0  0  0
    2.3080   -1.8236    7.3490 H   0  0  0  0  0  0  0  0  0  0  0  0
    1.5035   -0.7654    3.2969 H   0  0  0  0  0  0  0  0  0  0  0  0
   -0.4857   -0.9654    1.8469 H   0  0  0  0  0  0  0  0  0  0  0  0
   -2.6957   -2.4690    4.4603 H   0  0  0  0  0  0  0  0  0  0  0  0
   -4.4288   -3.7206    5.6067 H   0  0  0  0  0  0  0  0  0  0  0  0
   -6.2488   -5.6483    4.3490 H   0  0  0  0  0  0  0  0  0  0  0  0
   -7.5225   -4.9253    3.2793 H   0  0  0  0  0  0  0  0  0  0  0  0
   -7.9917   -5.9455    4.6817 H   0  0  0  0  0  0  0  0  0  0  0  0
   -7.4589   -1.7413    3.2640 H   0  0  0  0  0  0  0  0  0  0  0  0
   -5.7018   -0.3885    2.1569 H   0  0  0  0  0  0  0  0  0  0  0  0
   -4.0018    3.6122    1.8652 H   0  0  0  0  0  0  0  0  0  0  0  0
   -1.8096    7.0629    4.2184 H   0  0  0  0  0  0  0  0  0  0  0  0
   -0.6673    5.7429    3.7769 H   0  0  0  0  0  0  0  0  0  0  0  0
   -3.6012    5.2744    4.5964 H   0  0  0  0  0  0  0  0  0  0  0  0
   -2.1944    5.2139    5.7380 H   0  0  0  0  0  0  0  0  0  0  0  0
   -2.3064    4.0148    4.4008 H   0  0  0  0  0  0  0  0  0  0  0  0
    0.3278    5.5402    0.4640 H   0  0  0  0  0  0  0  0  0  0  0  0
    3.5856    2.1782    4.7099 H   0  0  0  0  0  0  0  0  0  0  0  0
    5.7257    6.0834    2.1833 H   0  0  0  0  0  0  0  0  0  0  0  0
    7.7283    4.9380    4.7261 H   0  0  0  0  0  0  0  0  0  0  0  0
    9.0152    3.9947    2.6737 H   0  0  0  0  0  0  0  0  0  0  0  0
    7.3592    2.4841    1.2014 H   0  0  0  0  0  0  0  0  0  0  0  0
    6.4664    0.5665    2.7300 H   0  0  0  0  0  0  0  0  0  0  0  0
    7.3932    0.9317    5.1687 H   0  0  0  0  0  0  0  0  0  0  0  0
    9.2793    2.8112    5.0715 H   0  0  0  0  0  0  0  0  0  0  0  0
    9.5055    1.6186    3.7222 H   0  0  0  0  0  0  0  0  0  0  0  0
    6.7152    3.2666    6.0411 H   0  0  0  0  0  0  0  0  0  0  0  0
  1  2  1  0
  2  3  1  0
  2  4  1  0
  4  5  2  0
  5  6  1  0
  6  7  3  0
  5  8  1  0
  8  9  2  3
  9 10  1  0
 10 11  3  0
  9 12  1  0
 12 13  3  0
  8 14  1  0
  4 15  1  0
 15 16  2  0
 16 17  1  0
 17 18  1  0
 18 19  1  0
 19 20  1  0
 17 21  2  0
 21 22  1  0
 21 23  1  0
 23 24  2  0
 24 25  1  0
 25 26  1  0
 26 27  2  0
 27 28  1  0
 28 29  2  0
 29 30  1  0
 30 31  1  0
 29 32  1  0
 32 33  2  0
 25 34  1  0
 34 35  2  0
 35 36  1  0
 36 37  2  0
 37 38  1  0
 38 39  1  0
 37 40  1  0
 40 41  2  0
 24 42  1  0
 42 43  1  0
 43 44  1  0
 44 45  2  0
 45 46  1  0
 46 47  1  0
 47 48  2  0
 48 49  1  0
 49 50  2  0
 50 51  1  0
 51 52  1  0
 50 53  1  0
 53 54  2  0
 46 55  1  0
 55 56  2  0
 56 57  1  0
 57 58  2  0
 58 59  1  0
 59 60  1  0
 58 61  1  0
 61 62  2  0
 45 63  1  0
 63 64  1  0
 44 65  1  0
 65 66  2  0
 66 67  1  0
 67 68  1  0
 68 69  1  0
 69 70  1  0
 67 71  2  0
 71 72  1  0
 71 73  1  0
 73 74  2  3
 74 75  1  0
 75 76  2  0
 75 77  1  0
 77 78  2  0
 78 79  1  0
 79 80  2  0
 80 81  1  0
 81 82  2  0
 82 83  1  0
 83 84  2  3
 84 85  1  0
 85 86  3  0
 84 87  1  0
 87 88  3  0
 80 89  1  0
 89 90  1  0
 90 91  1  0
 91 92  2  0
 92 93  1  0
 93 94  1  0
 93 95  1  0
 14  2  1  0
 22 15  1  0
 64 23  1  0
 72 65  1  0
 83 74  1  0
 95 89  1  0
 33 26  1  0
 41 34  1  0
 63 42  2  0
 82 77  1  0
 94 90  1  0
 54 47  1  0
 62 55  1  0
 95 79  1  0
  1 96  1  0
  1 97  1  0
  1 98  1  0
  3 99  1  0
  3100  1  0
  3101  1  0
 16102  1  0
 19103  1  0
 19104  1  0
 20105  1  0
 20106  1  0
 20107  1  0
 27108  1  0
 28109  1  0
 31110  1  0
 31111  1  0
 31112  1  0
 32113  1  0
 33114  1  0
 35115  1  0
 36116  1  0
 39117  1  0
 39118  1  0
 39119  1  0
 40120  1  0
 41121  1  0
 48122  1  0
 49123  1  0
 52124  1  0
 52125  1  0
 52126  1  0
 53127  1  0
 54128  1  0
 56129  1  0
 57130  1  0
 60131  1  0
 60132  1  0
 60133  1  0
 61134  1  0
 62135  1  0
 66136  1  0
 69137  1  0
 69138  1  0
 70139  1  0
 70140  1  0
 70141  1  0
 73142  1  0
 78143  1  0
 81144  1  0
 89145  1  0
 90146  1  0
 91147  1  0
 92148  1  0
 93149  1  0
 94150  1  0
 94151  1  0
 95152  1  0
M  END

