
     RDKit          3D

193210  0  0  0  0  0  0  0  0999 V2000
   -3.5961   -2.9300    4.8737 C   0  0  0  0  0  0  0  0  0  0  0  0
   -4.9101   -2.7503    4.6565 C   0  0  0  0  0  0  0  0  0  0  0  0
   -5.9215   -3.1743    5.6255 C   0  0  0  0  0  0  0  0  0  0  0  0
   -5.7175   -3.4587    6.8353 O   0  0  0  0  0  0  0  0  0  0  0  0
   -7.1894   -3.2866    4.9338 C   0  0  0  0  0  0  0  0  0  0  0  0
   -8.4098   -3.7467    5.4351 C   0  0  0  0  0  0  0  0  0  0  0  0
   -9.5037   -3.8238    4.5634 C   0  0  0  0  0  0  0  0  0  0  0  0
  -11.1826   -4.4623    5.2007 Br  0  0  0  0  0  0  0  0  0  0  0  0
   -9.3569   -3.4469    3.2152 C   0  0  0  0  0  0  0  0  0  0  0  0
   -8.1196   -2.9946    2.7291 C   0  0  0  0  0  0  0  0  0  0  0  0
   -7.0313   -2.8997    3.6119 C   0  0  0  0  0  0  0  0  0  0  0  0
   -5.6394   -2.4105    3.3960 C   0  0  0  0  0  0  0  0  0  0  0  0
   -5.2668   -1.4973    2.4633 C   0  0  0  0  0  0  0  0  0  0  0  0
   -4.1291   -0.6325    2.6316 C   0  0  0  0  0  0  0  0  0  0  0  0
   -3.2274    0.0833    2.7476 N   0  0  0  0  0  0  0  0  0  0  0  0
   -6.0581   -1.2095    1.2960 C   0  0  0  0  0  0  0  0  0  0  0  0
   -6.6809   -0.9667    0.3509 N   0  0  0  0  0  0  0  0  0  0  0  0
   -2.5689   -2.9029    3.8282 C   0  0  0  0  0  0  0  0  0  0  0  0
   -1.3767   -2.1797    3.9090 C   0  0  0  0  0  0  0  0  0  0  0  0
   -0.8178   -1.6565    5.1231 N   0  0  0  0  0  0  0  0  0  0  0  0
   -0.0979   -2.5332    6.0270 C   0  0  0  0  0  0  0  0  0  0  0  0
    0.3413   -3.8079    5.6067 C   0  0  0  0  0  0  0  0  0  0  0  0
    1.0867   -4.6211    6.4641 C   0  0  0  0  0  0  0  0  0  0  0  0
    1.4027   -4.1812    7.7523 C   0  0  0  0  0  0  0  0  0  0  0  0
    2.4055   -5.2070    8.8280 S   0  0  0  0  0  0  0  0  0  0  0  0
    3.9751   -4.5457    8.1869 C   0  0  0  0  0  0  0  0  0  0  0  0
    0.9472   -2.9361    8.1942 C   0  0  0  0  0  0  0  0  0  0  0  0
    0.1923   -2.1229    7.3443 C   0  0  0  0  0  0  0  0  0  0  0  0
   -0.7819   -0.2349    5.3067 C   0  0  0  0  0  0  0  0  0  0  0  0
   -1.9617    0.4650    5.5930 C   0  0  0  0  0  0  0  0  0  0  0  0
   -1.9114    1.8279    5.8975 C   0  0  0  0  0  0  0  0  0  0  0  0
   -0.6832    2.4930    5.9285 C   0  0  0  0  0  0  0  0  0  0  0  0
   -0.6075    4.2082    6.4476 S   0  0  0  0  0  0  0  0  0  0  0  0
   -0.3904    3.7812    8.2056 C   0  0  0  0  0  0  0  0  0  0  0  0
    0.4948    1.8078    5.6045 C   0  0  0  0  0  0  0  0  0  0  0  0
    0.4453    0.4457    5.3004 C   0  0  0  0  0  0  0  0  0  0  0  0
   -0.7065   -2.1918    2.6962 C   0  0  0  0  0  0  0  0  0  0  0  0
    0.5964   -1.3517    2.0972 S   0  0  0  0  0  0  0  0  0  0  0  0
    0.4413   -1.9583    0.5063 C   0  0  0  0  0  0  0  0  0  0  0  0
   -0.6065   -2.9072    0.4907 C   0  0  0  0  0  0  0  0  0  0  0  0
   -0.7866   -3.9016   -0.5397 N   0  0  0  0  0  0  0  0  0  0  0  0
    0.3683   -4.5946   -1.0675 C   0  0  0  0  0  0  0  0  0  0  0  0
    0.4448   -4.9067   -2.4371 C   0  0  0  0  0  0  0  0  0  0  0  0
    1.6032   -5.4774   -2.9671 C   0  0  0  0  0  0  0  0  0  0  0  0
    2.6980   -5.7469   -2.1380 C   0  0  0  0  0  0  0  0  0  0  0  0
    4.2152   -6.4059   -2.8288 S   0  0  0  0  0  0  0  0  0  0  0  0
    4.9498   -4.7629   -3.1350 C   0  0  0  0  0  0  0  0  0  0  0  0
    2.6103   -5.4952   -0.7646 C   0  0  0  0  0  0  0  0  0  0  0  0
    1.4526   -4.9232   -0.2319 C   0  0  0  0  0  0  0  0  0  0  0  0
   -2.1093   -4.3456   -0.8894 C   0  0  0  0  0  0  0  0  0  0  0  0
   -3.1083   -3.4100   -1.2051 C   0  0  0  0  0  0  0  0  0  0  0  0
   -4.3993   -3.8425   -1.5235 C   0  0  0  0  0  0  0  0  0  0  0  0
   -4.7029   -5.2095   -1.5223 C   0  0  0  0  0  0  0  0  0  0  0  0
   -6.3563   -5.7660   -1.9389 S   0  0  0  0  0  0  0  0  0  0  0  0
   -5.9605   -5.9649   -3.7048 C   0  0  0  0  0  0  0  0  0  0  0  0
   -3.7122   -6.1449   -1.1999 C   0  0  0  0  0  0  0  0  0  0  0  0
   -2.4203   -5.7159   -0.8895 C   0  0  0  0  0  0  0  0  0  0  0  0
   -1.2626   -2.9505    1.7205 C   0  0  0  0  0  0  0  0  0  0  0  0
   -2.6877   -3.6396    2.2876 S   0  0  0  0  0  0  0  0  0  0  0  0
    1.0264   -1.3099   -0.6947 C   0  0  0  0  0  0  0  0  0  0  0  0
    1.7630   -0.1031   -0.7111 C   0  0  0  0  0  0  0  0  0  0  0  0
    2.0603    0.6953    0.4459 N   0  0  0  0  0  0  0  0  0  0  0  0
    1.2358    1.8572    0.6807 C   0  0  0  0  0  0  0  0  0  0  0  0
    1.8179    3.1288    0.8097 C   0  0  0  0  0  0  0  0  0  0  0  0
    1.0110    4.2653    0.9267 C   0  0  0  0  0  0  0  0  0  0  0  0
   -0.3840    4.1382    0.9322 C   0  0  0  0  0  0  0  0  0  0  0  0
   -1.4258    5.5933    1.0479 S   0  0  0  0  0  0  0  0  0  0  0  0
   -1.6403    5.7243   -0.7560 C   0  0  0  0  0  0  0  0  0  0  0  0
   -0.9694    2.8742    0.8211 C   0  0  0  0  0  0  0  0  0  0  0  0
   -0.1669    1.7426    0.6778 C   0  0  0  0  0  0  0  0  0  0  0  0
    3.2510    0.4360    1.2257 C   0  0  0  0  0  0  0  0  0  0  0  0
    4.3511   -0.2420    0.6583 C   0  0  0  0  0  0  0  0  0  0  0  0
    5.4868   -0.5155    1.4240 C   0  0  0  0  0  0  0  0  0  0  0  0
    5.5365   -0.1309    2.7670 C   0  0  0  0  0  0  0  0  0  0  0  0
    6.9900   -0.4911    3.7525 S   0  0  0  0  0  0  0  0  0  0  0  0
    6.4167   -2.1604    4.1994 C   0  0  0  0  0  0  0  0  0  0  0  0
    4.4569    0.5460    3.3400 C   0  0  0  0  0  0  0  0  0  0  0  0
    3.3226    0.8326    2.5742 C   0  0  0  0  0  0  0  0  0  0  0  0
    1.8642    0.4185   -1.9931 C   0  0  0  0  0  0  0  0  0  0  0  0
    2.3206    1.9198   -2.5598 S   0  0  0  0  0  0  0  0  0  0  0  0
    1.7116    1.6610   -4.1237 C   0  0  0  0  0  0  0  0  0  0  0  0
    1.1433    0.3814   -4.2024 C   0  0  0  0  0  0  0  0  0  0  0  0
    0.3726   -0.1061   -5.3080 N   0  0  0  0  0  0  0  0  0  0  0  0
   -0.9699    0.3706   -5.5415 C   0  0  0  0  0  0  0  0  0  0  0  0
   -1.5317    0.2986   -6.8281 C   0  0  0  0  0  0  0  0  0  0  0  0
   -2.8477    0.7068   -7.0535 C   0  0  0  0  0  0  0  0  0  0  0  0
   -3.6295    1.1797   -5.9923 C   0  0  0  0  0  0  0  0  0  0  0  0
   -5.3365    1.6519   -6.2733 S   0  0  0  0  0  0  0  0  0  0  0  0
   -4.9313    3.4007   -6.5786 C   0  0  0  0  0  0  0  0  0  0  0  0
   -3.0796    1.2618   -4.7086 C   0  0  0  0  0  0  0  0  0  0  0  0
   -1.7588    0.8676   -4.4847 C   0  0  0  0  0  0  0  0  0  0  0  0
    0.8543   -1.2722   -5.9911 C   0  0  0  0  0  0  0  0  0  0  0  0
    0.2254   -2.5116   -5.8029 C   0  0  0  0  0  0  0  0  0  0  0  0
    0.7231   -3.6535   -6.4334 C   0  0  0  0  0  0  0  0  0  0  0  0
    1.8491   -3.5632   -7.2634 C   0  0  0  0  0  0  0  0  0  0  0  0
    2.4920   -5.0369   -8.0656 S   0  0  0  0  0  0  0  0  0  0  0  0
    3.6609   -5.4040   -6.7183 C   0  0  0  0  0  0  0  0  0  0  0  0
    2.4651   -2.3228   -7.4710 C   0  0  0  0  0  0  0  0  0  0  0  0
    1.9774   -1.1840   -6.8266 C   0  0  0  0  0  0  0  0  0  0  0  0
    1.2516   -0.2809   -2.9773 C   0  0  0  0  0  0  0  0  0  0  0  0
    0.5032   -1.6117   -2.2993 S   0  0  0  0  0  0  0  0  0  0  0  0
    1.8276    2.6893   -5.1574 C   0  0  0  0  0  0  0  0  0  0  0  0
    2.9678    2.6575   -5.9744 C   0  0  0  0  0  0  0  0  0  0  0  0
    3.5669    3.8483   -6.4113 C   0  0  0  0  0  0  0  0  0  0  0  0
    4.7681    3.7877   -7.0387 F   0  0  0  0  0  0  0  0  0  0  0  0
    3.0423    5.0930   -6.0204 C   0  0  0  0  0  0  0  0  0  0  0  0
    1.7994    5.1290   -5.3795 C   0  0  0  0  0  0  0  0  0  0  0  0
    1.1843    3.9176   -4.9490 C   0  0  0  0  0  0  0  0  0  0  0  0
    0.0537    4.0400   -4.2058 N   0  0  0  0  0  0  0  0  0  0  0  0
   -0.1018    5.6868   -4.1677 S   0  0  0  0  0  0  0  0  0  0  0  0
    1.1908    6.2846   -5.0070 N   0  0  0  0  0  0  0  0  0  0  0  0
    3.9433    6.2546   -5.9216 C   0  0  0  0  0  0  0  0  0  0  0  0
    4.7803    6.3967   -4.8685 C   0  0  0  0  0  0  0  0  0  0  0  0
    4.8192    5.5189   -3.6838 C   0  0  0  0  0  0  0  0  0  0  0  0
    4.2903    4.3836   -3.5668 O   0  0  0  0  0  0  0  0  0  0  0  0
    5.5297    6.1982   -2.6280 C   0  0  0  0  0  0  0  0  0  0  0  0
    5.6981    5.7848   -1.3060 C   0  0  0  0  0  0  0  0  0  0  0  0
    6.3375    6.6561   -0.4138 C   0  0  0  0  0  0  0  0  0  0  0  0
    6.5753    6.1360    1.4102 Br  0  0  0  0  0  0  0  0  0  0  0  0
    6.7844    7.9158   -0.8531 C   0  0  0  0  0  0  0  0  0  0  0  0
    6.6016    8.3104   -2.1904 C   0  0  0  0  0  0  0  0  0  0  0  0
    5.9886    7.4190   -3.0879 C   0  0  0  0  0  0  0  0  0  0  0  0
    5.6522    7.5672   -4.5371 C   0  0  0  0  0  0  0  0  0  0  0  0
    6.2209    8.4310   -5.4160 C   0  0  0  0  0  0  0  0  0  0  0  0
    7.1981    9.4097   -5.0172 C   0  0  0  0  0  0  0  0  0  0  0  0
    7.9892   10.1958   -4.7056 N   0  0  0  0  0  0  0  0  0  0  0  0
    6.0131    8.3255   -6.8359 C   0  0  0  0  0  0  0  0  0  0  0  0
    5.8538    8.2439   -7.9799 N   0  0  0  0  0  0  0  0  0  0  0  0
   -3.2546   -3.1683    5.8759 H   0  0  0  0  0  0  0  0  0  0  0  0
   -8.5023   -4.0501    6.4719 H   0  0  0  0  0  0  0  0  0  0  0  0
  -10.2040   -3.5166    2.5413 H   0  0  0  0  0  0  0  0  0  0  0  0
   -8.0351   -2.7625    1.6789 H   0  0  0  0  0  0  0  0  0  0  0  0
    0.1368   -4.1647    4.6070 H   0  0  0  0  0  0  0  0  0  0  0  0
    1.4344   -5.5875    6.1181 H   0  0  0  0  0  0  0  0  0  0  0  0
    4.0662   -4.7716    7.1051 H   0  0  0  0  0  0  0  0  0  0  0  0
    4.8189   -5.0222    8.7238 H   0  0  0  0  0  0  0  0  0  0  0  0
    4.0221   -3.4491    8.3430 H   0  0  0  0  0  0  0  0  0  0  0  0
    1.1885   -2.5921    9.1920 H   0  0  0  0  0  0  0  0  0  0  0  0
   -0.1473   -1.1628    7.7129 H   0  0  0  0  0  0  0  0  0  0  0  0
   -2.9110   -0.0547    5.6086 H   0  0  0  0  0  0  0  0  0  0  0  0
   -2.8261    2.3561    6.1476 H   0  0  0  0  0  0  0  0  0  0  0  0
   -0.1742    4.7059    8.7821 H   0  0  0  0  0  0  0  0  0  0  0  0
   -1.3235    3.3264    8.5962 H   0  0  0  0  0  0  0  0  0  0  0  0
    0.4526    3.0730    8.3302 H   0  0  0  0  0  0  0  0  0  0  0  0
    1.4477    2.3201    5.6256 H   0  0  0  0  0  0  0  0  0  0  0  0
    1.3608   -0.0873    5.0865 H   0  0  0  0  0  0  0  0  0  0  0  0
   -0.3770   -4.6632   -3.0972 H   0  0  0  0  0  0  0  0  0  0  0  0
    1.6514   -5.6943   -4.0240 H   0  0  0  0  0  0  0  0  0  0  0  0
    6.0399   -4.8820   -3.2950 H   0  0  0  0  0  0  0  0  0  0  0  0
    4.5036   -4.3163   -4.0458 H   0  0  0  0  0  0  0  0  0  0  0  0
    4.7855   -4.0815   -2.2751 H   0  0  0  0  0  0  0  0  0  0  0  0
    3.4438   -5.7255   -0.1117 H   0  0  0  0  0  0  0  0  0  0  0  0
    1.4059   -4.7257    0.8330 H   0  0  0  0  0  0  0  0  0  0  0  0
   -2.8824   -2.3491   -1.2072 H   0  0  0  0  0  0  0  0  0  0  0  0
   -5.1606   -3.1163   -1.7724 H   0  0  0  0  0  0  0  0  0  0  0  0
   -5.6555   -4.9890   -4.1364 H   0  0  0  0  0  0  0  0  0  0  0  0
   -6.8608   -6.3304   -4.2397 H   0  0  0  0  0  0  0  0  0  0  0  0
   -5.1411   -6.7049   -3.8313 H   0  0  0  0  0  0  0  0  0  0  0  0
   -3.9423   -7.2014   -1.1952 H   0  0  0  0  0  0  0  0  0  0  0  0
   -1.6668   -6.4483   -0.6291 H   0  0  0  0  0  0  0  0  0  0  0  0
    2.8928    3.2428    0.7753 H   0  0  0  0  0  0  0  0  0  0  0  0
    1.4699    5.2440    0.9960 H   0  0  0  0  0  0  0  0  0  0  0  0
   -2.2137    4.8489   -1.1320 H   0  0  0  0  0  0  0  0  0  0  0  0
   -2.2103    6.6491   -0.9900 H   0  0  0  0  0  0  0  0  0  0  0  0
   -0.6521    5.7731   -1.2584 H   0  0  0  0  0  0  0  0  0  0  0  0
   -2.0479    2.7726    0.8138 H   0  0  0  0  0  0  0  0  0  0  0  0
   -0.6410    0.7801    0.5498 H   0  0  0  0  0  0  0  0  0  0  0  0
    4.3364   -0.5520   -0.3782 H   0  0  0  0  0  0  0  0  0  0  0  0
    6.3224   -1.0336    0.9710 H   0  0  0  0  0  0  0  0  0  0  0  0
    6.3835   -2.7935    3.2894 H   0  0  0  0  0  0  0  0  0  0  0  0
    7.1261   -2.6092    4.9248 H   0  0  0  0  0  0  0  0  0  0  0  0
    5.4095   -2.1117    4.6630 H   0  0  0  0  0  0  0  0  0  0  0  0
    4.4940    0.8475    4.3784 H   0  0  0  0  0  0  0  0  0  0  0  0
    2.4933    1.3457    3.0427 H   0  0  0  0  0  0  0  0  0  0  0  0
   -0.9480   -0.0693   -7.6628 H   0  0  0  0  0  0  0  0  0  0  0  0
   -3.2702    0.6414   -8.0502 H   0  0  0  0  0  0  0  0  0  0  0  0
   -4.2618    3.4878   -7.4597 H   0  0  0  0  0  0  0  0  0  0  0  0
   -5.8687    3.9572   -6.7810 H   0  0  0  0  0  0  0  0  0  0  0  0
   -4.4392    3.8348   -5.6821 H   0  0  0  0  0  0  0  0  0  0  0  0
   -3.6826    1.6181   -3.8811 H   0  0  0  0  0  0  0  0  0  0  0  0
   -1.3629    0.9327   -3.4811 H   0  0  0  0  0  0  0  0  0  0  0  0
   -0.6393   -2.5910   -5.1571 H   0  0  0  0  0  0  0  0  0  0  0  0
    0.2423   -4.6109   -6.2704 H   0  0  0  0  0  0  0  0  0  0  0  0
    4.4607   -4.6363   -6.6910 H   0  0  0  0  0  0  0  0  0  0  0  0
    4.1207   -6.3966   -6.8973 H   0  0  0  0  0  0  0  0  0  0  0  0
    3.1334   -5.4281   -5.7477 H   0  0  0  0  0  0  0  0  0  0  0  0
    3.3283   -2.2451   -8.1165 H   0  0  0  0  0  0  0  0  0  0  0  0
    2.4621   -0.2293   -6.9867 H   0  0  0  0  0  0  0  0  0  0  0  0
    3.5007    1.7269   -6.1241 H   0  0  0  0  0  0  0  0  0  0  0  0
    3.8240    7.0369   -6.6512 H   0  0  0  0  0  0  0  0  0  0  0  0
    5.3219    4.8235   -0.9682 H   0  0  0  0  0  0  0  0  0  0  0  0
    7.2580    8.5920   -0.1575 H   0  0  0  0  0  0  0  0  0  0  0  0
    6.9020    9.3057   -2.4814 H   0  0  0  0  0  0  0  0  0  0  0  0
  1  2  2  3
  2  3  1  0
  3  4  2  0
  3  5  1  0
  5  6  2  0
  6  7  1  0
  7  8  1  0
  7  9  2  0
  9 10  1  0
 10 11  2  0
 11 12  1  0
 12 13  2  3
 13 14  1  0
 14 15  3  0
 13 16  1  0
 16 17  3  0
  1 18  1  0
 18 19  2  0
 19 20  1  0
 20 21  1  0
 21 22  2  0
 22 23  1  0
 23 24  2  0
 24 25  1  0
 25 26  1  0
 24 27  1  0
 27 28  2  0
 20 29  1  0
 29 30  2  0
 30 31  1  0
 31 32  2  0
 32 33  1  0
 33 34  1  0
 32 35  1  0
 35 36  2  0
 19 37  1  0
 37 38  1  0
 38 39  1  0
 39 40  2  0
 40 41  1  0
 41 42  1  0
 42 43  2  0
 43 44  1  0
 44 45  2  0
 45 46  1  0
 46 47  1  0
 45 48  1  0
 48 49  2  0
 41 50  1  0
 50 51  2  0
 51 52  1  0
 52 53  2  0
 53 54  1  0
 54 55  1  0
 53 56  1  0
 56 57  2  0
 40 58  1  0
 58 59  1  0
 39 60  1  0
 60 61  2  0
 61 62  1  0
 62 63  1  0
 63 64  2  0
 64 65  1  0
 65 66  2  0
 66 67  1  0
 67 68  1  0
 66 69  1  0
 69 70  2  0
 62 71  1  0
 71 72  2  0
 72 73  1  0
 73 74  2  0
 74 75  1  0
 75 76  1  0
 74 77  1  0
 77 78  2  0
 61 79  1  0
 79 80  1  0
 80 81  1  0
 81 82  2  0
 82 83  1  0
 83 84  1  0
 84 85  2  0
 85 86  1  0
 86 87  2  0
 87 88  1  0
 88 89  1  0
 87 90  1  0
 90 91  2  0
 83 92  1  0
 92 93  2  0
 93 94  1  0
 94 95  2  0
 95 96  1  0
 96 97  1  0
 95 98  1  0
 98 99  2  0
 82100  1  0
100101  1  0
 81102  1  0
102103  2  0
103104  1  0
104105  1  0
104106  2  0
106107  1  0
107108  1  0
108109  2  0
109110  1  0
110111  1  0
106112  1  0
112113  2  3
113114  1  0
114115  2  0
114116  1  0
116117  2  0
117118  1  0
118119  1  0
118120  2  0
120121  1  0
121122  2  0
122123  1  0
123124  2  3
124125  1  0
125126  3  0
124127  1  0
127128  3  0
 12  2  1  0
 59 18  1  0
101 60  1  0
108102  1  0
123113  1  0
 11  5  1  0
 28 21  1  0
 36 29  1  0
 58 37  2  0
 70 63  1  0
 78 71  1  0
100 79  2  0
111107  2  0
122116  1  0
 49 42  1  0
 57 50  1  0
 91 84  1  0
 99 92  1  0
  1129  1  0
  6130  1  0
  9131  1  0
 10132  1  0
 22133  1  0
 23134  1  0
 26135  1  0
 26136  1  0
 26137  1  0
 27138  1  0
 28139  1  0
 30140  1  0
 31141  1  0
 34142  1  0
 34143  1  0
 34144  1  0
 35145  1  0
 36146  1  0
 43147  1  0
 44148  1  0
 47149  1  0
 47150  1  0
 47151  1  0
 48152  1  0
 49153  1  0
 51154  1  0
 52155  1  0
 55156  1  0
 55157  1  0
 55158  1  0
 56159  1  0
 57160  1  0
 64161  1  0
 65162  1  0
 68163  1  0
 68164  1  0
 68165  1  0
 69166  1  0
 70167  1  0
 72168  1  0
 73169  1  0
 76170  1  0
 76171  1  0
 76172  1  0
 77173  1  0
 78174  1  0
 85175  1  0
 86176  1  0
 89177  1  0
 89178  1  0
 89179  1  0
 90180  1  0
 91181  1  0
 93182  1  0
 94183  1  0
 97184  1  0
 97185  1  0
 97186  1  0
 98187  1  0
 99188  1  0
103189  1  0
112190  1  0
117191  1  0
120192  1  0
121193  1  0
M  END

