
     RDKit          3D

196212  0  0  0  0  0  0  0  0999 V2000
    6.0053   -1.9551    1.5482 C   0  0  0  0  0  0  0  0  0  0  0  0
    6.2061   -2.0517    0.2201 C   0  0  0  0  0  0  0  0  0  0  0  0
    5.3264   -1.4757   -0.8175 C   0  0  0  0  0  0  0  0  0  0  0  0
    4.1821   -0.9771   -0.6464 O   0  0  0  0  0  0  0  0  0  0  0  0
    6.0206   -1.5441   -2.0826 C   0  0  0  0  0  0  0  0  0  0  0  0
    5.5898   -1.0526   -3.3132 C   0  0  0  0  0  0  0  0  0  0  0  0
    6.4581   -1.1570   -4.4064 C   0  0  0  0  0  0  0  0  0  0  0  0
    5.9215   -0.4758   -6.1131 Br  0  0  0  0  0  0  0  0  0  0  0  0
    7.7251   -1.7440   -4.2513 C   0  0  0  0  0  0  0  0  0  0  0  0
    8.1315   -2.2415   -3.0064 C   0  0  0  0  0  0  0  0  0  0  0  0
    7.2538   -2.1509   -1.9141 C   0  0  0  0  0  0  0  0  0  0  0  0
    7.4097   -2.5885   -0.4927 C   0  0  0  0  0  0  0  0  0  0  0  0
    8.3171   -3.4748   -0.0121 C   0  0  0  0  0  0  0  0  0  0  0  0
    9.3994   -3.9900   -0.8050 C   0  0  0  0  0  0  0  0  0  0  0  0
   10.2827   -4.4088   -1.4241 N   0  0  0  0  0  0  0  0  0  0  0  0
    8.2048   -4.0601    1.2989 C   0  0  0  0  0  0  0  0  0  0  0  0
    8.1255   -4.5448    2.3476 N   0  0  0  0  0  0  0  0  0  0  0  0
    4.7366   -1.4820    2.1139 C   0  0  0  0  0  0  0  0  0  0  0  0
    3.6021   -2.2757    2.2878 C   0  0  0  0  0  0  0  0  0  0  0  0
    3.6014   -3.7112    2.2748 N   0  0  0  0  0  0  0  0  0  0  0  0
    3.9038   -4.4329    1.0668 C   0  0  0  0  0  0  0  0  0  0  0  0
    4.7635   -5.5441    1.1025 C   0  0  0  0  0  0  0  0  0  0  0  0
    5.0567   -6.2491   -0.0682 C   0  0  0  0  0  0  0  0  0  0  0  0
    4.4998   -5.8444   -1.2866 C   0  0  0  0  0  0  0  0  0  0  0  0
    4.8555   -6.7603   -2.7842 S   0  0  0  0  0  0  0  0  0  0  0  0
    3.3847   -7.8234   -2.6155 C   0  0  0  0  0  0  0  0  0  0  0  0
    3.6477   -4.7316   -1.3315 C   0  0  0  0  0  0  0  0  0  0  0  0
    3.3468   -4.0320   -0.1576 C   0  0  0  0  0  0  0  0  0  0  0  0
    3.3128   -4.3983    3.5100 C   0  0  0  0  0  0  0  0  0  0  0  0
    3.8130   -3.9058    4.7288 C   0  0  0  0  0  0  0  0  0  0  0  0
    3.4746   -4.5241    5.9358 C   0  0  0  0  0  0  0  0  0  0  0  0
    2.6127   -5.6250    5.9485 C   0  0  0  0  0  0  0  0  0  0  0  0
    2.1175   -6.3486    7.5076 S   0  0  0  0  0  0  0  0  0  0  0  0
    0.7687   -5.1505    7.7687 C   0  0  0  0  0  0  0  0  0  0  0  0
    2.1207   -6.1326    4.7385 C   0  0  0  0  0  0  0  0  0  0  0  0
    2.4758   -5.5276    3.5243 C   0  0  0  0  0  0  0  0  0  0  0  0
    2.4754   -1.5063    2.5544 C   0  0  0  0  0  0  0  0  0  0  0  0
    0.8387   -1.8043    2.3868 S   0  0  0  0  0  0  0  0  0  0  0  0
    0.3866   -0.1599    2.4155 C   0  0  0  0  0  0  0  0  0  0  0  0
    1.5503    0.6207    2.5476 C   0  0  0  0  0  0  0  0  0  0  0  0
    1.6113    2.0577    2.5328 N   0  0  0  0  0  0  0  0  0  0  0  0
    1.2672    2.8143    1.3457 C   0  0  0  0  0  0  0  0  0  0  0  0
    1.1878    2.1878    0.0808 C   0  0  0  0  0  0  0  0  0  0  0  0
    0.7828    2.9061   -1.0477 C   0  0  0  0  0  0  0  0  0  0  0  0
    0.4789    4.2676   -0.9379 C   0  0  0  0  0  0  0  0  0  0  0  0
   -0.0715    5.2019   -2.3724 S   0  0  0  0  0  0  0  0  0  0  0  0
    1.6157    5.5889   -2.9480 C   0  0  0  0  0  0  0  0  0  0  0  0
    0.5831    4.9074    0.3008 C   0  0  0  0  0  0  0  0  0  0  0  0
    0.9815    4.1919    1.4326 C   0  0  0  0  0  0  0  0  0  0  0  0
    2.2668    2.6655    3.6652 C   0  0  0  0  0  0  0  0  0  0  0  0
    1.9135    2.2729    4.9699 C   0  0  0  0  0  0  0  0  0  0  0  0
    2.6833    2.6701    6.0643 C   0  0  0  0  0  0  0  0  0  0  0  0
    3.8258    3.4471    5.8685 C   0  0  0  0  0  0  0  0  0  0  0  0
    4.8953    3.8300    7.2609 S   0  0  0  0  0  0  0  0  0  0  0  0
    5.7660    2.2294    7.1852 C   0  0  0  0  0  0  0  0  0  0  0  0
    4.1617    3.8815    4.5799 C   0  0  0  0  0  0  0  0  0  0  0  0
    3.3840    3.4986    3.4840 C   0  0  0  0  0  0  0  0  0  0  0  0
    2.6941   -0.1695    2.6128 C   0  0  0  0  0  0  0  0  0  0  0  0
    4.3158    0.1577    2.2953 S   0  0  0  0  0  0  0  0  0  0  0  0
   -0.8788    0.2995    1.8264 C   0  0  0  0  0  0  0  0  0  0  0  0
   -1.6663    1.4012    2.2178 C   0  0  0  0  0  0  0  0  0  0  0  0
   -1.8136    1.7698    3.5977 N   0  0  0  0  0  0  0  0  0  0  0  0
   -2.4622    0.7963    4.4306 C   0  0  0  0  0  0  0  0  0  0  0  0
   -1.7102   -0.1797    5.1030 C   0  0  0  0  0  0  0  0  0  0  0  0
   -2.3552   -1.1890    5.8231 C   0  0  0  0  0  0  0  0  0  0  0  0
   -3.7535   -1.2221    5.8840 C   0  0  0  0  0  0  0  0  0  0  0  0
   -4.5905   -2.5134    6.8114 S   0  0  0  0  0  0  0  0  0  0  0  0
   -4.7604   -3.6177    5.3670 C   0  0  0  0  0  0  0  0  0  0  0  0
   -4.5055   -0.2414    5.2305 C   0  0  0  0  0  0  0  0  0  0  0  0
   -3.8616    0.7592    4.4950 C   0  0  0  0  0  0  0  0  0  0  0  0
   -1.5896    3.1059    4.1063 C   0  0  0  0  0  0  0  0  0  0  0  0
   -1.3510    3.3033    5.4841 C   0  0  0  0  0  0  0  0  0  0  0  0
   -1.1926    4.5880    6.0078 C   0  0  0  0  0  0  0  0  0  0  0  0
   -1.3024    5.7039    5.1732 C   0  0  0  0  0  0  0  0  0  0  0  0
   -1.1651    7.3615    5.8606 S   0  0  0  0  0  0  0  0  0  0  0  0
   -2.9302    7.4572    6.3145 C   0  0  0  0  0  0  0  0  0  0  0  0
   -1.5270    5.5307    3.8026 C   0  0  0  0  0  0  0  0  0  0  0  0
   -1.6574    4.2373    3.2689 C   0  0  0  0  0  0  0  0  0  0  0  0
   -2.6797    1.6084    1.2699 C   0  0  0  0  0  0  0  0  0  0  0  0
   -3.9064    2.7406    1.0398 S   0  0  0  0  0  0  0  0  0  0  0  0
   -4.4748    2.0541   -0.4266 C   0  0  0  0  0  0  0  0  0  0  0  0
   -3.7372    0.8803   -0.6752 C   0  0  0  0  0  0  0  0  0  0  0  0
   -4.0730   -0.1056   -1.6741 N   0  0  0  0  0  0  0  0  0  0  0  0
   -5.4088   -0.6632   -1.7438 C   0  0  0  0  0  0  0  0  0  0  0  0
   -6.2502   -0.6765   -0.6143 C   0  0  0  0  0  0  0  0  0  0  0  0
   -7.5134   -1.2684   -0.6770 C   0  0  0  0  0  0  0  0  0  0  0  0
   -7.9596   -1.8529   -1.8636 C   0  0  0  0  0  0  0  0  0  0  0  0
   -9.5477   -2.6772   -1.9301 S   0  0  0  0  0  0  0  0  0  0  0  0
   -8.8780   -4.2964   -1.4269 C   0  0  0  0  0  0  0  0  0  0  0  0
   -7.1516   -1.8186   -3.0020 C   0  0  0  0  0  0  0  0  0  0  0  0
   -5.8835   -1.2278   -2.9459 C   0  0  0  0  0  0  0  0  0  0  0  0
   -3.0128   -0.6929   -2.4510 C   0  0  0  0  0  0  0  0  0  0  0  0
   -2.8133   -2.0838   -2.4472 C   0  0  0  0  0  0  0  0  0  0  0  0
   -1.7622   -2.6541   -3.1747 C   0  0  0  0  0  0  0  0  0  0  0  0
   -0.9282   -1.8407   -3.9552 C   0  0  0  0  0  0  0  0  0  0  0  0
    0.4340   -2.5713   -4.8678 S   0  0  0  0  0  0  0  0  0  0  0  0
    1.6619   -2.1934   -3.5690 C   0  0  0  0  0  0  0  0  0  0  0  0
   -1.1384   -0.4594   -3.9922 C   0  0  0  0  0  0  0  0  0  0  0  0
   -2.1764    0.1174   -3.2465 C   0  0  0  0  0  0  0  0  0  0  0  0
   -2.7196    0.7118    0.2511 C   0  0  0  0  0  0  0  0  0  0  0  0
   -1.4865   -0.3965    0.4073 S   0  0  0  0  0  0  0  0  0  0  0  0
   -5.2355    2.8017   -1.4541 C   0  0  0  0  0  0  0  0  0  0  0  0
   -5.5934    4.1512   -1.3674 C   0  0  0  0  0  0  0  0  0  0  0  0
   -5.8404    4.7438   -2.6191 C   0  0  0  0  0  0  0  0  0  0  0  0
   -6.2018    6.4887   -2.8098 S   0  0  0  0  0  0  0  0  0  0  0  0
   -4.4542    7.0005   -3.0430 C   0  0  0  0  0  0  0  0  0  0  0  0
   -3.7770    7.2393   -1.7002 C   0  0  0  0  0  0  0  0  0  0  0  0
   -5.6705    3.8750   -3.6899 C   0  0  0  0  0  0  0  0  0  0  0  0
   -5.2517    2.3741   -3.0855 S   0  0  0  0  0  0  0  0  0  0  0  0
   -5.6127    4.2348   -5.1155 C   0  0  0  0  0  0  0  0  0  0  0  0
   -4.4883    4.0862   -5.8500 C   0  0  0  0  0  0  0  0  0  0  0  0
   -3.1900    3.6349   -5.3359 C   0  0  0  0  0  0  0  0  0  0  0  0
   -2.7871    3.7071   -4.1429 O   0  0  0  0  0  0  0  0  0  0  0  0
   -2.4006    3.1636   -6.4447 C   0  0  0  0  0  0  0  0  0  0  0  0
   -1.1641    2.5233   -6.3953 C   0  0  0  0  0  0  0  0  0  0  0  0
   -0.6027    2.0601   -7.5928 C   0  0  0  0  0  0  0  0  0  0  0  0
    1.0669    1.1336   -7.5595 Br  0  0  0  0  0  0  0  0  0  0  0  0
   -1.2837    2.2614   -8.8118 C   0  0  0  0  0  0  0  0  0  0  0  0
   -2.5277    2.9153   -8.8354 C   0  0  0  0  0  0  0  0  0  0  0  0
   -3.0795    3.3786   -7.6302 C   0  0  0  0  0  0  0  0  0  0  0  0
   -4.3649    4.0835   -7.3435 C   0  0  0  0  0  0  0  0  0  0  0  0
   -5.1477    4.7476   -8.2316 C   0  0  0  0  0  0  0  0  0  0  0  0
   -6.1680    5.6698   -7.8066 C   0  0  0  0  0  0  0  0  0  0  0  0
   -6.9812    6.4193   -7.4660 N   0  0  0  0  0  0  0  0  0  0  0  0
   -4.9313    4.6972   -9.6530 C   0  0  0  0  0  0  0  0  0  0  0  0
   -4.7747    4.6715  -10.8011 N   0  0  0  0  0  0  0  0  0  0  0  0
    6.7660   -2.2378    2.2547 H   0  0  0  0  0  0  0  0  0  0  0  0
    4.6227   -0.5669   -3.4116 H   0  0  0  0  0  0  0  0  0  0  0  0
    8.3950   -1.8144   -5.0970 H   0  0  0  0  0  0  0  0  0  0  0  0
    9.1207   -2.6427   -2.9170 H   0  0  0  0  0  0  0  0  0  0  0  0
    5.2037   -5.8627    2.0370 H   0  0  0  0  0  0  0  0  0  0  0  0
    5.7136   -7.1054   -0.0320 H   0  0  0  0  0  0  0  0  0  0  0  0
    3.3755   -8.3364   -1.6375 H   0  0  0  0  0  0  0  0  0  0  0  0
    2.4638   -7.2143   -2.7259 H   0  0  0  0  0  0  0  0  0  0  0  0
    3.3981   -8.5910   -3.4165 H   0  0  0  0  0  0  0  0  0  0  0  0
    3.2093   -4.4202   -2.2703 H   0  0  0  0  0  0  0  0  0  0  0  0
    2.6693   -3.1904   -0.2044 H   0  0  0  0  0  0  0  0  0  0  0  0
    4.4684   -3.0435    4.7462 H   0  0  0  0  0  0  0  0  0  0  0  0
    3.8653   -4.1254    6.8662 H   0  0  0  0  0  0  0  0  0  0  0  0
    0.3270   -5.3245    8.7735 H   0  0  0  0  0  0  0  0  0  0  0  0
    1.1624   -4.1161    7.7308 H   0  0  0  0  0  0  0  0  0  0  0  0
   -0.0103   -5.2882    6.9958 H   0  0  0  0  0  0  0  0  0  0  0  0
    1.4519   -6.9878    4.7376 H   0  0  0  0  0  0  0  0  0  0  0  0
    2.0728   -5.9218    2.5996 H   0  0  0  0  0  0  0  0  0  0  0  0
    1.4294    1.1366   -0.0355 H   0  0  0  0  0  0  0  0  0  0  0  0
    0.7009    2.4055   -2.0033 H   0  0  0  0  0  0  0  0  0  0  0  0
    1.5831    6.5112   -3.5660 H   0  0  0  0  0  0  0  0  0  0  0  0
    2.3151    5.7521   -2.1041 H   0  0  0  0  0  0  0  0  0  0  0  0
    1.9882    4.7564   -3.5825 H   0  0  0  0  0  0  0  0  0  0  0  0
    0.3497    5.9604    0.3906 H   0  0  0  0  0  0  0  0  0  0  0  0
    1.0393    4.7100    2.3770 H   0  0  0  0  0  0  0  0  0  0  0  0
    1.0703    1.6115    5.1334 H   0  0  0  0  0  0  0  0  0  0  0  0
    2.4221    2.3241    7.0564 H   0  0  0  0  0  0  0  0  0  0  0  0
    6.5790    2.2248    7.9409 H   0  0  0  0  0  0  0  0  0  0  0  0
    6.1999    2.0717    6.1768 H   0  0  0  0  0  0  0  0  0  0  0  0
    5.0573    1.4080    7.4210 H   0  0  0  0  0  0  0  0  0  0  0  0
    5.0514    4.4844    4.4251 H   0  0  0  0  0  0  0  0  0  0  0  0
    3.6948    3.7933    2.4884 H   0  0  0  0  0  0  0  0  0  0  0  0
   -0.6298   -0.1682    5.0584 H   0  0  0  0  0  0  0  0  0  0  0  0
   -1.7663   -1.9469    6.3345 H   0  0  0  0  0  0  0  0  0  0  0  0
   -5.3500   -4.5125    5.6639 H   0  0  0  0  0  0  0  0  0  0  0  0
   -3.7581   -3.9504    5.0227 H   0  0  0  0  0  0  0  0  0  0  0  0
   -5.2938   -3.0990    4.5392 H   0  0  0  0  0  0  0  0  0  0  0  0
   -5.5846   -0.2548    5.2775 H   0  0  0  0  0  0  0  0  0  0  0  0
   -4.4456    1.4996    3.9677 H   0  0  0  0  0  0  0  0  0  0  0  0
   -1.2685    2.4545    6.1590 H   0  0  0  0  0  0  0  0  0  0  0  0
   -0.9993    4.7186    7.0629 H   0  0  0  0  0  0  0  0  0  0  0  0
   -3.1530    8.4692    6.7110 H   0  0  0  0  0  0  0  0  0  0  0  0
   -3.5716    7.2684    5.4321 H   0  0  0  0  0  0  0  0  0  0  0  0
   -3.1565    6.7092    7.1065 H   0  0  0  0  0  0  0  0  0  0  0  0
   -1.5992    6.3881    3.1450 H   0  0  0  0  0  0  0  0  0  0  0  0
   -1.8048    4.1332    2.2044 H   0  0  0  0  0  0  0  0  0  0  0  0
   -5.9158   -0.2669    0.3275 H   0  0  0  0  0  0  0  0  0  0  0  0
   -8.1402   -1.2872    0.2099 H   0  0  0  0  0  0  0  0  0  0  0  0
   -9.7065   -5.0382   -1.3931 H   0  0  0  0  0  0  0  0  0  0  0  0
   -8.1086   -4.6340   -2.1512 H   0  0  0  0  0  0  0  0  0  0  0  0
   -8.4324   -4.2140   -0.4149 H   0  0  0  0  0  0  0  0  0  0  0  0
   -7.4999   -2.2600   -3.9285 H   0  0  0  0  0  0  0  0  0  0  0  0
   -5.2764   -1.2131   -3.8454 H   0  0  0  0  0  0  0  0  0  0  0  0
   -3.4619   -2.7267   -1.8619 H   0  0  0  0  0  0  0  0  0  0  0  0
   -1.6194   -3.7273   -3.1567 H   0  0  0  0  0  0  0  0  0  0  0  0
    1.3515   -2.6407   -2.5996 H   0  0  0  0  0  0  0  0  0  0  0  0
    1.7731   -1.0956   -3.4522 H   0  0  0  0  0  0  0  0  0  0  0  0
    2.6445   -2.6165   -3.8720 H   0  0  0  0  0  0  0  0  0  0  0  0
   -0.4872    0.1672   -4.5881 H   0  0  0  0  0  0  0  0  0  0  0  0
   -2.3098    1.1902   -3.2729 H   0  0  0  0  0  0  0  0  0  0  0  0
   -5.5969    4.7099   -0.4360 H   0  0  0  0  0  0  0  0  0  0  0  0
   -4.4492    7.9544   -3.6207 H   0  0  0  0  0  0  0  0  0  0  0  0
   -3.8811    6.2449   -3.6315 H   0  0  0  0  0  0  0  0  0  0  0  0
   -2.7350    7.5950   -1.8693 H   0  0  0  0  0  0  0  0  0  0  0  0
   -4.3193    8.0183   -1.1275 H   0  0  0  0  0  0  0  0  0  0  0  0
   -3.7322    6.2992   -1.1091 H   0  0  0  0  0  0  0  0  0  0  0  0
   -6.5429    4.5388   -5.5723 H   0  0  0  0  0  0  0  0  0  0  0  0
   -0.6635    2.3552   -5.4462 H   0  0  0  0  0  0  0  0  0  0  0  0
   -0.8470    1.8989   -9.7360 H   0  0  0  0  0  0  0  0  0  0  0  0
   -3.0331    3.0177   -9.7771 H   0  0  0  0  0  0  0  0  0  0  0  0
  1  2  2  3
  2  3  1  0
  3  4  2  0
  3  5  1  0
  5  6  2  0
  6  7  1  0
  7  8  1  0
  7  9  2  0
  9 10  1  0
 10 11  2  0
 11 12  1  0
 12 13  2  3
 13 14  1  0
 14 15  3  0
 13 16  1  0
 16 17  3  0
  1 18  1  0
 18 19  2  0
 19 20  1  0
 20 21  1  0
 21 22  2  0
 22 23  1  0
 23 24  2  0
 24 25  1  0
 25 26  1  0
 24 27  1  0
 27 28  2  0
 20 29  1  0
 29 30  2  0
 30 31  1  0
 31 32  2  0
 32 33  1  0
 33 34  1  0
 32 35  1  0
 35 36  2  0
 19 37  1  0
 37 38  1  0
 38 39  1  0
 39 40  2  0
 40 41  1  0
 41 42  1  0
 42 43  2  0
 43 44  1  0
 44 45  2  0
 45 46  1  0
 46 47  1  0
 45 48  1  0
 48 49  2  0
 41 50  1  0
 50 51  2  0
 51 52  1  0
 52 53  2  0
 53 54  1  0
 54 55  1  0
 53 56  1  0
 56 57  2  0
 40 58  1  0
 58 59  1  0
 39 60  1  0
 60 61  2  0
 61 62  1  0
 62 63  1  0
 63 64  2  0
 64 65  1  0
 65 66  2  0
 66 67  1  0
 67 68  1  0
 66 69  1  0
 69 70  2  0
 62 71  1  0
 71 72  2  0
 72 73  1  0
 73 74  2  0
 74 75  1  0
 75 76  1  0
 74 77  1  0
 77 78  2  0
 61 79  1  0
 79 80  1  0
 80 81  1  0
 81 82  2  0
 82 83  1  0
 83 84  1  0
 84 85  2  0
 85 86  1  0
 86 87  2  0
 87 88  1  0
 88 89  1  0
 87 90  1  0
 90 91  2  0
 83 92  1  0
 92 93  2  0
 93 94  1  0
 94 95  2  0
 95 96  1  0
 96 97  1  0
 95 98  1  0
 98 99  2  0
 82100  1  0
100101  1  0
 81102  1  0
102103  2  0
103104  1  0
104105  1  0
105106  1  0
106107  1  0
104108  2  0
108109  1  0
108110  1  0
110111  2  3
111112  1  0
112113  2  0
112114  1  0
114115  2  0
115116  1  0
116117  1  0
116118  2  0
118119  1  0
119120  2  0
120121  1  0
121122  2  3
122123  1  0
123124  3  0
122125  1  0
125126  3  0
 12  2  1  0
 59 18  1  0
101 60  1  0
109102  1  0
121111  1  0
 11  5  1  0
 28 21  1  0
 36 29  1  0
 58 37  2  0
 70 63  1  0
 78 71  1  0
100 79  2  0
120114  1  0
 49 42  1  0
 57 50  1  0
 91 84  1  0
 99 92  1  0
  1127  1  0
  6128  1  0
  9129  1  0
 10130  1  0
 22131  1  0
 23132  1  0
 26133  1  0
 26134  1  0
 26135  1  0
 27136  1  0
 28137  1  0
 30138  1  0
 31139  1  0
 34140  1  0
 34141  1  0
 34142  1  0
 35143  1  0
 36144  1  0
 43145  1  0
 44146  1  0
 47147  1  0
 47148  1  0
 47149  1  0
 48150  1  0
 49151  1  0
 51152  1  0
 52153  1  0
 55154  1  0
 55155  1  0
 55156  1  0
 56157  1  0
 57158  1  0
 64159  1  0
 65160  1  0
 68161  1  0
 68162  1  0
 68163  1  0
 69164  1  0
 70165  1  0
 72166  1  0
 73167  1  0
 76168  1  0
 76169  1  0
 76170  1  0
 77171  1  0
 78172  1  0
 85173  1  0
 86174  1  0
 89175  1  0
 89176  1  0
 89177  1  0
 90178  1  0
 91179  1  0
 93180  1  0
 94181  1  0
 97182  1  0
 97183  1  0
 97184  1  0
 98185  1  0
 99186  1  0
103187  1  0
106188  1  0
106189  1  0
107190  1  0
107191  1  0
107192  1  0
110193  1  0
115194  1  0
118195  1  0
119196  1  0
M  END

