
     RDKit          3D

252273  0  0  0  0  0  0  0  0999 V2000
   -8.2090   -0.2132   -0.0106 C   0  0  0  0  0  0  0  0  0  0  0  0
   -8.3886    1.1306    0.0518 C   0  0  0  0  0  0  0  0  0  0  0  0
   -9.7266    1.7419   -0.1354 C   0  0  0  0  0  0  0  0  0  0  0  0
  -10.7347    1.1510   -0.6188 O   0  0  0  0  0  0  0  0  0  0  0  0
   -9.6934    3.0900    0.3697 C   0  0  0  0  0  0  0  0  0  0  0  0
  -10.7568    4.0001    0.4124 C   0  0  0  0  0  0  0  0  0  0  0  0
  -10.5253    5.2848    0.9542 C   0  0  0  0  0  0  0  0  0  0  0  0
  -11.9144    6.5771    0.9884 Br  0  0  0  0  0  0  0  0  0  0  0  0
   -9.2688    5.5694    1.4970 C   0  0  0  0  0  0  0  0  0  0  0  0
   -8.2228    4.6360    1.4394 C   0  0  0  0  0  0  0  0  0  0  0  0
   -8.4432    3.3713    0.8535 C   0  0  0  0  0  0  0  0  0  0  0  0
   -7.5063    2.2391    0.5531 C   0  0  0  0  0  0  0  0  0  0  0  0
   -6.1572    2.3741    0.3775 C   0  0  0  0  0  0  0  0  0  0  0  0
   -5.4304    3.5379    0.8390 C   0  0  0  0  0  0  0  0  0  0  0  0
   -4.8286    4.4785    1.1505 N   0  0  0  0  0  0  0  0  0  0  0  0
   -5.4092    1.5347   -0.5031 C   0  0  0  0  0  0  0  0  0  0  0  0
   -4.7602    0.8848   -1.1990 N   0  0  0  0  0  0  0  0  0  0  0  0
   -6.9759   -0.9531    0.2675 C   0  0  0  0  0  0  0  0  0  0  0  0
   -6.1457   -1.5812   -0.6896 C   0  0  0  0  0  0  0  0  0  0  0  0
   -6.4143   -1.6073   -2.1210 N   0  0  0  0  0  0  0  0  0  0  0  0
   -5.4412   -2.0618   -3.0637 C   0  0  0  0  0  0  0  0  0  0  0  0
   -5.1966   -3.4255   -3.2165 C   0  0  0  0  0  0  0  0  0  0  0  0
   -4.2893   -3.8543   -4.1809 C   0  0  0  0  0  0  0  0  0  0  0  0
   -3.6488   -2.9283   -5.0160 C   0  0  0  0  0  0  0  0  0  0  0  0
   -2.4407   -3.5016   -6.2257 S   0  0  0  0  0  0  0  0  0  0  0  0
   -3.4094   -3.0507   -7.6898 C   0  0  0  0  0  0  0  0  0  0  0  0
   -3.9365   -1.5739   -4.8925 C   0  0  0  0  0  0  0  0  0  0  0  0
   -4.8354   -1.1385   -3.9404 C   0  0  0  0  0  0  0  0  0  0  0  0
   -7.7434   -1.3705   -2.6259 C   0  0  0  0  0  0  0  0  0  0  0  0
   -8.0321   -0.1935   -3.3678 C   0  0  0  0  0  0  0  0  0  0  0  0
   -9.3420    0.0321   -3.8019 C   0  0  0  0  0  0  0  0  0  0  0  0
  -10.3573   -0.8780   -3.5022 C   0  0  0  0  0  0  0  0  0  0  0  0
  -12.0545   -0.5211   -3.9350 S   0  0  0  0  0  0  0  0  0  0  0  0
  -11.9945   -1.4459   -5.5493 C   0  0  0  0  0  0  0  0  0  0  0  0
  -10.0607   -2.0647   -2.7912 C   0  0  0  0  0  0  0  0  0  0  0  0
   -8.7546   -2.3021   -2.3936 C   0  0  0  0  0  0  0  0  0  0  0  0
   -5.0197   -2.1452   -0.0506 C   0  0  0  0  0  0  0  0  0  0  0  0
   -3.4801   -2.6521   -0.4942 S   0  0  0  0  0  0  0  0  0  0  0  0
   -2.8303   -2.8275    1.0784 C   0  0  0  0  0  0  0  0  0  0  0  0
   -3.8861   -2.5221    1.9718 C   0  0  0  0  0  0  0  0  0  0  0  0
   -3.8567   -2.7931    3.3882 N   0  0  0  0  0  0  0  0  0  0  0  0
   -4.9856   -3.5195    3.9484 C   0  0  0  0  0  0  0  0  0  0  0  0
   -5.5222   -4.6130    3.2303 C   0  0  0  0  0  0  0  0  0  0  0  0
   -6.7087   -5.2072    3.6821 C   0  0  0  0  0  0  0  0  0  0  0  0
   -7.3624   -4.7224    4.8202 C   0  0  0  0  0  0  0  0  0  0  0  0
   -8.9199   -5.4387    5.3215 S   0  0  0  0  0  0  0  0  0  0  0  0
   -9.9264   -4.3455    4.2742 C   0  0  0  0  0  0  0  0  0  0  0  0
   -6.7939   -3.6830    5.5694 C   0  0  0  0  0  0  0  0  0  0  0  0
   -5.6017   -3.0817    5.1304 C   0  0  0  0  0  0  0  0  0  0  0  0
   -2.8182   -2.3090    4.2462 C   0  0  0  0  0  0  0  0  0  0  0  0
   -2.8150   -0.9771    4.6794 C   0  0  0  0  0  0  0  0  0  0  0  0
   -1.9488   -0.5787    5.6988 C   0  0  0  0  0  0  0  0  0  0  0  0
   -1.0128   -1.4887    6.2197 C   0  0  0  0  0  0  0  0  0  0  0  0
   -0.0186   -1.0514    7.6566 S   0  0  0  0  0  0  0  0  0  0  0  0
    1.2100   -0.0515    6.7629 C   0  0  0  0  0  0  0  0  0  0  0  0
   -0.9510   -2.7946    5.7015 C   0  0  0  0  0  0  0  0  0  0  0  0
   -1.8606   -3.1974    4.7362 C   0  0  0  0  0  0  0  0  0  0  0  0
   -5.0286   -2.0616    1.3113 C   0  0  0  0  0  0  0  0  0  0  0  0
   -6.3812   -1.2159    1.8268 S   0  0  0  0  0  0  0  0  0  0  0  0
   -1.4584   -2.3742    1.3629 C   0  0  0  0  0  0  0  0  0  0  0  0
   -0.2188   -3.0370    1.2420 C   0  0  0  0  0  0  0  0  0  0  0  0
   -0.0554   -4.4359    0.9356 N   0  0  0  0  0  0  0  0  0  0  0  0
    0.6082   -4.8703   -0.2711 C   0  0  0  0  0  0  0  0  0  0  0  0
    0.8361   -6.2600   -0.5169 C   0  0  0  0  0  0  0  0  0  0  0  0
    1.3140   -6.7211   -1.7497 C   0  0  0  0  0  0  0  0  0  0  0  0
    1.7206   -5.7926   -2.7226 C   0  0  0  0  0  0  0  0  0  0  0  0
    2.5688   -6.3567   -4.1916 S   0  0  0  0  0  0  0  0  0  0  0  0
    1.1352   -6.1516   -5.3253 C   0  0  0  0  0  0  0  0  0  0  0  0
    1.5394   -4.4203   -2.5100 C   0  0  0  0  0  0  0  0  0  0  0  0
    0.9361   -3.9755   -1.3134 C   0  0  0  0  0  0  0  0  0  0  0  0
   -0.3406   -5.3864    1.9735 C   0  0  0  0  0  0  0  0  0  0  0  0
    0.7014   -5.8767    2.7824 C   0  0  0  0  0  0  0  0  0  0  0  0
    0.5075   -6.9687    3.6100 C   0  0  0  0  0  0  0  0  0  0  0  0
   -0.7546   -7.5641    3.7006 C   0  0  0  0  0  0  0  0  0  0  0  0
   -0.9427   -9.1416    4.5364 S   0  0  0  0  0  0  0  0  0  0  0  0
   -1.1798   -8.4491    6.2143 C   0  0  0  0  0  0  0  0  0  0  0  0
   -1.8446   -7.0143    3.0082 C   0  0  0  0  0  0  0  0  0  0  0  0
   -1.6258   -5.9423    2.1207 C   0  0  0  0  0  0  0  0  0  0  0  0
    0.8471   -2.1250    1.3690 C   0  0  0  0  0  0  0  0  0  0  0  0
    2.5136   -2.1162    1.1790 S   0  0  0  0  0  0  0  0  0  0  0  0
    2.7087   -0.3960    1.3069 C   0  0  0  0  0  0  0  0  0  0  0  0
    1.4195    0.1449    1.4077 C   0  0  0  0  0  0  0  0  0  0  0  0
    1.0515    1.4787    1.1388 N   0  0  0  0  0  0  0  0  0  0  0  0
    0.5801    1.7621   -0.2034 C   0  0  0  0  0  0  0  0  0  0  0  0
    1.3958    1.4120   -1.3019 C   0  0  0  0  0  0  0  0  0  0  0  0
    0.8892    1.3517   -2.5906 C   0  0  0  0  0  0  0  0  0  0  0  0
   -0.4746    1.5576   -2.8143 C   0  0  0  0  0  0  0  0  0  0  0  0
   -1.1748    1.2985   -4.4392 S   0  0  0  0  0  0  0  0  0  0  0  0
   -0.4984   -0.3905   -4.6681 C   0  0  0  0  0  0  0  0  0  0  0  0
   -1.3021    1.9367   -1.7450 C   0  0  0  0  0  0  0  0  0  0  0  0
   -0.7613    2.0746   -0.4458 C   0  0  0  0  0  0  0  0  0  0  0  0
    1.0060    2.4332    2.2407 C   0  0  0  0  0  0  0  0  0  0  0  0
    0.6540    3.7688    2.0476 C   0  0  0  0  0  0  0  0  0  0  0  0
    0.7293    4.6806    3.1203 C   0  0  0  0  0  0  0  0  0  0  0  0
    1.1949    4.2668    4.3775 C   0  0  0  0  0  0  0  0  0  0  0  0
    1.3232    5.4242    5.7416 S   0  0  0  0  0  0  0  0  0  0  0  0
   -0.2083    4.8994    6.5702 C   0  0  0  0  0  0  0  0  0  0  0  0
    1.5762    2.9422    4.5649 C   0  0  0  0  0  0  0  0  0  0  0  0
    1.4730    2.0265    3.5317 C   0  0  0  0  0  0  0  0  0  0  0  0
    0.4508   -0.8297    1.5125 C   0  0  0  0  0  0  0  0  0  0  0  0
   -1.1877   -0.7160    1.5424 S   0  0  0  0  0  0  0  0  0  0  0  0
    3.9375    0.4247    1.0532 C   0  0  0  0  0  0  0  0  0  0  0  0
    5.2530   -0.0328    0.8176 C   0  0  0  0  0  0  0  0  0  0  0  0
    5.7350   -1.2742    1.2618 N   0  0  0  0  0  0  0  0  0  0  0  0
    6.4113   -2.1149    0.3283 C   0  0  0  0  0  0  0  0  0  0  0  0
    7.7574   -2.4755    0.5415 C   0  0  0  0  0  0  0  0  0  0  0  0
    8.4478   -3.2481   -0.4053 C   0  0  0  0  0  0  0  0  0  0  0  0
    7.7878   -3.6895   -1.5563 C   0  0  0  0  0  0  0  0  0  0  0  0
    8.7100   -4.6032   -2.8260 S   0  0  0  0  0  0  0  0  0  0  0  0
    8.8943   -6.1296   -1.8602 C   0  0  0  0  0  0  0  0  0  0  0  0
    6.4418   -3.3488   -1.7663 C   0  0  0  0  0  0  0  0  0  0  0  0
    5.7789   -2.5444   -0.8332 C   0  0  0  0  0  0  0  0  0  0  0  0
    5.8869   -1.5121    2.6811 C   0  0  0  0  0  0  0  0  0  0  0  0
    5.6673   -2.7889    3.2203 C   0  0  0  0  0  0  0  0  0  0  0  0
    5.8264   -3.0377    4.5872 C   0  0  0  0  0  0  0  0  0  0  0  0
    6.2403   -1.9844    5.4319 C   0  0  0  0  0  0  0  0  0  0  0  0
    6.5628   -2.3257    7.1472 S   0  0  0  0  0  0  0  0  0  0  0  0
    4.9444   -1.7336    7.7432 C   0  0  0  0  0  0  0  0  0  0  0  0
    6.4425   -0.7160    4.9109 C   0  0  0  0  0  0  0  0  0  0  0  0
    6.2572   -0.4643    3.5571 C   0  0  0  0  0  0  0  0  0  0  0  0
    6.0732    1.0156    0.3443 C   0  0  0  0  0  0  0  0  0  0  0  0
    7.6229    1.1536   -0.2225 S   0  0  0  0  0  0  0  0  0  0  0  0
    7.5168    2.7944   -0.7243 C   0  0  0  0  0  0  0  0  0  0  0  0
    6.2163    3.2374   -0.3748 C   0  0  0  0  0  0  0  0  0  0  0  0
    5.6344    4.5077   -0.7017 N   0  0  0  0  0  0  0  0  0  0  0  0
    5.5842    5.4841    0.3597 C   0  0  0  0  0  0  0  0  0  0  0  0
    6.7535    5.8460    1.0895 C   0  0  0  0  0  0  0  0  0  0  0  0
    6.6536    6.6933    2.1862 C   0  0  0  0  0  0  0  0  0  0  0  0
    5.4109    7.2201    2.5698 C   0  0  0  0  0  0  0  0  0  0  0  0
    5.2656    8.2699    4.0162 S   0  0  0  0  0  0  0  0  0  0  0  0
    6.5380    9.5411    3.4662 C   0  0  0  0  0  0  0  0  0  0  0  0
    4.2619    6.9011    1.8351 C   0  0  0  0  0  0  0  0  0  0  0  0
    4.3444    6.0100    0.7792 C   0  0  0  0  0  0  0  0  0  0  0  0
    4.7686    4.6162   -1.8709 C   0  0  0  0  0  0  0  0  0  0  0  0
    4.4684    3.5173   -2.7110 C   0  0  0  0  0  0  0  0  0  0  0  0
    3.7411    3.6846   -3.8811 C   0  0  0  0  0  0  0  0  0  0  0  0
    3.2295    4.9404   -4.2258 C   0  0  0  0  0  0  0  0  0  0  0  0
    2.3221    5.1391   -5.7622 S   0  0  0  0  0  0  0  0  0  0  0  0
    1.0087    3.8660   -5.4793 C   0  0  0  0  0  0  0  0  0  0  0  0
    3.5029    6.0420   -3.4183 C   0  0  0  0  0  0  0  0  0  0  0  0
    4.2795    5.8939   -2.2565 C   0  0  0  0  0  0  0  0  0  0  0  0
    5.4745    2.2269    0.2067 C   0  0  0  0  0  0  0  0  0  0  0  0
    3.9198    2.1117    0.7421 S   0  0  0  0  0  0  0  0  0  0  0  0
    8.6666    3.4825   -1.3750 C   0  0  0  0  0  0  0  0  0  0  0  0
    8.5954    4.0684   -2.5732 C   0  0  0  0  0  0  0  0  0  0  0  0
    7.7141    5.1389   -2.9491 C   0  0  0  0  0  0  0  0  0  0  0  0
    7.3319    6.0615   -2.2055 O   0  0  0  0  0  0  0  0  0  0  0  0
    7.6927    5.2170   -4.3910 C   0  0  0  0  0  0  0  0  0  0  0  0
    6.8775    6.0220   -5.2270 C   0  0  0  0  0  0  0  0  0  0  0  0
    7.0641    5.9071   -6.6005 C   0  0  0  0  0  0  0  0  0  0  0  0
    5.9638    6.9316   -7.7898 Br  0  0  0  0  0  0  0  0  0  0  0  0
    7.9954    4.9972   -7.1195 C   0  0  0  0  0  0  0  0  0  0  0  0
    8.7783    4.2223   -6.2637 C   0  0  0  0  0  0  0  0  0  0  0  0
    8.6032    4.3091   -4.8878 C   0  0  0  0  0  0  0  0  0  0  0  0
    9.2936    3.5823   -3.8000 C   0  0  0  0  0  0  0  0  0  0  0  0
    9.7350    2.3319   -3.9037 C   0  0  0  0  0  0  0  0  0  0  0  0
   10.8699    1.8821   -3.1315 C   0  0  0  0  0  0  0  0  0  0  0  0
   11.7580    1.5195   -2.4868 N   0  0  0  0  0  0  0  0  0  0  0  0
    9.0265    1.3798   -4.7384 C   0  0  0  0  0  0  0  0  0  0  0  0
    8.4068    0.5988   -5.3570 N   0  0  0  0  0  0  0  0  0  0  0  0
   -9.0762   -0.8123   -0.2522 H   0  0  0  0  0  0  0  0  0  0  0  0
  -11.7102    3.7542   -0.0133 H   0  0  0  0  0  0  0  0  0  0  0  0
   -9.0806    6.5488    1.9405 H   0  0  0  0  0  0  0  0  0  0  0  0
   -7.2815    4.8688    1.9061 H   0  0  0  0  0  0  0  0  0  0  0  0
   -5.6620   -4.1616   -2.5561 H   0  0  0  0  0  0  0  0  0  0  0  0
   -4.0932   -4.9062   -4.2637 H   0  0  0  0  0  0  0  0  0  0  0  0
   -2.8879   -3.3997   -8.5949 H   0  0  0  0  0  0  0  0  0  0  0  0
   -4.4310   -3.4778   -7.6220 H   0  0  0  0  0  0  0  0  0  0  0  0
   -3.4717   -1.9207   -7.7697 H   0  0  0  0  0  0  0  0  0  0  0  0
   -3.4984   -0.8610   -5.5681 H   0  0  0  0  0  0  0  0  0  0  0  0
   -5.0329   -0.0742   -3.8472 H   0  0  0  0  0  0  0  0  0  0  0  0
   -7.2752    0.5537   -3.5689 H   0  0  0  0  0  0  0  0  0  0  0  0
   -9.5822    0.9587   -4.3511 H   0  0  0  0  0  0  0  0  0  0  0  0
  -12.9338   -2.0652   -5.6510 H   0  0  0  0  0  0  0  0  0  0  0  0
  -11.9534   -0.7212   -6.4191 H   0  0  0  0  0  0  0  0  0  0  0  0
  -11.1189   -2.1769   -5.5932 H   0  0  0  0  0  0  0  0  0  0  0  0
  -10.8588   -2.7547   -2.5490 H   0  0  0  0  0  0  0  0  0  0  0  0
   -8.5324   -3.2093   -1.8377 H   0  0  0  0  0  0  0  0  0  0  0  0
   -5.0533   -4.9627    2.3183 H   0  0  0  0  0  0  0  0  0  0  0  0
   -7.1473   -6.0122    3.1130 H   0  0  0  0  0  0  0  0  0  0  0  0
   -9.8418   -3.3078    4.6631 H   0  0  0  0  0  0  0  0  0  0  0  0
   -9.5338   -4.3963    3.2235 H   0  0  0  0  0  0  0  0  0  0  0  0
  -10.9732   -4.6990    4.3040 H   0  0  0  0  0  0  0  0  0  0  0  0
   -7.2894   -3.3113    6.4580 H   0  0  0  0  0  0  0  0  0  0  0  0
   -5.2154   -2.2352    5.6747 H   0  0  0  0  0  0  0  0  0  0  0  0
   -3.5747   -0.2961    4.3180 H   0  0  0  0  0  0  0  0  0  0  0  0
   -2.0080    0.4296    6.0817 H   0  0  0  0  0  0  0  0  0  0  0  0
    1.0024    1.0231    6.9636 H   0  0  0  0  0  0  0  0  0  0  0  0
    2.2182   -0.3029    7.1443 H   0  0  0  0  0  0  0  0  0  0  0  0
    1.2010   -0.2332    5.6547 H   0  0  0  0  0  0  0  0  0  0  0  0
   -0.2177   -3.4907    6.0866 H   0  0  0  0  0  0  0  0  0  0  0  0
   -1.8698   -4.2215    4.3921 H   0  0  0  0  0  0  0  0  0  0  0  0
    0.5717   -7.0230    0.2095 H   0  0  0  0  0  0  0  0  0  0  0  0
    1.4377   -7.7942   -1.9095 H   0  0  0  0  0  0  0  0  0  0  0  0
    0.7278   -7.1521   -5.5840 H   0  0  0  0  0  0  0  0  0  0  0  0
    0.3203   -5.5215   -4.8810 H   0  0  0  0  0  0  0  0  0  0  0  0
    1.4769   -5.6508   -6.2653 H   0  0  0  0  0  0  0  0  0  0  0  0
    1.8626   -3.6786   -3.2466 H   0  0  0  0  0  0  0  0  0  0  0  0
    0.6870   -2.9298   -1.2165 H   0  0  0  0  0  0  0  0  0  0  0  0
    1.7030   -5.4763    2.6844 H   0  0  0  0  0  0  0  0  0  0  0  0
    1.3766   -7.4340    4.0840 H   0  0  0  0  0  0  0  0  0  0  0  0
   -0.7488   -9.1710    6.9504 H   0  0  0  0  0  0  0  0  0  0  0  0
   -2.2710   -8.3614    6.4064 H   0  0  0  0  0  0  0  0  0  0  0  0
   -0.6937   -7.4404    6.3110 H   0  0  0  0  0  0  0  0  0  0  0  0
   -2.8323   -7.4673    3.0517 H   0  0  0  0  0  0  0  0  0  0  0  0
   -2.4457   -5.5896    1.5065 H   0  0  0  0  0  0  0  0  0  0  0  0
    2.4166    1.0998   -1.1606 H   0  0  0  0  0  0  0  0  0  0  0  0
    1.5431    1.0867   -3.4154 H   0  0  0  0  0  0  0  0  0  0  0  0
   -1.2375   -1.0525   -5.1741 H   0  0  0  0  0  0  0  0  0  0  0  0
    0.4306   -0.3405   -5.2742 H   0  0  0  0  0  0  0  0  0  0  0  0
   -0.2590   -0.9180   -3.7036 H   0  0  0  0  0  0  0  0  0  0  0  0
   -2.3578    2.1569   -1.9122 H   0  0  0  0  0  0  0  0  0  0  0  0
   -1.4313    2.3159    0.3746 H   0  0  0  0  0  0  0  0  0  0  0  0
    0.3120    4.1468    1.0856 H   0  0  0  0  0  0  0  0  0  0  0  0
    0.4013    5.7223    2.9864 H   0  0  0  0  0  0  0  0  0  0  0  0
   -1.1036    5.1904    5.9614 H   0  0  0  0  0  0  0  0  0  0  0  0
   -0.2463    5.3878    7.5874 H   0  0  0  0  0  0  0  0  0  0  0  0
   -0.2116    3.7904    6.7185 H   0  0  0  0  0  0  0  0  0  0  0  0
    1.9271    2.6230    5.5458 H   0  0  0  0  0  0  0  0  0  0  0  0
    1.8066    1.0059    3.7075 H   0  0  0  0  0  0  0  0  0  0  0  0
    8.3018   -2.1563    1.4130 H   0  0  0  0  0  0  0  0  0  0  0  0
    9.4932   -3.4955   -0.2323 H   0  0  0  0  0  0  0  0  0  0  0  0
    8.7732   -5.9442   -0.7662 H   0  0  0  0  0  0  0  0  0  0  0  0
    9.9144   -6.5234   -2.0258 H   0  0  0  0  0  0  0  0  0  0  0  0
    8.1761   -6.9166   -2.1958 H   0  0  0  0  0  0  0  0  0  0  0  0
    5.9131   -3.6658   -2.6649 H   0  0  0  0  0  0  0  0  0  0  0  0
    4.7570   -2.2326   -1.0104 H   0  0  0  0  0  0  0  0  0  0  0  0
    5.3512   -3.5979    2.5547 H   0  0  0  0  0  0  0  0  0  0  0  0
    5.6594   -4.0322    4.9787 H   0  0  0  0  0  0  0  0  0  0  0  0
    4.9864   -1.5406    8.8375 H   0  0  0  0  0  0  0  0  0  0  0  0
    4.6590   -0.7796    7.2370 H   0  0  0  0  0  0  0  0  0  0  0  0
    4.1732   -2.4918    7.5415 H   0  0  0  0  0  0  0  0  0  0  0  0
    6.7873    0.0913    5.5692 H   0  0  0  0  0  0  0  0  0  0  0  0
    6.4486    0.5441    3.1936 H   0  0  0  0  0  0  0  0  0  0  0  0
    7.7397    5.4284    0.8088 H   0  0  0  0  0  0  0  0  0  0  0  0
    7.5556    6.9816    2.7406 H   0  0  0  0  0  0  0  0  0  0  0  0
    6.3601   10.5306    3.9516 H   0  0  0  0  0  0  0  0  0  0  0  0
    6.4251    9.8292    2.3831 H   0  0  0  0  0  0  0  0  0  0  0  0
    7.6031    9.1844    3.7280 H   0  0  0  0  0  0  0  0  0  0  0  0
    3.2958    7.3142    2.1185 H   0  0  0  0  0  0  0  0  0  0  0  0
    3.4121    5.7199    0.2711 H   0  0  0  0  0  0  0  0  0  0  0  0
    4.8397    2.5191   -2.4792 H   0  0  0  0  0  0  0  0  0  0  0  0
    3.5421    2.8163   -4.5008 H   0  0  0  0  0  0  0  0  0  0  0  0
    0.8423    3.7013   -4.3820 H   0  0  0  0  0  0  0  0  0  0  0  0
    1.3661    2.9263   -5.9828 H   0  0  0  0  0  0  0  0  0  0  0  0
    0.0316    4.1612   -5.9176 H   0  0  0  0  0  0  0  0  0  0  0  0
    3.1186    7.0241   -3.7160 H   0  0  0  0  0  0  0  0  0  0  0  0
    4.5135    6.8082   -1.6903 H   0  0  0  0  0  0  0  0  0  0  0  0
    9.6076    2.9976   -1.0985 H   0  0  0  0  0  0  0  0  0  0  0  0
    6.1628    6.7332   -4.8125 H   0  0  0  0  0  0  0  0  0  0  0  0
    8.1218    4.8858   -8.1881 H   0  0  0  0  0  0  0  0  0  0  0  0
    9.4687    3.5130   -6.6717 H   0  0  0  0  0  0  0  0  0  0  0  0
  1  2  2  3
  2  3  1  0
  3  4  2  0
  3  5  1  0
  5  6  2  0
  6  7  1  0
  7  8  1  0
  7  9  2  0
  9 10  1  0
 10 11  2  0
 11 12  1  0
 12 13  2  3
 13 14  1  0
 14 15  3  0
 13 16  1  0
 16 17  3  0
  1 18  1  0
 18 19  2  0
 19 20  1  0
 20 21  1  0
 21 22  2  0
 22 23  1  0
 23 24  2  0
 24 25  1  0
 25 26  1  0
 24 27  1  0
 27 28  2  0
 20 29  1  0
 29 30  2  0
 30 31  1  0
 31 32  2  0
 32 33  1  0
 33 34  1  0
 32 35  1  0
 35 36  2  0
 19 37  1  0
 37 38  1  0
 38 39  1  0
 39 40  2  0
 40 41  1  0
 41 42  1  0
 42 43  2  0
 43 44  1  0
 44 45  2  0
 45 46  1  0
 46 47  1  0
 45 48  1  0
 48 49  2  0
 41 50  1  0
 50 51  2  0
 51 52  1  0
 52 53  2  0
 53 54  1  0
 54 55  1  0
 53 56  1  0
 56 57  2  0
 40 58  1  0
 58 59  1  0
 39 60  1  0
 60 61  2  0
 61 62  1  0
 62 63  1  0
 63 64  2  0
 64 65  1  0
 65 66  2  0
 66 67  1  0
 67 68  1  0
 66 69  1  0
 69 70  2  0
 62 71  1  0
 71 72  2  0
 72 73  1  0
 73 74  2  0
 74 75  1  0
 75 76  1  0
 74 77  1  0
 77 78  2  0
 61 79  1  0
 79 80  1  0
 80 81  1  0
 81 82  2  0
 82 83  1  0
 83 84  1  0
 84 85  2  0
 85 86  1  0
 86 87  2  0
 87 88  1  0
 88 89  1  0
 87 90  1  0
 90 91  2  0
 83 92  1  0
 92 93  2  0
 93 94  1  0
 94 95  2  0
 95 96  1  0
 96 97  1  0
 95 98  1  0
 98 99  2  0
 82100  1  0
100101  1  0
 81102  1  0
102103  2  0
103104  1  0
104105  1  0
105106  2  0
106107  1  0
107108  2  0
108109  1  0
109110  1  0
108111  1  0
111112  2  0
104113  1  0
113114  2  0
114115  1  0
115116  2  0
116117  1  0
117118  1  0
116119  1  0
119120  2  0
103121  1  0
121122  1  0
122123  1  0
123124  2  0
124125  1  0
125126  1  0
126127  2  0
127128  1  0
128129  2  0
129130  1  0
130131  1  0
129132  1  0
132133  2  0
125134  1  0
134135  2  0
135136  1  0
136137  2  0
137138  1  0
138139  1  0
137140  1  0
140141  2  0
124142  1  0
142143  1  0
123144  1  0
144145  2  3
145146  1  0
146147  2  0
146148  1  0
148149  2  0
149150  1  0
150151  1  0
150152  2  0
152153  1  0
153154  2  0
154155  1  0
155156  2  3
156157  1  0
157158  3  0
156159  1  0
159160  3  0
 12  2  1  0
 59 18  1  0
101 60  1  0
143102  1  0
155145  1  0
 11  5  1  0
 28 21  1  0
 36 29  1  0
 58 37  2  0
 70 63  1  0
 78 71  1  0
100 79  2  0
112105  1  0
120113  1  0
142121  2  0
154148  1  0
 49 42  1  0
 57 50  1  0
 91 84  1  0
 99 92  1  0
133126  1  0
141134  1  0
  1161  1  0
  6162  1  0
  9163  1  0
 10164  1  0
 22165  1  0
 23166  1  0
 26167  1  0
 26168  1  0
 26169  1  0
 27170  1  0
 28171  1  0
 30172  1  0
 31173  1  0
 34174  1  0
 34175  1  0
 34176  1  0
 35177  1  0
 36178  1  0
 43179  1  0
 44180  1  0
 47181  1  0
 47182  1  0
 47183  1  0
 48184  1  0
 49185  1  0
 51186  1  0
 52187  1  0
 55188  1  0
 55189  1  0
 55190  1  0
 56191  1  0
 57192  1  0
 64193  1  0
 65194  1  0
 68195  1  0
 68196  1  0
 68197  1  0
 69198  1  0
 70199  1  0
 72200  1  0
 73201  1  0
 76202  1  0
 76203  1  0
 76204  1  0
 77205  1  0
 78206  1  0
 85207  1  0
 86208  1  0
 89209  1  0
 89210  1  0
 89211  1  0
 90212  1  0
 91213  1  0
 93214  1  0
 94215  1  0
 97216  1  0
 97217  1  0
 97218  1  0
 98219  1  0
 99220  1  0
106221  1  0
107222  1  0
110223  1  0
110224  1  0
110225  1  0
111226  1  0
112227  1  0
114228  1  0
115229  1  0
118230  1  0
118231  1  0
118232  1  0
119233  1  0
120234  1  0
127235  1  0
128236  1  0
131237  1  0
131238  1  0
131239  1  0
132240  1  0
133241  1  0
135242  1  0
136243  1  0
139244  1  0
139245  1  0
139246  1  0
140247  1  0
141248  1  0
144249  1  0
149250  1  0
152251  1  0
153252  1  0
M  END

