
     RDKit          3D

158173  0  0  0  0  0  0  0  0999 V2000
   -1.9996   10.4562   -0.8536 C   0  0  0  0  0  0  0  0  0  0  0  0
   -1.5844   11.2425   -1.8675 C   0  0  0  0  0  0  0  0  0  0  0  0
   -2.5077   12.0520   -2.6579 C   0  0  0  0  0  0  0  0  0  0  0  0
   -3.6830   12.3715   -2.3308 O   0  0  0  0  0  0  0  0  0  0  0  0
   -1.8808   12.3412   -3.9308 C   0  0  0  0  0  0  0  0  0  0  0  0
   -2.4373   12.9605   -5.0516 C   0  0  0  0  0  0  0  0  0  0  0  0
   -1.6647   13.0424   -6.2185 C   0  0  0  0  0  0  0  0  0  0  0  0
   -2.3919   13.8687   -7.7807 Br  0  0  0  0  0  0  0  0  0  0  0  0
   -0.3661   12.5004   -6.2503 C   0  0  0  0  0  0  0  0  0  0  0  0
    0.1715   11.8776   -5.1126 C   0  0  0  0  0  0  0  0  0  0  0  0
   -0.5958   11.8220   -3.9396 C   0  0  0  0  0  0  0  0  0  0  0  0
   -0.2876   11.2280   -2.6101 C   0  0  0  0  0  0  0  0  0  0  0  0
    0.9447   11.1057   -2.0557 C   0  0  0  0  0  0  0  0  0  0  0  0
    1.1231   10.9950   -0.6314 C   0  0  0  0  0  0  0  0  0  0  0  0
    1.2691   10.9156    0.5169 N   0  0  0  0  0  0  0  0  0  0  0  0
    2.1561   11.2641   -2.8144 C   0  0  0  0  0  0  0  0  0  0  0  0
    3.1393   11.3950   -3.4100 N   0  0  0  0  0  0  0  0  0  0  0  0
   -1.3078    9.2391   -0.3818 C   0  0  0  0  0  0  0  0  0  0  0  0
   -0.7732    8.3050   -1.2987 C   0  0  0  0  0  0  0  0  0  0  0  0
   -0.2286    7.1215   -0.8012 C   0  0  0  0  0  0  0  0  0  0  0  0
    0.2892    5.9557   -1.5107 C   0  0  0  0  0  0  0  0  0  0  0  0
    0.3968    5.8208   -2.7599 O   0  0  0  0  0  0  0  0  0  0  0  0
    0.6115    4.9588   -0.4930 C   0  0  0  0  0  0  0  0  0  0  0  0
    0.3222    5.4963    0.7505 C   0  0  0  0  0  0  0  0  0  0  0  0
   -0.2099    6.8504    0.5547 C   0  0  0  0  0  0  0  0  0  0  0  0
   -0.7427    7.7466    1.4840 C   0  0  0  0  0  0  0  0  0  0  0  0
   -1.3019    8.9427    1.0040 C   0  0  0  0  0  0  0  0  0  0  0  0
    0.4464    4.7366    1.9130 C   0  0  0  0  0  0  0  0  0  0  0  0
    0.8589    3.3968    1.7934 C   0  0  0  0  0  0  0  0  0  0  0  0
    1.1051    2.8286    0.5202 C   0  0  0  0  0  0  0  0  0  0  0  0
    0.9940    3.6265   -0.6404 C   0  0  0  0  0  0  0  0  0  0  0  0
    1.2821    1.3702    0.3958 C   0  0  0  0  0  0  0  0  0  0  0  0
    0.3971    0.5128   -0.2763 C   0  0  0  0  0  0  0  0  0  0  0  0
   -0.8157    0.9353   -0.9269 N   0  0  0  0  0  0  0  0  0  0  0  0
   -1.2032    0.3087   -2.1649 C   0  0  0  0  0  0  0  0  0  0  0  0
   -2.4831   -0.2508   -2.3140 C   0  0  0  0  0  0  0  0  0  0  0  0
   -2.8162   -0.9492   -3.4803 C   0  0  0  0  0  0  0  0  0  0  0  0
   -1.8750   -1.0969   -4.5020 C   0  0  0  0  0  0  0  0  0  0  0  0
   -2.2871   -2.0347   -5.9768 S   0  0  0  0  0  0  0  0  0  0  0  0
   -2.8789   -0.5755   -6.8851 C   0  0  0  0  0  0  0  0  0  0  0  0
   -0.6011   -0.5350   -4.3660 C   0  0  0  0  0  0  0  0  0  0  0  0
   -0.2657    0.1673   -3.2048 C   0  0  0  0  0  0  0  0  0  0  0  0
   -1.7498    1.7717   -0.2211 C   0  0  0  0  0  0  0  0  0  0  0  0
   -2.2667    2.9232   -0.8317 C   0  0  0  0  0  0  0  0  0  0  0  0
   -3.1530    3.7507   -0.1355 C   0  0  0  0  0  0  0  0  0  0  0  0
   -3.5453    3.4187    1.1653 C   0  0  0  0  0  0  0  0  0  0  0  0
   -4.7032    4.4631    2.0472 S   0  0  0  0  0  0  0  0  0  0  0  0
   -3.3970    5.4289    2.8731 C   0  0  0  0  0  0  0  0  0  0  0  0
   -3.0435    2.2627    1.7738 C   0  0  0  0  0  0  0  0  0  0  0  0
   -2.1392    1.4488    1.0880 C   0  0  0  0  0  0  0  0  0  0  0  0
    0.6910   -0.8215   -0.0173 C   0  0  0  0  0  0  0  0  0  0  0  0
   -0.1595   -2.2429   -0.2638 S   0  0  0  0  0  0  0  0  0  0  0  0
    0.8815   -3.1852    0.6952 C   0  0  0  0  0  0  0  0  0  0  0  0
    1.8889   -2.3672    1.2416 C   0  0  0  0  0  0  0  0  0  0  0  0
    2.9510   -2.8347    2.0877 N   0  0  0  0  0  0  0  0  0  0  0  0
    2.7289   -2.8599    3.5055 C   0  0  0  0  0  0  0  0  0  0  0  0
    2.5345   -4.0808    4.1702 C   0  0  0  0  0  0  0  0  0  0  0  0
    2.3776   -4.1086    5.5602 C   0  0  0  0  0  0  0  0  0  0  0  0
    2.4531   -2.9202    6.2983 C   0  0  0  0  0  0  0  0  0  0  0  0
    2.3225   -2.9586    8.0887 S   0  0  0  0  0  0  0  0  0  0  0  0
    0.5774   -2.4546    8.0931 C   0  0  0  0  0  0  0  0  0  0  0  0
    2.6625   -1.7053    5.6418 C   0  0  0  0  0  0  0  0  0  0  0  0
    2.7937   -1.6737    4.2498 C   0  0  0  0  0  0  0  0  0  0  0  0
    4.2695   -3.1112    1.5403 C   0  0  0  0  0  0  0  0  0  0  0  0
    4.5023   -3.0773    0.1480 C   0  0  0  0  0  0  0  0  0  0  0  0
    5.7866   -3.2884   -0.3687 C   0  0  0  0  0  0  0  0  0  0  0  0
    6.8573   -3.5493    0.4897 C   0  0  0  0  0  0  0  0  0  0  0  0
    8.5081   -3.7866   -0.1682 S   0  0  0  0  0  0  0  0  0  0  0  0
    8.9597   -2.0312    0.0084 C   0  0  0  0  0  0  0  0  0  0  0  0
    6.6419   -3.6136    1.8680 C   0  0  0  0  0  0  0  0  0  0  0  0
    5.3636   -3.3961    2.3884 C   0  0  0  0  0  0  0  0  0  0  0  0
    1.7417   -1.0438    0.8136 C   0  0  0  0  0  0  0  0  0  0  0  0
    2.3907    0.4321    1.2963 S   0  0  0  0  0  0  0  0  0  0  0  0
    0.5297   -4.5498    1.1138 C   0  0  0  0  0  0  0  0  0  0  0  0
    0.6820   -5.6510    0.2555 C   0  0  0  0  0  0  0  0  0  0  0  0
    1.2194   -5.5774   -0.9940 N   0  0  0  0  0  0  0  0  0  0  0  0
    1.1712   -6.7703   -1.6372 C   0  0  0  0  0  0  0  0  0  0  0  0
    1.5059   -6.9232   -3.0904 C   0  0  0  0  0  0  0  0  0  0  0  0
    1.7913   -8.3708   -3.4911 C   0  0  0  0  0  0  0  0  0  0  0  0
    0.4065   -7.9423   -0.6911 S   0  0  0  0  0  0  0  0  0  0  0  0
    0.1618   -6.9046    0.6026 C   0  0  0  0  0  0  0  0  0  0  0  0
   -0.5917   -7.1210    1.7711 C   0  0  0  0  0  0  0  0  0  0  0  0
   -0.7259   -6.0163    2.6350 C   0  0  0  0  0  0  0  0  0  0  0  0
   -0.1972   -4.7700    2.2932 C   0  0  0  0  0  0  0  0  0  0  0  0
   -0.6970   -3.6435    3.4396 S   0  0  0  0  0  0  0  0  0  0  0  0
   -1.5300   -4.8048    4.3463 C   0  0  0  0  0  0  0  0  0  0  0  0
   -2.2622   -4.5539    5.6283 C   0  0  0  0  0  0  0  0  0  0  0  0
   -3.1705   -3.3331    5.5438 C   0  0  0  0  0  0  0  0  0  0  0  0
   -1.4350   -6.0307    3.7913 N   0  0  0  0  0  0  0  0  0  0  0  0
   -1.3688   -8.3804    1.9522 C   0  0  0  0  0  0  0  0  0  0  0  0
   -2.7057   -8.3675    1.7886 C   0  0  0  0  0  0  0  0  0  0  0  0
   -3.5447   -7.6637    2.7679 C   0  0  0  0  0  0  0  0  0  0  0  0
   -3.5438   -7.8813    4.0088 O   0  0  0  0  0  0  0  0  0  0  0  0
   -4.3632   -6.6773    2.1019 C   0  0  0  0  0  0  0  0  0  0  0  0
   -5.0969   -5.6359    2.6679 C   0  0  0  0  0  0  0  0  0  0  0  0
   -5.6859   -4.6958    1.8082 C   0  0  0  0  0  0  0  0  0  0  0  0
   -6.6803   -3.2402    2.5370 Br  0  0  0  0  0  0  0  0  0  0  0  0
   -5.5117   -4.8023    0.4125 C   0  0  0  0  0  0  0  0  0  0  0  0
   -4.7503   -5.8523   -0.1293 C   0  0  0  0  0  0  0  0  0  0  0  0
   -4.1929   -6.8012    0.7393 C   0  0  0  0  0  0  0  0  0  0  0  0
   -3.2733   -7.9351    0.4748 C   0  0  0  0  0  0  0  0  0  0  0  0
   -3.1029   -8.6000   -0.6894 C   0  0  0  0  0  0  0  0  0  0  0  0
   -3.7294   -8.1936   -1.9182 C   0  0  0  0  0  0  0  0  0  0  0  0
   -4.2169   -7.8810   -2.9182 N   0  0  0  0  0  0  0  0  0  0  0  0
   -2.3298   -9.8196   -0.7400 C   0  0  0  0  0  0  0  0  0  0  0  0
   -1.7080  -10.7948   -0.7796 N   0  0  0  0  0  0  0  0  0  0  0  0
   -2.9673   10.6572   -0.4091 H   0  0  0  0  0  0  0  0  0  0  0  0
   -3.4497   13.3493   -5.0247 H   0  0  0  0  0  0  0  0  0  0  0  0
    0.2147   12.5470   -7.1618 H   0  0  0  0  0  0  0  0  0  0  0  0
    1.1537   11.4318   -5.1771 H   0  0  0  0  0  0  0  0  0  0  0  0
   -0.8236    8.4650   -2.3676 H   0  0  0  0  0  0  0  0  0  0  0  0
   -0.7575    7.5163    2.5402 H   0  0  0  0  0  0  0  0  0  0  0  0
   -1.7449    9.6378    1.7074 H   0  0  0  0  0  0  0  0  0  0  0  0
    0.1859    5.1504    2.8784 H   0  0  0  0  0  0  0  0  0  0  0  0
    0.9014    2.7807    2.6838 H   0  0  0  0  0  0  0  0  0  0  0  0
    1.1376    3.2032   -1.6252 H   0  0  0  0  0  0  0  0  0  0  0  0
   -3.2067   -0.1781   -1.5116 H   0  0  0  0  0  0  0  0  0  0  0  0
   -3.7999   -1.3888   -3.5758 H   0  0  0  0  0  0  0  0  0  0  0  0
   -2.0500    0.1506   -7.0179 H   0  0  0  0  0  0  0  0  0  0  0  0
   -3.7172   -0.0964   -6.3369 H   0  0  0  0  0  0  0  0  0  0  0  0
   -3.2351   -0.8988   -7.8841 H   0  0  0  0  0  0  0  0  0  0  0  0
    0.1305   -0.6415   -5.1581 H   0  0  0  0  0  0  0  0  0  0  0  0
    0.7276    0.5892   -3.1049 H   0  0  0  0  0  0  0  0  0  0  0  0
   -1.9637    3.1882   -1.8377 H   0  0  0  0  0  0  0  0  0  0  0  0
   -3.5395    4.6436   -0.6115 H   0  0  0  0  0  0  0  0  0  0  0  0
   -3.8648    6.2411    3.4721 H   0  0  0  0  0  0  0  0  0  0  0  0
   -2.7289    5.8761    2.1111 H   0  0  0  0  0  0  0  0  0  0  0  0
   -2.8111    4.7738    3.5501 H   0  0  0  0  0  0  0  0  0  0  0  0
   -3.3471    1.9951    2.7759 H   0  0  0  0  0  0  0  0  0  0  0  0
   -1.7505    0.5579    1.5681 H   0  0  0  0  0  0  0  0  0  0  0  0
    2.5063   -5.0065    3.6096 H   0  0  0  0  0  0  0  0  0  0  0  0
    2.2164   -5.0531    6.0621 H   0  0  0  0  0  0  0  0  0  0  0  0
    0.4826   -1.4182    7.7073 H   0  0  0  0  0  0  0  0  0  0  0  0
   -0.0155   -3.1440    7.4666 H   0  0  0  0  0  0  0  0  0  0  0  0
    0.1908   -2.4863    9.1323 H   0  0  0  0  0  0  0  0  0  0  0  0
    2.7311   -0.7813    6.2049 H   0  0  0  0  0  0  0  0  0  0  0  0
    2.9882   -0.7286    3.7626 H   0  0  0  0  0  0  0  0  0  0  0  0
    3.6976   -2.8768   -0.5486 H   0  0  0  0  0  0  0  0  0  0  0  0
    5.9447   -3.2442   -1.4398 H   0  0  0  0  0  0  0  0  0  0  0  0
   10.0149   -1.8898   -0.3057 H   0  0  0  0  0  0  0  0  0  0  0  0
    8.8587   -1.7154    1.0669 H   0  0  0  0  0  0  0  0  0  0  0  0
    8.3068   -1.4048   -0.6315 H   0  0  0  0  0  0  0  0  0  0  0  0
    7.4670   -3.8151    2.5391 H   0  0  0  0  0  0  0  0  0  0  0  0
    5.2447   -3.4356    3.4644 H   0  0  0  0  0  0  0  0  0  0  0  0
    2.4000   -6.3069   -3.3227 H   0  0  0  0  0  0  0  0  0  0  0  0
    0.6542   -6.5456   -3.6933 H   0  0  0  0  0  0  0  0  0  0  0  0
    2.0310   -8.4164   -4.5706 H   0  0  0  0  0  0  0  0  0  0  0  0
    2.6576   -8.7625   -2.9154 H   0  0  0  0  0  0  0  0  0  0  0  0
    0.9087   -9.0147   -3.3043 H   0  0  0  0  0  0  0  0  0  0  0  0
   -2.8817   -5.4442    5.8713 H   0  0  0  0  0  0  0  0  0  0  0  0
   -1.5269   -4.4249    6.4433 H   0  0  0  0  0  0  0  0  0  0  0  0
   -3.9637   -3.4969    4.7837 H   0  0  0  0  0  0  0  0  0  0  0  0
   -2.5838   -2.4318    5.2790 H   0  0  0  0  0  0  0  0  0  0  0  0
   -3.6426   -3.1584    6.5305 H   0  0  0  0  0  0  0  0  0  0  0  0
   -0.8644   -9.2508    1.5594 H   0  0  0  0  0  0  0  0  0  0  0  0
   -5.1900   -5.5444    3.7425 H   0  0  0  0  0  0  0  0  0  0  0  0
   -5.9348   -4.0530   -0.2440 H   0  0  0  0  0  0  0  0  0  0  0  0
   -4.5664   -5.8701   -1.1920 H   0  0  0  0  0  0  0  0  0  0  0  0
  1  2  2  3
  2  3  1  0
  3  4  2  0
  3  5  1  0
  5  6  2  0
  6  7  1  0
  7  8  1  0
  7  9  2  0
  9 10  1  0
 10 11  2  0
 11 12  1  0
 12 13  2  3
 13 14  1  0
 14 15  3  0
 13 16  1  0
 16 17  3  0
  1 18  1  0
 18 19  2  0
 19 20  1  0
 20 21  1  0
 21 22  2  0
 21 23  1  0
 23 24  2  0
 24 25  1  0
 25 26  1  0
 26 27  2  0
 24 28  1  0
 28 29  2  0
 29 30  1  0
 30 31  2  0
 30 32  1  0
 32 33  2  0
 33 34  1  0
 34 35  1  0
 35 36  2  0
 36 37  1  0
 37 38  2  0
 38 39  1  0
 39 40  1  0
 38 41  1  0
 41 42  2  0
 34 43  1  0
 43 44  2  0
 44 45  1  0
 45 46  2  0
 46 47  1  0
 47 48  1  0
 46 49  1  0
 49 50  2  0
 33 51  1  0
 51 52  1  0
 52 53  1  0
 53 54  2  0
 54 55  1  0
 55 56  1  0
 56 57  2  0
 57 58  1  0
 58 59  2  0
 59 60  1  0
 60 61  1  0
 59 62  1  0
 62 63  2  0
 55 64  1  0
 64 65  2  0
 65 66  1  0
 66 67  2  0
 67 68  1  0
 68 69  1  0
 67 70  1  0
 70 71  2  0
 54 72  1  0
 72 73  1  0
 53 74  1  0
 74 75  2  0
 75 76  1  0
 76 77  2  0
 77 78  1  0
 78 79  1  0
 77 80  1  0
 80 81  1  0
 81 82  2  0
 82 83  1  0
 83 84  2  0
 84 85  1  0
 85 86  1  0
 86 87  1  0
 87 88  1  0
 86 89  2  0
 82 90  1  0
 90 91  2  3
 91 92  1  0
 92 93  2  0
 92 94  1  0
 94 95  2  0
 95 96  1  0
 96 97  1  0
 96 98  2  0
 98 99  1  0
 99100  2  0
100101  1  0
101102  2  3
102103  1  0
103104  3  0
102105  1  0
105106  3  0
 12  2  1  0
 27 18  1  0
 73 32  1  0
 84 74  1  0
101 91  1  0
 11  5  1  0
 25 20  2  0
 42 35  1  0
 50 43  1  0
 72 51  2  0
 81 75  1  0
 89 83  1  0
100 94  1  0
 31 23  1  0
 63 56  1  0
 71 64  1  0
  1107  1  0
  6108  1  0
  9109  1  0
 10110  1  0
 19111  1  0
 26112  1  0
 27113  1  0
 28114  1  0
 29115  1  0
 31116  1  0
 36117  1  0
 37118  1  0
 40119  1  0
 40120  1  0
 40121  1  0
 41122  1  0
 42123  1  0
 44124  1  0
 45125  1  0
 48126  1  0
 48127  1  0
 48128  1  0
 49129  1  0
 50130  1  0
 57131  1  0
 58132  1  0
 61133  1  0
 61134  1  0
 61135  1  0
 62136  1  0
 63137  1  0
 65138  1  0
 66139  1  0
 69140  1  0
 69141  1  0
 69142  1  0
 70143  1  0
 71144  1  0
 78145  1  0
 78146  1  0
 79147  1  0
 79148  1  0
 79149  1  0
 87150  1  0
 87151  1  0
 88152  1  0
 88153  1  0
 88154  1  0
 90155  1  0
 95156  1  0
 98157  1  0
 99158  1  0
M  END

