
     RDKit          3D

144159  0  0  0  0  0  0  0  0999 V2000
   -8.6902   -2.4382    2.3008 C   0  0  0  0  0  0  0  0  0  0  0  0
   -7.8842   -2.9548    3.2486 C   0  0  0  0  0  0  0  0  0  0  0  0
   -7.8345   -4.3955    3.5138 C   0  0  0  0  0  0  0  0  0  0  0  0
   -8.7835   -5.2114    3.3607 O   0  0  0  0  0  0  0  0  0  0  0  0
   -6.4584   -4.7530    3.8217 C   0  0  0  0  0  0  0  0  0  0  0  0
   -5.8871   -6.0253    3.9196 C   0  0  0  0  0  0  0  0  0  0  0  0
   -4.4932   -6.1254    4.0616 C   0  0  0  0  0  0  0  0  0  0  0  0
   -3.6592   -7.8461    4.1616 Br  0  0  0  0  0  0  0  0  0  0  0  0
   -3.6962   -4.9657    4.0905 C   0  0  0  0  0  0  0  0  0  0  0  0
   -4.2847   -3.6974    3.9743 C   0  0  0  0  0  0  0  0  0  0  0  0
   -5.6811   -3.6038    3.8546 C   0  0  0  0  0  0  0  0  0  0  0  0
   -6.5426   -2.4235    3.6236 C   0  0  0  0  0  0  0  0  0  0  0  0
   -6.2727   -1.1313    3.9207 C   0  0  0  0  0  0  0  0  0  0  0  0
   -4.9679   -0.6668    4.3203 C   0  0  0  0  0  0  0  0  0  0  0  0
   -3.9262   -0.2558    4.6301 N   0  0  0  0  0  0  0  0  0  0  0  0
   -7.3228   -0.1440    3.9679 C   0  0  0  0  0  0  0  0  0  0  0  0
   -8.1623    0.6531    4.0219 N   0  0  0  0  0  0  0  0  0  0  0  0
   -8.1479   -1.5363    1.2612 C   0  0  0  0  0  0  0  0  0  0  0  0
   -6.9858   -1.9410    0.5722 C   0  0  0  0  0  0  0  0  0  0  0  0
   -6.3514   -1.0213   -0.2448 C   0  0  0  0  0  0  0  0  0  0  0  0
   -5.0191   -1.1008   -0.8091 C   0  0  0  0  0  0  0  0  0  0  0  0
   -4.2438   -2.0921   -0.7684 O   0  0  0  0  0  0  0  0  0  0  0  0
   -4.7173    0.2196   -1.3274 C   0  0  0  0  0  0  0  0  0  0  0  0
   -5.8139    1.0413   -1.1325 C   0  0  0  0  0  0  0  0  0  0  0  0
   -6.8459    0.2600   -0.4344 C   0  0  0  0  0  0  0  0  0  0  0  0
   -8.0385    0.6604    0.1715 C   0  0  0  0  0  0  0  0  0  0  0  0
   -8.7055   -0.2597    1.0139 C   0  0  0  0  0  0  0  0  0  0  0  0
   -5.7305    2.4134   -1.3916 C   0  0  0  0  0  0  0  0  0  0  0  0
   -4.4964    2.9352   -1.8357 C   0  0  0  0  0  0  0  0  0  0  0  0
   -3.3673    2.0935   -1.9827 C   0  0  0  0  0  0  0  0  0  0  0  0
   -3.4842    0.7239   -1.7039 C   0  0  0  0  0  0  0  0  0  0  0  0
   -2.0203    2.6641   -2.1253 C   0  0  0  0  0  0  0  0  0  0  0  0
   -1.0267    2.2769   -3.0481 C   0  0  0  0  0  0  0  0  0  0  0  0
   -1.2322    1.4347   -4.1975 N   0  0  0  0  0  0  0  0  0  0  0  0
   -0.8414    1.9530   -5.4859 C   0  0  0  0  0  0  0  0  0  0  0  0
   -1.1293    3.2859   -5.8252 C   0  0  0  0  0  0  0  0  0  0  0  0
   -0.6315    3.8440   -7.0062 C   0  0  0  0  0  0  0  0  0  0  0  0
    0.1730    3.0744   -7.8561 C   0  0  0  0  0  0  0  0  0  0  0  0
    0.8985    3.8158   -9.3268 S   0  0  0  0  0  0  0  0  0  0  0  0
    2.3821    4.3757   -8.4347 C   0  0  0  0  0  0  0  0  0  0  0  0
    0.4372    1.7382   -7.5457 C   0  0  0  0  0  0  0  0  0  0  0  0
   -0.0659    1.1806   -6.3683 C   0  0  0  0  0  0  0  0  0  0  0  0
   -1.4102    0.0158   -4.0235 C   0  0  0  0  0  0  0  0  0  0  0  0
   -0.5390   -0.7253   -3.2012 C   0  0  0  0  0  0  0  0  0  0  0  0
   -0.6560   -2.1122   -3.1185 C   0  0  0  0  0  0  0  0  0  0  0  0
   -1.6442   -2.7815   -3.8513 C   0  0  0  0  0  0  0  0  0  0  0  0
   -1.7305   -4.5759   -3.8059 S   0  0  0  0  0  0  0  0  0  0  0  0
   -2.7235   -4.6299   -2.2897 C   0  0  0  0  0  0  0  0  0  0  0  0
   -2.5360   -2.0483   -4.6431 C   0  0  0  0  0  0  0  0  0  0  0  0
   -2.4151   -0.6563   -4.7388 C   0  0  0  0  0  0  0  0  0  0  0  0
    0.2350    2.7062   -2.6494 C   0  0  0  0  0  0  0  0  0  0  0  0
    1.7649    2.1357   -3.0305 S   0  0  0  0  0  0  0  0  0  0  0  0
    2.4986    2.6711   -1.5859 C   0  0  0  0  0  0  0  0  0  0  0  0
    1.5231    3.3442   -0.8224 C   0  0  0  0  0  0  0  0  0  0  0  0
    1.6795    3.7574    0.5470 N   0  0  0  0  0  0  0  0  0  0  0  0
    1.3554    5.1242    0.8750 C   0  0  0  0  0  0  0  0  0  0  0  0
    1.8229    6.1744    0.0654 C   0  0  0  0  0  0  0  0  0  0  0  0
    1.4349    7.4913    0.3155 C   0  0  0  0  0  0  0  0  0  0  0  0
    0.5595    7.7756    1.3697 C   0  0  0  0  0  0  0  0  0  0  0  0
   -0.0012    9.4545    1.6468 S   0  0  0  0  0  0  0  0  0  0  0  0
   -1.2602    9.3706    0.3340 C   0  0  0  0  0  0  0  0  0  0  0  0
    0.0989    6.7383    2.1899 C   0  0  0  0  0  0  0  0  0  0  0  0
    0.4959    5.4219    1.9474 C   0  0  0  0  0  0  0  0  0  0  0  0
    1.9446    2.7863    1.5834 C   0  0  0  0  0  0  0  0  0  0  0  0
    2.6991    3.1424    2.7139 C   0  0  0  0  0  0  0  0  0  0  0  0
    2.9269    2.2170    3.7349 C   0  0  0  0  0  0  0  0  0  0  0  0
    2.4074    0.9243    3.6366 C   0  0  0  0  0  0  0  0  0  0  0  0
    2.6899   -0.2604    4.9567 S   0  0  0  0  0  0  0  0  0  0  0  0
    1.0811    0.0469    5.7448 C   0  0  0  0  0  0  0  0  0  0  0  0
    1.6884    0.5469    2.4973 C   0  0  0  0  0  0  0  0  0  0  0  0
    1.4471    1.4728    1.4807 C   0  0  0  0  0  0  0  0  0  0  0  0
    0.2800    3.3441   -1.4547 C   0  0  0  0  0  0  0  0  0  0  0  0
   -1.2699    3.4657   -0.8258 S   0  0  0  0  0  0  0  0  0  0  0  0
    3.7685    2.1176   -1.0501 C   0  0  0  0  0  0  0  0  0  0  0  0
    4.0621    0.7453   -1.1799 C   0  0  0  0  0  0  0  0  0  0  0  0
    5.1483    0.1568   -0.4856 C   0  0  0  0  0  0  0  0  0  0  0  0
    5.3054   -1.2532   -0.7096 N   0  0  0  0  0  0  0  0  0  0  0  0
    4.0683   -1.5393   -1.6698 S   0  0  0  0  0  4  0  0  0  0  0  0
    3.2837   -0.1820   -1.9476 N   0  0  0  0  0  0  0  0  0  0  0  0
    5.9299    0.8985    0.4127 C   0  0  0  0  0  0  0  0  0  0  0  0
    5.7165    2.2862    0.4699 C   0  0  0  0  0  0  0  0  0  0  0  0
    6.4749    3.1169    1.2284 N   0  0  0  0  0  0  0  0  0  0  0  0
    5.7606    4.5705    0.9010 S   0  0  0  0  0  0  0  0  0  0  0  0
    4.5254    4.2402   -0.1497 N   0  0  0  0  0  0  0  0  0  0  0  0
    4.6474    2.8926   -0.2699 C   0  0  0  0  0  0  0  0  0  0  0  0
    6.9754    0.2589    1.2434 C   0  0  0  0  0  0  0  0  0  0  0  0
    6.7660   -0.8331    2.0084 C   0  0  0  0  0  0  0  0  0  0  0  0
    5.4637   -1.4477    2.3027 C   0  0  0  0  0  0  0  0  0  0  0  0
    4.3408   -0.9669    1.9923 O   0  0  0  0  0  0  0  0  0  0  0  0
    5.6550   -2.5618    3.2027 C   0  0  0  0  0  0  0  0  0  0  0  0
    4.6915   -3.3968    3.7765 C   0  0  0  0  0  0  0  0  0  0  0  0
    3.0240   -3.3733    3.1994 Cl  0  0  0  0  0  0  0  0  0  0  0  0
    5.0832   -4.2776    4.8045 C   0  0  0  0  0  0  0  0  0  0  0  0
    3.8999   -5.3484    5.5451 Cl  0  0  0  0  0  0  0  0  0  0  0  0
    6.4201   -4.2600    5.2702 C   0  0  0  0  0  0  0  0  0  0  0  0
    6.8762   -5.2741    6.6466 Cl  0  0  0  0  0  0  0  0  0  0  0  0
    7.3791   -3.4034    4.6741 C   0  0  0  0  0  0  0  0  0  0  0  0
    8.9360   -3.1737    5.4747 Cl  0  0  0  0  0  0  0  0  0  0  0  0
    6.9958   -2.6410    3.5502 C   0  0  0  0  0  0  0  0  0  0  0  0
    7.7812   -1.6647    2.7336 C   0  0  0  0  0  0  0  0  0  0  0  0
    9.0841   -1.8130    2.3704 C   0  0  0  0  0  0  0  0  0  0  0  0
    9.7904   -3.0482    2.5751 C   0  0  0  0  0  0  0  0  0  0  0  0
   10.3692   -4.0482    2.7298 N   0  0  0  0  0  0  0  0  0  0  0  0
    9.8118   -0.8181    1.6215 C   0  0  0  0  0  0  0  0  0  0  0  0
   10.4091   -0.0205    1.0411 N   0  0  0  0  0  0  0  0  0  0  0  0
   -9.6136   -2.9522    2.0650 H   0  0  0  0  0  0  0  0  0  0  0  0
   -6.5012   -6.9180    3.8459 H   0  0  0  0  0  0  0  0  0  0  0  0
   -2.6181   -5.0519    4.1694 H   0  0  0  0  0  0  0  0  0  0  0  0
   -3.6441   -2.8266    3.9468 H   0  0  0  0  0  0  0  0  0  0  0  0
   -6.5300   -2.9081    0.7566 H   0  0  0  0  0  0  0  0  0  0  0  0
   -8.4125    1.6680    0.0497 H   0  0  0  0  0  0  0  0  0  0  0  0
   -9.6046    0.0464    1.5330 H   0  0  0  0  0  0  0  0  0  0  0  0
   -6.5720    3.0715   -1.2027 H   0  0  0  0  0  0  0  0  0  0  0  0
   -4.4003    4.0023   -1.9889 H   0  0  0  0  0  0  0  0  0  0  0  0
   -2.6206    0.0782   -1.6728 H   0  0  0  0  0  0  0  0  0  0  0  0
   -1.7243    3.9017   -5.1603 H   0  0  0  0  0  0  0  0  0  0  0  0
   -0.8508    4.8754   -7.2458 H   0  0  0  0  0  0  0  0  0  0  0  0
    3.1004    4.8290   -9.1521 H   0  0  0  0  0  0  0  0  0  0  0  0
    2.8807    3.5180   -7.9292 H   0  0  0  0  0  0  0  0  0  0  0  0
    2.0988    5.1356   -7.6786 H   0  0  0  0  0  0  0  0  0  0  0  0
    1.0612    1.1423   -8.1978 H   0  0  0  0  0  0  0  0  0  0  0  0
    0.1974    0.1557   -6.1294 H   0  0  0  0  0  0  0  0  0  0  0  0
    0.2352   -0.2323   -2.6342 H   0  0  0  0  0  0  0  0  0  0  0  0
    0.0366   -2.6711   -2.5003 H   0  0  0  0  0  0  0  0  0  0  0  0
   -2.2243   -4.0578   -1.4815 H   0  0  0  0  0  0  0  0  0  0  0  0
   -2.8338   -5.6824   -1.9626 H   0  0  0  0  0  0  0  0  0  0  0  0
   -3.7312   -4.2056   -2.4848 H   0  0  0  0  0  0  0  0  0  0  0  0
   -3.3074   -2.5585   -5.2052 H   0  0  0  0  0  0  0  0  0  0  0  0
   -3.0849   -0.1051   -5.3797 H   0  0  0  0  0  0  0  0  0  0  0  0
    2.4792    5.9722   -0.7719 H   0  0  0  0  0  0  0  0  0  0  0  0
    1.7969    8.2891   -0.3215 H   0  0  0  0  0  0  0  0  0  0  0  0
   -1.8645   10.3043    0.3522 H   0  0  0  0  0  0  0  0  0  0  0  0
   -1.9357    8.5019    0.4896 H   0  0  0  0  0  0  0  0  0  0  0  0
   -0.7638    9.2894   -0.6524 H   0  0  0  0  0  0  0  0  0  0  0  0
   -0.5779    6.9527    3.0080 H   0  0  0  0  0  0  0  0  0  0  0  0
    0.1070    4.6272    2.5739 H   0  0  0  0  0  0  0  0  0  0  0  0
    3.1193    4.1346    2.7975 H   0  0  0  0  0  0  0  0  0  0  0  0
    3.4919    2.5132    4.6084 H   0  0  0  0  0  0  0  0  0  0  0  0
    1.0016    1.1134    6.0420 H   0  0  0  0  0  0  0  0  0  0  0  0
    0.2568   -0.2113    5.0462 H   0  0  0  0  0  0  0  0  0  0  0  0
    0.9969   -0.5902    6.6486 H   0  0  0  0  0  0  0  0  0  0  0  0
    1.2925   -0.4582    2.4115 H   0  0  0  0  0  0  0  0  0  0  0  0
    0.8588    1.1680    0.6237 H   0  0  0  0  0  0  0  0  0  0  0  0
    7.9248    0.7621    1.2735 H   0  0  0  0  0  0  0  0  0  0  0  0
  1  2  2  3
  2  3  1  0
  3  4  2  0
  3  5  1  0
  5  6  2  0
  6  7  1  0
  7  8  1  0
  7  9  2  0
  9 10  1  0
 10 11  2  0
 11 12  1  0
 12 13  2  3
 13 14  1  0
 14 15  3  0
 13 16  1  0
 16 17  3  0
  1 18  1  0
 18 19  2  0
 19 20  1  0
 20 21  1  0
 21 22  2  0
 21 23  1  0
 23 24  2  0
 24 25  1  0
 25 26  1  0
 26 27  2  0
 24 28  1  0
 28 29  2  0
 29 30  1  0
 30 31  2  0
 30 32  1  0
 32 33  2  0
 33 34  1  0
 34 35  1  0
 35 36  2  0
 36 37  1  0
 37 38  2  0
 38 39  1  0
 39 40  1  0
 38 41  1  0
 41 42  2  0
 34 43  1  0
 43 44  2  0
 44 45  1  0
 45 46  2  0
 46 47  1  0
 47 48  1  0
 46 49  1  0
 49 50  2  0
 33 51  1  0
 51 52  1  0
 52 53  1  0
 53 54  2  0
 54 55  1  0
 55 56  1  0
 56 57  2  0
 57 58  1  0
 58 59  2  0
 59 60  1  0
 60 61  1  0
 59 62  1  0
 62 63  2  0
 55 64  1  0
 64 65  2  0
 65 66  1  0
 66 67  2  0
 67 68  1  0
 68 69  1  0
 67 70  1  0
 70 71  2  0
 54 72  1  0
 72 73  1  0
 53 74  1  0
 74 75  2  0
 75 76  1  0
 76 77  1  0
 77 78  2  0
 78 79  2  0
 76 80  2  0
 80 81  1  0
 81 82  2  0
 82 83  1  0
 83 84  1  0
 84 85  2  0
 80 86  1  0
 86 87  2  3
 87 88  1  0
 88 89  2  0
 88 90  1  0
 90 91  2  0
 91 92  1  0
 91 93  1  0
 93 94  1  0
 93 95  2  0
 95 96  1  0
 95 97  1  0
 97 98  1  0
 97 99  2  0
 99100  1  0
100101  2  3
101102  1  0
102103  3  0
101104  1  0
104105  3  0
 12  2  1  0
 27 18  1  0
 73 32  1  0
 85 74  1  0
100 87  1  0
 11  5  1  0
 25 20  2  0
 42 35  1  0
 50 43  1  0
 72 51  2  0
 79 75  1  0
 85 81  1  0
 99 90  1  0
 31 23  1  0
 63 56  1  0
 71 64  1  0
  1106  1  0
  6107  1  0
  9108  1  0
 10109  1  0
 19110  1  0
 26111  1  0
 27112  1  0
 28113  1  0
 29114  1  0
 31115  1  0
 36116  1  0
 37117  1  0
 40118  1  0
 40119  1  0
 40120  1  0
 41121  1  0
 42122  1  0
 44123  1  0
 45124  1  0
 48125  1  0
 48126  1  0
 48127  1  0
 49128  1  0
 50129  1  0
 57130  1  0
 58131  1  0
 61132  1  0
 61133  1  0
 61134  1  0
 62135  1  0
 63136  1  0
 65137  1  0
 66138  1  0
 69139  1  0
 69140  1  0
 69141  1  0
 70142  1  0
 71143  1  0
 86144  1  0
M  END

