
     RDKit          3D

200220  0  0  0  0  0  0  0  0999 V2000
    6.5574    2.1970    1.3863 C   0  0  0  0  0  0  0  0  0  0  0  0
    7.5182    1.2949    1.6554 C   0  0  0  0  0  0  0  0  0  0  0  0
    8.1091    1.0360    2.9713 C   0  0  0  0  0  0  0  0  0  0  0  0
    8.2738    1.8853    3.8807 O   0  0  0  0  0  0  0  0  0  0  0  0
    8.5798   -0.3381    2.9838 C   0  0  0  0  0  0  0  0  0  0  0  0
    8.9737   -1.0914    4.0970 C   0  0  0  0  0  0  0  0  0  0  0  0
    9.1334   -2.4705    3.9445 C   0  0  0  0  0  0  0  0  0  0  0  0
    9.6396   -3.5343    5.4506 Br  0  0  0  0  0  0  0  0  0  0  0  0
    8.8426   -3.0869    2.7152 C   0  0  0  0  0  0  0  0  0  0  0  0
    8.4491   -2.3113    1.6089 C   0  0  0  0  0  0  0  0  0  0  0  0
    8.3539   -0.9200    1.7483 C   0  0  0  0  0  0  0  0  0  0  0  0
    7.8393    0.1094    0.8051 C   0  0  0  0  0  0  0  0  0  0  0  0
    7.8247    0.0349   -0.5481 C   0  0  0  0  0  0  0  0  0  0  0  0
    7.5344    1.1649   -1.3913 C   0  0  0  0  0  0  0  0  0  0  0  0
    7.3094    2.0656   -2.0821 N   0  0  0  0  0  0  0  0  0  0  0  0
    8.1996   -1.1636   -1.2665 C   0  0  0  0  0  0  0  0  0  0  0  0
    8.4990   -2.1263   -1.8439 N   0  0  0  0  0  0  0  0  0  0  0  0
    5.6583    2.7986    2.3925 C   0  0  0  0  0  0  0  0  0  0  0  0
    4.6068    3.6424    1.9976 C   0  0  0  0  0  0  0  0  0  0  0  0
    4.7017    4.5416    0.8745 N   0  0  0  0  0  0  0  0  0  0  0  0
    3.5717    4.8524    0.0569 C   0  0  0  0  0  0  0  0  0  0  0  0
    3.2484    4.0371   -1.0368 C   0  0  0  0  0  0  0  0  0  0  0  0
    2.1725    4.3757   -1.8664 C   0  0  0  0  0  0  0  0  0  0  0  0
    1.3997    5.5227   -1.5938 C   0  0  0  0  0  0  0  0  0  0  0  0
    0.2890    5.9334   -2.5216 C   0  0  0  0  0  0  0  0  0  0  0  0
    1.7264    6.3323   -0.4934 C   0  0  0  0  0  0  0  0  0  0  0  0
    2.8056    5.9980    0.3247 C   0  0  0  0  0  0  0  0  0  0  0  0
    5.8486    5.4029    0.8145 C   0  0  0  0  0  0  0  0  0  0  0  0
    6.7367    5.3374   -0.2743 C   0  0  0  0  0  0  0  0  0  0  0  0
    7.8703    6.1533   -0.3021 C   0  0  0  0  0  0  0  0  0  0  0  0
    8.1427    7.0219    0.7639 C   0  0  0  0  0  0  0  0  0  0  0  0
    9.3652    7.8858    0.7345 C   0  0  0  0  0  0  0  0  0  0  0  0
    7.2527    7.0845    1.8536 C   0  0  0  0  0  0  0  0  0  0  0  0
    6.1226    6.2733    1.8795 C   0  0  0  0  0  0  0  0  0  0  0  0
    3.5091    3.5629    2.8661 C   0  0  0  0  0  0  0  0  0  0  0  0
    1.8709    3.6603    2.5584 S   0  0  0  0  0  0  0  0  0  0  0  0
    1.3668    2.6641    3.8421 C   0  0  0  0  0  0  0  0  0  0  0  0
    2.5183    2.2717    4.5324 C   0  0  0  0  0  0  0  0  0  0  0  0
    2.5041    1.7613    5.8819 N   0  0  0  0  0  0  0  0  0  0  0  0
    2.9906    2.6225    6.9338 C   0  0  0  0  0  0  0  0  0  0  0  0
    2.6811    3.9958    6.9266 C   0  0  0  0  0  0  0  0  0  0  0  0
    3.1719    4.8406    7.9278 C   0  0  0  0  0  0  0  0  0  0  0  0
    3.9703    4.3266    8.9585 C   0  0  0  0  0  0  0  0  0  0  0  0
    4.5270    5.2526   10.0040 C   0  0  0  0  0  0  0  0  0  0  0  0
    4.2838    2.9551    8.9690 C   0  0  0  0  0  0  0  0  0  0  0  0
    3.7963    2.1100    7.9649 C   0  0  0  0  0  0  0  0  0  0  0  0
    1.8620    0.5052    6.1774 C   0  0  0  0  0  0  0  0  0  0  0  0
    1.9951   -0.5858    5.3012 C   0  0  0  0  0  0  0  0  0  0  0  0
    1.3537   -1.7994    5.5811 C   0  0  0  0  0  0  0  0  0  0  0  0
    0.5661   -1.9323    6.7354 C   0  0  0  0  0  0  0  0  0  0  0  0
   -0.0791   -3.2496    7.0608 C   0  0  0  0  0  0  0  0  0  0  0  0
    0.4540   -0.8536    7.6241 C   0  0  0  0  0  0  0  0  0  0  0  0
    1.0933    0.3567    7.3446 C   0  0  0  0  0  0  0  0  0  0  0  0
    3.6845    2.7585    3.9414 C   0  0  0  0  0  0  0  0  0  0  0  0
    5.1840    2.0210    3.8401 S   0  0  0  0  0  0  0  0  0  0  0  0
    0.2889    1.6982    3.5826 C   0  0  0  0  0  0  0  0  0  0  0  0
    0.3073    0.6634    2.2727 S   0  0  0  0  0  0  0  0  0  0  0  0
   -1.1997   -0.0565    2.5070 C   0  0  0  0  0  0  0  0  0  0  0  0
   -1.7313    0.5312    3.6614 C   0  0  0  0  0  0  0  0  0  0  0  0
   -0.9052    1.5014    4.2476 C   0  0  0  0  0  0  0  0  0  0  0  0
   -1.3155    2.1695    5.4055 O   0  0  0  0  0  0  0  0  0  0  0  0
   -2.6830    2.0886    5.8181 C   0  0  0  0  0  0  0  0  0  0  0  0
   -3.2511    0.6697    5.5743 C   0  0  0  0  0  0  0  0  0  0  0  0
   -2.9660    0.2271    4.2413 O   0  0  0  0  0  0  0  0  0  0  0  0
   -1.8155   -0.9214    1.4732 C   0  0  0  0  0  0  0  0  0  0  0  0
   -3.0386   -0.6264    0.8309 C   0  0  0  0  0  0  0  0  0  0  0  0
   -4.2936   -0.4278    1.5227 N   0  0  0  0  0  0  0  0  0  0  0  0
   -5.2614    0.4469    0.9112 C   0  0  0  0  0  0  0  0  0  0  0  0
   -4.9918    1.8163    0.7637 C   0  0  0  0  0  0  0  0  0  0  0  0
   -5.8829    2.6420    0.0600 C   0  0  0  0  0  0  0  0  0  0  0  0
   -7.0366    2.1012   -0.5253 C   0  0  0  0  0  0  0  0  0  0  0  0
   -7.9794    2.9831   -1.2961 C   0  0  0  0  0  0  0  0  0  0  0  0
   -7.3277    0.7390   -0.3398 C   0  0  0  0  0  0  0  0  0  0  0  0
   -6.4448   -0.0822    0.3730 C   0  0  0  0  0  0  0  0  0  0  0  0
   -4.7220   -1.3885    2.5159 C   0  0  0  0  0  0  0  0  0  0  0  0
   -4.2020   -2.6978    2.5383 C   0  0  0  0  0  0  0  0  0  0  0  0
   -4.5908   -3.5985    3.5333 C   0  0  0  0  0  0  0  0  0  0  0  0
   -5.5124   -3.2090    4.5124 C   0  0  0  0  0  0  0  0  0  0  0  0
   -5.9428   -4.1832    5.5745 C   0  0  0  0  0  0  0  0  0  0  0  0
   -6.0781   -1.9268    4.4588 C   0  0  0  0  0  0  0  0  0  0  0  0
   -5.6802   -1.0251    3.4701 C   0  0  0  0  0  0  0  0  0  0  0  0
   -2.9946   -0.9963   -0.5165 C   0  0  0  0  0  0  0  0  0  0  0  0
   -3.8736   -0.5590   -1.8688 S   0  0  0  0  0  0  0  0  0  0  0  0
   -2.8319   -1.2633   -3.0175 C   0  0  0  0  0  0  0  0  0  0  0  0
   -1.7592   -1.8387   -2.2944 C   0  0  0  0  0  0  0  0  0  0  0  0
   -0.6486   -2.5760   -2.8574 N   0  0  0  0  0  0  0  0  0  0  0  0
   -0.2501   -3.8147   -2.2358 C   0  0  0  0  0  0  0  0  0  0  0  0
    1.1026   -4.0721   -1.9552 C   0  0  0  0  0  0  0  0  0  0  0  0
    1.4838   -5.2549   -1.3132 C   0  0  0  0  0  0  0  0  0  0  0  0
    0.5161   -6.1978   -0.9365 C   0  0  0  0  0  0  0  0  0  0  0  0
    0.9169   -7.4914   -0.2883 C   0  0  0  0  0  0  0  0  0  0  0  0
   -0.8405   -5.9422   -1.2079 C   0  0  0  0  0  0  0  0  0  0  0  0
   -1.2203   -4.7567   -1.8486 C   0  0  0  0  0  0  0  0  0  0  0  0
   -0.0408   -2.1864   -4.0957 C   0  0  0  0  0  0  0  0  0  0  0  0
   -0.1653   -3.0180   -5.2166 C   0  0  0  0  0  0  0  0  0  0  0  0
    0.3606   -2.6199   -6.4495 C   0  0  0  0  0  0  0  0  0  0  0  0
    1.0448   -1.4029   -6.5648 C   0  0  0  0  0  0  0  0  0  0  0  0
    1.5773   -0.9459   -7.8890 C   0  0  0  0  0  0  0  0  0  0  0  0
    1.1973   -0.5838   -5.4320 C   0  0  0  0  0  0  0  0  0  0  0  0
    0.6573   -0.9780   -4.2014 C   0  0  0  0  0  0  0  0  0  0  0  0
   -1.8902   -1.6470   -0.9181 C   0  0  0  0  0  0  0  0  0  0  0  0
   -0.8221   -1.7444    0.3521 S   0  0  0  0  0  0  0  0  0  0  0  0
   -2.6840   -0.6930   -4.3685 C   0  0  0  0  0  0  0  0  0  0  0  0
   -3.3394   -1.0415   -5.4897 C   0  0  0  0  0  0  0  0  0  0  0  0
   -2.7984   -0.7219   -6.8092 C   0  0  0  0  0  0  0  0  0  0  0  0
   -1.9134    0.1425   -7.0572 O   0  0  0  0  0  0  0  0  0  0  0  0
   -3.3844   -1.6122   -7.7837 C   0  0  0  0  0  0  0  0  0  0  0  0
   -3.1118   -1.6513   -9.1658 C   0  0  0  0  0  0  0  0  0  0  0  0
   -3.8805   -2.5688   -9.8529 C   0  0  0  0  0  0  0  0  0  0  0  0
   -4.8508   -3.4164   -9.2272 C   0  0  0  0  0  0  0  0  0  0  0  0
   -5.1069   -3.3956   -7.8663 C   0  0  0  0  0  0  0  0  0  0  0  0
   -4.3326   -2.4435   -7.1318 C   0  0  0  0  0  0  0  0  0  0  0  0
   -4.4411   -2.0280   -5.6946 C   0  0  0  0  0  0  0  0  0  0  0  0
   -5.5810   -2.0875   -4.9703 C   0  0  0  0  0  0  0  0  0  0  0  0
   -6.0152   -0.9586   -4.1858 C   0  0  0  0  0  0  0  0  0  0  0  0
   -6.4011   -0.0554   -3.5735 N   0  0  0  0  0  0  0  0  0  0  0  0
   -6.5929   -3.0862   -5.1954 C   0  0  0  0  0  0  0  0  0  0  0  0
   -7.4152   -3.8825   -5.3580 N   0  0  0  0  0  0  0  0  0  0  0  0
   -5.2006   -4.0195  -10.5620 C   0  0  0  0  0  0  0  0  0  0  0  0
   -4.6955   -5.4596  -10.8795 C   0  0  0  0  0  0  0  0  0  0  0  0
   -3.4060   -5.7312  -10.1462 C   0  0  0  0  0  0  0  0  0  0  0  0
   -2.4859   -4.9453  -10.7059 C   0  0  0  0  0  0  0  0  0  0  0  0
   -3.1795   -4.1763  -11.8061 C   0  0  0  0  0  0  0  0  0  0  0  0
   -4.1391   -5.2474  -12.2754 C   0  0  0  0  0  0  0  0  0  0  0  0
   -4.1948   -3.1652  -11.1931 C   0  0  0  0  0  0  0  0  0  0  0  0
    6.1861    2.2901    0.3779 H   0  0  0  0  0  0  0  0  0  0  0  0
    9.0956   -0.6251    5.0655 H   0  0  0  0  0  0  0  0  0  0  0  0
    8.8815   -4.1605    2.6256 H   0  0  0  0  0  0  0  0  0  0  0  0
    8.1407   -2.8124    0.7106 H   0  0  0  0  0  0  0  0  0  0  0  0
    3.8406    3.1582   -1.2553 H   0  0  0  0  0  0  0  0  0  0  0  0
    1.9383    3.7541   -2.7209 H   0  0  0  0  0  0  0  0  0  0  0  0
    0.6545    6.6932   -3.2417 H   0  0  0  0  0  0  0  0  0  0  0  0
   -0.0991    5.0597   -3.0878 H   0  0  0  0  0  0  0  0  0  0  0  0
   -0.5529    6.3665   -1.9468 H   0  0  0  0  0  0  0  0  0  0  0  0
    1.1478    7.2178   -0.2610 H   0  0  0  0  0  0  0  0  0  0  0  0
    3.0548    6.6203    1.1701 H   0  0  0  0  0  0  0  0  0  0  0  0
    6.5455    4.6390   -1.0830 H   0  0  0  0  0  0  0  0  0  0  0  0
    8.5354    6.1039   -1.1533 H   0  0  0  0  0  0  0  0  0  0  0  0
    9.4097    8.5614    1.6161 H   0  0  0  0  0  0  0  0  0  0  0  0
    9.3609    8.5114   -0.1871 H   0  0  0  0  0  0  0  0  0  0  0  0
   10.2812    7.2530    0.7295 H   0  0  0  0  0  0  0  0  0  0  0  0
    7.4274    7.7682    2.6763 H   0  0  0  0  0  0  0  0  0  0  0  0
    5.4545    6.3320    2.7269 H   0  0  0  0  0  0  0  0  0  0  0  0
    2.0628    4.4180    6.1469 H   0  0  0  0  0  0  0  0  0  0  0  0
    2.9341    5.8971    7.8966 H   0  0  0  0  0  0  0  0  0  0  0  0
    3.7415    5.9630   10.3365 H   0  0  0  0  0  0  0  0  0  0  0  0
    4.8736    4.6866   10.8918 H   0  0  0  0  0  0  0  0  0  0  0  0
    5.3772    5.8235    9.5779 H   0  0  0  0  0  0  0  0  0  0  0  0
    4.9035    2.5449    9.7549 H   0  0  0  0  0  0  0  0  0  0  0  0
    4.0562    1.0564    7.9810 H   0  0  0  0  0  0  0  0  0  0  0  0
    2.6002   -0.4994    4.4130 H   0  0  0  0  0  0  0  0  0  0  0  0
    1.4659   -2.6296    4.8931 H   0  0  0  0  0  0  0  0  0  0  0  0
   -1.0130   -3.0983    7.6428 H   0  0  0  0  0  0  0  0  0  0  0  0
   -0.3421   -3.7962    6.1314 H   0  0  0  0  0  0  0  0  0  0  0  0
    0.6272   -3.8654    7.6569 H   0  0  0  0  0  0  0  0  0  0  0  0
   -0.1319   -0.9519    8.5235 H   0  0  0  0  0  0  0  0  0  0  0  0
    0.9680    1.1846    8.0347 H   0  0  0  0  0  0  0  0  0  0  0  0
   -3.2814    2.8273    5.2399 H   0  0  0  0  0  0  0  0  0  0  0  0
   -2.7569    2.3345    6.9018 H   0  0  0  0  0  0  0  0  0  0  0  0
   -2.7875   -0.0397    6.3009 H   0  0  0  0  0  0  0  0  0  0  0  0
   -4.3491    0.6679    5.7354 H   0  0  0  0  0  0  0  0  0  0  0  0
   -4.0887    2.2418    1.1799 H   0  0  0  0  0  0  0  0  0  0  0  0
   -5.6626    3.7000   -0.0469 H   0  0  0  0  0  0  0  0  0  0  0  0
   -8.6599    3.5087   -0.5981 H   0  0  0  0  0  0  0  0  0  0  0  0
   -8.5895    2.3847   -2.0111 H   0  0  0  0  0  0  0  0  0  0  0  0
   -7.4137    3.7342   -1.8809 H   0  0  0  0  0  0  0  0  0  0  0  0
   -8.2149    0.3033   -0.7728 H   0  0  0  0  0  0  0  0  0  0  0  0
   -6.6609   -1.1390    0.4729 H   0  0  0  0  0  0  0  0  0  0  0  0
   -3.4985   -3.0463    1.7868 H   0  0  0  0  0  0  0  0  0  0  0  0
   -4.1712   -4.5987    3.5457 H   0  0  0  0  0  0  0  0  0  0  0  0
   -6.8979   -4.6586    5.2712 H   0  0  0  0  0  0  0  0  0  0  0  0
   -6.0808   -3.6628    6.5439 H   0  0  0  0  0  0  0  0  0  0  0  0
   -5.1792   -4.9744    5.7191 H   0  0  0  0  0  0  0  0  0  0  0  0
   -6.8148   -1.6221    5.1926 H   0  0  0  0  0  0  0  0  0  0  0  0
   -6.1077   -0.0310    3.4606 H   0  0  0  0  0  0  0  0  0  0  0  0
    1.8627   -3.3454   -2.2054 H   0  0  0  0  0  0  0  0  0  0  0  0
    2.5234   -5.4115   -1.0766 H   0  0  0  0  0  0  0  0  0  0  0  0
    1.9713   -7.4650    0.0593 H   0  0  0  0  0  0  0  0  0  0  0  0
    0.2709   -7.7032    0.5926 H   0  0  0  0  0  0  0  0  0  0  0  0
    0.8029   -8.3227   -1.0180 H   0  0  0  0  0  0  0  0  0  0  0  0
   -1.5979   -6.6658   -0.9256 H   0  0  0  0  0  0  0  0  0  0  0  0
   -2.2669   -4.5665   -2.0306 H   0  0  0  0  0  0  0  0  0  0  0  0
   -0.7050   -3.9579   -5.1461 H   0  0  0  0  0  0  0  0  0  0  0  0
    0.2380   -3.2665   -7.3109 H   0  0  0  0  0  0  0  0  0  0  0  0
    1.5161   -1.7482   -8.6505 H   0  0  0  0  0  0  0  0  0  0  0  0
    2.6404   -0.6414   -7.7828 H   0  0  0  0  0  0  0  0  0  0  0  0
    0.9851   -0.0757   -8.2395 H   0  0  0  0  0  0  0  0  0  0  0  0
    1.7177    0.3632   -5.5067 H   0  0  0  0  0  0  0  0  0  0  0  0
    0.7750   -0.3360   -3.3328 H   0  0  0  0  0  0  0  0  0  0  0  0
   -1.8647   -0.0019   -4.4671 H   0  0  0  0  0  0  0  0  0  0  0  0
   -2.3897   -1.0032   -9.6530 H   0  0  0  0  0  0  0  0  0  0  0  0
   -5.8299   -4.0697   -7.4337 H   0  0  0  0  0  0  0  0  0  0  0  0
   -6.2406   -3.8000  -10.8974 H   0  0  0  0  0  0  0  0  0  0  0  0
   -5.4623   -6.2580  -10.7936 H   0  0  0  0  0  0  0  0  0  0  0  0
   -3.2346   -6.4719   -9.3757 H   0  0  0  0  0  0  0  0  0  0  0  0
   -1.4354   -4.9222  -10.4570 H   0  0  0  0  0  0  0  0  0  0  0  0
   -2.5079   -3.7530  -12.5829 H   0  0  0  0  0  0  0  0  0  0  0  0
   -3.6300   -6.1465  -12.6931 H   0  0  0  0  0  0  0  0  0  0  0  0
   -4.9063   -4.8833  -12.9980 H   0  0  0  0  0  0  0  0  0  0  0  0
   -4.6250   -2.4377  -11.9219 H   0  0  0  0  0  0  0  0  0  0  0  0
  1  2  2  3
  2  3  1  0
  3  4  2  0
  3  5  1  0
  5  6  2  0
  6  7  1  0
  7  8  1  0
  7  9  2  0
  9 10  1  0
 10 11  2  0
 11 12  1  0
 12 13  2  3
 13 14  1  0
 14 15  3  0
 13 16  1  0
 16 17  3  0
  1 18  1  0
 18 19  2  0
 19 20  1  0
 20 21  1  0
 21 22  2  0
 22 23  1  0
 23 24  2  0
 24 25  1  0
 24 26  1  0
 26 27  2  0
 20 28  1  0
 28 29  2  0
 29 30  1  0
 30 31  2  0
 31 32  1  0
 31 33  1  0
 33 34  2  0
 19 35  1  0
 35 36  1  0
 36 37  1  0
 37 38  2  0
 38 39  1  0
 39 40  1  0
 40 41  2  0
 41 42  1  0
 42 43  2  0
 43 44  1  0
 43 45  1  0
 45 46  2  0
 39 47  1  0
 47 48  2  0
 48 49  1  0
 49 50  2  0
 50 51  1  0
 50 52  1  0
 52 53  2  0
 38 54  1  0
 54 55  1  0
 37 56  1  0
 56 57  1  0
 57 58  1  0
 58 59  2  0
 59 60  1  0
 60 61  1  0
 61 62  1  0
 62 63  1  0
 63 64  1  0
 58 65  1  0
 65 66  2  0
 66 67  1  0
 67 68  1  0
 68 69  2  0
 69 70  1  0
 70 71  2  0
 71 72  1  0
 71 73  1  0
 73 74  2  0
 67 75  1  0
 75 76  2  0
 76 77  1  0
 77 78  2  0
 78 79  1  0
 78 80  1  0
 80 81  2  0
 66 82  1  0
 82 83  1  0
 83 84  1  0
 84 85  2  0
 85 86  1  0
 86 87  1  0
 87 88  2  0
 88 89  1  0
 89 90  2  0
 90 91  1  0
 90 92  1  0
 92 93  2  0
 86 94  1  0
 94 95  2  0
 95 96  1  0
 96 97  2  0
 97 98  1  0
 97 99  1  0
 99100  2  0
 85101  1  0
101102  1  0
 84103  1  0
103104  2  3
104105  1  0
105106  2  0
105107  1  0
107108  2  0
108109  1  0
109110  2  0
110111  1  0
111112  2  0
112113  1  0
113114  2  3
114115  1  0
115116  3  0
114117  1  0
117118  3  0
110119  1  0
119120  1  0
120121  1  0
121122  2  0
122123  1  0
123124  1  0
123125  1  0
 12  2  1  0
 55 18  1  0
 60 56  2  0
102 65  1  0
113104  1  0
125119  1  0
 11  5  1  0
 27 21  1  0
 34 28  1  0
 54 35  2  0
 64 59  1  0
 74 68  1  0
 81 75  1  0
101 82  2  0
112107  1  0
124120  1  0
 46 40  1  0
 53 47  1  0
 93 87  1  0
100 94  1  0
125109  1  0
  1126  1  0
  6127  1  0
  9128  1  0
 10129  1  0
 22130  1  0
 23131  1  0
 25132  1  0
 25133  1  0
 25134  1  0
 26135  1  0
 27136  1  0
 29137  1  0
 30138  1  0
 32139  1  0
 32140  1  0
 32141  1  0
 33142  1  0
 34143  1  0
 41144  1  0
 42145  1  0
 44146  1  0
 44147  1  0
 44148  1  0
 45149  1  0
 46150  1  0
 48151  1  0
 49152  1  0
 51153  1  0
 51154  1  0
 51155  1  0
 52156  1  0
 53157  1  0
 62158  1  0
 62159  1  0
 63160  1  0
 63161  1  0
 69162  1  0
 70163  1  0
 72164  1  0
 72165  1  0
 72166  1  0
 73167  1  0
 74168  1  0
 76169  1  0
 77170  1  0
 79171  1  0
 79172  1  0
 79173  1  0
 80174  1  0
 81175  1  0
 88176  1  0
 89177  1  0
 91178  1  0
 91179  1  0
 91180  1  0
 92181  1  0
 93182  1  0
 95183  1  0
 96184  1  0
 98185  1  0
 98186  1  0
 98187  1  0
 99188  1  0
100189  1  0
103190  1  0
108191  1  0
111192  1  0
119193  1  0
120194  1  0
121195  1  0
122196  1  0
123197  1  0
124198  1  0
124199  1  0
125200  1  0
M  END

