
     RDKit          3D

239262  0  0  0  0  0  0  0  0999 V2000
    4.1750   -7.9432   -0.4137 C   0  0  0  0  0  0  0  0  0  0  0  0
    5.2912   -7.2331   -0.6734 C   0  0  0  0  0  0  0  0  0  0  0  0
    5.3376   -5.9500   -1.3840 C   0  0  0  0  0  0  0  0  0  0  0  0
    4.3911   -5.1220   -1.4976 O   0  0  0  0  0  0  0  0  0  0  0  0
    6.6648   -5.7723   -1.9166 C   0  0  0  0  0  0  0  0  0  0  0  0
    7.1117   -4.7687   -2.7752 C   0  0  0  0  0  0  0  0  0  0  0  0
    8.4206   -4.8538   -3.2678 C   0  0  0  0  0  0  0  0  0  0  0  0
    9.0621   -3.5176   -4.4798 Br  0  0  0  0  0  0  0  0  0  0  0  0
    9.2444   -5.9368   -2.9044 C   0  0  0  0  0  0  0  0  0  0  0  0
    8.7745   -6.9402   -2.0305 C   0  0  0  0  0  0  0  0  0  0  0  0
    7.4702   -6.8394   -1.5251 C   0  0  0  0  0  0  0  0  0  0  0  0
    6.6983   -7.7316   -0.6163 C   0  0  0  0  0  0  0  0  0  0  0  0
    7.1877   -8.6590    0.2408 C   0  0  0  0  0  0  0  0  0  0  0  0
    6.3956   -9.1473    1.3416 C   0  0  0  0  0  0  0  0  0  0  0  0
    5.7653   -9.5332    2.2333 N   0  0  0  0  0  0  0  0  0  0  0  0
    8.5489   -9.1378    0.1919 C   0  0  0  0  0  0  0  0  0  0  0  0
    9.6380   -9.5459    0.1610 N   0  0  0  0  0  0  0  0  0  0  0  0
    2.8311   -7.4649   -0.7564 C   0  0  0  0  0  0  0  0  0  0  0  0
    1.8342   -7.1170    0.1553 C   0  0  0  0  0  0  0  0  0  0  0  0
    1.9588   -7.2169    1.5853 N   0  0  0  0  0  0  0  0  0  0  0  0
    3.0547   -6.5595    2.2737 C   0  0  0  0  0  0  0  0  0  0  0  0
    3.5966   -5.3646    1.7710 C   0  0  0  0  0  0  0  0  0  0  0  0
    4.6423   -4.7191    2.4398 C   0  0  0  0  0  0  0  0  0  0  0  0
    5.1689   -5.2640    3.6196 C   0  0  0  0  0  0  0  0  0  0  0  0
    6.2497   -4.5310    4.3668 C   0  0  0  0  0  0  0  0  0  0  0  0
    4.6257   -6.4503    4.1318 C   0  0  0  0  0  0  0  0  0  0  0  0
    3.5913   -7.1038    3.4533 C   0  0  0  0  0  0  0  0  0  0  0  0
    0.9363   -7.9452    2.2993 C   0  0  0  0  0  0  0  0  0  0  0  0
    0.3799   -9.1055    1.7373 C   0  0  0  0  0  0  0  0  0  0  0  0
   -0.6746   -9.7713    2.3636 C   0  0  0  0  0  0  0  0  0  0  0  0
   -1.1834   -9.2951    3.5808 C   0  0  0  0  0  0  0  0  0  0  0  0
   -2.3744   -9.9526    4.1972 C   0  0  0  0  0  0  0  0  0  0  0  0
   -0.6209   -8.1469    4.1558 C   0  0  0  0  0  0  0  0  0  0  0  0
    0.4255   -7.4694    3.5192 C   0  0  0  0  0  0  0  0  0  0  0  0
    0.7069   -6.6182   -0.4961 C   0  0  0  0  0  0  0  0  0  0  0  0
   -0.5437   -5.6522    0.0267 S   0  0  0  0  0  0  0  0  0  0  0  0
   -1.0200   -5.1357   -1.5252 C   0  0  0  0  0  0  0  0  0  0  0  0
   -0.2084   -5.7972   -2.4850 C   0  0  0  0  0  0  0  0  0  0  0  0
   -0.3014   -5.6257   -3.9244 N   0  0  0  0  0  0  0  0  0  0  0  0
   -1.3401   -4.8356   -4.5177 C   0  0  0  0  0  0  0  0  0  0  0  0
   -1.0223   -3.6588   -5.2119 C   0  0  0  0  0  0  0  0  0  0  0  0
   -2.0296   -2.9126   -5.8283 C   0  0  0  0  0  0  0  0  0  0  0  0
   -3.3628   -3.3503   -5.7870 C   0  0  0  0  0  0  0  0  0  0  0  0
   -4.4327   -2.5760   -6.5013 C   0  0  0  0  0  0  0  0  0  0  0  0
   -3.6699   -4.5587   -5.1384 C   0  0  0  0  0  0  0  0  0  0  0  0
   -2.6683   -5.2833   -4.4861 C   0  0  0  0  0  0  0  0  0  0  0  0
    0.3045   -6.5943   -4.7948 C   0  0  0  0  0  0  0  0  0  0  0  0
   -0.0958   -7.9388   -4.7311 C   0  0  0  0  0  0  0  0  0  0  0  0
    0.4653   -8.8855   -5.5903 C   0  0  0  0  0  0  0  0  0  0  0  0
    1.4224   -8.4965   -6.5434 C   0  0  0  0  0  0  0  0  0  0  0  0
    2.0539   -9.5242   -7.4353 C   0  0  0  0  0  0  0  0  0  0  0  0
    1.8302   -7.1542   -6.6009 C   0  0  0  0  0  0  0  0  0  0  0  0
    1.2643   -6.2076   -5.7408 C   0  0  0  0  0  0  0  0  0  0  0  0
    0.7732   -6.5736   -1.8518 C   0  0  0  0  0  0  0  0  0  0  0  0
    2.2730   -7.1722   -2.3399 S   0  0  0  0  0  0  0  0  0  0  0  0
   -1.4996   -3.7559   -1.6692 C   0  0  0  0  0  0  0  0  0  0  0  0
   -2.5733   -3.1747   -0.9732 C   0  0  0  0  0  0  0  0  0  0  0  0
   -3.6317   -3.8845   -0.3163 N   0  0  0  0  0  0  0  0  0  0  0  0
   -3.8731   -3.5984    1.0838 C   0  0  0  0  0  0  0  0  0  0  0  0
   -5.1730   -3.3161    1.5544 C   0  0  0  0  0  0  0  0  0  0  0  0
   -5.3795   -2.9337    2.8808 C   0  0  0  0  0  0  0  0  0  0  0  0
   -4.2918   -2.8063    3.7542 C   0  0  0  0  0  0  0  0  0  0  0  0
   -4.5524   -2.2889    5.4509 S   0  0  0  0  0  0  0  0  0  0  0  0
   -4.3064   -0.5197    5.1009 C   0  0  0  0  0  0  0  0  0  0  0  0
   -2.9984   -3.0743    3.2955 C   0  0  0  0  0  0  0  0  0  0  0  0
   -2.7885   -3.4668    1.9737 C   0  0  0  0  0  0  0  0  0  0  0  0
   -4.6965   -4.4279   -1.1289 C   0  0  0  0  0  0  0  0  0  0  0  0
   -5.1631   -3.7218   -2.2583 C   0  0  0  0  0  0  0  0  0  0  0  0
   -6.3280   -4.1270   -2.9134 C   0  0  0  0  0  0  0  0  0  0  0  0
   -7.0418   -5.2353   -2.4468 C   0  0  0  0  0  0  0  0  0  0  0  0
   -8.6165   -5.6640   -3.1879 S   0  0  0  0  0  0  0  0  0  0  0  0
   -9.5532   -4.5085   -2.1303 C   0  0  0  0  0  0  0  0  0  0  0  0
   -6.5551   -5.9771   -1.3646 C   0  0  0  0  0  0  0  0  0  0  0  0
   -5.3827   -5.5800   -0.7111 C   0  0  0  0  0  0  0  0  0  0  0  0
   -2.4856   -1.7862   -0.9743 C   0  0  0  0  0  0  0  0  0  0  0  0
   -3.3291   -0.5768   -0.1767 S   0  0  0  0  0  0  0  0  0  0  0  0
   -2.2883    0.6602   -0.7073 C   0  0  0  0  0  0  0  0  0  0  0  0
   -1.2630    0.1098   -1.4953 C   0  0  0  0  0  0  0  0  0  0  0  0
   -0.1604    0.8488   -2.0392 N   0  0  0  0  0  0  0  0  0  0  0  0
   -0.3116    1.3502   -3.3815 C   0  0  0  0  0  0  0  0  0  0  0  0
   -0.2201    2.7281   -3.6390 C   0  0  0  0  0  0  0  0  0  0  0  0
   -0.4688    3.2213   -4.9253 C   0  0  0  0  0  0  0  0  0  0  0  0
   -0.7897    2.3372   -5.9645 C   0  0  0  0  0  0  0  0  0  0  0  0
   -1.1840    2.9567   -7.5963 S   0  0  0  0  0  0  0  0  0  0  0  0
   -2.9832    2.8310   -7.3333 C   0  0  0  0  0  0  0  0  0  0  0  0
   -0.8460    0.9663   -5.7207 C   0  0  0  0  0  0  0  0  0  0  0  0
   -0.6216    0.4743   -4.4337 C   0  0  0  0  0  0  0  0  0  0  0  0
    1.0558    1.0558   -1.2760 C   0  0  0  0  0  0  0  0  0  0  0  0
    2.2364    1.5263   -1.8996 C   0  0  0  0  0  0  0  0  0  0  0  0
    3.3936    1.7685   -1.1531 C   0  0  0  0  0  0  0  0  0  0  0  0
    3.4069    1.5222    0.2216 C   0  0  0  0  0  0  0  0  0  0  0  0
    4.8747    1.8793    1.1857 S   0  0  0  0  0  0  0  0  0  0  0  0
    5.6715    0.2832    0.8201 C   0  0  0  0  0  0  0  0  0  0  0  0
    2.2667    1.0137    0.8456 C   0  0  0  0  0  0  0  0  0  0  0  0
    1.1005    0.7841    0.1074 C   0  0  0  0  0  0  0  0  0  0  0  0
   -1.4120   -1.2681   -1.6135 C   0  0  0  0  0  0  0  0  0  0  0  0
   -0.4549   -2.5085   -2.1913 S   0  0  0  0  0  0  0  0  0  0  0  0
   -2.3191    2.0088   -0.1599 C   0  0  0  0  0  0  0  0  0  0  0  0
   -2.3569    3.1939   -0.8820 C   0  0  0  0  0  0  0  0  0  0  0  0
   -2.3630    4.3246   -0.0547 C   0  0  0  0  0  0  0  0  0  0  0  0
   -2.3995    5.6681   -0.4737 C   0  0  0  0  0  0  0  0  0  0  0  0
   -2.3152    6.0460   -1.9003 C   0  0  0  0  0  0  0  0  0  0  0  0
   -1.1726    6.7076   -2.3746 C   0  0  0  0  0  0  0  0  0  0  0  0
   -1.1101    7.1501   -3.6978 C   0  0  0  0  0  0  0  0  0  0  0  0
    0.0084    7.7945   -4.1226 F   0  0  0  0  0  0  0  0  0  0  0  0
   -2.1923    6.9363   -4.5674 C   0  0  0  0  0  0  0  0  0  0  0  0
   -2.1488    7.4650   -5.9822 C   0  0  0  0  0  0  0  0  0  0  0  0
   -1.6263    6.4114   -6.9474 C   0  0  0  0  0  0  0  0  0  0  0  0
   -3.3127    6.2135   -4.1057 C   0  0  0  0  0  0  0  0  0  0  0  0
   -4.3533    5.9519   -4.9360 F   0  0  0  0  0  0  0  0  0  0  0  0
   -3.3694    5.7704   -2.7797 C   0  0  0  0  0  0  0  0  0  0  0  0
   -2.3991    6.6455    0.5373 C   0  0  0  0  0  0  0  0  0  0  0  0
   -2.3255    6.3330    1.9007 C   0  0  0  0  0  0  0  0  0  0  0  0
   -2.2605    4.9864    2.3167 C   0  0  0  0  0  0  0  0  0  0  0  0
   -2.0561    4.6153    3.7316 C   0  0  0  0  0  0  0  0  0  0  0  0
   -0.8571    3.9986    4.1195 C   0  0  0  0  0  0  0  0  0  0  0  0
   -0.6477    3.6300    5.4503 C   0  0  0  0  0  0  0  0  0  0  0  0
   -1.6540    3.8488    6.4125 C   0  0  0  0  0  0  0  0  0  0  0  0
   -1.4290    3.4474    7.8475 C   0  0  0  0  0  0  0  0  0  0  0  0
   -0.9636    4.6349    8.6856 C   0  0  0  0  0  0  0  0  0  0  0  0
   -2.8521    4.4730    6.0236 C   0  0  0  0  0  0  0  0  0  0  0  0
   -3.0488    4.8575    4.6908 C   0  0  0  0  0  0  0  0  0  0  0  0
   -3.8286    4.7123    6.9347 F   0  0  0  0  0  0  0  0  0  0  0  0
    0.5324    3.0623    5.8010 F   0  0  0  0  0  0  0  0  0  0  0  0
   -2.3101    4.0115    1.3116 C   0  0  0  0  0  0  0  0  0  0  0  0
   -2.2808    2.3396    1.4933 S   0  0  0  0  0  0  0  0  0  0  0  0
   -2.2655    7.4693    2.7230 C   0  0  0  0  0  0  0  0  0  0  0  0
   -2.2873    8.6585    1.9939 C   0  0  0  0  0  0  0  0  0  0  0  0
   -2.4239    8.3169    0.3544 S   0  0  0  0  0  0  0  0  0  0  0  0
   -2.2555   10.0204    2.5290 C   0  0  0  0  0  0  0  0  0  0  0  0
   -1.2752   10.4926    3.3200 C   0  0  0  0  0  0  0  0  0  0  0  0
    0.0047    9.8243    3.6071 C   0  0  0  0  0  0  0  0  0  0  0  0
    0.2481    8.5903    3.5171 O   0  0  0  0  0  0  0  0  0  0  0  0
    0.9781   10.8294    3.9757 C   0  0  0  0  0  0  0  0  0  0  0  0
    2.3654   10.6446    4.1754 C   0  0  0  0  0  0  0  0  0  0  0  0
    3.0668   11.8181    4.3621 C   0  0  0  0  0  0  0  0  0  0  0  0
    2.4524   13.1104    4.3218 C   0  0  0  0  0  0  0  0  0  0  0  0
    1.0952   13.2998    4.1444 C   0  0  0  0  0  0  0  0  0  0  0  0
    0.3468   12.0993    3.9895 C   0  0  0  0  0  0  0  0  0  0  0  0
   -1.1031   11.9218    3.7183 C   0  0  0  0  0  0  0  0  0  0  0  0
   -2.0988   12.7964    4.0155 C   0  0  0  0  0  0  0  0  0  0  0  0
   -3.4910   12.4313    3.9211 C   0  0  0  0  0  0  0  0  0  0  0  0
   -4.6137   12.1428    3.8425 N   0  0  0  0  0  0  0  0  0  0  0  0
   -1.8421   14.0954    4.5678 C   0  0  0  0  0  0  0  0  0  0  0  0
   -1.6543   15.1486    5.0159 N   0  0  0  0  0  0  0  0  0  0  0  0
    3.7833   13.7720    4.5112 C   0  0  0  0  0  0  0  0  0  0  0  0
    4.0912   14.4062    5.8992 C   0  0  0  0  0  0  0  0  0  0  0  0
    3.3488   13.6628    6.9830 C   0  0  0  0  0  0  0  0  0  0  0  0
    3.8937   12.4476    7.0553 C   0  0  0  0  0  0  0  0  0  0  0  0
    5.0038   12.4097    6.0245 C   0  0  0  0  0  0  0  0  0  0  0  0
    5.4823   13.8481    6.1348 C   0  0  0  0  0  0  0  0  0  0  0  0
    4.4085   12.4468    4.5864 C   0  0  0  0  0  0  0  0  0  0  0  0
    4.2433   -8.9382   -0.0118 H   0  0  0  0  0  0  0  0  0  0  0  0
    6.4515   -3.9633   -3.0757 H   0  0  0  0  0  0  0  0  0  0  0  0
   10.2473   -6.0057   -3.3008 H   0  0  0  0  0  0  0  0  0  0  0  0
    9.4101   -7.7715   -1.8041 H   0  0  0  0  0  0  0  0  0  0  0  0
    3.1966   -4.9202    0.8720 H   0  0  0  0  0  0  0  0  0  0  0  0
    5.0367   -3.7987    2.0325 H   0  0  0  0  0  0  0  0  0  0  0  0
    6.9933   -4.1244    3.6498 H   0  0  0  0  0  0  0  0  0  0  0  0
    5.8011   -3.6962    4.9434 H   0  0  0  0  0  0  0  0  0  0  0  0
    6.7831   -5.2028    5.0705 H   0  0  0  0  0  0  0  0  0  0  0  0
    5.0015   -6.8816    5.0572 H   0  0  0  0  0  0  0  0  0  0  0  0
    3.1996   -8.0211    3.8705 H   0  0  0  0  0  0  0  0  0  0  0  0
    0.7490   -9.4819    0.7929 H   0  0  0  0  0  0  0  0  0  0  0  0
   -1.1069  -10.6380    1.8902 H   0  0  0  0  0  0  0  0  0  0  0  0
   -3.2881   -9.6502    3.6408 H   0  0  0  0  0  0  0  0  0  0  0  0
   -2.4841   -9.6607    5.2650 H   0  0  0  0  0  0  0  0  0  0  0  0
   -2.2748  -11.0598    4.1461 H   0  0  0  0  0  0  0  0  0  0  0  0
   -1.0130   -7.7512    5.0880 H   0  0  0  0  0  0  0  0  0  0  0  0
    0.8118   -6.5597    3.9665 H   0  0  0  0  0  0  0  0  0  0  0  0
    0.0020   -3.3252   -5.2670 H   0  0  0  0  0  0  0  0  0  0  0  0
   -1.7676   -2.0072   -6.3545 H   0  0  0  0  0  0  0  0  0  0  0  0
   -4.2107   -1.4891   -6.4701 H   0  0  0  0  0  0  0  0  0  0  0  0
   -5.4253   -2.7415   -6.0258 H   0  0  0  0  0  0  0  0  0  0  0  0
   -4.4792   -2.9039   -7.5619 H   0  0  0  0  0  0  0  0  0  0  0  0
   -4.6853   -4.9338   -5.1325 H   0  0  0  0  0  0  0  0  0  0  0  0
   -2.9171   -6.2052   -3.9765 H   0  0  0  0  0  0  0  0  0  0  0  0
   -0.8425   -8.2520   -4.0097 H   0  0  0  0  0  0  0  0  0  0  0  0
    0.1502   -9.9198   -5.5252 H   0  0  0  0  0  0  0  0  0  0  0  0
    2.9037  -10.0076   -6.9079 H   0  0  0  0  0  0  0  0  0  0  0  0
    2.4244   -9.0559   -8.3699 H   0  0  0  0  0  0  0  0  0  0  0  0
    1.3134  -10.3033   -7.7150 H   0  0  0  0  0  0  0  0  0  0  0  0
    2.5850   -6.8422   -7.3089 H   0  0  0  0  0  0  0  0  0  0  0  0
    1.5888   -5.1757   -5.7985 H   0  0  0  0  0  0  0  0  0  0  0  0
   -6.0279   -3.3557    0.8895 H   0  0  0  0  0  0  0  0  0  0  0  0
   -6.3815   -2.7221    3.2262 H   0  0  0  0  0  0  0  0  0  0  0  0
   -4.3996    0.0567    6.0455 H   0  0  0  0  0  0  0  0  0  0  0  0
   -3.2932   -0.3483    4.6813 H   0  0  0  0  0  0  0  0  0  0  0  0
   -5.0732   -0.1571    4.3842 H   0  0  0  0  0  0  0  0  0  0  0  0
   -2.1536   -2.9524    3.9573 H   0  0  0  0  0  0  0  0  0  0  0  0
   -1.7748   -3.6314    1.6364 H   0  0  0  0  0  0  0  0  0  0  0  0
   -4.6687   -2.8213   -2.5957 H   0  0  0  0  0  0  0  0  0  0  0  0
   -6.6916   -3.5588   -3.7577 H   0  0  0  0  0  0  0  0  0  0  0  0
   -9.2671   -3.4624   -2.3761 H   0  0  0  0  0  0  0  0  0  0  0  0
  -10.6402   -4.6379   -2.3121 H   0  0  0  0  0  0  0  0  0  0  0  0
   -9.3399   -4.7083   -1.0571 H   0  0  0  0  0  0  0  0  0  0  0  0
   -7.0996   -6.8371   -0.9990 H   0  0  0  0  0  0  0  0  0  0  0  0
   -5.0465   -6.1243    0.1568 H   0  0  0  0  0  0  0  0  0  0  0  0
    0.0199    3.4159   -2.8385 H   0  0  0  0  0  0  0  0  0  0  0  0
   -0.4183    4.2848   -5.1025 H   0  0  0  0  0  0  0  0  0  0  0  0
   -3.2780    3.3325   -6.3864 H   0  0  0  0  0  0  0  0  0  0  0  0
   -3.2825    1.7624   -7.2946 H   0  0  0  0  0  0  0  0  0  0  0  0
   -3.5035    3.3246   -8.1786 H   0  0  0  0  0  0  0  0  0  0  0  0
   -1.1021    0.2839   -6.5184 H   0  0  0  0  0  0  0  0  0  0  0  0
   -0.7003   -0.5887   -4.2667 H   0  0  0  0  0  0  0  0  0  0  0  0
    2.2670    1.7099   -2.9649 H   0  0  0  0  0  0  0  0  0  0  0  0
    4.2756    2.1539   -1.6439 H   0  0  0  0  0  0  0  0  0  0  0  0
    4.9868   -0.5576    1.0604 H   0  0  0  0  0  0  0  0  0  0  0  0
    6.5887    0.1879    1.4393 H   0  0  0  0  0  0  0  0  0  0  0  0
    5.9582    0.2432   -0.2517 H   0  0  0  0  0  0  0  0  0  0  0  0
    2.2753    0.8100    1.9093 H   0  0  0  0  0  0  0  0  0  0  0  0
    0.2345    0.3990    0.6272 H   0  0  0  0  0  0  0  0  0  0  0  0
   -2.3993    3.2294   -1.9636 H   0  0  0  0  0  0  0  0  0  0  0  0
   -0.3381    6.8919   -1.7123 H   0  0  0  0  0  0  0  0  0  0  0  0
   -3.1660    7.7782   -6.3032 H   0  0  0  0  0  0  0  0  0  0  0  0
   -1.4981    8.3648   -6.0440 H   0  0  0  0  0  0  0  0  0  0  0  0
   -1.6300    6.8146   -7.9787 H   0  0  0  0  0  0  0  0  0  0  0  0
   -0.5888    6.1190   -6.6836 H   0  0  0  0  0  0  0  0  0  0  0  0
   -2.2871    5.5262   -6.9119 H   0  0  0  0  0  0  0  0  0  0  0  0
   -4.2464    5.2378   -2.4293 H   0  0  0  0  0  0  0  0  0  0  0  0
   -0.0813    3.8084    3.3871 H   0  0  0  0  0  0  0  0  0  0  0  0
   -0.6741    2.6346    7.9205 H   0  0  0  0  0  0  0  0  0  0  0  0
   -2.3718    3.0415    8.2727 H   0  0  0  0  0  0  0  0  0  0  0  0
   -1.7533    5.4140    8.7354 H   0  0  0  0  0  0  0  0  0  0  0  0
   -0.7382    4.2920    9.7199 H   0  0  0  0  0  0  0  0  0  0  0  0
   -0.0370    5.0781    8.2558 H   0  0  0  0  0  0  0  0  0  0  0  0
   -3.9787    5.3292    4.4051 H   0  0  0  0  0  0  0  0  0  0  0  0
   -2.1924    7.4329    3.8004 H   0  0  0  0  0  0  0  0  0  0  0  0
   -2.9852   10.7036    2.1214 H   0  0  0  0  0  0  0  0  0  0  0  0
    2.8437    9.6780    4.1590 H   0  0  0  0  0  0  0  0  0  0  0  0
    0.6743   14.2895    4.0950 H   0  0  0  0  0  0  0  0  0  0  0  0
    4.1121   14.3775    3.6364 H   0  0  0  0  0  0  0  0  0  0  0  0
    4.0106   15.5127    5.9440 H   0  0  0  0  0  0  0  0  0  0  0  0
    2.5799   14.0571    7.6383 H   0  0  0  0  0  0  0  0  0  0  0  0
    3.6334   11.6842    7.7816 H   0  0  0  0  0  0  0  0  0  0  0  0
    5.7779   11.6329    6.2055 H   0  0  0  0  0  0  0  0  0  0  0  0
    6.2176   14.1298    5.3400 H   0  0  0  0  0  0  0  0  0  0  0  0
    5.9039   14.1034    7.1383 H   0  0  0  0  0  0  0  0  0  0  0  0
    5.1435   12.2514    3.7748 H   0  0  0  0  0  0  0  0  0  0  0  0
  1  2  2  3
  2  3  1  0
  3  4  2  0
  3  5  1  0
  5  6  2  0
  6  7  1  0
  7  8  1  0
  7  9  2  0
  9 10  1  0
 10 11  2  0
 11 12  1  0
 12 13  2  3
 13 14  1  0
 14 15  3  0
 13 16  1  0
 16 17  3  0
  1 18  1  0
 18 19  2  0
 19 20  1  0
 20 21  1  0
 21 22  2  0
 22 23  1  0
 23 24  2  0
 24 25  1  0
 24 26  1  0
 26 27  2  0
 20 28  1  0
 28 29  2  0
 29 30  1  0
 30 31  2  0
 31 32  1  0
 31 33  1  0
 33 34  2  0
 19 35  1  0
 35 36  1  0
 36 37  1  0
 37 38  2  0
 38 39  1  0
 39 40  1  0
 40 41  2  0
 41 42  1  0
 42 43  2  0
 43 44  1  0
 43 45  1  0
 45 46  2  0
 39 47  1  0
 47 48  2  0
 48 49  1  0
 49 50  2  0
 50 51  1  0
 50 52  1  0
 52 53  2  0
 38 54  1  0
 54 55  1  0
 37 56  1  0
 56 57  2  0
 57 58  1  0
 58 59  1  0
 59 60  2  0
 60 61  1  0
 61 62  2  0
 62 63  1  0
 63 64  1  0
 62 65  1  0
 65 66  2  0
 58 67  1  0
 67 68  2  0
 68 69  1  0
 69 70  2  0
 70 71  1  0
 71 72  1  0
 70 73  1  0
 73 74  2  0
 57 75  1  0
 75 76  1  0
 76 77  1  0
 77 78  2  0
 78 79  1  0
 79 80  1  0
 80 81  2  0
 81 82  1  0
 82 83  2  0
 83 84  1  0
 84 85  1  0
 83 86  1  0
 86 87  2  0
 79 88  1  0
 88 89  2  0
 89 90  1  0
 90 91  2  0
 91 92  1  0
 92 93  1  0
 91 94  1  0
 94 95  2  0
 78 96  1  0
 96 97  1  0
 77 98  1  0
 98 99  2  0
 99100  1  0
100101  2  0
101102  1  0
102103  2  0
103104  1  0
104105  1  0
104106  2  0
106107  1  0
107108  1  0
106109  1  0
109110  1  0
109111  2  0
101112  1  0
112113  2  0
113114  1  0
114115  1  0
115116  2  0
116117  1  0
117118  2  0
118119  1  0
119120  1  0
118121  1  0
121122  2  0
121123  1  0
117124  1  0
114125  2  0
125126  1  0
113127  1  0
127128  2  0
128129  1  0
128130  1  0
130131  2  3
131132  1  0
132133  2  0
132134  1  0
134135  2  0
135136  1  0
136137  2  0
137138  1  0
138139  2  0
139140  1  0
140141  2  3
141142  1  0
142143  3  0
141144  1  0
144145  3  0
137146  1  0
146147  1  0
147148  1  0
148149  2  0
149150  1  0
150151  1  0
150152  1  0
 12  2  1  0
 55 18  1  0
 97 56  1  0
126 98  1  0
140131  1  0
152146  1  0
 11  5  1  0
 27 21  1  0
 34 28  1  0
 54 35  2  0
 66 59  1  0
 74 67  1  0
 96 75  2  0
125100  1  0
139134  1  0
151147  1  0
 46 40  1  0
 53 47  1  0
 87 80  1  0
 95 88  1  0
111102  1  0
129112  1  0
152136  1  0
122115  1  0
  1153  1  0
  6154  1  0
  9155  1  0
 10156  1  0
 22157  1  0
 23158  1  0
 25159  1  0
 25160  1  0
 25161  1  0
 26162  1  0
 27163  1  0
 29164  1  0
 30165  1  0
 32166  1  0
 32167  1  0
 32168  1  0
 33169  1  0
 34170  1  0
 41171  1  0
 42172  1  0
 44173  1  0
 44174  1  0
 44175  1  0
 45176  1  0
 46177  1  0
 48178  1  0
 49179  1  0
 51180  1  0
 51181  1  0
 51182  1  0
 52183  1  0
 53184  1  0
 60185  1  0
 61186  1  0
 64187  1  0
 64188  1  0
 64189  1  0
 65190  1  0
 66191  1  0
 68192  1  0
 69193  1  0
 72194  1  0
 72195  1  0
 72196  1  0
 73197  1  0
 74198  1  0
 81199  1  0
 82200  1  0
 85201  1  0
 85202  1  0
 85203  1  0
 86204  1  0
 87205  1  0
 89206  1  0
 90207  1  0
 93208  1  0
 93209  1  0
 93210  1  0
 94211  1  0
 95212  1  0
 99213  1  0
103214  1  0
107215  1  0
107216  1  0
108217  1  0
108218  1  0
108219  1  0
111220  1  0
116221  1  0
119222  1  0
119223  1  0
120224  1  0
120225  1  0
120226  1  0
122227  1  0
127228  1  0
130229  1  0
135230  1  0
138231  1  0
146232  1  0
147233  1  0
148234  1  0
149235  1  0
150236  1  0
151237  1  0
151238  1  0
152239  1  0
M  END

