
     RDKit          3D

244265  0  0  0  0  0  0  0  0999 V2000
   -3.7360    8.0864   -0.7667 C   0  0  0  0  0  0  0  0  0  0  0  0
   -4.0204    8.8392    0.3217 C   0  0  0  0  0  0  0  0  0  0  0  0
   -3.4967    8.6579    1.6807 C   0  0  0  0  0  0  0  0  0  0  0  0
   -3.3649    7.5544    2.2860 O   0  0  0  0  0  0  0  0  0  0  0  0
   -3.3912    9.9545    2.3099 C   0  0  0  0  0  0  0  0  0  0  0  0
   -2.8199   10.2737    3.5404 C   0  0  0  0  0  0  0  0  0  0  0  0
   -2.8162   11.6150    3.9436 C   0  0  0  0  0  0  0  0  0  0  0  0
   -2.0273   12.1018    5.6140 Br  0  0  0  0  0  0  0  0  0  0  0  0
   -3.3889   12.6035    3.1250 C   0  0  0  0  0  0  0  0  0  0  0  0
   -3.9649   12.2597    1.8895 C   0  0  0  0  0  0  0  0  0  0  0  0
   -3.9476   10.9168    1.4811 C   0  0  0  0  0  0  0  0  0  0  0  0
   -4.4960   10.2529    0.2605 C   0  0  0  0  0  0  0  0  0  0  0  0
   -5.3880   10.7649   -0.6199 C   0  0  0  0  0  0  0  0  0  0  0  0
   -5.6425   12.1752   -0.7457 C   0  0  0  0  0  0  0  0  0  0  0  0
   -5.8423   13.3060   -0.8768 N   0  0  0  0  0  0  0  0  0  0  0  0
   -6.2084    9.9099   -1.4315 C   0  0  0  0  0  0  0  0  0  0  0  0
   -6.8827    9.2309   -2.0790 N   0  0  0  0  0  0  0  0  0  0  0  0
   -2.6954    7.0179   -0.8373 C   0  0  0  0  0  0  0  0  0  0  0  0
   -2.4977    6.0707   -1.8876 C   0  0  0  0  0  0  0  0  0  0  0  0
   -3.4237    5.7683   -2.9629 N   0  0  0  0  0  0  0  0  0  0  0  0
   -3.4181    4.4633   -3.5728 C   0  0  0  0  0  0  0  0  0  0  0  0
   -3.6672    3.3167   -2.8038 C   0  0  0  0  0  0  0  0  0  0  0  0
   -3.5135    2.0468   -3.3672 C   0  0  0  0  0  0  0  0  0  0  0  0
   -3.1264    1.9128   -4.7111 C   0  0  0  0  0  0  0  0  0  0  0  0
   -2.9672    0.5501   -5.3087 C   0  0  0  0  0  0  0  0  0  0  0  0
   -2.9320    3.0558   -5.4923 C   0  0  0  0  0  0  0  0  0  0  0  0
   -3.0699    4.3256   -4.9289 C   0  0  0  0  0  0  0  0  0  0  0  0
   -4.2263    6.7691   -3.6116 C   0  0  0  0  0  0  0  0  0  0  0  0
   -3.6226    7.8783   -4.2259 C   0  0  0  0  0  0  0  0  0  0  0  0
   -4.4030    8.7955   -4.9414 C   0  0  0  0  0  0  0  0  0  0  0  0
   -5.7911    8.6035   -5.0626 C   0  0  0  0  0  0  0  0  0  0  0  0
   -6.6299    9.5712   -5.8401 C   0  0  0  0  0  0  0  0  0  0  0  0
   -6.3820    7.4662   -4.4864 C   0  0  0  0  0  0  0  0  0  0  0  0
   -5.6051    6.5617   -3.7611 C   0  0  0  0  0  0  0  0  0  0  0  0
   -1.3158    5.3358   -1.6695 C   0  0  0  0  0  0  0  0  0  0  0  0
   -0.5608    4.0388   -2.4059 S   0  0  0  0  0  0  0  0  0  0  0  0
    0.6783    3.8524   -1.2490 C   0  0  0  0  0  0  0  0  0  0  0  0
    0.4614    4.8155   -0.2484 C   0  0  0  0  0  0  0  0  0  0  0  0
    1.0642    4.7811    1.0516 N   0  0  0  0  0  0  0  0  0  0  0  0
    0.2885    4.2275    2.1445 C   0  0  0  0  0  0  0  0  0  0  0  0
    0.3381    4.7936    3.4284 C   0  0  0  0  0  0  0  0  0  0  0  0
   -0.4735    4.2972    4.4544 C   0  0  0  0  0  0  0  0  0  0  0  0
   -1.3624    3.2406    4.2068 C   0  0  0  0  0  0  0  0  0  0  0  0
   -2.2258    2.6954    5.3044 C   0  0  0  0  0  0  0  0  0  0  0  0
   -1.4072    2.6637    2.9331 C   0  0  0  0  0  0  0  0  0  0  0  0
   -0.5909    3.1490    1.9128 C   0  0  0  0  0  0  0  0  0  0  0  0
    2.3548    5.4054    1.2417 C   0  0  0  0  0  0  0  0  0  0  0  0
    3.2741    4.8848    2.1705 C   0  0  0  0  0  0  0  0  0  0  0  0
    4.5217    5.4936    2.3480 C   0  0  0  0  0  0  0  0  0  0  0  0
    4.8808    6.6127    1.5879 C   0  0  0  0  0  0  0  0  0  0  0  0
    6.2049    7.2835    1.8134 C   0  0  0  0  0  0  0  0  0  0  0  0
    3.9749    7.1260    0.6474 C   0  0  0  0  0  0  0  0  0  0  0  0
    2.7263    6.5241    0.4747 C   0  0  0  0  0  0  0  0  0  0  0  0
   -0.6291    5.6319   -0.5435 C   0  0  0  0  0  0  0  0  0  0  0  0
   -1.3966    6.8646    0.2651 S   0  0  0  0  0  0  0  0  0  0  0  0
    1.5896    2.6808   -1.2147 C   0  0  0  0  0  0  0  0  0  0  0  0
    1.7163    1.7533   -2.2663 C   0  0  0  0  0  0  0  0  0  0  0  0
    1.8058    2.1343   -3.6637 N   0  0  0  0  0  0  0  0  0  0  0  0
    2.0442    1.1361   -4.6621 C   0  0  0  0  0  0  0  0  0  0  0  0
    3.3592    0.8292   -5.0358 C   0  0  0  0  0  0  0  0  0  0  0  0
    3.6024   -0.1204   -6.0276 C   0  0  0  0  0  0  0  0  0  0  0  0
    2.5305   -0.7726   -6.6508 C   0  0  0  0  0  0  0  0  0  0  0  0
    2.8483   -1.9820   -7.9387 S   0  0  0  0  0  0  0  0  0  0  0  0
    2.9798   -3.3762   -6.7685 C   0  0  0  0  0  0  0  0  0  0  0  0
    1.2128   -0.4562   -6.2909 C   0  0  0  0  0  0  0  0  0  0  0  0
    0.9688    0.5045   -5.3041 C   0  0  0  0  0  0  0  0  0  0  0  0
    2.1273    3.4941   -4.0266 C   0  0  0  0  0  0  0  0  0  0  0  0
    1.3627    4.1650   -4.9956 C   0  0  0  0  0  0  0  0  0  0  0  0
    1.5499    5.5336   -5.2115 C   0  0  0  0  0  0  0  0  0  0  0  0
    2.5183    6.2366   -4.4801 C   0  0  0  0  0  0  0  0  0  0  0  0
    2.6990    8.0130   -4.6791 S   0  0  0  0  0  0  0  0  0  0  0  0
    1.4796    8.4110   -3.3810 C   0  0  0  0  0  0  0  0  0  0  0  0
    3.3305    5.5544   -3.5683 C   0  0  0  0  0  0  0  0  0  0  0  0
    3.1498    4.1893   -3.3539 C   0  0  0  0  0  0  0  0  0  0  0  0
    2.1457    0.5138   -1.7755 C   0  0  0  0  0  0  0  0  0  0  0  0
    1.5891   -1.0266   -2.1605 S   0  0  0  0  0  0  0  0  0  0  0  0
    2.0468   -1.7316   -0.6819 C   0  0  0  0  0  0  0  0  0  0  0  0
    2.6082   -0.7471    0.1449 C   0  0  0  0  0  0  0  0  0  0  0  0
    3.5559   -1.0542    1.1866 N   0  0  0  0  0  0  0  0  0  0  0  0
    3.1284   -1.2599    2.5469 C   0  0  0  0  0  0  0  0  0  0  0  0
    2.2095   -0.3876    3.1529 C   0  0  0  0  0  0  0  0  0  0  0  0
    1.8472   -0.5604    4.4914 C   0  0  0  0  0  0  0  0  0  0  0  0
    2.4134   -1.5959    5.2432 C   0  0  0  0  0  0  0  0  0  0  0  0
    1.9450   -1.8294    6.9592 S   0  0  0  0  0  0  0  0  0  0  0  0
    0.6543   -3.0552    6.5710 C   0  0  0  0  0  0  0  0  0  0  0  0
    3.3534   -2.4474    4.6583 C   0  0  0  0  0  0  0  0  0  0  0  0
    3.6958   -2.2952    3.3157 C   0  0  0  0  0  0  0  0  0  0  0  0
    4.9557   -1.1781    0.8418 C   0  0  0  0  0  0  0  0  0  0  0  0
    5.9483   -0.6374    1.6818 C   0  0  0  0  0  0  0  0  0  0  0  0
    7.3040   -0.7954    1.3754 C   0  0  0  0  0  0  0  0  0  0  0  0
    7.6833   -1.4895    0.2222 C   0  0  0  0  0  0  0  0  0  0  0  0
    9.4219   -1.6950   -0.1795 S   0  0  0  0  0  0  0  0  0  0  0  0
    9.5644   -3.3116    0.6505 C   0  0  0  0  0  0  0  0  0  0  0  0
    6.7084   -2.0120   -0.6306 C   0  0  0  0  0  0  0  0  0  0  0  0
    5.3549   -1.8569   -0.3286 C   0  0  0  0  0  0  0  0  0  0  0  0
    2.5868    0.5014   -0.4815 C   0  0  0  0  0  0  0  0  0  0  0  0
    2.2373    1.9914    0.1987 S   0  0  0  0  0  0  0  0  0  0  0  0
    1.6258   -3.0602   -0.2240 C   0  0  0  0  0  0  0  0  0  0  0  0
    0.3020   -3.4506    0.0354 C   0  0  0  0  0  0  0  0  0  0  0  0
   -0.8683   -2.6413   -0.1757 N   0  0  0  0  0  0  0  0  0  0  0  0
   -1.5804   -2.7022   -1.4373 C   0  0  0  0  0  0  0  0  0  0  0  0
   -1.2846   -3.6954   -2.3958 C   0  0  0  0  0  0  0  0  0  0  0  0
   -2.0571   -3.8199   -3.5516 C   0  0  0  0  0  0  0  0  0  0  0  0
   -3.1393   -2.9599   -3.7804 C   0  0  0  0  0  0  0  0  0  0  0  0
   -4.0391   -3.1700   -4.9573 C   0  0  0  0  0  0  0  0  0  0  0  0
   -3.4124   -1.9412   -2.8568 C   0  0  0  0  0  0  0  0  0  0  0  0
   -2.6240   -1.7930   -1.7131 C   0  0  0  0  0  0  0  0  0  0  0  0
   -1.5324   -2.1637    1.0076 C   0  0  0  0  0  0  0  0  0  0  0  0
   -2.7958   -2.6608    1.3768 C   0  0  0  0  0  0  0  0  0  0  0  0
   -3.3812   -2.2829    2.5868 C   0  0  0  0  0  0  0  0  0  0  0  0
   -2.7041   -1.4170    3.4577 C   0  0  0  0  0  0  0  0  0  0  0  0
   -3.3235   -1.0462    4.7706 C   0  0  0  0  0  0  0  0  0  0  0  0
   -1.4609   -0.8905    3.0765 C   0  0  0  0  0  0  0  0  0  0  0  0
   -0.8840   -1.2574    1.8575 C   0  0  0  0  0  0  0  0  0  0  0  0
    0.2512   -4.7187    0.5957 C   0  0  0  0  0  0  0  0  0  0  0  0
   -0.9759   -5.6748    1.2160 S   0  0  0  0  0  0  0  0  0  0  0  0
    0.0560   -6.9554    1.6676 C   0  0  0  0  0  0  0  0  0  0  0  0
    1.3787   -6.5925    1.3646 C   0  0  0  0  0  0  0  0  0  0  0  0
    2.5342   -7.3840    1.6823 N   0  0  0  0  0  0  0  0  0  0  0  0
    2.7029   -8.7022    1.1101 C   0  0  0  0  0  0  0  0  0  0  0  0
    2.1479   -9.0147   -0.1437 C   0  0  0  0  0  0  0  0  0  0  0  0
    2.3308  -10.2844   -0.7045 C   0  0  0  0  0  0  0  0  0  0  0  0
    3.0695  -11.2579   -0.0260 C   0  0  0  0  0  0  0  0  0  0  0  0
    3.2614  -12.6136   -0.6409 C   0  0  0  0  0  0  0  0  0  0  0  0
    3.6131  -10.9587    1.2320 C   0  0  0  0  0  0  0  0  0  0  0  0
    3.4315   -9.6914    1.7945 C   0  0  0  0  0  0  0  0  0  0  0  0
    3.5010   -6.8399    2.5959 C   0  0  0  0  0  0  0  0  0  0  0  0
    4.8552   -6.7618    2.2385 C   0  0  0  0  0  0  0  0  0  0  0  0
    5.7903   -6.2387    3.1369 C   0  0  0  0  0  0  0  0  0  0  0  0
    5.3861   -5.8130    4.4095 C   0  0  0  0  0  0  0  0  0  0  0  0
    6.3868   -5.2114    5.3453 C   0  0  0  0  0  0  0  0  0  0  0  0
    4.0312   -5.8962    4.7658 C   0  0  0  0  0  0  0  0  0  0  0  0
    3.0944   -6.3893    3.8558 C   0  0  0  0  0  0  0  0  0  0  0  0
    1.4421   -5.3328    0.7740 C   0  0  0  0  0  0  0  0  0  0  0  0
    2.6807   -4.3112    0.2607 S   0  0  0  0  0  0  0  0  0  0  0  0
   -0.3163   -8.0502    2.5912 C   0  0  0  0  0  0  0  0  0  0  0  0
   -1.5484   -8.5778    2.7033 C   0  0  0  0  0  0  0  0  0  0  0  0
   -2.6048   -8.5811    1.6798 C   0  0  0  0  0  0  0  0  0  0  0  0
   -2.5223   -8.0792    0.5297 O   0  0  0  0  0  0  0  0  0  0  0  0
   -3.6853   -9.4418    2.1379 C   0  0  0  0  0  0  0  0  0  0  0  0
   -4.8587   -9.8124    1.4692 C   0  0  0  0  0  0  0  0  0  0  0  0
   -5.2965   -9.0592   -0.0635 Cl  0  0  0  0  0  0  0  0  0  0  0  0
   -5.6876  -10.7885    2.0603 C   0  0  0  0  0  0  0  0  0  0  0  0
   -7.1979  -11.2415    1.2761 Cl  0  0  0  0  0  0  0  0  0  0  0  0
   -5.2804  -11.4379    3.2468 C   0  0  0  0  0  0  0  0  0  0  0  0
   -6.2670  -12.7375    3.9219 Cl  0  0  0  0  0  0  0  0  0  0  0  0
   -4.0812  -11.0604    3.8929 C   0  0  0  0  0  0  0  0  0  0  0  0
   -3.4426  -12.0617    5.2001 Cl  0  0  0  0  0  0  0  0  0  0  0  0
   -3.3381   -9.9854    3.3618 C   0  0  0  0  0  0  0  0  0  0  0  0
   -2.0796   -9.3642    3.8533 C   0  0  0  0  0  0  0  0  0  0  0  0
   -1.8107   -9.0867    5.1554 C   0  0  0  0  0  0  0  0  0  0  0  0
   -0.6631   -8.3105    5.5668 C   0  0  0  0  0  0  0  0  0  0  0  0
    0.2448   -7.6820    5.9035 N   0  0  0  0  0  0  0  0  0  0  0  0
   -2.8216   -9.2378    6.1762 C   0  0  0  0  0  0  0  0  0  0  0  0
   -3.6368   -9.3234    6.9959 N   0  0  0  0  0  0  0  0  0  0  0  0
   -4.1221    8.4338   -1.7041 H   0  0  0  0  0  0  0  0  0  0  0  0
   -2.3777    9.5050    4.1653 H   0  0  0  0  0  0  0  0  0  0  0  0
   -3.3877   13.6397    3.4436 H   0  0  0  0  0  0  0  0  0  0  0  0
   -4.3984   13.0395    1.2924 H   0  0  0  0  0  0  0  0  0  0  0  0
   -3.9294    3.4128   -1.7563 H   0  0  0  0  0  0  0  0  0  0  0  0
   -3.6733    1.1719   -2.7512 H   0  0  0  0  0  0  0  0  0  0  0  0
   -2.5073    0.5978   -6.3234 H   0  0  0  0  0  0  0  0  0  0  0  0
   -2.3076   -0.0719   -4.6700 H   0  0  0  0  0  0  0  0  0  0  0  0
   -3.9622    0.0657   -5.3923 H   0  0  0  0  0  0  0  0  0  0  0  0
   -2.6485    2.9715   -6.5341 H   0  0  0  0  0  0  0  0  0  0  0  0
   -2.8743    5.1997   -5.5346 H   0  0  0  0  0  0  0  0  0  0  0  0
   -2.5535    8.0234   -4.1502 H   0  0  0  0  0  0  0  0  0  0  0  0
   -3.9248    9.6484   -5.4083 H   0  0  0  0  0  0  0  0  0  0  0  0
   -6.7698    9.1905   -6.8721 H   0  0  0  0  0  0  0  0  0  0  0  0
   -7.6230    9.6898   -5.3593 H   0  0  0  0  0  0  0  0  0  0  0  0
   -6.1497   10.5736   -5.8821 H   0  0  0  0  0  0  0  0  0  0  0  0
   -7.4454    7.2913   -4.5910 H   0  0  0  0  0  0  0  0  0  0  0  0
   -6.0753    5.6942   -3.3140 H   0  0  0  0  0  0  0  0  0  0  0  0
    0.9828    5.6358    3.6370 H   0  0  0  0  0  0  0  0  0  0  0  0
   -0.4202    4.7433    5.4409 H   0  0  0  0  0  0  0  0  0  0  0  0
   -3.2041    2.3576    4.8960 H   0  0  0  0  0  0  0  0  0  0  0  0
   -1.7182    1.8328    5.7844 H   0  0  0  0  0  0  0  0  0  0  0  0
   -2.4255    3.4742    6.0713 H   0  0  0  0  0  0  0  0  0  0  0  0
   -2.0827    1.8388    2.7269 H   0  0  0  0  0  0  0  0  0  0  0  0
   -0.6597    2.6827    0.9381 H   0  0  0  0  0  0  0  0  0  0  0  0
    3.0233    4.0105    2.7572 H   0  0  0  0  0  0  0  0  0  0  0  0
    5.2104    5.0872    3.0818 H   0  0  0  0  0  0  0  0  0  0  0  0
    6.2291    7.7210    2.8325 H   0  0  0  0  0  0  0  0  0  0  0  0
    7.0273    6.5430    1.7173 H   0  0  0  0  0  0  0  0  0  0  0  0
    6.3789    8.0983    1.0798 H   0  0  0  0  0  0  0  0  0  0  0  0
    4.2301    7.9937    0.0517 H   0  0  0  0  0  0  0  0  0  0  0  0
    2.0396    6.9499   -0.2454 H   0  0  0  0  0  0  0  0  0  0  0  0
    4.1896    1.3300   -4.5549 H   0  0  0  0  0  0  0  0  0  0  0  0
    4.6202   -0.3475   -6.3093 H   0  0  0  0  0  0  0  0  0  0  0  0
    3.6845   -3.1351   -5.9443 H   0  0  0  0  0  0  0  0  0  0  0  0
    3.3607   -4.2628   -7.3043 H   0  0  0  0  0  0  0  0  0  0  0  0
    1.9775   -3.6040   -6.3517 H   0  0  0  0  0  0  0  0  0  0  0  0
    0.3790   -0.9422   -6.7929 H   0  0  0  0  0  0  0  0  0  0  0  0
   -0.0497    0.7590   -5.0384 H   0  0  0  0  0  0  0  0  0  0  0  0
    0.5743    3.6451   -5.5244 H   0  0  0  0  0  0  0  0  0  0  0  0
    0.9204    6.0595   -5.9188 H   0  0  0  0  0  0  0  0  0  0  0  0
    1.4793    9.5061   -3.2040 H   0  0  0  0  0  0  0  0  0  0  0  0
    0.4670    8.0968   -3.7128 H   0  0  0  0  0  0  0  0  0  0  0  0
    1.7361    7.8922   -2.4346 H   0  0  0  0  0  0  0  0  0  0  0  0
    4.0858    6.0911   -3.0052 H   0  0  0  0  0  0  0  0  0  0  0  0
    3.7705    3.6838   -2.6240 H   0  0  0  0  0  0  0  0  0  0  0  0
    1.7866    0.4390    2.5974 H   0  0  0  0  0  0  0  0  0  0  0  0
    1.1374    0.1150    4.9489 H   0  0  0  0  0  0  0  0  0  0  0  0
    0.1328   -3.3325    7.5121 H   0  0  0  0  0  0  0  0  0  0  0  0
   -0.0812   -2.6254    5.8612 H   0  0  0  0  0  0  0  0  0  0  0  0
    1.1150   -3.9685    6.1372 H   0  0  0  0  0  0  0  0  0  0  0  0
    3.8158   -3.2212    5.2478 H   0  0  0  0  0  0  0  0  0  0  0  0
    4.4124   -2.9762    2.8736 H   0  0  0  0  0  0  0  0  0  0  0  0
    5.6671   -0.0958    2.5765 H   0  0  0  0  0  0  0  0  0  0  0  0
    8.0516   -0.3760    2.0325 H   0  0  0  0  0  0  0  0  0  0  0  0
    9.5320   -3.1660    1.7500 H   0  0  0  0  0  0  0  0  0  0  0  0
   10.5379   -3.7700    0.3804 H   0  0  0  0  0  0  0  0  0  0  0  0
    8.7516   -3.9965    0.3341 H   0  0  0  0  0  0  0  0  0  0  0  0
    6.9962   -2.5513   -1.5260 H   0  0  0  0  0  0  0  0  0  0  0  0
    4.6313   -2.3020   -0.9911 H   0  0  0  0  0  0  0  0  0  0  0  0
   -0.4857   -4.4083   -2.2369 H   0  0  0  0  0  0  0  0  0  0  0  0
   -1.8278   -4.6070   -4.2578 H   0  0  0  0  0  0  0  0  0  0  0  0
   -4.9582   -3.7003   -4.6277 H   0  0  0  0  0  0  0  0  0  0  0  0
   -3.5392   -3.7748   -5.7448 H   0  0  0  0  0  0  0  0  0  0  0  0
   -4.3330   -2.1995   -5.4065 H   0  0  0  0  0  0  0  0  0  0  0  0
   -4.2444   -1.2684   -3.0146 H   0  0  0  0  0  0  0  0  0  0  0  0
   -2.8544   -0.9965   -1.0172 H   0  0  0  0  0  0  0  0  0  0  0  0
   -3.3101   -3.3652    0.7334 H   0  0  0  0  0  0  0  0  0  0  0  0
   -4.3540   -2.6789    2.8553 H   0  0  0  0  0  0  0  0  0  0  0  0
   -3.6810   -1.9596    5.2917 H   0  0  0  0  0  0  0  0  0  0  0  0
   -4.1836   -0.3659    4.6002 H   0  0  0  0  0  0  0  0  0  0  0  0
   -2.5900   -0.5402    5.4367 H   0  0  0  0  0  0  0  0  0  0  0  0
   -0.9414   -0.1925    3.7216 H   0  0  0  0  0  0  0  0  0  0  0  0
    0.0724   -0.8492    1.5669 H   0  0  0  0  0  0  0  0  0  0  0  0
    1.5813   -8.2750   -0.6994 H   0  0  0  0  0  0  0  0  0  0  0  0
    1.8961  -10.5031   -1.6727 H   0  0  0  0  0  0  0  0  0  0  0  0
    3.9353  -13.2497   -0.0238 H   0  0  0  0  0  0  0  0  0  0  0  0
    2.2800  -13.1242   -0.7342 H   0  0  0  0  0  0  0  0  0  0  0  0
    3.7115  -12.5070   -1.6517 H   0  0  0  0  0  0  0  0  0  0  0  0
    4.1783  -11.7031    1.7784 H   0  0  0  0  0  0  0  0  0  0  0  0
    3.8515   -9.4919    2.7733 H   0  0  0  0  0  0  0  0  0  0  0  0
    5.1790   -7.1002    1.2610 H   0  0  0  0  0  0  0  0  0  0  0  0
    6.8305   -6.1674    2.8349 H   0  0  0  0  0  0  0  0  0  0  0  0
    7.3240   -5.8096    5.3405 H   0  0  0  0  0  0  0  0  0  0  0  0
    6.6194   -4.1747    5.0190 H   0  0  0  0  0  0  0  0  0  0  0  0
    6.0015   -5.1818    6.3868 H   0  0  0  0  0  0  0  0  0  0  0  0
    3.6962   -5.5673    5.7419 H   0  0  0  0  0  0  0  0  0  0  0  0
    2.0498   -6.4374    4.1423 H   0  0  0  0  0  0  0  0  0  0  0  0
    0.4535   -8.3745    3.2744 H   0  0  0  0  0  0  0  0  0  0  0  0
  1  2  2  3
  2  3  1  0
  3  4  2  0
  3  5  1  0
  5  6  2  0
  6  7  1  0
  7  8  1  0
  7  9  2  0
  9 10  1  0
 10 11  2  0
 11 12  1  0
 12 13  2  3
 13 14  1  0
 14 15  3  0
 13 16  1  0
 16 17  3  0
  1 18  1  0
 18 19  2  0
 19 20  1  0
 20 21  1  0
 21 22  2  0
 22 23  1  0
 23 24  2  0
 24 25  1  0
 24 26  1  0
 26 27  2  0
 20 28  1  0
 28 29  2  0
 29 30  1  0
 30 31  2  0
 31 32  1  0
 31 33  1  0
 33 34  2  0
 19 35  1  0
 35 36  1  0
 36 37  1  0
 37 38  2  0
 38 39  1  0
 39 40  1  0
 40 41  2  0
 41 42  1  0
 42 43  2  0
 43 44  1  0
 43 45  1  0
 45 46  2  0
 39 47  1  0
 47 48  2  0
 48 49  1  0
 49 50  2  0
 50 51  1  0
 50 52  1  0
 52 53  2  0
 38 54  1  0
 54 55  1  0
 37 56  1  0
 56 57  2  0
 57 58  1  0
 58 59  1  0
 59 60  2  0
 60 61  1  0
 61 62  2  0
 62 63  1  0
 63 64  1  0
 62 65  1  0
 65 66  2  0
 58 67  1  0
 67 68  2  0
 68 69  1  0
 69 70  2  0
 70 71  1  0
 71 72  1  0
 70 73  1  0
 73 74  2  0
 57 75  1  0
 75 76  1  0
 76 77  1  0
 77 78  2  0
 78 79  1  0
 79 80  1  0
 80 81  2  0
 81 82  1  0
 82 83  2  0
 83 84  1  0
 84 85  1  0
 83 86  1  0
 86 87  2  0
 79 88  1  0
 88 89  2  0
 89 90  1  0
 90 91  2  0
 91 92  1  0
 92 93  1  0
 91 94  1  0
 94 95  2  0
 78 96  1  0
 96 97  1  0
 77 98  1  0
 98 99  2  0
 99100  1  0
100101  1  0
101102  2  0
102103  1  0
103104  2  0
104105  1  0
104106  1  0
106107  2  0
100108  1  0
108109  2  0
109110  1  0
110111  2  0
111112  1  0
111113  1  0
113114  2  0
 99115  1  0
115116  1  0
116117  1  0
117118  2  0
118119  1  0
119120  1  0
120121  2  0
121122  1  0
122123  2  0
123124  1  0
123125  1  0
125126  2  0
119127  1  0
127128  2  0
128129  1  0
129130  2  0
130131  1  0
130132  1  0
132133  2  0
118134  1  0
134135  1  0
117136  1  0
136137  2  3
137138  1  0
138139  2  0
138140  1  0
140141  2  0
141142  1  0
141143  1  0
143144  1  0
143145  2  0
145146  1  0
145147  1  0
147148  1  0
147149  2  0
149150  1  0
150151  2  3
151152  1  0
152153  3  0
151154  1  0
154155  3  0
 12  2  1  0
 55 18  1  0
 97 56  1  0
135 98  1  0
150137  1  0
 11  5  1  0
 27 21  1  0
 34 28  1  0
 54 35  2  0
 66 59  1  0
 74 67  1  0
 96 75  2  0
107101  1  0
114108  1  0
134115  2  0
149140  1  0
 46 40  1  0
 53 47  1  0
 87 80  1  0
 95 88  1  0
126120  1  0
133127  1  0
  1156  1  0
  6157  1  0
  9158  1  0
 10159  1  0
 22160  1  0
 23161  1  0
 25162  1  0
 25163  1  0
 25164  1  0
 26165  1  0
 27166  1  0
 29167  1  0
 30168  1  0
 32169  1  0
 32170  1  0
 32171  1  0
 33172  1  0
 34173  1  0
 41174  1  0
 42175  1  0
 44176  1  0
 44177  1  0
 44178  1  0
 45179  1  0
 46180  1  0
 48181  1  0
 49182  1  0
 51183  1  0
 51184  1  0
 51185  1  0
 52186  1  0
 53187  1  0
 60188  1  0
 61189  1  0
 64190  1  0
 64191  1  0
 64192  1  0
 65193  1  0
 66194  1  0
 68195  1  0
 69196  1  0
 72197  1  0
 72198  1  0
 72199  1  0
 73200  1  0
 74201  1  0
 81202  1  0
 82203  1  0
 85204  1  0
 85205  1  0
 85206  1  0
 86207  1  0
 87208  1  0
 89209  1  0
 90210  1  0
 93211  1  0
 93212  1  0
 93213  1  0
 94214  1  0
 95215  1  0
102216  1  0
103217  1  0
105218  1  0
105219  1  0
105220  1  0
106221  1  0
107222  1  0
109223  1  0
110224  1  0
112225  1  0
112226  1  0
112227  1  0
113228  1  0
114229  1  0
121230  1  0
122231  1  0
124232  1  0
124233  1  0
124234  1  0
125235  1  0
126236  1  0
128237  1  0
129238  1  0
131239  1  0
131240  1  0
131241  1  0
132242  1  0
133243  1  0
136244  1  0
M  END

