
     RDKit          3D

248268  0  0  0  0  0  0  0  0999 V2000
    8.0155    5.0280   -3.7609 C   0  0  0  0  0  0  0  0  0  0  0  0
    9.3247    4.8618   -3.4823 C   0  0  0  0  0  0  0  0  0  0  0  0
   10.3687    5.4273   -4.3345 C   0  0  0  0  0  0  0  0  0  0  0  0
   10.2097    6.3298   -5.2003 O   0  0  0  0  0  0  0  0  0  0  0  0
   11.6094    4.7348   -4.0633 C   0  0  0  0  0  0  0  0  0  0  0  0
   12.8599    4.9503   -4.6470 C   0  0  0  0  0  0  0  0  0  0  0  0
   13.9464    4.1840   -4.2038 C   0  0  0  0  0  0  0  0  0  0  0  0
   15.6710    4.4188   -4.9918 Br  0  0  0  0  0  0  0  0  0  0  0  0
   13.7681    3.2313   -3.1842 C   0  0  0  0  0  0  0  0  0  0  0  0
   12.5017    3.0293   -2.6076 C   0  0  0  0  0  0  0  0  0  0  0  0
   11.4082    3.7910   -3.0703 C   0  0  0  0  0  0  0  0  0  0  0  0
    9.9982    3.8677   -2.5872 C   0  0  0  0  0  0  0  0  0  0  0  0
    9.5335    3.3336   -1.4331 C   0  0  0  0  0  0  0  0  0  0  0  0
   10.0950    2.1362   -0.8651 C   0  0  0  0  0  0  0  0  0  0  0  0
   10.5267    1.1625   -0.4105 N   0  0  0  0  0  0  0  0  0  0  0  0
    8.5593    4.0081   -0.6149 C   0  0  0  0  0  0  0  0  0  0  0  0
    7.8014    4.5495    0.0709 N   0  0  0  0  0  0  0  0  0  0  0  0
    6.9216    4.3002   -3.1158 C   0  0  0  0  0  0  0  0  0  0  0  0
    6.5691    2.9406   -3.2591 C   0  0  0  0  0  0  0  0  0  0  0  0
    6.8538    2.1551   -4.4395 N   0  0  0  0  0  0  0  0  0  0  0  0
    8.1774    2.0896   -4.9801 C   0  0  0  0  0  0  0  0  0  0  0  0
    8.4847    2.7680   -6.1710 C   0  0  0  0  0  0  0  0  0  0  0  0
    9.7876    2.7520   -6.6679 C   0  0  0  0  0  0  0  0  0  0  0  0
   10.7952    2.0442   -5.9955 C   0  0  0  0  0  0  0  0  0  0  0  0
   12.2043    2.0636   -6.5077 C   0  0  0  0  0  0  0  0  0  0  0  0
   10.4676    1.3023   -4.8464 C   0  0  0  0  0  0  0  0  0  0  0  0
    9.1651    1.3348   -4.3365 C   0  0  0  0  0  0  0  0  0  0  0  0
    5.7597    1.6047   -5.2011 C   0  0  0  0  0  0  0  0  0  0  0  0
    5.7647    0.2491   -5.5568 C   0  0  0  0  0  0  0  0  0  0  0  0
    4.6355   -0.3277   -6.1488 C   0  0  0  0  0  0  0  0  0  0  0  0
    3.4973    0.4508   -6.4152 C   0  0  0  0  0  0  0  0  0  0  0  0
    2.2530   -0.1844   -6.9632 C   0  0  0  0  0  0  0  0  0  0  0  0
    3.5023    1.8139   -6.0836 C   0  0  0  0  0  0  0  0  0  0  0  0
    4.6281    2.3902   -5.4910 C   0  0  0  0  0  0  0  0  0  0  0  0
    5.4823    2.6433   -2.4330 C   0  0  0  0  0  0  0  0  0  0  0  0
    4.5210    1.3032   -2.2092 S   0  0  0  0  0  0  0  0  0  0  0  0
    3.3082    2.0744   -1.2783 C   0  0  0  0  0  0  0  0  0  0  0  0
    3.6743    3.4437   -1.1864 C   0  0  0  0  0  0  0  0  0  0  0  0
    2.8638    4.5419   -0.7354 N   0  0  0  0  0  0  0  0  0  0  0  0
    3.5398    5.4656    0.1599 C   0  0  0  0  0  0  0  0  0  0  0  0
    3.5957    6.8487   -0.1116 C   0  0  0  0  0  0  0  0  0  0  0  0
    4.3533    7.7024    0.6959 C   0  0  0  0  0  0  0  0  0  0  0  0
    5.0907    7.1898    1.7731 C   0  0  0  0  0  0  0  0  0  0  0  0
    5.8730    8.1054    2.6657 C   0  0  0  0  0  0  0  0  0  0  0  0
    5.0637    5.8148    2.0349 C   0  0  0  0  0  0  0  0  0  0  0  0
    4.3191    4.9622    1.2195 C   0  0  0  0  0  0  0  0  0  0  0  0
    1.7301    4.9607   -1.5494 C   0  0  0  0  0  0  0  0  0  0  0  0
    0.8076    5.9129   -1.0681 C   0  0  0  0  0  0  0  0  0  0  0  0
   -0.2543    6.3517   -1.8663 C   0  0  0  0  0  0  0  0  0  0  0  0
   -0.4318    5.8342   -3.1566 C   0  0  0  0  0  0  0  0  0  0  0  0
   -1.6064    6.2525   -3.9892 C   0  0  0  0  0  0  0  0  0  0  0  0
    0.4588    4.8690   -3.6386 C   0  0  0  0  0  0  0  0  0  0  0  0
    1.5358    4.4455   -2.8541 C   0  0  0  0  0  0  0  0  0  0  0  0
    4.9003    3.6914   -1.8166 C   0  0  0  0  0  0  0  0  0  0  0  0
    5.7387    5.0942   -2.1898 S   0  0  0  0  0  0  0  0  0  0  0  0
    2.1343    1.2851   -0.7921 C   0  0  0  0  0  0  0  0  0  0  0  0
    1.0501    1.5732    0.0876 C   0  0  0  0  0  0  0  0  0  0  0  0
    0.7495    2.8173    0.7524 N   0  0  0  0  0  0  0  0  0  0  0  0
   -0.5969    3.3233    0.5633 C   0  0  0  0  0  0  0  0  0  0  0  0
   -1.1571    3.3640   -0.7281 C   0  0  0  0  0  0  0  0  0  0  0  0
   -2.4586    3.8341   -0.9251 C   0  0  0  0  0  0  0  0  0  0  0  0
   -3.2322    4.2413    0.1653 C   0  0  0  0  0  0  0  0  0  0  0  0
   -4.8695    4.9158   -0.1020 S   0  0  0  0  0  0  0  0  0  0  0  0
   -4.2688    6.6332   -0.1598 C   0  0  0  0  0  0  0  0  0  0  0  0
   -2.7195    4.1327    1.4606 C   0  0  0  0  0  0  0  0  0  0  0  0
   -1.4177    3.6657    1.6622 C   0  0  0  0  0  0  0  0  0  0  0  0
    1.5284    3.2268    1.9051 C   0  0  0  0  0  0  0  0  0  0  0  0
    1.4078    4.5364    2.4221 C   0  0  0  0  0  0  0  0  0  0  0  0
    2.1002    4.9210    3.5729 C   0  0  0  0  0  0  0  0  0  0  0  0
    2.9286    4.0057    4.2297 C   0  0  0  0  0  0  0  0  0  0  0  0
    3.8051    4.5086    5.7128 S   0  0  0  0  0  0  0  0  0  0  0  0
    2.3905    4.1621    6.7996 C   0  0  0  0  0  0  0  0  0  0  0  0
    3.0658    2.7067    3.7285 C   0  0  0  0  0  0  0  0  0  0  0  0
    2.3789    2.3190    2.5726 C   0  0  0  0  0  0  0  0  0  0  0  0
    0.2289    0.4530    0.2646 C   0  0  0  0  0  0  0  0  0  0  0  0
   -1.1891    0.1587    1.1088 S   0  0  0  0  0  0  0  0  0  0  0  0
   -1.3367   -1.4534    0.5867 C   0  0  0  0  0  0  0  0  0  0  0  0
   -0.2680   -1.7542   -0.2658 C   0  0  0  0  0  0  0  0  0  0  0  0
   -0.0267   -3.0342   -0.8674 N   0  0  0  0  0  0  0  0  0  0  0  0
    1.0223   -3.8937   -0.3562 C   0  0  0  0  0  0  0  0  0  0  0  0
    1.4719   -5.0162   -1.0871 C   0  0  0  0  0  0  0  0  0  0  0  0
    2.4930   -5.8323   -0.5865 C   0  0  0  0  0  0  0  0  0  0  0  0
    3.0810   -5.5477    0.6496 C   0  0  0  0  0  0  0  0  0  0  0  0
    4.3394   -6.6403    1.3155 S   0  0  0  0  0  0  0  0  0  0  0  0
    5.7108   -5.7793    0.4905 C   0  0  0  0  0  0  0  0  0  0  0  0
    2.6501   -4.4408    1.3848 C   0  0  0  0  0  0  0  0  0  0  0  0
    1.6294   -3.6256    0.8928 C   0  0  0  0  0  0  0  0  0  0  0  0
   -0.6097   -3.2572   -2.1578 C   0  0  0  0  0  0  0  0  0  0  0  0
   -1.8923   -3.8126   -2.2693 C   0  0  0  0  0  0  0  0  0  0  0  0
   -2.4942   -3.9391   -3.5240 C   0  0  0  0  0  0  0  0  0  0  0  0
   -1.8053   -3.5349   -4.6760 C   0  0  0  0  0  0  0  0  0  0  0  0
   -2.5874   -3.6682   -6.2820 S   0  0  0  0  0  0  0  0  0  0  0  0
   -3.1550   -1.9375   -6.2751 C   0  0  0  0  0  0  0  0  0  0  0  0
   -0.5038   -3.0245   -4.5703 C   0  0  0  0  0  0  0  0  0  0  0  0
    0.0888   -2.8802   -3.3165 C   0  0  0  0  0  0  0  0  0  0  0  0
    0.5830   -0.6626   -0.4074 C   0  0  0  0  0  0  0  0  0  0  0  0
    1.9650   -0.3519   -1.2744 S   0  0  0  0  0  0  0  0  0  0  0  0
   -2.5599   -2.2228    0.7998 C   0  0  0  0  0  0  0  0  0  0  0  0
   -2.9630   -2.6777    2.0652 C   0  0  0  0  0  0  0  0  0  0  0  0
   -2.0769   -3.2918    3.0143 N   0  0  0  0  0  0  0  0  0  0  0  0
   -2.1599   -2.8678    4.3882 C   0  0  0  0  0  0  0  0  0  0  0  0
   -2.0642   -1.5039    4.7112 C   0  0  0  0  0  0  0  0  0  0  0  0
   -2.2473   -1.0761    6.0268 C   0  0  0  0  0  0  0  0  0  0  0  0
   -2.5182   -2.0066    7.0423 C   0  0  0  0  0  0  0  0  0  0  0  0
   -2.7934   -1.5377    8.4377 C   0  0  0  0  0  0  0  0  0  0  0  0
   -2.6205   -3.3686    6.7219 C   0  0  0  0  0  0  0  0  0  0  0  0
   -2.4373   -3.7979    5.4057 C   0  0  0  0  0  0  0  0  0  0  0  0
   -1.3773   -4.5101    2.6430 C   0  0  0  0  0  0  0  0  0  0  0  0
   -1.8566   -5.3275    1.5934 C   0  0  0  0  0  0  0  0  0  0  0  0
   -1.1898   -6.5014    1.2427 C   0  0  0  0  0  0  0  0  0  0  0  0
   -0.0370   -6.8949    1.9318 C   0  0  0  0  0  0  0  0  0  0  0  0
    0.6569   -8.1715    1.5573 C   0  0  0  0  0  0  0  0  0  0  0  0
    0.4252   -6.1112    2.9982 C   0  0  0  0  0  0  0  0  0  0  0  0
   -0.2250   -4.9197    3.3412 C   0  0  0  0  0  0  0  0  0  0  0  0
   -4.3527   -2.7111    2.1818 C   0  0  0  0  0  0  0  0  0  0  0  0
   -5.4278   -2.9798    3.4376 S   0  0  0  0  0  0  0  0  0  0  0  0
   -6.8188   -2.6453    2.5101 C   0  0  0  0  0  0  0  0  0  0  0  0
   -6.4180   -2.3418    1.1935 C   0  0  0  0  0  0  0  0  0  0  0  0
   -7.2936   -2.4407    0.0533 N   0  0  0  0  0  0  0  0  0  0  0  0
   -8.0041   -3.6829   -0.1536 C   0  0  0  0  0  0  0  0  0  0  0  0
   -7.3982   -4.9165    0.1531 C   0  0  0  0  0  0  0  0  0  0  0  0
   -8.0727   -6.1150   -0.0905 C   0  0  0  0  0  0  0  0  0  0  0  0
   -9.3477   -6.1041   -0.6701 C   0  0  0  0  0  0  0  0  0  0  0  0
  -10.0907   -7.3934   -0.8736 C   0  0  0  0  0  0  0  0  0  0  0  0
   -9.9453   -4.8775   -0.9946 C   0  0  0  0  0  0  0  0  0  0  0  0
   -9.2803   -3.6734   -0.7369 C   0  0  0  0  0  0  0  0  0  0  0  0
   -7.0612   -1.5770   -1.0743 C   0  0  0  0  0  0  0  0  0  0  0  0
   -6.6949   -2.1173   -2.3204 C   0  0  0  0  0  0  0  0  0  0  0  0
   -6.3523   -1.2801   -3.3818 C   0  0  0  0  0  0  0  0  0  0  0  0
   -6.3879    0.1135   -3.2217 C   0  0  0  0  0  0  0  0  0  0  0  0
   -5.9794    1.0180   -4.3460 C   0  0  0  0  0  0  0  0  0  0  0  0
   -6.7511    0.6556   -1.9797 C   0  0  0  0  0  0  0  0  0  0  0  0
   -7.0849   -0.1840   -0.9131 C   0  0  0  0  0  0  0  0  0  0  0  0
   -5.0320   -2.3583    1.0689 C   0  0  0  0  0  0  0  0  0  0  0  0
   -3.9527   -1.9151   -0.1337 S   0  0  0  0  0  0  0  0  0  0  0  0
   -7.9733   -1.9946    3.1411 C   0  0  0  0  0  0  0  0  0  0  0  0
   -8.9825   -2.6225    3.7779 C   0  0  0  0  0  0  0  0  0  0  0  0
   -9.3721   -4.0155    3.4368 C   0  0  0  0  0  0  0  0  0  0  0  0
   -8.5245   -4.8295    2.9727 O   0  0  0  0  0  0  0  0  0  0  0  0
  -10.7464   -4.4146    3.5807 N   0  0  0  0  0  0  0  0  0  0  0  0
  -11.3524   -5.3654    2.6397 C   0  0  0  0  0  0  0  0  0  0  0  0
  -12.1689   -4.6162    1.5821 C   0  0  0  0  0  0  0  0  0  0  0  0
  -11.5642   -3.7094    4.5254 C   0  0  0  0  0  0  0  0  0  0  0  0
  -12.7965   -3.9768    4.6317 O   0  0  0  0  0  0  0  0  0  0  0  0
  -10.9227   -2.7082    5.4491 C   0  0  0  0  0  0  0  0  0  0  0  0
  -11.9477   -1.8882    6.1321 C   0  0  0  0  0  0  0  0  0  0  0  0
  -12.7331   -1.2435    6.6893 N   0  0  0  0  0  0  0  0  0  0  0  0
   -9.9115   -1.8065    4.6819 C   0  0  0  0  0  0  0  0  0  0  0  0
   -9.0920   -0.9902    5.7102 C   0  0  0  0  0  0  0  0  0  0  0  0
    7.7304    5.7796   -4.4835 H   0  0  0  0  0  0  0  0  0  0  0  0
   12.9865    5.6901   -5.4276 H   0  0  0  0  0  0  0  0  0  0  0  0
   14.6059    2.6367   -2.8413 H   0  0  0  0  0  0  0  0  0  0  0  0
   12.4174    2.3032   -1.8247 H   0  0  0  0  0  0  0  0  0  0  0  0
    7.7249    3.3425   -6.6814 H   0  0  0  0  0  0  0  0  0  0  0  0
   10.0179    3.3139   -7.5653 H   0  0  0  0  0  0  0  0  0  0  0  0
   12.9204    1.9297   -5.6708 H   0  0  0  0  0  0  0  0  0  0  0  0
   12.4278    3.0379   -6.9918 H   0  0  0  0  0  0  0  0  0  0  0  0
   12.3468    1.2456   -7.2409 H   0  0  0  0  0  0  0  0  0  0  0  0
   11.2290    0.7321   -4.3250 H   0  0  0  0  0  0  0  0  0  0  0  0
    8.9270    0.7950   -3.4287 H   0  0  0  0  0  0  0  0  0  0  0  0
    6.6188   -0.3704   -5.3181 H   0  0  0  0  0  0  0  0  0  0  0  0
    4.6386   -1.3875   -6.3685 H   0  0  0  0  0  0  0  0  0  0  0  0
    2.5014   -1.0726   -7.5820 H   0  0  0  0  0  0  0  0  0  0  0  0
    1.6030   -0.5005   -6.1207 H   0  0  0  0  0  0  0  0  0  0  0  0
    1.6933    0.5360   -7.5995 H   0  0  0  0  0  0  0  0  0  0  0  0
    2.6250    2.4247   -6.2592 H   0  0  0  0  0  0  0  0  0  0  0  0
    4.6021    3.4398   -5.2153 H   0  0  0  0  0  0  0  0  0  0  0  0
    3.0965    7.2658   -0.9746 H   0  0  0  0  0  0  0  0  0  0  0  0
    4.3828    8.7609    0.4718 H   0  0  0  0  0  0  0  0  0  0  0  0
    6.2327    8.9932    2.1015 H   0  0  0  0  0  0  0  0  0  0  0  0
    5.2286    8.4470    3.5036 H   0  0  0  0  0  0  0  0  0  0  0  0
    6.7611    7.5846    3.0845 H   0  0  0  0  0  0  0  0  0  0  0  0
    5.6266    5.4001    2.8621 H   0  0  0  0  0  0  0  0  0  0  0  0
    4.3605    3.8981    1.4045 H   0  0  0  0  0  0  0  0  0  0  0  0
    0.9104    6.3299   -0.0759 H   0  0  0  0  0  0  0  0  0  0  0  0
   -0.9444    7.0826   -1.4655 H   0  0  0  0  0  0  0  0  0  0  0  0
   -2.4015    5.4807   -3.9238 H   0  0  0  0  0  0  0  0  0  0  0  0
   -2.0186    7.2248   -3.6437 H   0  0  0  0  0  0  0  0  0  0  0  0
   -1.3010    6.3680   -5.0512 H   0  0  0  0  0  0  0  0  0  0  0  0
    0.3212    4.4399   -4.6223 H   0  0  0  0  0  0  0  0  0  0  0  0
    2.2105    3.7145   -3.2764 H   0  0  0  0  0  0  0  0  0  0  0  0
   -0.5752    3.0434   -1.5826 H   0  0  0  0  0  0  0  0  0  0  0  0
   -2.8592    3.8954   -1.9285 H   0  0  0  0  0  0  0  0  0  0  0  0
   -3.4403    6.7323   -0.8922 H   0  0  0  0  0  0  0  0  0  0  0  0
   -3.9191    6.9442    0.8466 H   0  0  0  0  0  0  0  0  0  0  0  0
   -5.0982    7.2967   -0.4744 H   0  0  0  0  0  0  0  0  0  0  0  0
   -3.3228    4.4185    2.3112 H   0  0  0  0  0  0  0  0  0  0  0  0
   -1.0607    3.5564    2.6768 H   0  0  0  0  0  0  0  0  0  0  0  0
    0.7776    5.2690    1.9369 H   0  0  0  0  0  0  0  0  0  0  0  0
    1.9993    5.9328    3.9461 H   0  0  0  0  0  0  0  0  0  0  0  0
    2.2063    3.0698    6.8340 H   0  0  0  0  0  0  0  0  0  0  0  0
    1.4829    4.6821    6.4309 H   0  0  0  0  0  0  0  0  0  0  0  0
    2.6196    4.5281    7.8180 H   0  0  0  0  0  0  0  0  0  0  0  0
    3.7109    1.9966    4.2295 H   0  0  0  0  0  0  0  0  0  0  0  0
    2.4994    1.3050    2.2176 H   0  0  0  0  0  0  0  0  0  0  0  0
    1.0384   -5.2687   -2.0460 H   0  0  0  0  0  0  0  0  0  0  0  0
    2.8193   -6.6935   -1.1556 H   0  0  0  0  0  0  0  0  0  0  0  0
    5.8613   -4.7781    0.9428 H   0  0  0  0  0  0  0  0  0  0  0  0
    5.5048   -5.6692   -0.5930 H   0  0  0  0  0  0  0  0  0  0  0  0
    6.6301   -6.3814    0.6182 H   0  0  0  0  0  0  0  0  0  0  0  0
    3.0876   -4.2273    2.3528 H   0  0  0  0  0  0  0  0  0  0  0  0
    1.3049   -2.7931    1.5040 H   0  0  0  0  0  0  0  0  0  0  0  0
   -2.4270   -4.1355   -1.3847 H   0  0  0  0  0  0  0  0  0  0  0  0
   -3.4966   -4.3419   -3.6000 H   0  0  0  0  0  0  0  0  0  0  0  0
   -3.8005   -1.7631   -7.1589 H   0  0  0  0  0  0  0  0  0  0  0  0
   -3.7351   -1.7195   -5.3563 H   0  0  0  0  0  0  0  0  0  0  0  0
   -2.2805   -1.2561   -6.3270 H   0  0  0  0  0  0  0  0  0  0  0  0
    0.0351   -2.7142   -5.4537 H   0  0  0  0  0  0  0  0  0  0  0  0
    1.0854   -2.4661   -3.2360 H   0  0  0  0  0  0  0  0  0  0  0  0
   -1.8676   -0.7705    3.9370 H   0  0  0  0  0  0  0  0  0  0  0  0
   -2.1848   -0.0188    6.2540 H   0  0  0  0  0  0  0  0  0  0  0  0
   -3.8811   -1.3463    8.5553 H   0  0  0  0  0  0  0  0  0  0  0  0
   -2.2345   -0.6037    8.6544 H   0  0  0  0  0  0  0  0  0  0  0  0
   -2.4785   -2.3050    9.1756 H   0  0  0  0  0  0  0  0  0  0  0  0
   -2.8568   -4.0978    7.4867 H   0  0  0  0  0  0  0  0  0  0  0  0
   -2.5492   -4.8478    5.1683 H   0  0  0  0  0  0  0  0  0  0  0  0
   -2.7611   -5.0694    1.0552 H   0  0  0  0  0  0  0  0  0  0  0  0
   -1.5804   -7.1069    0.4343 H   0  0  0  0  0  0  0  0  0  0  0  0
    1.6966   -8.1903    1.9428 H   0  0  0  0  0  0  0  0  0  0  0  0
    0.6951   -8.2740    0.4511 H   0  0  0  0  0  0  0  0  0  0  0  0
    0.0987   -9.0330    1.9813 H   0  0  0  0  0  0  0  0  0  0  0  0
    1.3046   -6.4069    3.5537 H   0  0  0  0  0  0  0  0  0  0  0  0
    0.1732   -4.3118    4.1450 H   0  0  0  0  0  0  0  0  0  0  0  0
   -6.4007   -4.9511    0.5732 H   0  0  0  0  0  0  0  0  0  0  0  0
   -7.5986   -7.0535    0.1781 H   0  0  0  0  0  0  0  0  0  0  0  0
   -9.3826   -8.2272   -1.0668 H   0  0  0  0  0  0  0  0  0  0  0  0
  -10.7750   -7.3149   -1.7438 H   0  0  0  0  0  0  0  0  0  0  0  0
  -10.6821   -7.6238    0.0366 H   0  0  0  0  0  0  0  0  0  0  0  0
  -10.9400   -4.8552   -1.4251 H   0  0  0  0  0  0  0  0  0  0  0  0
   -9.7637   -2.7363   -0.9862 H   0  0  0  0  0  0  0  0  0  0  0  0
   -6.6243   -3.1920   -2.4556 H   0  0  0  0  0  0  0  0  0  0  0  0
   -6.0474   -1.7197   -4.3237 H   0  0  0  0  0  0  0  0  0  0  0  0
   -6.6696    1.8855   -4.4098 H   0  0  0  0  0  0  0  0  0  0  0  0
   -6.0046    0.4812   -5.3195 H   0  0  0  0  0  0  0  0  0  0  0  0
   -4.9472    1.3863   -4.1671 H   0  0  0  0  0  0  0  0  0  0  0  0
   -6.7693    1.7324   -1.8359 H   0  0  0  0  0  0  0  0  0  0  0  0
   -7.3445    0.2488    0.0465 H   0  0  0  0  0  0  0  0  0  0  0  0
   -7.8808   -0.9192    3.2233 H   0  0  0  0  0  0  0  0  0  0  0  0
  -10.5720   -5.9767    2.1273 H   0  0  0  0  0  0  0  0  0  0  0  0
  -12.0174   -6.0707    3.1919 H   0  0  0  0  0  0  0  0  0  0  0  0
  -12.5182   -5.3315    0.8075 H   0  0  0  0  0  0  0  0  0  0  0  0
  -13.0557   -4.1318    2.0431 H   0  0  0  0  0  0  0  0  0  0  0  0
  -11.5391   -3.8309    1.1072 H   0  0  0  0  0  0  0  0  0  0  0  0
  -10.3770   -3.2848    6.2300 H   0  0  0  0  0  0  0  0  0  0  0  0
  -10.4773   -1.0981    4.0351 H   0  0  0  0  0  0  0  0  0  0  0  0
   -9.7502   -0.4563    6.4290 H   0  0  0  0  0  0  0  0  0  0  0  0
   -8.4780   -0.2097    5.2200 H   0  0  0  0  0  0  0  0  0  0  0  0
   -8.4218   -1.6585    6.2924 H   0  0  0  0  0  0  0  0  0  0  0  0
  1  2  2  3
  2  3  1  0
  3  4  2  0
  3  5  1  0
  5  6  2  0
  6  7  1  0
  7  8  1  0
  7  9  2  0
  9 10  1  0
 10 11  2  0
 11 12  1  0
 12 13  2  3
 13 14  1  0
 14 15  3  0
 13 16  1  0
 16 17  3  0
  1 18  1  0
 18 19  2  0
 19 20  1  0
 20 21  1  0
 21 22  2  0
 22 23  1  0
 23 24  2  0
 24 25  1  0
 24 26  1  0
 26 27  2  0
 20 28  1  0
 28 29  2  0
 29 30  1  0
 30 31  2  0
 31 32  1  0
 31 33  1  0
 33 34  2  0
 19 35  1  0
 35 36  1  0
 36 37  1  0
 37 38  2  0
 38 39  1  0
 39 40  1  0
 40 41  2  0
 41 42  1  0
 42 43  2  0
 43 44  1  0
 43 45  1  0
 45 46  2  0
 39 47  1  0
 47 48  2  0
 48 49  1  0
 49 50  2  0
 50 51  1  0
 50 52  1  0
 52 53  2  0
 38 54  1  0
 54 55  1  0
 37 56  1  0
 56 57  2  0
 57 58  1  0
 58 59  1  0
 59 60  2  0
 60 61  1  0
 61 62  2  0
 62 63  1  0
 63 64  1  0
 62 65  1  0
 65 66  2  0
 58 67  1  0
 67 68  2  0
 68 69  1  0
 69 70  2  0
 70 71  1  0
 71 72  1  0
 70 73  1  0
 73 74  2  0
 57 75  1  0
 75 76  1  0
 76 77  1  0
 77 78  2  0
 78 79  1  0
 79 80  1  0
 80 81  2  0
 81 82  1  0
 82 83  2  0
 83 84  1  0
 84 85  1  0
 83 86  1  0
 86 87  2  0
 79 88  1  0
 88 89  2  0
 89 90  1  0
 90 91  2  0
 91 92  1  0
 92 93  1  0
 91 94  1  0
 94 95  2  0
 78 96  1  0
 96 97  1  0
 77 98  1  0
 98 99  2  0
 99100  1  0
100101  1  0
101102  2  0
102103  1  0
103104  2  0
104105  1  0
104106  1  0
106107  2  0
100108  1  0
108109  2  0
109110  1  0
110111  2  0
111112  1  0
111113  1  0
113114  2  0
 99115  1  0
115116  1  0
116117  1  0
117118  2  0
118119  1  0
119120  1  0
120121  2  0
121122  1  0
122123  2  0
123124  1  0
123125  1  0
125126  2  0
119127  1  0
127128  2  0
128129  1  0
129130  2  0
130131  1  0
130132  1  0
132133  2  0
118134  1  0
134135  1  0
117136  1  0
136137  2  3
137138  1  0
138139  2  0
138140  1  0
140141  1  0
141142  1  0
140143  1  0
143144  2  0
143145  1  0
145146  1  0
146147  3  0
145148  1  0
148149  1  0
 12  2  1  0
 55 18  1  0
 97 56  1  0
135 98  1  0
148137  1  0
 11  5  1  0
 27 21  1  0
 34 28  1  0
 54 35  2  0
 66 59  1  0
 74 67  1  0
 96 75  2  0
107101  1  0
114108  1  0
134115  2  0
 46 40  1  0
 53 47  1  0
 87 80  1  0
 95 88  1  0
126120  1  0
133127  1  0
  1150  1  0
  6151  1  0
  9152  1  0
 10153  1  0
 22154  1  0
 23155  1  0
 25156  1  0
 25157  1  0
 25158  1  0
 26159  1  0
 27160  1  0
 29161  1  0
 30162  1  0
 32163  1  0
 32164  1  0
 32165  1  0
 33166  1  0
 34167  1  0
 41168  1  0
 42169  1  0
 44170  1  0
 44171  1  0
 44172  1  0
 45173  1  0
 46174  1  0
 48175  1  0
 49176  1  0
 51177  1  0
 51178  1  0
 51179  1  0
 52180  1  0
 53181  1  0
 60182  1  0
 61183  1  0
 64184  1  0
 64185  1  0
 64186  1  0
 65187  1  0
 66188  1  0
 68189  1  0
 69190  1  0
 72191  1  0
 72192  1  0
 72193  1  0
 73194  1  0
 74195  1  0
 81196  1  0
 82197  1  0
 85198  1  0
 85199  1  0
 85200  1  0
 86201  1  0
 87202  1  0
 89203  1  0
 90204  1  0
 93205  1  0
 93206  1  0
 93207  1  0
 94208  1  0
 95209  1  0
102210  1  0
103211  1  0
105212  1  0
105213  1  0
105214  1  0
106215  1  0
107216  1  0
109217  1  0
110218  1  0
112219  1  0
112220  1  0
112221  1  0
113222  1  0
114223  1  0
121224  1  0
122225  1  0
124226  1  0
124227  1  0
124228  1  0
125229  1  0
126230  1  0
128231  1  0
129232  1  0
131233  1  0
131234  1  0
131235  1  0
132236  1  0
133237  1  0
136238  1  0
141239  1  0
141240  1  0
142241  1  0
142242  1  0
142243  1  0
145244  1  0
148245  1  0
149246  1  0
149247  1  0
149248  1  0
M  END

