
     RDKit          3D

222241  0  0  0  0  0  0  0  0999 V2000
   -1.9687   -7.2264   -3.4434 C   0  0  0  0  0  0  0  0  0  0  0  0
   -3.0717   -7.2501   -4.2305 C   0  0  0  0  0  0  0  0  0  0  0  0
   -4.3272   -6.5146   -4.0274 C   0  0  0  0  0  0  0  0  0  0  0  0
   -4.4869   -5.4510   -3.3684 O   0  0  0  0  0  0  0  0  0  0  0  0
   -5.3630   -7.1751   -4.7705 C   0  0  0  0  0  0  0  0  0  0  0  0
   -6.7313   -6.8976   -4.7581 C   0  0  0  0  0  0  0  0  0  0  0  0
   -7.5773   -7.6879   -5.5633 C   0  0  0  0  0  0  0  0  0  0  0  0
   -9.4620   -7.3647   -5.5939 Br  0  0  0  0  0  0  0  0  0  0  0  0
   -7.0386   -8.7424   -6.3204 C   0  0  0  0  0  0  0  0  0  0  0  0
   -5.6476   -8.9776   -6.3482 C   0  0  0  0  0  0  0  0  0  0  0  0
   -4.8113   -8.1811   -5.5514 C   0  0  0  0  0  0  0  0  0  0  0  0
   -3.3379   -8.2094   -5.3685 C   0  0  0  0  0  0  0  0  0  0  0  0
   -2.4131   -8.8140   -6.1507 C   0  0  0  0  0  0  0  0  0  0  0  0
   -1.0492   -8.3657   -6.0919 C   0  0  0  0  0  0  0  0  0  0  0  0
    0.0688   -8.0471   -6.0105 N   0  0  0  0  0  0  0  0  0  0  0  0
   -2.7545   -9.6180   -7.2988 C   0  0  0  0  0  0  0  0  0  0  0  0
   -3.0379  -10.2455   -8.2361 N   0  0  0  0  0  0  0  0  0  0  0  0
   -1.7043   -6.3152   -2.3035 C   0  0  0  0  0  0  0  0  0  0  0  0
   -0.4313   -5.7932   -1.9946 C   0  0  0  0  0  0  0  0  0  0  0  0
    0.6981   -5.7979   -2.8825 N   0  0  0  0  0  0  0  0  0  0  0  0
    0.8648   -4.7093   -3.8215 C   0  0  0  0  0  0  0  0  0  0  0  0
   -0.2222   -4.2421   -4.5844 C   0  0  0  0  0  0  0  0  0  0  0  0
   -0.0379   -3.2342   -5.5322 C   0  0  0  0  0  0  0  0  0  0  0  0
    1.2307   -2.6703   -5.7361 C   0  0  0  0  0  0  0  0  0  0  0  0
    1.4103   -1.6030   -6.7776 C   0  0  0  0  0  0  0  0  0  0  0  0
    2.3113   -3.1129   -4.9560 C   0  0  0  0  0  0  0  0  0  0  0  0
    2.1311   -4.1200   -4.0110 C   0  0  0  0  0  0  0  0  0  0  0  0
    1.7006   -6.8321   -2.7702 C   0  0  0  0  0  0  0  0  0  0  0  0
    2.0353   -7.3820   -1.5226 C   0  0  0  0  0  0  0  0  0  0  0  0
    3.0223   -8.3666   -1.4153 C   0  0  0  0  0  0  0  0  0  0  0  0
    3.6866   -8.8269   -2.5670 C   0  0  0  0  0  0  0  0  0  0  0  0
    4.7291   -9.8998   -2.4558 C   0  0  0  0  0  0  0  0  0  0  0  0
    3.3433   -8.2998   -3.8169 C   0  0  0  0  0  0  0  0  0  0  0  0
    2.3705   -7.3007   -3.9177 C   0  0  0  0  0  0  0  0  0  0  0  0
   -0.4820   -4.9925   -0.8593 C   0  0  0  0  0  0  0  0  0  0  0  0
    0.5676   -3.9028   -0.1807 S   0  0  0  0  0  0  0  0  0  0  0  0
   -0.5587   -3.1683    0.8850 C   0  0  0  0  0  0  0  0  0  0  0  0
   -1.8018   -3.8276    0.6732 C   0  0  0  0  0  0  0  0  0  0  0  0
   -3.0961   -3.2879    1.0038 N   0  0  0  0  0  0  0  0  0  0  0  0
   -3.8389   -3.7843    2.1421 C   0  0  0  0  0  0  0  0  0  0  0  0
   -4.8024   -2.9692    2.7514 C   0  0  0  0  0  0  0  0  0  0  0  0
   -5.4948   -3.4026    3.8827 C   0  0  0  0  0  0  0  0  0  0  0  0
   -5.2549   -4.6830    4.4056 C   0  0  0  0  0  0  0  0  0  0  0  0
   -5.9638   -5.1103    5.6598 C   0  0  0  0  0  0  0  0  0  0  0  0
   -4.2921   -5.5041    3.8040 C   0  0  0  0  0  0  0  0  0  0  0  0
   -3.5821   -5.0644    2.6835 C   0  0  0  0  0  0  0  0  0  0  0  0
   -3.7847   -2.5441   -0.0243 C   0  0  0  0  0  0  0  0  0  0  0  0
   -3.1494   -1.4714   -0.6661 C   0  0  0  0  0  0  0  0  0  0  0  0
   -3.8049   -0.7577   -1.6701 C   0  0  0  0  0  0  0  0  0  0  0  0
   -5.1114   -1.1044   -2.0443 C   0  0  0  0  0  0  0  0  0  0  0  0
   -5.8088   -0.3156   -3.1088 C   0  0  0  0  0  0  0  0  0  0  0  0
   -5.7387   -2.2085   -1.4384 C   0  0  0  0  0  0  0  0  0  0  0  0
   -5.0824   -2.9196   -0.4352 C   0  0  0  0  0  0  0  0  0  0  0  0
   -1.6868   -4.8498   -0.2734 C   0  0  0  0  0  0  0  0  0  0  0  0
   -2.8125   -5.7688   -1.1156 S   0  0  0  0  0  0  0  0  0  0  0  0
   -0.2941   -1.8445    1.5539 C   0  0  0  0  0  0  0  0  0  0  0  0
    0.8610   -1.1031    1.2056 C   0  0  0  0  0  0  0  0  0  0  0  0
    2.0324   -1.7119    0.8897 N   0  0  0  0  0  0  0  0  0  0  0  0
    3.1450   -1.0198    0.5460 C   0  0  0  0  0  0  0  0  0  0  0  0
    4.4500   -1.7138    0.6258 C   0  0  0  0  0  0  0  0  0  0  0  0
    5.4422   -1.2206    1.5048 C   0  0  0  0  0  0  0  0  0  0  0  0
    6.5992   -1.9627    1.7417 C   0  0  0  0  0  0  0  0  0  0  0  0
    6.7570   -3.2234    1.1646 C   0  0  0  0  0  0  0  0  0  0  0  0
    7.8802   -3.9948    1.4877 O   0  0  0  0  0  0  0  0  0  0  0  0
    7.8148   -5.0572    2.4429 C   0  0  0  0  0  0  0  0  0  0  0  0
    7.7080   -4.5029    3.8681 C   0  0  0  0  0  0  0  0  0  0  0  0
    5.7847   -3.7160    0.2746 C   0  0  0  0  0  0  0  0  0  0  0  0
    4.6345   -2.9691    0.0086 C   0  0  0  0  0  0  0  0  0  0  0  0
    3.6951   -3.4703   -0.8428 F   0  0  0  0  0  0  0  0  0  0  0  0
    5.9597   -4.9321   -0.3111 F   0  0  0  0  0  0  0  0  0  0  0  0
    7.5368   -1.4796    2.5965 F   0  0  0  0  0  0  0  0  0  0  0  0
    5.2515   -0.0622    2.1817 F   0  0  0  0  0  0  0  0  0  0  0  0
    3.0381    0.3697    0.3688 C   0  0  0  0  0  0  0  0  0  0  0  0
    4.1194    1.1581   -0.2761 C   0  0  0  0  0  0  0  0  0  0  0  0
    4.6423    0.7289   -1.5080 C   0  0  0  0  0  0  0  0  0  0  0  0
    4.1006   -0.3470   -2.1558 F   0  0  0  0  0  0  0  0  0  0  0  0
    5.7037    1.4061   -2.1013 C   0  0  0  0  0  0  0  0  0  0  0  0
    6.1773    0.9890   -3.3042 F   0  0  0  0  0  0  0  0  0  0  0  0
    6.2679    2.5279   -1.4583 C   0  0  0  0  0  0  0  0  0  0  0  0
    7.3838    3.1807   -1.9935 O   0  0  0  0  0  0  0  0  0  0  0  0
    8.6310    2.5203   -2.2497 C   0  0  0  0  0  0  0  0  0  0  0  0
    9.4085    2.3593   -0.9470 C   0  0  0  0  0  0  0  0  0  0  0  0
    5.6949    3.0025   -0.2717 C   0  0  0  0  0  0  0  0  0  0  0  0
    6.2342    4.0970    0.3419 F   0  0  0  0  0  0  0  0  0  0  0  0
    4.6298    2.3247    0.3199 C   0  0  0  0  0  0  0  0  0  0  0  0
    4.1213    2.7736    1.5010 F   0  0  0  0  0  0  0  0  0  0  0  0
    1.9230    0.9999    0.8186 N   0  0  0  0  0  0  0  0  0  0  0  0
    0.8553    0.2973    1.3029 C   0  0  0  0  0  0  0  0  0  0  0  0
   -0.2095    0.9454    1.9547 C   0  0  0  0  0  0  0  0  0  0  0  0
   -1.1927    0.1735    2.5947 C   0  0  0  0  0  0  0  0  0  0  0  0
   -1.2299   -1.2130    2.3930 C   0  0  0  0  0  0  0  0  0  0  0  0
   -2.1411   -1.9247    3.0900 F   0  0  0  0  0  0  0  0  0  0  0  0
   -2.1114    0.7669    3.3929 F   0  0  0  0  0  0  0  0  0  0  0  0
   -0.1835    2.4096    2.0819 C   0  0  0  0  0  0  0  0  0  0  0  0
   -0.2390    3.2998    1.0018 C   0  0  0  0  0  0  0  0  0  0  0  0
   -0.9174    3.0247   -0.2289 N   0  0  0  0  0  0  0  0  0  0  0  0
   -0.2033    2.8792   -1.4744 C   0  0  0  0  0  0  0  0  0  0  0  0
   -0.7923    2.2000   -2.5596 C   0  0  0  0  0  0  0  0  0  0  0  0
   -0.1115    2.0592   -3.7675 C   0  0  0  0  0  0  0  0  0  0  0  0
    1.1617    2.6249   -3.9370 C   0  0  0  0  0  0  0  0  0  0  0  0
    1.8941    2.4639   -5.2288 C   0  0  0  0  0  0  0  0  0  0  0  0
    1.7684    3.2930   -2.8564 C   0  0  0  0  0  0  0  0  0  0  0  0
    1.1013    3.4041   -1.6345 C   0  0  0  0  0  0  0  0  0  0  0  0
   -2.3476    3.1253   -0.2131 C   0  0  0  0  0  0  0  0  0  0  0  0
   -3.1211    2.1035    0.3638 C   0  0  0  0  0  0  0  0  0  0  0  0
   -4.4908    2.2883    0.5726 C   0  0  0  0  0  0  0  0  0  0  0  0
   -5.1060    3.4967    0.2134 C   0  0  0  0  0  0  0  0  0  0  0  0
   -6.5704    3.7089    0.4647 C   0  0  0  0  0  0  0  0  0  0  0  0
   -4.3563    4.4953   -0.4478 C   0  0  0  0  0  0  0  0  0  0  0  0
   -2.9823    4.3077   -0.6448 C   0  0  0  0  0  0  0  0  0  0  0  0
    0.0728    4.5851    1.4198 C   0  0  0  0  0  0  0  0  0  0  0  0
    0.0090    6.0673    0.6734 S   0  0  0  0  0  0  0  0  0  0  0  0
    0.3302    6.9408    2.0944 C   0  0  0  0  0  0  0  0  0  0  0  0
    0.4375    6.0430    3.1820 C   0  0  0  0  0  0  0  0  0  0  0  0
    0.2842    6.4246    4.5666 N   0  0  0  0  0  0  0  0  0  0  0  0
   -0.8672    7.2089    4.9407 C   0  0  0  0  0  0  0  0  0  0  0  0
   -0.7443    8.2352    5.8860 C   0  0  0  0  0  0  0  0  0  0  0  0
   -1.8696    8.9850    6.2668 C   0  0  0  0  0  0  0  0  0  0  0  0
   -3.1256    8.7006    5.7099 C   0  0  0  0  0  0  0  0  0  0  0  0
   -4.3390    9.4443    6.1702 C   0  0  0  0  0  0  0  0  0  0  0  0
   -3.2537    7.6590    4.7836 C   0  0  0  0  0  0  0  0  0  0  0  0
   -2.1312    6.9131    4.4007 C   0  0  0  0  0  0  0  0  0  0  0  0
    1.0001    5.6958    5.5801 C   0  0  0  0  0  0  0  0  0  0  0  0
    2.3941    5.5492    5.5004 C   0  0  0  0  0  0  0  0  0  0  0  0
    3.0796    4.7912    6.4607 C   0  0  0  0  0  0  0  0  0  0  0  0
    2.3707    4.1612    7.5018 C   0  0  0  0  0  0  0  0  0  0  0  0
    3.0750    3.2934    8.4997 C   0  0  0  0  0  0  0  0  0  0  0  0
    0.9836    4.3067    7.5742 C   0  0  0  0  0  0  0  0  0  0  0  0
    0.2996    5.0783    6.6301 C   0  0  0  0  0  0  0  0  0  0  0  0
    0.3192    4.7256    2.7467 C   0  0  0  0  0  0  0  0  0  0  0  0
    0.1919    3.2334    3.5089 S   0  0  0  0  0  0  0  0  0  0  0  0
    0.2906    8.4074    2.2336 C   0  0  0  0  0  0  0  0  0  0  0  0
   -0.1482    9.2132    1.2656 C   0  0  0  0  0  0  0  0  0  0  0  0
   -1.5141    9.7408    1.3277 C   0  0  0  0  0  0  0  0  0  0  0  0
   -2.1319   10.0537    2.3855 O   0  0  0  0  0  0  0  0  0  0  0  0
   -2.0630    9.7866   -0.0148 C   0  0  0  0  0  0  0  0  0  0  0  0
   -3.3844    9.9921   -0.4337 C   0  0  0  0  0  0  0  0  0  0  0  0
   -4.6601   10.3745    0.7229 Cl  0  0  0  0  0  0  0  0  0  0  0  0
   -3.6889    9.8022   -1.7935 C   0  0  0  0  0  0  0  0  0  0  0  0
   -5.3479   10.0051   -2.3526 Cl  0  0  0  0  0  0  0  0  0  0  0  0
   -2.6824    9.3940   -2.7076 C   0  0  0  0  0  0  0  0  0  0  0  0
   -3.1168    9.1162   -4.4037 Cl  0  0  0  0  0  0  0  0  0  0  0  0
   -1.3760    9.1399   -2.2473 C   0  0  0  0  0  0  0  0  0  0  0  0
   -0.1367    8.5081   -3.3400 Cl  0  0  0  0  0  0  0  0  0  0  0  0
   -1.0915    9.3672   -0.8912 C   0  0  0  0  0  0  0  0  0  0  0  0
    0.1512    9.0386   -0.1787 C   0  0  0  0  0  0  0  0  0  0  0  0
    1.3343    9.4475   -0.6611 C   0  0  0  0  0  0  0  0  0  0  0  0
    2.5486    8.6925   -0.3882 C   0  0  0  0  0  0  0  0  0  0  0  0
    3.5259    8.0944   -0.2006 N   0  0  0  0  0  0  0  0  0  0  0  0
    1.4884   10.8226   -1.0570 C   0  0  0  0  0  0  0  0  0  0  0  0
    1.6341   11.9645   -1.2583 N   0  0  0  0  0  0  0  0  0  0  0  0
   -1.1746   -7.9241   -3.6528 H   0  0  0  0  0  0  0  0  0  0  0  0
   -7.1391   -6.0879   -4.1677 H   0  0  0  0  0  0  0  0  0  0  0  0
   -7.6696   -9.3432   -6.9606 H   0  0  0  0  0  0  0  0  0  0  0  0
   -5.2596   -9.7700   -6.9697 H   0  0  0  0  0  0  0  0  0  0  0  0
   -1.2044   -4.6694   -4.4588 H   0  0  0  0  0  0  0  0  0  0  0  0
   -0.8839   -2.8881   -6.1189 H   0  0  0  0  0  0  0  0  0  0  0  0
    0.9936   -1.9584   -7.7491 H   0  0  0  0  0  0  0  0  0  0  0  0
    0.8709   -0.6795   -6.4698 H   0  0  0  0  0  0  0  0  0  0  0  0
    2.4821   -1.3531   -6.9329 H   0  0  0  0  0  0  0  0  0  0  0  0
    3.2903   -2.6653   -5.0940 H   0  0  0  0  0  0  0  0  0  0  0  0
    2.9846   -4.4417   -3.4244 H   0  0  0  0  0  0  0  0  0  0  0  0
    1.5479   -7.0348   -0.6206 H   0  0  0  0  0  0  0  0  0  0  0  0
    3.2747   -8.7629   -0.4385 H   0  0  0  0  0  0  0  0  0  0  0  0
    5.3587   -9.7279   -1.5563 H   0  0  0  0  0  0  0  0  0  0  0  0
    5.3922   -9.8946   -3.3463 H   0  0  0  0  0  0  0  0  0  0  0  0
    4.2404  -10.8940   -2.3705 H   0  0  0  0  0  0  0  0  0  0  0  0
    3.8414   -8.6444   -4.7196 H   0  0  0  0  0  0  0  0  0  0  0  0
    2.1384   -6.9000   -4.8915 H   0  0  0  0  0  0  0  0  0  0  0  0
   -4.9879   -1.9749    2.3698 H   0  0  0  0  0  0  0  0  0  0  0  0
   -6.2206   -2.7414    4.3362 H   0  0  0  0  0  0  0  0  0  0  0  0
   -7.0049   -4.7262    5.6664 H   0  0  0  0  0  0  0  0  0  0  0  0
   -5.9979   -6.2166    5.7300 H   0  0  0  0  0  0  0  0  0  0  0  0
   -5.4210   -4.7024    6.5353 H   0  0  0  0  0  0  0  0  0  0  0  0
   -4.0825   -6.4879    4.2166 H   0  0  0  0  0  0  0  0  0  0  0  0
   -2.8515   -5.7261    2.2364 H   0  0  0  0  0  0  0  0  0  0  0  0
   -2.1510   -1.1819   -0.3991 H   0  0  0  0  0  0  0  0  0  0  0  0
   -3.3008    0.0735   -2.1488 H   0  0  0  0  0  0  0  0  0  0  0  0
   -6.8662   -0.6456   -3.2365 H   0  0  0  0  0  0  0  0  0  0  0  0
   -5.8058    0.7666   -2.8424 H   0  0  0  0  0  0  0  0  0  0  0  0
   -5.2674   -0.4485   -4.0716 H   0  0  0  0  0  0  0  0  0  0  0  0
   -6.7442   -2.5132   -1.7365 H   0  0  0  0  0  0  0  0  0  0  0  0
   -5.5694   -3.7785    0.0165 H   0  0  0  0  0  0  0  0  0  0  0  0
    6.9406   -5.7133    2.2331 H   0  0  0  0  0  0  0  0  0  0  0  0
    8.7322   -5.6667    2.3698 H   0  0  0  0  0  0  0  0  0  0  0  0
    8.5450   -3.7910    4.0554 H   0  0  0  0  0  0  0  0  0  0  0  0
    7.7735   -5.3377    4.6007 H   0  0  0  0  0  0  0  0  0  0  0  0
    6.7360   -3.9801    4.0073 H   0  0  0  0  0  0  0  0  0  0  0  0
    9.2201    3.1351   -2.9518 H   0  0  0  0  0  0  0  0  0  0  0  0
    8.4760    1.5213   -2.7095 H   0  0  0  0  0  0  0  0  0  0  0  0
    8.8333    1.7441   -0.2323 H   0  0  0  0  0  0  0  0  0  0  0  0
   10.3805    1.8603   -1.1572 H   0  0  0  0  0  0  0  0  0  0  0  0
    9.6079    3.3588   -0.5032 H   0  0  0  0  0  0  0  0  0  0  0  0
   -1.7845    1.7770   -2.4669 H   0  0  0  0  0  0  0  0  0  0  0  0
   -0.5853    1.5284   -4.5860 H   0  0  0  0  0  0  0  0  0  0  0  0
    2.6252    3.2943   -5.3884 H   0  0  0  0  0  0  0  0  0  0  0  0
    1.1823    2.4692   -6.0832 H   0  0  0  0  0  0  0  0  0  0  0  0
    2.4450    1.4972   -5.2253 H   0  0  0  0  0  0  0  0  0  0  0  0
    2.7622    3.7287   -2.9617 H   0  0  0  0  0  0  0  0  0  0  0  0
    1.5888    3.9349   -0.8265 H   0  0  0  0  0  0  0  0  0  0  0  0
   -2.6711    1.1698    0.6480 H   0  0  0  0  0  0  0  0  0  0  0  0
   -5.0755    1.4969    1.0206 H   0  0  0  0  0  0  0  0  0  0  0  0
   -7.1647    3.4569   -0.4437 H   0  0  0  0  0  0  0  0  0  0  0  0
   -6.9143    3.0677    1.3045 H   0  0  0  0  0  0  0  0  0  0  0  0
   -6.7636    4.7678    0.7487 H   0  0  0  0  0  0  0  0  0  0  0  0
   -4.8263    5.4204   -0.7639 H   0  0  0  0  0  0  0  0  0  0  0  0
   -2.3947    5.0876   -1.1101 H   0  0  0  0  0  0  0  0  0  0  0  0
    0.2183    8.4693    6.3214 H   0  0  0  0  0  0  0  0  0  0  0  0
   -1.7624    9.7700    7.0066 H   0  0  0  0  0  0  0  0  0  0  0  0
   -4.7595    8.9467    7.0741 H   0  0  0  0  0  0  0  0  0  0  0  0
   -5.1181    9.4580    5.3734 H   0  0  0  0  0  0  0  0  0  0  0  0
   -4.0845   10.4998    6.4135 H   0  0  0  0  0  0  0  0  0  0  0  0
   -4.2212    7.4011    4.3733 H   0  0  0  0  0  0  0  0  0  0  0  0
   -2.2545    6.1002    3.7024 H   0  0  0  0  0  0  0  0  0  0  0  0
    2.9544    6.0226    4.6999 H   0  0  0  0  0  0  0  0  0  0  0  0
    4.1525    4.6716    6.3788 H   0  0  0  0  0  0  0  0  0  0  0  0
    2.7417    3.5695    9.5234 H   0  0  0  0  0  0  0  0  0  0  0  0
    4.1796    3.4169    8.4459 H   0  0  0  0  0  0  0  0  0  0  0  0
    2.8270    2.2284    8.3107 H   0  0  0  0  0  0  0  0  0  0  0  0
    0.4243    3.8033    8.3550 H   0  0  0  0  0  0  0  0  0  0  0  0
   -0.7780    5.1412    6.6894 H   0  0  0  0  0  0  0  0  0  0  0  0
    0.5034    8.8606    3.1983 H   0  0  0  0  0  0  0  0  0  0  0  0
  1  2  2  3
  2  3  1  0
  3  4  2  0
  3  5  1  0
  5  6  2  0
  6  7  1  0
  7  8  1  0
  7  9  2  0
  9 10  1  0
 10 11  2  0
 11 12  1  0
 12 13  2  3
 13 14  1  0
 14 15  3  0
 13 16  1  0
 16 17  3  0
  1 18  1  0
 18 19  2  0
 19 20  1  0
 20 21  1  0
 21 22  2  0
 22 23  1  0
 23 24  2  0
 24 25  1  0
 24 26  1  0
 26 27  2  0
 20 28  1  0
 28 29  2  0
 29 30  1  0
 30 31  2  0
 31 32  1  0
 31 33  1  0
 33 34  2  0
 19 35  1  0
 35 36  1  0
 36 37  1  0
 37 38  2  0
 38 39  1  0
 39 40  1  0
 40 41  2  0
 41 42  1  0
 42 43  2  0
 43 44  1  0
 43 45  1  0
 45 46  2  0
 39 47  1  0
 47 48  2  0
 48 49  1  0
 49 50  2  0
 50 51  1  0
 50 52  1  0
 52 53  2  0
 38 54  1  0
 54 55  1  0
 37 56  1  0
 56 57  1  0
 57 58  2  0
 58 59  1  0
 59 60  1  0
 60 61  2  0
 61 62  1  0
 62 63  2  0
 63 64  1  0
 64 65  1  0
 65 66  1  0
 63 67  1  0
 67 68  2  0
 68 69  1  0
 67 70  1  0
 62 71  1  0
 61 72  1  0
 59 73  2  0
 73 74  1  0
 74 75  2  0
 75 76  1  0
 75 77  1  0
 77 78  1  0
 77 79  2  0
 79 80  1  0
 80 81  1  0
 81 82  1  0
 79 83  1  0
 83 84  1  0
 83 85  2  0
 85 86  1  0
 73 87  1  0
 87 88  2  0
 88 89  1  0
 89 90  2  0
 90 91  1  0
 91 92  1  0
 90 93  1  0
 89 94  1  0
 94 95  2  0
 95 96  1  0
 96 97  1  0
 97 98  2  0
 98 99  1  0
 99100  2  0
100101  1  0
100102  1  0
102103  2  0
 96104  1  0
104105  2  0
105106  1  0
106107  2  0
107108  1  0
107109  1  0
109110  2  0
 95111  1  0
111112  1  0
112113  1  0
113114  2  0
114115  1  0
115116  1  0
116117  2  0
117118  1  0
118119  2  0
119120  1  0
119121  1  0
121122  2  0
115123  1  0
123124  2  0
124125  1  0
125126  2  0
126127  1  0
126128  1  0
128129  2  0
114130  1  0
130131  1  0
113132  1  0
132133  2  3
133134  1  0
134135  2  0
134136  1  0
136137  2  0
137138  1  0
137139  1  0
139140  1  0
139141  2  0
141142  1  0
141143  1  0
143144  1  0
143145  2  0
145146  1  0
146147  2  3
147148  1  0
148149  3  0
147150  1  0
150151  3  0
 12  2  1  0
 55 18  1  0
 91 56  2  0
131 94  1  0
146133  1  0
 11  5  1  0
 27 21  1  0
 34 28  1  0
 54 35  2  0
 88 57  1  0
103 97  1  0
110104  1  0
130111  2  0
145136  1  0
 46 40  1  0
 53 47  1  0
 68 60  1  0
 85 74  1  0
122116  1  0
129123  1  0
  1152  1  0
  6153  1  0
  9154  1  0
 10155  1  0
 22156  1  0
 23157  1  0
 25158  1  0
 25159  1  0
 25160  1  0
 26161  1  0
 27162  1  0
 29163  1  0
 30164  1  0
 32165  1  0
 32166  1  0
 32167  1  0
 33168  1  0
 34169  1  0
 41170  1  0
 42171  1  0
 44172  1  0
 44173  1  0
 44174  1  0
 45175  1  0
 46176  1  0
 48177  1  0
 49178  1  0
 51179  1  0
 51180  1  0
 51181  1  0
 52182  1  0
 53183  1  0
 65184  1  0
 65185  1  0
 66186  1  0
 66187  1  0
 66188  1  0
 81189  1  0
 81190  1  0
 82191  1  0
 82192  1  0
 82193  1  0
 98194  1  0
 99195  1  0
101196  1  0
101197  1  0
101198  1  0
102199  1  0
103200  1  0
105201  1  0
106202  1  0
108203  1  0
108204  1  0
108205  1  0
109206  1  0
110207  1  0
117208  1  0
118209  1  0
120210  1  0
120211  1  0
120212  1  0
121213  1  0
122214  1  0
124215  1  0
125216  1  0
127217  1  0
127218  1  0
127219  1  0
128220  1  0
129221  1  0
132222  1  0
M  END

