
     RDKit          3D

192208  0  0  0  0  0  0  0  0999 V2000
   -8.1809   -5.8231   -0.3987 C   0  0  0  0  0  0  0  0  0  0  0  0
   -7.8738   -6.4622   -1.5496 C   0  0  0  0  0  0  0  0  0  0  0  0
   -8.3570   -7.8026   -1.8714 C   0  0  0  0  0  0  0  0  0  0  0  0
   -9.3433   -8.3806   -1.3440 O   0  0  0  0  0  0  0  0  0  0  0  0
   -7.4467   -8.3950   -2.8355 C   0  0  0  0  0  0  0  0  0  0  0  0
   -7.4638   -9.6815   -3.3761 C   0  0  0  0  0  0  0  0  0  0  0  0
   -6.4532  -10.0432   -4.2800 C   0  0  0  0  0  0  0  0  0  0  0  0
   -6.4499  -11.7850   -5.0620 Br  0  0  0  0  0  0  0  0  0  0  0  0
   -5.4394   -9.1247   -4.6075 C   0  0  0  0  0  0  0  0  0  0  0  0
   -5.4356   -7.8340   -4.0537 C   0  0  0  0  0  0  0  0  0  0  0  0
   -6.4649   -7.4716   -3.1721 C   0  0  0  0  0  0  0  0  0  0  0  0
   -6.7562   -6.1773   -2.5047 C   0  0  0  0  0  0  0  0  0  0  0  0
   -6.3752   -4.9508   -2.9471 C   0  0  0  0  0  0  0  0  0  0  0  0
   -7.1670   -3.7759   -2.6884 C   0  0  0  0  0  0  0  0  0  0  0  0
   -7.7978   -2.8236   -2.5031 N   0  0  0  0  0  0  0  0  0  0  0  0
   -5.2227   -4.7472   -3.7833 C   0  0  0  0  0  0  0  0  0  0  0  0
   -4.2917   -4.5595   -4.4441 N   0  0  0  0  0  0  0  0  0  0  0  0
   -7.3640   -4.7316    0.1688 C   0  0  0  0  0  0  0  0  0  0  0  0
   -5.9672   -4.8605    0.2714 C   0  0  0  0  0  0  0  0  0  0  0  0
   -5.3600   -6.0564    0.0627 F   0  0  0  0  0  0  0  0  0  0  0  0
   -5.1849   -3.7372    0.5172 C   0  0  0  0  0  0  0  0  0  0  0  0
   -5.7824   -2.4860    0.7050 C   0  0  0  0  0  0  0  0  0  0  0  0
   -7.1788   -2.3830    0.7517 C   0  0  0  0  0  0  0  0  0  0  0  0
   -7.9712   -3.5123    0.5099 C   0  0  0  0  0  0  0  0  0  0  0  0
   -4.9585   -1.2892    0.5315 C   0  0  0  0  0  0  0  0  0  0  0  0
   -4.5170   -0.4044    1.5282 C   0  0  0  0  0  0  0  0  0  0  0  0
   -4.8206   -0.5664    2.9223 N   0  0  0  0  0  0  0  0  0  0  0  0
   -6.0136    0.0349    3.4914 C   0  0  0  0  0  0  0  0  0  0  0  0
   -6.8555    0.8565    2.7120 C   0  0  0  0  0  0  0  0  0  0  0  0
   -8.0163    1.4125    3.2580 C   0  0  0  0  0  0  0  0  0  0  0  0
   -8.3622    1.1552    4.5852 C   0  0  0  0  0  0  0  0  0  0  0  0
   -9.8713    1.8431    5.2695 S   0  0  0  0  0  0  0  0  0  0  0  0
  -10.9126    0.4645    4.6971 C   0  0  0  0  0  0  0  0  0  0  0  0
   -7.5275    0.3652    5.3778 C   0  0  0  0  0  0  0  0  0  0  0  0
   -6.3592   -0.1825    4.8430 C   0  0  0  0  0  0  0  0  0  0  0  0
   -4.0916   -1.5958    3.6161 C   0  0  0  0  0  0  0  0  0  0  0  0
   -4.7008   -2.8268    3.8965 C   0  0  0  0  0  0  0  0  0  0  0  0
   -3.9673   -3.8579    4.4915 C   0  0  0  0  0  0  0  0  0  0  0  0
   -2.6201   -3.6700    4.8056 C   0  0  0  0  0  0  0  0  0  0  0  0
   -1.6706   -5.0116    5.5194 S   0  0  0  0  0  0  0  0  0  0  0  0
   -1.1370   -5.6572    3.9045 C   0  0  0  0  0  0  0  0  0  0  0  0
   -2.0091   -2.4367    4.5444 C   0  0  0  0  0  0  0  0  0  0  0  0
   -2.7402   -1.4062    3.9463 C   0  0  0  0  0  0  0  0  0  0  0  0
   -3.5366    0.4617    1.0309 C   0  0  0  0  0  0  0  0  0  0  0  0
   -2.4054    1.4980    1.7256 S   0  0  0  0  0  0  0  0  0  0  0  0
   -1.4639    1.6446    0.3084 C   0  0  0  0  0  0  0  0  0  0  0  0
   -2.0318    0.8514   -0.7033 C   0  0  0  0  0  0  0  0  0  0  0  0
   -1.3396    0.4190   -1.8888 N   0  0  0  0  0  0  0  0  0  0  0  0
   -1.2887    1.2968   -3.0285 C   0  0  0  0  0  0  0  0  0  0  0  0
   -0.0901    1.4478   -3.7425 C   0  0  0  0  0  0  0  0  0  0  0  0
   -0.0384    2.2569   -4.8797 C   0  0  0  0  0  0  0  0  0  0  0  0
   -1.1946    2.9027   -5.3327 C   0  0  0  0  0  0  0  0  0  0  0  0
   -1.1305    3.9306   -6.8033 S   0  0  0  0  0  0  0  0  0  0  0  0
   -1.4915    2.5511   -7.9328 C   0  0  0  0  0  0  0  0  0  0  0  0
   -2.4037    2.7219   -4.6521 C   0  0  0  0  0  0  0  0  0  0  0  0
   -2.4516    1.9238   -3.5031 C   0  0  0  0  0  0  0  0  0  0  0  0
   -0.9715   -0.9753   -2.0227 C   0  0  0  0  0  0  0  0  0  0  0  0
   -1.0983   -1.6389   -3.2602 C   0  0  0  0  0  0  0  0  0  0  0  0
   -0.8133   -3.0019   -3.3665 C   0  0  0  0  0  0  0  0  0  0  0  0
   -0.3994   -3.7234   -2.2432 C   0  0  0  0  0  0  0  0  0  0  0  0
   -0.0425   -5.4744   -2.3862 S   0  0  0  0  0  0  0  0  0  0  0  0
    1.7121   -5.2045   -2.7767 C   0  0  0  0  0  0  0  0  0  0  0  0
   -0.2803   -3.0821   -1.0090 C   0  0  0  0  0  0  0  0  0  0  0  0
   -0.5680   -1.7196   -0.8967 C   0  0  0  0  0  0  0  0  0  0  0  0
   -3.1988    0.2423   -0.2654 C   0  0  0  0  0  0  0  0  0  0  0  0
   -4.1024   -1.0042   -0.9061 S   0  0  0  0  0  0  0  0  0  0  0  0
   -0.0858    2.1455    0.2920 C   0  0  0  0  0  0  0  0  0  0  0  0
    0.3121    3.4749    0.0728 C   0  0  0  0  0  0  0  0  0  0  0  0
   -0.5198    4.6229    0.2986 N   0  0  0  0  0  0  0  0  0  0  0  0
   -0.8515    4.9895    1.6587 C   0  0  0  0  0  0  0  0  0  0  0  0
    0.0358    4.7103    2.7154 C   0  0  0  0  0  0  0  0  0  0  0  0
   -0.2635    5.1057    4.0201 C   0  0  0  0  0  0  0  0  0  0  0  0
   -1.4556    5.7816    4.2923 C   0  0  0  0  0  0  0  0  0  0  0  0
   -1.8234    6.3129    5.9641 S   0  0  0  0  0  0  0  0  0  0  0  0
   -2.5629    4.7229    6.4457 C   0  0  0  0  0  0  0  0  0  0  0  0
   -2.3562    6.0467    3.2540 C   0  0  0  0  0  0  0  0  0  0  0  0
   -2.0573    5.6536    1.9457 C   0  0  0  0  0  0  0  0  0  0  0  0
   -0.7803    5.5212   -0.7985 C   0  0  0  0  0  0  0  0  0  0  0  0
   -1.1819    5.0143   -2.0415 C   0  0  0  0  0  0  0  0  0  0  0  0
   -1.4282    5.8739   -3.1137 C   0  0  0  0  0  0  0  0  0  0  0  0
   -1.2545    7.2516   -2.9611 C   0  0  0  0  0  0  0  0  0  0  0  0
   -1.5531    8.3516   -4.3461 S   0  0  0  0  0  0  0  0  0  0  0  0
    0.1323    8.1723   -5.0112 C   0  0  0  0  0  0  0  0  0  0  0  0
   -0.8452    7.7686   -1.7259 C   0  0  0  0  0  0  0  0  0  0  0  0
   -0.6074    6.9092   -0.6494 C   0  0  0  0  0  0  0  0  0  0  0  0
    1.6809    3.5587   -0.1664 C   0  0  0  0  0  0  0  0  0  0  0  0
    2.7058    4.7665   -0.7149 S   0  0  0  0  0  0  0  0  0  0  0  0
    4.0710    3.7468   -0.7932 C   0  0  0  0  0  0  0  0  0  0  0  0
    3.7027    2.4470   -0.3967 C   0  0  0  0  0  0  0  0  0  0  0  0
    4.5296    1.2755   -0.5263 N   0  0  0  0  0  0  0  0  0  0  0  0
    4.8574    0.8264   -1.8566 C   0  0  0  0  0  0  0  0  0  0  0  0
    3.8688    0.7964   -2.8527 C   0  0  0  0  0  0  0  0  0  0  0  0
    4.1698    0.3469   -4.1395 C   0  0  0  0  0  0  0  0  0  0  0  0
    5.4715   -0.0533   -4.4525 C   0  0  0  0  0  0  0  0  0  0  0  0
    5.8691   -0.5967   -6.1140 S   0  0  0  0  0  0  0  0  0  0  0  0
    6.0285    1.0980   -6.7650 C   0  0  0  0  0  0  0  0  0  0  0  0
    6.4681   -0.0192   -3.4689 C   0  0  0  0  0  0  0  0  0  0  0  0
    6.1595    0.4071   -2.1719 C   0  0  0  0  0  0  0  0  0  0  0  0
    4.8290    0.4711    0.6417 C   0  0  0  0  0  0  0  0  0  0  0  0
    4.8291    1.0507    1.9281 C   0  0  0  0  0  0  0  0  0  0  0  0
    5.1460    0.2889    3.0550 C   0  0  0  0  0  0  0  0  0  0  0  0
    5.4325   -1.0708    2.9250 C   0  0  0  0  0  0  0  0  0  0  0  0
    5.8118   -2.0543    4.3765 S   0  0  0  0  0  0  0  0  0  0  0  0
    4.0636   -2.3879    4.7509 C   0  0  0  0  0  0  0  0  0  0  0  0
    5.4118   -1.6680    1.6637 C   0  0  0  0  0  0  0  0  0  0  0  0
    5.1051   -0.9077    0.5289 C   0  0  0  0  0  0  0  0  0  0  0  0
    2.3533    2.3879   -0.0687 C   0  0  0  0  0  0  0  0  0  0  0  0
    1.2848    1.1315    0.2173 S   0  0  0  0  0  0  0  0  0  0  0  0
    5.3268    4.1066   -1.4641 C   0  0  0  0  0  0  0  0  0  0  0  0
    6.5346    3.8295   -0.9523 C   0  0  0  0  0  0  0  0  0  0  0  0
    7.6907    3.4856   -1.7795 C   0  0  0  0  0  0  0  0  0  0  0  0
    7.8203    3.7165   -3.0132 O   0  0  0  0  0  0  0  0  0  0  0  0
    8.5947    2.6892   -0.9670 C   0  0  0  0  0  0  0  0  0  0  0  0
    9.7309    1.9879   -1.3636 C   0  0  0  0  0  0  0  0  0  0  0  0
   10.3735    1.1731   -0.4212 C   0  0  0  0  0  0  0  0  0  0  0  0
   11.9339    0.1893   -0.9183 Br  0  0  0  0  0  0  0  0  0  0  0  0
    9.8512    1.0463    0.8804 C   0  0  0  0  0  0  0  0  0  0  0  0
    8.6977    1.7533    1.2564 C   0  0  0  0  0  0  0  0  0  0  0  0
    8.0916    2.5994    0.3215 C   0  0  0  0  0  0  0  0  0  0  0  0
    6.8668    3.4229    0.4392 C   0  0  0  0  0  0  0  0  0  0  0  0
    6.4312    4.0484    1.5614 C   0  0  0  0  0  0  0  0  0  0  0  0
    5.5442    5.1810    1.4979 C   0  0  0  0  0  0  0  0  0  0  0  0
    4.8438    6.1026    1.4494 N   0  0  0  0  0  0  0  0  0  0  0  0
    6.9546    3.7421    2.8670 C   0  0  0  0  0  0  0  0  0  0  0  0
    7.3660    3.5010    3.9228 N   0  0  0  0  0  0  0  0  0  0  0  0
   -9.0382   -6.1497    0.1702 H   0  0  0  0  0  0  0  0  0  0  0  0
   -8.2422  -10.3860   -3.1060 H   0  0  0  0  0  0  0  0  0  0  0  0
   -4.6536   -9.4088   -5.2959 H   0  0  0  0  0  0  0  0  0  0  0  0
   -4.6335   -7.1634   -4.3096 H   0  0  0  0  0  0  0  0  0  0  0  0
   -4.1030   -3.8270    0.4968 H   0  0  0  0  0  0  0  0  0  0  0  0
   -7.6523   -1.4169    0.8825 H   0  0  0  0  0  0  0  0  0  0  0  0
   -9.0476   -3.4066    0.4757 H   0  0  0  0  0  0  0  0  0  0  0  0
   -6.6284    1.0703    1.6753 H   0  0  0  0  0  0  0  0  0  0  0  0
   -8.6524    2.0377    2.6447 H   0  0  0  0  0  0  0  0  0  0  0  0
  -11.9645    0.6561    4.9910 H   0  0  0  0  0  0  0  0  0  0  0  0
  -10.8604    0.3833    3.5910 H   0  0  0  0  0  0  0  0  0  0  0  0
  -10.5723   -0.4856    5.1598 H   0  0  0  0  0  0  0  0  0  0  0  0
   -7.7845    0.1747    6.4125 H   0  0  0  0  0  0  0  0  0  0  0  0
   -5.7268   -0.7707    5.4956 H   0  0  0  0  0  0  0  0  0  0  0  0
   -5.7406   -2.9947    3.6421 H   0  0  0  0  0  0  0  0  0  0  0  0
   -4.4443   -4.8085    4.6967 H   0  0  0  0  0  0  0  0  0  0  0  0
   -0.4774   -4.9213    3.4036 H   0  0  0  0  0  0  0  0  0  0  0  0
   -0.5770   -6.6018    4.0600 H   0  0  0  0  0  0  0  0  0  0  0  0
   -2.0188   -5.8646    3.2599 H   0  0  0  0  0  0  0  0  0  0  0  0
   -0.9666   -2.2818    4.7923 H   0  0  0  0  0  0  0  0  0  0  0  0
   -2.2544   -0.4613    3.7508 H   0  0  0  0  0  0  0  0  0  0  0  0
    0.7943    0.9243   -3.4197 H   0  0  0  0  0  0  0  0  0  0  0  0
    0.8929    2.3637   -5.4212 H   0  0  0  0  0  0  0  0  0  0  0  0
   -1.5704    2.9389   -8.9685 H   0  0  0  0  0  0  0  0  0  0  0  0
   -0.6692    1.8040   -7.8959 H   0  0  0  0  0  0  0  0  0  0  0  0
   -2.4505    2.0665   -7.6527 H   0  0  0  0  0  0  0  0  0  0  0  0
   -3.3043    3.2015   -5.0109 H   0  0  0  0  0  0  0  0  0  0  0  0
   -3.3950    1.7945   -2.9868 H   0  0  0  0  0  0  0  0  0  0  0  0
   -1.4464   -1.1103   -4.1381 H   0  0  0  0  0  0  0  0  0  0  0  0
   -0.9228   -3.4995   -4.3228 H   0  0  0  0  0  0  0  0  0  0  0  0
    2.2086   -4.6583   -1.9473 H   0  0  0  0  0  0  0  0  0  0  0  0
    1.8101   -4.6185   -3.7140 H   0  0  0  0  0  0  0  0  0  0  0  0
    2.2081   -6.1855   -2.9115 H   0  0  0  0  0  0  0  0  0  0  0  0
    0.0299   -3.6374   -0.1323 H   0  0  0  0  0  0  0  0  0  0  0  0
   -0.4813   -1.2458    0.0754 H   0  0  0  0  0  0  0  0  0  0  0  0
    0.9767    4.2055    2.5317 H   0  0  0  0  0  0  0  0  0  0  0  0
    0.4356    4.8920    4.8192 H   0  0  0  0  0  0  0  0  0  0  0  0
   -2.9212    4.7908    7.4923 H   0  0  0  0  0  0  0  0  0  0  0  0
   -1.8023    3.9140    6.3766 H   0  0  0  0  0  0  0  0  0  0  0  0
   -3.4220    4.4858    5.7826 H   0  0  0  0  0  0  0  0  0  0  0  0
   -3.2841    6.5669    3.4627 H   0  0  0  0  0  0  0  0  0  0  0  0
   -2.7665    5.8686    1.1559 H   0  0  0  0  0  0  0  0  0  0  0  0
   -1.3057    3.9525   -2.1690 H   0  0  0  0  0  0  0  0  0  0  0  0
   -1.7495    5.4709   -4.0656 H   0  0  0  0  0  0  0  0  0  0  0  0
    0.8913    8.4014   -4.2327 H   0  0  0  0  0  0  0  0  0  0  0  0
    0.2637    8.8743   -5.8602 H   0  0  0  0  0  0  0  0  0  0  0  0
    0.2769    7.1343   -5.3797 H   0  0  0  0  0  0  0  0  0  0  0  0
   -0.7024    8.8360   -1.6037 H   0  0  0  0  0  0  0  0  0  0  0  0
   -0.2661    7.3227    0.2911 H   0  0  0  0  0  0  0  0  0  0  0  0
    2.8649    1.1047   -2.6197 H   0  0  0  0  0  0  0  0  0  0  0  0
    3.3930    0.3245   -4.8916 H   0  0  0  0  0  0  0  0  0  0  0  0
    6.4749    1.0585   -7.7799 H   0  0  0  0  0  0  0  0  0  0  0  0
    6.6765    1.7117   -6.1062 H   0  0  0  0  0  0  0  0  0  0  0  0
    5.0221    1.5622   -6.8276 H   0  0  0  0  0  0  0  0  0  0  0  0
    7.4771   -0.3330   -3.7025 H   0  0  0  0  0  0  0  0  0  0  0  0
    6.9347    0.4087   -1.4180 H   0  0  0  0  0  0  0  0  0  0  0  0
    4.5860    2.0937    2.0646 H   0  0  0  0  0  0  0  0  0  0  0  0
    5.1551    0.7552    4.0329 H   0  0  0  0  0  0  0  0  0  0  0  0
    3.5143   -1.4318    4.8799 H   0  0  0  0  0  0  0  0  0  0  0  0
    3.6031   -2.9754    3.9294 H   0  0  0  0  0  0  0  0  0  0  0  0
    4.0043   -2.9701    5.6923 H   0  0  0  0  0  0  0  0  0  0  0  0
    5.6271   -2.7238    1.5601 H   0  0  0  0  0  0  0  0  0  0  0  0
    5.0758   -1.4081   -0.4289 H   0  0  0  0  0  0  0  0  0  0  0  0
    5.2523    4.4348   -2.4936 H   0  0  0  0  0  0  0  0  0  0  0  0
   10.1003    2.0590   -2.3798 H   0  0  0  0  0  0  0  0  0  0  0  0
   10.3337    0.3921    1.5951 H   0  0  0  0  0  0  0  0  0  0  0  0
    8.2832    1.5959    2.2396 H   0  0  0  0  0  0  0  0  0  0  0  0
  1  2  2  3
  2  3  1  0
  3  4  2  0
  3  5  1  0
  5  6  2  0
  6  7  1  0
  7  8  1  0
  7  9  2  0
  9 10  1  0
 10 11  2  0
 11 12  1  0
 12 13  2  3
 13 14  1  0
 14 15  3  0
 13 16  1  0
 16 17  3  0
  1 18  1  0
 18 19  2  0
 19 20  1  0
 19 21  1  0
 21 22  2  0
 22 23  1  0
 23 24  2  0
 22 25  1  0
 25 26  2  0
 26 27  1  0
 27 28  1  0
 28 29  2  0
 29 30  1  0
 30 31  2  0
 31 32  1  0
 32 33  1  0
 31 34  1  0
 34 35  2  0
 27 36  1  0
 36 37  2  0
 37 38  1  0
 38 39  2  0
 39 40  1  0
 40 41  1  0
 39 42  1  0
 42 43  2  0
 26 44  1  0
 44 45  1  0
 45 46  1  0
 46 47  2  0
 47 48  1  0
 48 49  1  0
 49 50  2  0
 50 51  1  0
 51 52  2  0
 52 53  1  0
 53 54  1  0
 52 55  1  0
 55 56  2  0
 48 57  1  0
 57 58  2  0
 58 59  1  0
 59 60  2  0
 60 61  1  0
 61 62  1  0
 60 63  1  0
 63 64  2  0
 47 65  1  0
 65 66  1  0
 46 67  1  0
 67 68  2  0
 68 69  1  0
 69 70  1  0
 70 71  2  0
 71 72  1  0
 72 73  2  0
 73 74  1  0
 74 75  1  0
 73 76  1  0
 76 77  2  0
 69 78  1  0
 78 79  2  0
 79 80  1  0
 80 81  2  0
 81 82  1  0
 82 83  1  0
 81 84  1  0
 84 85  2  0
 68 86  1  0
 86 87  1  0
 87 88  1  0
 88 89  2  0
 89 90  1  0
 90 91  1  0
 91 92  2  0
 92 93  1  0
 93 94  2  0
 94 95  1  0
 95 96  1  0
 94 97  1  0
 97 98  2  0
 90 99  1  0
 99100  2  0
100101  1  0
101102  2  0
102103  1  0
103104  1  0
102105  1  0
105106  2  0
 89107  1  0
107108  1  0
 88109  1  0
109110  2  3
110111  1  0
111112  2  0
111113  1  0
113114  2  0
114115  1  0
115116  1  0
115117  2  0
117118  1  0
118119  2  0
119120  1  0
120121  2  3
121122  1  0
122123  3  0
121124  1  0
124125  3  0
 12  2  1  0
 24 18  1  0
 66 25  1  0
108 67  1  0
120110  1  0
 11  5  1  0
 35 28  1  0
 43 36  1  0
 65 44  2  0
 77 70  1  0
 85 78  1  0
107 86  2  0
119113  1  0
 56 49  1  0
 64 57  1  0
 98 91  1  0
106 99  1  0
  1126  1  0
  6127  1  0
  9128  1  0
 10129  1  0
 21130  1  0
 23131  1  0
 24132  1  0
 29133  1  0
 30134  1  0
 33135  1  0
 33136  1  0
 33137  1  0
 34138  1  0
 35139  1  0
 37140  1  0
 38141  1  0
 41142  1  0
 41143  1  0
 41144  1  0
 42145  1  0
 43146  1  0
 50147  1  0
 51148  1  0
 54149  1  0
 54150  1  0
 54151  1  0
 55152  1  0
 56153  1  0
 58154  1  0
 59155  1  0
 62156  1  0
 62157  1  0
 62158  1  0
 63159  1  0
 64160  1  0
 71161  1  0
 72162  1  0
 75163  1  0
 75164  1  0
 75165  1  0
 76166  1  0
 77167  1  0
 79168  1  0
 80169  1  0
 83170  1  0
 83171  1  0
 83172  1  0
 84173  1  0
 85174  1  0
 92175  1  0
 93176  1  0
 96177  1  0
 96178  1  0
 96179  1  0
 97180  1  0
 98181  1  0
100182  1  0
101183  1  0
104184  1  0
104185  1  0
104186  1  0
105187  1  0
106188  1  0
109189  1  0
114190  1  0
117191  1  0
118192  1  0
M  END

