
     RDKit          3D

196215  0  0  0  0  0  0  0  0999 V2000
   -9.7443   -3.7426    5.1768 C   0  0  0  0  0  0  0  0  0  0  0  0
  -10.8460   -2.9699    5.1354 C   0  0  0  0  0  0  0  0  0  0  0  0
  -12.1022   -3.3434    5.7719 C   0  0  0  0  0  0  0  0  0  0  0  0
  -12.4150   -4.4923    6.1869 O   0  0  0  0  0  0  0  0  0  0  0  0
  -12.9116   -2.1487    5.9009 C   0  0  0  0  0  0  0  0  0  0  0  0
  -14.1874   -2.0212    6.4585 C   0  0  0  0  0  0  0  0  0  0  0  0
  -14.7898   -0.7547    6.4645 C   0  0  0  0  0  0  0  0  0  0  0  0
  -16.5422   -0.5392    7.1930 Br  0  0  0  0  0  0  0  0  0  0  0  0
  -14.1049    0.3524    5.9309 C   0  0  0  0  0  0  0  0  0  0  0  0
  -12.8293    0.1986    5.3652 C   0  0  0  0  0  0  0  0  0  0  0  0
  -12.2398   -1.0746    5.3405 C   0  0  0  0  0  0  0  0  0  0  0  0
  -10.9775   -1.5464    4.7105 C   0  0  0  0  0  0  0  0  0  0  0  0
  -10.3998   -0.9971    3.6118 C   0  0  0  0  0  0  0  0  0  0  0  0
   -9.7666   -1.8255    2.6183 C   0  0  0  0  0  0  0  0  0  0  0  0
   -9.2928   -2.5034    1.8109 N   0  0  0  0  0  0  0  0  0  0  0  0
  -10.5561    0.3866    3.2565 C   0  0  0  0  0  0  0  0  0  0  0  0
  -10.6572    1.4986    2.9475 N   0  0  0  0  0  0  0  0  0  0  0  0
   -8.3904   -3.2577    4.8765 C   0  0  0  0  0  0  0  0  0  0  0  0
   -7.5276   -3.8660    3.9743 C   0  0  0  0  0  0  0  0  0  0  0  0
   -6.3450   -3.1375    3.7852 C   0  0  0  0  0  0  0  0  0  0  0  0
   -5.3329   -3.4339    2.8612 C   0  0  0  0  0  0  0  0  0  0  0  0
   -5.4418   -4.5737    1.9403 C   0  0  0  0  0  0  0  0  0  0  0  0
   -5.1188   -6.1684    2.3546 S   0  0  0  0  0  0  0  0  0  0  0  0
   -5.5536   -6.8199    0.8622 C   0  0  0  0  0  0  0  0  0  0  0  0
   -5.5451   -8.2824    0.5455 C   0  0  0  0  0  0  0  0  0  0  0  0
   -6.8979   -8.9090    0.8422 C   0  0  0  0  0  0  0  0  0  0  0  0
   -5.9967   -5.7892    0.0329 C   0  0  0  0  0  0  0  0  0  0  0  0
   -6.6447   -6.0533   -1.5786 Cl  0  0  0  0  0  0  0  0  0  0  0  0
   -5.9209   -4.5268    0.6367 C   0  0  0  0  0  0  0  0  0  0  0  0
   -6.4366   -3.0412   -0.1478 Cl  0  0  0  0  0  0  0  0  0  0  0  0
   -4.2558   -2.5464    2.7887 C   0  0  0  0  0  0  0  0  0  0  0  0
   -4.1507   -1.4099    3.5949 C   0  0  0  0  0  0  0  0  0  0  0  0
   -5.1532   -1.1178    4.5413 C   0  0  0  0  0  0  0  0  0  0  0  0
   -5.0326    0.0147    5.4744 C   0  0  0  0  0  0  0  0  0  0  0  0
   -5.9425    1.0515    5.6176 C   0  0  0  0  0  0  0  0  0  0  0  0
   -5.5722    1.9710    6.6091 C   0  0  0  0  0  0  0  0  0  0  0  0
   -4.3915    1.6385    7.2628 C   0  0  0  0  0  0  0  0  0  0  0  0
   -3.7119    2.4820    8.3014 C   0  0  0  0  0  0  0  0  0  0  0  0
   -2.8765    1.6526    9.2769 C   0  0  0  0  0  0  0  0  0  0  0  0
   -3.7769    0.2315    6.5659 S   0  0  0  0  0  0  0  0  0  0  0  0
   -6.2604   -1.9893    4.5860 C   0  0  0  0  0  0  0  0  0  0  0  0
   -7.6688   -1.8622    5.5014 S   0  0  0  0  0  0  0  0  0  0  0  0
   -3.0178   -0.6286    3.2958 C   0  0  0  0  0  0  0  0  0  0  0  0
   -2.2307   -1.1719    2.2761 C   0  0  0  0  0  0  0  0  0  0  0  0
   -2.9579   -2.5912    1.7382 S   0  0  0  0  0  0  0  0  0  0  0  0
   -1.0512   -0.5145    1.6796 C   0  0  0  0  0  0  0  0  0  0  0  0
    0.0820   -1.1189    1.0990 C   0  0  0  0  0  0  0  0  0  0  0  0
    0.3035   -2.5347    0.9012 N   0  0  0  0  0  0  0  0  0  0  0  0
    1.5832   -3.0810    1.2916 C   0  0  0  0  0  0  0  0  0  0  0  0
    2.0694   -2.8911    2.5933 C   0  0  0  0  0  0  0  0  0  0  0  0
    3.3658   -3.2954    2.9292 C   0  0  0  0  0  0  0  0  0  0  0  0
    4.1951   -3.8737    1.9600 C   0  0  0  0  0  0  0  0  0  0  0  0
    5.8891   -4.3042    2.3608 S   0  0  0  0  0  0  0  0  0  0  0  0
    5.5236   -6.0651    2.6133 C   0  0  0  0  0  0  0  0  0  0  0  0
    3.7100   -4.0813    0.6657 C   0  0  0  0  0  0  0  0  0  0  0  0
    2.4081   -3.7010    0.3330 C   0  0  0  0  0  0  0  0  0  0  0  0
   -0.5310   -3.2834   -0.0047 C   0  0  0  0  0  0  0  0  0  0  0  0
   -1.1418   -2.6551   -1.1081 C   0  0  0  0  0  0  0  0  0  0  0  0
   -1.9914   -3.3808   -1.9479 C   0  0  0  0  0  0  0  0  0  0  0  0
   -2.2267   -4.7361   -1.7047 C   0  0  0  0  0  0  0  0  0  0  0  0
   -3.3111   -5.6583   -2.7905 S   0  0  0  0  0  0  0  0  0  0  0  0
   -1.9489   -6.2675   -3.8283 C   0  0  0  0  0  0  0  0  0  0  0  0
   -1.6204   -5.3698   -0.6163 C   0  0  0  0  0  0  0  0  0  0  0  0
   -0.7650   -4.6534    0.2204 C   0  0  0  0  0  0  0  0  0  0  0  0
    1.0142   -0.1609    0.7084 C   0  0  0  0  0  0  0  0  0  0  0  0
    2.5231   -0.2650    0.0278 S   0  0  0  0  0  0  0  0  0  0  0  0
    2.7889    1.4119   -0.0055 C   0  0  0  0  0  0  0  0  0  0  0  0
    1.6529    2.0888    0.5005 C   0  0  0  0  0  0  0  0  0  0  0  0
    1.4653    3.5244    0.5531 N   0  0  0  0  0  0  0  0  0  0  0  0
    2.5302    4.4601    0.2996 C   0  0  0  0  0  0  0  0  0  0  0  0
    2.4043    5.3958   -0.7437 C   0  0  0  0  0  0  0  0  0  0  0  0
    3.4100    6.3318   -0.9760 C   0  0  0  0  0  0  0  0  0  0  0  0
    4.5672    6.3279   -0.1931 C   0  0  0  0  0  0  0  0  0  0  0  0
    5.8590    7.5427   -0.4851 S   0  0  0  0  0  0  0  0  0  0  0  0
    5.1436    8.7573    0.6672 C   0  0  0  0  0  0  0  0  0  0  0  0
    4.6989    5.4026    0.8507 C   0  0  0  0  0  0  0  0  0  0  0  0
    3.6706    4.4874    1.1131 C   0  0  0  0  0  0  0  0  0  0  0  0
    0.1756    4.0817    0.8513 C   0  0  0  0  0  0  0  0  0  0  0  0
   -0.0786    4.6167    2.1212 C   0  0  0  0  0  0  0  0  0  0  0  0
   -1.3322    5.1596    2.4165 C   0  0  0  0  0  0  0  0  0  0  0  0
   -2.3286    5.2018    1.4325 C   0  0  0  0  0  0  0  0  0  0  0  0
   -3.9168    5.9479    1.7890 S   0  0  0  0  0  0  0  0  0  0  0  0
   -3.3201    7.6468    1.5016 C   0  0  0  0  0  0  0  0  0  0  0  0
   -2.0733    4.6763    0.1591 C   0  0  0  0  0  0  0  0  0  0  0  0
   -0.8243    4.1118   -0.1292 C   0  0  0  0  0  0  0  0  0  0  0  0
    0.6878    1.1412    0.9128 C   0  0  0  0  0  0  0  0  0  0  0  0
   -0.8224    1.1758    1.6579 S   0  0  0  0  0  0  0  0  0  0  0  0
    4.0794    1.9148   -0.4861 C   0  0  0  0  0  0  0  0  0  0  0  0
    4.2700    2.5667   -1.7069 C   0  0  0  0  0  0  0  0  0  0  0  0
    5.5454    2.3348   -2.2640 C   0  0  0  0  0  0  0  0  0  0  0  0
    5.9532    2.6818   -3.5643 C   0  0  0  0  0  0  0  0  0  0  0  0
    5.1581    3.5704   -4.4179 C   0  0  0  0  0  0  0  0  0  0  0  0
    3.8403    3.0896   -5.3432 S   0  0  0  0  0  0  0  0  0  0  0  0
    3.6477    4.5638   -6.1334 C   0  0  0  0  0  0  0  0  0  0  0  0
    2.5843    4.8433   -7.1528 C   0  0  0  0  0  0  0  0  0  0  0  0
    1.4084    5.5880   -6.5321 C   0  0  0  0  0  0  0  0  0  0  0  0
    4.6162    5.4562   -5.6725 C   0  0  0  0  0  0  0  0  0  0  0  0
    4.7686    7.1076   -6.2478 Cl  0  0  0  0  0  0  0  0  0  0  0  0
    5.4700    4.8916   -4.7146 C   0  0  0  0  0  0  0  0  0  0  0  0
    6.7991    5.7597   -3.9669 Cl  0  0  0  0  0  0  0  0  0  0  0  0
    7.1028    2.0464   -4.0628 C   0  0  0  0  0  0  0  0  0  0  0  0
    7.8496    1.1338   -3.3107 C   0  0  0  0  0  0  0  0  0  0  0  0
    7.5139    0.8801   -1.9660 C   0  0  0  0  0  0  0  0  0  0  0  0
    8.1846   -0.1656   -1.1674 C   0  0  0  0  0  0  0  0  0  0  0  0
    8.2580   -1.5113   -1.5048 C   0  0  0  0  0  0  0  0  0  0  0  0
    8.7842   -2.3163   -0.4861 C   0  0  0  0  0  0  0  0  0  0  0  0
    9.1238   -1.6026    0.6615 C   0  0  0  0  0  0  0  0  0  0  0  0
    9.5831   -2.2026    1.9572 C   0  0  0  0  0  0  0  0  0  0  0  0
   10.8600   -1.5395    2.4618 C   0  0  0  0  0  0  0  0  0  0  0  0
    8.7449    0.0205    0.4139 S   0  0  0  0  0  0  0  0  0  0  0  0
    6.3530    1.5047   -1.4764 C   0  0  0  0  0  0  0  0  0  0  0  0
    5.4993    1.0935   -0.0979 S   0  0  0  0  0  0  0  0  0  0  0  0
    8.8350    0.4760   -4.0687 C   0  0  0  0  0  0  0  0  0  0  0  0
    8.8097    0.8336   -5.4116 C   0  0  0  0  0  0  0  0  0  0  0  0
    7.6459    2.0345   -5.6548 S   0  0  0  0  0  0  0  0  0  0  0  0
    9.6046    0.1936   -6.4716 C   0  0  0  0  0  0  0  0  0  0  0  0
    9.0551   -0.3808   -7.5662 C   0  0  0  0  0  0  0  0  0  0  0  0
    7.6183   -0.4610   -7.8764 C   0  0  0  0  0  0  0  0  0  0  0  0
    6.6675   -0.4079   -7.0508 O   0  0  0  0  0  0  0  0  0  0  0  0
    7.4738   -0.7307   -9.2883 C   0  0  0  0  0  0  0  0  0  0  0  0
    6.3080   -0.7240  -10.0507 C   0  0  0  0  0  0  0  0  0  0  0  0
    6.4120   -0.8952  -11.4400 C   0  0  0  0  0  0  0  0  0  0  0  0
    4.9632   -0.8564  -12.4332 Cl  0  0  0  0  0  0  0  0  0  0  0  0
    7.6784   -1.0547  -12.0379 C   0  0  0  0  0  0  0  0  0  0  0  0
    7.7859   -1.1663  -13.3874 F   0  0  0  0  0  0  0  0  0  0  0  0
    8.8423   -1.0626  -11.2481 C   0  0  0  0  0  0  0  0  0  0  0  0
    8.7202   -0.9260   -9.8527 C   0  0  0  0  0  0  0  0  0  0  0  0
    9.7669   -0.8631   -8.7893 C   0  0  0  0  0  0  0  0  0  0  0  0
   11.0099   -1.4031   -8.8470 C   0  0  0  0  0  0  0  0  0  0  0  0
   11.8361   -1.5592   -7.6741 C   0  0  0  0  0  0  0  0  0  0  0  0
   12.5016   -1.6989   -6.7377 N   0  0  0  0  0  0  0  0  0  0  0  0
   11.5311   -2.0016  -10.0478 C   0  0  0  0  0  0  0  0  0  0  0  0
   11.9552   -2.4899  -11.0059 N   0  0  0  0  0  0  0  0  0  0  0  0
   -9.8341   -4.7758    5.4860 H   0  0  0  0  0  0  0  0  0  0  0  0
  -14.6986   -2.8833    6.8706 H   0  0  0  0  0  0  0  0  0  0  0  0
  -14.5660    1.3315    5.9483 H   0  0  0  0  0  0  0  0  0  0  0  0
  -12.3314    1.0707    4.9673 H   0  0  0  0  0  0  0  0  0  0  0  0
   -7.7805   -4.7703    3.4327 H   0  0  0  0  0  0  0  0  0  0  0  0
   -4.7644   -8.7810    1.1585 H   0  0  0  0  0  0  0  0  0  0  0  0
   -5.2849   -8.4385   -0.5239 H   0  0  0  0  0  0  0  0  0  0  0  0
   -7.1293   -8.8224    1.9244 H   0  0  0  0  0  0  0  0  0  0  0  0
   -6.8764   -9.9841    0.5671 H   0  0  0  0  0  0  0  0  0  0  0  0
   -7.6996   -8.4033    0.2585 H   0  0  0  0  0  0  0  0  0  0  0  0
   -6.8377    1.1536    5.0152 H   0  0  0  0  0  0  0  0  0  0  0  0
   -6.1487    2.8591    6.8294 H   0  0  0  0  0  0  0  0  0  0  0  0
   -4.4838    3.0302    8.8877 H   0  0  0  0  0  0  0  0  0  0  0  0
   -3.0581    3.2284    7.8004 H   0  0  0  0  0  0  0  0  0  0  0  0
   -2.5065    2.3040   10.0955 H   0  0  0  0  0  0  0  0  0  0  0  0
   -3.4965    0.8473    9.7248 H   0  0  0  0  0  0  0  0  0  0  0  0
   -2.0041    1.1982    8.7563 H   0  0  0  0  0  0  0  0  0  0  0  0
   -2.7860    0.3096    3.7875 H   0  0  0  0  0  0  0  0  0  0  0  0
    1.4513   -2.4082    3.3396 H   0  0  0  0  0  0  0  0  0  0  0  0
    3.7318   -3.1315    3.9326 H   0  0  0  0  0  0  0  0  0  0  0  0
    5.1684   -6.5161    1.6636 H   0  0  0  0  0  0  0  0  0  0  0  0
    4.7497   -6.1922    3.3974 H   0  0  0  0  0  0  0  0  0  0  0  0
    6.4541   -6.5828    2.9323 H   0  0  0  0  0  0  0  0  0  0  0  0
    4.3452   -4.5254   -0.0884 H   0  0  0  0  0  0  0  0  0  0  0  0
    2.0701   -3.8336   -0.6860 H   0  0  0  0  0  0  0  0  0  0  0  0
   -0.9613   -1.6088   -1.3196 H   0  0  0  0  0  0  0  0  0  0  0  0
   -2.4635   -2.8852   -2.7865 H   0  0  0  0  0  0  0  0  0  0  0  0
   -1.3460   -7.0084   -3.2662 H   0  0  0  0  0  0  0  0  0  0  0  0
   -2.3713   -6.7632   -4.7267 H   0  0  0  0  0  0  0  0  0  0  0  0
   -1.3011   -5.4289   -4.1575 H   0  0  0  0  0  0  0  0  0  0  0  0
   -1.8098   -6.4133   -0.4215 H   0  0  0  0  0  0  0  0  0  0  0  0
   -0.3083   -5.1507    1.0657 H   0  0  0  0  0  0  0  0  0  0  0  0
    1.5065    5.4229   -1.3460 H   0  0  0  0  0  0  0  0  0  0  0  0
    3.2961    7.0518   -1.7778 H   0  0  0  0  0  0  0  0  0  0  0  0
    5.0771    8.3221    1.6872 H   0  0  0  0  0  0  0  0  0  0  0  0
    4.1326    9.0586    0.3167 H   0  0  0  0  0  0  0  0  0  0  0  0
    5.7928    9.6580    0.6995 H   0  0  0  0  0  0  0  0  0  0  0  0
    5.5899    5.3911    1.4639 H   0  0  0  0  0  0  0  0  0  0  0  0
    3.7806    3.7794    1.9236 H   0  0  0  0  0  0  0  0  0  0  0  0
    0.6920    4.5947    2.8803 H   0  0  0  0  0  0  0  0  0  0  0  0
   -1.5216    5.5647    3.3989 H   0  0  0  0  0  0  0  0  0  0  0  0
   -2.8308    7.7269    0.5089 H   0  0  0  0  0  0  0  0  0  0  0  0
   -2.6008    7.9202    2.2987 H   0  0  0  0  0  0  0  0  0  0  0  0
   -4.1793    8.3446    1.5413 H   0  0  0  0  0  0  0  0  0  0  0  0
   -2.8381    4.7053   -0.6053 H   0  0  0  0  0  0  0  0  0  0  0  0
   -0.6357    3.7047   -1.1135 H   0  0  0  0  0  0  0  0  0  0  0  0
    3.4652    3.0540   -2.2435 H   0  0  0  0  0  0  0  0  0  0  0  0
    2.2176    3.8823   -7.5804 H   0  0  0  0  0  0  0  0  0  0  0  0
    3.0161    5.4382   -7.9881 H   0  0  0  0  0  0  0  0  0  0  0  0
    0.6391    5.7776   -7.3092 H   0  0  0  0  0  0  0  0  0  0  0  0
    0.9533    4.9788   -5.7228 H   0  0  0  0  0  0  0  0  0  0  0  0
    1.7456    6.5584   -6.1154 H   0  0  0  0  0  0  0  0  0  0  0  0
    7.8890   -1.9109   -2.4376 H   0  0  0  0  0  0  0  0  0  0  0  0
    8.8781   -3.3897   -0.5700 H   0  0  0  0  0  0  0  0  0  0  0  0
    9.7739   -3.2926    1.8221 H   0  0  0  0  0  0  0  0  0  0  0  0
    8.7834   -2.0843    2.7200 H   0  0  0  0  0  0  0  0  0  0  0  0
   10.6706   -0.4691    2.6882 H   0  0  0  0  0  0  0  0  0  0  0  0
   11.2010   -2.0419    3.3886 H   0  0  0  0  0  0  0  0  0  0  0  0
   11.6648   -1.6191    1.6958 H   0  0  0  0  0  0  0  0  0  0  0  0
    9.4966   -0.2840   -3.6762 H   0  0  0  0  0  0  0  0  0  0  0  0
   10.6728    0.2409   -6.3500 H   0  0  0  0  0  0  0  0  0  0  0  0
    5.3470   -0.5580   -9.5898 H   0  0  0  0  0  0  0  0  0  0  0  0
    9.8015   -1.1309  -11.7338 H   0  0  0  0  0  0  0  0  0  0  0  0
  1  2  2  3
  2  3  1  0
  3  4  2  0
  3  5  1  0
  5  6  2  0
  6  7  1  0
  7  8  1  0
  7  9  2  0
  9 10  1  0
 10 11  2  0
 11 12  1  0
 12 13  2  3
 13 14  1  0
 14 15  3  0
 13 16  1  0
 16 17  3  0
  1 18  1  0
 18 19  2  0
 19 20  1  0
 20 21  2  0
 21 22  1  0
 22 23  1  0
 23 24  1  0
 24 25  1  0
 25 26  1  0
 24 27  2  0
 27 28  1  0
 27 29  1  0
 29 30  1  0
 21 31  1  0
 31 32  2  0
 32 33  1  0
 33 34  1  0
 34 35  2  0
 35 36  1  0
 36 37  2  0
 37 38  1  0
 38 39  1  0
 37 40  1  0
 33 41  2  0
 41 42  1  0
 32 43  1  0
 43 44  2  0
 44 45  1  0
 44 46  1  0
 46 47  2  0
 47 48  1  0
 48 49  1  0
 49 50  2  0
 50 51  1  0
 51 52  2  0
 52 53  1  0
 53 54  1  0
 52 55  1  0
 55 56  2  0
 48 57  1  0
 57 58  2  0
 58 59  1  0
 59 60  2  0
 60 61  1  0
 61 62  1  0
 60 63  1  0
 63 64  2  0
 47 65  1  0
 65 66  1  0
 66 67  1  0
 67 68  2  0
 68 69  1  0
 69 70  1  0
 70 71  2  0
 71 72  1  0
 72 73  2  0
 73 74  1  0
 74 75  1  0
 73 76  1  0
 76 77  2  0
 69 78  1  0
 78 79  2  0
 79 80  1  0
 80 81  2  0
 81 82  1  0
 82 83  1  0
 81 84  1  0
 84 85  2  0
 68 86  1  0
 86 87  1  0
 67 88  1  0
 88 89  2  0
 89 90  1  0
 90 91  2  0
 91 92  1  0
 92 93  1  0
 93 94  1  0
 94 95  1  0
 95 96  1  0
 94 97  2  0
 97 98  1  0
 97 99  1  0
 99100  1  0
 91101  1  0
101102  2  0
102103  1  0
103104  1  0
104105  2  0
105106  1  0
106107  2  0
107108  1  0
108109  1  0
107110  1  0
103111  2  0
111112  1  0
102113  1  0
113114  2  0
114115  1  0
114116  1  0
116117  2  3
117118  1  0
118119  2  0
118120  1  0
120121  2  0
121122  1  0
122123  1  0
122124  2  0
124125  1  0
124126  1  0
126127  2  0
127128  1  0
128129  2  3
129130  1  0
130131  3  0
129132  1  0
132133  3  0
 12  2  1  0
 42 18  1  0
 87 46  1  0
112 88  1  0
128117  1  0
 11  5  1  0
 41 20  1  0
 56 49  1  0
 64 57  1  0
 86 65  2  0
111 90  1  0
127120  1  0
 29 22  2  0
 45 31  1  0
 77 70  1  0
 85 78  1  0
 99 92  2  0
115101  1  0
 40 34  1  0
110104  1  0
  1134  1  0
  6135  1  0
  9136  1  0
 10137  1  0
 19138  1  0
 25139  1  0
 25140  1  0
 26141  1  0
 26142  1  0
 26143  1  0
 35144  1  0
 36145  1  0
 38146  1  0
 38147  1  0
 39148  1  0
 39149  1  0
 39150  1  0
 43151  1  0
 50152  1  0
 51153  1  0
 54154  1  0
 54155  1  0
 54156  1  0
 55157  1  0
 56158  1  0
 58159  1  0
 59160  1  0
 62161  1  0
 62162  1  0
 62163  1  0
 63164  1  0
 64165  1  0
 71166  1  0
 72167  1  0
 75168  1  0
 75169  1  0
 75170  1  0
 76171  1  0
 77172  1  0
 79173  1  0
 80174  1  0
 83175  1  0
 83176  1  0
 83177  1  0
 84178  1  0
 85179  1  0
 89180  1  0
 95181  1  0
 95182  1  0
 96183  1  0
 96184  1  0
 96185  1  0
105186  1  0
106187  1  0
108188  1  0
108189  1  0
109190  1  0
109191  1  0
109192  1  0
113193  1  0
116194  1  0
121195  1  0
126196  1  0
M  END

