
     RDKit          3D

246266  0  0  0  0  0  0  0  0999 V2000
  -10.1354    5.2153    0.5062 C   0  0  0  0  0  0  0  0  0  0  0  0
   -9.8502    3.7976    0.8257 C   0  0  0  0  0  0  0  0  0  0  0  0
   -8.1732    3.7275    0.9179 N   0  0  0  0  0  0  0  0  0  0  0  0
   -7.8025    3.3475   -0.1131 C   0  0  0  0  0  0  0  0  0  0  0  0
   -7.5548    3.0536   -1.4692 C   0  0  0  0  0  0  0  0  0  0  0  0
   -6.5212    2.0862   -1.4878 C   0  0  0  0  0  0  0  0  0  0  0  0
   -5.5812    1.1811   -1.5136 N   0  0  0  0  0  0  0  0  0  0  0  0
   -8.3366    3.6027   -2.4724 C   0  0  0  0  0  0  0  0  0  0  0  0
   -9.0098    4.0844   -3.3135 N   0  0  0  0  0  0  0  0  0  0  0  0
   -6.0747    3.4624    0.5921 S   0  0  0  0  0  0  0  0  0  0  0  0
   -6.2205    3.9941    2.0561 C   0  0  0  0  0  0  0  0  0  0  0  0
   -7.9707    4.1334    2.1388 C   0  0  0  0  0  0  0  0  0  0  0  0
   -8.2847    4.5026    3.1639 O   0  0  0  0  0  0  0  0  0  0  0  0
   -5.7484    4.6667    3.0315 C   0  0  0  0  0  0  0  0  0  0  0  0
   -4.3351    5.2557    2.6231 C   0  0  0  0  0  0  0  0  0  0  0  0
   -3.4522    5.2407    3.5244 C   0  0  0  0  0  0  0  0  0  0  0  0
   -3.5185    4.7196    4.9331 C   0  0  0  0  0  0  0  0  0  0  0  0
   -4.9083    4.2142    5.2275 C   0  0  0  0  0  0  0  0  0  0  0  0
   -6.0213    4.9646    4.4259 C   0  0  0  0  0  0  0  0  0  0  0  0
   -2.5820    3.4977    4.7777 C   0  0  0  0  0  0  0  0  0  0  0  0
   -1.3734    3.2518    5.1959 C   0  0  0  0  0  0  0  0  0  0  0  0
   -0.8589    3.7914    6.4721 N   0  0  0  0  0  0  0  0  0  0  0  0
    0.0719    4.7830    6.6521 C   0  0  0  0  0  0  0  0  0  0  0  0
    0.0363    6.0003    5.9625 C   0  0  0  0  0  0  0  0  0  0  0  0
    0.9769    6.9073    6.2728 C   0  0  0  0  0  0  0  0  0  0  0  0
    1.9990    6.7847    7.1909 C   0  0  0  0  0  0  0  0  0  0  0  0
    3.1953    8.0318    7.5131 S   0  0  0  0  0  0  0  0  0  0  0  0
    4.5502    7.7918    6.2942 C   0  0  0  0  0  0  0  0  0  0  0  0
    2.0382    5.5855    7.8524 C   0  0  0  0  0  0  0  0  0  0  0  0
    1.0996    4.6001    7.6006 C   0  0  0  0  0  0  0  0  0  0  0  0
   -1.4635    3.1415    7.6561 C   0  0  0  0  0  0  0  0  0  0  0  0
   -1.5653    1.6978    7.4274 C   0  0  0  0  0  0  0  0  0  0  0  0
   -2.1217    1.0640    8.5540 C   0  0  0  0  0  0  0  0  0  0  0  0
   -2.4959    1.6408    9.6548 C   0  0  0  0  0  0  0  0  0  0  0  0
   -3.2856    0.6686   10.9976 S   0  0  0  0  0  0  0  0  0  0  0  0
   -3.5850   -1.0435   10.3026 C   0  0  0  0  0  0  0  0  0  0  0  0
   -2.4034    3.0187    9.8939 C   0  0  0  0  0  0  0  0  0  0  0  0
   -1.8261    3.6754    8.7003 C   0  0  0  0  0  0  0  0  0  0  0  0
   -0.6218    2.2771    4.5779 C   0  0  0  0  0  0  0  0  0  0  0  0
    1.0303    1.6494    4.5388 S   0  0  0  0  0  0  0  0  0  0  0  0
    0.8905    0.5784    3.2562 C   0  0  0  0  0  0  0  0  0  0  0  0
   -0.4096    0.7093    2.9165 C   0  0  0  0  0  0  0  0  0  0  0  0
   -0.9434   -0.3097    1.9862 N   0  0  0  0  0  0  0  0  0  0  0  0
   -1.4584    0.0129    0.7235 C   0  0  0  0  0  0  0  0  0  0  0  0
   -1.0865    0.9452   -0.1622 C   0  0  0  0  0  0  0  0  0  0  0  0
   -1.5168    1.0609   -1.4688 C   0  0  0  0  0  0  0  0  0  0  0  0
   -2.4400    0.1317   -1.9540 C   0  0  0  0  0  0  0  0  0  0  0  0
   -2.9867    0.1347   -3.6280 S   0  0  0  0  0  0  0  0  0  0  0  0
   -4.1612   -1.2209   -3.8980 C   0  0  0  0  0  0  0  0  0  0  0  0
   -2.8699   -0.8431   -1.0909 C   0  0  0  0  0  0  0  0  0  0  0  0
   -2.4051   -0.9130    0.1961 C   0  0  0  0  0  0  0  0  0  0  0  0
   -1.0903   -1.6476    2.4415 C   0  0  0  0  0  0  0  0  0  0  0  0
   -0.6420   -2.7191    1.7368 C   0  0  0  0  0  0  0  0  0  0  0  0
   -0.8965   -4.0351    2.1241 C   0  0  0  0  0  0  0  0  0  0  0  0
   -1.6475   -4.2676    3.2850 C   0  0  0  0  0  0  0  0  0  0  0  0
   -1.9979   -5.9127    3.8737 S   0  0  0  0  0  0  0  0  0  0  0  0
   -1.2273   -7.2050    2.9066 C   0  0  0  0  0  0  0  0  0  0  0  0
   -2.1183   -3.1687    4.0119 C   0  0  0  0  0  0  0  0  0  0  0  0
   -1.8471   -1.8773    3.5945 C   0  0  0  0  0  0  0  0  0  0  0  0
   -1.2143    1.5924    3.5574 C   0  0  0  0  0  0  0  0  0  0  0  0
   -2.7888    2.3460    3.4933 S   0  0  0  0  0  0  0  0  0  0  0  0
    1.8735   -0.1551    2.3471 C   0  0  0  0  0  0  0  0  0  0  0  0
    2.3262   -1.3832    2.3418 C   0  0  0  0  0  0  0  0  0  0  0  0
    2.8797   -1.9942    3.5509 N   0  0  0  0  0  0  0  0  0  0  0  0
    4.3728   -2.2834    3.3454 C   0  0  0  0  0  0  0  0  0  0  0  0
    4.7992   -3.4906    3.7611 C   0  0  0  0  0  0  0  0  0  0  0  0
    6.1739   -3.7548    3.6226 C   0  0  0  0  0  0  0  0  0  0  0  0
    7.0548   -2.8012    3.0711 C   0  0  0  0  0  0  0  0  0  0  0  0
    8.7832   -3.0745    2.9372 S   0  0  0  0  0  0  0  0  0  0  0  0
    9.3665   -4.6406    3.6007 C   0  0  0  0  0  0  0  0  0  0  0  0
    6.5188   -1.6014    2.6760 C   0  0  0  0  0  0  0  0  0  0  0  0
    5.1489   -1.3458    2.8210 C   0  0  0  0  0  0  0  0  0  0  0  0
    2.4792   -2.2923    4.8017 C   0  0  0  0  0  0  0  0  0  0  0  0
    1.4186   -2.7836    5.3434 C   0  0  0  0  0  0  0  0  0  0  0  0
    0.9712   -3.2417    6.5779 C   0  0  0  0  0  0  0  0  0  0  0  0
    2.2386   -3.0721    7.4985 C   0  0  0  0  0  0  0  0  0  0  0  0
    1.8879   -3.7601    9.1252 S   0  0  0  0  0  0  0  0  0  0  0  0
    2.4574   -5.5186    9.1400 C   0  0  0  0  0  0  0  0  0  0  0  0
    3.2109   -2.6117    7.0306 C   0  0  0  0  0  0  0  0  0  0  0  0
    3.6303   -2.1470    5.7795 C   0  0  0  0  0  0  0  0  0  0  0  0
    2.7201   -1.9285    1.1351 C   0  0  0  0  0  0  0  0  0  0  0  0
    2.9350   -3.5512    0.3878 S   0  0  0  0  0  0  0  0  0  0  0  0
    2.9411   -3.1173   -1.2116 C   0  0  0  0  0  0  0  0  0  0  0  0
    2.8293   -1.7451   -1.1790 C   0  0  0  0  0  0  0  0  0  0  0  0
    3.2070   -0.9594   -2.3417 N   0  0  0  0  0  0  0  0  0  0  0  0
    4.5905   -0.4248   -2.1362 C   0  0  0  0  0  0  0  0  0  0  0  0
    4.7688    0.8947   -2.4019 C   0  0  0  0  0  0  0  0  0  0  0  0
    6.0073    1.5404   -2.1634 C   0  0  0  0  0  0  0  0  0  0  0  0
    6.9530    0.6912   -1.6591 C   0  0  0  0  0  0  0  0  0  0  0  0
    8.5595    1.4883   -1.1711 S   0  0  0  0  0  0  0  0  0  0  0  0
    8.3031    2.0210    0.5720 C   0  0  0  0  0  0  0  0  0  0  0  0
    6.8265   -0.6033   -1.4140 C   0  0  0  0  0  0  0  0  0  0  0  0
    5.5694   -1.2302   -1.6495 C   0  0  0  0  0  0  0  0  0  0  0  0
    2.6026   -0.5645   -3.4866 C   0  0  0  0  0  0  0  0  0  0  0  0
    1.3290   -0.0561   -3.6196 C   0  0  0  0  0  0  0  0  0  0  0  0
    0.8182    0.4678   -4.8051 C   0  0  0  0  0  0  0  0  0  0  0  0
    1.6480    0.4718   -5.8922 C   0  0  0  0  0  0  0  0  0  0  0  0
    1.1504    1.3943   -7.4067 S   0  0  0  0  0  0  0  0  0  0  0  0
    2.0046    3.0167   -7.2782 C   0  0  0  0  0  0  0  0  0  0  0  0
    2.8893   -0.0341   -5.8216 C   0  0  0  0  0  0  0  0  0  0  0  0
    3.4222   -0.5557   -4.6598 C   0  0  0  0  0  0  0  0  0  0  0  0
    2.6851   -1.1988    0.0609 C   0  0  0  0  0  0  0  0  0  0  0  0
    2.0460    0.3266    0.6774 S   0  0  0  0  0  0  0  0  0  0  0  0
    2.3946   -3.8218   -2.4792 C   0  0  0  0  0  0  0  0  0  0  0  0
    2.5478   -3.6370   -3.7478 C   0  0  0  0  0  0  0  0  0  0  0  0
    1.4892   -3.8716   -4.6062 C   0  0  0  0  0  0  0  0  0  0  0  0
    1.3410   -3.3554   -5.9157 C   0  0  0  0  0  0  0  0  0  0  0  0
    2.5130   -3.2187   -6.7608 C   0  0  0  0  0  0  0  0  0  0  0  0
    2.8615   -2.6383   -7.9021 C   0  0  0  0  0  0  0  0  0  0  0  0
    4.0147   -2.8669   -8.5186 C   0  0  0  0  0  0  0  0  0  0  0  0
    4.9408   -3.6844   -8.0789 C   0  0  0  0  0  0  0  0  0  0  0  0
    6.4919   -4.3827   -8.5861 S   0  0  0  0  0  0  0  0  0  0  0  0
    6.0468   -6.0280   -9.3765 C   0  0  0  0  0  0  0  0  0  0  0  0
    5.4337   -6.9511   -8.3977 C   0  0  0  0  0  0  0  0  0  0  0  0
    4.0518   -4.2846   -6.4330 Se  0  0  0  0  0  2  0  0  0  0  0  0
    0.0928   -3.3148   -6.4964 C   0  0  0  0  0  0  0  0  0  0  0  0
   -1.0892   -3.7892   -5.9204 C   0  0  0  0  0  0  0  0  0  0  0  0
   -0.9131   -4.3220   -4.6647 C   0  0  0  0  0  0  0  0  0  0  0  0
   -1.9523   -4.9521   -3.8669 C   0  0  0  0  0  0  0  0  0  0  0  0
   -1.9410   -5.4692   -2.6132 C   0  0  0  0  0  0  0  0  0  0  0  0
   -3.0107   -6.0205   -2.0964 C   0  0  0  0  0  0  0  0  0  0  0  0
   -4.1791   -6.1491   -2.6714 C   0  0  0  0  0  0  0  0  0  0  0  0
   -5.8018   -6.7396   -2.3389 S   0  0  0  0  0  0  0  0  0  0  0  0
   -6.4554   -5.4776   -1.1239 C   0  0  0  0  0  0  0  0  0  0  0  0
   -6.4546   -4.1093   -1.7345 C   0  0  0  0  0  0  0  0  0  0  0  0
   -3.7362   -5.2947   -4.4103 Se  0  0  0  0  0  2  0  0  0  0  0  0
    0.3484   -4.3367   -4.0476 C   0  0  0  0  0  0  0  0  0  0  0  0
    0.7511   -4.4281   -2.3752 S   0  0  0  0  0  0  0  0  0  0  0  0
   -2.2087   -3.4668   -6.5599 C   0  0  0  0  0  0  0  0  0  0  0  0
   -2.1692   -2.6958   -7.6841 C   0  0  0  0  0  0  0  0  0  0  0  0
   -0.5048   -2.4527   -7.8807 S   0  0  0  0  0  0  0  0  0  0  0  0
   -3.3927   -2.1228   -8.3753 C   0  0  0  0  0  0  0  0  0  0  0  0
   -4.2778   -1.4218   -7.3717 C   0  0  0  0  0  0  0  0  0  0  0  0
   -4.2745   -0.1227   -7.1197 C   0  0  0  0  0  0  0  0  0  0  0  0
   -3.3861    0.7472   -7.8371 C   0  0  0  0  0  0  0  0  0  0  0  0
   -3.0640    1.9913   -7.4035 C   0  0  0  0  0  0  0  0  0  0  0  0
   -3.4143    2.9646   -6.0990 S   0  0  0  0  0  0  0  0  0  0  0  0
   -2.7765    4.5022   -6.4264 C   0  0  0  0  0  0  0  0  0  0  0  0
   -2.2901    5.5108   -5.9487 C   0  0  0  0  0  0  0  0  0  0  0  0
   -1.8506    6.1273   -4.8002 C   0  0  0  0  0  0  0  0  0  0  0  0
   -1.4367    6.6846   -3.7647 N   0  0  0  0  0  0  0  0  0  0  0  0
   -2.1843    6.9368   -7.1442 C   0  0  0  0  0  0  0  0  0  0  0  0
   -2.1529    7.5286   -7.6321 N   0  0  0  0  0  0  0  0  0  0  0  0
   -2.2479    4.0719   -7.7177 N   0  0  0  0  0  0  0  0  0  0  0  0
   -1.1318    4.9441   -8.3213 C   0  0  0  0  0  0  0  0  0  0  0  0
   -1.5450    5.6098   -9.5532 C   0  0  0  0  0  0  0  0  0  0  0  0
   -2.3603    2.9553   -8.2041 C   0  0  0  0  0  0  0  0  0  0  0  0
   -1.9064    2.5596   -9.3362 O   0  0  0  0  0  0  0  0  0  0  0  0
   -2.7670    0.2493   -9.0989 C   0  0  0  0  0  0  0  0  0  0  0  0
   -3.0432   -1.1719   -9.4463 C   0  0  0  0  0  0  0  0  0  0  0  0
   -9.9322    5.4736   -0.5775 H   0  0  0  0  0  0  0  0  0  0  0  0
   -9.5270    5.8974    1.1433 H   0  0  0  0  0  0  0  0  0  0  0  0
  -11.2288    5.4362    0.6403 H   0  0  0  0  0  0  0  0  0  0  0  0
  -10.1330    3.4722    1.8004 H   0  0  0  0  0  0  0  0  0  0  0  0
  -10.1025    3.1358    0.0366 H   0  0  0  0  0  0  0  0  0  0  0  0
   -4.2496    5.5406    1.5949 H   0  0  0  0  0  0  0  0  0  0  0  0
   -2.4371    5.6791    3.2775 H   0  0  0  0  0  0  0  0  0  0  0  0
   -3.1100    5.3451    5.6599 H   0  0  0  0  0  0  0  0  0  0  0  0
   -5.0575    3.1443    5.0022 H   0  0  0  0  0  0  0  0  0  0  0  0
   -5.2082    4.3747    6.2671 H   0  0  0  0  0  0  0  0  0  0  0  0
   -6.9422    4.4814    4.7913 H   0  0  0  0  0  0  0  0  0  0  0  0
   -5.9793    6.0583    4.6393 H   0  0  0  0  0  0  0  0  0  0  0  0
   -0.7072    6.1499    5.1918 H   0  0  0  0  0  0  0  0  0  0  0  0
    0.9403    7.8922    5.7536 H   0  0  0  0  0  0  0  0  0  0  0  0
    4.1468    8.0659    5.3315 H   0  0  0  0  0  0  0  0  0  0  0  0
    5.3972    8.4223    6.5788 H   0  0  0  0  0  0  0  0  0  0  0  0
    4.8384    6.7112    6.2450 H   0  0  0  0  0  0  0  0  0  0  0  0
    2.8489    5.4243    8.5836 H   0  0  0  0  0  0  0  0  0  0  0  0
    1.1114    3.6488    8.1198 H   0  0  0  0  0  0  0  0  0  0  0  0
   -1.2553    1.2609    6.5543 H   0  0  0  0  0  0  0  0  0  0  0  0
   -2.2082   -0.0589    8.4252 H   0  0  0  0  0  0  0  0  0  0  0  0
   -4.1916   -1.5962   11.0208 H   0  0  0  0  0  0  0  0  0  0  0  0
   -4.1700   -0.9664    9.3776 H   0  0  0  0  0  0  0  0  0  0  0  0
   -2.6152   -1.5502   10.0907 H   0  0  0  0  0  0  0  0  0  0  0  0
   -2.6892    3.5415   10.7125 H   0  0  0  0  0  0  0  0  0  0  0  0
   -1.7829    4.8022    8.9362 H   0  0  0  0  0  0  0  0  0  0  0  0
   -0.4020    1.7349    0.1988 H   0  0  0  0  0  0  0  0  0  0  0  0
   -1.2090    1.8148   -2.1610 H   0  0  0  0  0  0  0  0  0  0  0  0
   -3.8355   -1.8607   -4.7716 H   0  0  0  0  0  0  0  0  0  0  0  0
   -4.1459   -1.9042   -3.0374 H   0  0  0  0  0  0  0  0  0  0  0  0
   -5.1792   -0.8427   -4.0769 H   0  0  0  0  0  0  0  0  0  0  0  0
   -3.6145   -1.5750   -1.3856 H   0  0  0  0  0  0  0  0  0  0  0  0
   -2.7764   -1.7265    0.8212 H   0  0  0  0  0  0  0  0  0  0  0  0
   -0.1064   -2.6524    0.8168 H   0  0  0  0  0  0  0  0  0  0  0  0
   -0.5326   -4.8705    1.5519 H   0  0  0  0  0  0  0  0  0  0  0  0
   -1.9829   -7.6196    2.1638 H   0  0  0  0  0  0  0  0  0  0  0  0
   -0.8978   -8.0192    3.5987 H   0  0  0  0  0  0  0  0  0  0  0  0
   -0.3398   -6.9040    2.3449 H   0  0  0  0  0  0  0  0  0  0  0  0
   -2.7020   -3.3685    4.9205 H   0  0  0  0  0  0  0  0  0  0  0  0
   -2.2349   -1.0353    4.1523 H   0  0  0  0  0  0  0  0  0  0  0  0
    4.1660   -4.2257    4.1511 H   0  0  0  0  0  0  0  0  0  0  0  0
    6.5368   -4.7067    3.9671 H   0  0  0  0  0  0  0  0  0  0  0  0
   10.3535   -4.4479    4.1215 H   0  0  0  0  0  0  0  0  0  0  0  0
    8.6709   -5.1032    4.3162 H   0  0  0  0  0  0  0  0  0  0  0  0
    9.6328   -5.3800    2.7977 H   0  0  0  0  0  0  0  0  0  0  0  0
    7.0980   -0.8102    2.2568 H   0  0  0  0  0  0  0  0  0  0  0  0
    4.7734   -0.3986    2.4932 H   0  0  0  0  0  0  0  0  0  0  0  0
    0.5579   -2.9181    4.5354 H   0  0  0  0  0  0  0  0  0  0  0  0
    0.1548   -3.6003    6.9315 H   0  0  0  0  0  0  0  0  0  0  0  0
    2.5125   -5.9248   10.1340 H   0  0  0  0  0  0  0  0  0  0  0  0
    3.4993   -5.5787    8.7188 H   0  0  0  0  0  0  0  0  0  0  0  0
    1.7559   -6.1247    8.5397 H   0  0  0  0  0  0  0  0  0  0  0  0
    4.1779   -2.4587    7.7502 H   0  0  0  0  0  0  0  0  0  0  0  0
    4.5101   -1.7537    5.5016 H   0  0  0  0  0  0  0  0  0  0  0  0
    3.9811    1.5152   -2.8212 H   0  0  0  0  0  0  0  0  0  0  0  0
    6.1183    2.5620   -2.3562 H   0  0  0  0  0  0  0  0  0  0  0  0
    7.9218    3.0592    0.6400 H   0  0  0  0  0  0  0  0  0  0  0  0
    9.2972    2.0108    1.0510 H   0  0  0  0  0  0  0  0  0  0  0  0
    7.6610    1.3291    1.1200 H   0  0  0  0  0  0  0  0  0  0  0  0
    7.6205   -1.2084   -1.0769 H   0  0  0  0  0  0  0  0  0  0  0  0
    5.4234   -2.2646   -1.4747 H   0  0  0  0  0  0  0  0  0  0  0  0
    0.6968   -0.1033   -2.7540 H   0  0  0  0  0  0  0  0  0  0  0  0
   -0.1640    0.8384   -4.9048 H   0  0  0  0  0  0  0  0  0  0  0  0
    1.9708    3.4877   -8.2612 H   0  0  0  0  0  0  0  0  0  0  0  0
    3.0735    2.8973   -6.9895 H   0  0  0  0  0  0  0  0  0  0  0  0
    1.4688    3.6186   -6.5462 H   0  0  0  0  0  0  0  0  0  0  0  0
    3.5462   -0.0376   -6.7232 H   0  0  0  0  0  0  0  0  0  0  0  0
    4.4192   -0.9503   -4.5465 H   0  0  0  0  0  0  0  0  0  0  0  0
    3.5461   -3.3207   -4.1400 H   0  0  0  0  0  0  0  0  0  0  0  0
    2.1299   -1.8613   -8.3564 H   0  0  0  0  0  0  0  0  0  0  0  0
    4.2555   -2.3433   -9.5199 H   0  0  0  0  0  0  0  0  0  0  0  0
    5.4258   -5.8060  -10.2546 H   0  0  0  0  0  0  0  0  0  0  0  0
    7.0079   -6.4947   -9.7748 H   0  0  0  0  0  0  0  0  0  0  0  0
    5.0563   -6.3798   -7.5180 H   0  0  0  0  0  0  0  0  0  0  0  0
    4.5927   -7.5273   -8.8686 H   0  0  0  0  0  0  0  0  0  0  0  0
    6.0903   -7.7205   -7.9457 H   0  0  0  0  0  0  0  0  0  0  0  0
   -0.9862   -5.4508   -2.0405 H   0  0  0  0  0  0  0  0  0  0  0  0
   -2.9453   -6.4321   -0.9828 H   0  0  0  0  0  0  0  0  0  0  0  0
   -7.4920   -5.7445   -0.7912 H   0  0  0  0  0  0  0  0  0  0  0  0
   -5.7826   -5.5080   -0.2487 H   0  0  0  0  0  0  0  0  0  0  0  0
   -5.4233   -3.8252   -2.1088 H   0  0  0  0  0  0  0  0  0  0  0  0
   -7.1210   -4.0101   -2.5861 H   0  0  0  0  0  0  0  0  0  0  0  0
   -6.7002   -3.3661   -0.9426 H   0  0  0  0  0  0  0  0  0  0  0  0
   -3.2225   -3.8422   -6.2400 H   0  0  0  0  0  0  0  0  0  0  0  0
   -4.0034   -2.9627   -8.7327 H   0  0  0  0  0  0  0  0  0  0  0  0
   -4.9697   -2.0493   -6.7849 H   0  0  0  0  0  0  0  0  0  0  0  0
   -4.9711    0.3112   -6.3706 H   0  0  0  0  0  0  0  0  0  0  0  0
   -0.6482    5.5713   -7.5695 H   0  0  0  0  0  0  0  0  0  0  0  0
   -0.2509    4.2136   -8.5168 H   0  0  0  0  0  0  0  0  0  0  0  0
   -2.6361    5.7127   -9.6566 H   0  0  0  0  0  0  0  0  0  0  0  0
   -1.2532    4.9655  -10.4554 H   0  0  0  0  0  0  0  0  0  0  0  0
   -1.0772    6.6033   -9.7449 H   0  0  0  0  0  0  0  0  0  0  0  0
   -3.1512    0.8684   -9.9310 H   0  0  0  0  0  0  0  0  0  0  0  0
   -1.6617    0.4113   -9.0503 H   0  0  0  0  0  0  0  0  0  0  0  0
   -3.9266   -1.1848  -10.1648 H   0  0  0  0  0  0  0  0  0  0  0  0
   -2.1480   -1.5516  -10.0131 H   0  0  0  0  0  0  0  0  0  0  0  0
  1  2  1  0
  2  3  1  0
  3  4  1  0
  4  5  2  3
  5  6  1  0
  6  7  3  0
  5  8  1  0
  8  9  3  0
  4 10  1  0
 10 11  1  0
 11 12  1  0
 12 13  2  0
 11 14  2  3
 14 15  1  0
 15 16  2  0
 16 17  1  0
 17 18  1  0
 18 19  1  0
 17 20  1  0
 20 21  2  0
 21 22  1  0
 22 23  1  0
 23 24  2  0
 24 25  1  0
 25 26  2  0
 26 27  1  0
 27 28  1  0
 26 29  1  0
 29 30  2  0
 22 31  1  0
 31 32  2  0
 32 33  1  0
 33 34  2  0
 34 35  1  0
 35 36  1  0
 34 37  1  0
 37 38  2  0
 21 39  1  0
 39 40  1  0
 40 41  1  0
 41 42  2  0
 42 43  1  0
 43 44  1  0
 44 45  2  0
 45 46  1  0
 46 47  2  0
 47 48  1  0
 48 49  1  0
 47 50  1  0
 50 51  2  0
 43 52  1  0
 52 53  2  0
 53 54  1  0
 54 55  2  0
 55 56  1  0
 56 57  1  0
 55 58  1  0
 58 59  2  0
 42 60  1  0
 60 61  1  0
 41 62  1  0
 62 63  2  0
 63 64  1  0
 64 65  1  0
 65 66  2  0
 66 67  1  0
 67 68  2  0
 68 69  1  0
 69 70  1  0
 68 71  1  0
 71 72  2  0
 64 73  1  0
 73 74  2  0
 74 75  1  0
 75 76  2  0
 76 77  1  0
 77 78  1  0
 76 79  1  0
 79 80  2  0
 63 81  1  0
 81 82  1  0
 82 83  1  0
 83 84  2  0
 84 85  1  0
 85 86  1  0
 86 87  2  0
 87 88  1  0
 88 89  2  0
 89 90  1  0
 90 91  1  0
 89 92  1  0
 92 93  2  0
 85 94  1  0
 94 95  2  0
 95 96  1  0
 96 97  2  0
 97 98  1  0
 98 99  1  0
 97100  1  0
100101  2  0
 84102  1  0
102103  1  0
 83104  1  0
104105  2  0
105106  1  0
106107  2  0
107108  1  0
108109  2  0
109110  1  0
110111  2  0
111112  1  0
112113  1  0
113114  1  0
111115  1  0
107116  1  0
116117  2  0
117118  1  0
118119  1  0
119120  2  0
120121  1  0
121122  2  0
122123  1  0
123124  1  0
124125  1  0
122126  1  0
118127  2  0
127128  1  0
117129  1  0
129130  2  0
130131  1  0
130132  1  0
132133  1  0
133134  2  0
134135  1  0
135136  2  3
136137  1  0
137138  1  0
138139  2  3
139140  1  0
140141  3  0
139142  1  0
142143  3  0
138144  1  0
144145  1  0
145146  1  0
144147  1  0
147148  2  0
135149  1  0
149150  1  0
 12  3  1  0
 19 14  1  0
 61 20  1  0
103 62  1  0
128104  1  0
150132  1  0
 30 23  1  0
 38 31  1  0
 60 39  2  0
 72 65  1  0
 80 73  1  0
102 81  2  0
127106  1  0
147136  1  0
 51 44  1  0
 59 52  1  0
 93 86  1  0
101 94  1  0
115108  1  0
131116  1  0
126119  1  0
  1151  1  0
  1152  1  0
  1153  1  0
  2154  1  0
  2155  1  0
 15156  1  0
 16157  1  0
 17158  1  0
 18159  1  0
 18160  1  0
 19161  1  0
 19162  1  0
 24163  1  0
 25164  1  0
 28165  1  0
 28166  1  0
 28167  1  0
 29168  1  0
 30169  1  0
 32170  1  0
 33171  1  0
 36172  1  0
 36173  1  0
 36174  1  0
 37175  1  0
 38176  1  0
 45177  1  0
 46178  1  0
 49179  1  0
 49180  1  0
 49181  1  0
 50182  1  0
 51183  1  0
 53184  1  0
 54185  1  0
 57186  1  0
 57187  1  0
 57188  1  0
 58189  1  0
 59190  1  0
 66191  1  0
 67192  1  0
 70193  1  0
 70194  1  0
 70195  1  0
 71196  1  0
 72197  1  0
 74198  1  0
 75199  1  0
 78200  1  0
 78201  1  0
 78202  1  0
 79203  1  0
 80204  1  0
 87205  1  0
 88206  1  0
 91207  1  0
 91208  1  0
 91209  1  0
 92210  1  0
 93211  1  0
 95212  1  0
 96213  1  0
 99214  1  0
 99215  1  0
 99216  1  0
100217  1  0
101218  1  0
105219  1  0
109220  1  0
110221  1  0
113222  1  0
113223  1  0
114224  1  0
114225  1  0
114226  1  0
120227  1  0
121228  1  0
124229  1  0
124230  1  0
125231  1  0
125232  1  0
125233  1  0
129234  1  0
132235  1  0
133236  1  0
134237  1  0
145238  1  0
145239  1  0
146240  1  0
146241  1  0
146242  1  0
149243  1  0
149244  1  0
150245  1  0
150246  1  0
M  END

