
     RDKit          3D

211227  0  0  0  0  0  0  0  0999 V2000
    2.5296   -1.4839   -8.8644 C   0  0  0  0  0  0  0  0  0  0  0  0
    2.1198   -2.8376   -9.4359 C   0  0  0  0  0  0  0  0  0  0  0  0
    0.9973   -3.4079   -8.6653 N   0  0  0  0  0  0  0  0  0  0  0  0
   -0.3432   -3.1462   -8.8399 C   0  0  0  0  0  0  0  0  0  0  0  0
   -0.9279   -2.2782   -9.7112 C   0  0  0  0  0  0  0  0  0  0  0  0
   -0.2211   -1.4434  -10.6502 C   0  0  0  0  0  0  0  0  0  0  0  0
    0.3240   -0.7660  -11.4124 N   0  0  0  0  0  0  0  0  0  0  0  0
   -2.3626   -2.0924   -9.6958 C   0  0  0  0  0  0  0  0  0  0  0  0
   -3.5054   -1.9433   -9.6796 N   0  0  0  0  0  0  0  0  0  0  0  0
   -1.2363   -4.0283   -7.7122 S   0  0  0  0  0  0  0  0  0  0  0  0
    0.0811   -4.7188   -6.9335 C   0  0  0  0  0  0  0  0  0  0  0  0
    1.2207   -4.2666   -7.6137 C   0  0  0  0  0  0  0  0  0  0  0  0
    2.3868   -4.6517   -7.3125 O   0  0  0  0  0  0  0  0  0  0  0  0
    0.0069   -5.4452   -5.7960 C   0  0  0  0  0  0  0  0  0  0  0  0
   -1.3292   -5.8204   -5.2580 C   0  0  0  0  0  0  0  0  0  0  0  0
   -1.5508   -5.7358   -3.9460 C   0  0  0  0  0  0  0  0  0  0  0  0
   -0.4462   -5.2066   -3.0681 C   0  0  0  0  0  0  0  0  0  0  0  0
    0.8404   -5.9745   -3.4222 C   0  0  0  0  0  0  0  0  0  0  0  0
    1.2262   -5.6931   -4.9008 C   0  0  0  0  0  0  0  0  0  0  0  0
   -0.8547   -5.0901   -1.6128 C   0  0  0  0  0  0  0  0  0  0  0  0
    0.0703   -4.8110   -0.5673 C   0  0  0  0  0  0  0  0  0  0  0  0
    1.0640   -5.7590   -0.0816 N   0  0  0  0  0  0  0  0  0  0  0  0
    1.0239   -7.1346   -0.5080 C   0  0  0  0  0  0  0  0  0  0  0  0
   -0.1937   -7.8433   -0.5331 C   0  0  0  0  0  0  0  0  0  0  0  0
   -0.2352   -9.1587   -0.9890 C   0  0  0  0  0  0  0  0  0  0  0  0
    0.9423   -9.8053   -1.3750 C   0  0  0  0  0  0  0  0  0  0  0  0
    0.8728  -11.4929   -1.9665 S   0  0  0  0  0  0  0  0  0  0  0  0
    0.8445  -12.2052   -0.2906 C   0  0  0  0  0  0  0  0  0  0  0  0
    2.1669   -9.1293   -1.2997 C   0  0  0  0  0  0  0  0  0  0  0  0
    2.2082   -7.7993   -0.8619 C   0  0  0  0  0  0  0  0  0  0  0  0
    1.6566   -5.5357    1.2072 C   0  0  0  0  0  0  0  0  0  0  0  0
    2.9180   -4.9381    1.3204 C   0  0  0  0  0  0  0  0  0  0  0  0
    3.4310   -4.6187    2.5826 C   0  0  0  0  0  0  0  0  0  0  0  0
    2.6758   -4.8732    3.7354 C   0  0  0  0  0  0  0  0  0  0  0  0
    3.2771   -4.3600    5.3428 S   0  0  0  0  0  0  0  0  0  0  0  0
    4.0426   -5.9676    5.7125 C   0  0  0  0  0  0  0  0  0  0  0  0
    1.4296   -5.5008    3.6264 C   0  0  0  0  0  0  0  0  0  0  0  0
    0.9257   -5.8376    2.3688 C   0  0  0  0  0  0  0  0  0  0  0  0
   -0.3892   -3.7463    0.2183 C   0  0  0  0  0  0  0  0  0  0  0  0
    0.3729   -2.6001    1.1898 S   0  0  0  0  0  0  0  0  0  0  0  0
   -1.0015   -1.6046    1.3242 C   0  0  0  0  0  0  0  0  0  0  0  0
   -2.0460   -2.1621    0.5789 C   0  0  0  0  0  0  0  0  0  0  0  0
   -3.4154   -1.7378    0.6641 N   0  0  0  0  0  0  0  0  0  0  0  0
   -4.2871   -2.4738    1.5452 C   0  0  0  0  0  0  0  0  0  0  0  0
   -3.8307   -2.8903    2.8043 C   0  0  0  0  0  0  0  0  0  0  0  0
   -4.6456   -3.6534    3.6394 C   0  0  0  0  0  0  0  0  0  0  0  0
   -5.9271   -4.0194    3.2281 C   0  0  0  0  0  0  0  0  0  0  0  0
   -6.9597   -5.0186    4.3028 S   0  0  0  0  0  0  0  0  0  0  0  0
   -6.2639   -6.5939    3.7051 C   0  0  0  0  0  0  0  0  0  0  0  0
   -6.3986   -3.6084    1.9744 C   0  0  0  0  0  0  0  0  0  0  0  0
   -5.5819   -2.8423    1.1350 C   0  0  0  0  0  0  0  0  0  0  0  0
   -3.9028   -0.6270   -0.1169 C   0  0  0  0  0  0  0  0  0  0  0  0
   -4.8644    0.2442    0.4235 C   0  0  0  0  0  0  0  0  0  0  0  0
   -5.4048    1.2749   -0.3488 C   0  0  0  0  0  0  0  0  0  0  0  0
   -4.9884    1.4501   -1.6719 C   0  0  0  0  0  0  0  0  0  0  0  0
   -5.7167    2.7450   -2.6784 S   0  0  0  0  0  0  0  0  0  0  0  0
   -6.9895    1.6547   -3.3862 C   0  0  0  0  0  0  0  0  0  0  0  0
   -4.0063    0.6121   -2.2072 C   0  0  0  0  0  0  0  0  0  0  0  0
   -3.4633   -0.4212   -1.4364 C   0  0  0  0  0  0  0  0  0  0  0  0
   -1.6599   -3.3484   -0.0195 C   0  0  0  0  0  0  0  0  0  0  0  0
   -2.2705   -4.1745   -1.3190 S   0  0  0  0  0  0  0  0  0  0  0  0
   -0.9503   -0.1913    1.6717 C   0  0  0  0  0  0  0  0  0  0  0  0
   -0.7926    0.3627    2.9493 C   0  0  0  0  0  0  0  0  0  0  0  0
   -0.1534   -0.3575    4.0169 N   0  0  0  0  0  0  0  0  0  0  0  0
    1.2929   -0.3488    4.1372 C   0  0  0  0  0  0  0  0  0  0  0  0
    1.9193   -0.6962    5.3516 C   0  0  0  0  0  0  0  0  0  0  0  0
    3.3138   -0.6642    5.4695 C   0  0  0  0  0  0  0  0  0  0  0  0
    4.1038   -0.2826    4.3808 C   0  0  0  0  0  0  0  0  0  0  0  0
    5.8882   -0.2092    4.5306 S   0  0  0  0  0  0  0  0  0  0  0  0
    6.1365   -1.9236    3.9739 C   0  0  0  0  0  0  0  0  0  0  0  0
    3.4970    0.0608    3.1700 C   0  0  0  0  0  0  0  0  0  0  0  0
    2.1085    0.0255    3.0468 C   0  0  0  0  0  0  0  0  0  0  0  0
   -0.9639   -1.1317    4.9125 C   0  0  0  0  0  0  0  0  0  0  0  0
   -1.8395   -0.4888    5.7981 C   0  0  0  0  0  0  0  0  0  0  0  0
   -2.4974   -1.2229    6.7897 C   0  0  0  0  0  0  0  0  0  0  0  0
   -2.2993   -2.6061    6.8918 C   0  0  0  0  0  0  0  0  0  0  0  0
   -2.9942   -3.5068    8.2840 S   0  0  0  0  0  0  0  0  0  0  0  0
   -4.5341   -3.9785    7.4386 C   0  0  0  0  0  0  0  0  0  0  0  0
   -1.4598   -3.2559    5.9789 C   0  0  0  0  0  0  0  0  0  0  0  0
   -0.7896   -2.5210    4.9964 C   0  0  0  0  0  0  0  0  0  0  0  0
   -0.7579    1.7566    2.8603 C   0  0  0  0  0  0  0  0  0  0  0  0
   -0.5488    2.9975    3.9748 S   0  0  0  0  0  0  0  0  0  0  0  0
   -0.4003    4.1943    2.7684 C   0  0  0  0  0  0  0  0  0  0  0  0
   -0.4334    3.6105    1.4866 C   0  0  0  0  0  0  0  0  0  0  0  0
    0.2864    4.1563    0.3549 N   0  0  0  0  0  0  0  0  0  0  0  0
   -0.1508    3.9268   -1.0087 C   0  0  0  0  0  0  0  0  0  0  0  0
   -1.5200    3.8589   -1.3239 C   0  0  0  0  0  0  0  0  0  0  0  0
   -1.9322    3.5984   -2.6365 C   0  0  0  0  0  0  0  0  0  0  0  0
   -0.9877    3.4189   -3.6519 C   0  0  0  0  0  0  0  0  0  0  0  0
   -1.5210    3.0693   -5.3312 S   0  0  0  0  0  0  0  0  0  0  0  0
   -1.1328    1.2928   -5.2242 C   0  0  0  0  0  0  0  0  0  0  0  0
    0.3727    3.5161   -3.3583 C   0  0  0  0  0  0  0  0  0  0  0  0
    0.7891    3.7479   -2.0453 C   0  0  0  0  0  0  0  0  0  0  0  0
    1.6120    4.6742    0.6022 C   0  0  0  0  0  0  0  0  0  0  0  0
    2.4796    4.0090    1.4947 C   0  0  0  0  0  0  0  0  0  0  0  0
    3.7165    4.5624    1.8203 C   0  0  0  0  0  0  0  0  0  0  0  0
    4.1285    5.7577    1.2262 C   0  0  0  0  0  0  0  0  0  0  0  0
    5.7204    6.4748    1.6456 S   0  0  0  0  0  0  0  0  0  0  0  0
    6.6605    5.3304    0.5854 C   0  0  0  0  0  0  0  0  0  0  0  0
    3.2925    6.4028    0.3041 C   0  0  0  0  0  0  0  0  0  0  0  0
    2.0368    5.8708   -0.0027 C   0  0  0  0  0  0  0  0  0  0  0  0
   -0.7371    2.2593    1.5937 C   0  0  0  0  0  0  0  0  0  0  0  0
   -0.8649    1.0210    0.4825 S   0  0  0  0  0  0  0  0  0  0  0  0
   -0.3708    5.6425    2.9940 C   0  0  0  0  0  0  0  0  0  0  0  0
   -1.5708    6.3564    2.9198 C   0  0  0  0  0  0  0  0  0  0  0  0
   -1.5350    7.7237    2.6563 C   0  0  0  0  0  0  0  0  0  0  0  0
   -0.3111    8.3710    2.4157 C   0  0  0  0  0  0  0  0  0  0  0  0
    0.8738    7.6385    2.6443 C   0  0  0  0  0  0  0  0  0  0  0  0
    0.8124    6.3075    2.9008 N   0  0  0  0  0  0  0  0  0  0  0  0
   -0.3261    9.6686    1.6189 C   0  0  0  0  0  0  0  0  0  0  0  0
    1.0299   10.3661    1.5977 C   0  0  0  0  0  0  0  0  0  0  0  0
    1.7262   10.5765    0.4719 C   0  0  0  0  0  0  0  0  0  0  0  0
    1.1496   10.2088   -0.8395 C   0  0  0  0  0  0  0  0  0  0  0  0
    1.8809    9.6641   -1.8450 C   0  0  0  0  0  0  0  0  0  0  0  0
    1.2373    8.9193   -3.2062 S   0  0  0  0  0  0  0  0  0  0  0  0
    2.7040    8.3854   -3.8468 C   0  0  0  0  0  0  0  0  0  0  0  0
    2.7793    7.6083   -4.9619 C   0  0  0  0  0  0  0  0  0  0  0  0
    1.5752    7.2200   -5.6587 C   0  0  0  0  0  0  0  0  0  0  0  0
    0.6089    6.9069   -6.2145 N   0  0  0  0  0  0  0  0  0  0  0  0
    3.9935    7.0431   -5.4878 C   0  0  0  0  0  0  0  0  0  0  0  0
    4.9659    6.5840   -5.9220 N   0  0  0  0  0  0  0  0  0  0  0  0
    3.7342    8.8217   -3.0464 N   0  0  0  0  0  0  0  0  0  0  0  0
    5.1828    8.6321   -3.2749 C   0  0  0  0  0  0  0  0  0  0  0  0
    5.6602    7.3239   -2.6522 C   0  0  0  0  0  0  0  0  0  0  0  0
    3.2743    9.4945   -1.9367 C   0  0  0  0  0  0  0  0  0  0  0  0
    4.0721    9.9307   -1.0626 O   0  0  0  0  0  0  0  0  0  0  0  0
   -0.3527   10.2762   -0.8857 C   0  0  0  0  0  0  0  0  0  0  0  0
   -0.8917    9.3499    0.1991 C   0  0  0  0  0  0  0  0  0  0  0  0
    3.0026   -1.6276   -7.8674 H   0  0  0  0  0  0  0  0  0  0  0  0
    1.6474   -0.8162   -8.7465 H   0  0  0  0  0  0  0  0  0  0  0  0
    3.2560   -0.9993   -9.5508 H   0  0  0  0  0  0  0  0  0  0  0  0
    3.0052   -3.5070   -9.3924 H   0  0  0  0  0  0  0  0  0  0  0  0
    1.8759   -2.7766  -10.5136 H   0  0  0  0  0  0  0  0  0  0  0  0
   -2.1311   -6.1194   -5.9200 H   0  0  0  0  0  0  0  0  0  0  0  0
   -2.5066   -6.0343   -3.5387 H   0  0  0  0  0  0  0  0  0  0  0  0
   -0.2669   -4.1511   -3.3796 H   0  0  0  0  0  0  0  0  0  0  0  0
    1.6850   -5.6778   -2.7704 H   0  0  0  0  0  0  0  0  0  0  0  0
    0.6639   -7.0632   -3.3031 H   0  0  0  0  0  0  0  0  0  0  0  0
    1.8221   -6.5432   -5.2991 H   0  0  0  0  0  0  0  0  0  0  0  0
    1.8732   -4.7891   -4.8967 H   0  0  0  0  0  0  0  0  0  0  0  0
   -1.1087   -7.3706   -0.2045 H   0  0  0  0  0  0  0  0  0  0  0  0
   -1.1813   -9.6761   -1.0347 H   0  0  0  0  0  0  0  0  0  0  0  0
   -0.0257  -11.8142    0.2807 H   0  0  0  0  0  0  0  0  0  0  0  0
    0.7474  -13.3080   -0.3701 H   0  0  0  0  0  0  0  0  0  0  0  0
    1.7864  -11.9603    0.2453 H   0  0  0  0  0  0  0  0  0  0  0  0
    3.0848   -9.6267   -1.5935 H   0  0  0  0  0  0  0  0  0  0  0  0
    3.1563   -7.2772   -0.8331 H   0  0  0  0  0  0  0  0  0  0  0  0
    3.4890   -4.6945    0.4335 H   0  0  0  0  0  0  0  0  0  0  0  0
    4.4029   -4.1524    2.6676 H   0  0  0  0  0  0  0  0  0  0  0  0
    4.8786   -6.1624    5.0085 H   0  0  0  0  0  0  0  0  0  0  0  0
    3.2944   -6.7826    5.6347 H   0  0  0  0  0  0  0  0  0  0  0  0
    4.4412   -5.9474    6.7458 H   0  0  0  0  0  0  0  0  0  0  0  0
    0.8367   -5.7021    4.5099 H   0  0  0  0  0  0  0  0  0  0  0  0
   -0.0549   -6.2928    2.2890 H   0  0  0  0  0  0  0  0  0  0  0  0
   -2.8423   -2.6251    3.1427 H   0  0  0  0  0  0  0  0  0  0  0  0
   -4.2643   -3.9685    4.6006 H   0  0  0  0  0  0  0  0  0  0  0  0
   -6.4754   -6.7205    2.6235 H   0  0  0  0  0  0  0  0  0  0  0  0
   -6.7308   -7.4350    4.2590 H   0  0  0  0  0  0  0  0  0  0  0  0
   -5.1659   -6.6203    3.8750 H   0  0  0  0  0  0  0  0  0  0  0  0
   -7.3933   -3.8854    1.6512 H   0  0  0  0  0  0  0  0  0  0  0  0
   -5.9532   -2.5484    0.1611 H   0  0  0  0  0  0  0  0  0  0  0  0
   -5.2080    0.1178    1.4446 H   0  0  0  0  0  0  0  0  0  0  0  0
   -6.1554    1.9297    0.0777 H   0  0  0  0  0  0  0  0  0  0  0  0
   -7.6399    1.2520   -2.5816 H   0  0  0  0  0  0  0  0  0  0  0  0
   -6.5105    0.8193   -3.9375 H   0  0  0  0  0  0  0  0  0  0  0  0
   -7.6130    2.2394   -4.0935 H   0  0  0  0  0  0  0  0  0  0  0  0
   -3.6795    0.7495   -3.2290 H   0  0  0  0  0  0  0  0  0  0  0  0
   -2.7224   -1.0758   -1.8759 H   0  0  0  0  0  0  0  0  0  0  0  0
    1.3340   -0.9785    6.2176 H   0  0  0  0  0  0  0  0  0  0  0  0
    3.7758   -0.9281    6.4129 H   0  0  0  0  0  0  0  0  0  0  0  0
    5.8830   -2.6210    4.7982 H   0  0  0  0  0  0  0  0  0  0  0  0
    7.1996   -2.0577    3.6952 H   0  0  0  0  0  0  0  0  0  0  0  0
    5.5115   -2.1378    3.0834 H   0  0  0  0  0  0  0  0  0  0  0  0
    4.0997    0.3600    2.3216 H   0  0  0  0  0  0  0  0  0  0  0  0
    1.6847    0.2939    2.0911 H   0  0  0  0  0  0  0  0  0  0  0  0
   -1.9594    0.5859    5.7587 H   0  0  0  0  0  0  0  0  0  0  0  0
   -3.1275   -0.7083    7.5042 H   0  0  0  0  0  0  0  0  0  0  0  0
   -4.9553   -3.1224    6.8705 H   0  0  0  0  0  0  0  0  0  0  0  0
   -4.3395   -4.8347    6.7616 H   0  0  0  0  0  0  0  0  0  0  0  0
   -5.2750   -4.2962    8.2006 H   0  0  0  0  0  0  0  0  0  0  0  0
   -1.2935   -4.3238    6.0521 H   0  0  0  0  0  0  0  0  0  0  0  0
   -0.1088   -3.0227    4.3202 H   0  0  0  0  0  0  0  0  0  0  0  0
   -2.2690    4.0003   -0.5539 H   0  0  0  0  0  0  0  0  0  0  0  0
   -2.9845    3.5472   -2.8662 H   0  0  0  0  0  0  0  0  0  0  0  0
   -0.0382    1.1518   -5.1067 H   0  0  0  0  0  0  0  0  0  0  0  0
   -1.6619    0.8280   -4.3681 H   0  0  0  0  0  0  0  0  0  0  0  0
   -1.4580    0.7941   -6.1597 H   0  0  0  0  0  0  0  0  0  0  0  0
    1.1110    3.3867   -4.1405 H   0  0  0  0  0  0  0  0  0  0  0  0
    1.8516    3.7730   -1.8464 H   0  0  0  0  0  0  0  0  0  0  0  0
    2.1823    3.0774    1.9578 H   0  0  0  0  0  0  0  0  0  0  0  0
    4.3547    4.0567    2.5325 H   0  0  0  0  0  0  0  0  0  0  0  0
    6.2430    5.3102   -0.4419 H   0  0  0  0  0  0  0  0  0  0  0  0
    6.6210    4.3088    1.0192 H   0  0  0  0  0  0  0  0  0  0  0  0
    7.7184    5.6567    0.5405 H   0  0  0  0  0  0  0  0  0  0  0  0
    3.6012    7.3381   -0.1394 H   0  0  0  0  0  0  0  0  0  0  0  0
    1.3868    6.4037   -0.6852 H   0  0  0  0  0  0  0  0  0  0  0  0
   -2.5216    5.8400    2.9461 H   0  0  0  0  0  0  0  0  0  0  0  0
   -2.4703    8.2439    2.4790 H   0  0  0  0  0  0  0  0  0  0  0  0
    1.8460    8.0847    2.4922 H   0  0  0  0  0  0  0  0  0  0  0  0
   -1.0322   10.3727    2.1178 H   0  0  0  0  0  0  0  0  0  0  0  0
    1.4598   10.6841    2.5417 H   0  0  0  0  0  0  0  0  0  0  0  0
    2.6997   11.0461    0.5417 H   0  0  0  0  0  0  0  0  0  0  0  0
    5.7547    9.4681   -2.8079 H   0  0  0  0  0  0  0  0  0  0  0  0
    5.4413    8.7011   -4.3509 H   0  0  0  0  0  0  0  0  0  0  0  0
    5.5887    7.3953   -1.5417 H   0  0  0  0  0  0  0  0  0  0  0  0
    6.7202    7.1336   -2.9339 H   0  0  0  0  0  0  0  0  0  0  0  0
    5.0363    6.4713   -2.9996 H   0  0  0  0  0  0  0  0  0  0  0  0
   -0.7881    9.9908   -1.8681 H   0  0  0  0  0  0  0  0  0  0  0  0
   -0.6838   11.3189   -0.6757 H   0  0  0  0  0  0  0  0  0  0  0  0
   -0.6407    8.3080   -0.0990 H   0  0  0  0  0  0  0  0  0  0  0  0
   -2.0036    9.4192    0.2205 H   0  0  0  0  0  0  0  0  0  0  0  0
  1  2  1  0
  2  3  1  0
  3  4  1  0
  4  5  2  3
  5  6  1  0
  6  7  3  0
  5  8  1  0
  8  9  3  0
  4 10  1  0
 10 11  1  0
 11 12  1  0
 12 13  2  0
 11 14  2  3
 14 15  1  0
 15 16  2  0
 16 17  1  0
 17 18  1  0
 18 19  1  0
 17 20  1  0
 20 21  2  0
 21 22  1  0
 22 23  1  0
 23 24  2  0
 24 25  1  0
 25 26  2  0
 26 27  1  0
 27 28  1  0
 26 29  1  0
 29 30  2  0
 22 31  1  0
 31 32  2  0
 32 33  1  0
 33 34  2  0
 34 35  1  0
 35 36  1  0
 34 37  1  0
 37 38  2  0
 21 39  1  0
 39 40  1  0
 40 41  1  0
 41 42  2  0
 42 43  1  0
 43 44  1  0
 44 45  2  0
 45 46  1  0
 46 47  2  0
 47 48  1  0
 48 49  1  0
 47 50  1  0
 50 51  2  0
 43 52  1  0
 52 53  2  0
 53 54  1  0
 54 55  2  0
 55 56  1  0
 56 57  1  0
 55 58  1  0
 58 59  2  0
 42 60  1  0
 60 61  1  0
 41 62  1  0
 62 63  2  0
 63 64  1  0
 64 65  1  0
 65 66  2  0
 66 67  1  0
 67 68  2  0
 68 69  1  0
 69 70  1  0
 68 71  1  0
 71 72  2  0
 64 73  1  0
 73 74  2  0
 74 75  1  0
 75 76  2  0
 76 77  1  0
 77 78  1  0
 76 79  1  0
 79 80  2  0
 63 81  1  0
 81 82  1  0
 82 83  1  0
 83 84  2  0
 84 85  1  0
 85 86  1  0
 86 87  2  0
 87 88  1  0
 88 89  2  0
 89 90  1  0
 90 91  1  0
 89 92  1  0
 92 93  2  0
 85 94  1  0
 94 95  2  0
 95 96  1  0
 96 97  2  0
 97 98  1  0
 98 99  1  0
 97100  1  0
100101  2  0
 84102  1  0
102103  1  0
 83104  1  0
104105  2  0
105106  1  0
106107  2  0
107108  1  0
108109  2  0
107110  1  0
110111  1  0
111112  2  0
112113  1  0
113114  2  3
114115  1  0
115116  1  0
116117  2  3
117118  1  0
118119  3  0
117120  1  0
120121  3  0
116122  1  0
122123  1  0
123124  1  0
122125  1  0
125126  2  0
113127  1  0
127128  1  0
 12  3  1  0
 19 14  1  0
 61 20  1  0
103 62  1  0
109104  1  0
128110  1  0
 30 23  1  0
 38 31  1  0
 60 39  2  0
 72 65  1  0
 80 73  1  0
102 81  2  0
125114  1  0
 51 44  1  0
 59 52  1  0
 93 86  1  0
101 94  1  0
  1129  1  0
  1130  1  0
  1131  1  0
  2132  1  0
  2133  1  0
 15134  1  0
 16135  1  0
 17136  1  0
 18137  1  0
 18138  1  0
 19139  1  0
 19140  1  0
 24141  1  0
 25142  1  0
 28143  1  0
 28144  1  0
 28145  1  0
 29146  1  0
 30147  1  0
 32148  1  0
 33149  1  0
 36150  1  0
 36151  1  0
 36152  1  0
 37153  1  0
 38154  1  0
 45155  1  0
 46156  1  0
 49157  1  0
 49158  1  0
 49159  1  0
 50160  1  0
 51161  1  0
 53162  1  0
 54163  1  0
 57164  1  0
 57165  1  0
 57166  1  0
 58167  1  0
 59168  1  0
 66169  1  0
 67170  1  0
 70171  1  0
 70172  1  0
 70173  1  0
 71174  1  0
 72175  1  0
 74176  1  0
 75177  1  0
 78178  1  0
 78179  1  0
 78180  1  0
 79181  1  0
 80182  1  0
 87183  1  0
 88184  1  0
 91185  1  0
 91186  1  0
 91187  1  0
 92188  1  0
 93189  1  0
 95190  1  0
 96191  1  0
 99192  1  0
 99193  1  0
 99194  1  0
100195  1  0
101196  1  0
105197  1  0
106198  1  0
108199  1  0
110200  1  0
111201  1  0
112202  1  0
123203  1  0
123204  1  0
124205  1  0
124206  1  0
124207  1  0
127208  1  0
127209  1  0
128210  1  0
128211  1  0
M  END

