
     RDKit          3D

223240  0  0  0  0  0  0  0  0999 V2000
   -7.7985   -9.9980   -3.5156 C   0  0  0  0  0  0  0  0  0  0  0  0
   -8.8073   -9.2783   -4.4067 C   0  0  0  0  0  0  0  0  0  0  0  0
   -9.0182   -7.8987   -3.9331 N   0  0  0  0  0  0  0  0  0  0  0  0
  -10.0056   -7.4567   -3.0899 C   0  0  0  0  0  0  0  0  0  0  0  0
  -10.9135   -8.2019   -2.4010 C   0  0  0  0  0  0  0  0  0  0  0  0
  -11.9608   -7.5601   -1.6410 C   0  0  0  0  0  0  0  0  0  0  0  0
  -12.8126   -7.0569   -1.0412 N   0  0  0  0  0  0  0  0  0  0  0  0
  -10.8515   -9.6356   -2.2652 C   0  0  0  0  0  0  0  0  0  0  0  0
  -10.7867  -10.7818   -2.1245 N   0  0  0  0  0  0  0  0  0  0  0  0
   -9.8819   -5.7818   -2.9103 S   0  0  0  0  0  0  0  0  0  0  0  0
   -8.4936   -5.6028   -3.8386 C   0  0  0  0  0  0  0  0  0  0  0  0
   -8.1885   -6.8797   -4.3354 C   0  0  0  0  0  0  0  0  0  0  0  0
   -7.1931   -7.1067   -5.0784 O   0  0  0  0  0  0  0  0  0  0  0  0
   -7.7547   -4.4713   -3.9189 C   0  0  0  0  0  0  0  0  0  0  0  0
   -6.4707   -4.4367   -4.6795 C   0  0  0  0  0  0  0  0  0  0  0  0
   -5.4076   -3.8286   -4.1434 C   0  0  0  0  0  0  0  0  0  0  0  0
   -5.5669   -3.1937   -2.7856 C   0  0  0  0  0  0  0  0  0  0  0  0
   -6.8482   -2.3417   -2.8084 C   0  0  0  0  0  0  0  0  0  0  0  0
   -8.0684   -3.2749   -3.0115 C   0  0  0  0  0  0  0  0  0  0  0  0
   -4.3651   -2.4895   -2.2097 C   0  0  0  0  0  0  0  0  0  0  0  0
   -3.2211   -1.9582   -2.8469 C   0  0  0  0  0  0  0  0  0  0  0  0
   -3.0448   -1.8005   -4.2647 N   0  0  0  0  0  0  0  0  0  0  0  0
   -1.9221   -2.4358   -4.9068 C   0  0  0  0  0  0  0  0  0  0  0  0
   -1.6136   -3.7822   -4.6314 C   0  0  0  0  0  0  0  0  0  0  0  0
   -0.5203   -4.3947   -5.2499 C   0  0  0  0  0  0  0  0  0  0  0  0
    0.2821   -3.6739   -6.1375 C   0  0  0  0  0  0  0  0  0  0  0  0
    1.6689   -4.4758   -6.9446 S   0  0  0  0  0  0  0  0  0  0  0  0
    0.6779   -4.9905   -8.3872 C   0  0  0  0  0  0  0  0  0  0  0  0
    0.0087   -2.3208   -6.3795 C   0  0  0  0  0  0  0  0  0  0  0  0
   -1.0898   -1.7036   -5.7737 C   0  0  0  0  0  0  0  0  0  0  0  0
   -3.8349   -0.8279   -4.9713 C   0  0  0  0  0  0  0  0  0  0  0  0
   -4.0391    0.4532   -4.4321 C   0  0  0  0  0  0  0  0  0  0  0  0
   -4.6901    1.4425   -5.1748 C   0  0  0  0  0  0  0  0  0  0  0  0
   -5.1532    1.1604   -6.4639 C   0  0  0  0  0  0  0  0  0  0  0  0
   -5.9252    2.4493   -7.4443 S   0  0  0  0  0  0  0  0  0  0  0  0
   -7.5532    2.2535   -6.6567 C   0  0  0  0  0  0  0  0  0  0  0  0
   -4.9791   -0.1175   -7.0010 C   0  0  0  0  0  0  0  0  0  0  0  0
   -4.3042   -1.1014   -6.2700 C   0  0  0  0  0  0  0  0  0  0  0  0
   -2.2060   -1.7016   -1.9203 C   0  0  0  0  0  0  0  0  0  0  0  0
   -0.5760   -1.3664   -2.0191 S   0  0  0  0  0  0  0  0  0  0  0  0
   -0.2279   -1.5945   -0.3540 C   0  0  0  0  0  0  0  0  0  0  0  0
   -1.4475   -1.9375    0.2782 C   0  0  0  0  0  0  0  0  0  0  0  0
   -1.6350   -2.4326    1.6148 N   0  0  0  0  0  0  0  0  0  0  0  0
   -1.1454   -3.7628    1.9395 C   0  0  0  0  0  0  0  0  0  0  0  0
   -1.0774   -4.1942    3.2803 C   0  0  0  0  0  0  0  0  0  0  0  0
   -0.7148   -5.5097    3.5874 C   0  0  0  0  0  0  0  0  0  0  0  0
   -0.3887   -6.4084    2.5650 C   0  0  0  0  0  0  0  0  0  0  0  0
    0.0497   -8.1061    2.9579 S   0  0  0  0  0  0  0  0  0  0  0  0
   -1.6609   -8.7054    2.8133 C   0  0  0  0  0  0  0  0  0  0  0  0
   -0.4102   -5.9817    1.2395 C   0  0  0  0  0  0  0  0  0  0  0  0
   -0.7890   -4.6749    0.9240 C   0  0  0  0  0  0  0  0  0  0  0  0
   -2.7319   -1.8234    2.3608 C   0  0  0  0  0  0  0  0  0  0  0  0
   -2.9800   -0.4408    2.2386 C   0  0  0  0  0  0  0  0  0  0  0  0
   -4.0513    0.1632    2.9013 C   0  0  0  0  0  0  0  0  0  0  0  0
   -4.9173   -0.6110    3.6795 C   0  0  0  0  0  0  0  0  0  0  0  0
   -6.2658    0.1679    4.5688 S   0  0  0  0  0  0  0  0  0  0  0  0
   -5.2270    0.5887    5.9987 C   0  0  0  0  0  0  0  0  0  0  0  0
   -4.7332   -1.9947    3.7511 C   0  0  0  0  0  0  0  0  0  0  0  0
   -3.6671   -2.6006    3.0812 C   0  0  0  0  0  0  0  0  0  0  0  0
   -2.5032   -1.9652   -0.6313 C   0  0  0  0  0  0  0  0  0  0  0  0
   -4.0573   -2.5676   -0.5381 S   0  0  0  0  0  0  0  0  0  0  0  0
    1.1786   -1.5526    0.1376 C   0  0  0  0  0  0  0  0  0  0  0  0
    1.7151   -1.3566    1.4402 C   0  0  0  0  0  0  0  0  0  0  0  0
    0.9832   -0.9145    2.5995 N   0  0  0  0  0  0  0  0  0  0  0  0
    0.3393    0.3872    2.5701 C   0  0  0  0  0  0  0  0  0  0  0  0
    0.6472    1.3357    1.5651 C   0  0  0  0  0  0  0  0  0  0  0  0
    0.1074    2.6184    1.6090 C   0  0  0  0  0  0  0  0  0  0  0  0
   -0.7133    3.0034    2.6725 C   0  0  0  0  0  0  0  0  0  0  0  0
   -1.2908    4.6994    2.7859 S   0  0  0  0  0  0  0  0  0  0  0  0
    0.2563    5.3078    3.5330 C   0  0  0  0  0  0  0  0  0  0  0  0
   -1.0655    2.0685    3.6467 C   0  0  0  0  0  0  0  0  0  0  0  0
   -0.5598    0.7665    3.5860 C   0  0  0  0  0  0  0  0  0  0  0  0
    1.3800   -1.5077    3.8664 C   0  0  0  0  0  0  0  0  0  0  0  0
    1.6842   -0.7103    4.9936 C   0  0  0  0  0  0  0  0  0  0  0  0
    2.0353   -1.3004    6.2065 C   0  0  0  0  0  0  0  0  0  0  0  0
    2.1252   -2.6873    6.3152 C   0  0  0  0  0  0  0  0  0  0  0  0
    2.5218   -3.4401    7.8931 S   0  0  0  0  0  0  0  0  0  0  0  0
    0.7818   -3.4781    8.4352 C   0  0  0  0  0  0  0  0  0  0  0  0
    1.9447   -3.4819    5.1770 C   0  0  0  0  0  0  0  0  0  0  0  0
    1.5992   -2.8969    3.9584 C   0  0  0  0  0  0  0  0  0  0  0  0
    3.1023   -1.1553    1.3946 C   0  0  0  0  0  0  0  0  0  0  0  0
    4.0895   -0.3442    2.4538 S   0  0  0  0  0  0  0  0  0  0  0  0
    5.2566    0.2110    1.3434 C   0  0  0  0  0  0  0  0  0  0  0  0
    4.8224   -0.2828    0.0710 C   0  0  0  0  0  0  0  0  0  0  0  0
    5.2219    0.2327   -1.2112 N   0  0  0  0  0  0  0  0  0  0  0  0
    4.4182    1.2950   -1.7857 C   0  0  0  0  0  0  0  0  0  0  0  0
    4.0069    1.2420   -3.1355 C   0  0  0  0  0  0  0  0  0  0  0  0
    3.1554    2.2179   -3.6618 C   0  0  0  0  0  0  0  0  0  0  0  0
    2.6695    3.2389   -2.8432 C   0  0  0  0  0  0  0  0  0  0  0  0
    1.5496    4.4772   -3.5024 S   0  0  0  0  0  0  0  0  0  0  0  0
    0.0613    3.4549   -3.2503 C   0  0  0  0  0  0  0  0  0  0  0  0
    3.0701    3.3095   -1.5060 C   0  0  0  0  0  0  0  0  0  0  0  0
    3.9279    2.3415   -0.9774 C   0  0  0  0  0  0  0  0  0  0  0  0
    6.1392   -0.5509   -2.0211 C   0  0  0  0  0  0  0  0  0  0  0  0
    6.3331   -1.9289   -1.7774 C   0  0  0  0  0  0  0  0  0  0  0  0
    7.2699   -2.6592   -2.5094 C   0  0  0  0  0  0  0  0  0  0  0  0
    8.0266   -2.0315   -3.5079 C   0  0  0  0  0  0  0  0  0  0  0  0
    9.2597   -2.9627   -4.4285 S   0  0  0  0  0  0  0  0  0  0  0  0
    8.0450   -3.7340   -5.5403 C   0  0  0  0  0  0  0  0  0  0  0  0
    7.8487   -0.6683   -3.7557 C   0  0  0  0  0  0  0  0  0  0  0  0
    6.9231    0.0694   -3.0123 C   0  0  0  0  0  0  0  0  0  0  0  0
    3.6590   -1.0625    0.1648 C   0  0  0  0  0  0  0  0  0  0  0  0
    2.4699   -1.3593   -0.9626 S   0  0  0  0  0  0  0  0  0  0  0  0
    6.1917    1.3666    1.6557 C   0  0  0  0  0  0  0  0  0  0  0  0
    6.1258    2.0544    2.8993 C   0  0  0  0  0  0  0  0  0  0  0  0
    5.5924    1.4708    4.0078 N   0  0  0  0  0  0  0  0  0  0  0  0
    5.5506    2.0844    5.2152 C   0  0  0  0  0  0  0  0  0  0  0  0
    6.0940    3.3541    5.3476 C   0  0  0  0  0  0  0  0  0  0  0  0
    6.1589    3.9582    6.6064 O   0  0  0  0  0  0  0  0  0  0  0  0
    6.7017    5.2608    6.8031 C   0  0  0  0  0  0  0  0  0  0  0  0
    6.9517    5.5075    8.2778 C   0  0  0  0  0  0  0  0  0  0  0  0
    6.6007    3.9616    4.2477 N   0  0  0  0  0  0  0  0  0  0  0  0
    6.6527    3.3619    3.0299 C   0  0  0  0  0  0  0  0  0  0  0  0
    7.2766    3.9937    1.9253 C   0  0  0  0  0  0  0  0  0  0  0  0
    7.5545    3.1997    0.7963 C   0  0  0  0  0  0  0  0  0  0  0  0
    7.0620    1.8989    0.6839 C   0  0  0  0  0  0  0  0  0  0  0  0
    7.4907    1.1546   -0.3594 F   0  0  0  0  0  0  0  0  0  0  0  0
    8.2694    3.7126   -0.2376 F   0  0  0  0  0  0  0  0  0  0  0  0
    7.5406    5.5077    1.8266 C   0  0  0  0  0  0  0  0  0  0  0  0
    7.6362    6.2093    3.1769 C   0  0  0  0  0  0  0  0  0  0  0  0
    6.7736    7.1589    3.5677 C   0  0  0  0  0  0  0  0  0  0  0  0
    5.7886    7.7112    2.6150 C   0  0  0  0  0  0  0  0  0  0  0  0
    4.5675    8.1724    2.9837 C   0  0  0  0  0  0  0  0  0  0  0  0
    3.4584    8.9197    1.9645 S   0  0  0  0  0  0  0  0  0  0  0  0
    2.2295    9.0956    3.1127 C   0  0  0  0  0  0  0  0  0  0  0  0
    1.0616    9.7262    2.8415 C   0  0  0  0  0  0  0  0  0  0  0  0
    0.8184   10.2770    1.5259 C   0  0  0  0  0  0  0  0  0  0  0  0
    0.6317   10.7203    0.4706 N   0  0  0  0  0  0  0  0  0  0  0  0
    0.0089    9.9536    3.7937 C   0  0  0  0  0  0  0  0  0  0  0  0
   -0.8607   10.1385    4.5394 N   0  0  0  0  0  0  0  0  0  0  0  0
    2.6408    8.5382    4.3016 N   0  0  0  0  0  0  0  0  0  0  0  0
    1.8519    8.3869    5.5431 C   0  0  0  0  0  0  0  0  0  0  0  0
    2.0145    9.6078    6.4463 C   0  0  0  0  0  0  0  0  0  0  0  0
    3.9267    8.0633    4.2287 C   0  0  0  0  0  0  0  0  0  0  0  0
    4.4813    7.5296    5.2253 O   0  0  0  0  0  0  0  0  0  0  0  0
    6.2181    7.6170    1.1728 C   0  0  0  0  0  0  0  0  0  0  0  0
    6.4842    6.1416    0.8664 C   0  0  0  0  0  0  0  0  0  0  0  0
   -6.7897   -9.5482   -3.6560 H   0  0  0  0  0  0  0  0  0  0  0  0
   -7.7582  -11.0733   -3.7873 H   0  0  0  0  0  0  0  0  0  0  0  0
   -8.0822   -9.9001   -2.4465 H   0  0  0  0  0  0  0  0  0  0  0  0
   -9.7554   -9.8349   -4.4801 H   0  0  0  0  0  0  0  0  0  0  0  0
   -8.4138   -9.2721   -5.4455 H   0  0  0  0  0  0  0  0  0  0  0  0
   -6.3826   -4.9010   -5.6536 H   0  0  0  0  0  0  0  0  0  0  0  0
   -4.4760   -3.8177   -4.6858 H   0  0  0  0  0  0  0  0  0  0  0  0
   -5.7513   -4.0414   -2.0838 H   0  0  0  0  0  0  0  0  0  0  0  0
   -6.7939   -1.6036   -3.6432 H   0  0  0  0  0  0  0  0  0  0  0  0
   -6.9617   -1.7719   -1.8651 H   0  0  0  0  0  0  0  0  0  0  0  0
   -8.9214   -2.7016   -3.4212 H   0  0  0  0  0  0  0  0  0  0  0  0
   -8.3383   -3.6458   -2.0043 H   0  0  0  0  0  0  0  0  0  0  0  0
   -2.2310   -4.3566   -3.9472 H   0  0  0  0  0  0  0  0  0  0  0  0
   -0.3026   -5.4369   -5.0442 H   0  0  0  0  0  0  0  0  0  0  0  0
    1.3174   -5.5965   -9.0647 H   0  0  0  0  0  0  0  0  0  0  0  0
    0.3120   -4.0966   -8.9342 H   0  0  0  0  0  0  0  0  0  0  0  0
   -0.1806   -5.6097   -8.0568 H   0  0  0  0  0  0  0  0  0  0  0  0
    0.6465   -1.7465   -7.0462 H   0  0  0  0  0  0  0  0  0  0  0  0
   -1.2712   -0.6487   -5.9552 H   0  0  0  0  0  0  0  0  0  0  0  0
   -3.6607    0.6953   -3.4477 H   0  0  0  0  0  0  0  0  0  0  0  0
   -4.8257    2.4276   -4.7500 H   0  0  0  0  0  0  0  0  0  0  0  0
   -7.8644    1.1894   -6.6517 H   0  0  0  0  0  0  0  0  0  0  0  0
   -7.4981    2.6352   -5.6170 H   0  0  0  0  0  0  0  0  0  0  0  0
   -8.3058    2.8458   -7.2176 H   0  0  0  0  0  0  0  0  0  0  0  0
   -5.3386   -0.3387   -7.9979 H   0  0  0  0  0  0  0  0  0  0  0  0
   -4.1446   -2.0783   -6.7096 H   0  0  0  0  0  0  0  0  0  0  0  0
   -1.3044   -3.5150    4.0922 H   0  0  0  0  0  0  0  0  0  0  0  0
   -0.6885   -5.8295    4.6220 H   0  0  0  0  0  0  0  0  0  0  0  0
   -1.6707   -9.8105    2.9130 H   0  0  0  0  0  0  0  0  0  0  0  0
   -2.0861   -8.4353    1.8225 H   0  0  0  0  0  0  0  0  0  0  0  0
   -2.2837   -8.2614    3.6190 H   0  0  0  0  0  0  0  0  0  0  0  0
   -0.1566   -6.6730    0.4415 H   0  0  0  0  0  0  0  0  0  0  0  0
   -0.8311   -4.3981   -0.1223 H   0  0  0  0  0  0  0  0  0  0  0  0
   -2.3429    0.1808    1.6225 H   0  0  0  0  0  0  0  0  0  0  0  0
   -4.2036    1.2317    2.8126 H   0  0  0  0  0  0  0  0  0  0  0  0
   -4.7650   -0.3322    6.4204 H   0  0  0  0  0  0  0  0  0  0  0  0
   -5.8572    1.0577    6.7787 H   0  0  0  0  0  0  0  0  0  0  0  0
   -4.4308    1.2987    5.6956 H   0  0  0  0  0  0  0  0  0  0  0  0
   -5.4245   -2.6012    4.3264 H   0  0  0  0  0  0  0  0  0  0  0  0
   -3.6080   -3.6810    3.0962 H   0  0  0  0  0  0  0  0  0  0  0  0
    1.3485    1.1132    0.7741 H   0  0  0  0  0  0  0  0  0  0  0  0
    0.3766    3.3340    0.8427 H   0  0  0  0  0  0  0  0  0  0  0  0
    0.3811    4.8900    4.5544 H   0  0  0  0  0  0  0  0  0  0  0  0
    1.1217    5.0137    2.9021 H   0  0  0  0  0  0  0  0  0  0  0  0
    0.2236    6.4146    3.5876 H   0  0  0  0  0  0  0  0  0  0  0  0
   -1.7228    2.3472    4.4632 H   0  0  0  0  0  0  0  0  0  0  0  0
   -0.8364    0.0658    4.3635 H   0  0  0  0  0  0  0  0  0  0  0  0
    1.6730    0.3712    4.9355 H   0  0  0  0  0  0  0  0  0  0  0  0
    2.2337   -0.6676    7.0661 H   0  0  0  0  0  0  0  0  0  0  0  0
    0.2045   -4.1712    7.7887 H   0  0  0  0  0  0  0  0  0  0  0  0
    0.7377   -3.8344    9.4851 H   0  0  0  0  0  0  0  0  0  0  0  0
    0.3400   -2.4630    8.3780 H   0  0  0  0  0  0  0  0  0  0  0  0
    2.0743   -4.5561    5.2386 H   0  0  0  0  0  0  0  0  0  0  0  0
    1.5068   -3.5291    3.0879 H   0  0  0  0  0  0  0  0  0  0  0  0
    4.3341    0.4358   -3.7799 H   0  0  0  0  0  0  0  0  0  0  0  0
    2.8557    2.1586   -4.6973 H   0  0  0  0  0  0  0  0  0  0  0  0
    0.0330    3.0375   -2.2248 H   0  0  0  0  0  0  0  0  0  0  0  0
    0.0605    2.6361   -3.9957 H   0  0  0  0  0  0  0  0  0  0  0  0
   -0.8374    4.0838   -3.4163 H   0  0  0  0  0  0  0  0  0  0  0  0
    2.7071    4.1059   -0.8686 H   0  0  0  0  0  0  0  0  0  0  0  0
    4.1986    2.4156    0.0664 H   0  0  0  0  0  0  0  0  0  0  0  0
    5.7699   -2.4457   -1.0107 H   0  0  0  0  0  0  0  0  0  0  0  0
    7.4115   -3.7112   -2.2992 H   0  0  0  0  0  0  0  0  0  0  0  0
    7.3719   -2.9675   -5.9787 H   0  0  0  0  0  0  0  0  0  0  0  0
    8.5812   -4.2525   -6.3605 H   0  0  0  0  0  0  0  0  0  0  0  0
    7.4519   -4.4772   -4.9723 H   0  0  0  0  0  0  0  0  0  0  0  0
    8.4559   -0.1651   -4.4981 H   0  0  0  0  0  0  0  0  0  0  0  0
    6.8398    1.1363   -3.1884 H   0  0  0  0  0  0  0  0  0  0  0  0
    5.1344    1.5617    6.0692 H   0  0  0  0  0  0  0  0  0  0  0  0
    5.9864    6.0098    6.4176 H   0  0  0  0  0  0  0  0  0  0  0  0
    7.6625    5.3656    6.2564 H   0  0  0  0  0  0  0  0  0  0  0  0
    6.0120    5.3722    8.8509 H   0  0  0  0  0  0  0  0  0  0  0  0
    7.3146    6.5490    8.4324 H   0  0  0  0  0  0  0  0  0  0  0  0
    7.7226    4.8015    8.6474 H   0  0  0  0  0  0  0  0  0  0  0  0
    8.5322    5.6530    1.3530 H   0  0  0  0  0  0  0  0  0  0  0  0
    8.4034    5.8863    3.8620 H   0  0  0  0  0  0  0  0  0  0  0  0
    6.8682    7.5740    4.5603 H   0  0  0  0  0  0  0  0  0  0  0  0
    2.1885    7.4894    6.1109 H   0  0  0  0  0  0  0  0  0  0  0  0
    0.7882    8.1700    5.3288 H   0  0  0  0  0  0  0  0  0  0  0  0
    1.7092   10.5394    5.9240 H   0  0  0  0  0  0  0  0  0  0  0  0
    1.3896    9.4788    7.3574 H   0  0  0  0  0  0  0  0  0  0  0  0
    3.0779    9.6997    6.7569 H   0  0  0  0  0  0  0  0  0  0  0  0
    5.4684    8.0195    0.4603 H   0  0  0  0  0  0  0  0  0  0  0  0
    7.1546    8.2087    1.0401 H   0  0  0  0  0  0  0  0  0  0  0  0
    5.5160    5.5987    0.9531 H   0  0  0  0  0  0  0  0  0  0  0  0
    6.8303    6.0488   -0.1881 H   0  0  0  0  0  0  0  0  0  0  0  0
  1  2  1  0
  2  3  1  0
  3  4  1  0
  4  5  2  3
  5  6  1  0
  6  7  3  0
  5  8  1  0
  8  9  3  0
  4 10  1  0
 10 11  1  0
 11 12  1  0
 12 13  2  0
 11 14  2  3
 14 15  1  0
 15 16  2  0
 16 17  1  0
 17 18  1  0
 18 19  1  0
 17 20  1  0
 20 21  2  0
 21 22  1  0
 22 23  1  0
 23 24  2  0
 24 25  1  0
 25 26  2  0
 26 27  1  0
 27 28  1  0
 26 29  1  0
 29 30  2  0
 22 31  1  0
 31 32  2  0
 32 33  1  0
 33 34  2  0
 34 35  1  0
 35 36  1  0
 34 37  1  0
 37 38  2  0
 21 39  1  0
 39 40  1  0
 40 41  1  0
 41 42  2  0
 42 43  1  0
 43 44  1  0
 44 45  2  0
 45 46  1  0
 46 47  2  0
 47 48  1  0
 48 49  1  0
 47 50  1  0
 50 51  2  0
 43 52  1  0
 52 53  2  0
 53 54  1  0
 54 55  2  0
 55 56  1  0
 56 57  1  0
 55 58  1  0
 58 59  2  0
 42 60  1  0
 60 61  1  0
 41 62  1  0
 62 63  2  0
 63 64  1  0
 64 65  1  0
 65 66  2  0
 66 67  1  0
 67 68  2  0
 68 69  1  0
 69 70  1  0
 68 71  1  0
 71 72  2  0
 64 73  1  0
 73 74  2  0
 74 75  1  0
 75 76  2  0
 76 77  1  0
 77 78  1  0
 76 79  1  0
 79 80  2  0
 63 81  1  0
 81 82  1  0
 82 83  1  0
 83 84  2  0
 84 85  1  0
 85 86  1  0
 86 87  2  0
 87 88  1  0
 88 89  2  0
 89 90  1  0
 90 91  1  0
 89 92  1  0
 92 93  2  0
 85 94  1  0
 94 95  2  0
 95 96  1  0
 96 97  2  0
 97 98  1  0
 98 99  1  0
 97100  1  0
100101  2  0
 84102  1  0
102103  1  0
 83104  1  0
104105  1  0
105106  2  0
106107  1  0
107108  2  0
108109  1  0
109110  1  0
110111  1  0
108112  1  0
112113  2  0
113114  1  0
114115  2  0
115116  1  0
116117  1  0
115118  1  0
114119  1  0
119120  1  0
120121  2  0
121122  1  0
122123  2  3
123124  1  0
124125  1  0
125126  2  3
126127  1  0
127128  3  0
126129  1  0
129130  3  0
125131  1  0
131132  1  0
132133  1  0
131134  1  0
134135  2  0
122136  1  0
136137  1  0
 12  3  1  0
 19 14  1  0
 61 20  1  0
103 62  1  0
116104  2  0
137119  1  0
 30 23  1  0
 38 31  1  0
 60 39  2  0
 72 65  1  0
 80 73  1  0
102 81  2  0
113105  1  0
134123  1  0
 51 44  1  0
 59 52  1  0
 93 86  1  0
101 94  1  0
  1138  1  0
  1139  1  0
  1140  1  0
  2141  1  0
  2142  1  0
 15143  1  0
 16144  1  0
 17145  1  0
 18146  1  0
 18147  1  0
 19148  1  0
 19149  1  0
 24150  1  0
 25151  1  0
 28152  1  0
 28153  1  0
 28154  1  0
 29155  1  0
 30156  1  0
 32157  1  0
 33158  1  0
 36159  1  0
 36160  1  0
 36161  1  0
 37162  1  0
 38163  1  0
 45164  1  0
 46165  1  0
 49166  1  0
 49167  1  0
 49168  1  0
 50169  1  0
 51170  1  0
 53171  1  0
 54172  1  0
 57173  1  0
 57174  1  0
 57175  1  0
 58176  1  0
 59177  1  0
 66178  1  0
 67179  1  0
 70180  1  0
 70181  1  0
 70182  1  0
 71183  1  0
 72184  1  0
 74185  1  0
 75186  1  0
 78187  1  0
 78188  1  0
 78189  1  0
 79190  1  0
 80191  1  0
 87192  1  0
 88193  1  0
 91194  1  0
 91195  1  0
 91196  1  0
 92197  1  0
 93198  1  0
 95199  1  0
 96200  1  0
 99201  1  0
 99202  1  0
 99203  1  0
100204  1  0
101205  1  0
107206  1  0
110207  1  0
110208  1  0
111209  1  0
111210  1  0
111211  1  0
119212  1  0
120213  1  0
121214  1  0
132215  1  0
132216  1  0
133217  1  0
133218  1  0
133219  1  0
136220  1  0
136221  1  0
137222  1  0
137223  1  0
M  END

