
     RDKit          3D

272293  0  0  0  0  0  0  0  0999 V2000
    0.5974    9.9849   -1.5775 C   0  0  0  0  0  0  0  0  0  0  0  0
    1.9111   10.7329   -1.7901 C   0  0  0  0  0  0  0  0  0  0  0  0
    2.9614   10.2286   -0.8831 N   0  0  0  0  0  0  0  0  0  0  0  0
    3.0681   10.4625    0.4676 C   0  0  0  0  0  0  0  0  0  0  0  0
    2.2884   11.2556    1.2446 C   0  0  0  0  0  0  0  0  0  0  0  0
    2.4524   11.2679    2.6787 C   0  0  0  0  0  0  0  0  0  0  0  0
    2.5800   11.2851    3.8301 N   0  0  0  0  0  0  0  0  0  0  0  0
    1.3100   12.1810    0.7341 C   0  0  0  0  0  0  0  0  0  0  0  0
    0.5490   12.9606    0.3286 N   0  0  0  0  0  0  0  0  0  0  0  0
    4.3782    9.5960    1.0891 S   0  0  0  0  0  0  0  0  0  0  0  0
    4.8474    8.8936   -0.3666 C   0  0  0  0  0  0  0  0  0  0  0  0
    3.9342    9.3668   -1.3340 C   0  0  0  0  0  0  0  0  0  0  0  0
    4.0028    9.0419   -2.5521 O   0  0  0  0  0  0  0  0  0  0  0  0
    5.8822    8.0204   -0.5199 C   0  0  0  0  0  0  0  0  0  0  0  0
    6.1157    7.2449   -1.7565 C   0  0  0  0  0  0  0  0  0  0  0  0
    6.7135    6.0532   -1.7126 C   0  0  0  0  0  0  0  0  0  0  0  0
    7.2447    5.4374   -0.4443 C   0  0  0  0  0  0  0  0  0  0  0  0
    7.2010    6.3453    0.8159 C   0  0  0  0  0  0  0  0  0  0  0  0
    6.9332    7.8295    0.5479 C   0  0  0  0  0  0  0  0  0  0  0  0
    6.5844    4.1038   -0.1680 C   0  0  0  0  0  0  0  0  0  0  0  0
    5.2588    3.8683    0.2667 C   0  0  0  0  0  0  0  0  0  0  0  0
    4.1414    4.7130   -0.0842 N   0  0  0  0  0  0  0  0  0  0  0  0
    3.8017    4.8822   -1.4865 C   0  0  0  0  0  0  0  0  0  0  0  0
    4.1324    3.9016   -2.4444 C   0  0  0  0  0  0  0  0  0  0  0  0
    3.7696    4.0624   -3.7826 C   0  0  0  0  0  0  0  0  0  0  0  0
    3.0679    5.2000   -4.1871 C   0  0  0  0  0  0  0  0  0  0  0  0
    2.6179    5.4199   -5.9075 S   0  0  0  0  0  0  0  0  0  0  0  0
    0.9887    4.6388   -5.7068 C   0  0  0  0  0  0  0  0  0  0  0  0
    2.7220    6.1767   -3.2457 C   0  0  0  0  0  0  0  0  0  0  0  0
    3.0790    6.0131   -1.9061 C   0  0  0  0  0  0  0  0  0  0  0  0
    3.1324    5.0246    0.9071 C   0  0  0  0  0  0  0  0  0  0  0  0
    1.7792    4.7207    0.6588 C   0  0  0  0  0  0  0  0  0  0  0  0
    0.7783    5.1649    1.5241 C   0  0  0  0  0  0  0  0  0  0  0  0
    1.1136    5.9261    2.6451 C   0  0  0  0  0  0  0  0  0  0  0  0
   -0.1768    6.5994    3.6848 S   0  0  0  0  0  0  0  0  0  0  0  0
   -0.3657    8.1047    2.6768 C   0  0  0  0  0  0  0  0  0  0  0  0
    2.4559    6.1724    2.9433 C   0  0  0  0  0  0  0  0  0  0  0  0
    3.4600    5.7171    2.0849 C   0  0  0  0  0  0  0  0  0  0  0  0
    5.0664    2.5071    0.5159 C   0  0  0  0  0  0  0  0  0  0  0  0
    3.6717    1.6187    0.7090 S   0  0  0  0  0  0  0  0  0  0  0  0
    4.4112    0.1244    0.3960 C   0  0  0  0  0  0  0  0  0  0  0  0
    5.7662    0.3164    0.0787 C   0  0  0  0  0  0  0  0  0  0  0  0
    6.5164   -0.6355   -0.6976 N   0  0  0  0  0  0  0  0  0  0  0  0
    6.1368   -0.8392   -2.0705 C   0  0  0  0  0  0  0  0  0  0  0  0
    5.3412   -1.9368   -2.4353 C   0  0  0  0  0  0  0  0  0  0  0  0
    4.9176   -2.0944   -3.7538 C   0  0  0  0  0  0  0  0  0  0  0  0
    5.2712   -1.1484   -4.7198 C   0  0  0  0  0  0  0  0  0  0  0  0
    4.6727   -1.3262   -6.4007 S   0  0  0  0  0  0  0  0  0  0  0  0
    3.0927   -0.4912   -6.0473 C   0  0  0  0  0  0  0  0  0  0  0  0
    6.0829   -0.0604   -4.3695 C   0  0  0  0  0  0  0  0  0  0  0  0
    6.5178    0.0915   -3.0499 C   0  0  0  0  0  0  0  0  0  0  0  0
    7.6366   -1.3587   -0.1512 C   0  0  0  0  0  0  0  0  0  0  0  0
    7.7388   -2.7514   -0.3211 C   0  0  0  0  0  0  0  0  0  0  0  0
    8.8871   -3.4358    0.0727 C   0  0  0  0  0  0  0  0  0  0  0  0
    9.9662   -2.7388    0.6255 C   0  0  0  0  0  0  0  0  0  0  0  0
   11.4769   -3.6088    1.0329 S   0  0  0  0  0  0  0  0  0  0  0  0
   12.1432   -3.4875   -0.6569 C   0  0  0  0  0  0  0  0  0  0  0  0
    9.8599   -1.3637    0.8463 C   0  0  0  0  0  0  0  0  0  0  0  0
    8.7038   -0.6777    0.4679 C   0  0  0  0  0  0  0  0  0  0  0  0
    6.0989    1.6766    0.1872 C   0  0  0  0  0  0  0  0  0  0  0  0
    7.3786    2.6103   -0.3610 S   0  0  0  0  0  0  0  0  0  0  0  0
    3.6064   -1.0720    0.1576 C   0  0  0  0  0  0  0  0  0  0  0  0
    3.2313   -1.9557    1.1787 C   0  0  0  0  0  0  0  0  0  0  0  0
    3.8713   -1.9949    2.4635 N   0  0  0  0  0  0  0  0  0  0  0  0
    5.1289   -2.6801    2.5731 C   0  0  0  0  0  0  0  0  0  0  0  0
    6.2126   -2.0605    3.2151 C   0  0  0  0  0  0  0  0  0  0  0  0
    7.3921   -2.7717    3.4427 C   0  0  0  0  0  0  0  0  0  0  0  0
    7.4936   -4.1099    3.0393 C   0  0  0  0  0  0  0  0  0  0  0  0
    8.9842   -5.0446    3.3950 S   0  0  0  0  0  0  0  0  0  0  0  0
    8.3878   -5.6305    5.0121 C   0  0  0  0  0  0  0  0  0  0  0  0
    6.4307   -4.7172    2.3606 C   0  0  0  0  0  0  0  0  0  0  0  0
    5.2525   -4.0040    2.1245 C   0  0  0  0  0  0  0  0  0  0  0  0
    3.1703   -1.5300    3.6422 C   0  0  0  0  0  0  0  0  0  0  0  0
    3.3991   -2.1318    4.8960 C   0  0  0  0  0  0  0  0  0  0  0  0
    2.6753   -1.7335    6.0192 C   0  0  0  0  0  0  0  0  0  0  0  0
    1.6997   -0.7389    5.9104 C   0  0  0  0  0  0  0  0  0  0  0  0
    0.7225   -0.2933    7.3425 S   0  0  0  0  0  0  0  0  0  0  0  0
   -0.5233   -1.5794    7.0171 C   0  0  0  0  0  0  0  0  0  0  0  0
    1.4668   -0.1253    4.6774 C   0  0  0  0  0  0  0  0  0  0  0  0
    2.2020   -0.5130    3.5498 C   0  0  0  0  0  0  0  0  0  0  0  0
    1.9959   -2.5480    0.9113 C   0  0  0  0  0  0  0  0  0  0  0  0
    0.8443   -3.2396    1.9177 S   0  0  0  0  0  0  0  0  0  0  0  0
   -0.4261   -3.0639    0.8037 C   0  0  0  0  0  0  0  0  0  0  0  0
    0.0461   -2.3929   -0.3342 C   0  0  0  0  0  0  0  0  0  0  0  0
   -0.8014   -1.6834   -1.2612 N   0  0  0  0  0  0  0  0  0  0  0  0
   -1.3817   -0.4131   -0.8754 C   0  0  0  0  0  0  0  0  0  0  0  0
   -2.6763   -0.0642   -1.3004 C   0  0  0  0  0  0  0  0  0  0  0  0
   -3.1509    1.2426   -1.1250 C   0  0  0  0  0  0  0  0  0  0  0  0
   -2.3357    2.2101   -0.5244 C   0  0  0  0  0  0  0  0  0  0  0  0
   -2.8289    3.9365   -0.5184 S   0  0  0  0  0  0  0  0  0  0  0  0
   -3.4372    3.9022    1.1908 C   0  0  0  0  0  0  0  0  0  0  0  0
   -1.0940    1.8417    0.0001 C   0  0  0  0  0  0  0  0  0  0  0  0
   -0.6270    0.5341   -0.1564 C   0  0  0  0  0  0  0  0  0  0  0  0
   -0.8991   -2.1497   -2.6309 C   0  0  0  0  0  0  0  0  0  0  0  0
   -1.0863   -1.2503   -3.7002 C   0  0  0  0  0  0  0  0  0  0  0  0
   -1.2695   -1.7228   -5.0042 C   0  0  0  0  0  0  0  0  0  0  0  0
   -1.2414   -3.0948   -5.2604 C   0  0  0  0  0  0  0  0  0  0  0  0
   -1.5530   -3.7102   -6.9116 S   0  0  0  0  0  0  0  0  0  0  0  0
   -3.3498   -3.8381   -6.6424 C   0  0  0  0  0  0  0  0  0  0  0  0
   -0.9879   -3.9943   -4.2176 C   0  0  0  0  0  0  0  0  0  0  0  0
   -0.8174   -3.5224   -2.9160 C   0  0  0  0  0  0  0  0  0  0  0  0
    1.4151   -2.1723   -0.2586 C   0  0  0  0  0  0  0  0  0  0  0  0
    2.3919   -1.0636   -1.0375 S   0  0  0  0  0  0  0  0  0  0  0  0
   -1.8421   -3.2394    1.1285 C   0  0  0  0  0  0  0  0  0  0  0  0
   -2.7354   -4.0380    0.3858 C   0  0  0  0  0  0  0  0  0  0  0  0
   -2.4924   -5.4124   -0.0291 N   0  0  0  0  0  0  0  0  0  0  0  0
   -1.1956   -6.0238    0.0535 C   0  0  0  0  0  0  0  0  0  0  0  0
   -0.6368   -6.6399   -1.0789 C   0  0  0  0  0  0  0  0  0  0  0  0
    0.5977   -7.2932   -0.9904 C   0  0  0  0  0  0  0  0  0  0  0  0
    1.2690   -7.3610    0.2363 C   0  0  0  0  0  0  0  0  0  0  0  0
    2.8485   -8.2040    0.3505 S   0  0  0  0  0  0  0  0  0  0  0  0
    2.1069   -9.7724    0.9008 C   0  0  0  0  0  0  0  0  0  0  0  0
    0.6927   -6.7960    1.3780 C   0  0  0  0  0  0  0  0  0  0  0  0
   -0.5488   -6.1610    1.2946 C   0  0  0  0  0  0  0  0  0  0  0  0
   -3.5950   -6.3283    0.0671 C   0  0  0  0  0  0  0  0  0  0  0  0
   -4.1690   -6.5881    1.3241 C   0  0  0  0  0  0  0  0  0  0  0  0
   -5.3441   -7.3338    1.4229 C   0  0  0  0  0  0  0  0  0  0  0  0
   -5.9553   -7.8283    0.2650 C   0  0  0  0  0  0  0  0  0  0  0  0
   -7.5268   -8.6817    0.3893 S   0  0  0  0  0  0  0  0  0  0  0  0
   -8.4967   -7.1393    0.3212 C   0  0  0  0  0  0  0  0  0  0  0  0
   -5.3593   -7.6197   -0.9871 C   0  0  0  0  0  0  0  0  0  0  0  0
   -4.1781   -6.8721   -1.0873 C   0  0  0  0  0  0  0  0  0  0  0  0
   -4.0185   -3.4860    0.4397 C   0  0  0  0  0  0  0  0  0  0  0  0
   -5.3769   -3.6834   -0.5106 S   0  0  0  0  0  0  0  0  0  0  0  0
   -6.2740   -2.4362    0.2341 C   0  0  0  0  0  0  0  0  0  0  0  0
   -5.4967   -1.8935    1.2900 C   0  0  0  0  0  0  0  0  0  0  0  0
   -6.0072   -0.9833    2.2971 N   0  0  0  0  0  0  0  0  0  0  0  0
   -7.4098   -0.9933    2.6176 C   0  0  0  0  0  0  0  0  0  0  0  0
   -8.1608    0.1936    2.5550 C   0  0  0  0  0  0  0  0  0  0  0  0
   -9.5378    0.1646    2.7882 C   0  0  0  0  0  0  0  0  0  0  0  0
  -10.1729   -1.0454    3.1015 C   0  0  0  0  0  0  0  0  0  0  0  0
  -11.9507   -1.0878    3.3271 S   0  0  0  0  0  0  0  0  0  0  0  0
  -11.8557   -0.7979    5.1196 C   0  0  0  0  0  0  0  0  0  0  0  0
   -9.4224   -2.2207    3.2018 C   0  0  0  0  0  0  0  0  0  0  0  0
   -8.0457   -2.1938    2.9655 C   0  0  0  0  0  0  0  0  0  0  0  0
   -5.1441   -0.4151    3.2899 C   0  0  0  0  0  0  0  0  0  0  0  0
   -4.8590    0.9514    3.2724 C   0  0  0  0  0  0  0  0  0  0  0  0
   -4.0348    1.5145    4.2530 C   0  0  0  0  0  0  0  0  0  0  0  0
   -3.5043    0.7100    5.2655 C   0  0  0  0  0  0  0  0  0  0  0  0
   -2.4396    1.4334    6.5121 S   0  0  0  0  0  0  0  0  0  0  0  0
   -3.7930    1.6748    7.7032 C   0  0  0  0  0  0  0  0  0  0  0  0
   -3.8136   -0.6580    5.3044 C   0  0  0  0  0  0  0  0  0  0  0  0
   -4.6424   -1.2138    4.3298 C   0  0  0  0  0  0  0  0  0  0  0  0
   -4.2065   -2.4491    1.2880 C   0  0  0  0  0  0  0  0  0  0  0  0
   -2.7153   -2.0064    1.9164 S   0  0  0  0  0  0  0  0  0  0  0  0
   -7.4071   -1.7080   -0.4695 C   0  0  0  0  0  0  0  0  0  0  0  0
   -7.9685   -2.5417   -1.6074 C   0  0  0  0  0  0  0  0  0  0  0  0
   -8.0597   -2.0986   -2.8706 C   0  0  0  0  0  0  0  0  0  0  0  0
   -7.6613   -0.7178   -3.2296 C   0  0  0  0  0  0  0  0  0  0  0  0
   -7.2222   -0.4320   -4.4856 C   0  0  0  0  0  0  0  0  0  0  0  0
   -7.0190   -1.5785   -5.7009 S   0  0  0  0  0  0  0  0  0  0  0  0
   -6.3569   -0.5381   -6.8478 C   0  0  0  0  0  0  0  0  0  0  0  0
   -5.9405   -0.9688   -8.0673 C   0  0  0  0  0  0  0  0  0  0  0  0
   -6.1177   -2.3491   -8.4561 C   0  0  0  0  0  0  0  0  0  0  0  0
   -6.2535   -3.4547   -8.7768 N   0  0  0  0  0  0  0  0  0  0  0  0
   -5.2588   -0.1535   -9.0381 C   0  0  0  0  0  0  0  0  0  0  0  0
   -4.7029    0.4870   -9.8263 N   0  0  0  0  0  0  0  0  0  0  0  0
   -6.3092    0.7342   -6.3283 N   0  0  0  0  0  0  0  0  0  0  0  0
   -5.7991    1.9463   -6.9959 C   0  0  0  0  0  0  0  0  0  0  0  0
   -4.2929    2.0763   -6.7874 C   0  0  0  0  0  0  0  0  0  0  0  0
   -6.7764    0.7876   -5.0340 C   0  0  0  0  0  0  0  0  0  0  0  0
   -6.8009    1.8736   -4.4026 O   0  0  0  0  0  0  0  0  0  0  0  0
   -7.7006    0.2630   -2.0789 C   0  0  0  0  0  0  0  0  0  0  0  0
   -6.8850   -0.3200   -0.9317 C   0  0  0  0  0  0  0  0  0  0  0  0
   -0.1932   10.4390   -2.2119 H   0  0  0  0  0  0  0  0  0  0  0  0
    0.2736   10.0328   -0.5189 H   0  0  0  0  0  0  0  0  0  0  0  0
    0.7199    8.9146   -1.8619 H   0  0  0  0  0  0  0  0  0  0  0  0
    2.2088   10.5935   -2.8511 H   0  0  0  0  0  0  0  0  0  0  0  0
    1.7955   11.8273   -1.6920 H   0  0  0  0  0  0  0  0  0  0  0  0
    5.7851    7.5916   -2.7239 H   0  0  0  0  0  0  0  0  0  0  0  0
    6.8341    5.4932   -2.6343 H   0  0  0  0  0  0  0  0  0  0  0  0
    8.3186    5.2384   -0.6461 H   0  0  0  0  0  0  0  0  0  0  0  0
    6.4477    5.9770    1.5389 H   0  0  0  0  0  0  0  0  0  0  0  0
    8.1717    6.2670    1.3558 H   0  0  0  0  0  0  0  0  0  0  0  0
    6.6793    8.3189    1.5103 H   0  0  0  0  0  0  0  0  0  0  0  0
    7.8739    8.3000    0.1902 H   0  0  0  0  0  0  0  0  0  0  0  0
    4.6586    3.0005   -2.1682 H   0  0  0  0  0  0  0  0  0  0  0  0
    4.0320    3.2971   -4.5044 H   0  0  0  0  0  0  0  0  0  0  0  0
    0.3828    5.2017   -4.9645 H   0  0  0  0  0  0  0  0  0  0  0  0
    0.4604    4.6554   -6.6819 H   0  0  0  0  0  0  0  0  0  0  0  0
    1.1030    3.5828   -5.3821 H   0  0  0  0  0  0  0  0  0  0  0  0
    2.1768    7.0630   -3.5538 H   0  0  0  0  0  0  0  0  0  0  0  0
    2.7971    6.7757   -1.1913 H   0  0  0  0  0  0  0  0  0  0  0  0
    1.4987    4.1624   -0.2271 H   0  0  0  0  0  0  0  0  0  0  0  0
   -0.2588    4.9545    1.2977 H   0  0  0  0  0  0  0  0  0  0  0  0
    0.5849    8.6757    2.6572 H   0  0  0  0  0  0  0  0  0  0  0  0
   -1.1614    8.7393    3.1220 H   0  0  0  0  0  0  0  0  0  0  0  0
   -0.6606    7.8312    1.6425 H   0  0  0  0  0  0  0  0  0  0  0  0
    2.7218    6.7442    3.8241 H   0  0  0  0  0  0  0  0  0  0  0  0
    4.4794    5.9447    2.3293 H   0  0  0  0  0  0  0  0  0  0  0  0
    5.0086   -2.6465   -1.6931 H   0  0  0  0  0  0  0  0  0  0  0  0
    4.2820   -2.9308   -4.0138 H   0  0  0  0  0  0  0  0  0  0  0  0
    2.5178   -1.0547   -5.2808 H   0  0  0  0  0  0  0  0  0  0  0  0
    2.4956   -0.4413   -6.9801 H   0  0  0  0  0  0  0  0  0  0  0  0
    3.2826    0.5399   -5.6794 H   0  0  0  0  0  0  0  0  0  0  0  0
    6.3727    0.6703   -5.1138 H   0  0  0  0  0  0  0  0  0  0  0  0
    7.1495    0.9302   -2.7878 H   0  0  0  0  0  0  0  0  0  0  0  0
    6.9315   -3.3215   -0.7536 H   0  0  0  0  0  0  0  0  0  0  0  0
    8.9489   -4.5079   -0.0716 H   0  0  0  0  0  0  0  0  0  0  0  0
   12.2604   -2.4231   -0.9446 H   0  0  0  0  0  0  0  0  0  0  0  0
   13.1345   -3.9827   -0.6905 H   0  0  0  0  0  0  0  0  0  0  0  0
   11.4677   -3.9978   -1.3762 H   0  0  0  0  0  0  0  0  0  0  0  0
   10.6865   -0.8190    1.2873 H   0  0  0  0  0  0  0  0  0  0  0  0
    8.6615    0.3863    0.6278 H   0  0  0  0  0  0  0  0  0  0  0  0
    6.1315   -1.0342    3.5524 H   0  0  0  0  0  0  0  0  0  0  0  0
    8.2198   -2.2929    3.9528 H   0  0  0  0  0  0  0  0  0  0  0  0
    9.2316   -6.0785    5.5756 H   0  0  0  0  0  0  0  0  0  0  0  0
    7.9784   -4.7847    5.6030 H   0  0  0  0  0  0  0  0  0  0  0  0
    7.5978   -6.3965    4.8688 H   0  0  0  0  0  0  0  0  0  0  0  0
    6.5041   -5.7483    2.0418 H   0  0  0  0  0  0  0  0  0  0  0  0
    4.4207   -4.4945    1.6368 H   0  0  0  0  0  0  0  0  0  0  0  0
    4.1165   -2.9327    5.0074 H   0  0  0  0  0  0  0  0  0  0  0  0
    2.8543   -2.2244    6.9702 H   0  0  0  0  0  0  0  0  0  0  0  0
   -1.3234   -1.5073    7.7811 H   0  0  0  0  0  0  0  0  0  0  0  0
   -0.0548   -2.5853    7.0734 H   0  0  0  0  0  0  0  0  0  0  0  0
   -0.9669   -1.4355    6.0100 H   0  0  0  0  0  0  0  0  0  0  0  0
    0.7054    0.6390    4.5816 H   0  0  0  0  0  0  0  0  0  0  0  0
    1.9924   -0.0342    2.6040 H   0  0  0  0  0  0  0  0  0  0  0  0
   -3.2927   -0.7879   -1.8223 H   0  0  0  0  0  0  0  0  0  0  0  0
   -4.1200    1.5168   -1.5205 H   0  0  0  0  0  0  0  0  0  0  0  0
   -4.2040    3.1120    1.2949 H   0  0  0  0  0  0  0  0  0  0  0  0
   -2.5972    3.7096    1.8915 H   0  0  0  0  0  0  0  0  0  0  0  0
   -3.8919    4.8839    1.4332 H   0  0  0  0  0  0  0  0  0  0  0  0
   -0.4673    2.5763    0.4875 H   0  0  0  0  0  0  0  0  0  0  0  0
    0.3503    0.2939    0.2358 H   0  0  0  0  0  0  0  0  0  0  0  0
   -1.0999   -0.1819   -3.5339 H   0  0  0  0  0  0  0  0  0  0  0  0
   -1.4505   -1.0220   -5.8134 H   0  0  0  0  0  0  0  0  0  0  0  0
   -3.8227   -4.2699   -7.5464 H   0  0  0  0  0  0  0  0  0  0  0  0
   -3.5618   -4.4999   -5.7761 H   0  0  0  0  0  0  0  0  0  0  0  0
   -3.7768   -2.8300   -6.4552 H   0  0  0  0  0  0  0  0  0  0  0  0
   -0.9478   -5.0604   -4.4138 H   0  0  0  0  0  0  0  0  0  0  0  0
   -0.6380   -4.2270   -2.1244 H   0  0  0  0  0  0  0  0  0  0  0  0
   -1.1556   -6.6043   -2.0285 H   0  0  0  0  0  0  0  0  0  0  0  0
    1.0259   -7.7505   -1.8762 H   0  0  0  0  0  0  0  0  0  0  0  0
    1.3782  -10.1383    0.1466 H   0  0  0  0  0  0  0  0  0  0  0  0
    2.9084  -10.5294    1.0289 H   0  0  0  0  0  0  0  0  0  0  0  0
    1.5954   -9.6236    1.8749 H   0  0  0  0  0  0  0  0  0  0  0  0
    1.1929   -6.8664    2.3355 H   0  0  0  0  0  0  0  0  0  0  0  0
   -1.0052   -5.7619    2.1910 H   0  0  0  0  0  0  0  0  0  0  0  0
   -3.7288   -6.1662    2.2190 H   0  0  0  0  0  0  0  0  0  0  0  0
   -5.8015   -7.4883    2.3940 H   0  0  0  0  0  0  0  0  0  0  0  0
   -8.2150   -6.4667    1.1594 H   0  0  0  0  0  0  0  0  0  0  0  0
   -8.3188   -6.6210   -0.6448 H   0  0  0  0  0  0  0  0  0  0  0  0
   -9.5755   -7.3809    0.4081 H   0  0  0  0  0  0  0  0  0  0  0  0
   -5.8291   -8.0027   -1.8847 H   0  0  0  0  0  0  0  0  0  0  0  0
   -3.7574   -6.6628   -2.0605 H   0  0  0  0  0  0  0  0  0  0  0  0
   -7.6873    1.1292    2.2886 H   0  0  0  0  0  0  0  0  0  0  0  0
  -10.1144    1.0767    2.7078 H   0  0  0  0  0  0  0  0  0  0  0  0
  -11.3713   -1.6654    5.6145 H   0  0  0  0  0  0  0  0  0  0  0  0
  -12.8823   -0.6782    5.5206 H   0  0  0  0  0  0  0  0  0  0  0  0
  -11.2827    0.1289    5.3273 H   0  0  0  0  0  0  0  0  0  0  0  0
   -9.9044   -3.1604    3.4491 H   0  0  0  0  0  0  0  0  0  0  0  0
   -7.4743   -3.1120    3.0294 H   0  0  0  0  0  0  0  0  0  0  0  0
   -5.2873    1.5778    2.5078 H   0  0  0  0  0  0  0  0  0  0  0  0
   -3.8130    2.5732    4.2280 H   0  0  0  0  0  0  0  0  0  0  0  0
   -3.3884    2.1559    8.6158 H   0  0  0  0  0  0  0  0  0  0  0  0
   -4.5838    2.3244    7.2711 H   0  0  0  0  0  0  0  0  0  0  0  0
   -4.2247    0.6887    7.9813 H   0  0  0  0  0  0  0  0  0  0  0  0
   -3.4223   -1.2859    6.0935 H   0  0  0  0  0  0  0  0  0  0  0  0
   -4.8771   -2.2705    4.3659 H   0  0  0  0  0  0  0  0  0  0  0  0
   -8.2489   -1.5519    0.2317 H   0  0  0  0  0  0  0  0  0  0  0  0
   -8.2970   -3.5508   -1.3875 H   0  0  0  0  0  0  0  0  0  0  0  0
   -8.4235   -2.7807   -3.6299 H   0  0  0  0  0  0  0  0  0  0  0  0
   -6.2878    2.8529   -6.5764 H   0  0  0  0  0  0  0  0  0  0  0  0
   -6.0767    1.9720   -8.0672 H   0  0  0  0  0  0  0  0  0  0  0  0
   -4.0714    2.2230   -5.7107 H   0  0  0  0  0  0  0  0  0  0  0  0
   -3.9123    2.9502   -7.3535 H   0  0  0  0  0  0  0  0  0  0  0  0
   -3.7659    1.1640   -7.1334 H   0  0  0  0  0  0  0  0  0  0  0  0
   -7.2897    1.2579   -2.2940 H   0  0  0  0  0  0  0  0  0  0  0  0
   -8.7528    0.4001   -1.7547 H   0  0  0  0  0  0  0  0  0  0  0  0
   -6.8973    0.3870   -0.0769 H   0  0  0  0  0  0  0  0  0  0  0  0
   -5.8274   -0.4049   -1.2751 H   0  0  0  0  0  0  0  0  0  0  0  0
  1  2  1  0
  2  3  1  0
  3  4  1  0
  4  5  2  3
  5  6  1  0
  6  7  3  0
  5  8  1  0
  8  9  3  0
  4 10  1  0
 10 11  1  0
 11 12  1  0
 12 13  2  0
 11 14  2  3
 14 15  1  0
 15 16  2  0
 16 17  1  0
 17 18  1  0
 18 19  1  0
 17 20  1  0
 20 21  2  0
 21 22  1  0
 22 23  1  0
 23 24  2  0
 24 25  1  0
 25 26  2  0
 26 27  1  0
 27 28  1  0
 26 29  1  0
 29 30  2  0
 22 31  1  0
 31 32  2  0
 32 33  1  0
 33 34  2  0
 34 35  1  0
 35 36  1  0
 34 37  1  0
 37 38  2  0
 21 39  1  0
 39 40  1  0
 40 41  1  0
 41 42  2  0
 42 43  1  0
 43 44  1  0
 44 45  2  0
 45 46  1  0
 46 47  2  0
 47 48  1  0
 48 49  1  0
 47 50  1  0
 50 51  2  0
 43 52  1  0
 52 53  2  0
 53 54  1  0
 54 55  2  0
 55 56  1  0
 56 57  1  0
 55 58  1  0
 58 59  2  0
 42 60  1  0
 60 61  1  0
 41 62  1  0
 62 63  2  0
 63 64  1  0
 64 65  1  0
 65 66  2  0
 66 67  1  0
 67 68  2  0
 68 69  1  0
 69 70  1  0
 68 71  1  0
 71 72  2  0
 64 73  1  0
 73 74  2  0
 74 75  1  0
 75 76  2  0
 76 77  1  0
 77 78  1  0
 76 79  1  0
 79 80  2  0
 63 81  1  0
 81 82  1  0
 82 83  1  0
 83 84  2  0
 84 85  1  0
 85 86  1  0
 86 87  2  0
 87 88  1  0
 88 89  2  0
 89 90  1  0
 90 91  1  0
 89 92  1  0
 92 93  2  0
 85 94  1  0
 94 95  2  0
 95 96  1  0
 96 97  2  0
 97 98  1  0
 98 99  1  0
 97100  1  0
100101  2  0
 84102  1  0
102103  1  0
 83104  1  0
104105  2  0
105106  1  0
106107  1  0
107108  2  0
108109  1  0
109110  2  0
110111  1  0
111112  1  0
110113  1  0
113114  2  0
106115  1  0
115116  2  0
116117  1  0
117118  2  0
118119  1  0
119120  1  0
118121  1  0
121122  2  0
105123  1  0
123124  1  0
124125  1  0
125126  2  0
126127  1  0
127128  1  0
128129  2  0
129130  1  0
130131  2  0
131132  1  0
132133  1  0
131134  1  0
134135  2  0
127136  1  0
136137  2  0
137138  1  0
138139  2  0
139140  1  0
140141  1  0
139142  1  0
142143  2  0
126144  1  0
144145  1  0
125146  1  0
146147  1  0
147148  2  0
148149  1  0
149150  2  3
150151  1  0
151152  1  0
152153  2  3
153154  1  0
154155  3  0
153156  1  0
156157  3  0
152158  1  0
158159  1  0
159160  1  0
158161  1  0
161162  2  0
149163  1  0
163164  1  0
 12  3  1  0
 19 14  1  0
 61 20  1  0
103 62  1  0
145104  1  0
164146  1  0
 30 23  1  0
 38 31  1  0
 60 39  2  0
 72 65  1  0
 80 73  1  0
102 81  2  0
114107  1  0
122115  1  0
144123  2  0
161150  1  0
 51 44  1  0
 59 52  1  0
 93 86  1  0
101 94  1  0
135128  1  0
143136  1  0
  1165  1  0
  1166  1  0
  1167  1  0
  2168  1  0
  2169  1  0
 15170  1  0
 16171  1  0
 17172  1  0
 18173  1  0
 18174  1  0
 19175  1  0
 19176  1  0
 24177  1  0
 25178  1  0
 28179  1  0
 28180  1  0
 28181  1  0
 29182  1  0
 30183  1  0
 32184  1  0
 33185  1  0
 36186  1  0
 36187  1  0
 36188  1  0
 37189  1  0
 38190  1  0
 45191  1  0
 46192  1  0
 49193  1  0
 49194  1  0
 49195  1  0
 50196  1  0
 51197  1  0
 53198  1  0
 54199  1  0
 57200  1  0
 57201  1  0
 57202  1  0
 58203  1  0
 59204  1  0
 66205  1  0
 67206  1  0
 70207  1  0
 70208  1  0
 70209  1  0
 71210  1  0
 72211  1  0
 74212  1  0
 75213  1  0
 78214  1  0
 78215  1  0
 78216  1  0
 79217  1  0
 80218  1  0
 87219  1  0
 88220  1  0
 91221  1  0
 91222  1  0
 91223  1  0
 92224  1  0
 93225  1  0
 95226  1  0
 96227  1  0
 99228  1  0
 99229  1  0
 99230  1  0
100231  1  0
101232  1  0
108233  1  0
109234  1  0
112235  1  0
112236  1  0
112237  1  0
113238  1  0
114239  1  0
116240  1  0
117241  1  0
120242  1  0
120243  1  0
120244  1  0
121245  1  0
122246  1  0
129247  1  0
130248  1  0
133249  1  0
133250  1  0
133251  1  0
134252  1  0
135253  1  0
137254  1  0
138255  1  0
141256  1  0
141257  1  0
141258  1  0
142259  1  0
143260  1  0
146261  1  0
147262  1  0
148263  1  0
159264  1  0
159265  1  0
160266  1  0
160267  1  0
160268  1  0
163269  1  0
163270  1  0
164271  1  0
164272  1  0
M  END

