
     RDKit          3D

236255  0  0  0  0  0  0  0  0999 V2000
   -9.3750    3.5183    4.7984 N   0  0  0  0  0  0  0  0  0  0  0  0
  -10.3110    3.2977    4.1536 C   0  0  0  0  0  0  0  0  0  0  0  0
  -11.4812    3.0195    3.3586 C   0  0  0  0  0  0  0  0  0  0  0  0
  -12.6896    2.7282    4.0971 C   0  0  0  0  0  0  0  0  0  0  0  0
  -13.6519    2.4879    4.6932 N   0  0  0  0  0  0  0  0  0  0  0  0
  -11.4660    3.0538    2.0061 C   0  0  0  0  0  0  0  0  0  0  0  0
  -12.6994    2.8960    1.2658 C   0  0  0  0  0  0  0  0  0  0  0  0
  -13.6853    2.7673    0.6727 N   0  0  0  0  0  0  0  0  0  0  0  0
  -10.2281    3.2939    1.2183 C   0  0  0  0  0  0  0  0  0  0  0  0
  -10.1690    3.9532   -0.0107 C   0  0  0  0  0  0  0  0  0  0  0  0
   -8.8851    4.0081   -0.5588 C   0  0  0  0  0  0  0  0  0  0  0  0
   -7.9143    3.3631    0.2113 C   0  0  0  0  0  0  0  0  0  0  0  0
   -8.6743    2.7315    1.5686 S   0  0  0  0  0  0  0  0  0  0  0  0
   -6.4744    3.3093   -0.1058 C   0  0  0  0  0  0  0  0  0  0  0  0
   -5.5073    2.4316    0.4253 C   0  0  0  0  0  0  0  0  0  0  0  0
   -5.8009    1.2779    1.2332 N   0  0  0  0  0  0  0  0  0  0  0  0
   -6.2268    0.0405    0.5925 C   0  0  0  0  0  0  0  0  0  0  0  0
   -6.0788   -1.2081    1.2423 C   0  0  0  0  0  0  0  0  0  0  0  0
   -6.5903   -2.3777    0.6766 C   0  0  0  0  0  0  0  0  0  0  0  0
   -7.2409   -2.3317   -0.5594 C   0  0  0  0  0  0  0  0  0  0  0  0
   -8.0429   -3.7998   -1.2114 S   0  0  0  0  0  0  0  0  0  0  0  0
   -6.5492   -4.4142   -2.0433 C   0  0  0  0  0  0  0  0  0  0  0  0
   -7.3255   -1.1216   -1.2540 C   0  0  0  0  0  0  0  0  0  0  0  0
   -6.8203    0.0513   -0.6869 C   0  0  0  0  0  0  0  0  0  0  0  0
   -5.6563    1.3698    2.6726 C   0  0  0  0  0  0  0  0  0  0  0  0
   -4.5123    1.9490    3.2485 C   0  0  0  0  0  0  0  0  0  0  0  0
   -4.3303    1.9498    4.6332 C   0  0  0  0  0  0  0  0  0  0  0  0
   -5.3073    1.3931    5.4672 C   0  0  0  0  0  0  0  0  0  0  0  0
   -5.0678    1.3630    7.2455 S   0  0  0  0  0  0  0  0  0  0  0  0
   -4.4759   -0.3579    7.2498 C   0  0  0  0  0  0  0  0  0  0  0  0
   -6.4761    0.8720    4.9098 C   0  0  0  0  0  0  0  0  0  0  0  0
   -6.6485    0.8531    3.5234 C   0  0  0  0  0  0  0  0  0  0  0  0
   -4.2606    2.6509   -0.1593 C   0  0  0  0  0  0  0  0  0  0  0  0
   -2.7436    1.9788    0.0418 S   0  0  0  0  0  0  0  0  0  0  0  0
   -2.0092    2.9721   -1.1327 C   0  0  0  0  0  0  0  0  0  0  0  0
   -2.9642    3.8326   -1.6942 C   0  0  0  0  0  0  0  0  0  0  0  0
   -2.7366    4.7305   -2.7966 N   0  0  0  0  0  0  0  0  0  0  0  0
   -3.6563    4.6555   -3.8982 C   0  0  0  0  0  0  0  0  0  0  0  0
   -4.4908    5.7407   -4.2034 C   0  0  0  0  0  0  0  0  0  0  0  0
   -5.4859    5.6077   -5.1779 C   0  0  0  0  0  0  0  0  0  0  0  0
   -5.6477    4.3922   -5.8569 C   0  0  0  0  0  0  0  0  0  0  0  0
   -6.9684    4.1917   -7.0523 S   0  0  0  0  0  0  0  0  0  0  0  0
   -8.1127    3.4594   -5.8420 C   0  0  0  0  0  0  0  0  0  0  0  0
   -4.7871    3.3212   -5.5826 C   0  0  0  0  0  0  0  0  0  0  0  0
   -3.8004    3.4523   -4.6058 C   0  0  0  0  0  0  0  0  0  0  0  0
   -1.6594    5.6922   -2.8019 C   0  0  0  0  0  0  0  0  0  0  0  0
   -1.1694    6.2334   -1.5978 C   0  0  0  0  0  0  0  0  0  0  0  0
   -0.1270    7.1658   -1.6093 C   0  0  0  0  0  0  0  0  0  0  0  0
    0.4227    7.5887   -2.8229 C   0  0  0  0  0  0  0  0  0  0  0  0
    1.7178    8.8255   -2.8392 S   0  0  0  0  0  0  0  0  0  0  0  0
    0.5443   10.2165   -2.9029 C   0  0  0  0  0  0  0  0  0  0  0  0
   -0.0546    7.0616   -4.0257 C   0  0  0  0  0  0  0  0  0  0  0  0
   -1.0903    6.1173   -4.0179 C   0  0  0  0  0  0  0  0  0  0  0  0
   -4.2151    3.6133   -1.1115 C   0  0  0  0  0  0  0  0  0  0  0  0
   -5.7348    4.2973   -1.2883 S   0  0  0  0  0  0  0  0  0  0  0  0
   -0.5664    2.9683   -1.3460 C   0  0  0  0  0  0  0  0  0  0  0  0
    0.1004    2.1228   -2.2494 C   0  0  0  0  0  0  0  0  0  0  0  0
   -0.5336    1.4518   -3.3528 N   0  0  0  0  0  0  0  0  0  0  0  0
   -1.1445    0.1669   -3.1092 C   0  0  0  0  0  0  0  0  0  0  0  0
   -2.5168    0.0726   -2.8140 C   0  0  0  0  0  0  0  0  0  0  0  0
   -3.0977   -1.1749   -2.5731 C   0  0  0  0  0  0  0  0  0  0  0  0
   -2.3145   -2.3364   -2.6140 C   0  0  0  0  0  0  0  0  0  0  0  0
   -3.0503   -3.9378   -2.2789 S   0  0  0  0  0  0  0  0  0  0  0  0
   -2.8980   -3.7616   -0.4764 C   0  0  0  0  0  0  0  0  0  0  0  0
   -0.9570   -2.2502   -2.9306 C   0  0  0  0  0  0  0  0  0  0  0  0
   -0.3831   -1.0051   -3.2031 C   0  0  0  0  0  0  0  0  0  0  0  0
   -0.3848    1.9641   -4.7024 C   0  0  0  0  0  0  0  0  0  0  0  0
    0.3506    3.1499   -4.9510 C   0  0  0  0  0  0  0  0  0  0  0  0
    0.5140    3.6347   -6.2505 C   0  0  0  0  0  0  0  0  0  0  0  0
   -0.0412    2.9438   -7.3310 C   0  0  0  0  0  0  0  0  0  0  0  0
    0.2098    3.5558   -8.9985 S   0  0  0  0  0  0  0  0  0  0  0  0
    1.7415    2.6011   -9.2514 C   0  0  0  0  0  0  0  0  0  0  0  0
   -0.7790    1.7771   -7.1070 C   0  0  0  0  0  0  0  0  0  0  0  0
   -0.9441    1.2867   -5.8073 C   0  0  0  0  0  0  0  0  0  0  0  0
    1.4119    1.8596   -1.8283 C   0  0  0  0  0  0  0  0  0  0  0  0
    2.3882    0.5311   -2.0807 S   0  0  0  0  0  0  0  0  0  0  0  0
    3.2500    0.6302   -0.6106 C   0  0  0  0  0  0  0  0  0  0  0  0
    2.7726    1.7726    0.0693 C   0  0  0  0  0  0  0  0  0  0  0  0
    3.1149    2.1689    1.4171 N   0  0  0  0  0  0  0  0  0  0  0  0
    2.8585    1.2931    2.5397 C   0  0  0  0  0  0  0  0  0  0  0  0
    1.7832    0.3822    2.5157 C   0  0  0  0  0  0  0  0  0  0  0  0
    1.5019   -0.4123    3.6328 C   0  0  0  0  0  0  0  0  0  0  0  0
    2.2690   -0.2914    4.7935 C   0  0  0  0  0  0  0  0  0  0  0  0
    1.8682   -1.2709    6.2445 S   0  0  0  0  0  0  0  0  0  0  0  0
    0.6929   -0.0472    6.9033 C   0  0  0  0  0  0  0  0  0  0  0  0
    3.3381    0.6065    4.8286 C   0  0  0  0  0  0  0  0  0  0  0  0
    3.6287    1.3939    3.7102 C   0  0  0  0  0  0  0  0  0  0  0  0
    3.4140    3.5729    1.6224 C   0  0  0  0  0  0  0  0  0  0  0  0
    2.8679    4.2847    2.7078 C   0  0  0  0  0  0  0  0  0  0  0  0
    3.0940    5.6603    2.8421 C   0  0  0  0  0  0  0  0  0  0  0  0
    3.8567    6.3416    1.8901 C   0  0  0  0  0  0  0  0  0  0  0  0
    4.1468    8.1062    2.0549 S   0  0  0  0  0  0  0  0  0  0  0  0
    2.7590    8.5726    0.9746 C   0  0  0  0  0  0  0  0  0  0  0  0
    4.3962    5.6457    0.8070 C   0  0  0  0  0  0  0  0  0  0  0  0
    4.1677    4.2780    0.6644 C   0  0  0  0  0  0  0  0  0  0  0  0
    1.7622    2.4202   -0.6424 C   0  0  0  0  0  0  0  0  0  0  0  0
    0.4779    3.3121   -0.0534 S   0  0  0  0  0  0  0  0  0  0  0  0
    3.6569   -0.6166    0.0544 C   0  0  0  0  0  0  0  0  0  0  0  0
    4.9287   -0.9903    0.5318 C   0  0  0  0  0  0  0  0  0  0  0  0
    6.1510   -0.3372    0.1339 N   0  0  0  0  0  0  0  0  0  0  0  0
    6.4452    1.0064    0.5506 C   0  0  0  0  0  0  0  0  0  0  0  0
    6.4759    1.3273    1.9144 C   0  0  0  0  0  0  0  0  0  0  0  0
    6.9067    2.5890    2.3294 C   0  0  0  0  0  0  0  0  0  0  0  0
    7.3360    3.5381    1.3836 C   0  0  0  0  0  0  0  0  0  0  0  0
    7.7878    4.8918    1.8427 C   0  0  0  0  0  0  0  0  0  0  0  0
    7.2972    3.2200    0.0191 C   0  0  0  0  0  0  0  0  0  0  0  0
    6.8540    1.9599   -0.3942 C   0  0  0  0  0  0  0  0  0  0  0  0
    7.1579   -1.0880   -0.5795 C   0  0  0  0  0  0  0  0  0  0  0  0
    6.7893   -1.9616   -1.6178 C   0  0  0  0  0  0  0  0  0  0  0  0
    7.7418   -2.7967   -2.2127 C   0  0  0  0  0  0  0  0  0  0  0  0
    9.0792   -2.7559   -1.7897 C   0  0  0  0  0  0  0  0  0  0  0  0
   10.0764   -3.7132   -2.3715 C   0  0  0  0  0  0  0  0  0  0  0  0
    9.4578   -1.8661   -0.7745 C   0  0  0  0  0  0  0  0  0  0  0  0
    8.5044   -1.0348   -0.1780 C   0  0  0  0  0  0  0  0  0  0  0  0
    4.8993   -2.3113    1.0062 C   0  0  0  0  0  0  0  0  0  0  0  0
    6.0822   -3.3962    1.5023 S   0  0  0  0  0  0  0  0  0  0  0  0
    5.0621   -4.7585    1.4212 C   0  0  0  0  0  0  0  0  0  0  0  0
    3.8002   -4.3714    0.9421 C   0  0  0  0  0  0  0  0  0  0  0  0
    2.9569   -5.2466    0.1701 N   0  0  0  0  0  0  0  0  0  0  0  0
    1.6324   -5.5986    0.6236 C   0  0  0  0  0  0  0  0  0  0  0  0
    1.3239   -5.6396    1.9989 C   0  0  0  0  0  0  0  0  0  0  0  0
    0.0542   -6.0303    2.4289 C   0  0  0  0  0  0  0  0  0  0  0  0
   -0.9330   -6.3894    1.5004 C   0  0  0  0  0  0  0  0  0  0  0  0
   -2.2966   -6.7900    1.9737 C   0  0  0  0  0  0  0  0  0  0  0  0
   -0.6394   -6.3372    0.1278 C   0  0  0  0  0  0  0  0  0  0  0  0
    0.6270   -5.9357   -0.3031 C   0  0  0  0  0  0  0  0  0  0  0  0
    3.4635   -5.7250   -1.0964 C   0  0  0  0  0  0  0  0  0  0  0  0
    3.4883   -7.1003   -1.3802 C   0  0  0  0  0  0  0  0  0  0  0  0
    4.0094   -7.5643   -2.5951 C   0  0  0  0  0  0  0  0  0  0  0  0
    4.5467   -6.6573   -3.5209 C   0  0  0  0  0  0  0  0  0  0  0  0
    5.1201   -7.1371   -4.8230 C   0  0  0  0  0  0  0  0  0  0  0  0
    4.5186   -5.2841   -3.2443 C   0  0  0  0  0  0  0  0  0  0  0  0
    3.9881   -4.8197   -2.0377 C   0  0  0  0  0  0  0  0  0  0  0  0
    3.7358   -2.9854    0.8040 C   0  0  0  0  0  0  0  0  0  0  0  0
    2.6179   -1.9733    0.0965 S   0  0  0  0  0  0  0  0  0  0  0  0
    5.4682   -6.1316    1.7536 C   0  0  0  0  0  0  0  0  0  0  0  0
    6.7706   -6.5562    1.9993 C   0  0  0  0  0  0  0  0  0  0  0  0
    6.8521   -7.9039    2.3694 C   0  0  0  0  0  0  0  0  0  0  0  0
    5.6160   -8.5418    2.4713 C   0  0  0  0  0  0  0  0  0  0  0  0
    5.4155   -9.9833    2.7893 C   0  0  0  0  0  0  0  0  0  0  0  0
    4.3436  -10.4633    3.4555 C   0  0  0  0  0  0  0  0  0  0  0  0
    4.2563  -11.8583    3.8199 C   0  0  0  0  0  0  0  0  0  0  0  0
    4.2034  -12.9742    4.1176 N   0  0  0  0  0  0  0  0  0  0  0  0
    3.3325   -9.6008    4.0253 C   0  0  0  0  0  0  0  0  0  0  0  0
    2.5285   -8.9176    4.5100 N   0  0  0  0  0  0  0  0  0  0  0  0
    6.4781  -10.8808    2.3839 C   0  0  0  0  0  0  0  0  0  0  0  0
    7.3310  -11.5967    2.0716 N   0  0  0  0  0  0  0  0  0  0  0  0
    4.4279   -7.4221    2.0488 S   0  0  0  0  0  0  0  0  0  0  0  0
  -11.0330    4.3965   -0.4897 H   0  0  0  0  0  0  0  0  0  0  0  0
   -8.6735    4.5074   -1.4971 H   0  0  0  0  0  0  0  0  0  0  0  0
   -5.5879   -1.2804    2.2036 H   0  0  0  0  0  0  0  0  0  0  0  0
   -6.5095   -3.3190    1.2099 H   0  0  0  0  0  0  0  0  0  0  0  0
   -5.8048   -4.7302   -1.2836 H   0  0  0  0  0  0  0  0  0  0  0  0
   -6.8117   -5.2919   -2.6700 H   0  0  0  0  0  0  0  0  0  0  0  0
   -6.1181   -3.6239   -2.6939 H   0  0  0  0  0  0  0  0  0  0  0  0
   -7.8241   -1.0802   -2.2133 H   0  0  0  0  0  0  0  0  0  0  0  0
   -6.9352    0.9706   -1.2452 H   0  0  0  0  0  0  0  0  0  0  0  0
   -3.7436    2.3880    2.6318 H   0  0  0  0  0  0  0  0  0  0  0  0
   -3.4383    2.3946    5.0545 H   0  0  0  0  0  0  0  0  0  0  0  0
   -3.5590   -0.4481    6.6321 H   0  0  0  0  0  0  0  0  0  0  0  0
   -5.2635   -1.0346    6.8572 H   0  0  0  0  0  0  0  0  0  0  0  0
   -4.2388   -0.6569    8.2892 H   0  0  0  0  0  0  0  0  0  0  0  0
   -7.2386    0.4564    5.5528 H   0  0  0  0  0  0  0  0  0  0  0  0
   -7.5473    0.4208    3.1107 H   0  0  0  0  0  0  0  0  0  0  0  0
   -4.3998    6.6678   -3.6584 H   0  0  0  0  0  0  0  0  0  0  0  0
   -6.1493    6.4392   -5.3845 H   0  0  0  0  0  0  0  0  0  0  0  0
   -7.6742    2.5320   -5.4195 H   0  0  0  0  0  0  0  0  0  0  0  0
   -9.0657    3.2066   -6.3498 H   0  0  0  0  0  0  0  0  0  0  0  0
   -8.3154    4.1815   -5.0248 H   0  0  0  0  0  0  0  0  0  0  0  0
   -4.9061    2.3755   -6.0998 H   0  0  0  0  0  0  0  0  0  0  0  0
   -3.1564    2.6157   -4.3892 H   0  0  0  0  0  0  0  0  0  0  0  0
   -1.5943    5.9363   -0.6470 H   0  0  0  0  0  0  0  0  0  0  0  0
    0.2431    7.5690   -0.6769 H   0  0  0  0  0  0  0  0  0  0  0  0
   -0.0516   10.1655   -3.8392 H   0  0  0  0  0  0  0  0  0  0  0  0
   -0.1354   10.1873   -2.0238 H   0  0  0  0  0  0  0  0  0  0  0  0
    1.1124   11.1682   -2.8838 H   0  0  0  0  0  0  0  0  0  0  0  0
    0.3667    7.3850   -4.9693 H   0  0  0  0  0  0  0  0  0  0  0  0
   -1.4374    5.7220   -4.9609 H   0  0  0  0  0  0  0  0  0  0  0  0
   -3.1312    0.9586   -2.7739 H   0  0  0  0  0  0  0  0  0  0  0  0
   -4.1533   -1.2371   -2.3468 H   0  0  0  0  0  0  0  0  0  0  0  0
   -1.8357   -3.6113   -0.1917 H   0  0  0  0  0  0  0  0  0  0  0  0
   -3.2754   -4.6840    0.0086 H   0  0  0  0  0  0  0  0  0  0  0  0
   -3.5072   -2.9035   -0.1248 H   0  0  0  0  0  0  0  0  0  0  0  0
   -0.3493   -3.1444   -2.9874 H   0  0  0  0  0  0  0  0  0  0  0  0
    0.6519   -0.9671   -3.5141 H   0  0  0  0  0  0  0  0  0  0  0  0
    0.7973    3.7082   -4.1414 H   0  0  0  0  0  0  0  0  0  0  0  0
    1.0875    4.5364   -6.4196 H   0  0  0  0  0  0  0  0  0  0  0  0
    2.2543    2.9741  -10.1612 H   0  0  0  0  0  0  0  0  0  0  0  0
    1.4949    1.5287   -9.3933 H   0  0  0  0  0  0  0  0  0  0  0  0
    2.4322    2.7118   -8.3889 H   0  0  0  0  0  0  0  0  0  0  0  0
   -1.2154    1.2405   -7.9393 H   0  0  0  0  0  0  0  0  0  0  0  0
   -1.5272    0.3821   -5.6735 H   0  0  0  0  0  0  0  0  0  0  0  0
    1.1455    0.3064    1.6441 H   0  0  0  0  0  0  0  0  0  0  0  0
    0.6640   -1.1006    3.6014 H   0  0  0  0  0  0  0  0  0  0  0  0
    1.2299    0.8870    7.1701 H   0  0  0  0  0  0  0  0  0  0  0  0
    0.2141   -0.4598    7.8162 H   0  0  0  0  0  0  0  0  0  0  0  0
   -0.0950    0.1701    6.1511 H   0  0  0  0  0  0  0  0  0  0  0  0
    3.9348    0.7110    5.7263 H   0  0  0  0  0  0  0  0  0  0  0  0
    4.4445    2.1042    3.7757 H   0  0  0  0  0  0  0  0  0  0  0  0
    2.2499    3.7879    3.4472 H   0  0  0  0  0  0  0  0  0  0  0  0
    2.6656    6.1962    3.6790 H   0  0  0  0  0  0  0  0  0  0  0  0
    1.8030    8.1966    1.3973 H   0  0  0  0  0  0  0  0  0  0  0  0
    2.9119    8.1559   -0.0419 H   0  0  0  0  0  0  0  0  0  0  0  0
    2.7111    9.6804    0.9042 H   0  0  0  0  0  0  0  0  0  0  0  0
    4.9763    6.1696    0.0557 H   0  0  0  0  0  0  0  0  0  0  0  0
    4.5639    3.7706   -0.2025 H   0  0  0  0  0  0  0  0  0  0  0  0
    6.2111    0.5792    2.6515 H   0  0  0  0  0  0  0  0  0  0  0  0
    6.9280    2.8229    3.3906 H   0  0  0  0  0  0  0  0  0  0  0  0
    8.5128    4.7848    2.6767 H   0  0  0  0  0  0  0  0  0  0  0  0
    6.9129    5.4818    2.1936 H   0  0  0  0  0  0  0  0  0  0  0  0
    8.2849    5.4496    1.0200 H   0  0  0  0  0  0  0  0  0  0  0  0
    7.6083    3.9423   -0.7251 H   0  0  0  0  0  0  0  0  0  0  0  0
    6.8459    1.7192   -1.4512 H   0  0  0  0  0  0  0  0  0  0  0  0
    5.7616   -2.0233   -1.9407 H   0  0  0  0  0  0  0  0  0  0  0  0
    7.4330   -3.4854   -2.9890 H   0  0  0  0  0  0  0  0  0  0  0  0
   11.1175   -3.3883   -2.1558 H   0  0  0  0  0  0  0  0  0  0  0  0
    9.9176   -4.7199   -1.9301 H   0  0  0  0  0  0  0  0  0  0  0  0
    9.9516   -3.7720   -3.4731 H   0  0  0  0  0  0  0  0  0  0  0  0
   10.4833   -1.8279   -0.4339 H   0  0  0  0  0  0  0  0  0  0  0  0
    8.8126   -0.3861    0.6352 H   0  0  0  0  0  0  0  0  0  0  0  0
    2.0758   -5.3880    2.7376 H   0  0  0  0  0  0  0  0  0  0  0  0
   -0.1640   -6.0648    3.4936 H   0  0  0  0  0  0  0  0  0  0  0  0
   -2.2162   -7.6414    2.6822 H   0  0  0  0  0  0  0  0  0  0  0  0
   -2.7766   -5.9344    2.4927 H   0  0  0  0  0  0  0  0  0  0  0  0
   -2.9482   -7.0991    1.1282 H   0  0  0  0  0  0  0  0  0  0  0  0
   -1.3925   -6.5999   -0.6050 H   0  0  0  0  0  0  0  0  0  0  0  0
    0.8155   -5.8808   -1.3710 H   0  0  0  0  0  0  0  0  0  0  0  0
    3.0860   -7.8190   -0.6707 H   0  0  0  0  0  0  0  0  0  0  0  0
    4.0195   -8.6286   -2.7926 H   0  0  0  0  0  0  0  0  0  0  0  0
    5.0243   -8.2388   -4.9300 H   0  0  0  0  0  0  0  0  0  0  0  0
    4.5835   -6.6543   -5.6672 H   0  0  0  0  0  0  0  0  0  0  0  0
    6.1970   -6.8705   -4.8710 H   0  0  0  0  0  0  0  0  0  0  0  0
    4.9093   -4.5696   -3.9604 H   0  0  0  0  0  0  0  0  0  0  0  0
    3.9565   -3.7571   -1.8606 H   0  0  0  0  0  0  0  0  0  0  0  0
    7.6371   -5.9139    1.9043 H   0  0  0  0  0  0  0  0  0  0  0  0
    7.7943   -8.3990    2.5594 H   0  0  0  0  0  0  0  0  0  0  0  0
  1  2  3  0
  2  3  1  0
  3  4  1  0
  4  5  3  0
  3  6  2  3
  6  7  1  0
  7  8  3  0
  6  9  1  0
  9 10  2  0
 10 11  1  0
 11 12  2  0
 12 13  1  0
 12 14  1  0
 14 15  2  0
 15 16  1  0
 16 17  1  0
 17 18  2  0
 18 19  1  0
 19 20  2  0
 20 21  1  0
 21 22  1  0
 20 23  1  0
 23 24  2  0
 16 25  1  0
 25 26  2  0
 26 27  1  0
 27 28  2  0
 28 29  1  0
 29 30  1  0
 28 31  1  0
 31 32  2  0
 15 33  1  0
 33 34  1  0
 34 35  1  0
 35 36  2  0
 36 37  1  0
 37 38  1  0
 38 39  2  0
 39 40  1  0
 40 41  2  0
 41 42  1  0
 42 43  1  0
 41 44  1  0
 44 45  2  0
 37 46  1  0
 46 47  2  0
 47 48  1  0
 48 49  2  0
 49 50  1  0
 50 51  1  0
 49 52  1  0
 52 53  2  0
 36 54  1  0
 54 55  1  0
 35 56  1  0
 56 57  2  0
 57 58  1  0
 58 59  1  0
 59 60  2  0
 60 61  1  0
 61 62  2  0
 62 63  1  0
 63 64  1  0
 62 65  1  0
 65 66  2  0
 58 67  1  0
 67 68  2  0
 68 69  1  0
 69 70  2  0
 70 71  1  0
 71 72  1  0
 70 73  1  0
 73 74  2  0
 57 75  1  0
 75 76  1  0
 76 77  1  0
 77 78  2  0
 78 79  1  0
 79 80  1  0
 80 81  2  0
 81 82  1  0
 82 83  2  0
 83 84  1  0
 84 85  1  0
 83 86  1  0
 86 87  2  0
 79 88  1  0
 88 89  2  0
 89 90  1  0
 90 91  2  0
 91 92  1  0
 92 93  1  0
 91 94  1  0
 94 95  2  0
 78 96  1  0
 96 97  1  0
 77 98  1  0
 98 99  2  0
 99100  1  0
100101  1  0
101102  2  0
102103  1  0
103104  2  0
104105  1  0
104106  1  0
106107  2  0
100108  1  0
108109  2  0
109110  1  0
110111  2  0
111112  1  0
111113  1  0
113114  2  0
 99115  1  0
115116  1  0
116117  1  0
117118  2  0
118119  1  0
119120  1  0
120121  2  0
121122  1  0
122123  2  0
123124  1  0
123125  1  0
125126  2  0
119127  1  0
127128  2  0
128129  1  0
129130  2  0
130131  1  0
130132  1  0
132133  2  0
118134  1  0
134135  1  0
117136  1  0
136137  2  0
137138  1  0
138139  2  0
139140  1  0
140141  2  3
141142  1  0
142143  3  0
141144  1  0
144145  3  0
140146  1  0
146147  3  0
139148  1  0
 13  9  1  0
 55 14  1  0
 97 56  1  0
135 98  1  0
148136  1  0
 24 17  1  0
 32 25  1  0
 54 33  2  0
 66 59  1  0
 74 67  1  0
 96 75  2  0
107101  1  0
114108  1  0
134115  2  0
 45 38  1  0
 53 46  1  0
 87 80  1  0
 95 88  1  0
126120  1  0
133127  1  0
 10149  1  0
 11150  1  0
 18151  1  0
 19152  1  0
 22153  1  0
 22154  1  0
 22155  1  0
 23156  1  0
 24157  1  0
 26158  1  0
 27159  1  0
 30160  1  0
 30161  1  0
 30162  1  0
 31163  1  0
 32164  1  0
 39165  1  0
 40166  1  0
 43167  1  0
 43168  1  0
 43169  1  0
 44170  1  0
 45171  1  0
 47172  1  0
 48173  1  0
 51174  1  0
 51175  1  0
 51176  1  0
 52177  1  0
 53178  1  0
 60179  1  0
 61180  1  0
 64181  1  0
 64182  1  0
 64183  1  0
 65184  1  0
 66185  1  0
 68186  1  0
 69187  1  0
 72188  1  0
 72189  1  0
 72190  1  0
 73191  1  0
 74192  1  0
 81193  1  0
 82194  1  0
 85195  1  0
 85196  1  0
 85197  1  0
 86198  1  0
 87199  1  0
 89200  1  0
 90201  1  0
 93202  1  0
 93203  1  0
 93204  1  0
 94205  1  0
 95206  1  0
102207  1  0
103208  1  0
105209  1  0
105210  1  0
105211  1  0
106212  1  0
107213  1  0
109214  1  0
110215  1  0
112216  1  0
112217  1  0
112218  1  0
113219  1  0
114220  1  0
121221  1  0
122222  1  0
124223  1  0
124224  1  0
124225  1  0
125226  1  0
126227  1  0
128228  1  0
129229  1  0
131230  1  0
131231  1  0
131232  1  0
132233  1  0
133234  1  0
137235  1  0
138236  1  0
M  END

