
     RDKit          3D

138152  0  0  0  0  0  0  0  0999 V2000
   -0.0320   12.4849    4.0450 N   0  0  0  0  0  0  0  0  0  0  0  0
    0.1026   11.5929    4.7739 C   0  0  0  0  0  0  0  0  0  0  0  0
    0.2582   10.4997    5.7087 C   0  0  0  0  0  0  0  0  0  0  0  0
   -0.0577   10.7955    7.0875 C   0  0  0  0  0  0  0  0  0  0  0  0
   -0.3122   11.0309    8.1914 N   0  0  0  0  0  0  0  0  0  0  0  0
    0.7304    9.2832    5.3425 C   0  0  0  0  0  0  0  0  0  0  0  0
    0.9834    8.2741    6.3557 C   0  0  0  0  0  0  0  0  0  0  0  0
    1.1868    7.4676    7.1600 N   0  0  0  0  0  0  0  0  0  0  0  0
    1.0432    8.9090    3.9394 C   0  0  0  0  0  0  0  0  0  0  0  0
    0.3808    9.3081    2.7774 C   0  0  0  0  0  0  0  0  0  0  0  0
    0.8360    8.6686    1.6156 C   0  0  0  0  0  0  0  0  0  0  0  0
    1.8495    7.7245    1.8371 C   0  0  0  0  0  0  0  0  0  0  0  0
    2.1421    7.7178    3.4985 S   0  0  0  0  0  0  0  0  0  0  0  0
    2.4014    6.7221    0.8730 C   0  0  0  0  0  0  0  0  0  0  0  0
    3.5976    6.0326    1.1663 C   0  0  0  0  0  0  0  0  0  0  0  0
    3.9817    4.8760    0.4411 C   0  0  0  0  0  0  0  0  0  0  0  0
    5.2254    4.2993    0.8468 N   0  0  0  0  0  0  0  0  0  0  0  0
    5.6317    5.2918    2.0276 S   0  0  0  0  0  4  0  0  0  0  0  0
    4.5154    6.4109    2.1946 N   0  0  0  0  0  0  0  0  0  0  0  0
    3.1841    4.3523   -0.5841 C   0  0  0  0  0  0  0  0  0  0  0  0
    2.0906    5.1325   -1.0094 C   0  0  0  0  0  0  0  0  0  0  0  0
    1.2786    4.7665   -2.0327 N   0  0  0  0  0  0  0  0  0  0  0  0
    0.1402    5.9592   -1.9936 S   0  0  0  0  0  0  0  0  0  0  0  0
    0.5755    6.9311   -0.7382 N   0  0  0  0  0  0  0  0  0  0  0  0
    1.6954    6.3059   -0.2832 C   0  0  0  0  0  0  0  0  0  0  0  0
    3.2986    2.9266   -0.9758 C   0  0  0  0  0  0  0  0  0  0  0  0
    3.0835    1.8565   -0.0754 C   0  0  0  0  0  0  0  0  0  0  0  0
    2.9335    2.0031    1.3492 N   0  0  0  0  0  0  0  0  0  0  0  0
    1.5932    2.0106    1.9025 C   0  0  0  0  0  0  0  0  0  0  0  0
    0.6242    2.9072    1.4253 C   0  0  0  0  0  0  0  0  0  0  0  0
   -0.6639    2.9168    1.9666 C   0  0  0  0  0  0  0  0  0  0  0  0
   -1.0078    2.0155    2.9782 C   0  0  0  0  0  0  0  0  0  0  0  0
   -2.6492    2.0692    3.6997 S   0  0  0  0  0  0  0  0  0  0  0  0
   -2.1450    3.1540    5.0698 C   0  0  0  0  0  0  0  0  0  0  0  0
   -0.0661    1.0888    3.4326 C   0  0  0  0  0  0  0  0  0  0  0  0
    1.2251    1.0837    2.8993 C   0  0  0  0  0  0  0  0  0  0  0  0
    4.0720    1.7781    2.2151 C   0  0  0  0  0  0  0  0  0  0  0  0
    4.0520    2.2340    3.5489 C   0  0  0  0  0  0  0  0  0  0  0  0
    5.0753    1.8889    4.4307 C   0  0  0  0  0  0  0  0  0  0  0  0
    6.1520    1.1107    3.9939 C   0  0  0  0  0  0  0  0  0  0  0  0
    7.3761    0.5393    5.1668 S   0  0  0  0  0  0  0  0  0  0  0  0
    6.5350   -1.0561    5.4461 C   0  0  0  0  0  0  0  0  0  0  0  0
    6.2293    0.7245    2.6543 C   0  0  0  0  0  0  0  0  0  0  0  0
    5.1963    1.0497    1.7672 C   0  0  0  0  0  0  0  0  0  0  0  0
    2.6777    0.6964   -0.7326 C   0  0  0  0  0  0  0  0  0  0  0  0
    1.7289   -0.5512   -0.1629 S   0  0  0  0  0  0  0  0  0  0  0  0
    0.9986   -0.9152   -1.6565 C   0  0  0  0  0  0  0  0  0  0  0  0
    1.5516   -0.0549   -2.6278 C   0  0  0  0  0  0  0  0  0  0  0  0
    0.9494    0.2308   -3.8964 N   0  0  0  0  0  0  0  0  0  0  0  0
    1.7341   -0.0439   -5.0736 C   0  0  0  0  0  0  0  0  0  0  0  0
    2.3430   -1.3002   -5.2385 C   0  0  0  0  0  0  0  0  0  0  0  0
    3.1320   -1.5603   -6.3638 C   0  0  0  0  0  0  0  0  0  0  0  0
    3.3351   -0.5698   -7.3272 C   0  0  0  0  0  0  0  0  0  0  0  0
    4.3280   -0.9179   -8.7754 S   0  0  0  0  0  0  0  0  0  0  0  0
    2.8983   -1.4341   -9.7740 C   0  0  0  0  0  0  0  0  0  0  0  0
    2.7506    0.6901   -7.1624 C   0  0  0  0  0  0  0  0  0  0  0  0
    1.9625    0.9606   -6.0387 C   0  0  0  0  0  0  0  0  0  0  0  0
   -0.2467    1.0450   -3.9651 C   0  0  0  0  0  0  0  0  0  0  0  0
   -1.0918    0.9756   -5.0898 C   0  0  0  0  0  0  0  0  0  0  0  0
   -2.1742    1.8525   -5.2176 C   0  0  0  0  0  0  0  0  0  0  0  0
   -2.4282    2.8004   -4.2270 C   0  0  0  0  0  0  0  0  0  0  0  0
   -3.7389    4.0056   -4.4475 S   0  0  0  0  0  0  0  0  0  0  0  0
   -2.6440    5.2068   -5.2719 C   0  0  0  0  0  0  0  0  0  0  0  0
   -1.6412    2.8334   -3.0765 C   0  0  0  0  0  0  0  0  0  0  0  0
   -0.5621    1.9564   -2.9384 C   0  0  0  0  0  0  0  0  0  0  0  0
    2.5079    0.8072   -2.0760 C   0  0  0  0  0  0  0  0  0  0  0  0
    2.9438    2.3568   -2.5426 S   0  0  0  0  0  0  0  0  0  0  0  0
   -0.2107   -1.7782   -1.7698 C   0  0  0  0  0  0  0  0  0  0  0  0
   -0.8663   -2.1910   -0.5850 C   0  0  0  0  0  0  0  0  0  0  0  0
   -1.9824   -3.0103   -0.6799 C   0  0  0  0  0  0  0  0  0  0  0  0
   -2.6991   -3.6980    0.3819 C   0  0  0  0  0  0  0  0  0  0  0  0
   -2.4993   -3.5921    1.6187 O   0  0  0  0  0  0  0  0  0  0  0  0
   -3.6404   -4.5887   -0.2759 C   0  0  0  0  0  0  0  0  0  0  0  0
   -3.5318   -4.4178   -1.6482 C   0  0  0  0  0  0  0  0  0  0  0  0
   -2.4753   -3.4323   -1.9005 C   0  0  0  0  0  0  0  0  0  0  0  0
   -1.8530   -3.0564   -3.0899 C   0  0  0  0  0  0  0  0  0  0  0  0
   -0.7146   -2.2289   -3.0208 C   0  0  0  0  0  0  0  0  0  0  0  0
   -4.2494   -5.2225   -2.5335 C   0  0  0  0  0  0  0  0  0  0  0  0
   -5.0362   -6.2622   -1.9974 C   0  0  0  0  0  0  0  0  0  0  0  0
   -5.0343   -6.5151   -0.6077 C   0  0  0  0  0  0  0  0  0  0  0  0
   -4.3769   -5.6284    0.2694 C   0  0  0  0  0  0  0  0  0  0  0  0
   -5.6509   -7.7483   -0.0820 C   0  0  0  0  0  0  0  0  0  0  0  0
   -5.0130   -8.5688    0.7757 C   0  0  0  0  0  0  0  0  0  0  0  0
   -5.7077   -9.4041    1.7524 C   0  0  0  0  0  0  0  0  0  0  0  0
   -6.9175   -9.7518    1.7062 O   0  0  0  0  0  0  0  0  0  0  0  0
   -4.7901   -9.6713    2.8474 C   0  0  0  0  0  0  0  0  0  0  0  0
   -5.0432  -10.3184    4.0602 C   0  0  0  0  0  0  0  0  0  0  0  0
   -4.0115  -10.3878    5.0076 C   0  0  0  0  0  0  0  0  0  0  0  0
   -4.2257  -11.0021    6.1986 F   0  0  0  0  0  0  0  0  0  0  0  0
   -2.7600   -9.7992    4.7357 C   0  0  0  0  0  0  0  0  0  0  0  0
   -1.7794   -9.8410    5.6732 F   0  0  0  0  0  0  0  0  0  0  0  0
   -2.5255   -9.1455    3.5147 C   0  0  0  0  0  0  0  0  0  0  0  0
   -3.5536   -9.1065    2.5614 C   0  0  0  0  0  0  0  0  0  0  0  0
   -3.5806   -8.5202    1.1965 C   0  0  0  0  0  0  0  0  0  0  0  0
   -2.5117   -8.3642    0.3746 C   0  0  0  0  0  0  0  0  0  0  0  0
   -2.6640   -8.3504   -1.0609 C   0  0  0  0  0  0  0  0  0  0  0  0
   -2.7710   -8.3531   -2.2140 N   0  0  0  0  0  0  0  0  0  0  0  0
   -1.1555   -8.3769    0.8534 C   0  0  0  0  0  0  0  0  0  0  0  0
   -0.0553   -8.3728    1.2171 N   0  0  0  0  0  0  0  0  0  0  0  0
   -0.4502    9.9988    2.7544 H   0  0  0  0  0  0  0  0  0  0  0  0
    0.4216    8.9055    0.6443 H   0  0  0  0  0  0  0  0  0  0  0  0
    0.8578    3.6015    0.6468 H   0  0  0  0  0  0  0  0  0  0  0  0
   -1.3935    3.6271    1.5973 H   0  0  0  0  0  0  0  0  0  0  0  0
   -1.5323    4.0070    4.7025 H   0  0  0  0  0  0  0  0  0  0  0  0
   -3.0545    3.5543    5.5604 H   0  0  0  0  0  0  0  0  0  0  0  0
   -1.5652    2.5680    5.8076 H   0  0  0  0  0  0  0  0  0  0  0  0
   -0.3249    0.3802    4.2043 H   0  0  0  0  0  0  0  0  0  0  0  0
    1.9407    0.3510    3.2579 H   0  0  0  0  0  0  0  0  0  0  0  0
    3.2205    2.8265    3.9103 H   0  0  0  0  0  0  0  0  0  0  0  0
    5.0157    2.2043    5.4613 H   0  0  0  0  0  0  0  0  0  0  0  0
    5.4549   -0.8950    5.6372 H   0  0  0  0  0  0  0  0  0  0  0  0
    6.9822   -1.5593    6.3276 H   0  0  0  0  0  0  0  0  0  0  0  0
    6.6583   -1.7089    4.5577 H   0  0  0  0  0  0  0  0  0  0  0  0
    7.0671    0.1297    2.3143 H   0  0  0  0  0  0  0  0  0  0  0  0
    5.2650    0.6936    0.7468 H   0  0  0  0  0  0  0  0  0  0  0  0
    2.2096   -2.0730   -4.4976 H   0  0  0  0  0  0  0  0  0  0  0  0
    3.5950   -2.5336   -6.4773 H   0  0  0  0  0  0  0  0  0  0  0  0
    3.2542   -1.7505  -10.7760 H   0  0  0  0  0  0  0  0  0  0  0  0
    2.1899   -0.5879   -9.8924 H   0  0  0  0  0  0  0  0  0  0  0  0
    2.3700   -2.2866   -9.2879 H   0  0  0  0  0  0  0  0  0  0  0  0
    2.9191    1.4697   -7.8976 H   0  0  0  0  0  0  0  0  0  0  0  0
    1.5410    1.9484   -5.9106 H   0  0  0  0  0  0  0  0  0  0  0  0
   -0.9026    0.2575   -5.8780 H   0  0  0  0  0  0  0  0  0  0  0  0
   -2.7986    1.8058   -6.1017 H   0  0  0  0  0  0  0  0  0  0  0  0
   -2.1170    4.7292   -6.1232 H   0  0  0  0  0  0  0  0  0  0  0  0
   -1.8973    5.5997   -4.5525 H   0  0  0  0  0  0  0  0  0  0  0  0
   -3.2516    6.0479   -5.6586 H   0  0  0  0  0  0  0  0  0  0  0  0
   -1.8494    3.5530   -2.2919 H   0  0  0  0  0  0  0  0  0  0  0  0
    0.0375    2.0311   -2.0439 H   0  0  0  0  0  0  0  0  0  0  0  0
   -0.5196   -1.9017    0.3980 H   0  0  0  0  0  0  0  0  0  0  0  0
   -2.2125   -3.4208   -4.0464 H   0  0  0  0  0  0  0  0  0  0  0  0
   -0.2165   -1.9793   -3.9438 H   0  0  0  0  0  0  0  0  0  0  0  0
   -4.1694   -5.0846   -3.6027 H   0  0  0  0  0  0  0  0  0  0  0  0
   -5.5685   -6.9234   -2.6712 H   0  0  0  0  0  0  0  0  0  0  0  0
   -4.3709   -5.7964    1.3396 H   0  0  0  0  0  0  0  0  0  0  0  0
   -6.7008   -7.9021   -0.2838 H   0  0  0  0  0  0  0  0  0  0  0  0
   -6.0196  -10.7386    4.2768 H   0  0  0  0  0  0  0  0  0  0  0  0
   -1.5782   -8.6658    3.3594 H   0  0  0  0  0  0  0  0  0  0  0  0
  1  2  3  0
  2  3  1  0
  3  4  1  0
  4  5  3  0
  3  6  2  3
  6  7  1  0
  7  8  3  0
  6  9  1  0
  9 10  2  0
 10 11  1  0
 11 12  2  0
 12 13  1  0
 12 14  1  0
 14 15  2  0
 15 16  1  0
 16 17  1  0
 17 18  2  0
 18 19  2  0
 16 20  2  0
 20 21  1  0
 21 22  2  0
 22 23  1  0
 23 24  1  0
 24 25  2  0
 20 26  1  0
 26 27  2  0
 27 28  1  0
 28 29  1  0
 29 30  2  0
 30 31  1  0
 31 32  2  0
 32 33  1  0
 33 34  1  0
 32 35  1  0
 35 36  2  0
 28 37  1  0
 37 38  2  0
 38 39  1  0
 39 40  2  0
 40 41  1  0
 41 42  1  0
 40 43  1  0
 43 44  2  0
 27 45  1  0
 45 46  1  0
 46 47  1  0
 47 48  2  0
 48 49  1  0
 49 50  1  0
 50 51  2  0
 51 52  1  0
 52 53  2  0
 53 54  1  0
 54 55  1  0
 53 56  1  0
 56 57  2  0
 49 58  1  0
 58 59  2  0
 59 60  1  0
 60 61  2  0
 61 62  1  0
 62 63  1  0
 61 64  1  0
 64 65  2  0
 48 66  1  0
 66 67  1  0
 47 68  1  0
 68 69  2  0
 69 70  1  0
 70 71  1  0
 71 72  2  0
 71 73  1  0
 73 74  2  0
 74 75  1  0
 75 76  1  0
 76 77  2  0
 74 78  1  0
 78 79  2  0
 79 80  1  0
 80 81  2  0
 80 82  1  0
 82 83  2  3
 83 84  1  0
 84 85  2  0
 84 86  1  0
 86 87  2  0
 87 88  1  0
 88 89  1  0
 88 90  2  0
 90 91  1  0
 90 92  1  0
 92 93  2  0
 93 94  1  0
 94 95  2  3
 95 96  1  0
 96 97  3  0
 95 98  1  0
 98 99  3  0
 13  9  1  0
 25 14  1  0
 67 26  1  0
 77 68  1  0
 94 83  1  0
 19 15  1  0
 25 21  1  0
 36 29  1  0
 44 37  1  0
 66 45  2  0
 75 70  2  0
 93 86  1  0
 57 50  1  0
 65 58  1  0
 81 73  1  0
 10100  1  0
 11101  1  0
 30102  1  0
 31103  1  0
 34104  1  0
 34105  1  0
 34106  1  0
 35107  1  0
 36108  1  0
 38109  1  0
 39110  1  0
 42111  1  0
 42112  1  0
 42113  1  0
 43114  1  0
 44115  1  0
 51116  1  0
 52117  1  0
 55118  1  0
 55119  1  0
 55120  1  0
 56121  1  0
 57122  1  0
 59123  1  0
 60124  1  0
 63125  1  0
 63126  1  0
 63127  1  0
 64128  1  0
 65129  1  0
 69130  1  0
 76131  1  0
 77132  1  0
 78133  1  0
 79134  1  0
 81135  1  0
 82136  1  0
 87137  1  0
 92138  1  0
M  END

