
     RDKit          3D

224243  0  0  0  0  0  0  0  0999 V2000
   -7.2556   -7.2138   -1.2880 N   0  0  0  0  0  0  0  0  0  0  0  0
   -8.2045   -7.5559   -0.7157 C   0  0  0  0  0  0  0  0  0  0  0  0
   -9.3851   -7.9774    0.0035 C   0  0  0  0  0  0  0  0  0  0  0  0
   -9.9350   -9.2698   -0.3401 C   0  0  0  0  0  0  0  0  0  0  0  0
  -10.3777  -10.3033   -0.6223 N   0  0  0  0  0  0  0  0  0  0  0  0
   -9.9891   -7.1734    0.9046 C   0  0  0  0  0  0  0  0  0  0  0  0
  -11.2124   -7.5857    1.5589 C   0  0  0  0  0  0  0  0  0  0  0  0
  -12.1884   -7.9108    2.0910 N   0  0  0  0  0  0  0  0  0  0  0  0
   -9.4539   -5.8446    1.2653 C   0  0  0  0  0  0  0  0  0  0  0  0
  -10.1813   -4.6570    1.2686 C   0  0  0  0  0  0  0  0  0  0  0  0
   -9.4257   -3.5467    1.6584 C   0  0  0  0  0  0  0  0  0  0  0  0
   -8.1148   -3.8626    1.9940 C   0  0  0  0  0  0  0  0  0  0  0  0
   -7.8831   -5.5178    1.7873 S   0  0  0  0  0  0  0  0  0  0  0  0
   -7.0728   -2.9100    2.3962 C   0  0  0  0  0  0  0  0  0  0  0  0
   -6.8920   -1.6211    1.8688 C   0  0  0  0  0  0  0  0  0  0  0  0
   -7.5940   -1.0859    0.7312 N   0  0  0  0  0  0  0  0  0  0  0  0
   -8.0907    0.2691    0.7938 C   0  0  0  0  0  0  0  0  0  0  0  0
   -7.8847    1.1641   -0.2767 C   0  0  0  0  0  0  0  0  0  0  0  0
   -8.3779    2.4725   -0.2098 C   0  0  0  0  0  0  0  0  0  0  0  0
   -9.0722    2.9045    0.9238 C   0  0  0  0  0  0  0  0  0  0  0  0
   -9.2660    2.0302    1.9977 C   0  0  0  0  0  0  0  0  0  0  0  0
   -8.7701    0.7205    1.9397 C   0  0  0  0  0  0  0  0  0  0  0  0
   -7.6288   -1.8229   -0.5111 C   0  0  0  0  0  0  0  0  0  0  0  0
   -6.5386   -2.6243   -0.9012 C   0  0  0  0  0  0  0  0  0  0  0  0
   -6.5497   -3.2886   -2.1310 C   0  0  0  0  0  0  0  0  0  0  0  0
   -7.6532   -3.1730   -2.9772 C   0  0  0  0  0  0  0  0  0  0  0  0
   -8.7517   -2.3996   -2.5933 C   0  0  0  0  0  0  0  0  0  0  0  0
   -8.7420   -1.7310   -1.3683 C   0  0  0  0  0  0  0  0  0  0  0  0
   -5.7345   -1.0416    2.3759 C   0  0  0  0  0  0  0  0  0  0  0  0
   -4.8024    0.2418    1.8547 S   0  0  0  0  0  0  0  0  0  0  0  0
   -3.4217   -0.1901    2.7532 C   0  0  0  0  0  0  0  0  0  0  0  0
   -3.7189   -1.3547    3.4873 C   0  0  0  0  0  0  0  0  0  0  0  0
   -2.8112   -2.0037    4.3946 N   0  0  0  0  0  0  0  0  0  0  0  0
   -2.2034   -3.2668    4.0337 C   0  0  0  0  0  0  0  0  0  0  0  0
   -1.6702   -3.4589    2.7523 C   0  0  0  0  0  0  0  0  0  0  0  0
   -1.0674   -4.6752    2.4126 C   0  0  0  0  0  0  0  0  0  0  0  0
   -0.9714   -5.6970    3.3572 C   0  0  0  0  0  0  0  0  0  0  0  0
   -1.4944   -5.5187    4.6364 C   0  0  0  0  0  0  0  0  0  0  0  0
   -2.1196   -4.3128    4.9719 C   0  0  0  0  0  0  0  0  0  0  0  0
   -2.6678   -1.4713    5.7331 C   0  0  0  0  0  0  0  0  0  0  0  0
   -1.4470   -1.5928    6.4238 C   0  0  0  0  0  0  0  0  0  0  0  0
   -1.3345   -1.1456    7.7449 C   0  0  0  0  0  0  0  0  0  0  0  0
   -2.4322   -0.5651    8.3844 C   0  0  0  0  0  0  0  0  0  0  0  0
   -3.6381   -0.4113    7.7023 C   0  0  0  0  0  0  0  0  0  0  0  0
   -3.7632   -0.8692    6.3872 C   0  0  0  0  0  0  0  0  0  0  0  0
   -5.0123   -1.8118    3.2264 C   0  0  0  0  0  0  0  0  0  0  0  0
   -5.7752   -3.2866    3.4378 S   0  0  0  0  0  0  0  0  0  0  0  0
   -2.0590    0.1630    2.3227 C   0  0  0  0  0  0  0  0  0  0  0  0
   -1.6328    0.1177    0.9868 C   0  0  0  0  0  0  0  0  0  0  0  0
   -2.4820    0.2013   -0.1683 N   0  0  0  0  0  0  0  0  0  0  0  0
   -2.9814    1.4844   -0.6078 C   0  0  0  0  0  0  0  0  0  0  0  0
   -2.2610    2.6677   -0.3549 C   0  0  0  0  0  0  0  0  0  0  0  0
   -2.7496    3.9008   -0.7896 C   0  0  0  0  0  0  0  0  0  0  0  0
   -3.9711    3.9735   -1.4698 C   0  0  0  0  0  0  0  0  0  0  0  0
   -4.5815    5.5567   -2.0454 S   0  0  0  0  0  0  0  0  0  0  0  0
   -5.4285    5.9376   -0.4814 C   0  0  0  0  0  0  0  0  0  0  0  0
   -4.7012    2.8053   -1.7165 C   0  0  0  0  0  0  0  0  0  0  0  0
   -4.2085    1.5690   -1.2943 C   0  0  0  0  0  0  0  0  0  0  0  0
   -2.5415   -0.9354   -1.0445 C   0  0  0  0  0  0  0  0  0  0  0  0
   -2.9455   -2.1831   -0.5487 C   0  0  0  0  0  0  0  0  0  0  0  0
   -2.9318   -3.3109   -1.3725 C   0  0  0  0  0  0  0  0  0  0  0  0
   -2.5257   -3.1998   -2.7073 C   0  0  0  0  0  0  0  0  0  0  0  0
   -2.4661   -4.6549   -3.7467 S   0  0  0  0  0  0  0  0  0  0  0  0
   -0.7168   -4.9913   -3.3573 C   0  0  0  0  0  0  0  0  0  0  0  0
   -2.1475   -1.9529   -3.2193 C   0  0  0  0  0  0  0  0  0  0  0  0
   -2.1515   -0.8265   -2.3916 C   0  0  0  0  0  0  0  0  0  0  0  0
   -0.2560    0.1141    0.8986 C   0  0  0  0  0  0  0  0  0  0  0  0
    0.7882    0.1290   -0.3871 S   0  0  0  0  0  0  0  0  0  0  0  0
    2.1952    0.2693    0.5570 C   0  0  0  0  0  0  0  0  0  0  0  0
    1.8166    0.3532    1.9264 C   0  0  0  0  0  0  0  0  0  0  0  0
    2.6653    0.7620    3.0176 N   0  0  0  0  0  0  0  0  0  0  0  0
    3.2866    2.0653    2.9990 C   0  0  0  0  0  0  0  0  0  0  0  0
    4.5085    2.2683    3.6626 C   0  0  0  0  0  0  0  0  0  0  0  0
    5.0940    3.5383    3.6923 C   0  0  0  0  0  0  0  0  0  0  0  0
    4.4673    4.6182    3.0628 C   0  0  0  0  0  0  0  0  0  0  0  0
    5.2104    6.2499    3.1186 S   0  0  0  0  0  0  0  0  0  0  0  0
    4.3011    6.7518    4.6146 C   0  0  0  0  0  0  0  0  0  0  0  0
    3.2565    4.4209    2.3914 C   0  0  0  0  0  0  0  0  0  0  0  0
    2.6585    3.1576    2.3714 C   0  0  0  0  0  0  0  0  0  0  0  0
    2.5500    0.0703    4.2764 C   0  0  0  0  0  0  0  0  0  0  0  0
    2.8878   -1.2874    4.3717 C   0  0  0  0  0  0  0  0  0  0  0  0
    2.8267   -1.9399    5.6093 C   0  0  0  0  0  0  0  0  0  0  0  0
    2.4045   -1.2460    6.7513 C   0  0  0  0  0  0  0  0  0  0  0  0
    2.3591   -2.0757    8.3400 S   0  0  0  0  0  0  0  0  0  0  0  0
    3.9513   -1.3812    8.8897 C   0  0  0  0  0  0  0  0  0  0  0  0
    2.0169    0.0941    6.6486 C   0  0  0  0  0  0  0  0  0  0  0  0
    2.1036    0.7536    5.4216 C   0  0  0  0  0  0  0  0  0  0  0  0
    0.4270    0.2150    2.0607 C   0  0  0  0  0  0  0  0  0  0  0  0
   -0.6807    0.2482    3.3355 S   0  0  0  0  0  0  0  0  0  0  0  0
    3.5216    0.3972   -0.0821 C   0  0  0  0  0  0  0  0  0  0  0  0
    3.8617   -0.2691   -1.2825 C   0  0  0  0  0  0  0  0  0  0  0  0
    3.1256   -1.3791   -1.8303 N   0  0  0  0  0  0  0  0  0  0  0  0
    3.1226   -2.6301   -1.1168 C   0  0  0  0  0  0  0  0  0  0  0  0
    1.9257   -3.3374   -0.9210 C   0  0  0  0  0  0  0  0  0  0  0  0
    1.9395   -4.5797   -0.2761 C   0  0  0  0  0  0  0  0  0  0  0  0
    3.1453   -5.1210    0.1863 C   0  0  0  0  0  0  0  0  0  0  0  0
    3.1720   -6.7320    0.9752 S   0  0  0  0  0  0  0  0  0  0  0  0
    2.8691   -6.0669    2.6442 C   0  0  0  0  0  0  0  0  0  0  0  0
    4.3397   -4.4205   -0.0076 C   0  0  0  0  0  0  0  0  0  0  0  0
    4.3286   -3.1766   -0.6498 C   0  0  0  0  0  0  0  0  0  0  0  0
    2.4791   -1.2579   -3.1211 C   0  0  0  0  0  0  0  0  0  0  0  0
    1.9151   -0.0315   -3.5231 C   0  0  0  0  0  0  0  0  0  0  0  0
    1.3119    0.1006   -4.7750 C   0  0  0  0  0  0  0  0  0  0  0  0
    1.3040   -0.9727   -5.6669 C   0  0  0  0  0  0  0  0  0  0  0  0
    0.6020   -0.7663   -7.3046 S   0  0  0  0  0  0  0  0  0  0  0  0
    2.1011    0.0360   -7.9644 C   0  0  0  0  0  0  0  0  0  0  0  0
    1.8669   -2.1965   -5.2860 C   0  0  0  0  0  0  0  0  0  0  0  0
    2.4399   -2.3438   -4.0166 C   0  0  0  0  0  0  0  0  0  0  0  0
    4.8335    0.4200   -2.0036 C   0  0  0  0  0  0  0  0  0  0  0  0
    5.3695    0.3261   -3.5887 S   0  0  0  0  0  0  0  0  0  0  0  0
    6.1843    1.8243   -3.5610 C   0  0  0  0  0  0  0  0  0  0  0  0
    6.0334    2.3864   -2.2742 C   0  0  0  0  0  0  0  0  0  0  0  0
    6.5845    3.6440   -1.8480 N   0  0  0  0  0  0  0  0  0  0  0  0
    5.7029    4.7505   -1.5408 C   0  0  0  0  0  0  0  0  0  0  0  0
    4.4857    4.9102   -2.2313 C   0  0  0  0  0  0  0  0  0  0  0  0
    3.6588    6.0108   -1.9688 C   0  0  0  0  0  0  0  0  0  0  0  0
    4.0426    6.9737   -1.0298 C   0  0  0  0  0  0  0  0  0  0  0  0
    3.0388    8.4425   -0.7729 S   0  0  0  0  0  0  0  0  0  0  0  0
    2.2037    7.7761    0.7038 C   0  0  0  0  0  0  0  0  0  0  0  0
    5.2423    6.8181   -0.3316 C   0  0  0  0  0  0  0  0  0  0  0  0
    6.0504    5.7012   -0.5617 C   0  0  0  0  0  0  0  0  0  0  0  0
    8.0043    3.7235   -1.5876 C   0  0  0  0  0  0  0  0  0  0  0  0
    8.7345    4.8703   -1.9532 C   0  0  0  0  0  0  0  0  0  0  0  0
   10.0861    4.9875   -1.6155 C   0  0  0  0  0  0  0  0  0  0  0  0
   10.7270    3.9523   -0.9288 C   0  0  0  0  0  0  0  0  0  0  0  0
   12.4469    4.1180   -0.4493 S   0  0  0  0  0  0  0  0  0  0  0  0
   12.0432    4.7413    1.2142 C   0  0  0  0  0  0  0  0  0  0  0  0
   10.0210    2.7919   -0.5992 C   0  0  0  0  0  0  0  0  0  0  0  0
    8.6685    2.6743   -0.9301 C   0  0  0  0  0  0  0  0  0  0  0  0
    5.2665    1.5731   -1.4452 C   0  0  0  0  0  0  0  0  0  0  0  0
    4.4675    1.8182    0.0057 S   0  0  0  0  0  0  0  0  0  0  0  0
    6.6944    2.4716   -4.7897 C   0  0  0  0  0  0  0  0  0  0  0  0
    7.0113    3.8171   -4.9705 C   0  0  0  0  0  0  0  0  0  0  0  0
    7.2812    4.1593   -6.3028 C   0  0  0  0  0  0  0  0  0  0  0  0
    7.1743    3.0952   -7.1981 C   0  0  0  0  0  0  0  0  0  0  0  0
    7.2552    3.2079   -8.6846 C   0  0  0  0  0  0  0  0  0  0  0  0
    7.5265    2.1604   -9.5065 C   0  0  0  0  0  0  0  0  0  0  0  0
    7.8455    0.8446   -9.0153 C   0  0  0  0  0  0  0  0  0  0  0  0
    8.0994   -0.2134   -8.6234 N   0  0  0  0  0  0  0  0  0  0  0  0
    7.5596    2.3231  -10.9435 C   0  0  0  0  0  0  0  0  0  0  0  0
    7.5922    2.4517  -12.0947 N   0  0  0  0  0  0  0  0  0  0  0  0
    7.0276    4.5239   -9.2562 C   0  0  0  0  0  0  0  0  0  0  0  0
    6.8537    5.5729   -9.7136 N   0  0  0  0  0  0  0  0  0  0  0  0
    6.7211    1.7390   -6.3041 S   0  0  0  0  0  0  0  0  0  0  0  0
  -11.2243   -4.5931    0.9852 H   0  0  0  0  0  0  0  0  0  0  0  0
   -9.8286   -2.5428    1.6905 H   0  0  0  0  0  0  0  0  0  0  0  0
   -7.3444    0.8505   -1.1621 H   0  0  0  0  0  0  0  0  0  0  0  0
   -8.2245    3.1475   -1.0385 H   0  0  0  0  0  0  0  0  0  0  0  0
   -9.4662    3.9138    0.9699 H   0  0  0  0  0  0  0  0  0  0  0  0
   -9.8096    2.3618    2.8734 H   0  0  0  0  0  0  0  0  0  0  0  0
   -8.9404    0.0512    2.7766 H   0  0  0  0  0  0  0  0  0  0  0  0
   -5.6771   -2.7260   -0.2587 H   0  0  0  0  0  0  0  0  0  0  0  0
   -5.6956   -3.8857   -2.4297 H   0  0  0  0  0  0  0  0  0  0  0  0
   -7.6550   -3.6812   -3.9332 H   0  0  0  0  0  0  0  0  0  0  0  0
   -9.6070   -2.3164   -3.2479 H   0  0  0  0  0  0  0  0  0  0  0  0
   -9.6045   -1.1446   -1.0781 H   0  0  0  0  0  0  0  0  0  0  0  0
   -1.6704   -2.6584    2.0287 H   0  0  0  0  0  0  0  0  0  0  0  0
   -0.6419   -4.8082    1.4261 H   0  0  0  0  0  0  0  0  0  0  0  0
   -0.4914   -6.6302    3.0958 H   0  0  0  0  0  0  0  0  0  0  0  0
   -1.4175   -6.3096    5.3723 H   0  0  0  0  0  0  0  0  0  0  0  0
   -2.5358   -4.1991    5.9657 H   0  0  0  0  0  0  0  0  0  0  0  0
   -0.5820   -2.0377    5.9431 H   0  0  0  0  0  0  0  0  0  0  0  0
   -0.4064   -1.2660    8.2795 H   0  0  0  0  0  0  0  0  0  0  0  0
   -2.3440   -0.2319    9.4104 H   0  0  0  0  0  0  0  0  0  0  0  0
   -4.4902    0.0379    8.2004 H   0  0  0  0  0  0  0  0  0  0  0  0
   -4.7198   -0.7739    5.8894 H   0  0  0  0  0  0  0  0  0  0  0  0
   -1.3103    2.6422    0.1649 H   0  0  0  0  0  0  0  0  0  0  0  0
   -2.1788    4.8027   -0.5995 H   0  0  0  0  0  0  0  0  0  0  0  0
   -5.8687    6.9565   -0.5415 H   0  0  0  0  0  0  0  0  0  0  0  0
   -6.2394    5.2031   -0.3008 H   0  0  0  0  0  0  0  0  0  0  0  0
   -4.7081    5.9159    0.3615 H   0  0  0  0  0  0  0  0  0  0  0  0
   -5.6491    2.8548   -2.2360 H   0  0  0  0  0  0  0  0  0  0  0  0
   -4.7832    0.6717   -1.4891 H   0  0  0  0  0  0  0  0  0  0  0  0
   -3.2935   -2.2765    0.4711 H   0  0  0  0  0  0  0  0  0  0  0  0
   -3.2450   -4.2697   -0.9746 H   0  0  0  0  0  0  0  0  0  0  0  0
   -0.3896   -5.8932   -3.9138 H   0  0  0  0  0  0  0  0  0  0  0  0
   -0.5987   -5.1735   -2.2677 H   0  0  0  0  0  0  0  0  0  0  0  0
   -0.0875   -4.1285   -3.6602 H   0  0  0  0  0  0  0  0  0  0  0  0
   -1.8345   -1.8597   -4.2522 H   0  0  0  0  0  0  0  0  0  0  0  0
   -1.8272    0.1276   -2.7914 H   0  0  0  0  0  0  0  0  0  0  0  0
    5.0013    1.4412    4.1572 H   0  0  0  0  0  0  0  0  0  0  0  0
    6.0302    3.6802    4.2157 H   0  0  0  0  0  0  0  0  0  0  0  0
    4.5492    6.0672    5.4546 H   0  0  0  0  0  0  0  0  0  0  0  0
    3.2049    6.7345    4.4263 H   0  0  0  0  0  0  0  0  0  0  0  0
    4.6006    7.7859    4.8868 H   0  0  0  0  0  0  0  0  0  0  0  0
    2.7688    5.2457    1.9023 H   0  0  0  0  0  0  0  0  0  0  0  0
    1.7073    3.0416    1.8670 H   0  0  0  0  0  0  0  0  0  0  0  0
    3.2222   -1.8298    3.4958 H   0  0  0  0  0  0  0  0  0  0  0  0
    3.1106   -2.9814    5.6803 H   0  0  0  0  0  0  0  0  0  0  0  0
    4.7650   -1.7078    8.2078 H   0  0  0  0  0  0  0  0  0  0  0  0
    3.8964   -0.2714    8.9058 H   0  0  0  0  0  0  0  0  0  0  0  0
    4.1712   -1.7421    9.9155 H   0  0  0  0  0  0  0  0  0  0  0  0
    1.6718    0.6331    7.5211 H   0  0  0  0  0  0  0  0  0  0  0  0
    1.8175    1.7958    5.3564 H   0  0  0  0  0  0  0  0  0  0  0  0
    0.9870   -2.9306   -1.2766 H   0  0  0  0  0  0  0  0  0  0  0  0
    1.0151   -5.1231   -0.1458 H   0  0  0  0  0  0  0  0  0  0  0  0
    1.8713   -5.5833    2.6791 H   0  0  0  0  0  0  0  0  0  0  0  0
    2.8919   -6.9024    3.3756 H   0  0  0  0  0  0  0  0  0  0  0  0
    3.6524   -5.3282    2.9185 H   0  0  0  0  0  0  0  0  0  0  0  0
    5.2794   -4.8453    0.3252 H   0  0  0  0  0  0  0  0  0  0  0  0
    5.2651   -2.6559   -0.8111 H   0  0  0  0  0  0  0  0  0  0  0  0
    1.9504    0.8322   -2.8735 H   0  0  0  0  0  0  0  0  0  0  0  0
    0.8867    1.0544   -5.0617 H   0  0  0  0  0  0  0  0  0  0  0  0
    2.2827    0.9973   -7.4339 H   0  0  0  0  0  0  0  0  0  0  0  0
    2.9848   -0.6286   -7.8395 H   0  0  0  0  0  0  0  0  0  0  0  0
    1.9612    0.2448   -9.0434 H   0  0  0  0  0  0  0  0  0  0  0  0
    1.8709   -3.0292   -5.9762 H   0  0  0  0  0  0  0  0  0  0  0  0
    2.8876   -3.2938   -3.7523 H   0  0  0  0  0  0  0  0  0  0  0  0
    4.1842    4.1989   -2.9898 H   0  0  0  0  0  0  0  0  0  0  0  0
    2.7344    6.1275   -2.5227 H   0  0  0  0  0  0  0  0  0  0  0  0
    1.6678    6.8398    0.4467 H   0  0  0  0  0  0  0  0  0  0  0  0
    2.9489    7.5871    1.5031 H   0  0  0  0  0  0  0  0  0  0  0  0
    1.4708    8.5224    1.0742 H   0  0  0  0  0  0  0  0  0  0  0  0
    5.5517    7.5653    0.3892 H   0  0  0  0  0  0  0  0  0  0  0  0
    6.9559    5.5960    0.0205 H   0  0  0  0  0  0  0  0  0  0  0  0
    8.2513    5.6871   -2.4719 H   0  0  0  0  0  0  0  0  0  0  0  0
   10.6296    5.8862   -1.8828 H   0  0  0  0  0  0  0  0  0  0  0  0
   11.5186    3.9574    1.8050 H   0  0  0  0  0  0  0  0  0  0  0  0
   11.3941    5.6396    1.1427 H   0  0  0  0  0  0  0  0  0  0  0  0
   12.9807    5.0162    1.7392 H   0  0  0  0  0  0  0  0  0  0  0  0
   10.5126    1.9880   -0.0662 H   0  0  0  0  0  0  0  0  0  0  0  0
    8.1287    1.7860   -0.6305 H   0  0  0  0  0  0  0  0  0  0  0  0
    6.9855    4.5586   -4.1913 H   0  0  0  0  0  0  0  0  0  0  0  0
    7.5005    5.1750   -6.6058 H   0  0  0  0  0  0  0  0  0  0  0  0
  1  2  3  0
  2  3  1  0
  3  4  1  0
  4  5  3  0
  3  6  2  3
  6  7  1  0
  7  8  3  0
  6  9  1  0
  9 10  2  0
 10 11  1  0
 11 12  2  0
 12 13  1  0
 12 14  1  0
 14 15  2  0
 15 16  1  0
 16 17  1  0
 17 18  2  0
 18 19  1  0
 19 20  2  0
 20 21  1  0
 21 22  2  0
 16 23  1  0
 23 24  2  0
 24 25  1  0
 25 26  2  0
 26 27  1  0
 27 28  2  0
 15 29  1  0
 29 30  1  0
 30 31  1  0
 31 32  2  0
 32 33  1  0
 33 34  1  0
 34 35  2  0
 35 36  1  0
 36 37  2  0
 37 38  1  0
 38 39  2  0
 33 40  1  0
 40 41  2  0
 41 42  1  0
 42 43  2  0
 43 44  1  0
 44 45  2  0
 32 46  1  0
 46 47  1  0
 31 48  1  0
 48 49  2  0
 49 50  1  0
 50 51  1  0
 51 52  2  0
 52 53  1  0
 53 54  2  0
 54 55  1  0
 55 56  1  0
 54 57  1  0
 57 58  2  0
 50 59  1  0
 59 60  2  0
 60 61  1  0
 61 62  2  0
 62 63  1  0
 63 64  1  0
 62 65  1  0
 65 66  2  0
 49 67  1  0
 67 68  1  0
 68 69  1  0
 69 70  2  0
 70 71  1  0
 71 72  1  0
 72 73  2  0
 73 74  1  0
 74 75  2  0
 75 76  1  0
 76 77  1  0
 75 78  1  0
 78 79  2  0
 71 80  1  0
 80 81  2  0
 81 82  1  0
 82 83  2  0
 83 84  1  0
 84 85  1  0
 83 86  1  0
 86 87  2  0
 70 88  1  0
 88 89  1  0
 69 90  1  0
 90 91  2  0
 91 92  1  0
 92 93  1  0
 93 94  2  0
 94 95  1  0
 95 96  2  0
 96 97  1  0
 97 98  1  0
 96 99  1  0
 99100  2  0
 92101  1  0
101102  2  0
102103  1  0
103104  2  0
104105  1  0
105106  1  0
104107  1  0
107108  2  0
 91109  1  0
109110  1  0
110111  1  0
111112  2  0
112113  1  0
113114  1  0
114115  2  0
115116  1  0
116117  2  0
117118  1  0
118119  1  0
117120  1  0
120121  2  0
113122  1  0
122123  2  0
123124  1  0
124125  2  0
125126  1  0
126127  1  0
125128  1  0
128129  2  0
112130  1  0
130131  1  0
111132  1  0
132133  2  0
133134  1  0
134135  2  0
135136  1  0
136137  2  3
137138  1  0
138139  3  0
137140  1  0
140141  3  0
136142  1  0
142143  3  0
135144  1  0
 13  9  1  0
 47 14  1  0
 89 48  1  0
131 90  1  0
144132  1  0
 22 17  1  0
 28 23  1  0
 46 29  2  0
 58 51  1  0
 66 59  1  0
 88 67  2  0
100 93  1  0
108101  1  0
130109  2  0
 39 34  1  0
 45 40  1  0
 79 72  1  0
 87 80  1  0
121114  1  0
129122  1  0
 10145  1  0
 11146  1  0
 18147  1  0
 19148  1  0
 20149  1  0
 21150  1  0
 22151  1  0
 24152  1  0
 25153  1  0
 26154  1  0
 27155  1  0
 28156  1  0
 35157  1  0
 36158  1  0
 37159  1  0
 38160  1  0
 39161  1  0
 41162  1  0
 42163  1  0
 43164  1  0
 44165  1  0
 45166  1  0
 52167  1  0
 53168  1  0
 56169  1  0
 56170  1  0
 56171  1  0
 57172  1  0
 58173  1  0
 60174  1  0
 61175  1  0
 64176  1  0
 64177  1  0
 64178  1  0
 65179  1  0
 66180  1  0
 73181  1  0
 74182  1  0
 77183  1  0
 77184  1  0
 77185  1  0
 78186  1  0
 79187  1  0
 81188  1  0
 82189  1  0
 85190  1  0
 85191  1  0
 85192  1  0
 86193  1  0
 87194  1  0
 94195  1  0
 95196  1  0
 98197  1  0
 98198  1  0
 98199  1  0
 99200  1  0
100201  1  0
102202  1  0
103203  1  0
106204  1  0
106205  1  0
106206  1  0
107207  1  0
108208  1  0
115209  1  0
116210  1  0
119211  1  0
119212  1  0
119213  1  0
120214  1  0
121215  1  0
123216  1  0
124217  1  0
127218  1  0
127219  1  0
127220  1  0
128221  1  0
129222  1  0
133223  1  0
134224  1  0
M  END

