
     RDKit          3D

198215  0  0  0  0  0  0  0  0999 V2000
    5.6243   -2.3664    1.0691 C   0  0  0  0  0  0  0  0  0  0  0  0
    4.6928   -3.0013    1.8103 C   0  0  0  0  0  0  0  0  0  0  0  0
    3.3357   -2.5079    2.1146 C   0  0  0  0  0  0  0  0  0  0  0  0
    2.7052   -1.6203    1.4815 O   0  0  0  0  0  0  0  0  0  0  0  0
    2.7342   -3.3941    3.0835 C   0  0  0  0  0  0  0  0  0  0  0  0
    1.1405   -3.9064    3.1286 S   0  0  0  0  0  0  0  0  0  0  0  0
    1.4972   -5.5029    3.5406 C   0  0  0  0  0  0  0  0  0  0  0  0
    0.3085   -6.9022    3.1428 Br  0  0  0  0  0  0  0  0  0  0  0  0
    2.8873   -5.6590    3.5474 C   0  0  0  0  0  0  0  0  0  0  0  0
    3.5752   -4.4564    3.3128 C   0  0  0  0  0  0  0  0  0  0  0  0
    4.8503   -4.2649    2.5899 C   0  0  0  0  0  0  0  0  0  0  0  0
    5.8242   -5.1953    2.4808 C   0  0  0  0  0  0  0  0  0  0  0  0
    6.5149   -5.3826    1.2273 C   0  0  0  0  0  0  0  0  0  0  0  0
    6.9799   -5.5835    0.1927 N   0  0  0  0  0  0  0  0  0  0  0  0
    5.9566   -6.2181    3.4828 C   0  0  0  0  0  0  0  0  0  0  0  0
    6.0498   -7.0145    4.3201 N   0  0  0  0  0  0  0  0  0  0  0  0
    5.3485   -1.0957    0.3844 C   0  0  0  0  0  0  0  0  0  0  0  0
    4.9691    0.1015    1.0109 C   0  0  0  0  0  0  0  0  0  0  0  0
    5.5114    0.5860    2.2540 N   0  0  0  0  0  0  0  0  0  0  0  0
    6.1966    1.8613    2.2572 C   0  0  0  0  0  0  0  0  0  0  0  0
    6.9529    2.2684    1.1353 C   0  0  0  0  0  0  0  0  0  0  0  0
    7.7397    3.4209    1.1974 C   0  0  0  0  0  0  0  0  0  0  0  0
    7.8089    4.1605    2.3756 C   0  0  0  0  0  0  0  0  0  0  0  0
    8.8946    5.5906    2.4640 S   0  0  0  0  0  0  0  0  0  0  0  0
   10.3723    4.6446    2.9610 C   0  0  0  0  0  0  0  0  0  0  0  0
    7.0468    3.7838    3.4839 C   0  0  0  0  0  0  0  0  0  0  0  0
    6.2493    2.6332    3.4304 C   0  0  0  0  0  0  0  0  0  0  0  0
    5.8083   -0.3074    3.3408 C   0  0  0  0  0  0  0  0  0  0  0  0
    4.8652   -0.5058    4.3640 C   0  0  0  0  0  0  0  0  0  0  0  0
    5.2417   -1.1445    5.5439 C   0  0  0  0  0  0  0  0  0  0  0  0
    6.5463   -1.6407    5.6941 C   0  0  0  0  0  0  0  0  0  0  0  0
    7.1047   -2.2675    7.2903 S   0  0  0  0  0  0  0  0  0  0  0  0
    6.4725   -3.9571    7.0255 C   0  0  0  0  0  0  0  0  0  0  0  0
    7.4611   -1.5234    4.6428 C   0  0  0  0  0  0  0  0  0  0  0  0
    7.0997   -0.8394    3.4791 C   0  0  0  0  0  0  0  0  0  0  0  0
    4.2600    0.9164    0.1285 C   0  0  0  0  0  0  0  0  0  0  0  0
    3.1014    2.0924    0.3855 S   0  0  0  0  0  0  0  0  0  0  0  0
    2.4584    2.0654   -1.1979 C   0  0  0  0  0  0  0  0  0  0  0  0
    3.2521    1.1663   -1.9568 C   0  0  0  0  0  0  0  0  0  0  0  0
    3.3444    1.2141   -3.4012 N   0  0  0  0  0  0  0  0  0  0  0  0
    3.2441    2.4948   -4.0588 C   0  0  0  0  0  0  0  0  0  0  0  0
    3.9084    3.6164   -3.5359 C   0  0  0  0  0  0  0  0  0  0  0  0
    3.8145    4.8577   -4.1735 C   0  0  0  0  0  0  0  0  0  0  0  0
    3.0564    4.9904   -5.3398 C   0  0  0  0  0  0  0  0  0  0  0  0
    2.9259    6.5776   -6.1531 S   0  0  0  0  0  0  0  0  0  0  0  0
    1.5228    7.1367   -5.1349 C   0  0  0  0  0  0  0  0  0  0  0  0
    2.4060    3.8733   -5.8829 C   0  0  0  0  0  0  0  0  0  0  0  0
    2.5087    2.6290   -5.2495 C   0  0  0  0  0  0  0  0  0  0  0  0
    3.7589    0.0560   -4.1555 C   0  0  0  0  0  0  0  0  0  0  0  0
    3.1269   -1.1860   -3.9706 C   0  0  0  0  0  0  0  0  0  0  0  0
    3.5888   -2.3207   -4.6449 C   0  0  0  0  0  0  0  0  0  0  0  0
    4.6860   -2.2246   -5.5115 C   0  0  0  0  0  0  0  0  0  0  0  0
    5.3197   -3.6910   -6.3299 S   0  0  0  0  0  0  0  0  0  0  0  0
    6.5370   -4.0892   -5.0299 C   0  0  0  0  0  0  0  0  0  0  0  0
    5.2932   -0.9806   -5.7339 C   0  0  0  0  0  0  0  0  0  0  0  0
    4.8336    0.1539   -5.0575 C   0  0  0  0  0  0  0  0  0  0  0  0
    4.1840    0.4915   -1.1530 C   0  0  0  0  0  0  0  0  0  0  0  0
    4.9051   -1.0234   -1.2627 S   0  0  0  0  0  0  0  0  0  0  0  0
    1.0191    2.4005   -1.4800 C   0  0  0  0  0  0  0  0  0  0  0  0
    0.2475    1.5623   -2.3135 C   0  0  0  0  0  0  0  0  0  0  0  0
    0.8064    0.6640   -3.1584 F   0  0  0  0  0  0  0  0  0  0  0  0
   -1.1371    1.5149   -2.1910 C   0  0  0  0  0  0  0  0  0  0  0  0
   -1.7916    0.5566   -2.8980 F   0  0  0  0  0  0  0  0  0  0  0  0
   -1.8029    2.3037   -1.2455 C   0  0  0  0  0  0  0  0  0  0  0  0
   -1.0826    3.3128   -0.5868 C   0  0  0  0  0  0  0  0  0  0  0  0
   -1.7168    4.2242    0.1989 N   0  0  0  0  0  0  0  0  0  0  0  0
   -1.0372    5.1701    0.9004 C   0  0  0  0  0  0  0  0  0  0  0  0
   -1.8375    6.1475    1.7281 C   0  0  0  0  0  0  0  0  0  0  0  0
   -2.0557    7.4557    0.9785 C   0  0  0  0  0  0  0  0  0  0  0  0
    0.3777    5.1997    0.8162 C   0  0  0  0  0  0  0  0  0  0  0  0
    1.0082    4.2878    0.0240 N   0  0  0  0  0  0  0  0  0  0  0  0
    0.3313    3.3529   -0.6900 C   0  0  0  0  0  0  0  0  0  0  0  0
    1.1935    6.1833    1.6247 C   0  0  0  0  0  0  0  0  0  0  0  0
    2.6973    6.0707    1.3560 C   0  0  0  0  0  0  0  0  0  0  0  0
   -3.1117    1.8225   -0.7308 C   0  0  0  0  0  0  0  0  0  0  0  0
   -3.1644    1.0774    0.4628 C   0  0  0  0  0  0  0  0  0  0  0  0
   -2.8894    1.6594    1.7518 N   0  0  0  0  0  0  0  0  0  0  0  0
   -1.5539    1.8331    2.2769 C   0  0  0  0  0  0  0  0  0  0  0  0
   -1.2780    2.9093    3.1449 C   0  0  0  0  0  0  0  0  0  0  0  0
   -0.0066    3.0867    3.6861 C   0  0  0  0  0  0  0  0  0  0  0  0
    1.0226    2.1870    3.3791 C   0  0  0  0  0  0  0  0  0  0  0  0
    2.3788    2.3951    3.9660 C   0  0  0  0  0  0  0  0  0  0  0  0
    0.7458    1.0837    2.5567 C   0  0  0  0  0  0  0  0  0  0  0  0
   -0.5254    0.9203    1.9813 C   0  0  0  0  0  0  0  0  0  0  0  0
   -4.0178    2.1198    2.5235 C   0  0  0  0  0  0  0  0  0  0  0  0
   -4.2200    1.6603    3.8308 C   0  0  0  0  0  0  0  0  0  0  0  0
   -5.3089    2.1142    4.5691 C   0  0  0  0  0  0  0  0  0  0  0  0
   -6.2154    3.0232    4.0125 C   0  0  0  0  0  0  0  0  0  0  0  0
   -7.3683    3.5287    4.8250 C   0  0  0  0  0  0  0  0  0  0  0  0
   -6.0155    3.4921    2.7061 C   0  0  0  0  0  0  0  0  0  0  0  0
   -4.9248    3.0344    1.9583 C   0  0  0  0  0  0  0  0  0  0  0  0
   -4.0759    0.0322    0.3689 C   0  0  0  0  0  0  0  0  0  0  0  0
   -4.2914   -1.3484    1.2872 S   0  0  0  0  0  0  0  0  0  0  0  0
   -5.4139   -2.0398    0.2066 C   0  0  0  0  0  0  0  0  0  0  0  0
   -5.6823   -1.1355   -0.8436 C   0  0  0  0  0  0  0  0  0  0  0  0
   -6.6878   -1.3542   -1.8692 N   0  0  0  0  0  0  0  0  0  0  0  0
   -7.9207   -2.0132   -1.5306 C   0  0  0  0  0  0  0  0  0  0  0  0
   -8.6965   -1.5378   -0.4629 C   0  0  0  0  0  0  0  0  0  0  0  0
   -9.7973   -2.2697   -0.0043 C   0  0  0  0  0  0  0  0  0  0  0  0
  -10.1380   -3.4841   -0.6185 C   0  0  0  0  0  0  0  0  0  0  0  0
  -11.2951   -4.2823   -0.0998 C   0  0  0  0  0  0  0  0  0  0  0  0
   -9.3951   -3.9311   -1.7242 C   0  0  0  0  0  0  0  0  0  0  0  0
   -8.2966   -3.1998   -2.1790 C   0  0  0  0  0  0  0  0  0  0  0  0
   -6.5874   -0.7556   -3.1742 C   0  0  0  0  0  0  0  0  0  0  0  0
   -7.0514    0.5510   -3.3932 C   0  0  0  0  0  0  0  0  0  0  0  0
   -6.9517    1.1279   -4.6569 C   0  0  0  0  0  0  0  0  0  0  0  0
   -6.4272    0.3867   -5.7329 C   0  0  0  0  0  0  0  0  0  0  0  0
   -6.3024    1.0101   -7.0911 C   0  0  0  0  0  0  0  0  0  0  0  0
   -5.9956   -0.9345   -5.5196 C   0  0  0  0  0  0  0  0  0  0  0  0
   -6.0834   -1.5014   -4.2454 C   0  0  0  0  0  0  0  0  0  0  0  0
   -4.8415   -0.0141   -0.7508 C   0  0  0  0  0  0  0  0  0  0  0  0
   -4.3333    1.2201   -1.7706 S   0  0  0  0  0  0  0  0  0  0  0  0
   -5.9467   -3.3997    0.3479 C   0  0  0  0  0  0  0  0  0  0  0  0
   -5.2052   -4.5297    0.3625 C   0  0  0  0  0  0  0  0  0  0  0  0
   -5.7158   -5.7733    0.9589 C   0  0  0  0  0  0  0  0  0  0  0  0
   -6.8956   -6.0078    1.3583 O   0  0  0  0  0  0  0  0  0  0  0  0
   -4.5896   -6.6442    1.1459 C   0  0  0  0  0  0  0  0  0  0  0  0
   -4.3831   -8.2420    1.6025 S   0  0  0  0  0  0  0  0  0  0  0  0
   -2.7342   -8.2230    1.1791 C   0  0  0  0  0  0  0  0  0  0  0  0
   -1.5676   -9.7296    1.2996 Br  0  0  0  0  0  0  0  0  0  0  0  0
   -2.3678   -6.9801    0.6618 C   0  0  0  0  0  0  0  0  0  0  0  0
   -3.4520   -6.0928    0.6620 C   0  0  0  0  0  0  0  0  0  0  0  0
   -3.7308   -4.7443    0.1010 C   0  0  0  0  0  0  0  0  0  0  0  0
   -2.8532   -4.0189   -0.6350 C   0  0  0  0  0  0  0  0  0  0  0  0
   -3.2700   -3.0795   -1.6460 C   0  0  0  0  0  0  0  0  0  0  0  0
   -3.5753   -2.3665   -2.5011 N   0  0  0  0  0  0  0  0  0  0  0  0
   -1.4381   -4.2860   -0.6044 C   0  0  0  0  0  0  0  0  0  0  0  0
   -0.3003   -4.4895   -0.6093 N   0  0  0  0  0  0  0  0  0  0  0  0
    6.5954   -2.8003    0.9237 H   0  0  0  0  0  0  0  0  0  0  0  0
    3.3395   -6.6373    3.5173 H   0  0  0  0  0  0  0  0  0  0  0  0
    6.9610    1.6789    0.2260 H   0  0  0  0  0  0  0  0  0  0  0  0
    8.3259    3.7062    0.3307 H   0  0  0  0  0  0  0  0  0  0  0  0
   11.2383    5.0174    2.3789 H   0  0  0  0  0  0  0  0  0  0  0  0
   10.5673    4.8094    4.0420 H   0  0  0  0  0  0  0  0  0  0  0  0
   10.2727    3.5556    2.7668 H   0  0  0  0  0  0  0  0  0  0  0  0
    7.0965    4.3493    4.4073 H   0  0  0  0  0  0  0  0  0  0  0  0
    5.6801    2.3485    4.3028 H   0  0  0  0  0  0  0  0  0  0  0  0
    3.8754   -0.0874    4.2766 H   0  0  0  0  0  0  0  0  0  0  0  0
    4.5462   -1.2017    6.3729 H   0  0  0  0  0  0  0  0  0  0  0  0
    5.3646   -3.9541    7.1544 H   0  0  0  0  0  0  0  0  0  0  0  0
    6.9319   -4.6228    7.7908 H   0  0  0  0  0  0  0  0  0  0  0  0
    6.7404   -4.3337    6.0092 H   0  0  0  0  0  0  0  0  0  0  0  0
    8.4773   -1.8905    4.7558 H   0  0  0  0  0  0  0  0  0  0  0  0
    7.8394   -0.6736    2.7027 H   0  0  0  0  0  0  0  0  0  0  0  0
    4.5093    3.5329   -2.6348 H   0  0  0  0  0  0  0  0  0  0  0  0
    4.3336    5.7078   -3.7637 H   0  0  0  0  0  0  0  0  0  0  0  0
    1.1951    8.1361   -5.4892 H   0  0  0  0  0  0  0  0  0  0  0  0
    1.8335    7.2197   -4.0723 H   0  0  0  0  0  0  0  0  0  0  0  0
    0.6737    6.4302   -5.2254 H   0  0  0  0  0  0  0  0  0  0  0  0
    1.8356    3.9566   -6.8001 H   0  0  0  0  0  0  0  0  0  0  0  0
    2.0017    1.7677   -5.6748 H   0  0  0  0  0  0  0  0  0  0  0  0
    2.3046   -1.2860   -3.2683 H   0  0  0  0  0  0  0  0  0  0  0  0
    3.1032   -3.2721   -4.4749 H   0  0  0  0  0  0  0  0  0  0  0  0
    7.5511   -4.1373   -5.4835 H   0  0  0  0  0  0  0  0  0  0  0  0
    6.2853   -5.0816   -4.6006 H   0  0  0  0  0  0  0  0  0  0  0  0
    6.5533   -3.3364   -4.2081 H   0  0  0  0  0  0  0  0  0  0  0  0
    6.1325   -0.8946   -6.4038 H   0  0  0  0  0  0  0  0  0  0  0  0
    5.3337    1.1046   -5.2102 H   0  0  0  0  0  0  0  0  0  0  0  0
   -1.3470    6.3353    2.7015 H   0  0  0  0  0  0  0  0  0  0  0  0
   -2.8219    5.6926    1.9509 H   0  0  0  0  0  0  0  0  0  0  0  0
   -1.1964    8.1471    1.1496 H   0  0  0  0  0  0  0  0  0  0  0  0
   -2.1605    7.2945   -0.1203 H   0  0  0  0  0  0  0  0  0  0  0  0
   -2.9771    7.9603    1.3521 H   0  0  0  0  0  0  0  0  0  0  0  0
    1.0219    6.0065    2.7090 H   0  0  0  0  0  0  0  0  0  0  0  0
    0.8913    7.2206    1.3815 H   0  0  0  0  0  0  0  0  0  0  0  0
    2.9110    6.2586    0.2769 H   0  0  0  0  0  0  0  0  0  0  0  0
    3.0706    5.0595    1.6326 H   0  0  0  0  0  0  0  0  0  0  0  0
    3.2439    6.8270    1.9639 H   0  0  0  0  0  0  0  0  0  0  0  0
   -2.0521    3.6279    3.4001 H   0  0  0  0  0  0  0  0  0  0  0  0
    0.1738    3.9316    4.3374 H   0  0  0  0  0  0  0  0  0  0  0  0
    3.1675    1.9915    3.2946 H   0  0  0  0  0  0  0  0  0  0  0  0
    2.5872    3.4768    4.1131 H   0  0  0  0  0  0  0  0  0  0  0  0
    2.4415    1.8779    4.9482 H   0  0  0  0  0  0  0  0  0  0  0  0
    1.5217    0.3623    2.3505 H   0  0  0  0  0  0  0  0  0  0  0  0
   -0.7078    0.0691    1.3395 H   0  0  0  0  0  0  0  0  0  0  0  0
   -3.5217    0.9630    4.2690 H   0  0  0  0  0  0  0  0  0  0  0  0
   -5.4463    1.7546    5.5824 H   0  0  0  0  0  0  0  0  0  0  0  0
   -8.1314    4.0266    4.1885 H   0  0  0  0  0  0  0  0  0  0  0  0
   -7.8588    2.6857    5.3583 H   0  0  0  0  0  0  0  0  0  0  0  0
   -6.9981    4.2636    5.5695 H   0  0  0  0  0  0  0  0  0  0  0  0
   -6.6936    4.2143    2.2584 H   0  0  0  0  0  0  0  0  0  0  0  0
   -4.7749    3.4147    0.9566 H   0  0  0  0  0  0  0  0  0  0  0  0
   -8.4154   -0.6253    0.0576 H   0  0  0  0  0  0  0  0  0  0  0  0
  -10.3611   -1.9089    0.8512 H   0  0  0  0  0  0  0  0  0  0  0  0
  -12.2446   -3.7940   -0.3894 H   0  0  0  0  0  0  0  0  0  0  0  0
  -11.2831   -5.3171   -0.5034 H   0  0  0  0  0  0  0  0  0  0  0  0
  -11.2430   -4.3476    1.0037 H   0  0  0  0  0  0  0  0  0  0  0  0
   -9.6449   -4.8599   -2.2175 H   0  0  0  0  0  0  0  0  0  0  0  0
   -7.6948   -3.5872   -2.9936 H   0  0  0  0  0  0  0  0  0  0  0  0
   -7.4470    1.1249   -2.5598 H   0  0  0  0  0  0  0  0  0  0  0  0
   -7.2743    2.1486   -4.7937 H   0  0  0  0  0  0  0  0  0  0  0  0
   -5.2436    1.2605   -7.2815 H   0  0  0  0  0  0  0  0  0  0  0  0
   -6.9044    1.9372   -7.1657 H   0  0  0  0  0  0  0  0  0  0  0  0
   -6.6557    0.2982   -7.8640 H   0  0  0  0  0  0  0  0  0  0  0  0
   -5.5971   -1.5153   -6.3382 H   0  0  0  0  0  0  0  0  0  0  0  0
   -5.7561   -2.5319   -4.0995 H   0  0  0  0  0  0  0  0  0  0  0  0
   -6.9929   -3.4800    0.5701 H   0  0  0  0  0  0  0  0  0  0  0  0
   -1.3861   -6.7870    0.2808 H   0  0  0  0  0  0  0  0  0  0  0  0
  1  2  2  3
  2  3  1  0
  3  4  2  0
  3  5  1  0
  5  6  1  0
  6  7  1  0
  7  8  1  0
  7  9  2  0
  9 10  1  0
 10 11  1  0
 11 12  2  3
 12 13  1  0
 13 14  3  0
 12 15  1  0
 15 16  3  0
  1 17  1  0
 17 18  2  0
 18 19  1  0
 19 20  1  0
 20 21  2  0
 21 22  1  0
 22 23  2  0
 23 24  1  0
 24 25  1  0
 23 26  1  0
 26 27  2  0
 19 28  1  0
 28 29  2  0
 29 30  1  0
 30 31  2  0
 31 32  1  0
 32 33  1  0
 31 34  1  0
 34 35  2  0
 18 36  1  0
 36 37  1  0
 37 38  1  0
 38 39  2  0
 39 40  1  0
 40 41  1  0
 41 42  2  0
 42 43  1  0
 43 44  2  0
 44 45  1  0
 45 46  1  0
 44 47  1  0
 47 48  2  0
 40 49  1  0
 49 50  2  0
 50 51  1  0
 51 52  2  0
 52 53  1  0
 53 54  1  0
 52 55  1  0
 55 56  2  0
 39 57  1  0
 57 58  1  0
 38 59  1  0
 59 60  2  0
 60 61  1  0
 60 62  1  0
 62 63  1  0
 62 64  2  0
 64 65  1  0
 65 66  2  0
 66 67  1  0
 67 68  1  0
 68 69  1  0
 67 70  2  0
 70 71  1  0
 71 72  2  0
 70 73  1  0
 73 74  1  0
 64 75  1  0
 75 76  2  0
 76 77  1  0
 77 78  1  0
 78 79  2  0
 79 80  1  0
 80 81  2  0
 81 82  1  0
 81 83  1  0
 83 84  2  0
 77 85  1  0
 85 86  2  0
 86 87  1  0
 87 88  2  0
 88 89  1  0
 88 90  1  0
 90 91  2  0
 76 92  1  0
 92 93  1  0
 93 94  1  0
 94 95  2  0
 95 96  1  0
 96 97  1  0
 97 98  2  0
 98 99  1  0
 99100  2  0
100101  1  0
100102  1  0
102103  2  0
 96104  1  0
104105  2  0
105106  1  0
106107  2  0
107108  1  0
107109  1  0
109110  2  0
 95111  1  0
111112  1  0
 94113  1  0
113114  2  3
114115  1  0
115116  2  0
115117  1  0
117118  1  0
118119  1  0
119120  1  0
119121  2  0
121122  1  0
122123  1  0
123124  2  3
124125  1  0
125126  3  0
124127  1  0
127128  3  0
 11  2  1  0
 58 17  1  0
 72 59  1  0
112 75  1  0
123114  1  0
 10  5  2  0
 27 20  1  0
 35 28  1  0
 57 36  2  0
 72 65  1  0
 84 78  1  0
 91 85  1  0
111 92  2  0
122117  2  0
 48 41  1  0
 56 49  1  0
103 97  1  0
110104  1  0
  1129  1  0
  9130  1  0
 21131  1  0
 22132  1  0
 25133  1  0
 25134  1  0
 25135  1  0
 26136  1  0
 27137  1  0
 29138  1  0
 30139  1  0
 33140  1  0
 33141  1  0
 33142  1  0
 34143  1  0
 35144  1  0
 42145  1  0
 43146  1  0
 46147  1  0
 46148  1  0
 46149  1  0
 47150  1  0
 48151  1  0
 50152  1  0
 51153  1  0
 54154  1  0
 54155  1  0
 54156  1  0
 55157  1  0
 56158  1  0
 68159  1  0
 68160  1  0
 69161  1  0
 69162  1  0
 69163  1  0
 73164  1  0
 73165  1  0
 74166  1  0
 74167  1  0
 74168  1  0
 79169  1  0
 80170  1  0
 82171  1  0
 82172  1  0
 82173  1  0
 83174  1  0
 84175  1  0
 86176  1  0
 87177  1  0
 89178  1  0
 89179  1  0
 89180  1  0
 90181  1  0
 91182  1  0
 98183  1  0
 99184  1  0
101185  1  0
101186  1  0
101187  1  0
102188  1  0
103189  1  0
105190  1  0
106191  1  0
108192  1  0
108193  1  0
108194  1  0
109195  1  0
110196  1  0
113197  1  0
121198  1  0
M  END

