
     RDKit          3D

114125  0  0  0  0  0  0  0  0999 V2000
   -2.0042    8.7996   -0.1959 C   0  0  0  0  0  0  0  0  0  0  0  0
   -1.3631    9.0500    0.9577 C   0  0  0  0  0  0  0  0  0  0  0  0
   -1.9674    9.9333    1.9780 C   0  0  0  0  0  0  0  0  0  0  0  0
   -2.7326   10.9116    1.7689 O   0  0  0  0  0  0  0  0  0  0  0  0
   -1.6310    9.3723    3.2663 C   0  0  0  0  0  0  0  0  0  0  0  0
   -2.0907    9.5907    4.8619 S   0  0  0  0  0  0  0  0  0  0  0  0
   -1.1850    8.2474    5.3961 C   0  0  0  0  0  0  0  0  0  0  0  0
   -1.0764    7.6703    7.2153 Br  0  0  0  0  0  0  0  0  0  0  0  0
   -0.5388    7.6342    4.3190 C   0  0  0  0  0  0  0  0  0  0  0  0
   -0.8403    8.2812    3.1211 C   0  0  0  0  0  0  0  0  0  0  0  0
   -0.4865    8.0974    1.7066 C   0  0  0  0  0  0  0  0  0  0  0  0
    0.6873    7.6004    1.2614 C   0  0  0  0  0  0  0  0  0  0  0  0
    1.1684    7.8924   -0.0709 C   0  0  0  0  0  0  0  0  0  0  0  0
    1.5805    8.1280   -1.1309 N   0  0  0  0  0  0  0  0  0  0  0  0
    1.6505    6.9937    2.1590 C   0  0  0  0  0  0  0  0  0  0  0  0
    2.4459    6.5333    2.8654 N   0  0  0  0  0  0  0  0  0  0  0  0
   -2.5210    7.4393   -0.4781 C   0  0  0  0  0  0  0  0  0  0  0  0
   -1.7291    6.4387   -1.0942 C   0  0  0  0  0  0  0  0  0  0  0  0
   -2.3058    5.1718   -1.3056 C   0  0  0  0  0  0  0  0  0  0  0  0
   -1.7199    4.0586   -1.8186 N   0  0  0  0  0  0  0  0  0  0  0  0
   -0.3893    3.9607   -2.4207 C   0  0  0  0  0  0  0  0  0  0  0  0
   -0.4448    4.4144   -3.8714 C   0  0  0  0  0  0  0  0  0  0  0  0
   -2.6761    3.0966   -1.7509 C   0  0  0  0  0  0  0  0  0  0  0  0
   -3.8467    3.5932   -1.2108 C   0  0  0  0  0  0  0  0  0  0  0  0
   -3.6085    4.9168   -0.9240 C   0  0  0  0  0  0  0  0  0  0  0  0
   -4.4105    5.8784   -0.3194 C   0  0  0  0  0  0  0  0  0  0  0  0
   -3.8591    7.1518   -0.1096 C   0  0  0  0  0  0  0  0  0  0  0  0
   -4.9692    2.7914   -0.9977 C   0  0  0  0  0  0  0  0  0  0  0  0
   -4.8601    1.4228   -1.2967 C   0  0  0  0  0  0  0  0  0  0  0  0
   -3.6560    0.8894   -1.8211 C   0  0  0  0  0  0  0  0  0  0  0  0
   -2.5661    1.7422   -2.0963 C   0  0  0  0  0  0  0  0  0  0  0  0
   -3.4365   -0.5692   -1.8267 C   0  0  0  0  0  0  0  0  0  0  0  0
   -3.3915   -1.2426   -0.5968 C   0  0  0  0  0  0  0  0  0  0  0  0
   -3.7124   -0.5998    0.5565 F   0  0  0  0  0  0  0  0  0  0  0  0
   -2.8756   -2.5355   -0.5182 C   0  0  0  0  0  0  0  0  0  0  0  0
   -2.7259   -3.1004    0.7069 F   0  0  0  0  0  0  0  0  0  0  0  0
   -2.4020   -3.1881   -1.6665 C   0  0  0  0  0  0  0  0  0  0  0  0
   -2.5601   -2.5709   -2.9249 C   0  0  0  0  0  0  0  0  0  0  0  0
   -2.2023   -3.2108   -4.0704 N   0  0  0  0  0  0  0  0  0  0  0  0
   -2.3739   -2.6458   -5.3038 C   0  0  0  0  0  0  0  0  0  0  0  0
   -1.9225   -3.4322   -6.5049 C   0  0  0  0  0  0  0  0  0  0  0  0
   -0.4494   -3.1569   -6.8020 C   0  0  0  0  0  0  0  0  0  0  0  0
   -2.8685   -1.3193   -5.3796 C   0  0  0  0  0  0  0  0  0  0  0  0
   -3.2074   -0.6778   -4.2269 N   0  0  0  0  0  0  0  0  0  0  0  0
   -3.0773   -1.2602   -3.0083 C   0  0  0  0  0  0  0  0  0  0  0  0
   -3.1191   -0.6022   -6.6788 C   0  0  0  0  0  0  0  0  0  0  0  0
   -4.5342   -0.8683   -7.1776 C   0  0  0  0  0  0  0  0  0  0  0  0
   -1.4758   -4.3224   -1.4665 C   0  0  0  0  0  0  0  0  0  0  0  0
   -0.1049   -4.0054   -1.3965 C   0  0  0  0  0  0  0  0  0  0  0  0
    0.7337   -4.8326   -0.6476 C   0  0  0  0  0  0  0  0  0  0  0  0
    1.9664   -4.5136   -0.1707 N   0  0  0  0  0  0  0  0  0  0  0  0
    2.7295   -3.2926   -0.4576 C   0  0  0  0  0  0  0  0  0  0  0  0
    3.4455   -3.4248   -1.7909 C   0  0  0  0  0  0  0  0  0  0  0  0
    2.2367   -5.4662    0.7611 C   0  0  0  0  0  0  0  0  0  0  0  0
    1.2100   -6.3896    0.8495 C   0  0  0  0  0  0  0  0  0  0  0  0
    0.2456   -5.9821   -0.0505 C   0  0  0  0  0  0  0  0  0  0  0  0
   -1.0817   -6.3882   -0.2022 C   0  0  0  0  0  0  0  0  0  0  0  0
   -1.9498   -5.5399   -0.9153 C   0  0  0  0  0  0  0  0  0  0  0  0
    1.1639   -7.3603    1.8535 C   0  0  0  0  0  0  0  0  0  0  0  0
    2.1844   -7.3479    2.8220 C   0  0  0  0  0  0  0  0  0  0  0  0
    3.2083   -6.3761    2.7758 C   0  0  0  0  0  0  0  0  0  0  0  0
    3.2748   -5.4603    1.7020 C   0  0  0  0  0  0  0  0  0  0  0  0
    4.1183   -6.2070    3.9232 C   0  0  0  0  0  0  0  0  0  0  0  0
    4.1154   -5.0942    4.6835 C   0  0  0  0  0  0  0  0  0  0  0  0
    3.0556   -4.0497    4.6732 C   0  0  0  0  0  0  0  0  0  0  0  0
    2.0437   -3.9977    3.9309 O   0  0  0  0  0  0  0  0  0  0  0  0
    3.3110   -3.1805    5.7882 C   0  0  0  0  0  0  0  0  0  0  0  0
    2.4783   -1.9591    6.5714 S   0  0  0  0  0  0  0  0  0  0  0  0
    3.5883   -1.9313    7.8609 C   0  0  0  0  0  0  0  0  0  0  0  0
    3.4297   -0.7916    9.3820 Br  0  0  0  0  0  0  0  0  0  0  0  0
    4.5831   -2.8969    7.6845 C   0  0  0  0  0  0  0  0  0  0  0  0
    4.3987   -3.5877    6.4844 C   0  0  0  0  0  0  0  0  0  0  0  0
    5.0305   -4.7545    5.8310 C   0  0  0  0  0  0  0  0  0  0  0  0
    6.2645   -5.2474    6.1013 C   0  0  0  0  0  0  0  0  0  0  0  0
    6.8952   -6.2527    5.2937 C   0  0  0  0  0  0  0  0  0  0  0  0
    7.4125   -7.0538    4.6385 N   0  0  0  0  0  0  0  0  0  0  0  0
    7.0776   -4.6838    7.1468 C   0  0  0  0  0  0  0  0  0  0  0  0
    7.7369   -4.2373    7.9851 N   0  0  0  0  0  0  0  0  0  0  0  0
   -2.6656    9.5763   -0.5507 H   0  0  0  0  0  0  0  0  0  0  0  0
    0.0930    6.7636    4.3983 H   0  0  0  0  0  0  0  0  0  0  0  0
   -0.7166    6.6387   -1.4078 H   0  0  0  0  0  0  0  0  0  0  0  0
    0.3321    4.5894   -1.8574 H   0  0  0  0  0  0  0  0  0  0  0  0
   -0.0202    2.9135   -2.3655 H   0  0  0  0  0  0  0  0  0  0  0  0
    0.5492    4.2856   -4.3434 H   0  0  0  0  0  0  0  0  0  0  0  0
   -0.7291    5.4848   -3.9219 H   0  0  0  0  0  0  0  0  0  0  0  0
   -1.1893    3.8082   -4.4321 H   0  0  0  0  0  0  0  0  0  0  0  0
   -5.4143    5.6506   -0.0013 H   0  0  0  0  0  0  0  0  0  0  0  0
   -4.4644    7.9116    0.3709 H   0  0  0  0  0  0  0  0  0  0  0  0
   -5.8741    3.1964   -0.5641 H   0  0  0  0  0  0  0  0  0  0  0  0
   -5.7022    0.7689   -1.0826 H   0  0  0  0  0  0  0  0  0  0  0  0
   -1.6301    1.3334   -2.4498 H   0  0  0  0  0  0  0  0  0  0  0  0
   -2.5404   -3.1976   -7.3900 H   0  0  0  0  0  0  0  0  0  0  0  0
   -2.0495   -4.5167   -6.2915 H   0  0  0  0  0  0  0  0  0  0  0  0
   -0.0590   -3.9245   -7.4993 H   0  0  0  0  0  0  0  0  0  0  0  0
   -0.3307   -2.1576   -7.2623 H   0  0  0  0  0  0  0  0  0  0  0  0
    0.1331   -3.1867   -5.8592 H   0  0  0  0  0  0  0  0  0  0  0  0
   -2.9887    0.4888   -6.5181 H   0  0  0  0  0  0  0  0  0  0  0  0
   -2.3803   -0.8962   -7.4491 H   0  0  0  0  0  0  0  0  0  0  0  0
   -4.6650   -1.9432   -7.4306 H   0  0  0  0  0  0  0  0  0  0  0  0
   -4.7185   -0.2720   -8.0927 H   0  0  0  0  0  0  0  0  0  0  0  0
   -5.2746   -0.5854   -6.4028 H   0  0  0  0  0  0  0  0  0  0  0  0
    0.2463   -3.0422   -1.7484 H   0  0  0  0  0  0  0  0  0  0  0  0
    2.0425   -2.4206   -0.4826 H   0  0  0  0  0  0  0  0  0  0  0  0
    3.4709   -3.0797    0.3398 H   0  0  0  0  0  0  0  0  0  0  0  0
    4.0023   -2.4913   -2.0032 H   0  0  0  0  0  0  0  0  0  0  0  0
    2.7133   -3.5943   -2.6079 H   0  0  0  0  0  0  0  0  0  0  0  0
    4.1652   -4.2698   -1.7562 H   0  0  0  0  0  0  0  0  0  0  0  0
   -1.4615   -7.2632    0.3095 H   0  0  0  0  0  0  0  0  0  0  0  0
   -3.0097   -5.7637   -0.9360 H   0  0  0  0  0  0  0  0  0  0  0  0
    0.3352   -8.0460    1.9330 H   0  0  0  0  0  0  0  0  0  0  0  0
    2.1420   -8.0487    3.6494 H   0  0  0  0  0  0  0  0  0  0  0  0
    4.0442   -4.6998    1.6895 H   0  0  0  0  0  0  0  0  0  0  0  0
    4.7709   -7.0349    4.1582 H   0  0  0  0  0  0  0  0  0  0  0  0
    5.3502   -3.1018    8.4141 H   0  0  0  0  0  0  0  0  0  0  0  0
  1  2  2  3
  2  3  1  0
  3  4  2  0
  3  5  1  0
  5  6  1  0
  6  7  1  0
  7  8  1  0
  7  9  2  0
  9 10  1  0
 10 11  1  0
 11 12  2  3
 12 13  1  0
 13 14  3  0
 12 15  1  0
 15 16  3  0
  1 17  1  0
 17 18  2  0
 18 19  1  0
 19 20  1  0
 20 21  1  0
 21 22  1  0
 20 23  1  0
 23 24  2  0
 24 25  1  0
 25 26  1  0
 26 27  2  0
 24 28  1  0
 28 29  2  0
 29 30  1  0
 30 31  2  0
 30 32  1  0
 32 33  2  0
 33 34  1  0
 33 35  1  0
 35 36  1  0
 35 37  2  0
 37 38  1  0
 38 39  2  0
 39 40  1  0
 40 41  1  0
 41 42  1  0
 40 43  2  0
 43 44  1  0
 44 45  2  0
 43 46  1  0
 46 47  1  0
 37 48  1  0
 48 49  2  0
 49 50  1  0
 50 51  1  0
 51 52  1  0
 52 53  1  0
 51 54  1  0
 54 55  2  0
 55 56  1  0
 56 57  1  0
 57 58  2  0
 55 59  1  0
 59 60  2  0
 60 61  1  0
 61 62  2  0
 61 63  1  0
 63 64  2  3
 64 65  1  0
 65 66  2  0
 65 67  1  0
 67 68  1  0
 68 69  1  0
 69 70  1  0
 69 71  2  0
 71 72  1  0
 72 73  1  0
 73 74  2  3
 74 75  1  0
 75 76  3  0
 74 77  1  0
 77 78  3  0
 11  2  1  0
 27 17  1  0
 45 32  1  0
 58 48  1  0
 73 64  1  0
 10  5  2  0
 25 19  2  0
 45 38  1  0
 56 50  2  0
 72 67  2  0
 31 23  1  0
 62 54  1  0
  1 79  1  0
  9 80  1  0
 18 81  1  0
 21 82  1  0
 21 83  1  0
 22 84  1  0
 22 85  1  0
 22 86  1  0
 26 87  1  0
 27 88  1  0
 28 89  1  0
 29 90  1  0
 31 91  1  0
 41 92  1  0
 41 93  1  0
 42 94  1  0
 42 95  1  0
 42 96  1  0
 46 97  1  0
 46 98  1  0
 47 99  1  0
 47100  1  0
 47101  1  0
 49102  1  0
 52103  1  0
 52104  1  0
 53105  1  0
 53106  1  0
 53107  1  0
 57108  1  0
 58109  1  0
 59110  1  0
 60111  1  0
 62112  1  0
 63113  1  0
 71114  1  0
M  END

