
     RDKit          3D

248269  0  0  0  0  0  0  0  0999 V2000
    4.0755   -7.5794    4.6942 C   0  0  0  0  0  0  0  0  0  0  0  0
    5.1741   -7.7016    5.4636 C   0  0  0  0  0  0  0  0  0  0  0  0
    5.1440   -8.5522    6.6703 C   0  0  0  0  0  0  0  0  0  0  0  0
    4.3696   -9.5214    6.8899 O   0  0  0  0  0  0  0  0  0  0  0  0
    6.0391   -7.9559    7.6278 C   0  0  0  0  0  0  0  0  0  0  0  0
    6.2591   -8.0345    9.2906 S   0  0  0  0  0  0  0  0  0  0  0  0
    7.2178   -6.6258    9.3165 C   0  0  0  0  0  0  0  0  0  0  0  0
    7.8349   -6.0467   10.5511 C   0  0  0  0  0  0  0  0  0  0  0  0
    7.3460   -6.0929    8.0277 C   0  0  0  0  0  0  0  0  0  0  0  0
    6.6458   -6.8663    7.0999 C   0  0  0  0  0  0  0  0  0  0  0  0
    6.2862   -6.7224    5.6787 C   0  0  0  0  0  0  0  0  0  0  0  0
    7.1215   -6.2559    4.7268 C   0  0  0  0  0  0  0  0  0  0  0  0
    8.3035   -5.5027    5.0659 C   0  0  0  0  0  0  0  0  0  0  0  0
    9.2593   -4.9072    5.3286 N   0  0  0  0  0  0  0  0  0  0  0  0
    6.9674   -6.6436    3.3468 C   0  0  0  0  0  0  0  0  0  0  0  0
    6.8475   -6.9540    2.2385 N   0  0  0  0  0  0  0  0  0  0  0  0
    3.5563   -6.3136    4.1216 C   0  0  0  0  0  0  0  0  0  0  0  0
    2.1878   -6.0717    3.8919 C   0  0  0  0  0  0  0  0  0  0  0  0
    1.1800   -7.0901    3.8094 N   0  0  0  0  0  0  0  0  0  0  0  0
    0.0485   -6.9757    4.6869 C   0  0  0  0  0  0  0  0  0  0  0  0
    0.2291   -7.0056    6.0777 C   0  0  0  0  0  0  0  0  0  0  0  0
   -0.8599   -6.8206    6.9336 C   0  0  0  0  0  0  0  0  0  0  0  0
   -2.1330   -6.5770    6.4022 C   0  0  0  0  0  0  0  0  0  0  0  0
   -3.5209   -6.2694    7.4934 S   0  0  0  0  0  0  0  0  0  0  0  0
   -3.1641   -4.4894    7.6396 C   0  0  0  0  0  0  0  0  0  0  0  0
   -2.3173   -6.5453    5.0156 C   0  0  0  0  0  0  0  0  0  0  0  0
   -1.2332   -6.7472    4.1579 C   0  0  0  0  0  0  0  0  0  0  0  0
    1.1764   -8.0218    2.6971 C   0  0  0  0  0  0  0  0  0  0  0  0
    0.4594   -9.2327    2.7807 C   0  0  0  0  0  0  0  0  0  0  0  0
    0.4553  -10.1317    1.7111 C   0  0  0  0  0  0  0  0  0  0  0  0
    1.1749   -9.8435    0.5445 C   0  0  0  0  0  0  0  0  0  0  0  0
    1.2164  -11.0202   -0.8073 S   0  0  0  0  0  0  0  0  0  0  0  0
   -0.1614  -10.2480   -1.7144 C   0  0  0  0  0  0  0  0  0  0  0  0
    1.8938   -8.6471    0.4519 C   0  0  0  0  0  0  0  0  0  0  0  0
    1.8973   -7.7433    1.5160 C   0  0  0  0  0  0  0  0  0  0  0  0
    1.9512   -4.7494    3.5214 C   0  0  0  0  0  0  0  0  0  0  0  0
    0.6001   -3.9066    3.0258 S   0  0  0  0  0  0  0  0  0  0  0  0
    1.4554   -2.5077    2.5526 C   0  0  0  0  0  0  0  0  0  0  0  0
    2.8334   -2.7265    2.7919 C   0  0  0  0  0  0  0  0  0  0  0  0
    3.9104   -1.9623    2.2138 N   0  0  0  0  0  0  0  0  0  0  0  0
    5.0821   -1.7268    3.0189 C   0  0  0  0  0  0  0  0  0  0  0  0
    6.3395   -2.1899    2.5922 C   0  0  0  0  0  0  0  0  0  0  0  0
    7.4562   -2.0500    3.4183 C   0  0  0  0  0  0  0  0  0  0  0  0
    7.3364   -1.4295    4.6674 C   0  0  0  0  0  0  0  0  0  0  0  0
    8.7797   -1.2434    5.7157 S   0  0  0  0  0  0  0  0  0  0  0  0
    9.2855    0.3276    4.9447 C   0  0  0  0  0  0  0  0  0  0  0  0
    6.0869   -0.9677    5.0972 C   0  0  0  0  0  0  0  0  0  0  0  0
    4.9625   -1.1195    4.2806 C   0  0  0  0  0  0  0  0  0  0  0  0
    3.9357   -1.7064    0.7886 C   0  0  0  0  0  0  0  0  0  0  0  0
    4.6278   -0.5916    0.2797 C   0  0  0  0  0  0  0  0  0  0  0  0
    4.5952   -0.2985   -1.0870 C   0  0  0  0  0  0  0  0  0  0  0  0
    3.8627   -1.1064   -1.9584 C   0  0  0  0  0  0  0  0  0  0  0  0
    3.7740   -0.7015   -3.7016 S   0  0  0  0  0  0  0  0  0  0  0  0
    5.1419   -1.8138   -4.1553 C   0  0  0  0  0  0  0  0  0  0  0  0
    3.1880   -2.2249   -1.4728 C   0  0  0  0  0  0  0  0  0  0  0  0
    3.2284   -2.5315   -0.1126 C   0  0  0  0  0  0  0  0  0  0  0  0
    3.0492   -3.9765    3.3793 C   0  0  0  0  0  0  0  0  0  0  0  0
    4.4043   -4.8716    3.7869 S   0  0  0  0  0  0  0  0  0  0  0  0
    0.8086   -1.3021    1.9753 C   0  0  0  0  0  0  0  0  0  0  0  0
   -0.5249   -1.2157    1.5336 C   0  0  0  0  0  0  0  0  0  0  0  0
   -1.3518   -2.3480    1.2239 N   0  0  0  0  0  0  0  0  0  0  0  0
   -0.9869   -3.1947    0.1071 C   0  0  0  0  0  0  0  0  0  0  0  0
   -1.1280   -4.5929    0.1908 C   0  0  0  0  0  0  0  0  0  0  0  0
   -0.7379   -5.4107   -0.8740 C   0  0  0  0  0  0  0  0  0  0  0  0
   -0.2231   -4.8460   -2.0444 C   0  0  0  0  0  0  0  0  0  0  0  0
    0.2275   -5.8982   -3.4263 S   0  0  0  0  0  0  0  0  0  0  0  0
    1.9715   -6.0470   -2.9295 C   0  0  0  0  0  0  0  0  0  0  0  0
   -0.0866   -3.4576   -2.1438 C   0  0  0  0  0  0  0  0  0  0  0  0
   -0.4477   -2.6380   -1.0700 C   0  0  0  0  0  0  0  0  0  0  0  0
   -2.5451   -2.5916    1.9992 C   0  0  0  0  0  0  0  0  0  0  0  0
   -3.7068   -3.0972    1.3872 C   0  0  0  0  0  0  0  0  0  0  0  0
   -4.8476   -3.3677    2.1493 C   0  0  0  0  0  0  0  0  0  0  0  0
   -4.8467   -3.1288    3.5260 C   0  0  0  0  0  0  0  0  0  0  0  0
   -6.2891   -3.5380    4.5173 S   0  0  0  0  0  0  0  0  0  0  0  0
   -6.9782   -1.8560    4.4455 C   0  0  0  0  0  0  0  0  0  0  0  0
   -3.7088   -2.5885    4.1380 C   0  0  0  0  0  0  0  0  0  0  0  0
   -2.5668   -2.3205    3.3817 C   0  0  0  0  0  0  0  0  0  0  0  0
   -0.8330    0.0696    1.0907 C   0  0  0  0  0  0  0  0  0  0  0  0
   -2.1243    0.6909    0.2480 S   0  0  0  0  0  0  0  0  0  0  0  0
   -1.3642    2.1644   -0.1767 C   0  0  0  0  0  0  0  0  0  0  0  0
   -0.0341    2.1273    0.3286 C   0  0  0  0  0  0  0  0  0  0  0  0
    1.0535    3.0029   -0.0387 N   0  0  0  0  0  0  0  0  0  0  0  0
    1.8194    3.5355    1.0640 C   0  0  0  0  0  0  0  0  0  0  0  0
    1.1815    4.2935    2.0557 C   0  0  0  0  0  0  0  0  0  0  0  0
    1.8818    4.7261    3.1830 C   0  0  0  0  0  0  0  0  0  0  0  0
    3.2273    4.3812    3.3452 C   0  0  0  0  0  0  0  0  0  0  0  0
    4.1202    4.8898    4.8117 S   0  0  0  0  0  0  0  0  0  0  0  0
    3.6445    3.4138    5.7657 C   0  0  0  0  0  0  0  0  0  0  0  0
    3.8714    3.6142    2.3672 C   0  0  0  0  0  0  0  0  0  0  0  0
    3.1739    3.1887    1.2355 C   0  0  0  0  0  0  0  0  0  0  0  0
    1.5837    3.0268   -1.3966 C   0  0  0  0  0  0  0  0  0  0  0  0
    1.0776    2.1757   -2.4033 C   0  0  0  0  0  0  0  0  0  0  0  0
    1.5302    2.2821   -3.7253 C   0  0  0  0  0  0  0  0  0  0  0  0
    2.5127    3.2178   -4.0620 C   0  0  0  0  0  0  0  0  0  0  0  0
    2.9509    3.4997   -5.7824 S   0  0  0  0  0  0  0  0  0  0  0  0
    4.4266    2.4364   -5.7598 C   0  0  0  0  0  0  0  0  0  0  0  0
    3.0806    4.0107   -3.0641 C   0  0  0  0  0  0  0  0  0  0  0  0
    2.6217    3.9218   -1.7491 C   0  0  0  0  0  0  0  0  0  0  0  0
    0.1876    0.9550    1.0711 C   0  0  0  0  0  0  0  0  0  0  0  0
    1.5503    0.2164    1.7208 S   0  0  0  0  0  0  0  0  0  0  0  0
   -2.0348    3.1045   -1.1108 C   0  0  0  0  0  0  0  0  0  0  0  0
   -1.7777    4.4659   -1.4176 C   0  0  0  0  0  0  0  0  0  0  0  0
   -1.0247    5.3864   -0.6111 N   0  0  0  0  0  0  0  0  0  0  0  0
    0.1338    6.0647   -1.1718 C   0  0  0  0  0  0  0  0  0  0  0  0
    0.9761    6.8314   -0.3437 C   0  0  0  0  0  0  0  0  0  0  0  0
    2.0376    7.5621   -0.8837 C   0  0  0  0  0  0  0  0  0  0  0  0
    2.2900    7.5314   -2.2613 C   0  0  0  0  0  0  0  0  0  0  0  0
    3.3976    8.3532   -2.8535 C   0  0  0  0  0  0  0  0  0  0  0  0
    1.4666    6.7665   -3.0926 C   0  0  0  0  0  0  0  0  0  0  0  0
    0.4182    6.0195   -2.5544 C   0  0  0  0  0  0  0  0  0  0  0  0
   -1.8005    6.0383    0.4287 C   0  0  0  0  0  0  0  0  0  0  0  0
   -2.0350    7.4275    0.3804 C   0  0  0  0  0  0  0  0  0  0  0  0
   -2.8864    8.0424    1.3026 C   0  0  0  0  0  0  0  0  0  0  0  0
   -3.5349    7.2789    2.2809 C   0  0  0  0  0  0  0  0  0  0  0  0
   -4.5149    7.9233    3.2135 C   0  0  0  0  0  0  0  0  0  0  0  0
   -3.3244    5.8905    2.3235 C   0  0  0  0  0  0  0  0  0  0  0  0
   -2.4627    5.2787    1.4087 C   0  0  0  0  0  0  0  0  0  0  0  0
   -2.6739    4.9339   -2.3895 C   0  0  0  0  0  0  0  0  0  0  0  0
   -2.8613    6.3744   -3.2366 S   0  0  0  0  0  0  0  0  0  0  0  0
   -4.1997    5.8186   -4.1425 C   0  0  0  0  0  0  0  0  0  0  0  0
   -4.5185    4.5180   -3.7398 C   0  0  0  0  0  0  0  0  0  0  0  0
   -5.7822    3.8875   -3.9964 N   0  0  0  0  0  0  0  0  0  0  0  0
   -6.0238    3.1814   -5.2307 C   0  0  0  0  0  0  0  0  0  0  0  0
   -4.9940    2.4493   -5.8470 C   0  0  0  0  0  0  0  0  0  0  0  0
   -5.2421    1.7307   -7.0211 C   0  0  0  0  0  0  0  0  0  0  0  0
   -6.5184    1.7455   -7.6032 C   0  0  0  0  0  0  0  0  0  0  0  0
   -6.7969    0.9239   -8.8266 C   0  0  0  0  0  0  0  0  0  0  0  0
   -7.5470    2.4722   -6.9890 C   0  0  0  0  0  0  0  0  0  0  0  0
   -7.3009    3.1896   -5.8152 C   0  0  0  0  0  0  0  0  0  0  0  0
   -6.7526    3.8809   -2.9288 C   0  0  0  0  0  0  0  0  0  0  0  0
   -7.4006    2.6925   -2.5539 C   0  0  0  0  0  0  0  0  0  0  0  0
   -8.2612    2.6708   -1.4514 C   0  0  0  0  0  0  0  0  0  0  0  0
   -8.4772    3.8349   -0.6959 C   0  0  0  0  0  0  0  0  0  0  0  0
   -9.4065    3.8189    0.4847 C   0  0  0  0  0  0  0  0  0  0  0  0
   -7.8572    5.0304   -1.0846 C   0  0  0  0  0  0  0  0  0  0  0  0
   -6.9977    5.0515   -2.1881 C   0  0  0  0  0  0  0  0  0  0  0  0
   -3.6253    4.0584   -2.7785 C   0  0  0  0  0  0  0  0  0  0  0  0
   -3.4126    2.6090   -1.9967 S   0  0  0  0  0  0  0  0  0  0  0  0
   -4.5833    6.3875   -5.4386 C   0  0  0  0  0  0  0  0  0  0  0  0
   -3.9630    6.0133   -6.5764 C   0  0  0  0  0  0  0  0  0  0  0  0
   -2.7838    5.1161   -6.6520 C   0  0  0  0  0  0  0  0  0  0  0  0
   -2.2346    4.4738   -5.7181 O   0  0  0  0  0  0  0  0  0  0  0  0
   -2.2974    5.1758   -8.0013 C   0  0  0  0  0  0  0  0  0  0  0  0
   -0.8660    4.7510   -8.7536 S   0  0  0  0  0  0  0  0  0  0  0  0
   -1.2482    5.6366  -10.1577 C   0  0  0  0  0  0  0  0  0  0  0  0
   -0.3167    5.8256  -11.3053 C   0  0  0  0  0  0  0  0  0  0  0  0
   -2.4654    6.3094   -9.9914 C   0  0  0  0  0  0  0  0  0  0  0  0
   -3.0426    6.0146   -8.7531 C   0  0  0  0  0  0  0  0  0  0  0  0
   -4.1822    6.5418   -7.9666 C   0  0  0  0  0  0  0  0  0  0  0  0
   -5.2559    7.1940   -8.4707 C   0  0  0  0  0  0  0  0  0  0  0  0
   -6.4256    7.4852   -7.6807 C   0  0  0  0  0  0  0  0  0  0  0  0
   -7.3699    7.7250   -7.0543 N   0  0  0  0  0  0  0  0  0  0  0  0
   -5.3733    7.4764   -9.8796 C   0  0  0  0  0  0  0  0  0  0  0  0
   -5.4878    7.6844  -11.0130 N   0  0  0  0  0  0  0  0  0  0  0  0
    3.3462   -8.3810    4.7482 H   0  0  0  0  0  0  0  0  0  0  0  0
    7.9479   -4.9438   10.4491 H   0  0  0  0  0  0  0  0  0  0  0  0
    7.1802   -6.2580   11.4204 H   0  0  0  0  0  0  0  0  0  0  0  0
    8.8261   -6.5126   10.7212 H   0  0  0  0  0  0  0  0  0  0  0  0
    7.8591   -5.1722    7.8003 H   0  0  0  0  0  0  0  0  0  0  0  0
    1.2142   -7.1664    6.4921 H   0  0  0  0  0  0  0  0  0  0  0  0
   -0.7124   -6.8409    8.0015 H   0  0  0  0  0  0  0  0  0  0  0  0
   -2.3114   -4.3347    8.3332 H   0  0  0  0  0  0  0  0  0  0  0  0
   -4.0568   -3.9686    8.0409 H   0  0  0  0  0  0  0  0  0  0  0  0
   -2.9135   -4.0566    6.6499 H   0  0  0  0  0  0  0  0  0  0  0  0
   -3.2974   -6.3397    4.6012 H   0  0  0  0  0  0  0  0  0  0  0  0
   -1.3846   -6.6957    3.0861 H   0  0  0  0  0  0  0  0  0  0  0  0
   -0.0886   -9.4846    3.6789 H   0  0  0  0  0  0  0  0  0  0  0  0
   -0.0919  -11.0608    1.7933 H   0  0  0  0  0  0  0  0  0  0  0  0
   -0.2779  -10.7468   -2.6990 H   0  0  0  0  0  0  0  0  0  0  0  0
    0.0445   -9.1703   -1.8870 H   0  0  0  0  0  0  0  0  0  0  0  0
   -1.1034  -10.3589   -1.1382 H   0  0  0  0  0  0  0  0  0  0  0  0
    2.4575   -8.4220   -0.4442 H   0  0  0  0  0  0  0  0  0  0  0  0
    2.4604   -6.8273    1.4076 H   0  0  0  0  0  0  0  0  0  0  0  0
    6.4428   -2.6928    1.6388 H   0  0  0  0  0  0  0  0  0  0  0  0
    8.4159   -2.4208    3.0867 H   0  0  0  0  0  0  0  0  0  0  0  0
    9.5101    0.1682    3.8680 H   0  0  0  0  0  0  0  0  0  0  0  0
   10.1980    0.7065    5.4513 H   0  0  0  0  0  0  0  0  0  0  0  0
    8.4755    1.0804    5.0485 H   0  0  0  0  0  0  0  0  0  0  0  0
    5.9883   -0.4960    6.0659 H   0  0  0  0  0  0  0  0  0  0  0  0
    3.9993   -0.7729    4.6326 H   0  0  0  0  0  0  0  0  0  0  0  0
    5.1692    0.0686    0.9450 H   0  0  0  0  0  0  0  0  0  0  0  0
    5.1195    0.5721   -1.4602 H   0  0  0  0  0  0  0  0  0  0  0  0
    6.0366   -1.5980   -3.5337 H   0  0  0  0  0  0  0  0  0  0  0  0
    4.8328   -2.8724   -4.0103 H   0  0  0  0  0  0  0  0  0  0  0  0
    5.3997   -1.6530   -5.2218 H   0  0  0  0  0  0  0  0  0  0  0  0
    2.6291   -2.8552   -2.1474 H   0  0  0  0  0  0  0  0  0  0  0  0
    2.6973   -3.4099    0.2324 H   0  0  0  0  0  0  0  0  0  0  0  0
   -1.5247   -5.0458    1.0858 H   0  0  0  0  0  0  0  0  0  0  0  0
   -0.8469   -6.4848   -0.7882 H   0  0  0  0  0  0  0  0  0  0  0  0
    2.4728   -6.7881   -3.5855 H   0  0  0  0  0  0  0  0  0  0  0  0
    2.0481   -6.3872   -1.8762 H   0  0  0  0  0  0  0  0  0  0  0  0
    2.4803   -5.0688   -3.0457 H   0  0  0  0  0  0  0  0  0  0  0  0
    0.3085   -3.0107   -3.0495 H   0  0  0  0  0  0  0  0  0  0  0  0
   -0.3166   -1.5668   -1.1678 H   0  0  0  0  0  0  0  0  0  0  0  0
   -3.7300   -3.2825    0.3232 H   0  0  0  0  0  0  0  0  0  0  0  0
   -5.7278   -3.7776    1.6691 H   0  0  0  0  0  0  0  0  0  0  0  0
   -7.1833   -1.5792    3.3896 H   0  0  0  0  0  0  0  0  0  0  0  0
   -7.9255   -1.8248    5.0230 H   0  0  0  0  0  0  0  0  0  0  0  0
   -6.2635   -1.1314    4.8904 H   0  0  0  0  0  0  0  0  0  0  0  0
   -3.7118   -2.3777    5.1980 H   0  0  0  0  0  0  0  0  0  0  0  0
   -1.6928   -1.9248    3.8788 H   0  0  0  0  0  0  0  0  0  0  0  0
    0.1350    4.5352    1.9615 H   0  0  0  0  0  0  0  0  0  0  0  0
    1.3706    5.3077    3.9414 H   0  0  0  0  0  0  0  0  0  0  0  0
    3.7964    2.4900    5.1682 H   0  0  0  0  0  0  0  0  0  0  0  0
    4.2734    3.3519    6.6754 H   0  0  0  0  0  0  0  0  0  0  0  0
    2.5800    3.4901    6.0695 H   0  0  0  0  0  0  0  0  0  0  0  0
    4.9080    3.3302    2.4940 H   0  0  0  0  0  0  0  0  0  0  0  0
    3.6779    2.5637    0.5083 H   0  0  0  0  0  0  0  0  0  0  0  0
    0.3117    1.4458   -2.1884 H   0  0  0  0  0  0  0  0  0  0  0  0
    1.0908    1.6584   -4.4941 H   0  0  0  0  0  0  0  0  0  0  0  0
    5.0701    2.6695   -4.8843 H   0  0  0  0  0  0  0  0  0  0  0  0
    4.1190    1.3724   -5.7348 H   0  0  0  0  0  0  0  0  0  0  0  0
    5.0073    2.6155   -6.6880 H   0  0  0  0  0  0  0  0  0  0  0  0
    3.8385    4.7426   -3.3186 H   0  0  0  0  0  0  0  0  0  0  0  0
    3.0354    4.6079   -1.0240 H   0  0  0  0  0  0  0  0  0  0  0  0
    0.8008    6.8807    0.7248 H   0  0  0  0  0  0  0  0  0  0  0  0
    2.6574    8.1620   -0.2275 H   0  0  0  0  0  0  0  0  0  0  0  0
    3.0060    9.3511   -3.1372 H   0  0  0  0  0  0  0  0  0  0  0  0
    3.8077    7.8564   -3.7576 H   0  0  0  0  0  0  0  0  0  0  0  0
    4.2270    8.4795   -2.1253 H   0  0  0  0  0  0  0  0  0  0  0  0
    1.6517    6.7279   -4.1581 H   0  0  0  0  0  0  0  0  0  0  0  0
   -0.1565    5.4048   -3.2291 H   0  0  0  0  0  0  0  0  0  0  0  0
   -1.5838    8.0335   -0.3954 H   0  0  0  0  0  0  0  0  0  0  0  0
   -3.0582    9.1128    1.2337 H   0  0  0  0  0  0  0  0  0  0  0  0
   -4.5619    7.3737    4.1773 H   0  0  0  0  0  0  0  0  0  0  0  0
   -5.5245    7.9275    2.7475 H   0  0  0  0  0  0  0  0  0  0  0  0
   -4.2159    8.9714    3.4295 H   0  0  0  0  0  0  0  0  0  0  0  0
   -3.8398    5.2787    3.0536 H   0  0  0  0  0  0  0  0  0  0  0  0
   -2.3217    4.2107    1.4582 H   0  0  0  0  0  0  0  0  0  0  0  0
   -4.0067    2.4022   -5.4033 H   0  0  0  0  0  0  0  0  0  0  0  0
   -4.4410    1.1569   -7.4670 H   0  0  0  0  0  0  0  0  0  0  0  0
   -7.0102   -0.1239   -8.5270 H   0  0  0  0  0  0  0  0  0  0  0  0
   -5.9176    0.9314   -9.5096 H   0  0  0  0  0  0  0  0  0  0  0  0
   -7.6679    1.3234   -9.3854 H   0  0  0  0  0  0  0  0  0  0  0  0
   -8.5427    2.4822   -7.4140 H   0  0  0  0  0  0  0  0  0  0  0  0
   -8.1055    3.7493   -5.3586 H   0  0  0  0  0  0  0  0  0  0  0  0
   -7.2159    1.7773   -3.1009 H   0  0  0  0  0  0  0  0  0  0  0  0
   -8.7470    1.7440   -1.1771 H   0  0  0  0  0  0  0  0  0  0  0  0
  -10.4241    4.1243    0.1619 H   0  0  0  0  0  0  0  0  0  0  0  0
   -9.4560    2.8018    0.9316 H   0  0  0  0  0  0  0  0  0  0  0  0
   -9.0475    4.5203    1.2672 H   0  0  0  0  0  0  0  0  0  0  0  0
   -8.0329    5.9467   -0.5310 H   0  0  0  0  0  0  0  0  0  0  0  0
   -6.5210    5.9842   -2.4649 H   0  0  0  0  0  0  0  0  0  0  0  0
   -5.3166    7.1757   -5.4262 H   0  0  0  0  0  0  0  0  0  0  0  0
   -0.8864    5.9078  -12.2541 H   0  0  0  0  0  0  0  0  0  0  0  0
    0.2757    6.7513  -11.1533 H   0  0  0  0  0  0  0  0  0  0  0  0
    0.3799    4.9642  -11.3707 H   0  0  0  0  0  0  0  0  0  0  0  0
   -2.8524    7.0188  -10.7073 H   0  0  0  0  0  0  0  0  0  0  0  0
  1  2  2  3
  2  3  1  0
  3  4  2  0
  3  5  1  0
  5  6  1  0
  6  7  1  0
  7  8  1  0
  7  9  2  0
  9 10  1  0
 10 11  1  0
 11 12  2  3
 12 13  1  0
 13 14  3  0
 12 15  1  0
 15 16  3  0
  1 17  1  0
 17 18  2  0
 18 19  1  0
 19 20  1  0
 20 21  2  0
 21 22  1  0
 22 23  2  0
 23 24  1  0
 24 25  1  0
 23 26  1  0
 26 27  2  0
 19 28  1  0
 28 29  2  0
 29 30  1  0
 30 31  2  0
 31 32  1  0
 32 33  1  0
 31 34  1  0
 34 35  2  0
 18 36  1  0
 36 37  1  0
 37 38  1  0
 38 39  2  0
 39 40  1  0
 40 41  1  0
 41 42  2  0
 42 43  1  0
 43 44  2  0
 44 45  1  0
 45 46  1  0
 44 47  1  0
 47 48  2  0
 40 49  1  0
 49 50  2  0
 50 51  1  0
 51 52  2  0
 52 53  1  0
 53 54  1  0
 52 55  1  0
 55 56  2  0
 39 57  1  0
 57 58  1  0
 38 59  1  0
 59 60  2  0
 60 61  1  0
 61 62  1  0
 62 63  2  0
 63 64  1  0
 64 65  2  0
 65 66  1  0
 66 67  1  0
 65 68  1  0
 68 69  2  0
 61 70  1  0
 70 71  2  0
 71 72  1  0
 72 73  2  0
 73 74  1  0
 74 75  1  0
 73 76  1  0
 76 77  2  0
 60 78  1  0
 78 79  1  0
 79 80  1  0
 80 81  2  0
 81 82  1  0
 82 83  1  0
 83 84  2  0
 84 85  1  0
 85 86  2  0
 86 87  1  0
 87 88  1  0
 86 89  1  0
 89 90  2  0
 82 91  1  0
 91 92  2  0
 92 93  1  0
 93 94  2  0
 94 95  1  0
 95 96  1  0
 94 97  1  0
 97 98  2  0
 81 99  1  0
 99100  1  0
 80101  1  0
101102  2  0
102103  1  0
103104  1  0
104105  2  0
105106  1  0
106107  2  0
107108  1  0
107109  1  0
109110  2  0
103111  1  0
111112  2  0
112113  1  0
113114  2  0
114115  1  0
114116  1  0
116117  2  0
102118  1  0
118119  1  0
119120  1  0
120121  2  0
121122  1  0
122123  1  0
123124  2  0
124125  1  0
125126  2  0
126127  1  0
126128  1  0
128129  2  0
122130  1  0
130131  2  0
131132  1  0
132133  2  0
133134  1  0
133135  1  0
135136  2  0
121137  1  0
137138  1  0
120139  1  0
139140  2  3
140141  1  0
141142  2  0
141143  1  0
143144  1  0
144145  1  0
145146  1  0
145147  2  0
147148  1  0
148149  1  0
149150  2  3
150151  1  0
151152  3  0
150153  1  0
153154  3  0
 11  2  1  0
 58 17  1  0
100 59  1  0
138101  1  0
149140  1  0
 10  5  2  0
 27 20  1  0
 35 28  1  0
 57 36  2  0
 69 62  1  0
 77 70  1  0
 99 78  2  0
110104  1  0
117111  1  0
137118  2  0
148143  2  0
 48 41  1  0
 56 49  1  0
 90 83  1  0
 98 91  1  0
129123  1  0
136130  1  0
  1155  1  0
  8156  1  0
  8157  1  0
  8158  1  0
  9159  1  0
 21160  1  0
 22161  1  0
 25162  1  0
 25163  1  0
 25164  1  0
 26165  1  0
 27166  1  0
 29167  1  0
 30168  1  0
 33169  1  0
 33170  1  0
 33171  1  0
 34172  1  0
 35173  1  0
 42174  1  0
 43175  1  0
 46176  1  0
 46177  1  0
 46178  1  0
 47179  1  0
 48180  1  0
 50181  1  0
 51182  1  0
 54183  1  0
 54184  1  0
 54185  1  0
 55186  1  0
 56187  1  0
 63188  1  0
 64189  1  0
 67190  1  0
 67191  1  0
 67192  1  0
 68193  1  0
 69194  1  0
 71195  1  0
 72196  1  0
 75197  1  0
 75198  1  0
 75199  1  0
 76200  1  0
 77201  1  0
 84202  1  0
 85203  1  0
 88204  1  0
 88205  1  0
 88206  1  0
 89207  1  0
 90208  1  0
 92209  1  0
 93210  1  0
 96211  1  0
 96212  1  0
 96213  1  0
 97214  1  0
 98215  1  0
105216  1  0
106217  1  0
108218  1  0
108219  1  0
108220  1  0
109221  1  0
110222  1  0
112223  1  0
113224  1  0
115225  1  0
115226  1  0
115227  1  0
116228  1  0
117229  1  0
124230  1  0
125231  1  0
127232  1  0
127233  1  0
127234  1  0
128235  1  0
129236  1  0
131237  1  0
132238  1  0
134239  1  0
134240  1  0
134241  1  0
135242  1  0
136243  1  0
139244  1  0
146245  1  0
146246  1  0
146247  1  0
147248  1  0
M  END

