
     RDKit          3D

257281  0  0  0  0  0  0  0  0999 V2000
    1.3559   -0.5108   -8.9521 C   0  0  0  0  0  0  0  0  0  0  0  0
    0.3802    0.1527   -9.6101 C   0  0  0  0  0  0  0  0  0  0  0  0
   -1.0741   -0.0968   -9.4821 C   0  0  0  0  0  0  0  0  0  0  0  0
   -1.6842   -1.0630   -9.9863 O   0  0  0  0  0  0  0  0  0  0  0  0
   -1.7238    1.1805   -9.2286 C   0  0  0  0  0  0  0  0  0  0  0  0
   -3.3231    1.7149   -9.3513 S   0  0  0  0  0  0  0  0  0  0  0  0
   -2.8691    3.3373   -9.5447 C   0  0  0  0  0  0  0  0  0  0  0  0
   -3.7957    4.4267   -9.9466 C   0  0  0  0  0  0  0  0  0  0  0  0
   -1.4628    3.4356   -9.5893 C   0  0  0  0  0  0  0  0  0  0  0  0
   -0.8440    2.1929   -9.4377 C   0  0  0  0  0  0  0  0  0  0  0  0
    0.4727    1.6405   -9.8093 C   0  0  0  0  0  0  0  0  0  0  0  0
    1.5249    2.3602  -10.2830 C   0  0  0  0  0  0  0  0  0  0  0  0
    2.5553    1.7679  -11.0624 C   0  0  0  0  0  0  0  0  0  0  0  0
    3.3708    1.2729  -11.7182 N   0  0  0  0  0  0  0  0  0  0  0  0
    1.5818    3.7694  -10.1230 C   0  0  0  0  0  0  0  0  0  0  0  0
    1.6290    4.9364  -10.0254 N   0  0  0  0  0  0  0  0  0  0  0  0
    1.1178   -1.4168   -7.8017 C   0  0  0  0  0  0  0  0  0  0  0  0
    1.8055   -1.2872   -6.5929 C   0  0  0  0  0  0  0  0  0  0  0  0
    3.0498   -0.5741   -6.4405 N   0  0  0  0  0  0  0  0  0  0  0  0
    3.0903    0.8164   -6.0851 C   0  0  0  0  0  0  0  0  0  0  0  0
    3.6608    1.7498   -6.9855 C   0  0  0  0  0  0  0  0  0  0  0  0
    3.9696    3.0466   -6.5548 C   0  0  0  0  0  0  0  0  0  0  0  0
    3.7237    3.4338   -5.2262 C   0  0  0  0  0  0  0  0  0  0  0  0
    4.1039    4.7985   -4.7628 C   0  0  0  0  0  0  0  0  0  0  0  0
    3.0589    2.5431   -4.3523 C   0  0  0  0  0  0  0  0  0  0  0  0
    2.7432    1.2518   -4.7941 C   0  0  0  0  0  0  0  0  0  0  0  0
    4.2935   -1.2067   -6.8553 C   0  0  0  0  0  0  0  0  0  0  0  0
    5.4880   -0.8870   -6.1906 C   0  0  0  0  0  0  0  0  0  0  0  0
    6.7186   -1.3640   -6.6610 C   0  0  0  0  0  0  0  0  0  0  0  0
    6.7681   -2.1615   -7.8314 C   0  0  0  0  0  0  0  0  0  0  0  0
    8.0996   -2.6400   -8.3373 C   0  0  0  0  0  0  0  0  0  0  0  0
    5.5724   -2.5101   -8.4803 C   0  0  0  0  0  0  0  0  0  0  0  0
    4.3415   -2.0304   -7.9970 C   0  0  0  0  0  0  0  0  0  0  0  0
    1.1684   -1.9288   -5.5300 C   0  0  0  0  0  0  0  0  0  0  0  0
    1.3955   -2.0374   -3.8680 S   0  0  0  0  0  0  0  0  0  0  0  0
   -0.0199   -2.9467   -3.5415 C   0  0  0  0  0  0  0  0  0  0  0  0
   -0.6114   -3.2620   -4.7859 C   0  0  0  0  0  0  0  0  0  0  0  0
   -1.3807   -4.4832   -5.0597 N   0  0  0  0  0  0  0  0  0  0  0  0
   -0.8024   -5.7170   -4.5766 C   0  0  0  0  0  0  0  0  0  0  0  0
   -1.6044   -6.7269   -3.9957 C   0  0  0  0  0  0  0  0  0  0  0  0
   -1.0450   -7.9484   -3.6146 C   0  0  0  0  0  0  0  0  0  0  0  0
    0.3277   -8.1755   -3.8263 C   0  0  0  0  0  0  0  0  0  0  0  0
    0.9481   -9.5106   -3.4604 C   0  0  0  0  0  0  0  0  0  0  0  0
    1.1345   -7.1891   -4.4148 C   0  0  0  0  0  0  0  0  0  0  0  0
    0.5599   -5.9820   -4.7880 C   0  0  0  0  0  0  0  0  0  0  0  0
   -2.3049   -4.5746   -6.1834 C   0  0  0  0  0  0  0  0  0  0  0  0
   -3.1164   -3.4755   -6.5380 C   0  0  0  0  0  0  0  0  0  0  0  0
   -3.9425   -3.5194   -7.6756 C   0  0  0  0  0  0  0  0  0  0  0  0
   -3.9522   -4.6601   -8.4877 C   0  0  0  0  0  0  0  0  0  0  0  0
   -4.8439   -4.7473   -9.6943 C   0  0  0  0  0  0  0  0  0  0  0  0
   -3.1359   -5.7565   -8.1557 C   0  0  0  0  0  0  0  0  0  0  0  0
   -2.3140   -5.7105   -7.0267 C   0  0  0  0  0  0  0  0  0  0  0  0
    0.0658   -2.6236   -5.8496 C   0  0  0  0  0  0  0  0  0  0  0  0
   -0.1654   -2.4944   -7.5141 S   0  0  0  0  0  0  0  0  0  0  0  0
   -0.5252   -3.0968   -2.1480 C   0  0  0  0  0  0  0  0  0  0  0  0
   -1.7931   -2.6782   -1.6765 C   0  0  0  0  0  0  0  0  0  0  0  0
   -3.0128   -3.3531   -2.0870 N   0  0  0  0  0  0  0  0  0  0  0  0
   -3.9544   -2.7437   -2.9757 C   0  0  0  0  0  0  0  0  0  0  0  0
   -4.1909   -1.3620   -2.9269 C   0  0  0  0  0  0  0  0  0  0  0  0
   -5.2234   -0.7803   -3.6812 C   0  0  0  0  0  0  0  0  0  0  0  0
   -5.9813   -1.5792   -4.5559 C   0  0  0  0  0  0  0  0  0  0  0  0
   -7.2511   -0.8292   -5.6510 S   0  0  0  0  0  0  0  0  0  0  0  0
   -8.6751   -1.2408   -4.5924 C   0  0  0  0  0  0  0  0  0  0  0  0
   -5.7457   -2.9598   -4.6314 C   0  0  0  0  0  0  0  0  0  0  0  0
   -4.7460   -3.5349   -3.8382 C   0  0  0  0  0  0  0  0  0  0  0  0
   -3.3796   -4.5907   -1.3977 C   0  0  0  0  0  0  0  0  0  0  0  0
   -4.6921   -4.7666   -0.8979 C   0  0  0  0  0  0  0  0  0  0  0  0
   -5.0034   -5.8828   -0.0967 C   0  0  0  0  0  0  0  0  0  0  0  0
   -4.0304   -6.8425    0.1815 C   0  0  0  0  0  0  0  0  0  0  0  0
   -4.3438   -8.1839    1.3403 S   0  0  0  0  0  0  0  0  0  0  0  0
   -4.9424   -9.4818    0.1884 C   0  0  0  0  0  0  0  0  0  0  0  0
   -2.7518   -6.6957   -0.3446 C   0  0  0  0  0  0  0  0  0  0  0  0
   -2.4224   -5.5794   -1.1348 C   0  0  0  0  0  0  0  0  0  0  0  0
   -1.6797   -2.1843   -0.3630 C   0  0  0  0  0  0  0  0  0  0  0  0
   -2.5856   -1.1410    0.5895 S   0  0  0  0  0  0  0  0  0  0  0  0
   -1.4731   -0.9942    1.8696 C   0  0  0  0  0  0  0  0  0  0  0  0
   -0.3769   -1.8145    1.5326 C   0  0  0  0  0  0  0  0  0  0  0  0
    0.5775   -2.2781    2.4927 N   0  0  0  0  0  0  0  0  0  0  0  0
    0.3847   -3.6142    3.0681 C   0  0  0  0  0  0  0  0  0  0  0  0
   -0.8468   -3.9511    3.6378 C   0  0  0  0  0  0  0  0  0  0  0  0
   -1.0100   -5.1202    4.3710 C   0  0  0  0  0  0  0  0  0  0  0  0
    0.0817   -5.9901    4.5344 C   0  0  0  0  0  0  0  0  0  0  0  0
   -0.0634   -7.3773    5.6534 S   0  0  0  0  0  0  0  0  0  0  0  0
   -1.2907   -8.2998    4.6857 C   0  0  0  0  0  0  0  0  0  0  0  0
    1.3193   -5.6958    3.9122 C   0  0  0  0  0  0  0  0  0  0  0  0
    1.4306   -4.5086    3.1676 C   0  0  0  0  0  0  0  0  0  0  0  0
    1.6460   -1.4748    3.0274 C   0  0  0  0  0  0  0  0  0  0  0  0
    1.7868   -1.3758    4.4322 C   0  0  0  0  0  0  0  0  0  0  0  0
    2.9303   -0.8455    4.9744 C   0  0  0  0  0  0  0  0  0  0  0  0
    3.9774   -0.4161    4.1568 C   0  0  0  0  0  0  0  0  0  0  0  0
    5.4711    0.1894    4.9033 S   0  0  0  0  0  0  0  0  0  0  0  0
    6.2440   -1.4581    5.1305 C   0  0  0  0  0  0  0  0  0  0  0  0
    3.8296   -0.4581    2.7672 C   0  0  0  0  0  0  0  0  0  0  0  0
    2.6676   -0.9601    2.1993 C   0  0  0  0  0  0  0  0  0  0  0  0
   -0.5307   -2.4322    0.2720 C   0  0  0  0  0  0  0  0  0  0  0  0
    0.5673   -3.0995   -0.8264 S   0  0  0  0  0  0  0  0  0  0  0  0
   -1.3516    0.1542    2.7738 C   0  0  0  0  0  0  0  0  0  0  0  0
   -1.0727    0.1895    4.1567 C   0  0  0  0  0  0  0  0  0  0  0  0
   -1.7880   -0.6099    5.1807 N   0  0  0  0  0  0  0  0  0  0  0  0
   -1.6503   -0.2622    6.5835 C   0  0  0  0  0  0  0  0  0  0  0  0
   -1.0990   -1.1741    7.5029 C   0  0  0  0  0  0  0  0  0  0  0  0
   -1.0149   -0.8299    8.8546 C   0  0  0  0  0  0  0  0  0  0  0  0
   -1.4959    0.4213    9.2928 C   0  0  0  0  0  0  0  0  0  0  0  0
   -1.3726    0.8266   10.7412 C   0  0  0  0  0  0  0  0  0  0  0  0
   -2.0596    1.3211    8.3684 C   0  0  0  0  0  0  0  0  0  0  0  0
   -2.1730    0.9461    7.0504 C   0  0  0  0  0  0  0  0  0  0  0  0
   -3.0343   -1.2589    4.8607 C   0  0  0  0  0  0  0  0  0  0  0  0
   -3.3688   -2.5203    5.3763 C   0  0  0  0  0  0  0  0  0  0  0  0
   -4.6080   -3.0948    5.1119 C   0  0  0  0  0  0  0  0  0  0  0  0
   -5.5666   -2.3822    4.3591 C   0  0  0  0  0  0  0  0  0  0  0  0
   -6.9042   -2.9837    4.0394 C   0  0  0  0  0  0  0  0  0  0  0  0
   -5.2438   -1.1031    3.8667 C   0  0  0  0  0  0  0  0  0  0  0  0
   -4.0039   -0.5272    4.1465 C   0  0  0  0  0  0  0  0  0  0  0  0
   -0.4048    1.3938    4.4574 C   0  0  0  0  0  0  0  0  0  0  0  0
    0.5338    1.9547    5.7283 S   0  0  0  0  0  0  0  0  0  0  0  0
    0.8677    3.5029    5.0697 C   0  0  0  0  0  0  0  0  0  0  0  0
    0.2757    3.5327    3.8241 C   0  0  0  0  0  0  0  0  0  0  0  0
   -0.0399    4.7396    3.1144 N   0  0  0  0  0  0  0  0  0  0  0  0
    0.9098    5.4004    2.2800 C   0  0  0  0  0  0  0  0  0  0  0  0
    1.1619    6.7756    2.4487 C   0  0  0  0  0  0  0  0  0  0  0  0
    2.0798    7.4213    1.6259 C   0  0  0  0  0  0  0  0  0  0  0  0
    2.7938    6.6890    0.6548 C   0  0  0  0  0  0  0  0  0  0  0  0
    3.7498    7.4157   -0.2455 C   0  0  0  0  0  0  0  0  0  0  0  0
    2.6064    5.3082    0.5365 C   0  0  0  0  0  0  0  0  0  0  0  0
    1.6841    4.6672    1.3624 C   0  0  0  0  0  0  0  0  0  0  0  0
   -1.3134    5.3620    3.4128 C   0  0  0  0  0  0  0  0  0  0  0  0
   -1.7983    5.4017    4.7379 C   0  0  0  0  0  0  0  0  0  0  0  0
   -3.0650    5.9014    5.0182 C   0  0  0  0  0  0  0  0  0  0  0  0
   -3.8791    6.3812    3.9907 C   0  0  0  0  0  0  0  0  0  0  0  0
   -5.2331    6.9348    4.2887 C   0  0  0  0  0  0  0  0  0  0  0  0
   -3.3740    6.4155    2.6728 C   0  0  0  0  0  0  0  0  0  0  0  0
   -2.1052    5.8981    2.3836 C   0  0  0  0  0  0  0  0  0  0  0  0
   -0.3635    2.3296    3.4987 C   0  0  0  0  0  0  0  0  0  0  0  0
   -1.0311    1.6725    2.1080 S   0  0  0  0  0  0  0  0  0  0  0  0
    2.0225    4.3661    5.3635 C   0  0  0  0  0  0  0  0  0  0  0  0
    2.0288    5.5589    5.9639 C   0  0  0  0  0  0  0  0  0  0  0  0
    3.0354    6.5628    5.6850 C   0  0  0  0  0  0  0  0  0  0  0  0
    3.9666    6.4207    4.8578 O   0  0  0  0  0  0  0  0  0  0  0  0
    2.8577    7.7137    6.5360 C   0  0  0  0  0  0  0  0  0  0  0  0
    3.7927    8.7770    6.7184 C   0  0  0  0  0  0  0  0  0  0  0  0
    3.5045    9.5732    7.8006 C   0  0  0  0  0  0  0  0  0  0  0  0
    2.3966    9.3246    8.6660 C   0  0  0  0  0  0  0  0  0  0  0  0
    1.4653    8.2917    8.5116 C   0  0  0  0  0  0  0  0  0  0  0  0
    1.7128    7.4579    7.3756 C   0  0  0  0  0  0  0  0  0  0  0  0
    1.1530    6.0759    7.0467 C   0  0  0  0  0  0  0  0  0  0  0  0
    0.6477    5.3071    8.0501 C   0  0  0  0  0  0  0  0  0  0  0  0
   -0.3534    5.8894    8.8937 C   0  0  0  0  0  0  0  0  0  0  0  0
   -1.2033    6.3018    9.6023 N   0  0  0  0  0  0  0  0  0  0  0  0
    1.5275    4.3926    8.6862 C   0  0  0  0  0  0  0  0  0  0  0  0
    2.3447    3.7345    9.2277 N   0  0  0  0  0  0  0  0  0  0  0  0
    2.7297   10.5293    9.4673 C   0  0  0  0  0  0  0  0  0  0  0  0
    1.8099   11.7830    9.2398 C   0  0  0  0  0  0  0  0  0  0  0  0
    2.5518   12.9349    9.8678 C   0  0  0  0  0  0  0  0  0  0  0  0
    3.6193   13.1576    9.0826 C   0  0  0  0  0  0  0  0  0  0  0  0
    3.5396   12.1518    7.9565 C   0  0  0  0  0  0  0  0  0  0  0  0
    2.0200   12.1468    7.7598 C   0  0  0  0  0  0  0  0  0  0  0  0
    3.8808   10.7892    8.5956 C   0  0  0  0  0  0  0  0  0  0  0  0
    2.3527   -0.1280   -9.0130 H   0  0  0  0  0  0  0  0  0  0  0  0
   -4.0058    5.0702   -9.0465 H   0  0  0  0  0  0  0  0  0  0  0  0
   -4.7188    3.9739  -10.3847 H   0  0  0  0  0  0  0  0  0  0  0  0
   -3.2912    4.9925  -10.7739 H   0  0  0  0  0  0  0  0  0  0  0  0
   -0.9360    4.3320   -9.8718 H   0  0  0  0  0  0  0  0  0  0  0  0
    3.9707    1.4612   -7.9839 H   0  0  0  0  0  0  0  0  0  0  0  0
    4.4742    3.7134   -7.2399 H   0  0  0  0  0  0  0  0  0  0  0  0
    4.2528    4.8208   -3.6616 H   0  0  0  0  0  0  0  0  0  0  0  0
    3.2954    5.5091   -5.0369 H   0  0  0  0  0  0  0  0  0  0  0  0
    5.0570    5.1339   -5.2441 H   0  0  0  0  0  0  0  0  0  0  0  0
    2.8489    2.8150   -3.3250 H   0  0  0  0  0  0  0  0  0  0  0  0
    2.3572    0.5549   -4.0968 H   0  0  0  0  0  0  0  0  0  0  0  0
    5.4721   -0.2428   -5.3061 H   0  0  0  0  0  0  0  0  0  0  0  0
    7.6189   -1.0836   -6.0965 H   0  0  0  0  0  0  0  0  0  0  0  0
    8.4136   -3.5027   -7.7285 H   0  0  0  0  0  0  0  0  0  0  0  0
    8.0227   -2.9630   -9.3902 H   0  0  0  0  0  0  0  0  0  0  0  0
    8.8448   -1.8212   -8.2554 H   0  0  0  0  0  0  0  0  0  0  0  0
    5.5763   -3.1305   -9.3585 H   0  0  0  0  0  0  0  0  0  0  0  0
    3.4736   -2.3044   -8.5623 H   0  0  0  0  0  0  0  0  0  0  0  0
   -2.6750   -6.5620   -3.8821 H   0  0  0  0  0  0  0  0  0  0  0  0
   -1.6612   -8.7146   -3.1638 H   0  0  0  0  0  0  0  0  0  0  0  0
    1.8820   -9.3429   -2.8812 H   0  0  0  0  0  0  0  0  0  0  0  0
    0.2633  -10.1352   -2.8240 H   0  0  0  0  0  0  0  0  0  0  0  0
    1.1933  -10.0651   -4.3906 H   0  0  0  0  0  0  0  0  0  0  0  0
    2.1964   -7.3796   -4.6106 H   0  0  0  0  0  0  0  0  0  0  0  0
    1.2125   -5.2804   -5.3037 H   0  0  0  0  0  0  0  0  0  0  0  0
   -3.0779   -2.5723   -5.9506 H   0  0  0  0  0  0  0  0  0  0  0  0
   -4.5648   -2.6608   -7.9051 H   0  0  0  0  0  0  0  0  0  0  0  0
   -4.9931   -3.7337  -10.1408 H   0  0  0  0  0  0  0  0  0  0  0  0
   -4.4105   -5.4164  -10.4674 H   0  0  0  0  0  0  0  0  0  0  0  0
   -5.8231   -5.1643   -9.3814 H   0  0  0  0  0  0  0  0  0  0  0  0
   -3.1053   -6.6464   -8.7909 H   0  0  0  0  0  0  0  0  0  0  0  0
   -1.6537   -6.5642   -6.8803 H   0  0  0  0  0  0  0  0  0  0  0  0
   -3.6410   -0.7521   -2.2406 H   0  0  0  0  0  0  0  0  0  0  0  0
   -5.4142    0.2924   -3.5848 H   0  0  0  0  0  0  0  0  0  0  0  0
   -8.5171   -0.8283   -3.5597 H   0  0  0  0  0  0  0  0  0  0  0  0
   -9.6128   -0.8004   -5.0392 H   0  0  0  0  0  0  0  0  0  0  0  0
   -8.7709   -2.3518   -4.5819 H   0  0  0  0  0  0  0  0  0  0  0  0
   -6.3423   -3.5888   -5.2797 H   0  0  0  0  0  0  0  0  0  0  0  0
   -4.5944   -4.6114   -3.9199 H   0  0  0  0  0  0  0  0  0  0  0  0
   -5.4503   -4.0049   -1.0195 H   0  0  0  0  0  0  0  0  0  0  0  0
   -6.0056   -5.9677    0.3144 H   0  0  0  0  0  0  0  0  0  0  0  0
   -4.5388   -9.3260   -0.8450 H   0  0  0  0  0  0  0  0  0  0  0  0
   -6.0623   -9.4892    0.1953 H   0  0  0  0  0  0  0  0  0  0  0  0
   -4.5760  -10.4744    0.5586 H   0  0  0  0  0  0  0  0  0  0  0  0
   -1.9759   -7.3925   -0.1147 H   0  0  0  0  0  0  0  0  0  0  0  0
   -1.3969   -5.4879   -1.4696 H   0  0  0  0  0  0  0  0  0  0  0  0
   -1.7251   -3.3369    3.5382 H   0  0  0  0  0  0  0  0  0  0  0  0
   -1.9925   -5.2940    4.8277 H   0  0  0  0  0  0  0  0  0  0  0  0
   -1.6631   -9.1675    5.3077 H   0  0  0  0  0  0  0  0  0  0  0  0
   -2.1655   -7.6952    4.3712 H   0  0  0  0  0  0  0  0  0  0  0  0
   -0.7956   -8.7350    3.7915 H   0  0  0  0  0  0  0  0  0  0  0  0
    2.1800   -6.3569    4.0171 H   0  0  0  0  0  0  0  0  0  0  0  0
    2.3659   -4.2526    2.7152 H   0  0  0  0  0  0  0  0  0  0  0  0
    1.0180   -1.7557    5.0996 H   0  0  0  0  0  0  0  0  0  0  0  0
    3.0366   -0.8257    6.0819 H   0  0  0  0  0  0  0  0  0  0  0  0
    5.6381   -2.0631    5.8388 H   0  0  0  0  0  0  0  0  0  0  0  0
    7.2729   -1.3431    5.5472 H   0  0  0  0  0  0  0  0  0  0  0  0
    6.3190   -1.9799    4.1523 H   0  0  0  0  0  0  0  0  0  0  0  0
    4.6370   -0.1234    2.1071 H   0  0  0  0  0  0  0  0  0  0  0  0
    2.5782   -1.0723    1.1410 H   0  0  0  0  0  0  0  0  0  0  0  0
   -0.7195   -2.1570    7.1744 H   0  0  0  0  0  0  0  0  0  0  0  0
   -0.6205   -1.5602    9.5794 H   0  0  0  0  0  0  0  0  0  0  0  0
   -2.1150    1.6135   10.9998 H   0  0  0  0  0  0  0  0  0  0  0  0
   -0.3464    1.2259   10.9257 H   0  0  0  0  0  0  0  0  0  0  0  0
   -1.5675   -0.0574   11.4059 H   0  0  0  0  0  0  0  0  0  0  0  0
   -2.3719    2.3220    8.6626 H   0  0  0  0  0  0  0  0  0  0  0  0
   -2.6306    1.6374    6.3688 H   0  0  0  0  0  0  0  0  0  0  0  0
   -2.6420   -3.0644    5.9753 H   0  0  0  0  0  0  0  0  0  0  0  0
   -4.8253   -4.1016    5.4634 H   0  0  0  0  0  0  0  0  0  0  0  0
   -7.6710   -2.2049    3.8811 H   0  0  0  0  0  0  0  0  0  0  0  0
   -7.2352   -3.6459    4.8688 H   0  0  0  0  0  0  0  0  0  0  0  0
   -6.8190   -3.5874    3.1206 H   0  0  0  0  0  0  0  0  0  0  0  0
   -5.9696   -0.5153    3.2978 H   0  0  0  0  0  0  0  0  0  0  0  0
   -3.8364    0.4851    3.8019 H   0  0  0  0  0  0  0  0  0  0  0  0
    0.6206    7.3664    3.1887 H   0  0  0  0  0  0  0  0  0  0  0  0
    2.2179    8.5064    1.7354 H   0  0  0  0  0  0  0  0  0  0  0  0
    4.3333    8.1869    0.3168 H   0  0  0  0  0  0  0  0  0  0  0  0
    4.4931    6.7162   -0.7047 H   0  0  0  0  0  0  0  0  0  0  0  0
    3.1887    7.9246   -1.0639 H   0  0  0  0  0  0  0  0  0  0  0  0
    3.1323    4.7345   -0.2312 H   0  0  0  0  0  0  0  0  0  0  0  0
    1.5308    3.6106    1.2524 H   0  0  0  0  0  0  0  0  0  0  0  0
   -1.2458    5.0103    5.5941 H   0  0  0  0  0  0  0  0  0  0  0  0
   -3.4306    5.8820    6.0494 H   0  0  0  0  0  0  0  0  0  0  0  0
   -5.6299    6.5043    5.2339 H   0  0  0  0  0  0  0  0  0  0  0  0
   -5.9375    6.6700    3.4798 H   0  0  0  0  0  0  0  0  0  0  0  0
   -5.1639    8.0385    4.3902 H   0  0  0  0  0  0  0  0  0  0  0  0
   -3.9767    6.7904    1.8469 H   0  0  0  0  0  0  0  0  0  0  0  0
   -1.7369    5.8775    1.3587 H   0  0  0  0  0  0  0  0  0  0  0  0
    2.8380    4.1400    4.7142 H   0  0  0  0  0  0  0  0  0  0  0  0
    4.5837    8.9951    5.9880 H   0  0  0  0  0  0  0  0  0  0  0  0
    0.6312    8.1912    9.2340 H   0  0  0  0  0  0  0  0  0  0  0  0
    2.9688   10.3092   10.5219 H   0  0  0  0  0  0  0  0  0  0  0  0
    0.7389   11.6913    9.5476 H   0  0  0  0  0  0  0  0  0  0  0  0
    2.2354   13.5570   10.7050 H   0  0  0  0  0  0  0  0  0  0  0  0
    4.3269   13.9769    9.2182 H   0  0  0  0  0  0  0  0  0  0  0  0
    4.1485   12.4234    7.0660 H   0  0  0  0  0  0  0  0  0  0  0  0
    1.6029   13.1553    7.4656 H   0  0  0  0  0  0  0  0  0  0  0  0
    1.6063   11.4226    7.0263 H   0  0  0  0  0  0  0  0  0  0  0  0
    4.8592   10.6913    9.1151 H   0  0  0  0  0  0  0  0  0  0  0  0
  1  2  2  3
  2  3  1  0
  3  4  2  0
  3  5  1  0
  5  6  1  0
  6  7  1  0
  7  8  1  0
  7  9  2  0
  9 10  1  0
 10 11  1  0
 11 12  2  3
 12 13  1  0
 13 14  3  0
 12 15  1  0
 15 16  3  0
  1 17  1  0
 17 18  2  0
 18 19  1  0
 19 20  1  0
 20 21  2  0
 21 22  1  0
 22 23  2  0
 23 24  1  0
 23 25  1  0
 25 26  2  0
 19 27  1  0
 27 28  2  0
 28 29  1  0
 29 30  2  0
 30 31  1  0
 30 32  1  0
 32 33  2  0
 18 34  1  0
 34 35  1  0
 35 36  1  0
 36 37  2  0
 37 38  1  0
 38 39  1  0
 39 40  2  0
 40 41  1  0
 41 42  2  0
 42 43  1  0
 42 44  1  0
 44 45  2  0
 38 46  1  0
 46 47  2  0
 47 48  1  0
 48 49  2  0
 49 50  1  0
 49 51  1  0
 51 52  2  0
 37 53  1  0
 53 54  1  0
 36 55  1  0
 55 56  2  0
 56 57  1  0
 57 58  1  0
 58 59  2  0
 59 60  1  0
 60 61  2  0
 61 62  1  0
 62 63  1  0
 61 64  1  0
 64 65  2  0
 57 66  1  0
 66 67  2  0
 67 68  1  0
 68 69  2  0
 69 70  1  0
 70 71  1  0
 69 72  1  0
 72 73  2  0
 56 74  1  0
 74 75  1  0
 75 76  1  0
 76 77  2  0
 77 78  1  0
 78 79  1  0
 79 80  2  0
 80 81  1  0
 81 82  2  0
 82 83  1  0
 83 84  1  0
 82 85  1  0
 85 86  2  0
 78 87  1  0
 87 88  2  0
 88 89  1  0
 89 90  2  0
 90 91  1  0
 91 92  1  0
 90 93  1  0
 93 94  2  0
 77 95  1  0
 95 96  1  0
 76 97  1  0
 97 98  2  0
 98 99  1  0
 99100  1  0
100101  2  0
101102  1  0
102103  2  0
103104  1  0
103105  1  0
105106  2  0
 99107  1  0
107108  2  0
108109  1  0
109110  2  0
110111  1  0
110112  1  0
112113  2  0
 98114  1  0
114115  1  0
115116  1  0
116117  2  0
117118  1  0
118119  1  0
119120  2  0
120121  1  0
121122  2  0
122123  1  0
122124  1  0
124125  2  0
118126  1  0
126127  2  0
127128  1  0
128129  2  0
129130  1  0
129131  1  0
131132  2  0
117133  1  0
133134  1  0
116135  1  0
135136  2  3
136137  1  0
137138  2  0
137139  1  0
139140  2  0
140141  1  0
141142  2  0
142143  1  0
143144  2  0
144145  1  0
145146  2  3
146147  1  0
147148  3  0
146149  1  0
149150  3  0
142151  1  0
151152  1  0
152153  1  0
153154  2  0
154155  1  0
155156  1  0
155157  1  0
 11  2  1  0
 54 17  1  0
 96 55  1  0
134 97  1  0
145136  1  0
157151  1  0
 10  5  2  0
 26 20  1  0
 33 27  1  0
 53 34  2  0
 65 58  1  0
 73 66  1  0
 95 74  2  0
106100  1  0
113107  1  0
133114  2  0
144139  1  0
156152  1  0
 45 39  1  0
 52 46  1  0
 86 79  1  0
 94 87  1  0
125119  1  0
132126  1  0
157141  1  0
  1158  1  0
  8159  1  0
  8160  1  0
  8161  1  0
  9162  1  0
 21163  1  0
 22164  1  0
 24165  1  0
 24166  1  0
 24167  1  0
 25168  1  0
 26169  1  0
 28170  1  0
 29171  1  0
 31172  1  0
 31173  1  0
 31174  1  0
 32175  1  0
 33176  1  0
 40177  1  0
 41178  1  0
 43179  1  0
 43180  1  0
 43181  1  0
 44182  1  0
 45183  1  0
 47184  1  0
 48185  1  0
 50186  1  0
 50187  1  0
 50188  1  0
 51189  1  0
 52190  1  0
 59191  1  0
 60192  1  0
 63193  1  0
 63194  1  0
 63195  1  0
 64196  1  0
 65197  1  0
 67198  1  0
 68199  1  0
 71200  1  0
 71201  1  0
 71202  1  0
 72203  1  0
 73204  1  0
 80205  1  0
 81206  1  0
 84207  1  0
 84208  1  0
 84209  1  0
 85210  1  0
 86211  1  0
 88212  1  0
 89213  1  0
 92214  1  0
 92215  1  0
 92216  1  0
 93217  1  0
 94218  1  0
101219  1  0
102220  1  0
104221  1  0
104222  1  0
104223  1  0
105224  1  0
106225  1  0
108226  1  0
109227  1  0
111228  1  0
111229  1  0
111230  1  0
112231  1  0
113232  1  0
120233  1  0
121234  1  0
123235  1  0
123236  1  0
123237  1  0
124238  1  0
125239  1  0
127240  1  0
128241  1  0
130242  1  0
130243  1  0
130244  1  0
131245  1  0
132246  1  0
135247  1  0
140248  1  0
143249  1  0
151250  1  0
152251  1  0
153252  1  0
154253  1  0
155254  1  0
156255  1  0
156256  1  0
157257  1  0
M  END

