
     RDKit          3D

178193  0  0  0  0  0  0  0  0999 V2000
   -5.4501    1.2819   -4.6290 C   0  0  0  0  0  0  0  0  0  0  0  0
   -6.6072    0.6056   -4.7269 C   0  0  0  0  0  0  0  0  0  0  0  0
   -6.8569   -0.7350   -4.1534 C   0  0  0  0  0  0  0  0  0  0  0  0
   -6.0004   -1.5778   -3.7659 O   0  0  0  0  0  0  0  0  0  0  0  0
   -8.2807   -0.9187   -4.1229 C   0  0  0  0  0  0  0  0  0  0  0  0
   -9.3411   -2.0644   -3.5195 S   0  0  0  0  0  0  0  0  0  0  0  0
  -10.7068   -1.1428   -3.9497 C   0  0  0  0  0  0  0  0  0  0  0  0
  -12.1169   -1.5838   -3.7471 C   0  0  0  0  0  0  0  0  0  0  0  0
  -10.3218    0.0528   -4.5680 C   0  0  0  0  0  0  0  0  0  0  0  0
   -8.9286    0.1537   -4.6401 C   0  0  0  0  0  0  0  0  0  0  0  0
   -7.9494    1.1528   -5.1314 C   0  0  0  0  0  0  0  0  0  0  0  0
   -8.2182    2.2350   -5.8975 C   0  0  0  0  0  0  0  0  0  0  0  0
   -7.1816    3.0100   -6.5232 C   0  0  0  0  0  0  0  0  0  0  0  0
   -6.3543    3.6395   -7.0343 N   0  0  0  0  0  0  0  0  0  0  0  0
   -9.5694    2.6182   -6.2174 C   0  0  0  0  0  0  0  0  0  0  0  0
  -10.6512    2.9341   -6.4809 N   0  0  0  0  0  0  0  0  0  0  0  0
   -4.2881    0.7114   -3.9187 C   0  0  0  0  0  0  0  0  0  0  0  0
   -4.2324    0.8612   -2.5240 C   0  0  0  0  0  0  0  0  0  0  0  0
   -5.3903    1.9784   -1.6876 S   0  0  0  0  0  0  0  0  0  0  0  0
   -4.3036    3.4378   -1.8432 C   0  0  0  0  0  0  0  0  0  0  0  0
   -4.5412    4.3831   -0.6746 C   0  0  0  0  0  0  0  0  0  0  0  0
   -3.2560    0.1841   -1.7753 C   0  0  0  0  0  0  0  0  0  0  0  0
   -3.2297    0.4318    0.0185 S   0  0  0  0  0  0  0  0  0  0  0  0
   -4.4440   -0.8846    0.3541 C   0  0  0  0  0  0  0  0  0  0  0  0
   -4.4496   -1.2257    1.8353 C   0  0  0  0  0  0  0  0  0  0  0  0
   -2.3075   -0.6453   -2.4260 C   0  0  0  0  0  0  0  0  0  0  0  0
   -2.4039   -0.8495   -3.8263 C   0  0  0  0  0  0  0  0  0  0  0  0
   -3.3288   -0.0846   -4.5920 C   0  0  0  0  0  0  0  0  0  0  0  0
   -3.2438   -0.1174   -6.0869 C   0  0  0  0  0  0  0  0  0  0  0  0
   -3.9522    0.6363   -6.8074 O   0  0  0  0  0  0  0  0  0  0  0  0
   -2.2873   -1.0220   -6.7383 C   0  0  0  0  0  0  0  0  0  0  0  0
   -1.5275   -1.9145   -5.9851 C   0  0  0  0  0  0  0  0  0  0  0  0
   -1.6035   -1.9141   -4.5174 C   0  0  0  0  0  0  0  0  0  0  0  0
   -1.0856   -2.8577   -3.8691 O   0  0  0  0  0  0  0  0  0  0  0  0
   -0.6950   -2.7314   -6.7451 C   0  0  0  0  0  0  0  0  0  0  0  0
   -0.8719   -2.2729   -8.3520 S   0  0  0  0  0  0  0  0  0  0  0  0
   -2.0322   -1.0756   -8.1027 C   0  0  0  0  0  0  0  0  0  0  0  0
   -1.1361   -1.1611   -1.6715 C   0  0  0  0  0  0  0  0  0  0  0  0
    0.2036   -0.7692   -1.8683 C   0  0  0  0  0  0  0  0  0  0  0  0
    0.6381    0.2007   -2.8331 N   0  0  0  0  0  0  0  0  0  0  0  0
    0.8076    1.5750   -2.4167 C   0  0  0  0  0  0  0  0  0  0  0  0
   -0.1376    2.1936   -1.5766 C   0  0  0  0  0  0  0  0  0  0  0  0
    0.0111    3.5294   -1.2001 C   0  0  0  0  0  0  0  0  0  0  0  0
    1.1168    4.2627   -1.6394 C   0  0  0  0  0  0  0  0  0  0  0  0
    1.2904    5.9888   -1.1894 S   0  0  0  0  0  0  0  0  0  0  0  0
    0.5389    6.5907   -2.7381 C   0  0  0  0  0  0  0  0  0  0  0  0
    2.0849    3.6477   -2.4371 C   0  0  0  0  0  0  0  0  0  0  0  0
    1.9330    2.3147   -2.8245 C   0  0  0  0  0  0  0  0  0  0  0  0
    1.1569   -0.2516   -4.1029 C   0  0  0  0  0  0  0  0  0  0  0  0
    1.9209   -1.4310   -4.1962 C   0  0  0  0  0  0  0  0  0  0  0  0
    2.4553   -1.8308   -5.4202 C   0  0  0  0  0  0  0  0  0  0  0  0
    2.2468   -1.0547   -6.5649 C   0  0  0  0  0  0  0  0  0  0  0  0
    2.9529   -1.5613   -8.1343 S   0  0  0  0  0  0  0  0  0  0  0  0
    4.5626   -0.7731   -7.8053 C   0  0  0  0  0  0  0  0  0  0  0  0
    1.4712    0.1076   -6.4882 C   0  0  0  0  0  0  0  0  0  0  0  0
    0.9231    0.5038   -5.2647 C   0  0  0  0  0  0  0  0  0  0  0  0
    1.0200   -1.2232   -0.8340 C   0  0  0  0  0  0  0  0  0  0  0  0
    2.5444   -0.7976   -0.3241 S   0  0  0  0  0  0  0  0  0  0  0  0
    2.4289   -1.5233    1.2255 C   0  0  0  0  0  0  0  0  0  0  0  0
    1.0873   -1.9877    1.3607 C   0  0  0  0  0  0  0  0  0  0  0  0
    0.3248   -2.0282    2.5839 N   0  0  0  0  0  0  0  0  0  0  0  0
   -0.3788   -3.2686    2.8850 C   0  0  0  0  0  0  0  0  0  0  0  0
   -1.6216   -3.2795    3.5614 C   0  0  0  0  0  0  0  0  0  0  0  0
   -2.2927   -4.4781    3.8124 C   0  0  0  0  0  0  0  0  0  0  0  0
   -1.7496   -5.6899    3.3850 C   0  0  0  0  0  0  0  0  0  0  0  0
   -2.6227   -7.2243    3.6965 S   0  0  0  0  0  0  0  0  0  0  0  0
   -1.7559   -7.5398    5.2658 C   0  0  0  0  0  0  0  0  0  0  0  0
   -0.5418   -5.6986    2.6805 C   0  0  0  0  0  0  0  0  0  0  0  0
    0.1372   -4.5021    2.4373 C   0  0  0  0  0  0  0  0  0  0  0  0
   -0.0851   -0.7596    3.1771 C   0  0  0  0  0  0  0  0  0  0  0  0
   -0.2912    0.3888    2.3785 C   0  0  0  0  0  0  0  0  0  0  0  0
   -0.8393    1.5546    2.9210 C   0  0  0  0  0  0  0  0  0  0  0  0
   -1.1683    1.6081    4.2803 C   0  0  0  0  0  0  0  0  0  0  0  0
   -2.0200    3.0430    4.9434 S   0  0  0  0  0  0  0  0  0  0  0  0
   -0.4938    3.9492    5.3391 C   0  0  0  0  0  0  0  0  0  0  0  0
   -0.9093    0.5049    5.0984 C   0  0  0  0  0  0  0  0  0  0  0  0
   -0.3491   -0.6592    4.5603 C   0  0  0  0  0  0  0  0  0  0  0  0
    0.3985   -1.9120    0.1472 C   0  0  0  0  0  0  0  0  0  0  0  0
   -1.2291   -2.0562   -0.2216 S   0  0  0  0  0  0  0  0  0  0  0  0
    3.6122   -1.5578    2.1620 C   0  0  0  0  0  0  0  0  0  0  0  0
    3.4972   -1.3367    3.5457 C   0  0  0  0  0  0  0  0  0  0  0  0
    2.4613   -2.4141    4.5506 S   0  0  0  0  0  0  0  0  0  0  0  0
    3.6806   -3.7722    4.6807 C   0  0  0  0  0  0  0  0  0  0  0  0
    3.2779   -4.9437    3.8045 C   0  0  0  0  0  0  0  0  0  0  0  0
    4.4842   -0.5981    4.2165 C   0  0  0  0  0  0  0  0  0  0  0  0
    4.1202    0.0502    5.8718 S   0  0  0  0  0  0  0  0  0  0  0  0
    3.8199    1.7683    5.3134 C   0  0  0  0  0  0  0  0  0  0  0  0
    2.4492    1.9054    4.6773 C   0  0  0  0  0  0  0  0  0  0  0  0
    5.7418   -0.3849    3.6125 C   0  0  0  0  0  0  0  0  0  0  0  0
    5.9877   -0.9056    2.3153 C   0  0  0  0  0  0  0  0  0  0  0  0
    4.9242   -1.5495    1.6162 C   0  0  0  0  0  0  0  0  0  0  0  0
    5.2219   -2.2919    0.3519 C   0  0  0  0  0  0  0  0  0  0  0  0
    4.4230   -3.1603   -0.0935 O   0  0  0  0  0  0  0  0  0  0  0  0
    6.5043   -2.0705   -0.3241 C   0  0  0  0  0  0  0  0  0  0  0  0
    7.5121   -1.3341    0.2917 C   0  0  0  0  0  0  0  0  0  0  0  0
    7.3290   -0.7885    1.6452 C   0  0  0  0  0  0  0  0  0  0  0  0
    8.3124   -0.2420    2.2183 O   0  0  0  0  0  0  0  0  0  0  0  0
    8.6649   -1.2096   -0.4755 C   0  0  0  0  0  0  0  0  0  0  0  0
    8.4016   -2.0313   -1.9201 S   0  0  0  0  0  0  0  0  0  0  0  0
    6.8380   -2.5505   -1.5881 C   0  0  0  0  0  0  0  0  0  0  0  0
    6.7799    0.3832    4.3419 C   0  0  0  0  0  0  0  0  0  0  0  0
    7.3861   -0.0545    5.4629 C   0  0  0  0  0  0  0  0  0  0  0  0
    7.1016   -1.3264    6.1548 C   0  0  0  0  0  0  0  0  0  0  0  0
    6.5346   -2.3435    5.6799 O   0  0  0  0  0  0  0  0  0  0  0  0
    7.5913   -1.1933    7.5046 C   0  0  0  0  0  0  0  0  0  0  0  0
    7.1540   -1.8764    8.9675 S   0  0  0  0  0  0  0  0  0  0  0  0
    7.8218   -0.6035    9.8755 C   0  0  0  0  0  0  0  0  0  0  0  0
    7.6523   -0.4512   11.3505 C   0  0  0  0  0  0  0  0  0  0  0  0
    8.3072    0.3911    9.0203 C   0  0  0  0  0  0  0  0  0  0  0  0
    8.1737    0.0176    7.6817 C   0  0  0  0  0  0  0  0  0  0  0  0
    8.2193    0.7606    6.4050 C   0  0  0  0  0  0  0  0  0  0  0  0
    9.0184    1.8145    6.1322 C   0  0  0  0  0  0  0  0  0  0  0  0
    9.1801    2.3324    4.7981 C   0  0  0  0  0  0  0  0  0  0  0  0
    9.3275    2.7449    3.7269 N   0  0  0  0  0  0  0  0  0  0  0  0
    9.9032    2.3559    7.1350 C   0  0  0  0  0  0  0  0  0  0  0  0
   10.6298    2.7714    7.9319 N   0  0  0  0  0  0  0  0  0  0  0  0
   -5.3884    2.3205   -4.8878 H   0  0  0  0  0  0  0  0  0  0  0  0
  -12.1684   -2.3492   -2.9420 H   0  0  0  0  0  0  0  0  0  0  0  0
  -12.7483   -0.7191   -3.4539 H   0  0  0  0  0  0  0  0  0  0  0  0
  -12.5067   -2.0207   -4.6910 H   0  0  0  0  0  0  0  0  0  0  0  0
  -11.0215    0.7914   -4.9230 H   0  0  0  0  0  0  0  0  0  0  0  0
   -3.2312    3.1417   -1.8437 H   0  0  0  0  0  0  0  0  0  0  0  0
   -4.5328    3.9607   -2.7952 H   0  0  0  0  0  0  0  0  0  0  0  0
   -3.8577    5.2552   -0.7567 H   0  0  0  0  0  0  0  0  0  0  0  0
   -5.5917    4.7482   -0.6719 H   0  0  0  0  0  0  0  0  0  0  0  0
   -4.3279    3.8688    0.2866 H   0  0  0  0  0  0  0  0  0  0  0  0
   -5.4565   -0.5507    0.0455 H   0  0  0  0  0  0  0  0  0  0  0  0
   -4.1822   -1.7970   -0.2213 H   0  0  0  0  0  0  0  0  0  0  0  0
   -4.7910   -0.3550    2.4352 H   0  0  0  0  0  0  0  0  0  0  0  0
   -3.4275   -1.5137    2.1469 H   0  0  0  0  0  0  0  0  0  0  0  0
   -5.1291   -2.0870    2.0168 H   0  0  0  0  0  0  0  0  0  0  0  0
   -0.0216   -3.4878   -6.3644 H   0  0  0  0  0  0  0  0  0  0  0  0
   -2.4829   -0.4576   -8.8676 H   0  0  0  0  0  0  0  0  0  0  0  0
   -1.0004    1.6550   -1.2375 H   0  0  0  0  0  0  0  0  0  0  0  0
   -0.7360    3.9916   -0.5654 H   0  0  0  0  0  0  0  0  0  0  0  0
    0.5633    7.7000   -2.7509 H   0  0  0  0  0  0  0  0  0  0  0  0
    1.1108    6.2118   -3.6139 H   0  0  0  0  0  0  0  0  0  0  0  0
   -0.5158    6.2493   -2.8109 H   0  0  0  0  0  0  0  0  0  0  0  0
    2.9516    4.2036   -2.7661 H   0  0  0  0  0  0  0  0  0  0  0  0
    2.6970    1.8583   -3.4415 H   0  0  0  0  0  0  0  0  0  0  0  0
    2.1147   -2.0337   -3.3240 H   0  0  0  0  0  0  0  0  0  0  0  0
    3.0341   -2.7406   -5.4824 H   0  0  0  0  0  0  0  0  0  0  0  0
    4.4262    0.3135   -7.6168 H   0  0  0  0  0  0  0  0  0  0  0  0
    5.2189   -0.9070   -8.6917 H   0  0  0  0  0  0  0  0  0  0  0  0
    5.0446   -1.2505   -6.9242 H   0  0  0  0  0  0  0  0  0  0  0  0
    1.2858    0.7000   -7.3771 H   0  0  0  0  0  0  0  0  0  0  0  0
    0.3211    1.4010   -5.2198 H   0  0  0  0  0  0  0  0  0  0  0  0
   -2.1061   -2.3670    3.8656 H   0  0  0  0  0  0  0  0  0  0  0  0
   -3.2507   -4.4545    4.3125 H   0  0  0  0  0  0  0  0  0  0  0  0
   -0.6656   -7.6337    5.0843 H   0  0  0  0  0  0  0  0  0  0  0  0
   -2.1322   -8.4867    5.7059 H   0  0  0  0  0  0  0  0  0  0  0  0
   -1.9485   -6.7119    5.9794 H   0  0  0  0  0  0  0  0  0  0  0  0
   -0.1270   -6.6339    2.3242 H   0  0  0  0  0  0  0  0  0  0  0  0
    1.0659   -4.5445    1.8877 H   0  0  0  0  0  0  0  0  0  0  0  0
   -0.0831    0.3887    1.3189 H   0  0  0  0  0  0  0  0  0  0  0  0
   -1.0361    2.4024    2.2781 H   0  0  0  0  0  0  0  0  0  0  0  0
   -0.7609    4.9261    5.7909 H   0  0  0  0  0  0  0  0  0  0  0  0
    0.1126    3.3753    6.0693 H   0  0  0  0  0  0  0  0  0  0  0  0
    0.0944    4.1296    4.4142 H   0  0  0  0  0  0  0  0  0  0  0  0
   -1.1683    0.5374    6.1462 H   0  0  0  0  0  0  0  0  0  0  0  0
   -0.1940   -1.5082    5.2100 H   0  0  0  0  0  0  0  0  0  0  0  0
    4.6966   -3.4413    4.3838 H   0  0  0  0  0  0  0  0  0  0  0  0
    3.7253   -4.0990    5.7383 H   0  0  0  0  0  0  0  0  0  0  0  0
    2.2722   -5.3081    4.0964 H   0  0  0  0  0  0  0  0  0  0  0  0
    3.2870   -4.6322    2.7355 H   0  0  0  0  0  0  0  0  0  0  0  0
    4.0082   -5.7700    3.9382 H   0  0  0  0  0  0  0  0  0  0  0  0
    3.8722    2.4325    6.1979 H   0  0  0  0  0  0  0  0  0  0  0  0
    4.6032    2.0943    4.5967 H   0  0  0  0  0  0  0  0  0  0  0  0
    2.3688    1.2692    3.7729 H   0  0  0  0  0  0  0  0  0  0  0  0
    2.2916    2.9596    4.3719 H   0  0  0  0  0  0  0  0  0  0  0  0
    1.6697    1.6133    5.4081 H   0  0  0  0  0  0  0  0  0  0  0  0
    9.5689   -0.6827   -0.1975 H   0  0  0  0  0  0  0  0  0  0  0  0
    6.2047   -3.1429   -2.2368 H   0  0  0  0  0  0  0  0  0  0  0  0
    6.9898    1.3707    3.9601 H   0  0  0  0  0  0  0  0  0  0  0  0
    8.4653    0.1811   11.7671 H   0  0  0  0  0  0  0  0  0  0  0  0
    7.6807   -1.4482   11.8405 H   0  0  0  0  0  0  0  0  0  0  0  0
    6.6715    0.0301   11.5542 H   0  0  0  0  0  0  0  0  0  0  0  0
    8.6390    1.3614    9.3599 H   0  0  0  0  0  0  0  0  0  0  0  0
  1  2  2  3
  2  3  1  0
  3  4  2  0
  3  5  1  0
  5  6  1  0
  6  7  1  0
  7  8  1  0
  7  9  2  0
  9 10  1  0
 10 11  1  0
 11 12  2  3
 12 13  1  0
 13 14  3  0
 12 15  1  0
 15 16  3  0
  1 17  1  0
 17 18  2  0
 18 19  1  0
 19 20  1  0
 20 21  1  0
 18 22  1  0
 22 23  1  0
 23 24  1  0
 24 25  1  0
 22 26  2  0
 26 27  1  0
 27 28  2  0
 28 29  1  0
 29 30  2  0
 29 31  1  0
 31 32  1  0
 32 33  1  0
 33 34  2  0
 32 35  2  0
 35 36  1  0
 36 37  1  0
 26 38  1  0
 38 39  2  0
 39 40  1  0
 40 41  1  0
 41 42  2  0
 42 43  1  0
 43 44  2  0
 44 45  1  0
 45 46  1  0
 44 47  1  0
 47 48  2  0
 40 49  1  0
 49 50  2  0
 50 51  1  0
 51 52  2  0
 52 53  1  0
 53 54  1  0
 52 55  1  0
 55 56  2  0
 39 57  1  0
 57 58  1  0
 58 59  1  0
 59 60  2  0
 60 61  1  0
 61 62  1  0
 62 63  2  0
 63 64  1  0
 64 65  2  0
 65 66  1  0
 66 67  1  0
 65 68  1  0
 68 69  2  0
 61 70  1  0
 70 71  2  0
 71 72  1  0
 72 73  2  0
 73 74  1  0
 74 75  1  0
 73 76  1  0
 76 77  2  0
 60 78  1  0
 78 79  1  0
 59 80  1  0
 80 81  2  0
 81 82  1  0
 82 83  1  0
 83 84  1  0
 81 85  1  0
 85 86  1  0
 86 87  1  0
 87 88  1  0
 85 89  2  0
 89 90  1  0
 90 91  2  0
 91 92  1  0
 92 93  2  0
 92 94  1  0
 94 95  1  0
 95 96  1  0
 96 97  2  0
 95 98  2  0
 98 99  1  0
 99100  1  0
 89101  1  0
101102  2  3
102103  1  0
103104  2  0
103105  1  0
105106  1  0
106107  1  0
107108  1  0
107109  2  0
109110  1  0
110111  1  0
111112  2  3
112113  1  0
113114  3  0
112115  1  0
115116  3  0
 11  2  1  0
 28 17  1  0
 37 31  2  0
 79 38  1  0
 91 80  1  0
100 94  2  0
111102  1  0
 10  5  2  0
 33 27  1  0
 48 41  1  0
 56 49  1  0
 78 57  2  0
 96 90  1  0
110105  2  0
 69 62  1  0
 77 70  1  0
  1117  1  0
  8118  1  0
  8119  1  0
  8120  1  0
  9121  1  0
 20122  1  0
 20123  1  0
 21124  1  0
 21125  1  0
 21126  1  0
 24127  1  0
 24128  1  0
 25129  1  0
 25130  1  0
 25131  1  0
 35132  1  0
 37133  1  0
 42134  1  0
 43135  1  0
 46136  1  0
 46137  1  0
 46138  1  0
 47139  1  0
 48140  1  0
 50141  1  0
 51142  1  0
 54143  1  0
 54144  1  0
 54145  1  0
 55146  1  0
 56147  1  0
 63148  1  0
 64149  1  0
 67150  1  0
 67151  1  0
 67152  1  0
 68153  1  0
 69154  1  0
 71155  1  0
 72156  1  0
 75157  1  0
 75158  1  0
 75159  1  0
 76160  1  0
 77161  1  0
 83162  1  0
 83163  1  0
 84164  1  0
 84165  1  0
 84166  1  0
 87167  1  0
 87168  1  0
 88169  1  0
 88170  1  0
 88171  1  0
 98172  1  0
100173  1  0
101174  1  0
108175  1  0
108176  1  0
108177  1  0
109178  1  0
M  END

