
     RDKit          3D

207224  0  0  0  0  0  0  0  0999 V2000
   -5.0988    3.9344    0.1353 C   0  0  0  0  0  0  0  0  0  0  0  0
   -4.8160    5.2434    0.2148 C   0  0  0  0  0  0  0  0  0  0  0  0
   -4.5286    6.1408   -0.9102 C   0  0  0  0  0  0  0  0  0  0  0  0
   -4.4987    5.8332   -2.1225 O   0  0  0  0  0  0  0  0  0  0  0  0
   -4.4719    7.5037   -0.4193 C   0  0  0  0  0  0  0  0  0  0  0  0
   -4.2108    8.6660   -1.1432 C   0  0  0  0  0  0  0  0  0  0  0  0
   -4.2221    9.8932   -0.4633 C   0  0  0  0  0  0  0  0  0  0  0  0
   -3.9168   11.3814   -1.3431 Cl  0  0  0  0  0  0  0  0  0  0  0  0
   -4.5115    9.9308    0.9092 C   0  0  0  0  0  0  0  0  0  0  0  0
   -4.7781    8.7448    1.6162 C   0  0  0  0  0  0  0  0  0  0  0  0
   -4.7346    7.5190    0.9353 C   0  0  0  0  0  0  0  0  0  0  0  0
   -4.9268    6.1192    1.4312 C   0  0  0  0  0  0  0  0  0  0  0  0
   -4.9534    5.7159    2.7317 C   0  0  0  0  0  0  0  0  0  0  0  0
   -4.9042    4.3375    3.1303 C   0  0  0  0  0  0  0  0  0  0  0  0
   -4.8626    3.2289    3.4910 N   0  0  0  0  0  0  0  0  0  0  0  0
   -4.8955    6.6395    3.8364 C   0  0  0  0  0  0  0  0  0  0  0  0
   -4.8489    7.3664    4.7425 N   0  0  0  0  0  0  0  0  0  0  0  0
   -4.6176    2.9747   -0.8897 C   0  0  0  0  0  0  0  0  0  0  0  0
   -3.2522    2.6857   -1.1298 C   0  0  0  0  0  0  0  0  0  0  0  0
   -2.2869    3.6742   -1.5715 N   0  0  0  0  0  0  0  0  0  0  0  0
   -1.2165    3.9944   -0.6527 C   0  0  0  0  0  0  0  0  0  0  0  0
   -1.3989    5.0314    0.2807 C   0  0  0  0  0  0  0  0  0  0  0  0
   -0.6478    5.0812    1.4517 C   0  0  0  0  0  0  0  0  0  0  0  0
    0.2629    4.0775    1.7413 C   0  0  0  0  0  0  0  0  0  0  0  0
    1.1810    4.0625    3.2935 S   0  0  0  0  0  0  0  0  0  0  0  0
    2.4400    5.2300    2.6900 C   0  0  0  0  0  0  0  0  0  0  0  0
    0.5268    3.0850    0.7733 C   0  0  0  0  0  0  0  0  0  0  0  0
   -0.1848    3.0730   -0.4153 C   0  0  0  0  0  0  0  0  0  0  0  0
   -2.1726    3.8641   -3.0119 C   0  0  0  0  0  0  0  0  0  0  0  0
   -3.3430    3.8676   -3.8230 C   0  0  0  0  0  0  0  0  0  0  0  0
   -3.2612    3.9489   -5.2048 C   0  0  0  0  0  0  0  0  0  0  0  0
   -2.0286    3.8883   -5.8263 C   0  0  0  0  0  0  0  0  0  0  0  0
   -1.9362    3.9335   -7.6208 S   0  0  0  0  0  0  0  0  0  0  0  0
   -2.5521    2.2349   -7.8564 C   0  0  0  0  0  0  0  0  0  0  0  0
   -0.8557    3.8850   -5.0581 C   0  0  0  0  0  0  0  0  0  0  0  0
   -0.9304    3.8808   -3.6629 C   0  0  0  0  0  0  0  0  0  0  0  0
   -3.0499    1.3339   -1.4286 C   0  0  0  0  0  0  0  0  0  0  0  0
   -1.7546    0.3692   -1.1212 S   0  0  0  0  0  0  0  0  0  0  0  0
   -2.5888   -1.1087   -1.1518 C   0  0  0  0  0  0  0  0  0  0  0  0
   -3.9325   -0.8391   -1.4179 C   0  0  0  0  0  0  0  0  0  0  0  0
   -5.0089   -1.7999   -1.3729 N   0  0  0  0  0  0  0  0  0  0  0  0
   -6.2650   -1.4799   -1.9959 C   0  0  0  0  0  0  0  0  0  0  0  0
   -7.4248   -1.3178   -1.2152 C   0  0  0  0  0  0  0  0  0  0  0  0
   -8.6282   -0.9192   -1.8089 C   0  0  0  0  0  0  0  0  0  0  0  0
   -8.6819   -0.7110   -3.1872 C   0  0  0  0  0  0  0  0  0  0  0  0
  -10.2430   -0.2575   -3.9636 S   0  0  0  0  0  0  0  0  0  0  0  0
   -9.9379    1.5324   -3.8617 C   0  0  0  0  0  0  0  0  0  0  0  0
   -7.5364   -0.8944   -3.9732 C   0  0  0  0  0  0  0  0  0  0  0  0
   -6.3301   -1.2561   -3.3755 C   0  0  0  0  0  0  0  0  0  0  0  0
   -4.9970   -2.9449   -0.4973 C   0  0  0  0  0  0  0  0  0  0  0  0
   -5.2509   -4.2129   -1.0425 C   0  0  0  0  0  0  0  0  0  0  0  0
   -5.6076   -5.2790   -0.2170 C   0  0  0  0  0  0  0  0  0  0  0  0
   -5.7068   -5.0983    1.1647 C   0  0  0  0  0  0  0  0  0  0  0  0
   -6.4915   -6.3711    2.1730 S   0  0  0  0  0  0  0  0  0  0  0  0
   -5.0624   -7.4902    2.1803 C   0  0  0  0  0  0  0  0  0  0  0  0
   -5.3697   -3.8669    1.7315 C   0  0  0  0  0  0  0  0  0  0  0  0
   -5.0485   -2.7843    0.8965 C   0  0  0  0  0  0  0  0  0  0  0  0
   -4.1575    0.5578   -1.4756 C   0  0  0  0  0  0  0  0  0  0  0  0
   -5.4773    1.5159   -1.0812 S   0  0  0  0  0  0  0  0  0  0  0  0
   -1.8261   -2.3517   -1.3451 C   0  0  0  0  0  0  0  0  0  0  0  0
   -1.2332   -3.1331   -0.3177 C   0  0  0  0  0  0  0  0  0  0  0  0
   -1.6916   -3.2784    1.0554 N   0  0  0  0  0  0  0  0  0  0  0  0
   -1.3321   -2.2090    1.9853 C   0  0  0  0  0  0  0  0  0  0  0  0
   -2.0025   -0.9745    1.9650 C   0  0  0  0  0  0  0  0  0  0  0  0
   -1.6720    0.0356    2.8720 C   0  0  0  0  0  0  0  0  0  0  0  0
   -0.8331   -0.2476    3.9430 C   0  0  0  0  0  0  0  0  0  0  0  0
   -0.6038    0.9819    5.2441 S   0  0  0  0  0  0  0  0  0  0  0  0
   -2.2154    0.6313    6.0142 C   0  0  0  0  0  0  0  0  0  0  0  0
   -0.1985   -1.4858    4.0091 C   0  0  0  0  0  0  0  0  0  0  0  0
   -0.3753   -2.4249    2.9956 C   0  0  0  0  0  0  0  0  0  0  0  0
   -1.8485   -4.6501    1.5700 C   0  0  0  0  0  0  0  0  0  0  0  0
   -2.0132   -4.8998    2.9499 C   0  0  0  0  0  0  0  0  0  0  0  0
   -1.8169   -6.1896    3.4757 C   0  0  0  0  0  0  0  0  0  0  0  0
   -1.5635   -7.2627    2.6239 C   0  0  0  0  0  0  0  0  0  0  0  0
   -1.4108   -8.9329    3.2795 S   0  0  0  0  0  0  0  0  0  0  0  0
    0.4093   -8.9430    3.2448 C   0  0  0  0  0  0  0  0  0  0  0  0
   -1.5661   -7.0635    1.2432 C   0  0  0  0  0  0  0  0  0  0  0  0
   -1.7119   -5.7760    0.7175 C   0  0  0  0  0  0  0  0  0  0  0  0
   -0.0082   -3.6583   -0.7434 C   0  0  0  0  0  0  0  0  0  0  0  0
    1.2660   -4.2984    0.1103 S   0  0  0  0  0  0  0  0  0  0  0  0
    2.4540   -3.9754   -1.0770 C   0  0  0  0  0  0  0  0  0  0  0  0
    1.7967   -3.4201   -2.1976 C   0  0  0  0  0  0  0  0  0  0  0  0
    2.4445   -2.9518   -3.3978 N   0  0  0  0  0  0  0  0  0  0  0  0
    2.6470   -3.8678   -4.4947 C   0  0  0  0  0  0  0  0  0  0  0  0
    3.8645   -3.8435   -5.1943 C   0  0  0  0  0  0  0  0  0  0  0  0
    3.9486   -4.3852   -6.4802 C   0  0  0  0  0  0  0  0  0  0  0  0
    2.8171   -4.9487   -7.0723 C   0  0  0  0  0  0  0  0  0  0  0  0
    2.8555   -5.4310   -8.8002 S   0  0  0  0  0  0  0  0  0  0  0  0
    2.5279   -3.7475   -9.4154 C   0  0  0  0  0  0  0  0  0  0  0  0
    1.6354   -5.0753   -6.3387 C   0  0  0  0  0  0  0  0  0  0  0  0
    1.5477   -4.5350   -5.0537 C   0  0  0  0  0  0  0  0  0  0  0  0
    2.6321   -1.5396   -3.6744 C   0  0  0  0  0  0  0  0  0  0  0  0
    2.4680   -1.0308   -4.9834 C   0  0  0  0  0  0  0  0  0  0  0  0
    2.9350    0.2410   -5.3220 C   0  0  0  0  0  0  0  0  0  0  0  0
    3.5213    1.0517   -4.3508 C   0  0  0  0  0  0  0  0  0  0  0  0
    4.3395    2.5933   -4.8122 S   0  0  0  0  0  0  0  0  0  0  0  0
    2.8128    3.5549   -4.9083 C   0  0  0  0  0  0  0  0  0  0  0  0
    3.5687    0.6145   -3.0208 C   0  0  0  0  0  0  0  0  0  0  0  0
    3.1194   -0.6711   -2.6975 C   0  0  0  0  0  0  0  0  0  0  0  0
    0.4239   -3.2956   -1.9704 C   0  0  0  0  0  0  0  0  0  0  0  0
   -0.7565   -2.3638   -2.6810 S   0  0  0  0  0  0  0  0  0  0  0  0
    3.7763   -3.5388   -0.5886 C   0  0  0  0  0  0  0  0  0  0  0  0
    3.8297   -2.4958    0.3705 C   0  0  0  0  0  0  0  0  0  0  0  0
    2.7169   -1.7556    0.6346 N   0  0  0  0  0  0  0  0  0  0  0  0
    2.7171   -0.7778    1.5791 C   0  0  0  0  0  0  0  0  0  0  0  0
    3.8647   -0.5692    2.3419 C   0  0  0  0  0  0  0  0  0  0  0  0
    3.8475    0.3862    3.3613 O   0  0  0  0  0  0  0  0  0  0  0  0
    4.9085    0.5404    4.3083 C   0  0  0  0  0  0  0  0  0  0  0  0
    5.0077   -0.6844    5.2243 C   0  0  0  0  0  0  0  0  0  0  0  0
    4.9821   -1.3018    2.0792 N   0  0  0  0  0  0  0  0  0  0  0  0
    5.0096   -2.2372    1.0861 C   0  0  0  0  0  0  0  0  0  0  0  0
    6.1618   -3.0125    0.8437 C   0  0  0  0  0  0  0  0  0  0  0  0
    6.1164   -4.0215   -0.1364 C   0  0  0  0  0  0  0  0  0  0  0  0
    4.9358   -4.2875   -0.8377 C   0  0  0  0  0  0  0  0  0  0  0  0
    7.3567   -2.8854    1.7118 C   0  0  0  0  0  0  0  0  0  0  0  0
    7.8887   -1.7131    2.0908 C   0  0  0  0  0  0  0  0  0  0  0  0
    7.7453   -0.4304    1.3890 C   0  0  0  0  0  0  0  0  0  0  0  0
    7.0719   -0.2255    0.3416 O   0  0  0  0  0  0  0  0  0  0  0  0
    8.6131    0.5319    2.0242 C   0  0  0  0  0  0  0  0  0  0  0  0
    8.8491    1.8584    1.6535 C   0  0  0  0  0  0  0  0  0  0  0  0
    9.8164    2.5985    2.3524 C   0  0  0  0  0  0  0  0  0  0  0  0
   10.0259    3.9325    1.9732 O   0  0  0  0  0  0  0  0  0  0  0  0
   10.9195    4.8096    2.6436 C   0  0  0  0  0  0  0  0  0  0  0  0
   10.5379    1.9703    3.4023 C   0  0  0  0  0  0  0  0  0  0  0  0
   10.2870    0.6360    3.7536 C   0  0  0  0  0  0  0  0  0  0  0  0
    9.2939   -0.0696    3.0649 C   0  0  0  0  0  0  0  0  0  0  0  0
    8.8195   -1.4710    3.2362 C   0  0  0  0  0  0  0  0  0  0  0  0
    8.9367   -2.2204    4.3600 C   0  0  0  0  0  0  0  0  0  0  0  0
    8.2414   -3.4727    4.5334 C   0  0  0  0  0  0  0  0  0  0  0  0
    7.6882   -4.4794    4.6904 N   0  0  0  0  0  0  0  0  0  0  0  0
    9.6264   -1.7511    5.5447 C   0  0  0  0  0  0  0  0  0  0  0  0
   10.1765   -1.3859    6.4967 N   0  0  0  0  0  0  0  0  0  0  0  0
   -5.6444    3.4662    0.9334 H   0  0  0  0  0  0  0  0  0  0  0  0
   -3.9835    8.6250   -2.1998 H   0  0  0  0  0  0  0  0  0  0  0  0
   -4.5352   10.8802    1.4298 H   0  0  0  0  0  0  0  0  0  0  0  0
   -4.9997    8.8345    2.6615 H   0  0  0  0  0  0  0  0  0  0  0  0
   -2.1444    5.7891    0.1084 H   0  0  0  0  0  0  0  0  0  0  0  0
   -0.8354    5.8697    2.1809 H   0  0  0  0  0  0  0  0  0  0  0  0
    2.7400    4.9764    1.6548 H   0  0  0  0  0  0  0  0  0  0  0  0
    2.0004    6.2600    2.7352 H   0  0  0  0  0  0  0  0  0  0  0  0
    3.3205    5.1693    3.3537 H   0  0  0  0  0  0  0  0  0  0  0  0
    1.2774    2.3321    0.9654 H   0  0  0  0  0  0  0  0  0  0  0  0
    0.0433    2.3150   -1.1443 H   0  0  0  0  0  0  0  0  0  0  0  0
   -4.3293    3.7841   -3.3780 H   0  0  0  0  0  0  0  0  0  0  0  0
   -4.1786    3.9771   -5.7885 H   0  0  0  0  0  0  0  0  0  0  0  0
   -3.5168    2.0975   -7.3318 H   0  0  0  0  0  0  0  0  0  0  0  0
   -2.7115    2.0463   -8.9384 H   0  0  0  0  0  0  0  0  0  0  0  0
   -1.8083    1.5142   -7.4640 H   0  0  0  0  0  0  0  0  0  0  0  0
    0.1028    3.8807   -5.5467 H   0  0  0  0  0  0  0  0  0  0  0  0
   -0.0199    3.8437   -3.0922 H   0  0  0  0  0  0  0  0  0  0  0  0
   -7.3872   -1.4608   -0.1504 H   0  0  0  0  0  0  0  0  0  0  0  0
   -9.5123   -0.7829   -1.1943 H   0  0  0  0  0  0  0  0  0  0  0  0
   -9.8941    1.8560   -2.8011 H   0  0  0  0  0  0  0  0  0  0  0  0
  -10.7721    2.0680   -4.3606 H   0  0  0  0  0  0  0  0  0  0  0  0
   -8.9849    1.7926   -4.3719 H   0  0  0  0  0  0  0  0  0  0  0  0
   -7.5802   -0.7491   -5.0474 H   0  0  0  0  0  0  0  0  0  0  0  0
   -5.4443   -1.3469   -3.9808 H   0  0  0  0  0  0  0  0  0  0  0  0
   -5.2656   -4.3451   -2.1146 H   0  0  0  0  0  0  0  0  0  0  0  0
   -5.9007   -6.2175   -0.6617 H   0  0  0  0  0  0  0  0  0  0  0  0
   -4.8225   -7.8362    1.1489 H   0  0  0  0  0  0  0  0  0  0  0  0
   -4.1962   -6.9608    2.6133 H   0  0  0  0  0  0  0  0  0  0  0  0
   -5.2893   -8.3772    2.8047 H   0  0  0  0  0  0  0  0  0  0  0  0
   -5.4761   -3.6926    2.7956 H   0  0  0  0  0  0  0  0  0  0  0  0
   -4.9500   -1.8029    1.3329 H   0  0  0  0  0  0  0  0  0  0  0  0
   -2.8244   -0.7762    1.3040 H   0  0  0  0  0  0  0  0  0  0  0  0
   -2.1602    0.9955    2.7963 H   0  0  0  0  0  0  0  0  0  0  0  0
   -3.0376    0.6994    5.2733 H   0  0  0  0  0  0  0  0  0  0  0  0
   -2.2136   -0.3783    6.4791 H   0  0  0  0  0  0  0  0  0  0  0  0
   -2.4043    1.3868    6.8063 H   0  0  0  0  0  0  0  0  0  0  0  0
    0.4076   -1.7508    4.8561 H   0  0  0  0  0  0  0  0  0  0  0  0
    0.1630   -3.3625    3.0352 H   0  0  0  0  0  0  0  0  0  0  0  0
   -2.2667   -4.1069    3.6304 H   0  0  0  0  0  0  0  0  0  0  0  0
   -1.8609   -6.3408    4.5493 H   0  0  0  0  0  0  0  0  0  0  0  0
    0.7689   -9.9973    3.3418 H   0  0  0  0  0  0  0  0  0  0  0  0
    0.7995   -8.3498    4.0968 H   0  0  0  0  0  0  0  0  0  0  0  0
    0.8096   -8.5159    2.2935 H   0  0  0  0  0  0  0  0  0  0  0  0
   -1.4064   -7.8985    0.5769 H   0  0  0  0  0  0  0  0  0  0  0  0
   -1.6644   -5.6767   -0.3569 H   0  0  0  0  0  0  0  0  0  0  0  0
    4.7158   -3.3089   -4.7895 H   0  0  0  0  0  0  0  0  0  0  0  0
    4.8721   -4.2897   -7.0413 H   0  0  0  0  0  0  0  0  0  0  0  0
    1.7067   -3.2688   -8.8460 H   0  0  0  0  0  0  0  0  0  0  0  0
    3.4422   -3.1242   -9.3142 H   0  0  0  0  0  0  0  0  0  0  0  0
    2.2375   -3.7957  -10.4821 H   0  0  0  0  0  0  0  0  0  0  0  0
    0.7610   -5.5242   -6.7871 H   0  0  0  0  0  0  0  0  0  0  0  0
    0.5943   -4.5500   -4.5445 H   0  0  0  0  0  0  0  0  0  0  0  0
    2.0436   -1.6338   -5.7622 H   0  0  0  0  0  0  0  0  0  0  0  0
    2.8638    0.5902   -6.3421 H   0  0  0  0  0  0  0  0  0  0  0  0
    2.2792    3.2746   -5.8364 H   0  0  0  0  0  0  0  0  0  0  0  0
    2.1757    3.3642   -4.0267 H   0  0  0  0  0  0  0  0  0  0  0  0
    3.0622    4.6285   -4.9472 H   0  0  0  0  0  0  0  0  0  0  0  0
    4.0151    1.2422   -2.2481 H   0  0  0  0  0  0  0  0  0  0  0  0
    3.2417   -0.9994   -1.6931 H   0  0  0  0  0  0  0  0  0  0  0  0
    1.8086   -0.2156    1.7891 H   0  0  0  0  0  0  0  0  0  0  0  0
    5.8704    0.7050    3.7777 H   0  0  0  0  0  0  0  0  0  0  0  0
    4.6931    1.4414    4.9142 H   0  0  0  0  0  0  0  0  0  0  0  0
    5.5572   -0.4246    6.1541 H   0  0  0  0  0  0  0  0  0  0  0  0
    3.9972   -1.0513    5.5019 H   0  0  0  0  0  0  0  0  0  0  0  0
    5.5540   -1.5037    4.7114 H   0  0  0  0  0  0  0  0  0  0  0  0
    6.9961   -4.6330   -0.3105 H   0  0  0  0  0  0  0  0  0  0  0  0
    4.9183   -5.1163   -1.5361 H   0  0  0  0  0  0  0  0  0  0  0  0
    7.7691   -3.8066    2.0923 H   0  0  0  0  0  0  0  0  0  0  0  0
    8.2974    2.2986    0.8280 H   0  0  0  0  0  0  0  0  0  0  0  0
   11.9622    4.4283    2.5627 H   0  0  0  0  0  0  0  0  0  0  0  0
   10.6346    4.9051    3.7121 H   0  0  0  0  0  0  0  0  0  0  0  0
   10.8685    5.8096    2.1732 H   0  0  0  0  0  0  0  0  0  0  0  0
   11.3087    2.5122    3.9432 H   0  0  0  0  0  0  0  0  0  0  0  0
   10.8960    0.1857    4.5090 H   0  0  0  0  0  0  0  0  0  0  0  0
  1  2  2  3
  2  3  1  0
  3  4  2  0
  3  5  1  0
  5  6  2  0
  6  7  1  0
  7  8  1  0
  7  9  2  0
  9 10  1  0
 10 11  2  0
 11 12  1  0
 12 13  2  3
 13 14  1  0
 14 15  3  0
 13 16  1  0
 16 17  3  0
  1 18  1  0
 18 19  2  0
 19 20  1  0
 20 21  1  0
 21 22  2  0
 22 23  1  0
 23 24  2  0
 24 25  1  0
 25 26  1  0
 24 27  1  0
 27 28  2  0
 20 29  1  0
 29 30  2  0
 30 31  1  0
 31 32  2  0
 32 33  1  0
 33 34  1  0
 32 35  1  0
 35 36  2  0
 19 37  1  0
 37 38  1  0
 38 39  1  0
 39 40  2  0
 40 41  1  0
 41 42  1  0
 42 43  2  0
 43 44  1  0
 44 45  2  0
 45 46  1  0
 46 47  1  0
 45 48  1  0
 48 49  2  0
 41 50  1  0
 50 51  2  0
 51 52  1  0
 52 53  2  0
 53 54  1  0
 54 55  1  0
 53 56  1  0
 56 57  2  0
 40 58  1  0
 58 59  1  0
 39 60  1  0
 60 61  2  0
 61 62  1  0
 62 63  1  0
 63 64  2  0
 64 65  1  0
 65 66  2  0
 66 67  1  0
 67 68  1  0
 66 69  1  0
 69 70  2  0
 62 71  1  0
 71 72  2  0
 72 73  1  0
 73 74  2  0
 74 75  1  0
 75 76  1  0
 74 77  1  0
 77 78  2  0
 61 79  1  0
 79 80  1  0
 80 81  1  0
 81 82  2  0
 82 83  1  0
 83 84  1  0
 84 85  2  0
 85 86  1  0
 86 87  2  0
 87 88  1  0
 88 89  1  0
 87 90  1  0
 90 91  2  0
 83 92  1  0
 92 93  2  0
 93 94  1  0
 94 95  2  0
 95 96  1  0
 96 97  1  0
 95 98  1  0
 98 99  2  0
 82100  1  0
100101  1  0
 81102  1  0
102103  1  0
103104  2  0
104105  1  0
105106  2  0
106107  1  0
107108  1  0
108109  1  0
106110  1  0
110111  2  0
111112  1  0
112113  2  0
113114  1  0
112115  1  0
115116  2  3
116117  1  0
117118  2  0
117119  1  0
119120  2  0
120121  1  0
121122  1  0
122123  1  0
121124  2  0
124125  1  0
125126  2  0
126127  1  0
127128  2  3
128129  1  0
129130  3  0
128131  1  0
131132  3  0
 12  2  1  0
 59 18  1  0
101 60  1  0
114102  2  0
127116  1  0
 11  5  1  0
 28 21  1  0
 36 29  1  0
 58 37  2  0
 70 63  1  0
 78 71  1  0
100 79  2  0
111103  1  0
126119  1  0
 49 42  1  0
 57 50  1  0
 91 84  1  0
 99 92  1  0
  1133  1  0
  6134  1  0
  9135  1  0
 10136  1  0
 22137  1  0
 23138  1  0
 26139  1  0
 26140  1  0
 26141  1  0
 27142  1  0
 28143  1  0
 30144  1  0
 31145  1  0
 34146  1  0
 34147  1  0
 34148  1  0
 35149  1  0
 36150  1  0
 43151  1  0
 44152  1  0
 47153  1  0
 47154  1  0
 47155  1  0
 48156  1  0
 49157  1  0
 51158  1  0
 52159  1  0
 55160  1  0
 55161  1  0
 55162  1  0
 56163  1  0
 57164  1  0
 64165  1  0
 65166  1  0
 68167  1  0
 68168  1  0
 68169  1  0
 69170  1  0
 70171  1  0
 72172  1  0
 73173  1  0
 76174  1  0
 76175  1  0
 76176  1  0
 77177  1  0
 78178  1  0
 85179  1  0
 86180  1  0
 89181  1  0
 89182  1  0
 89183  1  0
 90184  1  0
 91185  1  0
 93186  1  0
 94187  1  0
 97188  1  0
 97189  1  0
 97190  1  0
 98191  1  0
 99192  1  0
105193  1  0
108194  1  0
108195  1  0
109196  1  0
109197  1  0
109198  1  0
113199  1  0
114200  1  0
115201  1  0
120202  1  0
123203  1  0
123204  1  0
123205  1  0
124206  1  0
125207  1  0
M  END

