
     RDKit          3D

206222  0  0  0  0  0  0  0  0999 V2000
    1.1113    5.0811    4.1632 C   0  0  0  0  0  0  0  0  0  0  0  0
    0.1768    6.0231    3.9241 C   0  0  0  0  0  0  0  0  0  0  0  0
    0.3621    7.4274    4.2993 C   0  0  0  0  0  0  0  0  0  0  0  0
    1.4615    8.0037    4.5040 O   0  0  0  0  0  0  0  0  0  0  0  0
   -0.9503    8.0245    4.4649 C   0  0  0  0  0  0  0  0  0  0  0  0
   -1.2736    9.2869    4.9615 C   0  0  0  0  0  0  0  0  0  0  0  0
   -2.6268    9.5727    5.2113 C   0  0  0  0  0  0  0  0  0  0  0  0
   -3.0801   11.1355    5.8714 Cl  0  0  0  0  0  0  0  0  0  0  0  0
   -3.6078    8.5885    4.9955 C   0  0  0  0  0  0  0  0  0  0  0  0
   -3.2578    7.3358    4.4723 C   0  0  0  0  0  0  0  0  0  0  0  0
   -1.9161    7.0839    4.1663 C   0  0  0  0  0  0  0  0  0  0  0  0
   -1.2710    5.8566    3.6268 C   0  0  0  0  0  0  0  0  0  0  0  0
   -1.8121    5.0434    2.6877 C   0  0  0  0  0  0  0  0  0  0  0  0
   -0.9913    4.3093    1.7536 C   0  0  0  0  0  0  0  0  0  0  0  0
   -0.3477    3.7235    0.9914 N   0  0  0  0  0  0  0  0  0  0  0  0
   -3.2218    5.0276    2.4276 C   0  0  0  0  0  0  0  0  0  0  0  0
   -4.3603    5.0182    2.2202 N   0  0  0  0  0  0  0  0  0  0  0  0
    0.9245    3.6243    4.0242 C   0  0  0  0  0  0  0  0  0  0  0  0
   -0.1380    2.7933    4.4674 C   0  0  0  0  0  0  0  0  0  0  0  0
   -1.1513    3.1356    5.4563 N   0  0  0  0  0  0  0  0  0  0  0  0
   -1.0654    4.2745    6.3386 C   0  0  0  0  0  0  0  0  0  0  0  0
   -2.2349    4.9880    6.6531 C   0  0  0  0  0  0  0  0  0  0  0  0
   -2.2184    5.9881    7.6220 C   0  0  0  0  0  0  0  0  0  0  0  0
   -1.0415    6.2812    8.3103 C   0  0  0  0  0  0  0  0  0  0  0  0
   -1.0524    7.4993    9.6299 S   0  0  0  0  0  0  0  0  0  0  0  0
   -0.8244    8.9005    8.4918 C   0  0  0  0  0  0  0  0  0  0  0  0
    0.1311    5.5718    8.0140 C   0  0  0  0  0  0  0  0  0  0  0  0
    0.1182    4.5599    7.0467 C   0  0  0  0  0  0  0  0  0  0  0  0
   -2.0463    2.1108    5.9038 C   0  0  0  0  0  0  0  0  0  0  0  0
   -1.6820    1.3158    7.0024 C   0  0  0  0  0  0  0  0  0  0  0  0
   -2.4556    0.2129    7.3520 C   0  0  0  0  0  0  0  0  0  0  0  0
   -3.5831   -0.1143    6.5923 C   0  0  0  0  0  0  0  0  0  0  0  0
   -4.3851   -1.6964    6.8404 S   0  0  0  0  0  0  0  0  0  0  0  0
   -3.0781   -2.6025    5.9467 C   0  0  0  0  0  0  0  0  0  0  0  0
   -4.0126    0.7455    5.5694 C   0  0  0  0  0  0  0  0  0  0  0  0
   -3.2441    1.8605    5.2243 C   0  0  0  0  0  0  0  0  0  0  0  0
   -0.0351    1.5252    3.8463 C   0  0  0  0  0  0  0  0  0  0  0  0
   -1.0709    0.2121    3.5946 S   0  0  0  0  0  0  0  0  0  0  0  0
   -0.0748   -0.6115    2.4793 C   0  0  0  0  0  0  0  0  0  0  0  0
    1.0907    0.1710    2.3095 C   0  0  0  0  0  0  0  0  0  0  0  0
    2.1746   -0.1470    1.4225 N   0  0  0  0  0  0  0  0  0  0  0  0
    3.1773   -1.1134    1.8371 C   0  0  0  0  0  0  0  0  0  0  0  0
    3.2940   -1.5072    3.1894 C   0  0  0  0  0  0  0  0  0  0  0  0
    4.2798   -2.4133    3.5847 C   0  0  0  0  0  0  0  0  0  0  0  0
    5.1713   -2.9394    2.6426 C   0  0  0  0  0  0  0  0  0  0  0  0
    6.4638   -4.0716    3.1655 S   0  0  0  0  0  0  0  0  0  0  0  0
    7.6521   -2.7320    3.4996 C   0  0  0  0  0  0  0  0  0  0  0  0
    5.0506   -2.5799    1.2984 C   0  0  0  0  0  0  0  0  0  0  0  0
    4.0617   -1.6753    0.8984 C   0  0  0  0  0  0  0  0  0  0  0  0
    2.3824    0.7059    0.2759 C   0  0  0  0  0  0  0  0  0  0  0  0
    1.3264    0.9710   -0.6155 C   0  0  0  0  0  0  0  0  0  0  0  0
    1.5175    1.8360   -1.6969 C   0  0  0  0  0  0  0  0  0  0  0  0
    2.7625    2.4519   -1.8957 C   0  0  0  0  0  0  0  0  0  0  0  0
    3.0053    3.5622   -3.2860 S   0  0  0  0  0  0  0  0  0  0  0  0
    2.4048    5.0288   -2.3821 C   0  0  0  0  0  0  0  0  0  0  0  0
    3.8122    2.1981   -1.0123 C   0  0  0  0  0  0  0  0  0  0  0  0
    3.6205    1.3373    0.0755 C   0  0  0  0  0  0  0  0  0  0  0  0
    1.0619    1.3394    3.0704 C   0  0  0  0  0  0  0  0  0  0  0  0
    1.9872    2.7292    3.0413 S   0  0  0  0  0  0  0  0  0  0  0  0
   -0.5875   -1.5667    1.4677 C   0  0  0  0  0  0  0  0  0  0  0  0
   -1.7347   -1.2680    0.7007 C   0  0  0  0  0  0  0  0  0  0  0  0
   -3.0092   -0.8983    1.2604 N   0  0  0  0  0  0  0  0  0  0  0  0
   -3.7278    0.1744    0.6294 C   0  0  0  0  0  0  0  0  0  0  0  0
   -4.9571   -0.0760   -0.0116 C   0  0  0  0  0  0  0  0  0  0  0  0
   -5.6520    0.9629   -0.6316 C   0  0  0  0  0  0  0  0  0  0  0  0
   -5.1292    2.2592   -0.6175 C   0  0  0  0  0  0  0  0  0  0  0  0
   -6.0698    3.6128   -1.3397 S   0  0  0  0  0  0  0  0  0  0  0  0
   -7.1332    3.8039    0.1277 C   0  0  0  0  0  0  0  0  0  0  0  0
   -3.8892    2.5098   -0.0114 C   0  0  0  0  0  0  0  0  0  0  0  0
   -3.1907    1.4697    0.6128 C   0  0  0  0  0  0  0  0  0  0  0  0
   -3.7507   -1.8806    2.0254 C   0  0  0  0  0  0  0  0  0  0  0  0
   -4.8180   -1.4778    2.8485 C   0  0  0  0  0  0  0  0  0  0  0  0
   -5.6435   -2.4296    3.4641 C   0  0  0  0  0  0  0  0  0  0  0  0
   -5.4294   -3.7929    3.2538 C   0  0  0  0  0  0  0  0  0  0  0  0
   -6.6011   -4.9976    3.8875 S   0  0  0  0  0  0  0  0  0  0  0  0
   -5.6027   -5.4363    5.3396 C   0  0  0  0  0  0  0  0  0  0  0  0
   -4.3639   -4.2081    2.4478 C   0  0  0  0  0  0  0  0  0  0  0  0
   -3.5262   -3.2670    1.8484 C   0  0  0  0  0  0  0  0  0  0  0  0
   -1.6256   -1.7393   -0.6033 C   0  0  0  0  0  0  0  0  0  0  0  0
   -2.2117   -1.0881   -2.0251 S   0  0  0  0  0  0  0  0  0  0  0  0
   -1.0482   -1.8232   -3.0329 C   0  0  0  0  0  0  0  0  0  0  0  0
   -0.1997   -2.6135   -2.2234 C   0  0  0  0  0  0  0  0  0  0  0  0
    0.4476   -3.8012   -2.7123 N   0  0  0  0  0  0  0  0  0  0  0  0
    1.8452   -3.7992   -3.0869 C   0  0  0  0  0  0  0  0  0  0  0  0
    2.3246   -4.7022   -4.0589 C   0  0  0  0  0  0  0  0  0  0  0  0
    3.6853   -4.7585   -4.3702 C   0  0  0  0  0  0  0  0  0  0  0  0
    4.5857   -3.9083   -3.7246 C   0  0  0  0  0  0  0  0  0  0  0  0
    6.3454   -4.0360   -4.0590 S   0  0  0  0  0  0  0  0  0  0  0  0
    6.2783   -2.9574   -5.5213 C   0  0  0  0  0  0  0  0  0  0  0  0
    4.1185   -2.9825   -2.7886 C   0  0  0  0  0  0  0  0  0  0  0  0
    2.7552   -2.9155   -2.4807 C   0  0  0  0  0  0  0  0  0  0  0  0
   -0.3277   -5.0240   -2.7222 C   0  0  0  0  0  0  0  0  0  0  0  0
    0.2243   -6.2233   -2.2361 C   0  0  0  0  0  0  0  0  0  0  0  0
   -0.5173   -7.4099   -2.2718 C   0  0  0  0  0  0  0  0  0  0  0  0
   -1.8261   -7.4083   -2.7690 C   0  0  0  0  0  0  0  0  0  0  0  0
   -2.7819   -8.9264   -2.8250 S   0  0  0  0  0  0  0  0  0  0  0  0
   -3.4958   -8.6655   -1.1685 C   0  0  0  0  0  0  0  0  0  0  0  0
   -2.3908   -6.2172   -3.2283 C   0  0  0  0  0  0  0  0  0  0  0  0
   -1.6538   -5.0315   -3.1961 C   0  0  0  0  0  0  0  0  0  0  0  0
   -0.5342   -2.4906   -0.8731 C   0  0  0  0  0  0  0  0  0  0  0  0
    0.4414   -2.5226    0.4854 S   0  0  0  0  0  0  0  0  0  0  0  0
   -0.5935   -1.1899   -4.2965 C   0  0  0  0  0  0  0  0  0  0  0  0
   -0.0255   -1.9447   -5.3464 C   0  0  0  0  0  0  0  0  0  0  0  0
   -0.2197   -3.3347   -5.3397 O   0  0  0  0  0  0  0  0  0  0  0  0
   -0.4662   -4.1596   -6.4729 C   0  0  0  0  0  0  0  0  0  0  0  0
   -1.7089   -3.6907   -7.2287 C   0  0  0  0  0  0  0  0  0  0  0  0
    0.7480   -1.2870   -6.3318 C   0  0  0  0  0  0  0  0  0  0  0  0
    1.4254   -2.0398   -7.2987 O   0  0  0  0  0  0  0  0  0  0  0  0
    1.2062   -1.8978   -8.7025 C   0  0  0  0  0  0  0  0  0  0  0  0
    2.4518   -1.3612   -9.4113 C   0  0  0  0  0  0  0  0  0  0  0  0
    0.9163    0.1139   -6.2614 C   0  0  0  0  0  0  0  0  0  0  0  0
    0.1858    0.8600   -5.3428 C   0  0  0  0  0  0  0  0  0  0  0  0
   -0.5605    0.2159   -4.3620 C   0  0  0  0  0  0  0  0  0  0  0  0
    2.0347    0.7741   -6.9443 C   0  0  0  0  0  0  0  0  0  0  0  0
    3.2117    0.9836   -6.3184 C   0  0  0  0  0  0  0  0  0  0  0  0
    3.5495    0.5068   -4.9632 C   0  0  0  0  0  0  0  0  0  0  0  0
    2.7645   -0.0289   -4.1389 O   0  0  0  0  0  0  0  0  0  0  0  0
    4.9569    0.7061   -4.7430 C   0  0  0  0  0  0  0  0  0  0  0  0
    5.7037    0.3622   -3.6141 C   0  0  0  0  0  0  0  0  0  0  0  0
    7.0896    0.5483   -3.6498 C   0  0  0  0  0  0  0  0  0  0  0  0
    8.0600    0.1115   -2.2540 Cl  0  0  0  0  0  0  0  0  0  0  0  0
    7.7015    1.0689   -4.8033 C   0  0  0  0  0  0  0  0  0  0  0  0
    6.9281    1.4346   -5.9183 C   0  0  0  0  0  0  0  0  0  0  0  0
    5.5292    1.2706   -5.8693 C   0  0  0  0  0  0  0  0  0  0  0  0
    4.4684    1.5736   -6.8783 C   0  0  0  0  0  0  0  0  0  0  0  0
    4.5876    2.3897   -7.9582 C   0  0  0  0  0  0  0  0  0  0  0  0
    5.8447    2.9720   -8.3538 C   0  0  0  0  0  0  0  0  0  0  0  0
    6.8491    3.4541   -8.6814 N   0  0  0  0  0  0  0  0  0  0  0  0
    3.4555    2.8196   -8.7386 C   0  0  0  0  0  0  0  0  0  0  0  0
    2.5444    3.1686   -9.3622 N   0  0  0  0  0  0  0  0  0  0  0  0
    2.1136    5.4071    4.4083 H   0  0  0  0  0  0  0  0  0  0  0  0
   -0.5033   10.0107    5.1793 H   0  0  0  0  0  0  0  0  0  0  0  0
   -4.6427    8.7957    5.2366 H   0  0  0  0  0  0  0  0  0  0  0  0
   -4.0187    6.5812    4.3543 H   0  0  0  0  0  0  0  0  0  0  0  0
   -3.1654    4.7487    6.1508 H   0  0  0  0  0  0  0  0  0  0  0  0
   -3.1306    6.5238    7.8456 H   0  0  0  0  0  0  0  0  0  0  0  0
    0.1219    8.7827    7.9147 H   0  0  0  0  0  0  0  0  0  0  0  0
   -1.6806    8.9491    7.7860 H   0  0  0  0  0  0  0  0  0  0  0  0
   -0.7902    9.8460    9.0751 H   0  0  0  0  0  0  0  0  0  0  0  0
    1.0406    5.7795    8.5568 H   0  0  0  0  0  0  0  0  0  0  0  0
    1.0136    3.9755    6.8730 H   0  0  0  0  0  0  0  0  0  0  0  0
   -0.7681    1.5225    7.5459 H   0  0  0  0  0  0  0  0  0  0  0  0
   -2.1325   -0.4379    8.1554 H   0  0  0  0  0  0  0  0  0  0  0  0
   -3.3196   -3.6833    5.9269 H   0  0  0  0  0  0  0  0  0  0  0  0
   -2.1046   -2.4737    6.4660 H   0  0  0  0  0  0  0  0  0  0  0  0
   -2.9886   -2.2282    4.9060 H   0  0  0  0  0  0  0  0  0  0  0  0
   -4.9207    0.5290    5.0207 H   0  0  0  0  0  0  0  0  0  0  0  0
   -3.5396    2.4894    4.3922 H   0  0  0  0  0  0  0  0  0  0  0  0
    2.6352   -1.1053    3.9468 H   0  0  0  0  0  0  0  0  0  0  0  0
    4.3647   -2.6913    4.6284 H   0  0  0  0  0  0  0  0  0  0  0  0
    8.5980   -3.1698    3.8817 H   0  0  0  0  0  0  0  0  0  0  0  0
    7.2438   -2.0376    4.2669 H   0  0  0  0  0  0  0  0  0  0  0  0
    7.8677   -2.1698    2.5642 H   0  0  0  0  0  0  0  0  0  0  0  0
    5.7317   -2.9840    0.5583 H   0  0  0  0  0  0  0  0  0  0  0  0
    4.0017   -1.4059   -0.1476 H   0  0  0  0  0  0  0  0  0  0  0  0
    0.3535    0.5271   -0.4611 H   0  0  0  0  0  0  0  0  0  0  0  0
    0.6985    2.0417   -2.3744 H   0  0  0  0  0  0  0  0  0  0  0  0
    1.3281    4.9116   -2.1346 H   0  0  0  0  0  0  0  0  0  0  0  0
    2.9889    5.1852   -1.4483 H   0  0  0  0  0  0  0  0  0  0  0  0
    2.5204    5.9236   -3.0313 H   0  0  0  0  0  0  0  0  0  0  0  0
    4.7703    2.6863   -1.1449 H   0  0  0  0  0  0  0  0  0  0  0  0
    4.4336    1.1915    0.7845 H   0  0  0  0  0  0  0  0  0  0  0  0
   -5.3772   -1.0750   -0.0321 H   0  0  0  0  0  0  0  0  0  0  0  0
   -6.6036    0.7617   -1.1099 H   0  0  0  0  0  0  0  0  0  0  0  0
   -7.7678    2.8990    0.2544 H   0  0  0  0  0  0  0  0  0  0  0  0
   -7.7872    4.6926   -0.0092 H   0  0  0  0  0  0  0  0  0  0  0  0
   -6.5135    3.9472    1.0382 H   0  0  0  0  0  0  0  0  0  0  0  0
   -3.4664    3.5020   -0.0272 H   0  0  0  0  0  0  0  0  0  0  0  0
   -2.2446    1.6699    1.0969 H   0  0  0  0  0  0  0  0  0  0  0  0
   -5.0421   -0.4278    2.9742 H   0  0  0  0  0  0  0  0  0  0  0  0
   -6.4788   -2.0972    4.0717 H   0  0  0  0  0  0  0  0  0  0  0  0
   -6.1173   -6.2582    5.8821 H   0  0  0  0  0  0  0  0  0  0  0  0
   -4.5983   -5.7898    5.0216 H   0  0  0  0  0  0  0  0  0  0  0  0
   -5.5124   -4.5618    6.0161 H   0  0  0  0  0  0  0  0  0  0  0  0
   -4.1965   -5.2599    2.2613 H   0  0  0  0  0  0  0  0  0  0  0  0
   -2.7396   -3.6231    1.1952 H   0  0  0  0  0  0  0  0  0  0  0  0
    1.6470   -5.3728   -4.5744 H   0  0  0  0  0  0  0  0  0  0  0  0
    4.0408   -5.4681   -5.1083 H   0  0  0  0  0  0  0  0  0  0  0  0
    5.8289   -1.9800   -5.2570 H   0  0  0  0  0  0  0  0  0  0  0  0
    7.3112   -2.7919   -5.8902 H   0  0  0  0  0  0  0  0  0  0  0  0
    5.6755   -3.4360   -6.3220 H   0  0  0  0  0  0  0  0  0  0  0  0
    4.8178   -2.3315   -2.2804 H   0  0  0  0  0  0  0  0  0  0  0  0
    2.4202   -2.1965   -1.7480 H   0  0  0  0  0  0  0  0  0  0  0  0
    1.2274   -6.2396   -1.8301 H   0  0  0  0  0  0  0  0  0  0  0  0
   -0.0788   -8.3283   -1.9085 H   0  0  0  0  0  0  0  0  0  0  0  0
   -4.2569   -9.4491   -0.9712 H   0  0  0  0  0  0  0  0  0  0  0  0
   -2.6958   -8.7399   -0.4027 H   0  0  0  0  0  0  0  0  0  0  0  0
   -3.9868   -7.6695   -1.1082 H   0  0  0  0  0  0  0  0  0  0  0  0
   -3.4064   -6.2066   -3.6132 H   0  0  0  0  0  0  0  0  0  0  0  0
   -2.1224   -4.1325   -3.5646 H   0  0  0  0  0  0  0  0  0  0  0  0
   -0.6489   -5.1950   -6.1088 H   0  0  0  0  0  0  0  0  0  0  0  0
    0.4168   -4.2025   -7.1407 H   0  0  0  0  0  0  0  0  0  0  0  0
   -1.5312   -2.6921   -7.6847 H   0  0  0  0  0  0  0  0  0  0  0  0
   -1.9527   -4.4181   -8.0291 H   0  0  0  0  0  0  0  0  0  0  0  0
   -2.5691   -3.6164   -6.5275 H   0  0  0  0  0  0  0  0  0  0  0  0
    0.3235   -1.2480   -8.9095 H   0  0  0  0  0  0  0  0  0  0  0  0
    0.9684   -2.9075   -9.1151 H   0  0  0  0  0  0  0  0  0  0  0  0
    3.3439   -1.4124   -8.7504 H   0  0  0  0  0  0  0  0  0  0  0  0
    2.2890   -0.3135   -9.7374 H   0  0  0  0  0  0  0  0  0  0  0  0
    2.6534   -1.9701  -10.3177 H   0  0  0  0  0  0  0  0  0  0  0  0
    0.3025    1.9354   -5.2845 H   0  0  0  0  0  0  0  0  0  0  0  0
   -1.0239    0.8197   -3.5893 H   0  0  0  0  0  0  0  0  0  0  0  0
    1.8845    1.0547   -7.9640 H   0  0  0  0  0  0  0  0  0  0  0  0
    5.2252   -0.0497   -2.7386 H   0  0  0  0  0  0  0  0  0  0  0  0
    8.7781    1.1803   -4.8447 H   0  0  0  0  0  0  0  0  0  0  0  0
    7.4373    1.7931   -6.7998 H   0  0  0  0  0  0  0  0  0  0  0  0
  1  2  2  3
  2  3  1  0
  3  4  2  0
  3  5  1  0
  5  6  2  0
  6  7  1  0
  7  8  1  0
  7  9  2  0
  9 10  1  0
 10 11  2  0
 11 12  1  0
 12 13  2  3
 13 14  1  0
 14 15  3  0
 13 16  1  0
 16 17  3  0
  1 18  1  0
 18 19  2  0
 19 20  1  0
 20 21  1  0
 21 22  2  0
 22 23  1  0
 23 24  2  0
 24 25  1  0
 25 26  1  0
 24 27  1  0
 27 28  2  0
 20 29  1  0
 29 30  2  0
 30 31  1  0
 31 32  2  0
 32 33  1  0
 33 34  1  0
 32 35  1  0
 35 36  2  0
 19 37  1  0
 37 38  1  0
 38 39  1  0
 39 40  2  0
 40 41  1  0
 41 42  1  0
 42 43  2  0
 43 44  1  0
 44 45  2  0
 45 46  1  0
 46 47  1  0
 45 48  1  0
 48 49  2  0
 41 50  1  0
 50 51  2  0
 51 52  1  0
 52 53  2  0
 53 54  1  0
 54 55  1  0
 53 56  1  0
 56 57  2  0
 40 58  1  0
 58 59  1  0
 39 60  1  0
 60 61  2  0
 61 62  1  0
 62 63  1  0
 63 64  2  0
 64 65  1  0
 65 66  2  0
 66 67  1  0
 67 68  1  0
 66 69  1  0
 69 70  2  0
 62 71  1  0
 71 72  2  0
 72 73  1  0
 73 74  2  0
 74 75  1  0
 75 76  1  0
 74 77  1  0
 77 78  2  0
 61 79  1  0
 79 80  1  0
 80 81  1  0
 81 82  2  0
 82 83  1  0
 83 84  1  0
 84 85  2  0
 85 86  1  0
 86 87  2  0
 87 88  1  0
 88 89  1  0
 87 90  1  0
 90 91  2  0
 83 92  1  0
 92 93  2  0
 93 94  1  0
 94 95  2  0
 95 96  1  0
 96 97  1  0
 95 98  1  0
 98 99  2  0
 82100  1  0
100101  1  0
 81102  1  0
102103  2  0
103104  1  0
104105  1  0
105106  1  0
103107  1  0
107108  1  0
108109  1  0
109110  1  0
107111  2  0
111112  1  0
112113  2  0
111114  1  0
114115  2  3
115116  1  0
116117  2  0
116118  1  0
118119  2  0
119120  1  0
120121  1  0
120122  2  0
122123  1  0
123124  2  0
124125  1  0
125126  2  3
126127  1  0
127128  3  0
126129  1  0
129130  3  0
 12  2  1  0
 59 18  1  0
101 60  1  0
113102  1  0
125115  1  0
 11  5  1  0
 28 21  1  0
 36 29  1  0
 58 37  2  0
 70 63  1  0
 78 71  1  0
100 79  2  0
124118  1  0
 49 42  1  0
 57 50  1  0
 91 84  1  0
 99 92  1  0
  1131  1  0
  6132  1  0
  9133  1  0
 10134  1  0
 22135  1  0
 23136  1  0
 26137  1  0
 26138  1  0
 26139  1  0
 27140  1  0
 28141  1  0
 30142  1  0
 31143  1  0
 34144  1  0
 34145  1  0
 34146  1  0
 35147  1  0
 36148  1  0
 43149  1  0
 44150  1  0
 47151  1  0
 47152  1  0
 47153  1  0
 48154  1  0
 49155  1  0
 51156  1  0
 52157  1  0
 55158  1  0
 55159  1  0
 55160  1  0
 56161  1  0
 57162  1  0
 64163  1  0
 65164  1  0
 68165  1  0
 68166  1  0
 68167  1  0
 69168  1  0
 70169  1  0
 72170  1  0
 73171  1  0
 76172  1  0
 76173  1  0
 76174  1  0
 77175  1  0
 78176  1  0
 85177  1  0
 86178  1  0
 89179  1  0
 89180  1  0
 89181  1  0
 90182  1  0
 91183  1  0
 93184  1  0
 94185  1  0
 97186  1  0
 97187  1  0
 97188  1  0
 98189  1  0
 99190  1  0
105191  1  0
105192  1  0
106193  1  0
106194  1  0
106195  1  0
109196  1  0
109197  1  0
110198  1  0
110199  1  0
110200  1  0
112201  1  0
113202  1  0
114203  1  0
119204  1  0
122205  1  0
123206  1  0
M  END

