
     RDKit          3D

224244  0  0  0  0  0  0  0  0999 V2000
    2.4086    8.9876   -0.9985 C   0  0  0  0  0  0  0  0  0  0  0  0
    2.4647    9.6518   -2.1710 C   0  0  0  0  0  0  0  0  0  0  0  0
    1.9768    9.1438   -3.4567 C   0  0  0  0  0  0  0  0  0  0  0  0
    1.2206    8.1502   -3.6301 O   0  0  0  0  0  0  0  0  0  0  0  0
    2.4345   10.0264   -4.5044 C   0  0  0  0  0  0  0  0  0  0  0  0
    2.3255    9.8438   -5.8846 C   0  0  0  0  0  0  0  0  0  0  0  0
    2.9404   10.7777   -6.7290 C   0  0  0  0  0  0  0  0  0  0  0  0
    2.8427   10.5737   -8.4659 Cl  0  0  0  0  0  0  0  0  0  0  0  0
    3.6613   11.8541   -6.1832 C   0  0  0  0  0  0  0  0  0  0  0  0
    3.7538   12.0153   -4.7907 C   0  0  0  0  0  0  0  0  0  0  0  0
    3.0995   11.1023   -3.9476 C   0  0  0  0  0  0  0  0  0  0  0  0
    3.0875   10.9871   -2.4560 C   0  0  0  0  0  0  0  0  0  0  0  0
    3.4415   11.9619   -1.5723 C   0  0  0  0  0  0  0  0  0  0  0  0
    3.8364   13.2821   -1.9876 C   0  0  0  0  0  0  0  0  0  0  0  0
    4.1501   14.3515   -2.2953 N   0  0  0  0  0  0  0  0  0  0  0  0
    3.3428   11.8095   -0.1460 C   0  0  0  0  0  0  0  0  0  0  0  0
    3.2734   11.7133    1.0044 N   0  0  0  0  0  0  0  0  0  0  0  0
    1.8881    7.6182   -0.8449 C   0  0  0  0  0  0  0  0  0  0  0  0
    0.9855    7.1939    0.1556 C   0  0  0  0  0  0  0  0  0  0  0  0
    0.1448    8.0879    0.9297 N   0  0  0  0  0  0  0  0  0  0  0  0
   -0.3787    7.7287    2.2259 C   0  0  0  0  0  0  0  0  0  0  0  0
    0.4201    7.0583    3.1700 C   0  0  0  0  0  0  0  0  0  0  0  0
   -0.0975    6.7225    4.4261 C   0  0  0  0  0  0  0  0  0  0  0  0
   -1.4018    7.0855    4.7675 C   0  0  0  0  0  0  0  0  0  0  0  0
   -2.0493    6.6947    6.3956 S   0  0  0  0  0  0  0  0  0  0  0  0
   -2.9085    5.1943    5.8314 C   0  0  0  0  0  0  0  0  0  0  0  0
   -2.1991    7.7709    3.8471 C   0  0  0  0  0  0  0  0  0  0  0  0
   -1.6953    8.0809    2.5814 C   0  0  0  0  0  0  0  0  0  0  0  0
   -0.2210    9.3716    0.3787 C   0  0  0  0  0  0  0  0  0  0  0  0
   -0.8398    9.4545   -0.8818 C   0  0  0  0  0  0  0  0  0  0  0  0
   -1.1121   10.6972   -1.4533 C   0  0  0  0  0  0  0  0  0  0  0  0
   -0.7732   11.8725   -0.7726 C   0  0  0  0  0  0  0  0  0  0  0  0
   -1.0777   13.4718   -1.5326 S   0  0  0  0  0  0  0  0  0  0  0  0
   -2.7397   13.6393   -0.8149 C   0  0  0  0  0  0  0  0  0  0  0  0
   -0.1805   11.7998    0.4923 C   0  0  0  0  0  0  0  0  0  0  0  0
    0.0877   10.5527    1.0704 C   0  0  0  0  0  0  0  0  0  0  0  0
    0.9040    5.7949    0.1722 C   0  0  0  0  0  0  0  0  0  0  0  0
    0.0495    4.6375    1.0449 S   0  0  0  0  0  0  0  0  0  0  0  0
    0.7006    3.2937    0.2105 C   0  0  0  0  0  0  0  0  0  0  0  0
    1.5475    3.7719   -0.8003 C   0  0  0  0  0  0  0  0  0  0  0  0
    1.9788    2.9954   -1.9307 N   0  0  0  0  0  0  0  0  0  0  0  0
    3.3900    2.9326   -2.2306 C   0  0  0  0  0  0  0  0  0  0  0  0
    4.3293    2.8253   -1.1869 C   0  0  0  0  0  0  0  0  0  0  0  0
    5.6994    2.8077   -1.4690 C   0  0  0  0  0  0  0  0  0  0  0  0
    6.1460    2.8913   -2.7874 C   0  0  0  0  0  0  0  0  0  0  0  0
    7.9078    2.9262   -3.1361 S   0  0  0  0  0  0  0  0  0  0  0  0
    8.0023    4.7418   -3.0461 C   0  0  0  0  0  0  0  0  0  0  0  0
    5.2215    2.9742   -3.8332 C   0  0  0  0  0  0  0  0  0  0  0  0
    3.8504    3.0090   -3.5553 C   0  0  0  0  0  0  0  0  0  0  0  0
    0.9855    2.3900   -2.7929 C   0  0  0  0  0  0  0  0  0  0  0  0
    1.2606    1.1967   -3.4845 C   0  0  0  0  0  0  0  0  0  0  0  0
    0.2865    0.6045   -4.2928 C   0  0  0  0  0  0  0  0  0  0  0  0
   -0.9823    1.1751   -4.4034 C   0  0  0  0  0  0  0  0  0  0  0  0
   -2.2264    0.3993   -5.4382 S   0  0  0  0  0  0  0  0  0  0  0  0
   -1.7208    1.3151   -6.9256 C   0  0  0  0  0  0  0  0  0  0  0  0
   -1.2754    2.3516   -3.7105 C   0  0  0  0  0  0  0  0  0  0  0  0
   -0.3002    2.9572   -2.9165 C   0  0  0  0  0  0  0  0  0  0  0  0
    1.6651    5.1570   -0.7572 C   0  0  0  0  0  0  0  0  0  0  0  0
    2.5220    6.2644   -1.6663 S   0  0  0  0  0  0  0  0  0  0  0  0
    0.4496    1.8672    0.5289 C   0  0  0  0  0  0  0  0  0  0  0  0
   -0.5634    1.3526    1.3594 C   0  0  0  0  0  0  0  0  0  0  0  0
   -1.5193    2.1349    2.0843 N   0  0  0  0  0  0  0  0  0  0  0  0
   -1.3715    2.1462    3.5169 C   0  0  0  0  0  0  0  0  0  0  0  0
   -2.3381    1.5368    4.3368 C   0  0  0  0  0  0  0  0  0  0  0  0
   -2.1442    1.4595    5.7195 C   0  0  0  0  0  0  0  0  0  0  0  0
   -0.9879    2.0034    6.2960 C   0  0  0  0  0  0  0  0  0  0  0  0
   -0.7542    1.9253    8.0714 S   0  0  0  0  0  0  0  0  0  0  0  0
    0.1854    0.3636    8.0095 C   0  0  0  0  0  0  0  0  0  0  0  0
   -0.0223    2.6129    5.4867 C   0  0  0  0  0  0  0  0  0  0  0  0
   -0.2022    2.6669    4.1033 C   0  0  0  0  0  0  0  0  0  0  0  0
   -2.7039    2.6496    1.4241 C   0  0  0  0  0  0  0  0  0  0  0  0
   -3.6296    3.4562    2.1232 C   0  0  0  0  0  0  0  0  0  0  0  0
   -4.8232    3.8553    1.5207 C   0  0  0  0  0  0  0  0  0  0  0  0
   -5.1010    3.4886    0.1998 C   0  0  0  0  0  0  0  0  0  0  0  0
   -6.6904    3.8816   -0.5264 S   0  0  0  0  0  0  0  0  0  0  0  0
   -7.4390    2.3143    0.0246 C   0  0  0  0  0  0  0  0  0  0  0  0
   -4.1602    2.7626   -0.5340 C   0  0  0  0  0  0  0  0  0  0  0  0
   -2.9711    2.3437    0.0717 C   0  0  0  0  0  0  0  0  0  0  0  0
   -0.5362   -0.0400    1.4031 C   0  0  0  0  0  0  0  0  0  0  0  0
   -1.5348   -1.2074    2.0868 S   0  0  0  0  0  0  0  0  0  0  0  0
   -0.6106   -2.5107    1.4983 C   0  0  0  0  0  0  0  0  0  0  0  0
    0.4695   -2.0213    0.7449 C   0  0  0  0  0  0  0  0  0  0  0  0
    1.4844   -2.8570    0.1532 N   0  0  0  0  0  0  0  0  0  0  0  0
    1.7068   -2.8773   -1.2771 C   0  0  0  0  0  0  0  0  0  0  0  0
    0.6564   -2.6210   -2.1760 C   0  0  0  0  0  0  0  0  0  0  0  0
    0.8567   -2.7404   -3.5554 C   0  0  0  0  0  0  0  0  0  0  0  0
    2.1138   -3.0972   -4.0574 C   0  0  0  0  0  0  0  0  0  0  0  0
    2.3647   -3.2683   -5.8275 S   0  0  0  0  0  0  0  0  0  0  0  0
    3.2305   -1.6754   -6.0085 C   0  0  0  0  0  0  0  0  0  0  0  0
    3.1675   -3.3405   -3.1751 C   0  0  0  0  0  0  0  0  0  0  0  0
    2.9685   -3.2251   -1.7969 C   0  0  0  0  0  0  0  0  0  0  0  0
    2.2130   -3.7554    1.0201 C   0  0  0  0  0  0  0  0  0  0  0  0
    2.7360   -3.2932    2.2391 C   0  0  0  0  0  0  0  0  0  0  0  0
    3.4162   -4.1663    3.0927 C   0  0  0  0  0  0  0  0  0  0  0  0
    3.5705   -5.5112    2.7451 C   0  0  0  0  0  0  0  0  0  0  0  0
    4.4348   -6.6272    3.8516 S   0  0  0  0  0  0  0  0  0  0  0  0
    2.9230   -7.1170    4.7406 C   0  0  0  0  0  0  0  0  0  0  0  0
    3.0394   -5.9841    1.5403 C   0  0  0  0  0  0  0  0  0  0  0  0
    2.3731   -5.1105    0.6760 C   0  0  0  0  0  0  0  0  0  0  0  0
    0.4682   -0.6307    0.7094 C   0  0  0  0  0  0  0  0  0  0  0  0
    1.3901    0.5513   -0.0365 S   0  0  0  0  0  0  0  0  0  0  0  0
   -1.0683   -3.8996    1.4727 C   0  0  0  0  0  0  0  0  0  0  0  0
   -1.6781   -4.4771    0.3717 C   0  0  0  0  0  0  0  0  0  0  0  0
   -1.6831   -5.8832    0.4105 C   0  0  0  0  0  0  0  0  0  0  0  0
   -2.1163   -6.7187   -0.6372 C   0  0  0  0  0  0  0  0  0  0  0  0
   -2.8243   -6.1746   -1.8178 C   0  0  0  0  0  0  0  0  0  0  0  0
   -3.9280   -5.3219   -1.7849 C   0  0  0  0  0  0  0  0  0  0  0  0
   -4.3415   -4.8992   -3.0563 C   0  0  0  0  0  0  0  0  0  0  0  0
   -5.6812   -3.7898   -3.2907 Cl  0  0  0  0  0  0  0  0  0  0  0  0
   -3.5676   -5.4238   -4.0906 C   0  0  0  0  0  0  0  0  0  0  0  0
   -3.6976   -5.1247   -5.5504 C   0  0  0  0  0  0  0  0  0  0  0  0
   -2.6167   -4.1463   -6.0083 C   0  0  0  0  0  0  0  0  0  0  0  0
   -2.3600   -6.3842   -3.4222 S   0  0  0  0  0  0  0  0  0  0  0  0
   -1.7474   -8.0683   -0.5547 C   0  0  0  0  0  0  0  0  0  0  0  0
   -1.0417   -8.5966    0.5324 C   0  0  0  0  0  0  0  0  0  0  0  0
   -0.8127   -7.8123    1.7010 C   0  0  0  0  0  0  0  0  0  0  0  0
   -0.4743   -8.4378    3.0320 C   0  0  0  0  0  0  0  0  0  0  0  0
   -0.3604  -10.0934    3.3449 S   0  0  0  0  0  0  0  0  0  0  0  0
   -0.1961  -10.0363    5.0034 C   0  0  0  0  0  0  0  0  0  0  0  0
   -0.1629  -11.2379    5.8973 C   0  0  0  0  0  0  0  0  0  0  0  0
   -1.5680  -11.7957    6.0975 C   0  0  0  0  0  0  0  0  0  0  0  0
   -0.2745   -8.6994    5.3751 C   0  0  0  0  0  0  0  0  0  0  0  0
   -0.4424   -7.8189    4.2919 C   0  0  0  0  0  0  0  0  0  0  0  0
   -0.2242   -8.1440    7.0388 Cl  0  0  0  0  0  0  0  0  0  0  0  0
   -1.0706   -6.4199    1.5524 C   0  0  0  0  0  0  0  0  0  0  0  0
   -0.5223   -5.1252    2.4895 S   0  0  0  0  0  0  0  0  0  0  0  0
   -0.5473   -9.8907    0.2570 C   0  0  0  0  0  0  0  0  0  0  0  0
   -0.9906  -10.4245   -0.9550 C   0  0  0  0  0  0  0  0  0  0  0  0
   -1.8866   -9.2486   -1.7496 S   0  0  0  0  0  0  0  0  0  0  0  0
   -0.4824  -11.6318   -1.6353 C   0  0  0  0  0  0  0  0  0  0  0  0
   -0.0073  -12.7409   -1.0273 C   0  0  0  0  0  0  0  0  0  0  0  0
    0.0432  -13.0008    0.4156 C   0  0  0  0  0  0  0  0  0  0  0  0
   -0.7826  -12.5916    1.2730 O   0  0  0  0  0  0  0  0  0  0  0  0
    1.1150  -13.9422    0.6656 C   0  0  0  0  0  0  0  0  0  0  0  0
    1.6631  -14.3256    1.8905 C   0  0  0  0  0  0  0  0  0  0  0  0
    2.7816  -15.1724    1.8846 C   0  0  0  0  0  0  0  0  0  0  0  0
    3.3423  -15.5962    0.6656 C   0  0  0  0  0  0  0  0  0  0  0  0
    2.7799  -15.1917   -0.5556 C   0  0  0  0  0  0  0  0  0  0  0  0
    1.6345  -14.3788   -0.5410 C   0  0  0  0  0  0  0  0  0  0  0  0
    0.8609  -13.7765   -1.6612 C   0  0  0  0  0  0  0  0  0  0  0  0
    0.7725  -14.2439   -2.9307 C   0  0  0  0  0  0  0  0  0  0  0  0
    1.5652  -15.3547   -3.4024 C   0  0  0  0  0  0  0  0  0  0  0  0
    2.1921  -16.2429   -3.7951 N   0  0  0  0  0  0  0  0  0  0  0  0
   -0.2442  -13.7847   -3.8431 C   0  0  0  0  0  0  0  0  0  0  0  0
   -1.0663  -13.4226   -4.5756 N   0  0  0  0  0  0  0  0  0  0  0  0
    2.7655    9.4264   -0.0889 H   0  0  0  0  0  0  0  0  0  0  0  0
    1.7985    8.9865   -6.2891 H   0  0  0  0  0  0  0  0  0  0  0  0
    4.1692   12.5546   -6.8359 H   0  0  0  0  0  0  0  0  0  0  0  0
    4.3570   12.8240   -4.4106 H   0  0  0  0  0  0  0  0  0  0  0  0
    1.4422    6.7941    2.9298 H   0  0  0  0  0  0  0  0  0  0  0  0
    0.5261    6.1963    5.1340 H   0  0  0  0  0  0  0  0  0  0  0  0
   -3.3639    4.6873    6.7071 H   0  0  0  0  0  0  0  0  0  0  0  0
   -2.1898    4.5030    5.3556 H   0  0  0  0  0  0  0  0  0  0  0  0
   -3.7075    5.4596    5.1099 H   0  0  0  0  0  0  0  0  0  0  0  0
   -3.2100    8.0565    4.1059 H   0  0  0  0  0  0  0  0  0  0  0  0
   -2.3328    8.5918    1.8744 H   0  0  0  0  0  0  0  0  0  0  0  0
   -1.0923    8.5534   -1.4222 H   0  0  0  0  0  0  0  0  0  0  0  0
   -1.5765   10.7495   -2.4288 H   0  0  0  0  0  0  0  0  0  0  0  0
   -2.6556   13.7051    0.2911 H   0  0  0  0  0  0  0  0  0  0  0  0
   -3.3739   12.7755   -1.1010 H   0  0  0  0  0  0  0  0  0  0  0  0
   -3.1985   14.5762   -1.1953 H   0  0  0  0  0  0  0  0  0  0  0  0
    0.0839   12.7068    1.0249 H   0  0  0  0  0  0  0  0  0  0  0  0
    0.5620   10.5101    2.0410 H   0  0  0  0  0  0  0  0  0  0  0  0
    4.0064    2.7619   -0.1568 H   0  0  0  0  0  0  0  0  0  0  0  0
    6.4089    2.7320   -0.6569 H   0  0  0  0  0  0  0  0  0  0  0  0
    7.6450    5.1014   -2.0593 H   0  0  0  0  0  0  0  0  0  0  0  0
    9.0599    5.0555   -3.1802 H   0  0  0  0  0  0  0  0  0  0  0  0
    7.3957    5.1939   -3.8538 H   0  0  0  0  0  0  0  0  0  0  0  0
    5.5609    3.0254   -4.8561 H   0  0  0  0  0  0  0  0  0  0  0  0
    3.1539    3.1028   -4.3754 H   0  0  0  0  0  0  0  0  0  0  0  0
    2.2270    0.7181   -3.3946 H   0  0  0  0  0  0  0  0  0  0  0  0
    0.5131   -0.2946   -4.8386 H   0  0  0  0  0  0  0  0  0  0  0  0
   -1.7886    2.4108   -6.7385 H   0  0  0  0  0  0  0  0  0  0  0  0
   -2.3990    1.0546   -7.7641 H   0  0  0  0  0  0  0  0  0  0  0  0
   -0.6801    1.0444   -7.2017 H   0  0  0  0  0  0  0  0  0  0  0  0
   -2.2574    2.7983   -3.7892 H   0  0  0  0  0  0  0  0  0  0  0  0
   -0.5475    3.8782   -2.4024 H   0  0  0  0  0  0  0  0  0  0  0  0
   -3.2251    1.0988    3.8969 H   0  0  0  0  0  0  0  0  0  0  0  0
   -2.8901    0.9781    6.3389 H   0  0  0  0  0  0  0  0  0  0  0  0
    0.5037    0.0866    9.0354 H   0  0  0  0  0  0  0  0  0  0  0  0
   -0.4537   -0.4490    7.6022 H   0  0  0  0  0  0  0  0  0  0  0  0
    1.0867    0.4880    7.3711 H   0  0  0  0  0  0  0  0  0  0  0  0
    0.8703    3.0434    5.9293 H   0  0  0  0  0  0  0  0  0  0  0  0
    0.5708    3.1124    3.4874 H   0  0  0  0  0  0  0  0  0  0  0  0
   -3.4488    3.7510    3.1480 H   0  0  0  0  0  0  0  0  0  0  0  0
   -5.5401    4.4336    2.0917 H   0  0  0  0  0  0  0  0  0  0  0  0
   -8.4881    2.2638   -0.3302 H   0  0  0  0  0  0  0  0  0  0  0  0
   -7.4349    2.2579    1.1326 H   0  0  0  0  0  0  0  0  0  0  0  0
   -6.8797    1.4524   -0.3922 H   0  0  0  0  0  0  0  0  0  0  0  0
   -4.3619    2.4917   -1.5647 H   0  0  0  0  0  0  0  0  0  0  0  0
   -2.2833    1.7505   -0.5154 H   0  0  0  0  0  0  0  0  0  0  0  0
   -0.3262   -2.3570   -1.8159 H   0  0  0  0  0  0  0  0  0  0  0  0
    0.0315   -2.5803   -4.2350 H   0  0  0  0  0  0  0  0  0  0  0  0
    4.2251   -1.7322   -5.5250 H   0  0  0  0  0  0  0  0  0  0  0  0
    2.6429   -0.8539   -5.5594 H   0  0  0  0  0  0  0  0  0  0  0  0
    3.3734   -1.4619   -7.0859 H   0  0  0  0  0  0  0  0  0  0  0  0
    4.1386   -3.6282   -3.5539 H   0  0  0  0  0  0  0  0  0  0  0  0
    3.7997   -3.4205   -1.1328 H   0  0  0  0  0  0  0  0  0  0  0  0
    2.6103   -2.2587    2.5298 H   0  0  0  0  0  0  0  0  0  0  0  0
    3.8158   -3.7987    4.0281 H   0  0  0  0  0  0  0  0  0  0  0  0
    2.3795   -6.2209    5.1101 H   0  0  0  0  0  0  0  0  0  0  0  0
    3.1970   -7.7561    5.6077 H   0  0  0  0  0  0  0  0  0  0  0  0
    2.2788   -7.7004    4.0586 H   0  0  0  0  0  0  0  0  0  0  0  0
    3.1442   -7.0270    1.2711 H   0  0  0  0  0  0  0  0  0  0  0  0
    1.9593   -5.4954   -0.2446 H   0  0  0  0  0  0  0  0  0  0  0  0
   -2.0051   -3.8944   -0.4820 H   0  0  0  0  0  0  0  0  0  0  0  0
   -4.4100   -5.0064   -0.8703 H   0  0  0  0  0  0  0  0  0  0  0  0
   -3.5953   -6.0740   -6.1198 H   0  0  0  0  0  0  0  0  0  0  0  0
   -4.7010   -4.7044   -5.7757 H   0  0  0  0  0  0  0  0  0  0  0  0
   -1.6054   -4.5853   -5.8544 H   0  0  0  0  0  0  0  0  0  0  0  0
   -2.6933   -3.1883   -5.4441 H   0  0  0  0  0  0  0  0  0  0  0  0
   -2.7482   -3.9292   -7.0851 H   0  0  0  0  0  0  0  0  0  0  0  0
    0.4837  -12.0145    5.4319 H   0  0  0  0  0  0  0  0  0  0  0  0
    0.2775  -10.9740    6.8785 H   0  0  0  0  0  0  0  0  0  0  0  0
   -1.5238  -12.7017    6.7391 H   0  0  0  0  0  0  0  0  0  0  0  0
   -2.2204  -11.0414    6.5857 H   0  0  0  0  0  0  0  0  0  0  0  0
   -2.0131  -12.0746    5.1191 H   0  0  0  0  0  0  0  0  0  0  0  0
   -0.5750   -6.7684    4.4718 H   0  0  0  0  0  0  0  0  0  0  0  0
    0.2378  -10.3510    0.8306 H   0  0  0  0  0  0  0  0  0  0  0  0
   -0.3908  -11.5392   -2.7036 H   0  0  0  0  0  0  0  0  0  0  0  0
    1.2507  -13.9674    2.8255 H   0  0  0  0  0  0  0  0  0  0  0  0
    3.2335  -15.4748    2.8224 H   0  0  0  0  0  0  0  0  0  0  0  0
    4.2298  -16.2224    0.6693 H   0  0  0  0  0  0  0  0  0  0  0  0
    3.2662  -15.4843   -1.4742 H   0  0  0  0  0  0  0  0  0  0  0  0
  1  2  2  3
  2  3  1  0
  3  4  2  0
  3  5  1  0
  5  6  2  0
  6  7  1  0
  7  8  1  0
  7  9  2  0
  9 10  1  0
 10 11  2  0
 11 12  1  0
 12 13  2  3
 13 14  1  0
 14 15  3  0
 13 16  1  0
 16 17  3  0
  1 18  1  0
 18 19  2  0
 19 20  1  0
 20 21  1  0
 21 22  2  0
 22 23  1  0
 23 24  2  0
 24 25  1  0
 25 26  1  0
 24 27  1  0
 27 28  2  0
 20 29  1  0
 29 30  2  0
 30 31  1  0
 31 32  2  0
 32 33  1  0
 33 34  1  0
 32 35  1  0
 35 36  2  0
 19 37  1  0
 37 38  1  0
 38 39  1  0
 39 40  2  0
 40 41  1  0
 41 42  1  0
 42 43  2  0
 43 44  1  0
 44 45  2  0
 45 46  1  0
 46 47  1  0
 45 48  1  0
 48 49  2  0
 41 50  1  0
 50 51  2  0
 51 52  1  0
 52 53  2  0
 53 54  1  0
 54 55  1  0
 53 56  1  0
 56 57  2  0
 40 58  1  0
 58 59  1  0
 39 60  1  0
 60 61  2  0
 61 62  1  0
 62 63  1  0
 63 64  2  0
 64 65  1  0
 65 66  2  0
 66 67  1  0
 67 68  1  0
 66 69  1  0
 69 70  2  0
 62 71  1  0
 71 72  2  0
 72 73  1  0
 73 74  2  0
 74 75  1  0
 75 76  1  0
 74 77  1  0
 77 78  2  0
 61 79  1  0
 79 80  1  0
 80 81  1  0
 81 82  2  0
 82 83  1  0
 83 84  1  0
 84 85  2  0
 85 86  1  0
 86 87  2  0
 87 88  1  0
 88 89  1  0
 87 90  1  0
 90 91  2  0
 83 92  1  0
 92 93  2  0
 93 94  1  0
 94 95  2  0
 95 96  1  0
 96 97  1  0
 95 98  1  0
 98 99  2  0
 82100  1  0
100101  1  0
 81102  1  0
102103  2  0
103104  1  0
104105  2  0
105106  1  0
106107  2  0
107108  1  0
108109  1  0
108110  2  0
110111  1  0
111112  1  0
110113  1  0
105114  1  0
114115  2  0
115116  1  0
116117  1  0
117118  1  0
118119  1  0
119120  1  0
120121  1  0
119122  2  0
122123  1  0
122124  1  0
116125  2  0
125126  1  0
115127  1  0
127128  2  0
128129  1  0
128130  1  0
130131  2  3
131132  1  0
132133  2  0
132134  1  0
134135  2  0
135136  1  0
136137  2  0
137138  1  0
138139  2  0
139140  1  0
140141  2  3
141142  1  0
142143  3  0
141144  1  0
144145  3  0
 12  2  1  0
 59 18  1  0
101 60  1  0
126102  1  0
140131  1  0
 11  5  1  0
 28 21  1  0
 36 29  1  0
 58 37  2  0
 70 63  1  0
 78 71  1  0
100 79  2  0
125104  1  0
139134  1  0
 49 42  1  0
 57 50  1  0
 91 84  1  0
 99 92  1  0
113106  1  0
129114  1  0
123117  2  0
  1146  1  0
  6147  1  0
  9148  1  0
 10149  1  0
 22150  1  0
 23151  1  0
 26152  1  0
 26153  1  0
 26154  1  0
 27155  1  0
 28156  1  0
 30157  1  0
 31158  1  0
 34159  1  0
 34160  1  0
 34161  1  0
 35162  1  0
 36163  1  0
 43164  1  0
 44165  1  0
 47166  1  0
 47167  1  0
 47168  1  0
 48169  1  0
 49170  1  0
 51171  1  0
 52172  1  0
 55173  1  0
 55174  1  0
 55175  1  0
 56176  1  0
 57177  1  0
 64178  1  0
 65179  1  0
 68180  1  0
 68181  1  0
 68182  1  0
 69183  1  0
 70184  1  0
 72185  1  0
 73186  1  0
 76187  1  0
 76188  1  0
 76189  1  0
 77190  1  0
 78191  1  0
 85192  1  0
 86193  1  0
 89194  1  0
 89195  1  0
 89196  1  0
 90197  1  0
 91198  1  0
 93199  1  0
 94200  1  0
 97201  1  0
 97202  1  0
 97203  1  0
 98204  1  0
 99205  1  0
103206  1  0
107207  1  0
111208  1  0
111209  1  0
112210  1  0
112211  1  0
112212  1  0
120213  1  0
120214  1  0
121215  1  0
121216  1  0
121217  1  0
123218  1  0
127219  1  0
130220  1  0
135221  1  0
136222  1  0
137223  1  0
138224  1  0
M  END

