
     RDKit          3D

107113  0  0  0  0  0  0  0  0999 V2000
    6.6680    2.3600   -0.1114 C   0  0  0  0  0  0  0  0  0  0  0  0
    7.1582    1.4976    0.8015 C   0  0  0  0  0  0  0  0  0  0  0  0
    6.3476    0.6353    1.6747 C   0  0  0  0  0  0  0  0  0  0  0  0
    5.1013    0.7056    1.8555 O   0  0  0  0  0  0  0  0  0  0  0  0
    7.2110   -0.3588    2.2592 C   0  0  0  0  0  0  0  0  0  0  0  0
    6.8539   -1.4118    3.1017 C   0  0  0  0  0  0  0  0  0  0  0  0
    7.8522   -2.3082    3.5110 C   0  0  0  0  0  0  0  0  0  0  0  0
    7.4582   -3.6358    4.5872 Cl  0  0  0  0  0  0  0  0  0  0  0  0
    9.1727   -2.1541    3.0450 C   0  0  0  0  0  0  0  0  0  0  0  0
    9.5096   -1.0904    2.1927 C   0  0  0  0  0  0  0  0  0  0  0  0
    8.5149   -0.1623    1.8269 C   0  0  0  0  0  0  0  0  0  0  0  0
    8.5800    1.0625    0.9734 C   0  0  0  0  0  0  0  0  0  0  0  0
    9.7017    1.7490    0.6204 C   0  0  0  0  0  0  0  0  0  0  0  0
   11.0216    1.3056    0.9835 C   0  0  0  0  0  0  0  0  0  0  0  0
   12.0880    0.9603    1.2875 N   0  0  0  0  0  0  0  0  0  0  0  0
    9.6492    3.0588    0.0235 C   0  0  0  0  0  0  0  0  0  0  0  0
    9.6185    4.1146   -0.4483 N   0  0  0  0  0  0  0  0  0  0  0  0
    5.2197    2.5704   -0.2862 C   0  0  0  0  0  0  0  0  0  0  0  0
    4.5095    3.4047    0.5933 C   0  0  0  0  0  0  0  0  0  0  0  0
    5.1695    4.1290    1.5321 F   0  0  0  0  0  0  0  0  0  0  0  0
    3.1111    3.4428    0.5529 C   0  0  0  0  0  0  0  0  0  0  0  0
    2.4369    4.1999    1.4564 F   0  0  0  0  0  0  0  0  0  0  0  0
    2.4141    2.6621   -0.3802 C   0  0  0  0  0  0  0  0  0  0  0  0
    3.1243    1.8698   -1.2973 C   0  0  0  0  0  0  0  0  0  0  0  0
    2.4299    1.1277   -2.2516 O   0  0  0  0  0  0  0  0  0  0  0  0
    2.2058    1.6436   -3.5630 C   0  0  0  0  0  0  0  0  0  0  0  0
    1.3813    0.6494   -4.3664 C   0  0  0  0  0  0  0  0  0  0  0  0
    4.5277    1.8077   -1.2377 C   0  0  0  0  0  0  0  0  0  0  0  0
    5.2515    0.9731   -2.0957 O   0  0  0  0  0  0  0  0  0  0  0  0
    5.0730   -0.4404   -2.1140 C   0  0  0  0  0  0  0  0  0  0  0  0
    6.1525   -1.0786   -2.9793 C   0  0  0  0  0  0  0  0  0  0  0  0
    0.9469    2.5413   -0.3111 C   0  0  0  0  0  0  0  0  0  0  0  0
    0.3931    1.4946    0.4371 C   0  0  0  0  0  0  0  0  0  0  0  0
   -0.9876    1.2181    0.3853 C   0  0  0  0  0  0  0  0  0  0  0  0
   -1.5456    0.1473    1.1074 O   0  0  0  0  0  0  0  0  0  0  0  0
   -0.8028   -0.7175    1.9637 C   0  0  0  0  0  0  0  0  0  0  0  0
   -1.7372   -1.7092    2.6345 C   0  0  0  0  0  0  0  0  0  0  0  0
   -1.8162    2.0122   -0.4373 C   0  0  0  0  0  0  0  0  0  0  0  0
   -1.2557    3.0890   -1.1490 C   0  0  0  0  0  0  0  0  0  0  0  0
    0.1128    3.3607   -1.0789 C   0  0  0  0  0  0  0  0  0  0  0  0
    0.6337    4.3813   -1.8038 F   0  0  0  0  0  0  0  0  0  0  0  0
   -3.2497    1.6730   -0.6272 C   0  0  0  0  0  0  0  0  0  0  0  0
   -3.7307    1.3913   -1.9141 C   0  0  0  0  0  0  0  0  0  0  0  0
   -2.9097    1.4799   -2.9924 F   0  0  0  0  0  0  0  0  0  0  0  0
   -5.0407    0.9515   -2.0977 C   0  0  0  0  0  0  0  0  0  0  0  0
   -5.4772    0.6684   -3.3561 F   0  0  0  0  0  0  0  0  0  0  0  0
   -5.8690    0.7216   -0.9876 C   0  0  0  0  0  0  0  0  0  0  0  0
   -5.4247    1.0863    0.3001 C   0  0  0  0  0  0  0  0  0  0  0  0
   -6.2596    0.9117    1.4092 O   0  0  0  0  0  0  0  0  0  0  0  0
   -6.5460   -0.3697    1.9744 C   0  0  0  0  0  0  0  0  0  0  0  0
   -5.2812   -1.0086    2.5392 C   0  0  0  0  0  0  0  0  0  0  0  0
   -4.1205    1.5990    0.4767 C   0  0  0  0  0  0  0  0  0  0  0  0
   -3.6386    2.0041    1.7313 O   0  0  0  0  0  0  0  0  0  0  0  0
   -4.3922    2.7556    2.6807 C   0  0  0  0  0  0  0  0  0  0  0  0
   -3.4545    3.2962    3.7453 C   0  0  0  0  0  0  0  0  0  0  0  0
   -7.1892    0.0813   -1.1697 C   0  0  0  0  0  0  0  0  0  0  0  0
   -7.3357   -1.1755   -1.6426 C   0  0  0  0  0  0  0  0  0  0  0  0
   -6.2416   -2.1259   -1.9084 C   0  0  0  0  0  0  0  0  0  0  0  0
   -5.0074   -1.8734   -1.9328 O   0  0  0  0  0  0  0  0  0  0  0  0
   -6.8024   -3.4509   -2.0246 C   0  0  0  0  0  0  0  0  0  0  0  0
   -6.1215   -4.6558   -2.1884 C   0  0  0  0  0  0  0  0  0  0  0  0
   -6.8604   -5.8478   -2.1780 C   0  0  0  0  0  0  0  0  0  0  0  0
   -6.0377   -7.3856   -2.3736 Cl  0  0  0  0  0  0  0  0  0  0  0  0
   -8.2519   -5.8127   -1.9752 C   0  0  0  0  0  0  0  0  0  0  0  0
   -8.9162   -4.5865   -1.8061 C   0  0  0  0  0  0  0  0  0  0  0  0
   -8.1758   -3.3920   -1.8619 C   0  0  0  0  0  0  0  0  0  0  0  0
   -8.6047   -1.9702   -1.7118 C   0  0  0  0  0  0  0  0  0  0  0  0
   -9.8663   -1.4846   -1.8606 C   0  0  0  0  0  0  0  0  0  0  0  0
  -10.1491   -0.0744   -1.9131 C   0  0  0  0  0  0  0  0  0  0  0  0
  -10.3861    1.0586   -1.9444 N   0  0  0  0  0  0  0  0  0  0  0  0
  -10.9999   -2.3369   -2.1031 C   0  0  0  0  0  0  0  0  0  0  0  0
  -11.9216   -3.0051   -2.3088 N   0  0  0  0  0  0  0  0  0  0  0  0
    7.3105    2.8204   -0.8442 H   0  0  0  0  0  0  0  0  0  0  0  0
    5.8295   -1.5389    3.4266 H   0  0  0  0  0  0  0  0  0  0  0  0
    9.9420   -2.8594    3.3406 H   0  0  0  0  0  0  0  0  0  0  0  0
   10.5202   -1.0359    1.8237 H   0  0  0  0  0  0  0  0  0  0  0  0
    1.6523    2.6084   -3.5002 H   0  0  0  0  0  0  0  0  0  0  0  0
    3.1800    1.8224   -4.0767 H   0  0  0  0  0  0  0  0  0  0  0  0
    1.9541   -0.2950   -4.4979 H   0  0  0  0  0  0  0  0  0  0  0  0
    1.1493    1.0796   -5.3679 H   0  0  0  0  0  0  0  0  0  0  0  0
    0.4319    0.4304   -3.8311 H   0  0  0  0  0  0  0  0  0  0  0  0
    5.1571   -0.8392   -1.0779 H   0  0  0  0  0  0  0  0  0  0  0  0
    4.0764   -0.6975   -2.5311 H   0  0  0  0  0  0  0  0  0  0  0  0
    6.0291   -2.1851   -2.9675 H   0  0  0  0  0  0  0  0  0  0  0  0
    6.0650   -0.7165   -4.0269 H   0  0  0  0  0  0  0  0  0  0  0  0
    7.1575   -0.8213   -2.5810 H   0  0  0  0  0  0  0  0  0  0  0  0
    1.0572    0.8598    1.0123 H   0  0  0  0  0  0  0  0  0  0  0  0
   -0.2917   -0.1201    2.7520 H   0  0  0  0  0  0  0  0  0  0  0  0
   -0.0464   -1.2747    1.3672 H   0  0  0  0  0  0  0  0  0  0  0  0
   -1.1494   -2.4176    3.2537 H   0  0  0  0  0  0  0  0  0  0  0  0
   -2.2912   -2.2889    1.8659 H   0  0  0  0  0  0  0  0  0  0  0  0
   -2.4510   -1.1728    3.2943 H   0  0  0  0  0  0  0  0  0  0  0  0
   -1.8818    3.7055   -1.7800 H   0  0  0  0  0  0  0  0  0  0  0  0
   -7.2810   -0.2375    2.7975 H   0  0  0  0  0  0  0  0  0  0  0  0
   -6.9980   -1.0514    1.2230 H   0  0  0  0  0  0  0  0  0  0  0  0
   -4.8195   -0.3304    3.2892 H   0  0  0  0  0  0  0  0  0  0  0  0
   -4.5607   -1.2070    1.7181 H   0  0  0  0  0  0  0  0  0  0  0  0
   -5.5372   -1.9704    3.0339 H   0  0  0  0  0  0  0  0  0  0  0  0
   -4.8980    3.6051    2.1704 H   0  0  0  0  0  0  0  0  0  0  0  0
   -5.1529    2.1207    3.1760 H   0  0  0  0  0  0  0  0  0  0  0  0
   -2.6664    3.9276    3.2791 H   0  0  0  0  0  0  0  0  0  0  0  0
   -4.0259    3.9040    4.4800 H   0  0  0  0  0  0  0  0  0  0  0  0
   -2.9704    2.4506    4.2842 H   0  0  0  0  0  0  0  0  0  0  0  0
   -8.0248    0.5706   -0.7017 H   0  0  0  0  0  0  0  0  0  0  0  0
   -5.0449   -4.6729   -2.3075 H   0  0  0  0  0  0  0  0  0  0  0  0
   -8.8157   -6.7374   -1.9395 H   0  0  0  0  0  0  0  0  0  0  0  0
   -9.9740   -4.6011   -1.6000 H   0  0  0  0  0  0  0  0  0  0  0  0
  1  2  2  3
  2  3  1  0
  3  4  2  0
  3  5  1  0
  5  6  2  0
  6  7  1  0
  7  8  1  0
  7  9  2  0
  9 10  1  0
 10 11  2  0
 11 12  1  0
 12 13  2  3
 13 14  1  0
 14 15  3  0
 13 16  1  0
 16 17  3  0
  1 18  1  0
 18 19  2  0
 19 20  1  0
 19 21  1  0
 21 22  1  0
 21 23  2  0
 23 24  1  0
 24 25  1  0
 25 26  1  0
 26 27  1  0
 24 28  2  0
 28 29  1  0
 29 30  1  0
 30 31  1  0
 23 32  1  0
 32 33  2  0
 33 34  1  0
 34 35  1  0
 35 36  1  0
 36 37  1  0
 34 38  2  0
 38 39  1  0
 39 40  2  0
 40 41  1  0
 38 42  1  0
 42 43  2  0
 43 44  1  0
 43 45  1  0
 45 46  1  0
 45 47  2  0
 47 48  1  0
 48 49  1  0
 49 50  1  0
 50 51  1  0
 48 52  2  0
 52 53  1  0
 53 54  1  0
 54 55  1  0
 47 56  1  0
 56 57  2  3
 57 58  1  0
 58 59  2  0
 58 60  1  0
 60 61  2  0
 61 62  1  0
 62 63  1  0
 62 64  2  0
 64 65  1  0
 65 66  2  0
 66 67  1  0
 67 68  2  3
 68 69  1  0
 69 70  3  0
 68 71  1  0
 71 72  3  0
 12  2  1  0
 28 18  1  0
 40 32  1  0
 52 42  1  0
 67 57  1  0
 11  5  1  0
 66 60  1  0
  1 73  1  0
  6 74  1  0
  9 75  1  0
 10 76  1  0
 26 77  1  0
 26 78  1  0
 27 79  1  0
 27 80  1  0
 27 81  1  0
 30 82  1  0
 30 83  1  0
 31 84  1  0
 31 85  1  0
 31 86  1  0
 33 87  1  0
 36 88  1  0
 36 89  1  0
 37 90  1  0
 37 91  1  0
 37 92  1  0
 39 93  1  0
 50 94  1  0
 50 95  1  0
 51 96  1  0
 51 97  1  0
 51 98  1  0
 54 99  1  0
 54100  1  0
 55101  1  0
 55102  1  0
 55103  1  0
 56104  1  0
 61105  1  0
 64106  1  0
 65107  1  0
M  END

