
     RDKit          3D

109121  0  0  0  0  0  0  0  0999 V2000
   -3.3921   -7.5401    0.3985 C   0  0  0  0  0  0  0  0  0  0  0  0
   -2.1364   -7.7140   -0.0617 C   0  0  0  0  0  0  0  0  0  0  0  0
   -1.6337   -9.0071   -0.5159 C   0  0  0  0  0  0  0  0  0  0  0  0
   -2.1105  -10.1330   -0.2211 O   0  0  0  0  0  0  0  0  0  0  0  0
   -0.5003   -8.7712   -1.3867 C   0  0  0  0  0  0  0  0  0  0  0  0
    0.2487   -9.7072   -2.1007 C   0  0  0  0  0  0  0  0  0  0  0  0
    1.2971   -9.2481   -2.9108 C   0  0  0  0  0  0  0  0  0  0  0  0
    2.2593  -10.3928   -3.8319 Cl  0  0  0  0  0  0  0  0  0  0  0  0
    1.5742   -7.8692   -2.9889 C   0  0  0  0  0  0  0  0  0  0  0  0
    0.8033   -6.9424   -2.2671 C   0  0  0  0  0  0  0  0  0  0  0  0
   -0.2384   -7.4105   -1.4504 C   0  0  0  0  0  0  0  0  0  0  0  0
   -1.1593   -6.6846   -0.5309 C   0  0  0  0  0  0  0  0  0  0  0  0
   -0.9226   -5.4847    0.0593 C   0  0  0  0  0  0  0  0  0  0  0  0
    0.0540   -4.5470   -0.4405 C   0  0  0  0  0  0  0  0  0  0  0  0
    0.8374   -3.7817   -0.8295 N   0  0  0  0  0  0  0  0  0  0  0  0
   -1.4456   -5.1746    1.3638 C   0  0  0  0  0  0  0  0  0  0  0  0
   -1.8414   -4.9292    2.4222 N   0  0  0  0  0  0  0  0  0  0  0  0
   -4.0964   -6.2416    0.4066 C   0  0  0  0  0  0  0  0  0  0  0  0
   -4.7423   -5.8048    1.5802 C   0  0  0  0  0  0  0  0  0  0  0  0
   -5.2180   -4.4963    1.6227 C   0  0  0  0  0  0  0  0  0  0  0  0
   -5.5961   -3.6924    2.7809 C   0  0  0  0  0  0  0  0  0  0  0  0
   -5.7854   -4.1074    3.9509 O   0  0  0  0  0  0  0  0  0  0  0  0
   -5.6120   -2.2995    2.3384 C   0  0  0  0  0  0  0  0  0  0  0  0
   -5.3290   -2.2744    0.9826 C   0  0  0  0  0  0  0  0  0  0  0  0
   -5.0873   -3.6454    0.5353 C   0  0  0  0  0  0  0  0  0  0  0  0
   -4.5315   -4.0828   -0.6643 C   0  0  0  0  0  0  0  0  0  0  0  0
   -4.0639   -5.4004   -0.7356 C   0  0  0  0  0  0  0  0  0  0  0  0
   -5.0089   -1.0850    0.3360 C   0  0  0  0  0  0  0  0  0  0  0  0
   -4.9280    0.0899    1.0989 C   0  0  0  0  0  0  0  0  0  0  0  0
   -5.1576    0.0680    2.4942 C   0  0  0  0  0  0  0  0  0  0  0  0
   -5.5462   -1.1418    3.1155 C   0  0  0  0  0  0  0  0  0  0  0  0
   -4.6701    1.2052    3.3159 C   0  0  0  0  0  0  0  0  0  0  0  0
   -4.8135    2.5380    2.8567 C   0  0  0  0  0  0  0  0  0  0  0  0
   -4.0081    3.5630    3.3806 C   0  0  0  0  0  0  0  0  0  0  0  0
   -3.0496    3.2257    4.3390 C   0  0  0  0  0  0  0  0  0  0  0  0
   -1.8952    4.0018    4.8078 C   0  0  0  0  0  0  0  0  0  0  0  0
   -1.3343    3.1137    5.8515 C   0  0  0  0  0  0  0  0  0  0  0  0
   -0.3037    3.3668    6.5329 O   0  0  0  0  0  0  0  0  0  0  0  0
   -2.0140    1.8587    5.9157 N   0  0  0  0  0  0  0  0  0  0  0  0
   -1.3834    0.6105    6.3285 C   0  0  0  0  0  0  0  0  0  0  0  0
   -3.0368    1.9791    4.9259 C   0  0  0  0  0  0  0  0  0  0  0  0
   -3.8192    0.9434    4.4149 C   0  0  0  0  0  0  0  0  0  0  0  0
   -1.0893    4.7396    4.0142 C   0  0  0  0  0  0  0  0  0  0  0  0
    0.0433    5.5477    4.4951 C   0  0  0  0  0  0  0  0  0  0  0  0
    0.1677    5.9843    5.6733 O   0  0  0  0  0  0  0  0  0  0  0  0
    1.0270    5.7449    3.4833 N   0  0  0  0  0  0  0  0  0  0  0  0
    2.3998    6.1811    3.7110 C   0  0  0  0  0  0  0  0  0  0  0  0
    0.5618    4.9746    2.3762 C   0  0  0  0  0  0  0  0  0  0  0  0
    1.3019    4.6503    1.2326 C   0  0  0  0  0  0  0  0  0  0  0  0
    0.7631    3.7337    0.3073 C   0  0  0  0  0  0  0  0  0  0  0  0
   -0.5119    3.1844    0.5446 C   0  0  0  0  0  0  0  0  0  0  0  0
   -1.2156    3.4761    1.7155 C   0  0  0  0  0  0  0  0  0  0  0  0
   -0.6757    4.3951    2.6293 C   0  0  0  0  0  0  0  0  0  0  0  0
    1.5406    3.2897   -0.8829 C   0  0  0  0  0  0  0  0  0  0  0  0
    1.7814    1.9114   -1.1328 C   0  0  0  0  0  0  0  0  0  0  0  0
    1.3780    0.9095   -0.1618 C   0  0  0  0  0  0  0  0  0  0  0  0
    1.0570    0.1157    0.6147 N   0  0  0  0  0  0  0  0  0  0  0  0
    2.4536    1.5005   -2.3108 C   0  0  0  0  0  0  0  0  0  0  0  0
    2.6301    0.0887   -2.5858 C   0  0  0  0  0  0  0  0  0  0  0  0
    2.7675   -1.0389   -2.8051 N   0  0  0  0  0  0  0  0  0  0  0  0
    2.9416    2.4610   -3.2288 C   0  0  0  0  0  0  0  0  0  0  0  0
    2.7138    3.8190   -2.9773 C   0  0  0  0  0  0  0  0  0  0  0  0
    2.0127    4.2347   -1.8079 C   0  0  0  0  0  0  0  0  0  0  0  0
    1.8268    5.5747   -1.6598 N   0  0  0  0  0  0  0  0  0  0  0  0
    2.5722    6.1401   -3.0206 S   0  0  0  0  0  0  0  0  0  0  0  0
    3.1226    4.8028   -3.8213 N   0  0  0  0  0  0  0  0  0  0  0  0
    3.6181    2.0636   -4.4844 C   0  0  0  0  0  0  0  0  0  0  0  0
    4.8484    1.5137   -4.5308 C   0  0  0  0  0  0  0  0  0  0  0  0
    5.6589    1.1279   -3.3669 C   0  0  0  0  0  0  0  0  0  0  0  0
    5.4485    1.4411   -2.1670 O   0  0  0  0  0  0  0  0  0  0  0  0
    6.7427    0.2825   -3.8225 C   0  0  0  0  0  0  0  0  0  0  0  0
    7.6965   -0.3887   -3.0554 C   0  0  0  0  0  0  0  0  0  0  0  0
    8.6216   -1.2092   -3.7124 C   0  0  0  0  0  0  0  0  0  0  0  0
    9.8408   -2.0722   -2.7892 Cl  0  0  0  0  0  0  0  0  0  0  0  0
    8.5548   -1.3707   -5.1093 C   0  0  0  0  0  0  0  0  0  0  0  0
    7.5811   -0.6950   -5.8589 C   0  0  0  0  0  0  0  0  0  0  0  0
    6.6899    0.1672   -5.2010 C   0  0  0  0  0  0  0  0  0  0  0  0
    5.5806    1.0100   -5.7357 C   0  0  0  0  0  0  0  0  0  0  0  0
    5.4317    1.4295   -7.0222 C   0  0  0  0  0  0  0  0  0  0  0  0
    6.3129    1.0114   -8.0771 C   0  0  0  0  0  0  0  0  0  0  0  0
    7.0157    0.6810   -8.9367 N   0  0  0  0  0  0  0  0  0  0  0  0
    4.4646    2.4232   -7.4126 C   0  0  0  0  0  0  0  0  0  0  0  0
    3.6929    3.2260   -7.7323 N   0  0  0  0  0  0  0  0  0  0  0  0
   -3.9633   -8.4038    0.7097 H   0  0  0  0  0  0  0  0  0  0  0  0
    0.0145  -10.7645   -2.0415 H   0  0  0  0  0  0  0  0  0  0  0  0
    2.3894   -7.5161   -3.6117 H   0  0  0  0  0  0  0  0  0  0  0  0
    1.0277   -5.8935   -2.3751 H   0  0  0  0  0  0  0  0  0  0  0  0
   -4.7483   -6.4187    2.4707 H   0  0  0  0  0  0  0  0  0  0  0  0
   -4.4113   -3.4112   -1.5048 H   0  0  0  0  0  0  0  0  0  0  0  0
   -3.5910   -5.7412   -1.6463 H   0  0  0  0  0  0  0  0  0  0  0  0
   -4.7157   -1.0832   -0.7053 H   0  0  0  0  0  0  0  0  0  0  0  0
   -4.5716    0.9899    0.6146 H   0  0  0  0  0  0  0  0  0  0  0  0
   -5.6695   -1.2027    4.1888 H   0  0  0  0  0  0  0  0  0  0  0  0
   -5.4824    2.7611    2.0344 H   0  0  0  0  0  0  0  0  0  0  0  0
   -4.0422    4.5570    2.9551 H   0  0  0  0  0  0  0  0  0  0  0  0
   -2.1578   -0.1338    6.6026 H   0  0  0  0  0  0  0  0  0  0  0  0
   -0.7615    0.2103    5.4987 H   0  0  0  0  0  0  0  0  0  0  0  0
   -0.7389    0.7858    7.2159 H   0  0  0  0  0  0  0  0  0  0  0  0
   -3.6808   -0.0643    4.7839 H   0  0  0  0  0  0  0  0  0  0  0  0
    2.4386    6.8945    4.5633 H   0  0  0  0  0  0  0  0  0  0  0  0
    3.0425    5.3030    3.9358 H   0  0  0  0  0  0  0  0  0  0  0  0
    2.7846    6.7063    2.8079 H   0  0  0  0  0  0  0  0  0  0  0  0
    2.2942    5.0554    1.0890 H   0  0  0  0  0  0  0  0  0  0  0  0
   -0.9449    2.4895   -0.1668 H   0  0  0  0  0  0  0  0  0  0  0  0
   -2.1248    2.9392    1.8942 H   0  0  0  0  0  0  0  0  0  0  0  0
    3.0496    2.2228   -5.3820 H   0  0  0  0  0  0  0  0  0  0  0  0
    7.7167   -0.2891   -1.9780 H   0  0  0  0  0  0  0  0  0  0  0  0
    9.2537   -2.0291   -5.6108 H   0  0  0  0  0  0  0  0  0  0  0  0
    7.5268   -0.8841   -6.9166 H   0  0  0  0  0  0  0  0  0  0  0  0
  1  2  2  3
  2  3  1  0
  3  4  2  0
  3  5  1  0
  5  6  2  0
  6  7  1  0
  7  8  1  0
  7  9  2  0
  9 10  1  0
 10 11  2  0
 11 12  1  0
 12 13  2  3
 13 14  1  0
 14 15  3  0
 13 16  1  0
 16 17  3  0
  1 18  1  0
 18 19  2  0
 19 20  1  0
 20 21  1  0
 21 22  2  0
 21 23  1  0
 23 24  2  0
 24 25  1  0
 25 26  1  0
 26 27  2  0
 24 28  1  0
 28 29  2  0
 29 30  1  0
 30 31  2  0
 30 32  1  0
 32 33  2  0
 33 34  1  0
 34 35  2  0
 35 36  1  0
 36 37  1  0
 37 38  2  0
 37 39  1  0
 39 40  1  0
 39 41  1  0
 41 42  2  0
 36 43  2  3
 43 44  1  0
 44 45  2  0
 44 46  1  0
 46 47  1  0
 46 48  1  0
 48 49  2  0
 49 50  1  0
 50 51  2  0
 51 52  1  0
 52 53  2  0
 50 54  1  0
 54 55  2  0
 55 56  1  0
 56 57  3  0
 55 58  1  0
 58 59  1  0
 59 60  3  0
 58 61  2  0
 61 62  1  0
 62 63  1  0
 63 64  2  0
 64 65  1  0
 65 66  1  0
 61 67  1  0
 67 68  2  3
 68 69  1  0
 69 70  2  0
 69 71  1  0
 71 72  2  0
 72 73  1  0
 73 74  1  0
 73 75  2  0
 75 76  1  0
 76 77  2  0
 77 78  1  0
 78 79  2  3
 79 80  1  0
 80 81  3  0
 79 82  1  0
 82 83  3  0
 12  2  1  0
 27 18  1  0
 42 32  1  0
 53 43  1  0
 63 54  1  0
 78 68  1  0
 11  5  1  0
 25 20  2  0
 41 35  1  0
 53 48  1  0
 66 62  2  0
 77 71  1  0
 31 23  1  0
  1 84  1  0
  6 85  1  0
  9 86  1  0
 10 87  1  0
 19 88  1  0
 26 89  1  0
 27 90  1  0
 28 91  1  0
 29 92  1  0
 31 93  1  0
 33 94  1  0
 34 95  1  0
 40 96  1  0
 40 97  1  0
 40 98  1  0
 42 99  1  0
 47100  1  0
 47101  1  0
 47102  1  0
 49103  1  0
 51104  1  0
 52105  1  0
 67106  1  0
 72107  1  0
 75108  1  0
 76109  1  0
M  END

