
     RDKit          3D

210229  0  0  0  0  0  0  0  0999 V2000
   -0.1146   -6.0949   -0.0111 C   0  0  0  0  0  0  0  0  0  0  0  0
   -0.8309   -6.1565   -1.1517 C   0  0  0  0  0  0  0  0  0  0  0  0
   -0.9993   -5.0732   -2.1312 C   0  0  0  0  0  0  0  0  0  0  0  0
   -0.8421   -3.8398   -1.9227 O   0  0  0  0  0  0  0  0  0  0  0  0
   -1.4816   -5.6460   -3.3684 C   0  0  0  0  0  0  0  0  0  0  0  0
   -1.6766   -5.0096   -4.5943 C   0  0  0  0  0  0  0  0  0  0  0  0
   -2.0887   -5.7833   -5.6910 C   0  0  0  0  0  0  0  0  0  0  0  0
   -2.3308   -5.0224   -7.2528 Cl  0  0  0  0  0  0  0  0  0  0  0  0
   -2.2767   -7.1692   -5.5460 C   0  0  0  0  0  0  0  0  0  0  0  0
   -2.0772   -7.7888   -4.3017 C   0  0  0  0  0  0  0  0  0  0  0  0
   -1.7015   -7.0023   -3.1974 C   0  0  0  0  0  0  0  0  0  0  0  0
   -1.4364   -7.3765   -1.7751 C   0  0  0  0  0  0  0  0  0  0  0  0
   -1.8662   -8.4970   -1.1388 C   0  0  0  0  0  0  0  0  0  0  0  0
   -2.5153   -9.5822   -1.8285 C   0  0  0  0  0  0  0  0  0  0  0  0
   -3.0349  -10.4643   -2.3659 N   0  0  0  0  0  0  0  0  0  0  0  0
   -1.8239   -8.6367    0.2940 C   0  0  0  0  0  0  0  0  0  0  0  0
   -1.8001   -8.7593    1.4448 N   0  0  0  0  0  0  0  0  0  0  0  0
    0.6675   -4.9191    0.3996 C   0  0  0  0  0  0  0  0  0  0  0  0
    0.7079   -4.3731    1.6876 C   0  0  0  0  0  0  0  0  0  0  0  0
   -0.0322   -4.8731    2.8094 N   0  0  0  0  0  0  0  0  0  0  0  0
    0.6179   -5.6986    3.8131 C   0  0  0  0  0  0  0  0  0  0  0  0
    1.9121   -6.2218    3.5939 C   0  0  0  0  0  0  0  0  0  0  0  0
    2.5461   -6.9920    4.5718 C   0  0  0  0  0  0  0  0  0  0  0  0
    1.9064   -7.2487    5.7882 C   0  0  0  0  0  0  0  0  0  0  0  0
    2.7412   -8.2002    7.0587 S   0  0  0  0  0  0  0  0  0  0  0  0
    3.5311   -6.7396    7.8025 C   0  0  0  0  0  0  0  0  0  0  0  0
    0.6173   -6.7596    6.0118 C   0  0  0  0  0  0  0  0  0  0  0  0
   -0.0253   -5.9962    5.0346 C   0  0  0  0  0  0  0  0  0  0  0  0
   -1.3532   -4.3507    3.0132 C   0  0  0  0  0  0  0  0  0  0  0  0
   -2.4636   -5.0024    2.4603 C   0  0  0  0  0  0  0  0  0  0  0  0
   -3.7562   -4.5366    2.7242 C   0  0  0  0  0  0  0  0  0  0  0  0
   -3.9448   -3.4162    3.5463 C   0  0  0  0  0  0  0  0  0  0  0  0
   -5.6025   -2.8489    3.9335 S   0  0  0  0  0  0  0  0  0  0  0  0
   -5.6406   -1.6423    2.5744 C   0  0  0  0  0  0  0  0  0  0  0  0
   -2.8366   -2.7573    4.0895 C   0  0  0  0  0  0  0  0  0  0  0  0
   -1.5450   -3.2200    3.8220 C   0  0  0  0  0  0  0  0  0  0  0  0
    1.5973   -3.3043    1.7594 C   0  0  0  0  0  0  0  0  0  0  0  0
    1.9121   -2.1307    2.9036 S   0  0  0  0  0  0  0  0  0  0  0  0
    2.9510   -1.2192    1.9013 C   0  0  0  0  0  0  0  0  0  0  0  0
    3.0943   -1.8843    0.6576 C   0  0  0  0  0  0  0  0  0  0  0  0
    4.0026   -1.5153   -0.4145 N   0  0  0  0  0  0  0  0  0  0  0  0
    4.4361   -2.5233   -1.3469 C   0  0  0  0  0  0  0  0  0  0  0  0
    4.1730   -2.3837   -2.7160 C   0  0  0  0  0  0  0  0  0  0  0  0
    4.5254   -3.4006   -3.6099 C   0  0  0  0  0  0  0  0  0  0  0  0
    5.1482   -4.5626   -3.1399 C   0  0  0  0  0  0  0  0  0  0  0  0
    5.5434   -5.8941   -4.2769 S   0  0  0  0  0  0  0  0  0  0  0  0
    7.2412   -5.3088   -4.5734 C   0  0  0  0  0  0  0  0  0  0  0  0
    5.4369   -4.6980   -1.7771 C   0  0  0  0  0  0  0  0  0  0  0  0
    5.0940   -3.6785   -0.8846 C   0  0  0  0  0  0  0  0  0  0  0  0
    4.8182   -0.3380   -0.3484 C   0  0  0  0  0  0  0  0  0  0  0  0
    5.8721   -0.2643    0.5734 C   0  0  0  0  0  0  0  0  0  0  0  0
    6.7144    0.8509    0.5926 C   0  0  0  0  0  0  0  0  0  0  0  0
    6.5226    1.8911   -0.3250 C   0  0  0  0  0  0  0  0  0  0  0  0
    7.6347    3.2978   -0.3330 S   0  0  0  0  0  0  0  0  0  0  0  0
    8.8027    2.5203   -1.4915 C   0  0  0  0  0  0  0  0  0  0  0  0
    5.4748    1.8176   -1.2540 C   0  0  0  0  0  0  0  0  0  0  0  0
    4.6258    0.7065   -1.2656 C   0  0  0  0  0  0  0  0  0  0  0  0
    2.2761   -3.0239    0.6196 C   0  0  0  0  0  0  0  0  0  0  0  0
    1.7948   -4.0971   -0.5799 S   0  0  0  0  0  0  0  0  0  0  0  0
    3.1058    0.2242    2.1384 C   0  0  0  0  0  0  0  0  0  0  0  0
    3.1922    0.8042    3.4007 C   0  0  0  0  0  0  0  0  0  0  0  0
    2.6923    2.1235    3.4658 C   0  0  0  0  0  0  0  0  0  0  0  0
    2.5571    2.8867    4.7289 C   0  0  0  0  0  0  0  0  0  0  0  0
    2.5468    4.1485    4.6850 O   0  0  0  0  0  0  0  0  0  0  0  0
    2.4348    2.2061    6.0666 C   0  0  0  0  0  0  0  0  0  0  0  0
    1.2007    2.6924    6.8209 C   0  0  0  0  0  0  0  0  0  0  0  0
    2.2330    2.6022    2.2327 C   0  0  0  0  0  0  0  0  0  0  0  0
    2.4109    1.3582    1.1215 S   0  0  0  0  0  0  0  0  0  0  0  0
    1.1658    3.5968    2.0574 C   0  0  0  0  0  0  0  0  0  0  0  0
    0.9775    4.3661    0.8980 C   0  0  0  0  0  0  0  0  0  0  0  0
    1.9915    4.5792   -0.0979 N   0  0  0  0  0  0  0  0  0  0  0  0
    2.9928    5.5696    0.1956 C   0  0  0  0  0  0  0  0  0  0  0  0
    2.6119    6.8874    0.4939 C   0  0  0  0  0  0  0  0  0  0  0  0
    3.5826    7.8676    0.7174 C   0  0  0  0  0  0  0  0  0  0  0  0
    4.9416    7.5376    0.6444 C   0  0  0  0  0  0  0  0  0  0  0  0
    6.1892    8.7986    0.9125 S   0  0  0  0  0  0  0  0  0  0  0  0
    6.2870    9.2631   -0.8433 C   0  0  0  0  0  0  0  0  0  0  0  0
    5.3271    6.2194    0.3698 C   0  0  0  0  0  0  0  0  0  0  0  0
    4.3550    5.2364    0.1525 C   0  0  0  0  0  0  0  0  0  0  0  0
    1.9169    3.9472   -1.4042 C   0  0  0  0  0  0  0  0  0  0  0  0
    2.6693    4.4364   -2.4945 C   0  0  0  0  0  0  0  0  0  0  0  0
    2.5825    3.8321   -3.7513 C   0  0  0  0  0  0  0  0  0  0  0  0
    1.7339    2.7413   -3.9489 C   0  0  0  0  0  0  0  0  0  0  0  0
    1.6099    1.9898   -5.5702 S   0  0  0  0  0  0  0  0  0  0  0  0
    2.8674    0.7274   -5.2075 C   0  0  0  0  0  0  0  0  0  0  0  0
    0.9721    2.2509   -2.8852 C   0  0  0  0  0  0  0  0  0  0  0  0
    1.0688    2.8402   -1.6224 C   0  0  0  0  0  0  0  0  0  0  0  0
   -0.3577    4.7310    0.7310 C   0  0  0  0  0  0  0  0  0  0  0  0
   -1.2243    5.2569   -0.6012 S   0  0  0  0  0  0  0  0  0  0  0  0
   -2.7411    4.8169    0.0468 C   0  0  0  0  0  0  0  0  0  0  0  0
   -2.5640    4.2883    1.3444 C   0  0  0  0  0  0  0  0  0  0  0  0
   -3.5886    3.6539    2.1423 N   0  0  0  0  0  0  0  0  0  0  0  0
   -3.5820    3.8221    3.5789 C   0  0  0  0  0  0  0  0  0  0  0  0
   -3.3220    5.0808    4.1496 C   0  0  0  0  0  0  0  0  0  0  0  0
   -3.3118    5.2390    5.5402 C   0  0  0  0  0  0  0  0  0  0  0  0
   -3.5560    4.1427    6.3737 C   0  0  0  0  0  0  0  0  0  0  0  0
   -3.6037    4.3577    8.1553 S   0  0  0  0  0  0  0  0  0  0  0  0
   -1.8520    3.9266    8.3873 C   0  0  0  0  0  0  0  0  0  0  0  0
   -3.8050    2.8847    5.8150 C   0  0  0  0  0  0  0  0  0  0  0  0
   -3.8138    2.7230    4.4281 C   0  0  0  0  0  0  0  0  0  0  0  0
   -4.5152    2.7271    1.5386 C   0  0  0  0  0  0  0  0  0  0  0  0
   -4.0587    1.7355    0.6548 C   0  0  0  0  0  0  0  0  0  0  0  0
   -4.9599    0.8372    0.0758 C   0  0  0  0  0  0  0  0  0  0  0  0
   -6.3181    0.8952    0.4059 C   0  0  0  0  0  0  0  0  0  0  0  0
   -7.4646   -0.2836   -0.3084 S   0  0  0  0  0  0  0  0  0  0  0  0
   -8.0088    0.8569   -1.6136 C   0  0  0  0  0  0  0  0  0  0  0  0
   -6.7734    1.8543    1.3189 C   0  0  0  0  0  0  0  0  0  0  0  0
   -5.8788    2.7740    1.8735 C   0  0  0  0  0  0  0  0  0  0  0  0
   -1.2094    4.2678    1.6836 C   0  0  0  0  0  0  0  0  0  0  0  0
   -0.3482    3.3777    2.8079 S   0  0  0  0  0  0  0  0  0  0  0  0
   -3.9863    4.8188   -0.7369 C   0  0  0  0  0  0  0  0  0  0  0  0
   -4.1321    4.1097   -1.8777 C   0  0  0  0  0  0  0  0  0  0  0  0
   -3.2615    3.0024   -2.3028 C   0  0  0  0  0  0  0  0  0  0  0  0
   -2.1347    2.7062   -1.8294 O   0  0  0  0  0  0  0  0  0  0  0  0
   -3.9566    2.2112   -3.2892 C   0  0  0  0  0  0  0  0  0  0  0  0
   -3.5546    0.9512   -3.7919 C   0  0  0  0  0  0  0  0  0  0  0  0
   -4.4914    0.3530   -4.6102 C   0  0  0  0  0  0  0  0  0  0  0  0
   -5.7477    0.9577   -4.9325 C   0  0  0  0  0  0  0  0  0  0  0  0
   -6.1500    2.1881   -4.4405 C   0  0  0  0  0  0  0  0  0  0  0  0
   -5.2060    2.8169   -3.5769 C   0  0  0  0  0  0  0  0  0  0  0  0
   -5.3363    4.0686   -2.7679 C   0  0  0  0  0  0  0  0  0  0  0  0
   -6.2326    5.0712   -2.9593 C   0  0  0  0  0  0  0  0  0  0  0  0
   -7.2751    5.0051   -3.9464 C   0  0  0  0  0  0  0  0  0  0  0  0
   -8.1195    4.9677   -4.7394 N   0  0  0  0  0  0  0  0  0  0  0  0
   -6.1255    6.3347   -2.2752 C   0  0  0  0  0  0  0  0  0  0  0  0
   -6.0475    7.3561   -1.7331 N   0  0  0  0  0  0  0  0  0  0  0  0
   -6.1250   -0.2322   -5.7616 C   0  0  0  0  0  0  0  0  0  0  0  0
   -6.0436   -0.0667   -7.3100 C   0  0  0  0  0  0  0  0  0  0  0  0
   -6.0914   -1.4645   -7.8778 C   0  0  0  0  0  0  0  0  0  0  0  0
   -4.9281   -2.0427   -7.5602 C   0  0  0  0  0  0  0  0  0  0  0  0
   -4.1303   -1.0144   -6.7925 C   0  0  0  0  0  0  0  0  0  0  0  0
   -4.5716    0.2272   -7.5471 C   0  0  0  0  0  0  0  0  0  0  0  0
   -4.8441   -0.8589   -5.4193 C   0  0  0  0  0  0  0  0  0  0  0  0
   -0.0208   -6.9509    0.6364 H   0  0  0  0  0  0  0  0  0  0  0  0
   -1.4933   -3.9469   -4.7022 H   0  0  0  0  0  0  0  0  0  0  0  0
   -2.5696   -7.7672   -6.4006 H   0  0  0  0  0  0  0  0  0  0  0  0
   -2.1846   -8.8582   -4.2391 H   0  0  0  0  0  0  0  0  0  0  0  0
    2.4394   -6.0353    2.6686 H   0  0  0  0  0  0  0  0  0  0  0  0
    3.5415   -7.3794    4.3857 H   0  0  0  0  0  0  0  0  0  0  0  0
    4.1350   -7.0577    8.6776 H   0  0  0  0  0  0  0  0  0  0  0  0
    4.2006   -6.2516    7.0625 H   0  0  0  0  0  0  0  0  0  0  0  0
    2.7586   -6.0154    8.1419 H   0  0  0  0  0  0  0  0  0  0  0  0
    0.1117   -6.9639    6.9464 H   0  0  0  0  0  0  0  0  0  0  0  0
   -1.0224   -5.6324    5.2452 H   0  0  0  0  0  0  0  0  0  0  0  0
   -2.3269   -5.8841    1.8505 H   0  0  0  0  0  0  0  0  0  0  0  0
   -4.6102   -5.0560    2.3060 H   0  0  0  0  0  0  0  0  0  0  0  0
   -6.6314   -1.1422    2.5690 H   0  0  0  0  0  0  0  0  0  0  0  0
   -5.4870   -2.1501    1.5979 H   0  0  0  0  0  0  0  0  0  0  0  0
   -4.8567   -0.8697    2.7222 H   0  0  0  0  0  0  0  0  0  0  0  0
   -2.9759   -1.8939    4.7301 H   0  0  0  0  0  0  0  0  0  0  0  0
   -0.6983   -2.7175    4.2681 H   0  0  0  0  0  0  0  0  0  0  0  0
    3.6608   -1.5071   -3.0833 H   0  0  0  0  0  0  0  0  0  0  0  0
    4.2999   -3.2914   -4.6646 H   0  0  0  0  0  0  0  0  0  0  0  0
    7.7372   -5.9887   -5.2951 H   0  0  0  0  0  0  0  0  0  0  0  0
    7.2319   -4.2804   -4.9930 H   0  0  0  0  0  0  0  0  0  0  0  0
    7.8172   -5.3206   -3.6249 H   0  0  0  0  0  0  0  0  0  0  0  0
    5.9115   -5.5975   -1.4045 H   0  0  0  0  0  0  0  0  0  0  0  0
    5.3032   -3.7997    0.1702 H   0  0  0  0  0  0  0  0  0  0  0  0
    6.0454   -1.0781    1.2657 H   0  0  0  0  0  0  0  0  0  0  0  0
    7.5252    0.8957    1.3075 H   0  0  0  0  0  0  0  0  0  0  0  0
    8.2860    2.2596   -2.4384 H   0  0  0  0  0  0  0  0  0  0  0  0
    9.6219    3.2334   -1.7138 H   0  0  0  0  0  0  0  0  0  0  0  0
    9.2366    1.6062   -1.0358 H   0  0  0  0  0  0  0  0  0  0  0  0
    5.3212    2.6168   -1.9685 H   0  0  0  0  0  0  0  0  0  0  0  0
    3.8180    0.6614   -1.9832 H   0  0  0  0  0  0  0  0  0  0  0  0
    3.5164    0.2415    4.2663 H   0  0  0  0  0  0  0  0  0  0  0  0
    3.3436    2.4188    6.6690 H   0  0  0  0  0  0  0  0  0  0  0  0
    2.3423    1.1068    5.9563 H   0  0  0  0  0  0  0  0  0  0  0  0
    1.2841    3.7777    7.0400 H   0  0  0  0  0  0  0  0  0  0  0  0
    0.2821    2.5060    6.2208 H   0  0  0  0  0  0  0  0  0  0  0  0
    1.1133    2.1477    7.7850 H   0  0  0  0  0  0  0  0  0  0  0  0
    1.5637    7.1573    0.5272 H   0  0  0  0  0  0  0  0  0  0  0  0
    3.2775    8.8836    0.9378 H   0  0  0  0  0  0  0  0  0  0  0  0
    5.3096    9.6582   -1.1870 H   0  0  0  0  0  0  0  0  0  0  0  0
    7.0589   10.0486   -0.9694 H   0  0  0  0  0  0  0  0  0  0  0  0
    6.5675    8.3811   -1.4589 H   0  0  0  0  0  0  0  0  0  0  0  0
    6.3778    5.9605    0.3166 H   0  0  0  0  0  0  0  0  0  0  0  0
    4.6569    4.2235   -0.0634 H   0  0  0  0  0  0  0  0  0  0  0  0
    3.3124    5.2997   -2.3892 H   0  0  0  0  0  0  0  0  0  0  0  0
    3.1683    4.2231   -4.5731 H   0  0  0  0  0  0  0  0  0  0  0  0
    2.4971    0.0656   -4.3984 H   0  0  0  0  0  0  0  0  0  0  0  0
    3.8212    1.2071   -4.8941 H   0  0  0  0  0  0  0  0  0  0  0  0
    3.0490    0.1203   -6.1168 H   0  0  0  0  0  0  0  0  0  0  0  0
    0.3071    1.4095   -3.0353 H   0  0  0  0  0  0  0  0  0  0  0  0
    0.4675    2.4302   -0.8210 H   0  0  0  0  0  0  0  0  0  0  0  0
   -3.1454    5.9429    3.5179 H   0  0  0  0  0  0  0  0  0  0  0  0
   -3.1229    6.2177    5.9666 H   0  0  0  0  0  0  0  0  0  0  0  0
   -1.6148    3.9443    9.4712 H   0  0  0  0  0  0  0  0  0  0  0  0
   -1.2021    4.6590    7.8640 H   0  0  0  0  0  0  0  0  0  0  0  0
   -1.6579    2.9060    7.9981 H   0  0  0  0  0  0  0  0  0  0  0  0
   -3.9862    2.0294    6.4533 H   0  0  0  0  0  0  0  0  0  0  0  0
   -3.9911    1.7385    4.0143 H   0  0  0  0  0  0  0  0  0  0  0  0
   -3.0037    1.6506    0.4294 H   0  0  0  0  0  0  0  0  0  0  0  0
   -4.5976    0.0865   -0.6170 H   0  0  0  0  0  0  0  0  0  0  0  0
   -8.5882    0.2929   -2.3722 H   0  0  0  0  0  0  0  0  0  0  0  0
   -7.1298    1.3225   -2.0982 H   0  0  0  0  0  0  0  0  0  0  0  0
   -8.6551    1.6494   -1.1761 H   0  0  0  0  0  0  0  0  0  0  0  0
   -7.8206    1.8903    1.5943 H   0  0  0  0  0  0  0  0  0  0  0  0
   -6.2459    3.5183    2.5705 H   0  0  0  0  0  0  0  0  0  0  0  0
   -4.8146    5.3746   -0.3282 H   0  0  0  0  0  0  0  0  0  0  0  0
   -2.6205    0.4743   -3.5284 H   0  0  0  0  0  0  0  0  0  0  0  0
   -7.1367    2.5614   -4.6521 H   0  0  0  0  0  0  0  0  0  0  0  0
   -7.0236   -0.7711   -5.3834 H   0  0  0  0  0  0  0  0  0  0  0  0
   -6.7627    0.6513   -7.7534 H   0  0  0  0  0  0  0  0  0  0  0  0
   -6.8692   -1.8975   -8.4969 H   0  0  0  0  0  0  0  0  0  0  0  0
   -4.5997   -3.0264   -7.8776 H   0  0  0  0  0  0  0  0  0  0  0  0
   -3.0353   -1.1977   -6.7501 H   0  0  0  0  0  0  0  0  0  0  0  0
   -4.2175    1.1800   -7.0983 H   0  0  0  0  0  0  0  0  0  0  0  0
   -4.2867    0.2163   -8.6257 H   0  0  0  0  0  0  0  0  0  0  0  0
   -4.9295   -1.7873   -4.8096 H   0  0  0  0  0  0  0  0  0  0  0  0
  1  2  2  3
  2  3  1  0
  3  4  2  0
  3  5  1  0
  5  6  2  0
  6  7  1  0
  7  8  1  0
  7  9  2  0
  9 10  1  0
 10 11  2  0
 11 12  1  0
 12 13  2  3
 13 14  1  0
 14 15  3  0
 13 16  1  0
 16 17  3  0
  1 18  1  0
 18 19  2  0
 19 20  1  0
 20 21  1  0
 21 22  2  0
 22 23  1  0
 23 24  2  0
 24 25  1  0
 25 26  1  0
 24 27  1  0
 27 28  2  0
 20 29  1  0
 29 30  2  0
 30 31  1  0
 31 32  2  0
 32 33  1  0
 33 34  1  0
 32 35  1  0
 35 36  2  0
 19 37  1  0
 37 38  1  0
 38 39  1  0
 39 40  2  0
 40 41  1  0
 41 42  1  0
 42 43  2  0
 43 44  1  0
 44 45  2  0
 45 46  1  0
 46 47  1  0
 45 48  1  0
 48 49  2  0
 41 50  1  0
 50 51  2  0
 51 52  1  0
 52 53  2  0
 53 54  1  0
 54 55  1  0
 53 56  1  0
 56 57  2  0
 40 58  1  0
 58 59  1  0
 39 60  1  0
 60 61  2  0
 61 62  1  0
 62 63  1  0
 63 64  2  0
 63 65  1  0
 65 66  1  0
 62 67  2  0
 67 68  1  0
 67 69  1  0
 69 70  2  0
 70 71  1  0
 71 72  1  0
 72 73  2  0
 73 74  1  0
 74 75  2  0
 75 76  1  0
 76 77  1  0
 75 78  1  0
 78 79  2  0
 71 80  1  0
 80 81  2  0
 81 82  1  0
 82 83  2  0
 83 84  1  0
 84 85  1  0
 83 86  1  0
 86 87  2  0
 70 88  1  0
 88 89  1  0
 89 90  1  0
 90 91  2  0
 91 92  1  0
 92 93  1  0
 93 94  2  0
 94 95  1  0
 95 96  2  0
 96 97  1  0
 97 98  1  0
 96 99  1  0
 99100  2  0
 92101  1  0
101102  2  0
102103  1  0
103104  2  0
104105  1  0
105106  1  0
104107  1  0
107108  2  0
 91109  1  0
109110  1  0
 90111  1  0
111112  2  3
112113  1  0
113114  2  0
113115  1  0
115116  2  0
116117  1  0
117118  2  0
118119  1  0
119120  2  0
120121  1  0
121122  2  3
122123  1  0
123124  3  0
122125  1  0
125126  3  0
118127  1  0
127128  1  0
128129  1  0
129130  2  0
130131  1  0
131132  1  0
131133  1  0
 12  2  1  0
 59 18  1  0
 68 60  1  0
110 69  1  0
121112  1  0
133127  1  0
 11  5  1  0
 28 21  1  0
 36 29  1  0
 58 37  2  0
 79 72  1  0
 87 80  1  0
109 88  2  0
120115  1  0
132128  1  0
 49 42  1  0
 57 50  1  0
100 93  1  0
108101  1  0
133117  1  0
  1134  1  0
  6135  1  0
  9136  1  0
 10137  1  0
 22138  1  0
 23139  1  0
 26140  1  0
 26141  1  0
 26142  1  0
 27143  1  0
 28144  1  0
 30145  1  0
 31146  1  0
 34147  1  0
 34148  1  0
 34149  1  0
 35150  1  0
 36151  1  0
 43152  1  0
 44153  1  0
 47154  1  0
 47155  1  0
 47156  1  0
 48157  1  0
 49158  1  0
 51159  1  0
 52160  1  0
 55161  1  0
 55162  1  0
 55163  1  0
 56164  1  0
 57165  1  0
 61166  1  0
 65167  1  0
 65168  1  0
 66169  1  0
 66170  1  0
 66171  1  0
 73172  1  0
 74173  1  0
 77174  1  0
 77175  1  0
 77176  1  0
 78177  1  0
 79178  1  0
 81179  1  0
 82180  1  0
 85181  1  0
 85182  1  0
 85183  1  0
 86184  1  0
 87185  1  0
 94186  1  0
 95187  1  0
 98188  1  0
 98189  1  0
 98190  1  0
 99191  1  0
100192  1  0
102193  1  0
103194  1  0
106195  1  0
106196  1  0
106197  1  0
107198  1  0
108199  1  0
111200  1  0
116201  1  0
119202  1  0
127203  1  0
128204  1  0
129205  1  0
130206  1  0
131207  1  0
132208  1  0
132209  1  0
133210  1  0
M  END

