
     RDKit          3D

130141  0  0  0  0  0  0  0  0999 V2000
    3.6159   -5.9505    5.5024 C   0  0  0  0  0  0  0  0  0  0  0  0
    4.8380   -5.7414    4.9739 C   0  0  0  0  0  0  0  0  0  0  0  0
    5.1399   -4.7923    3.8875 C   0  0  0  0  0  0  0  0  0  0  0  0
    4.3550   -3.9496    3.3853 O   0  0  0  0  0  0  0  0  0  0  0  0
    6.4813   -5.0604    3.4028 C   0  0  0  0  0  0  0  0  0  0  0  0
    7.1344   -4.4819    2.3172 C   0  0  0  0  0  0  0  0  0  0  0  0
    8.4003   -4.9715    1.9646 C   0  0  0  0  0  0  0  0  0  0  0  0
    9.2603   -4.2859    0.6034 Cl  0  0  0  0  0  0  0  0  0  0  0  0
    8.9650   -6.0463    2.6762 C   0  0  0  0  0  0  0  0  0  0  0  0
    8.2881   -6.6153    3.7708 C   0  0  0  0  0  0  0  0  0  0  0  0
    7.0425   -6.0890    4.1451 C   0  0  0  0  0  0  0  0  0  0  0  0
    6.1013   -6.5059    5.2277 C   0  0  0  0  0  0  0  0  0  0  0  0
    6.4096   -7.2368    6.3314 C   0  0  0  0  0  0  0  0  0  0  0  0
    7.7314   -7.7470    6.5731 C   0  0  0  0  0  0  0  0  0  0  0  0
    8.7910   -8.1646    6.7787 N   0  0  0  0  0  0  0  0  0  0  0  0
    5.4879   -7.4372    7.4167 C   0  0  0  0  0  0  0  0  0  0  0  0
    4.7598   -7.6100    8.3008 N   0  0  0  0  0  0  0  0  0  0  0  0
    2.4561   -5.1192    5.1378 C   0  0  0  0  0  0  0  0  0  0  0  0
    1.6468   -5.4830    4.0453 C   0  0  0  0  0  0  0  0  0  0  0  0
    1.8382   -6.6793    3.4211 F   0  0  0  0  0  0  0  0  0  0  0  0
    0.7286   -4.5664    3.5163 C   0  0  0  0  0  0  0  0  0  0  0  0
    0.0559   -4.9057    2.3869 F   0  0  0  0  0  0  0  0  0  0  0  0
    0.6025   -3.2798    4.0790 C   0  0  0  0  0  0  0  0  0  0  0  0
    1.3148   -2.9803    5.2624 C   0  0  0  0  0  0  0  0  0  0  0  0
    1.1522   -1.7604    5.9290 O   0  0  0  0  0  0  0  0  0  0  0  0
   -0.0898   -1.3759    6.5079 C   0  0  0  0  0  0  0  0  0  0  0  0
    0.0157    0.0415    7.0436 C   0  0  0  0  0  0  0  0  0  0  0  0
    2.2405   -3.8911    5.7785 C   0  0  0  0  0  0  0  0  0  0  0  0
    2.9667   -3.5417    6.9162 O   0  0  0  0  0  0  0  0  0  0  0  0
    2.5959   -4.0311    8.2057 C   0  0  0  0  0  0  0  0  0  0  0  0
    2.6526   -2.8870    9.2112 C   0  0  0  0  0  0  0  0  0  0  0  0
   -0.0391   -2.1846    3.3088 C   0  0  0  0  0  0  0  0  0  0  0  0
    0.5521   -0.9358    3.1128 C   0  0  0  0  0  0  0  0  0  0  0  0
   -0.1090   -0.1432    2.1664 C   0  0  0  0  0  0  0  0  0  0  0  0
    0.3475    1.0975    1.6720 C   0  0  0  0  0  0  0  0  0  0  0  0
    1.6665    1.6639    2.0472 C   0  0  0  0  0  0  0  0  0  0  0  0
    2.8334    0.9034    1.8511 C   0  0  0  0  0  0  0  0  0  0  0  0
    4.0863    1.4454    2.1407 C   0  0  0  0  0  0  0  0  0  0  0  0
    4.1918    2.7629    2.5983 C   0  0  0  0  0  0  0  0  0  0  0  0
    3.0383    3.5435    2.7579 C   0  0  0  0  0  0  0  0  0  0  0  0
    3.1882    5.2571    3.2674 S   0  0  0  0  0  0  0  0  0  0  0  0
    3.1367    5.9425    1.5700 C   0  0  0  0  0  0  0  0  0  0  0  0
    4.4143    5.6362    0.7989 C   0  0  0  0  0  0  0  0  0  0  0  0
    1.7801    2.9874    2.5070 C   0  0  0  0  0  0  0  0  0  0  0  0
   -0.4474    1.7066    0.6872 C   0  0  0  0  0  0  0  0  0  0  0  0
   -1.5981    1.1075    0.1688 C   0  0  0  0  0  0  0  0  0  0  0  0
   -2.0249   -0.1610    0.6295 C   0  0  0  0  0  0  0  0  0  0  0  0
   -3.1578   -0.8650   -0.0126 C   0  0  0  0  0  0  0  0  0  0  0  0
   -4.2958   -1.2218    0.7349 C   0  0  0  0  0  0  0  0  0  0  0  0
   -5.4182   -1.7483    0.0857 C   0  0  0  0  0  0  0  0  0  0  0  0
   -5.4151   -1.9280   -1.2985 C   0  0  0  0  0  0  0  0  0  0  0  0
   -4.2750   -1.6049   -2.0489 C   0  0  0  0  0  0  0  0  0  0  0  0
   -4.3036   -1.7172   -3.8365 S   0  0  0  0  0  0  0  0  0  0  0  0
   -3.5997   -3.3993   -3.9246 C   0  0  0  0  0  0  0  0  0  0  0  0
   -2.0878   -3.3413   -4.1104 C   0  0  0  0  0  0  0  0  0  0  0  0
   -3.1485   -1.0945   -1.3988 C   0  0  0  0  0  0  0  0  0  0  0  0
   -1.2572   -0.7509    1.6525 C   0  0  0  0  0  0  0  0  0  0  0  0
   -1.4091   -2.2933    2.3256 S   0  0  0  0  0  0  0  0  0  0  0  0
   -2.1833    1.8538   -0.8719 C   0  0  0  0  0  0  0  0  0  0  0  0
   -1.4603    2.9965   -1.2174 C   0  0  0  0  0  0  0  0  0  0  0  0
   -0.1305    3.1143   -0.1836 S   0  0  0  0  0  0  0  0  0  0  0  0
   -1.7224    3.8359   -2.4166 C   0  0  0  0  0  0  0  0  0  0  0  0
   -3.0254    3.9116   -2.9526 C   0  0  0  0  0  0  0  0  0  0  0  0
   -3.2740    4.5271   -4.1921 C   0  0  0  0  0  0  0  0  0  0  0  0
   -4.5439    4.5535   -4.6713 F   0  0  0  0  0  0  0  0  0  0  0  0
   -2.2228    5.0739   -4.9419 C   0  0  0  0  0  0  0  0  0  0  0  0
   -0.9381    5.0978   -4.3819 C   0  0  0  0  0  0  0  0  0  0  0  0
   -0.6807    4.4692   -3.1250 C   0  0  0  0  0  0  0  0  0  0  0  0
    0.6188    4.4566   -2.7184 N   0  0  0  0  0  0  0  0  0  0  0  0
    1.3448    5.2561   -3.9647 S   0  0  0  0  0  0  0  0  0  0  0  0
    0.1398    5.6182   -5.0314 N   0  0  0  0  0  0  0  0  0  0  0  0
   -2.4622    5.7074   -6.2420 C   0  0  0  0  0  0  0  0  0  0  0  0
   -2.9027    5.1096   -7.3721 C   0  0  0  0  0  0  0  0  0  0  0  0
   -3.3031    5.9204   -8.5335 C   0  0  0  0  0  0  0  0  0  0  0  0
   -3.2221    7.1779   -8.6217 O   0  0  0  0  0  0  0  0  0  0  0  0
   -3.8709    5.0620   -9.5424 C   0  0  0  0  0  0  0  0  0  0  0  0
   -4.3465    5.4191  -10.7988 C   0  0  0  0  0  0  0  0  0  0  0  0
   -4.7518    4.4014  -11.6837 C   0  0  0  0  0  0  0  0  0  0  0  0
   -5.2280    4.7580  -13.0646 C   0  0  0  0  0  0  0  0  0  0  0  0
   -4.6439    3.0484  -11.2887 C   0  0  0  0  0  0  0  0  0  0  0  0
   -4.9472    2.0437  -12.1579 F   0  0  0  0  0  0  0  0  0  0  0  0
   -4.1876    2.7165   -9.9997 C   0  0  0  0  0  0  0  0  0  0  0  0
   -3.8487    3.7530   -9.1001 C   0  0  0  0  0  0  0  0  0  0  0  0
   -3.2511    3.6795   -7.7196 C   0  0  0  0  0  0  0  0  0  0  0  0
   -2.9990    2.5313   -7.0306 C   0  0  0  0  0  0  0  0  0  0  0  0
   -1.9461    2.3924   -6.0718 C   0  0  0  0  0  0  0  0  0  0  0  0
   -1.0813    2.2265   -5.3213 N   0  0  0  0  0  0  0  0  0  0  0  0
   -3.6858    1.2994   -7.3216 C   0  0  0  0  0  0  0  0  0  0  0  0
   -4.2478    0.3102   -7.5438 N   0  0  0  0  0  0  0  0  0  0  0  0
    3.4177   -6.7932    6.1492 H   0  0  0  0  0  0  0  0  0  0  0  0
    6.6715   -3.6885    1.7446 H   0  0  0  0  0  0  0  0  0  0  0  0
    9.9268   -6.4466    2.3842 H   0  0  0  0  0  0  0  0  0  0  0  0
    8.7293   -7.4720    4.2560 H   0  0  0  0  0  0  0  0  0  0  0  0
   -0.9115   -1.4348    5.7604 H   0  0  0  0  0  0  0  0  0  0  0  0
   -0.3194   -2.0629    7.3549 H   0  0  0  0  0  0  0  0  0  0  0  0
    0.9175    0.1455    7.6877 H   0  0  0  0  0  0  0  0  0  0  0  0
   -0.8830    0.2823    7.6402 H   0  0  0  0  0  0  0  0  0  0  0  0
    0.0980    0.7594    6.1930 H   0  0  0  0  0  0  0  0  0  0  0  0
    3.2954   -4.8384    8.5049 H   0  0  0  0  0  0  0  0  0  0  0  0
    1.5594   -4.4341    8.1901 H   0  0  0  0  0  0  0  0  0  0  0  0
    3.6692   -2.4454    9.2268 H   0  0  0  0  0  0  0  0  0  0  0  0
    1.9113   -2.1039    8.9302 H   0  0  0  0  0  0  0  0  0  0  0  0
    2.4149   -3.2676   10.2286 H   0  0  0  0  0  0  0  0  0  0  0  0
    1.4772   -0.6513    3.5966 H   0  0  0  0  0  0  0  0  0  0  0  0
    2.7729   -0.1083    1.4653 H   0  0  0  0  0  0  0  0  0  0  0  0
    4.9831    0.8514    1.9869 H   0  0  0  0  0  0  0  0  0  0  0  0
    5.1694    3.1850    2.7966 H   0  0  0  0  0  0  0  0  0  0  0  0
    3.0340    7.0436    1.6575 H   0  0  0  0  0  0  0  0  0  0  0  0
    2.2530    5.5585    1.0210 H   0  0  0  0  0  0  0  0  0  0  0  0
    5.3114    5.8850    1.4037 H   0  0  0  0  0  0  0  0  0  0  0  0
    4.4409    6.2406   -0.1341 H   0  0  0  0  0  0  0  0  0  0  0  0
    4.4578    4.5652    0.5171 H   0  0  0  0  0  0  0  0  0  0  0  0
    0.8919    3.5847    2.6416 H   0  0  0  0  0  0  0  0  0  0  0  0
   -4.3273   -1.0424    1.8021 H   0  0  0  0  0  0  0  0  0  0  0  0
   -6.3068   -1.9846    0.6549 H   0  0  0  0  0  0  0  0  0  0  0  0
   -6.2990   -2.3039   -1.7947 H   0  0  0  0  0  0  0  0  0  0  0  0
   -3.8442   -3.9841   -3.0109 H   0  0  0  0  0  0  0  0  0  0  0  0
   -4.0472   -3.9146   -4.7990 H   0  0  0  0  0  0  0  0  0  0  0  0
   -1.7060   -4.3614   -4.3167 H   0  0  0  0  0  0  0  0  0  0  0  0
   -1.5879   -2.9602   -3.1935 H   0  0  0  0  0  0  0  0  0  0  0  0
   -1.8321   -2.6913   -4.9788 H   0  0  0  0  0  0  0  0  0  0  0  0
   -2.2663   -0.8312   -1.9800 H   0  0  0  0  0  0  0  0  0  0  0  0
   -3.0701    1.5462   -1.4064 H   0  0  0  0  0  0  0  0  0  0  0  0
   -3.8655    3.4780   -2.4153 H   0  0  0  0  0  0  0  0  0  0  0  0
   -2.2550    6.7758   -6.2728 H   0  0  0  0  0  0  0  0  0  0  0  0
   -4.3745    6.4559  -11.0884 H   0  0  0  0  0  0  0  0  0  0  0  0
   -4.3891    4.6596  -13.7824 H   0  0  0  0  0  0  0  0  0  0  0  0
   -6.0542    4.0793  -13.3786 H   0  0  0  0  0  0  0  0  0  0  0  0
   -5.6089    5.8018  -13.1039 H   0  0  0  0  0  0  0  0  0  0  0  0
   -4.0787    1.6706   -9.7585 H   0  0  0  0  0  0  0  0  0  0  0  0
  1  2  2  3
  2  3  1  0
  3  4  2  0
  3  5  1  0
  5  6  2  0
  6  7  1  0
  7  8  1  0
  7  9  2  0
  9 10  1  0
 10 11  2  0
 11 12  1  0
 12 13  2  3
 13 14  1  0
 14 15  3  0
 13 16  1  0
 16 17  3  0
  1 18  1  0
 18 19  2  0
 19 20  1  0
 19 21  1  0
 21 22  1  0
 21 23  2  0
 23 24  1  0
 24 25  1  0
 25 26  1  0
 26 27  1  0
 24 28  2  0
 28 29  1  0
 29 30  1  0
 30 31  1  0
 23 32  1  0
 32 33  2  0
 33 34  1  0
 34 35  2  0
 35 36  1  0
 36 37  2  0
 37 38  1  0
 38 39  2  0
 39 40  1  0
 40 41  1  0
 41 42  1  0
 42 43  1  0
 40 44  2  0
 35 45  1  0
 45 46  2  0
 46 47  1  0
 47 48  1  0
 48 49  2  0
 49 50  1  0
 50 51  2  0
 51 52  1  0
 52 53  1  0
 53 54  1  0
 54 55  1  0
 52 56  2  0
 47 57  2  0
 57 58  1  0
 46 59  1  0
 59 60  2  0
 60 61  1  0
 60 62  1  0
 62 63  2  0
 63 64  1  0
 64 65  1  0
 64 66  2  0
 66 67  1  0
 67 68  1  0
 68 69  2  0
 69 70  1  0
 70 71  1  0
 66 72  1  0
 72 73  2  3
 73 74  1  0
 74 75  2  0
 74 76  1  0
 76 77  2  0
 77 78  1  0
 78 79  1  0
 78 80  2  0
 80 81  1  0
 80 82  1  0
 82 83  2  0
 83 84  1  0
 84 85  2  3
 85 86  1  0
 86 87  3  0
 85 88  1  0
 88 89  3  0
 12  2  1  0
 28 18  1  0
 58 32  1  0
 68 62  1  0
 84 73  1  0
 11  5  1  0
 57 34  1  0
 71 67  2  0
 83 76  1  0
 44 36  1  0
 61 45  1  0
 56 48  1  0
  1 90  1  0
  6 91  1  0
  9 92  1  0
 10 93  1  0
 26 94  1  0
 26 95  1  0
 27 96  1  0
 27 97  1  0
 27 98  1  0
 30 99  1  0
 30100  1  0
 31101  1  0
 31102  1  0
 31103  1  0
 33104  1  0
 37105  1  0
 38106  1  0
 39107  1  0
 42108  1  0
 42109  1  0
 43110  1  0
 43111  1  0
 43112  1  0
 44113  1  0
 49114  1  0
 50115  1  0
 51116  1  0
 54117  1  0
 54118  1  0
 55119  1  0
 55120  1  0
 55121  1  0
 56122  1  0
 59123  1  0
 63124  1  0
 72125  1  0
 77126  1  0
 79127  1  0
 79128  1  0
 79129  1  0
 82130  1  0
M  END

