
     RDKit          3D

208225  0  0  0  0  0  0  0  0999 V2000
    7.4318    2.8304    2.0779 C   0  0  0  0  0  0  0  0  0  0  0  0
    8.1643    2.2519    1.1059 C   0  0  0  0  0  0  0  0  0  0  0  0
    7.6305    1.3779    0.0546 C   0  0  0  0  0  0  0  0  0  0  0  0
    6.4979    1.4657   -0.4895 O   0  0  0  0  0  0  0  0  0  0  0  0
    8.6239    0.3867   -0.2690 C   0  0  0  0  0  0  0  0  0  0  0  0
    8.4586   -0.7733   -1.0311 C   0  0  0  0  0  0  0  0  0  0  0  0
    9.5046   -1.7068   -1.0634 C   0  0  0  0  0  0  0  0  0  0  0  0
    9.3255   -3.1879   -1.9833 Cl  0  0  0  0  0  0  0  0  0  0  0  0
   10.6766   -1.4742   -0.3181 C   0  0  0  0  0  0  0  0  0  0  0  0
   10.8235   -0.2991    0.4404 C   0  0  0  0  0  0  0  0  0  0  0  0
    9.7853    0.6494    0.4366 C   0  0  0  0  0  0  0  0  0  0  0  0
    9.6137    1.9085    1.2115 C   0  0  0  0  0  0  0  0  0  0  0  0
   10.5922    2.6913    1.7267 C   0  0  0  0  0  0  0  0  0  0  0  0
   11.9811    2.3227    1.6669 C   0  0  0  0  0  0  0  0  0  0  0  0
   13.1011    2.0319    1.6285 N   0  0  0  0  0  0  0  0  0  0  0  0
   10.3112    4.0112    2.2358 C   0  0  0  0  0  0  0  0  0  0  0  0
   10.0859    5.0720    2.6384 N   0  0  0  0  0  0  0  0  0  0  0  0
    6.0107    2.4929    2.2201 C   0  0  0  0  0  0  0  0  0  0  0  0
    4.9644    3.0495    1.4547 C   0  0  0  0  0  0  0  0  0  0  0  0
    4.8019    4.4533    1.1843 N   0  0  0  0  0  0  0  0  0  0  0  0
    3.5197    5.0828    1.4345 C   0  0  0  0  0  0  0  0  0  0  0  0
    3.0404    6.0972    0.5879 C   0  0  0  0  0  0  0  0  0  0  0  0
    1.7642    6.6404    0.7855 C   0  0  0  0  0  0  0  0  0  0  0  0
    0.9499    6.1661    1.8175 C   0  0  0  0  0  0  0  0  0  0  0  0
   -0.7103    6.8130    2.0320 S   0  0  0  0  0  0  0  0  0  0  0  0
   -0.1956    8.0384    3.2767 C   0  0  0  0  0  0  0  0  0  0  0  0
    1.4277    5.1719    2.6770 C   0  0  0  0  0  0  0  0  0  0  0  0
    2.7084    4.6510    2.5009 C   0  0  0  0  0  0  0  0  0  0  0  0
    5.9347    5.2585    0.8275 C   0  0  0  0  0  0  0  0  0  0  0  0
    6.3385    6.3060    1.6654 C   0  0  0  0  0  0  0  0  0  0  0  0
    7.4526    7.0800    1.3361 C   0  0  0  0  0  0  0  0  0  0  0  0
    8.1535    6.8255    0.1471 C   0  0  0  0  0  0  0  0  0  0  0  0
    9.5198    7.8826   -0.3231 S   0  0  0  0  0  0  0  0  0  0  0  0
    8.4217    9.1352   -1.0621 C   0  0  0  0  0  0  0  0  0  0  0  0
    7.7510    5.7820   -0.6896 C   0  0  0  0  0  0  0  0  0  0  0  0
    6.6517    4.9954   -0.3448 C   0  0  0  0  0  0  0  0  0  0  0  0
    3.9597    2.1139    1.2432 C   0  0  0  0  0  0  0  0  0  0  0  0
    2.5956    2.0668    0.2800 S   0  0  0  0  0  0  0  0  0  0  0  0
    2.1896    0.4623    0.6944 C   0  0  0  0  0  0  0  0  0  0  0  0
    3.1337   -0.0222    1.6229 C   0  0  0  0  0  0  0  0  0  0  0  0
    3.0228   -1.2520    2.3613 N   0  0  0  0  0  0  0  0  0  0  0  0
    4.2044   -2.0652    2.5032 C   0  0  0  0  0  0  0  0  0  0  0  0
    5.0334   -2.3027    1.3897 C   0  0  0  0  0  0  0  0  0  0  0  0
    6.2409   -2.9829    1.5429 C   0  0  0  0  0  0  0  0  0  0  0  0
    6.6249   -3.4527    2.8003 C   0  0  0  0  0  0  0  0  0  0  0  0
    8.1549   -4.3707    2.9788 S   0  0  0  0  0  0  0  0  0  0  0  0
    7.3205   -5.9897    2.8906 C   0  0  0  0  0  0  0  0  0  0  0  0
    5.8182   -3.2064    3.9144 C   0  0  0  0  0  0  0  0  0  0  0  0
    4.6098   -2.5239    3.7691 C   0  0  0  0  0  0  0  0  0  0  0  0
    1.7922   -1.5784    3.0558 C   0  0  0  0  0  0  0  0  0  0  0  0
    0.9144   -0.5563    3.4649 C   0  0  0  0  0  0  0  0  0  0  0  0
   -0.3363   -0.8658    4.0068 C   0  0  0  0  0  0  0  0  0  0  0  0
   -0.7075   -2.2007    4.1841 C   0  0  0  0  0  0  0  0  0  0  0  0
   -2.3392   -2.5951    4.8211 S   0  0  0  0  0  0  0  0  0  0  0  0
   -1.8688   -2.3131    6.5569 C   0  0  0  0  0  0  0  0  0  0  0  0
    0.1834   -3.2257    3.8459 C   0  0  0  0  0  0  0  0  0  0  0  0
    1.4225   -2.9179    3.2808 C   0  0  0  0  0  0  0  0  0  0  0  0
    4.1252    0.9210    1.8651 C   0  0  0  0  0  0  0  0  0  0  0  0
    5.5676    0.9201    2.7021 S   0  0  0  0  0  0  0  0  0  0  0  0
    1.0661   -0.2981    0.1265 C   0  0  0  0  0  0  0  0  0  0  0  0
   -0.2454    0.1614   -0.0652 C   0  0  0  0  0  0  0  0  0  0  0  0
   -0.6617    1.5390   -0.0923 N   0  0  0  0  0  0  0  0  0  0  0  0
   -1.7620    1.9477    0.7368 C   0  0  0  0  0  0  0  0  0  0  0  0
   -2.9743    2.3561    0.1559 C   0  0  0  0  0  0  0  0  0  0  0  0
   -4.0179    2.8241    0.9591 C   0  0  0  0  0  0  0  0  0  0  0  0
   -3.8463    2.9066    2.3473 C   0  0  0  0  0  0  0  0  0  0  0  0
   -5.1561    3.5655    3.3737 S   0  0  0  0  0  0  0  0  0  0  0  0
   -4.6014    5.2874    3.1701 C   0  0  0  0  0  0  0  0  0  0  0  0
   -2.6469    2.4828    2.9311 C   0  0  0  0  0  0  0  0  0  0  0  0
   -1.6065    2.0108    2.1285 C   0  0  0  0  0  0  0  0  0  0  0  0
   -0.1759    2.4393   -1.1155 C   0  0  0  0  0  0  0  0  0  0  0  0
   -0.1361    3.8273   -0.8778 C   0  0  0  0  0  0  0  0  0  0  0  0
    0.3874    4.6987   -1.8330 C   0  0  0  0  0  0  0  0  0  0  0  0
    0.8725    4.2024   -3.0431 C   0  0  0  0  0  0  0  0  0  0  0  0
    1.5338    5.3276   -4.2711 S   0  0  0  0  0  0  0  0  0  0  0  0
   -0.0904    5.6628   -5.0156 C   0  0  0  0  0  0  0  0  0  0  0  0
    0.8460    2.8253   -3.2944 C   0  0  0  0  0  0  0  0  0  0  0  0
    0.3162    1.9477   -2.3418 C   0  0  0  0  0  0  0  0  0  0  0  0
   -1.0958   -0.8944   -0.3661 C   0  0  0  0  0  0  0  0  0  0  0  0
   -2.7452   -1.0082   -0.5556 S   0  0  0  0  0  0  0  0  0  0  0  0
   -2.7276   -2.6828   -0.8270 C   0  0  0  0  0  0  0  0  0  0  0  0
   -1.4043   -3.1649   -0.8013 C   0  0  0  0  0  0  0  0  0  0  0  0
   -1.0279   -4.4889   -1.2538 N   0  0  0  0  0  0  0  0  0  0  0  0
    0.2161   -5.1124   -0.8781 C   0  0  0  0  0  0  0  0  0  0  0  0
    0.6299   -5.1449    0.4634 C   0  0  0  0  0  0  0  0  0  0  0  0
    1.8292   -5.7723    0.8158 C   0  0  0  0  0  0  0  0  0  0  0  0
    2.6192   -6.3746   -0.1704 C   0  0  0  0  0  0  0  0  0  0  0  0
    4.2224   -7.0608    0.2470 S   0  0  0  0  0  0  0  0  0  0  0  0
    5.1235   -5.6668   -0.5152 C   0  0  0  0  0  0  0  0  0  0  0  0
    2.1831   -6.3983   -1.4986 C   0  0  0  0  0  0  0  0  0  0  0  0
    1.0051   -5.7445   -1.8543 C   0  0  0  0  0  0  0  0  0  0  0  0
   -1.8512   -5.1544   -2.2307 C   0  0  0  0  0  0  0  0  0  0  0  0
   -2.1914   -4.5094   -3.4337 C   0  0  0  0  0  0  0  0  0  0  0  0
   -3.0195   -5.1372   -4.3597 C   0  0  0  0  0  0  0  0  0  0  0  0
   -3.5082   -6.4217   -4.1030 C   0  0  0  0  0  0  0  0  0  0  0  0
   -4.5364   -7.2467   -5.3209 S   0  0  0  0  0  0  0  0  0  0  0  0
   -3.1246   -7.9927   -6.1903 C   0  0  0  0  0  0  0  0  0  0  0  0
   -3.1692   -7.0773   -2.9115 C   0  0  0  0  0  0  0  0  0  0  0  0
   -2.3349   -6.4475   -1.9824 C   0  0  0  0  0  0  0  0  0  0  0  0
   -0.5214   -2.1189   -0.4977 C   0  0  0  0  0  0  0  0  0  0  0  0
    1.1193   -1.9757   -0.1931 S   0  0  0  0  0  0  0  0  0  0  0  0
   -3.9595   -3.4879   -0.7881 C   0  0  0  0  0  0  0  0  0  0  0  0
   -4.1136   -4.4980    0.1822 C   0  0  0  0  0  0  0  0  0  0  0  0
   -3.0491   -4.9265    0.9028 F   0  0  0  0  0  0  0  0  0  0  0  0
   -5.3857   -4.9853    0.4939 C   0  0  0  0  0  0  0  0  0  0  0  0
   -5.5248   -5.9246    1.4588 F   0  0  0  0  0  0  0  0  0  0  0  0
   -6.5182   -4.4102   -0.1008 C   0  0  0  0  0  0  0  0  0  0  0  0
   -6.3566   -3.5284   -1.1909 C   0  0  0  0  0  0  0  0  0  0  0  0
   -7.4290   -3.0487   -1.8778 N   0  0  0  0  0  0  0  0  0  0  0  0
   -7.2939   -2.1925   -2.9268 C   0  0  0  0  0  0  0  0  0  0  0  0
   -8.5403   -1.6962   -3.6038 C   0  0  0  0  0  0  0  0  0  0  0  0
   -8.9793   -0.3534   -3.0190 C   0  0  0  0  0  0  0  0  0  0  0  0
   -5.9966   -1.7598   -3.2902 C   0  0  0  0  0  0  0  0  0  0  0  0
   -4.9298   -2.2159   -2.5800 N   0  0  0  0  0  0  0  0  0  0  0  0
   -5.0696   -3.0797   -1.5373 C   0  0  0  0  0  0  0  0  0  0  0  0
   -5.7190   -0.8815   -4.4845 C   0  0  0  0  0  0  0  0  0  0  0  0
   -5.4451   -1.7308   -5.7180 C   0  0  0  0  0  0  0  0  0  0  0  0
   -7.8447   -4.5655    0.5120 C   0  0  0  0  0  0  0  0  0  0  0  0
   -8.4326   -3.5178    1.1250 C   0  0  0  0  0  0  0  0  0  0  0  0
   -9.8286   -3.1611    0.8533 C   0  0  0  0  0  0  0  0  0  0  0  0
  -10.7449   -3.9687    0.5460 O   0  0  0  0  0  0  0  0  0  0  0  0
   -9.9198   -1.7128    0.7943 C   0  0  0  0  0  0  0  0  0  0  0  0
  -10.9849   -0.9282    0.3504 C   0  0  0  0  0  0  0  0  0  0  0  0
  -10.7858    0.4591    0.2308 C   0  0  0  0  0  0  0  0  0  0  0  0
  -12.0794    1.4733   -0.3796 Cl  0  0  0  0  0  0  0  0  0  0  0  0
   -9.5267    1.0243    0.5194 C   0  0  0  0  0  0  0  0  0  0  0  0
   -8.4669    0.2145    0.9507 C   0  0  0  0  0  0  0  0  0  0  0  0
   -8.6895   -1.1611    1.1116 C   0  0  0  0  0  0  0  0  0  0  0  0
   -7.7533   -2.2398    1.4866 C   0  0  0  0  0  0  0  0  0  0  0  0
   -6.6868   -2.1220    2.3113 C   0  0  0  0  0  0  0  0  0  0  0  0
   -6.1329   -0.8500    2.6963 C   0  0  0  0  0  0  0  0  0  0  0  0
   -5.6769    0.1674    3.0017 N   0  0  0  0  0  0  0  0  0  0  0  0
   -6.1587   -3.2610    3.0232 C   0  0  0  0  0  0  0  0  0  0  0  0
   -5.7381   -4.1592    3.6175 N   0  0  0  0  0  0  0  0  0  0  0  0
    7.9133    3.2699    2.9415 H   0  0  0  0  0  0  0  0  0  0  0  0
    7.5296   -0.9626   -1.5537 H   0  0  0  0  0  0  0  0  0  0  0  0
   11.4651   -2.2194   -0.3146 H   0  0  0  0  0  0  0  0  0  0  0  0
   11.7154   -0.1752    1.0391 H   0  0  0  0  0  0  0  0  0  0  0  0
    3.6396    6.4492   -0.2436 H   0  0  0  0  0  0  0  0  0  0  0  0
    1.4025    7.4133    0.1203 H   0  0  0  0  0  0  0  0  0  0  0  0
    0.1576    7.5158    4.1886 H   0  0  0  0  0  0  0  0  0  0  0  0
    0.6131    8.6840    2.8730 H   0  0  0  0  0  0  0  0  0  0  0  0
   -1.0694    8.6697    3.5440 H   0  0  0  0  0  0  0  0  0  0  0  0
    0.8137    4.8040    3.4861 H   0  0  0  0  0  0  0  0  0  0  0  0
    3.0577    3.8887    3.1846 H   0  0  0  0  0  0  0  0  0  0  0  0
    5.7947    6.5203    2.5758 H   0  0  0  0  0  0  0  0  0  0  0  0
    7.7591    7.8773    1.9944 H   0  0  0  0  0  0  0  0  0  0  0  0
    7.7534    8.6699   -1.8190 H   0  0  0  0  0  0  0  0  0  0  0  0
    7.8117    9.6116   -0.2619 H   0  0  0  0  0  0  0  0  0  0  0  0
    9.0336    9.9173   -1.5544 H   0  0  0  0  0  0  0  0  0  0  0  0
    8.2896    5.5859   -1.6051 H   0  0  0  0  0  0  0  0  0  0  0  0
    6.3433    4.1898   -1.0087 H   0  0  0  0  0  0  0  0  0  0  0  0
    4.7536   -1.9362    0.4096 H   0  0  0  0  0  0  0  0  0  0  0  0
    6.8735   -3.1479    0.6809 H   0  0  0  0  0  0  0  0  0  0  0  0
    6.6431   -6.0330    2.0154 H   0  0  0  0  0  0  0  0  0  0  0  0
    8.0824   -6.7908    2.7933 H   0  0  0  0  0  0  0  0  0  0  0  0
    6.7378   -6.1557    3.8174 H   0  0  0  0  0  0  0  0  0  0  0  0
    6.1197   -3.5515    4.8979 H   0  0  0  0  0  0  0  0  0  0  0  0
    4.0051   -2.3172    4.6402 H   0  0  0  0  0  0  0  0  0  0  0  0
    1.1989    0.4846    3.3608 H   0  0  0  0  0  0  0  0  0  0  0  0
   -1.0116   -0.0720    4.2881 H   0  0  0  0  0  0  0  0  0  0  0  0
   -0.9828   -2.9284    6.8262 H   0  0  0  0  0  0  0  0  0  0  0  0
   -1.6382   -1.2379    6.7170 H   0  0  0  0  0  0  0  0  0  0  0  0
   -2.7160   -2.5967    7.2134 H   0  0  0  0  0  0  0  0  0  0  0  0
   -0.1026   -4.2621    3.9842 H   0  0  0  0  0  0  0  0  0  0  0  0
    2.0853   -3.7223    2.9982 H   0  0  0  0  0  0  0  0  0  0  0  0
   -3.1009    2.3234   -0.9159 H   0  0  0  0  0  0  0  0  0  0  0  0
   -4.9423    3.1463    0.5026 H   0  0  0  0  0  0  0  0  0  0  0  0
   -4.7284    5.6002    2.1144 H   0  0  0  0  0  0  0  0  0  0  0  0
   -5.2188    5.9478    3.8146 H   0  0  0  0  0  0  0  0  0  0  0  0
   -3.5361    5.3913    3.4655 H   0  0  0  0  0  0  0  0  0  0  0  0
   -2.5059    2.5458    4.0022 H   0  0  0  0  0  0  0  0  0  0  0  0
   -0.6609    1.7387    2.5740 H   0  0  0  0  0  0  0  0  0  0  0  0
   -0.4904    4.2254    0.0581 H   0  0  0  0  0  0  0  0  0  0  0  0
    0.4013    5.7636   -1.6366 H   0  0  0  0  0  0  0  0  0  0  0  0
   -0.7445    6.1758   -4.2820 H   0  0  0  0  0  0  0  0  0  0  0  0
   -0.5646    4.7167   -5.3425 H   0  0  0  0  0  0  0  0  0  0  0  0
    0.0424    6.3187   -5.8979 H   0  0  0  0  0  0  0  0  0  0  0  0
    1.2330    2.4372   -4.2296 H   0  0  0  0  0  0  0  0  0  0  0  0
    0.2990    0.8896   -2.5667 H   0  0  0  0  0  0  0  0  0  0  0  0
    0.0190   -4.6878    1.2357 H   0  0  0  0  0  0  0  0  0  0  0  0
    2.1371   -5.7993    1.8539 H   0  0  0  0  0  0  0  0  0  0  0  0
    4.7643   -4.7104   -0.0894 H   0  0  0  0  0  0  0  0  0  0  0  0
    4.9719   -5.6586   -1.6126 H   0  0  0  0  0  0  0  0  0  0  0  0
    6.2110   -5.7660   -0.3167 H   0  0  0  0  0  0  0  0  0  0  0  0
    2.7828   -6.8771   -2.2621 H   0  0  0  0  0  0  0  0  0  0  0  0
    0.7117   -5.7253   -2.8974 H   0  0  0  0  0  0  0  0  0  0  0  0
   -1.8096   -3.5171   -3.6511 H   0  0  0  0  0  0  0  0  0  0  0  0
   -3.2662   -4.6339   -5.2887 H   0  0  0  0  0  0  0  0  0  0  0  0
   -2.6037   -8.7000   -5.5109 H   0  0  0  0  0  0  0  0  0  0  0  0
   -3.4906   -8.5377   -7.0820 H   0  0  0  0  0  0  0  0  0  0  0  0
   -2.4172   -7.2027   -6.5215 H   0  0  0  0  0  0  0  0  0  0  0  0
   -3.5557   -8.0650   -2.7008 H   0  0  0  0  0  0  0  0  0  0  0  0
   -2.0743   -6.9525   -1.0633 H   0  0  0  0  0  0  0  0  0  0  0  0
   -9.3648   -2.4279   -3.4595 H   0  0  0  0  0  0  0  0  0  0  0  0
   -8.3865   -1.5946   -4.6979 H   0  0  0  0  0  0  0  0  0  0  0  0
   -9.8670    0.0253   -3.5690 H   0  0  0  0  0  0  0  0  0  0  0  0
   -9.2601   -0.4909   -1.9563 H   0  0  0  0  0  0  0  0  0  0  0  0
   -8.1711    0.4014   -3.0785 H   0  0  0  0  0  0  0  0  0  0  0  0
   -6.5564   -0.1808   -4.6919 H   0  0  0  0  0  0  0  0  0  0  0  0
   -4.8238   -0.2537   -4.2748 H   0  0  0  0  0  0  0  0  0  0  0  0
   -4.5266   -2.3318   -5.5686 H   0  0  0  0  0  0  0  0  0  0  0  0
   -6.2999   -2.4040   -5.9245 H   0  0  0  0  0  0  0  0  0  0  0  0
   -5.2954   -1.0718   -6.6015 H   0  0  0  0  0  0  0  0  0  0  0  0
   -8.4616   -5.3776    0.1460 H   0  0  0  0  0  0  0  0  0  0  0  0
  -11.9275   -1.3789    0.0803 H   0  0  0  0  0  0  0  0  0  0  0  0
   -9.3640    2.0832    0.3784 H   0  0  0  0  0  0  0  0  0  0  0  0
   -7.4962    0.6537    1.0948 H   0  0  0  0  0  0  0  0  0  0  0  0
  1  2  2  3
  2  3  1  0
  3  4  2  0
  3  5  1  0
  5  6  2  0
  6  7  1  0
  7  8  1  0
  7  9  2  0
  9 10  1  0
 10 11  2  0
 11 12  1  0
 12 13  2  3
 13 14  1  0
 14 15  3  0
 13 16  1  0
 16 17  3  0
  1 18  1  0
 18 19  2  0
 19 20  1  0
 20 21  1  0
 21 22  2  0
 22 23  1  0
 23 24  2  0
 24 25  1  0
 25 26  1  0
 24 27  1  0
 27 28  2  0
 20 29  1  0
 29 30  2  0
 30 31  1  0
 31 32  2  0
 32 33  1  0
 33 34  1  0
 32 35  1  0
 35 36  2  0
 19 37  1  0
 37 38  1  0
 38 39  1  0
 39 40  2  0
 40 41  1  0
 41 42  1  0
 42 43  2  0
 43 44  1  0
 44 45  2  0
 45 46  1  0
 46 47  1  0
 45 48  1  0
 48 49  2  0
 41 50  1  0
 50 51  2  0
 51 52  1  0
 52 53  2  0
 53 54  1  0
 54 55  1  0
 53 56  1  0
 56 57  2  0
 40 58  1  0
 58 59  1  0
 39 60  1  0
 60 61  2  0
 61 62  1  0
 62 63  1  0
 63 64  2  0
 64 65  1  0
 65 66  2  0
 66 67  1  0
 67 68  1  0
 66 69  1  0
 69 70  2  0
 62 71  1  0
 71 72  2  0
 72 73  1  0
 73 74  2  0
 74 75  1  0
 75 76  1  0
 74 77  1  0
 77 78  2  0
 61 79  1  0
 79 80  1  0
 80 81  1  0
 81 82  2  0
 82 83  1  0
 83 84  1  0
 84 85  2  0
 85 86  1  0
 86 87  2  0
 87 88  1  0
 88 89  1  0
 87 90  1  0
 90 91  2  0
 83 92  1  0
 92 93  2  0
 93 94  1  0
 94 95  2  0
 95 96  1  0
 96 97  1  0
 95 98  1  0
 98 99  2  0
 82100  1  0
100101  1  0
 81102  1  0
102103  2  0
103104  1  0
103105  1  0
105106  1  0
105107  2  0
107108  1  0
108109  2  0
109110  1  0
110111  1  0
111112  1  0
110113  2  0
113114  1  0
114115  2  0
113116  1  0
116117  1  0
107118  1  0
118119  2  3
119120  1  0
120121  2  0
120122  1  0
122123  2  0
123124  1  0
124125  1  0
124126  2  0
126127  1  0
127128  2  0
128129  1  0
129130  2  3
130131  1  0
131132  3  0
130133  1  0
133134  3  0
 12  2  1  0
 59 18  1  0
101 60  1  0
115102  1  0
129119  1  0
 11  5  1  0
 28 21  1  0
 36 29  1  0
 58 37  2  0
 70 63  1  0
 78 71  1  0
100 79  2  0
115108  1  0
128122  1  0
 49 42  1  0
 57 50  1  0
 91 84  1  0
 99 92  1  0
  1135  1  0
  6136  1  0
  9137  1  0
 10138  1  0
 22139  1  0
 23140  1  0
 26141  1  0
 26142  1  0
 26143  1  0
 27144  1  0
 28145  1  0
 30146  1  0
 31147  1  0
 34148  1  0
 34149  1  0
 34150  1  0
 35151  1  0
 36152  1  0
 43153  1  0
 44154  1  0
 47155  1  0
 47156  1  0
 47157  1  0
 48158  1  0
 49159  1  0
 51160  1  0
 52161  1  0
 55162  1  0
 55163  1  0
 55164  1  0
 56165  1  0
 57166  1  0
 64167  1  0
 65168  1  0
 68169  1  0
 68170  1  0
 68171  1  0
 69172  1  0
 70173  1  0
 72174  1  0
 73175  1  0
 76176  1  0
 76177  1  0
 76178  1  0
 77179  1  0
 78180  1  0
 85181  1  0
 86182  1  0
 89183  1  0
 89184  1  0
 89185  1  0
 90186  1  0
 91187  1  0
 93188  1  0
 94189  1  0
 97190  1  0
 97191  1  0
 97192  1  0
 98193  1  0
 99194  1  0
111195  1  0
111196  1  0
112197  1  0
112198  1  0
112199  1  0
116200  1  0
116201  1  0
117202  1  0
117203  1  0
117204  1  0
118205  1  0
123206  1  0
126207  1  0
127208  1  0
M  END

