
     RDKit          3D

230249  0  0  0  0  0  0  0  0999 V2000
    5.6979    2.5871   -2.0484 C   0  0  0  0  0  0  0  0  0  0  0  0
    5.4200    3.6412   -1.2556 C   0  0  0  0  0  0  0  0  0  0  0  0
    4.0716    4.0921   -0.8900 C   0  0  0  0  0  0  0  0  0  0  0  0
    2.9927    3.4646   -1.0528 O   0  0  0  0  0  0  0  0  0  0  0  0
    4.1710    5.4198   -0.3289 C   0  0  0  0  0  0  0  0  0  0  0  0
    3.1352    6.2797    0.0461 C   0  0  0  0  0  0  0  0  0  0  0  0
    3.4644    7.5786    0.4613 C   0  0  0  0  0  0  0  0  0  0  0  0
    2.2014    8.6890    0.9475 Cl  0  0  0  0  0  0  0  0  0  0  0  0
    4.8085    7.9938    0.4812 C   0  0  0  0  0  0  0  0  0  0  0  0
    5.8293    7.1165    0.0868 C   0  0  0  0  0  0  0  0  0  0  0  0
    5.4997    5.8037   -0.2884 C   0  0  0  0  0  0  0  0  0  0  0  0
    6.3681    4.6842   -0.7510 C   0  0  0  0  0  0  0  0  0  0  0  0
    7.7004    4.5465   -0.5225 C   0  0  0  0  0  0  0  0  0  0  0  0
    8.4785    5.5615    0.1373 C   0  0  0  0  0  0  0  0  0  0  0  0
    9.1127    6.3716    0.6675 N   0  0  0  0  0  0  0  0  0  0  0  0
    8.4136    3.3305   -0.8200 C   0  0  0  0  0  0  0  0  0  0  0  0
    9.0005    2.3593   -1.0502 N   0  0  0  0  0  0  0  0  0  0  0  0
    4.6553    1.6441   -2.4731 C   0  0  0  0  0  0  0  0  0  0  0  0
    4.2134    0.5190   -1.7580 C   0  0  0  0  0  0  0  0  0  0  0  0
    4.8633   -0.0461   -0.6076 N   0  0  0  0  0  0  0  0  0  0  0  0
    5.3618   -1.3975   -0.6689 C   0  0  0  0  0  0  0  0  0  0  0  0
    5.3727   -2.2149    0.4796 C   0  0  0  0  0  0  0  0  0  0  0  0
    5.9210   -3.4971    0.4264 C   0  0  0  0  0  0  0  0  0  0  0  0
    6.4679   -3.9800   -0.7705 C   0  0  0  0  0  0  0  0  0  0  0  0
    7.2257   -5.6038   -0.8342 S   0  0  0  0  0  0  0  0  0  0  0  0
    8.9069   -4.9855   -0.4872 C   0  0  0  0  0  0  0  0  0  0  0  0
    6.4343   -3.1860   -1.9199 C   0  0  0  0  0  0  0  0  0  0  0  0
    5.8844   -1.9037   -1.8722 C   0  0  0  0  0  0  0  0  0  0  0  0
    5.2120    0.7841    0.5059 C   0  0  0  0  0  0  0  0  0  0  0  0
    6.5553    0.9072    0.8938 C   0  0  0  0  0  0  0  0  0  0  0  0
    6.9025    1.7195    1.9693 C   0  0  0  0  0  0  0  0  0  0  0  0
    5.9068    2.3821    2.6947 C   0  0  0  0  0  0  0  0  0  0  0  0
    6.3454    3.3331    4.1494 S   0  0  0  0  0  0  0  0  0  0  0  0
    6.5944    1.8462    5.1765 C   0  0  0  0  0  0  0  0  0  0  0  0
    4.5623    2.2544    2.3234 C   0  0  0  0  0  0  0  0  0  0  0  0
    4.2161    1.4598    1.2251 C   0  0  0  0  0  0  0  0  0  0  0  0
    3.1155   -0.0620   -2.3790 C   0  0  0  0  0  0  0  0  0  0  0  0
    2.0209   -1.2178   -1.8983 S   0  0  0  0  0  0  0  0  0  0  0  0
    0.9607   -1.0039   -3.2159 C   0  0  0  0  0  0  0  0  0  0  0  0
    1.4978   -0.0073   -4.0771 C   0  0  0  0  0  0  0  0  0  0  0  0
    0.9312    0.4075   -5.3500 N   0  0  0  0  0  0  0  0  0  0  0  0
    1.6976    1.2479   -6.2265 C   0  0  0  0  0  0  0  0  0  0  0  0
    1.3912    2.6125   -6.3436 C   0  0  0  0  0  0  0  0  0  0  0  0
    2.1882    3.4402   -7.1463 C   0  0  0  0  0  0  0  0  0  0  0  0
    3.2911    2.9060   -7.8260 C   0  0  0  0  0  0  0  0  0  0  0  0
    4.3585    3.9713   -8.8022 S   0  0  0  0  0  0  0  0  0  0  0  0
    5.3711    4.4746   -7.3753 C   0  0  0  0  0  0  0  0  0  0  0  0
    3.5791    1.5404   -7.7223 C   0  0  0  0  0  0  0  0  0  0  0  0
    2.7789    0.7108   -6.9362 C   0  0  0  0  0  0  0  0  0  0  0  0
   -0.1108   -0.3496   -5.9768 C   0  0  0  0  0  0  0  0  0  0  0  0
   -1.2948    0.2829   -6.3933 C   0  0  0  0  0  0  0  0  0  0  0  0
   -2.3305   -0.4654   -6.9665 C   0  0  0  0  0  0  0  0  0  0  0  0
   -2.1720   -1.8404   -7.1638 C   0  0  0  0  0  0  0  0  0  0  0  0
   -3.5280   -2.8308   -7.7874 S   0  0  0  0  0  0  0  0  0  0  0  0
   -4.1407   -3.2511   -6.1227 C   0  0  0  0  0  0  0  0  0  0  0  0
   -0.9595   -2.4560   -6.8441 C   0  0  0  0  0  0  0  0  0  0  0  0
    0.0647   -1.7175   -6.2428 C   0  0  0  0  0  0  0  0  0  0  0  0
    2.6965    0.5083   -3.5364 C   0  0  0  0  0  0  0  0  0  0  0  0
    3.6776    1.8460   -3.8519 S   0  0  0  0  0  0  0  0  0  0  0  0
   -0.4597   -1.3702   -3.0949 C   0  0  0  0  0  0  0  0  0  0  0  0
   -0.9917   -2.5363   -2.5057 C   0  0  0  0  0  0  0  0  0  0  0  0
   -0.2619   -3.7345   -2.1964 N   0  0  0  0  0  0  0  0  0  0  0  0
    0.5408   -3.8373   -1.0034 C   0  0  0  0  0  0  0  0  0  0  0  0
    0.2024   -3.1521    0.1780 C   0  0  0  0  0  0  0  0  0  0  0  0
    0.9388   -3.3604    1.3482 C   0  0  0  0  0  0  0  0  0  0  0  0
    2.0251   -4.2435    1.3540 C   0  0  0  0  0  0  0  0  0  0  0  0
    2.8523   -4.6274    2.8963 S   0  0  0  0  0  0  0  0  0  0  0  0
    1.7579   -6.0415    3.2501 C   0  0  0  0  0  0  0  0  0  0  0  0
    2.4139   -4.8750    0.1649 C   0  0  0  0  0  0  0  0  0  0  0  0
    1.6692   -4.6779   -1.0042 C   0  0  0  0  0  0  0  0  0  0  0  0
   -0.7249   -4.9413   -2.8279 C   0  0  0  0  0  0  0  0  0  0  0  0
   -1.2316   -6.0102   -2.0621 C   0  0  0  0  0  0  0  0  0  0  0  0
   -1.8591   -7.0919   -2.6881 C   0  0  0  0  0  0  0  0  0  0  0  0
   -1.9790   -7.1160   -4.0848 C   0  0  0  0  0  0  0  0  0  0  0  0
   -2.8936   -8.4344   -4.8888 S   0  0  0  0  0  0  0  0  0  0  0  0
   -4.4768   -7.5381   -4.7898 C   0  0  0  0  0  0  0  0  0  0  0  0
   -1.4287   -6.0845   -4.8518 C   0  0  0  0  0  0  0  0  0  0  0  0
   -0.8027   -5.0061   -4.2248 C   0  0  0  0  0  0  0  0  0  0  0  0
   -2.3271   -2.3697   -2.1335 C   0  0  0  0  0  0  0  0  0  0  0  0
   -3.2144   -3.1470   -0.9556 S   0  0  0  0  0  0  0  0  0  0  0  0
   -4.2922   -1.8623   -0.6774 C   0  0  0  0  0  0  0  0  0  0  0  0
   -3.9750   -0.8119   -1.5702 C   0  0  0  0  0  0  0  0  0  0  0  0
   -4.6239    0.4825   -1.5917 N   0  0  0  0  0  0  0  0  0  0  0  0
   -5.8709    0.6901   -0.9097 C   0  0  0  0  0  0  0  0  0  0  0  0
   -5.9893    1.7034    0.0542 C   0  0  0  0  0  0  0  0  0  0  0  0
   -7.2235    1.9360    0.6773 C   0  0  0  0  0  0  0  0  0  0  0  0
   -8.3319    1.1474    0.3501 C   0  0  0  0  0  0  0  0  0  0  0  0
   -9.9202    1.4530    1.1283 S   0  0  0  0  0  0  0  0  0  0  0  0
   -9.5582    0.3812    2.5561 C   0  0  0  0  0  0  0  0  0  0  0  0
   -8.2115    0.1316   -0.6047 C   0  0  0  0  0  0  0  0  0  0  0  0
   -6.9882   -0.0870   -1.2394 C   0  0  0  0  0  0  0  0  0  0  0  0
   -4.3306    1.3961   -2.6575 C   0  0  0  0  0  0  0  0  0  0  0  0
   -4.7129    1.0856   -3.9729 C   0  0  0  0  0  0  0  0  0  0  0  0
   -4.3417    1.9223   -5.0287 C   0  0  0  0  0  0  0  0  0  0  0  0
   -3.5745    3.0645   -4.7803 C   0  0  0  0  0  0  0  0  0  0  0  0
   -3.0757    4.1271   -6.1398 S   0  0  0  0  0  0  0  0  0  0  0  0
   -4.5560    5.1761   -6.0067 C   0  0  0  0  0  0  0  0  0  0  0  0
   -3.1809    3.3674   -3.4723 C   0  0  0  0  0  0  0  0  0  0  0  0
   -3.5697    2.5468   -2.4089 C   0  0  0  0  0  0  0  0  0  0  0  0
   -2.8554   -1.1408   -2.3534 C   0  0  0  0  0  0  0  0  0  0  0  0
   -1.6786   -0.1856   -3.0814 S   0  0  0  0  0  0  0  0  0  0  0  0
   -4.8067   -1.6972    0.6998 C   0  0  0  0  0  0  0  0  0  0  0  0
   -4.0376   -0.9743    1.6267 C   0  0  0  0  0  0  0  0  0  0  0  0
   -3.1272   -0.0558    1.2137 N   0  0  0  0  0  0  0  0  0  0  0  0
   -2.2675    0.5522    2.0779 C   0  0  0  0  0  0  0  0  0  0  0  0
   -1.5610    1.7657    1.6087 C   0  0  0  0  0  0  0  0  0  0  0  0
   -1.6748    2.9702    2.3284 C   0  0  0  0  0  0  0  0  0  0  0  0
   -1.2214    4.1667    1.7705 C   0  0  0  0  0  0  0  0  0  0  0  0
   -0.6827    4.1871    0.4811 C   0  0  0  0  0  0  0  0  0  0  0  0
   -0.3331    5.4290   -0.0675 O   0  0  0  0  0  0  0  0  0  0  0  0
   -0.7452    5.8828   -1.3534 C   0  0  0  0  0  0  0  0  0  0  0  0
   -2.2321    6.2240   -1.3509 C   0  0  0  0  0  0  0  0  0  0  0  0
   -0.4930    2.9762   -0.2099 C   0  0  0  0  0  0  0  0  0  0  0  0
   -0.9324    1.7728    0.3556 C   0  0  0  0  0  0  0  0  0  0  0  0
   -0.7387    0.6070   -0.3152 F   0  0  0  0  0  0  0  0  0  0  0  0
    0.1216    2.9496   -1.4183 F   0  0  0  0  0  0  0  0  0  0  0  0
   -1.3935    5.3314    2.4494 F   0  0  0  0  0  0  0  0  0  0  0  0
   -2.3178    3.0081    3.5254 F   0  0  0  0  0  0  0  0  0  0  0  0
   -2.2201    0.0968    3.4148 C   0  0  0  0  0  0  0  0  0  0  0  0
   -1.1001    0.4105    4.3350 C   0  0  0  0  0  0  0  0  0  0  0  0
   -1.3550    0.6824    5.6930 C   0  0  0  0  0  0  0  0  0  0  0  0
   -2.6294    0.7848    6.1435 F   0  0  0  0  0  0  0  0  0  0  0  0
   -0.3002    0.8378    6.5957 C   0  0  0  0  0  0  0  0  0  0  0  0
   -0.5720    1.0723    7.9039 F   0  0  0  0  0  0  0  0  0  0  0  0
    1.0251    0.7077    6.1741 C   0  0  0  0  0  0  0  0  0  0  0  0
    2.0331    0.8081    7.1540 O   0  0  0  0  0  0  0  0  0  0  0  0
    3.4259    0.6296    6.9220 C   0  0  0  0  0  0  0  0  0  0  0  0
    4.1772    0.7406    8.2377 C   0  0  0  0  0  0  0  0  0  0  0  0
    1.2930    0.4723    4.8034 C   0  0  0  0  0  0  0  0  0  0  0  0
    2.5611    0.3645    4.3320 F   0  0  0  0  0  0  0  0  0  0  0  0
    0.2377    0.3097    3.8998 C   0  0  0  0  0  0  0  0  0  0  0  0
    0.5312   -0.0114    2.6122 F   0  0  0  0  0  0  0  0  0  0  0  0
   -3.1932   -0.7514    3.8424 N   0  0  0  0  0  0  0  0  0  0  0  0
   -4.1498   -1.2402    3.0026 C   0  0  0  0  0  0  0  0  0  0  0  0
   -5.1748   -2.0776    3.4791 C   0  0  0  0  0  0  0  0  0  0  0  0
   -6.0120   -2.7193    2.5492 C   0  0  0  0  0  0  0  0  0  0  0  0
   -5.8059   -2.5551    1.1734 C   0  0  0  0  0  0  0  0  0  0  0  0
   -5.2895   -2.4217    4.9160 C   0  0  0  0  0  0  0  0  0  0  0  0
   -5.2448   -1.5224    5.9204 C   0  0  0  0  0  0  0  0  0  0  0  0
   -5.5438   -0.0906    5.7859 C   0  0  0  0  0  0  0  0  0  0  0  0
   -5.8289    0.5205    4.7216 O   0  0  0  0  0  0  0  0  0  0  0  0
   -5.5833    0.4947    7.1051 C   0  0  0  0  0  0  0  0  0  0  0  0
   -5.8272    1.8277    7.4420 C   0  0  0  0  0  0  0  0  0  0  0  0
   -5.7862    2.1920    8.7933 C   0  0  0  0  0  0  0  0  0  0  0  0
   -6.0935    3.8567    9.2602 Cl  0  0  0  0  0  0  0  0  0  0  0  0
   -5.5123    1.2279    9.7774 C   0  0  0  0  0  0  0  0  0  0  0  0
   -5.2676   -0.1084    9.4181 C   0  0  0  0  0  0  0  0  0  0  0  0
   -5.3034   -0.4716    8.0578 C   0  0  0  0  0  0  0  0  0  0  0  0
   -5.0298   -1.7802    7.3849 C   0  0  0  0  0  0  0  0  0  0  0  0
   -4.5296   -2.9093    7.9561 C   0  0  0  0  0  0  0  0  0  0  0  0
   -4.3429   -3.0556    9.3748 C   0  0  0  0  0  0  0  0  0  0  0  0
   -4.1808   -3.1914   10.5144 N   0  0  0  0  0  0  0  0  0  0  0  0
   -4.0565   -4.0232    7.1785 C   0  0  0  0  0  0  0  0  0  0  0  0
   -3.6625   -4.9181    6.5602 N   0  0  0  0  0  0  0  0  0  0  0  0
    6.6933    2.4224   -2.4329 H   0  0  0  0  0  0  0  0  0  0  0  0
    2.1063    5.9575    0.0088 H   0  0  0  0  0  0  0  0  0  0  0  0
    5.0569    9.0027    0.7797 H   0  0  0  0  0  0  0  0  0  0  0  0
    6.8377    7.4810    0.0503 H   0  0  0  0  0  0  0  0  0  0  0  0
    4.9612   -1.8478    1.4127 H   0  0  0  0  0  0  0  0  0  0  0  0
    5.9288   -4.1124    1.3158 H   0  0  0  0  0  0  0  0  0  0  0  0
    9.0503   -4.9100    0.6131 H   0  0  0  0  0  0  0  0  0  0  0  0
    9.0812   -3.9892   -0.9481 H   0  0  0  0  0  0  0  0  0  0  0  0
    9.6506   -5.7005   -0.8943 H   0  0  0  0  0  0  0  0  0  0  0  0
    6.8562   -3.5489   -2.8486 H   0  0  0  0  0  0  0  0  0  0  0  0
    5.8984   -1.2902   -2.7645 H   0  0  0  0  0  0  0  0  0  0  0  0
    7.3275    0.3758    0.3530 H   0  0  0  0  0  0  0  0  0  0  0  0
    7.9443    1.8135    2.2586 H   0  0  0  0  0  0  0  0  0  0  0  0
    7.5369    1.3387    4.8730 H   0  0  0  0  0  0  0  0  0  0  0  0
    5.7544    1.1338    5.0521 H   0  0  0  0  0  0  0  0  0  0  0  0
    6.6694    2.1370    6.2450 H   0  0  0  0  0  0  0  0  0  0  0  0
    3.7890    2.7641    2.8834 H   0  0  0  0  0  0  0  0  0  0  0  0
    3.1758    1.3549    0.9461 H   0  0  0  0  0  0  0  0  0  0  0  0
    0.5525    3.0345   -5.8029 H   0  0  0  0  0  0  0  0  0  0  0  0
    1.9572    4.4950   -7.2253 H   0  0  0  0  0  0  0  0  0  0  0  0
    4.7522    5.0625   -6.6671 H   0  0  0  0  0  0  0  0  0  0  0  0
    5.7909    3.5907   -6.8540 H   0  0  0  0  0  0  0  0  0  0  0  0
    6.2039    5.1151   -7.7208 H   0  0  0  0  0  0  0  0  0  0  0  0
    4.4228    1.1231   -8.2543 H   0  0  0  0  0  0  0  0  0  0  0  0
    3.0056   -0.3424   -6.8615 H   0  0  0  0  0  0  0  0  0  0  0  0
   -1.4227    1.3488   -6.2349 H   0  0  0  0  0  0  0  0  0  0  0  0
   -3.2520    0.0244   -7.2542 H   0  0  0  0  0  0  0  0  0  0  0  0
   -3.3378   -3.7093   -5.5061 H   0  0  0  0  0  0  0  0  0  0  0  0
   -4.9710   -3.9812   -6.2241 H   0  0  0  0  0  0  0  0  0  0  0  0
   -4.5252   -2.3411   -5.6101 H   0  0  0  0  0  0  0  0  0  0  0  0
   -0.8176   -3.5122   -7.0511 H   0  0  0  0  0  0  0  0  0  0  0  0
    0.9902   -2.2117   -5.9718 H   0  0  0  0  0  0  0  0  0  0  0  0
   -0.6466   -2.4819    0.2085 H   0  0  0  0  0  0  0  0  0  0  0  0
    0.6443   -2.8566    2.2578 H   0  0  0  0  0  0  0  0  0  0  0  0
    1.9213   -6.8447    2.4998 H   0  0  0  0  0  0  0  0  0  0  0  0
    0.6962   -5.7179    3.2278 H   0  0  0  0  0  0  0  0  0  0  0  0
    1.9768   -6.4411    4.2611 H   0  0  0  0  0  0  0  0  0  0  0  0
    3.2687   -5.5415    0.1485 H   0  0  0  0  0  0  0  0  0  0  0  0
    1.9538   -5.1978   -1.9128 H   0  0  0  0  0  0  0  0  0  0  0  0
   -1.1865   -5.9752   -0.9766 H   0  0  0  0  0  0  0  0  0  0  0  0
   -2.2806   -7.8896   -2.0867 H   0  0  0  0  0  0  0  0  0  0  0  0
   -5.2709   -8.1367   -5.2801 H   0  0  0  0  0  0  0  0  0  0  0  0
   -4.7568   -7.3806   -3.7263 H   0  0  0  0  0  0  0  0  0  0  0  0
   -4.4022   -6.5579   -5.3050 H   0  0  0  0  0  0  0  0  0  0  0  0
   -1.5139   -6.0989   -5.9326 H   0  0  0  0  0  0  0  0  0  0  0  0
   -0.4010   -4.1988   -4.8142 H   0  0  0  0  0  0  0  0  0  0  0  0
   -5.1289    2.3046    0.3169 H   0  0  0  0  0  0  0  0  0  0  0  0
   -7.3071    2.7225    1.4161 H   0  0  0  0  0  0  0  0  0  0  0  0
   -8.7210    0.8100    3.1497 H   0  0  0  0  0  0  0  0  0  0  0  0
  -10.4577    0.3202    3.2033 H   0  0  0  0  0  0  0  0  0  0  0  0
   -9.2851   -0.6428    2.2240 H   0  0  0  0  0  0  0  0  0  0  0  0
   -9.0730   -0.4784   -0.8603 H   0  0  0  0  0  0  0  0  0  0  0  0
   -6.9175   -0.8546   -2.0004 H   0  0  0  0  0  0  0  0  0  0  0  0
   -5.2618    0.1737   -4.1754 H   0  0  0  0  0  0  0  0  0  0  0  0
   -4.6332    1.6689   -6.0427 H   0  0  0  0  0  0  0  0  0  0  0  0
   -4.6343    5.5920   -4.9825 H   0  0  0  0  0  0  0  0  0  0  0  0
   -5.4648    4.5824   -6.2367 H   0  0  0  0  0  0  0  0  0  0  0  0
   -4.4872    6.0182   -6.7229 H   0  0  0  0  0  0  0  0  0  0  0  0
   -2.5681    4.2347   -3.2858 H   0  0  0  0  0  0  0  0  0  0  0  0
   -3.2535    2.7815   -1.4013 H   0  0  0  0  0  0  0  0  0  0  0  0
   -0.1705    6.8073   -1.5956 H   0  0  0  0  0  0  0  0  0  0  0  0
   -0.5138    5.1364   -2.1362 H   0  0  0  0  0  0  0  0  0  0  0  0
   -2.4312    7.0410   -0.6331 H   0  0  0  0  0  0  0  0  0  0  0  0
   -2.8269    5.3344   -1.0667 H   0  0  0  0  0  0  0  0  0  0  0  0
   -2.5379    6.5512   -2.3621 H   0  0  0  0  0  0  0  0  0  0  0  0
    3.7907    1.4042    6.2317 H   0  0  0  0  0  0  0  0  0  0  0  0
    3.6118   -0.3826    6.4964 H   0  0  0  0  0  0  0  0  0  0  0  0
    3.8507   -0.0631    8.9309 H   0  0  0  0  0  0  0  0  0  0  0  0
    3.9757    1.7361    8.6992 H   0  0  0  0  0  0  0  0  0  0  0  0
    5.2732    0.6443    8.0543 H   0  0  0  0  0  0  0  0  0  0  0  0
   -6.7724   -3.4156    2.8852 H   0  0  0  0  0  0  0  0  0  0  0  0
   -6.3876   -3.1403    0.4716 H   0  0  0  0  0  0  0  0  0  0  0  0
   -5.3798   -3.4704    5.1411 H   0  0  0  0  0  0  0  0  0  0  0  0
   -6.0574    2.5629    6.6760 H   0  0  0  0  0  0  0  0  0  0  0  0
   -5.4740    1.5169   10.8218 H   0  0  0  0  0  0  0  0  0  0  0  0
   -5.0729   -0.8131   10.2059 H   0  0  0  0  0  0  0  0  0  0  0  0
  1  2  2  3
  2  3  1  0
  3  4  2  0
  3  5  1  0
  5  6  2  0
  6  7  1  0
  7  8  1  0
  7  9  2  0
  9 10  1  0
 10 11  2  0
 11 12  1  0
 12 13  2  3
 13 14  1  0
 14 15  3  0
 13 16  1  0
 16 17  3  0
  1 18  1  0
 18 19  2  0
 19 20  1  0
 20 21  1  0
 21 22  2  0
 22 23  1  0
 23 24  2  0
 24 25  1  0
 25 26  1  0
 24 27  1  0
 27 28  2  0
 20 29  1  0
 29 30  2  0
 30 31  1  0
 31 32  2  0
 32 33  1  0
 33 34  1  0
 32 35  1  0
 35 36  2  0
 19 37  1  0
 37 38  1  0
 38 39  1  0
 39 40  2  0
 40 41  1  0
 41 42  1  0
 42 43  2  0
 43 44  1  0
 44 45  2  0
 45 46  1  0
 46 47  1  0
 45 48  1  0
 48 49  2  0
 41 50  1  0
 50 51  2  0
 51 52  1  0
 52 53  2  0
 53 54  1  0
 54 55  1  0
 53 56  1  0
 56 57  2  0
 40 58  1  0
 58 59  1  0
 39 60  1  0
 60 61  2  0
 61 62  1  0
 62 63  1  0
 63 64  2  0
 64 65  1  0
 65 66  2  0
 66 67  1  0
 67 68  1  0
 66 69  1  0
 69 70  2  0
 62 71  1  0
 71 72  2  0
 72 73  1  0
 73 74  2  0
 74 75  1  0
 75 76  1  0
 74 77  1  0
 77 78  2  0
 61 79  1  0
 79 80  1  0
 80 81  1  0
 81 82  2  0
 82 83  1  0
 83 84  1  0
 84 85  2  0
 85 86  1  0
 86 87  2  0
 87 88  1  0
 88 89  1  0
 87 90  1  0
 90 91  2  0
 83 92  1  0
 92 93  2  0
 93 94  1  0
 94 95  2  0
 95 96  1  0
 96 97  1  0
 95 98  1  0
 98 99  2  0
 82100  1  0
100101  1  0
 81102  1  0
102103  1  0
103104  2  0
104105  1  0
105106  1  0
106107  2  0
107108  1  0
108109  2  0
109110  1  0
110111  1  0
111112  1  0
109113  1  0
113114  2  0
114115  1  0
113116  1  0
108117  1  0
107118  1  0
105119  2  0
119120  1  0
120121  2  0
121122  1  0
121123  1  0
123124  1  0
123125  2  0
125126  1  0
126127  1  0
127128  1  0
125129  1  0
129130  1  0
129131  2  0
131132  1  0
119133  1  0
133134  2  0
134135  1  0
135136  2  0
136137  1  0
135138  1  0
138139  2  3
139140  1  0
140141  2  0
140142  1  0
142143  2  0
143144  1  0
144145  1  0
144146  2  0
146147  1  0
147148  2  0
148149  1  0
149150  2  3
150151  1  0
151152  3  0
150153  1  0
153154  3  0
 12  2  1  0
 59 18  1  0
101 60  1  0
137102  2  0
149139  1  0
 11  5  1  0
 28 21  1  0
 36 29  1  0
 58 37  2  0
 70 63  1  0
 78 71  1  0
100 79  2  0
134103  1  0
148142  1  0
 49 42  1  0
 57 50  1  0
 91 84  1  0
 99 92  1  0
114106  1  0
131120  1  0
  1155  1  0
  6156  1  0
  9157  1  0
 10158  1  0
 22159  1  0
 23160  1  0
 26161  1  0
 26162  1  0
 26163  1  0
 27164  1  0
 28165  1  0
 30166  1  0
 31167  1  0
 34168  1  0
 34169  1  0
 34170  1  0
 35171  1  0
 36172  1  0
 43173  1  0
 44174  1  0
 47175  1  0
 47176  1  0
 47177  1  0
 48178  1  0
 49179  1  0
 51180  1  0
 52181  1  0
 55182  1  0
 55183  1  0
 55184  1  0
 56185  1  0
 57186  1  0
 64187  1  0
 65188  1  0
 68189  1  0
 68190  1  0
 68191  1  0
 69192  1  0
 70193  1  0
 72194  1  0
 73195  1  0
 76196  1  0
 76197  1  0
 76198  1  0
 77199  1  0
 78200  1  0
 85201  1  0
 86202  1  0
 89203  1  0
 89204  1  0
 89205  1  0
 90206  1  0
 91207  1  0
 93208  1  0
 94209  1  0
 97210  1  0
 97211  1  0
 97212  1  0
 98213  1  0
 99214  1  0
111215  1  0
111216  1  0
112217  1  0
112218  1  0
112219  1  0
127220  1  0
127221  1  0
128222  1  0
128223  1  0
128224  1  0
136225  1  0
137226  1  0
138227  1  0
143228  1  0
146229  1  0
147230  1  0
M  END

