
     RDKit          3D

261285  0  0  0  0  0  0  0  0999 V2000
    1.1008   -4.3968   -9.2789 C   0  0  0  0  0  0  0  0  0  0  0  0
    1.8254   -3.7047  -10.1690 C   0  0  0  0  0  0  0  0  0  0  0  0
    2.8620   -4.3322  -10.9878 C   0  0  0  0  0  0  0  0  0  0  0  0
    2.9902   -5.5697  -11.1918 O   0  0  0  0  0  0  0  0  0  0  0  0
    3.8377   -3.3148  -11.3323 C   0  0  0  0  0  0  0  0  0  0  0  0
    5.1070   -3.4931  -11.8865 C   0  0  0  0  0  0  0  0  0  0  0  0
    5.9867   -2.3977  -11.9060 C   0  0  0  0  0  0  0  0  0  0  0  0
    7.6151   -2.5944  -12.5242 Cl  0  0  0  0  0  0  0  0  0  0  0  0
    5.5860   -1.1574  -11.3740 C   0  0  0  0  0  0  0  0  0  0  0  0
    4.3000   -0.9965  -10.8326 C   0  0  0  0  0  0  0  0  0  0  0  0
    3.4238   -2.0902  -10.8289 C   0  0  0  0  0  0  0  0  0  0  0  0
    2.0932   -2.2403  -10.1851 C   0  0  0  0  0  0  0  0  0  0  0  0
    1.1744   -1.2624  -10.0169 C   0  0  0  0  0  0  0  0  0  0  0  0
    1.4847    0.1289  -10.2245 C   0  0  0  0  0  0  0  0  0  0  0  0
    1.7202    1.2491  -10.3997 N   0  0  0  0  0  0  0  0  0  0  0  0
   -0.2266   -1.5674   -9.8858 C   0  0  0  0  0  0  0  0  0  0  0  0
   -1.3584   -1.8111   -9.8128 N   0  0  0  0  0  0  0  0  0  0  0  0
    0.7372   -3.8617   -7.9663 C   0  0  0  0  0  0  0  0  0  0  0  0
    1.6413   -3.5801   -6.9279 C   0  0  0  0  0  0  0  0  0  0  0  0
    3.0654   -3.7321   -6.9901 N   0  0  0  0  0  0  0  0  0  0  0  0
    3.9248   -2.6093   -7.2945 C   0  0  0  0  0  0  0  0  0  0  0  0
    3.4770   -1.2773   -7.1463 C   0  0  0  0  0  0  0  0  0  0  0  0
    4.3327   -0.2064   -7.4399 C   0  0  0  0  0  0  0  0  0  0  0  0
    5.6343   -0.4418   -7.8918 C   0  0  0  0  0  0  0  0  0  0  0  0
    6.6690    0.9326   -8.4015 S   0  0  0  0  0  0  0  0  0  0  0  0
    7.4820    1.1265   -6.7904 C   0  0  0  0  0  0  0  0  0  0  0  0
    6.0922   -1.7593   -8.0286 C   0  0  0  0  0  0  0  0  0  0  0  0
    5.2450   -2.8295   -7.7330 C   0  0  0  0  0  0  0  0  0  0  0  0
    3.6344   -4.9098   -6.3869 C   0  0  0  0  0  0  0  0  0  0  0  0
    4.3415   -4.8170   -5.1743 C   0  0  0  0  0  0  0  0  0  0  0  0
    4.8919   -5.9591   -4.5920 C   0  0  0  0  0  0  0  0  0  0  0  0
    4.7474   -7.2051   -5.2155 C   0  0  0  0  0  0  0  0  0  0  0  0
    5.4596   -8.6698   -4.4696 S   0  0  0  0  0  0  0  0  0  0  0  0
    3.9448   -9.0817   -3.5507 C   0  0  0  0  0  0  0  0  0  0  0  0
    4.0630   -7.2999   -6.4328 C   0  0  0  0  0  0  0  0  0  0  0  0
    3.5068   -6.1562   -7.0152 C   0  0  0  0  0  0  0  0  0  0  0  0
    0.9633   -3.2959   -5.7515 C   0  0  0  0  0  0  0  0  0  0  0  0
    1.4337   -2.9468   -4.1921 S   0  0  0  0  0  0  0  0  0  0  0  0
   -0.1495   -2.8089   -3.5723 C   0  0  0  0  0  0  0  0  0  0  0  0
   -1.0533   -3.0149   -4.6371 C   0  0  0  0  0  0  0  0  0  0  0  0
   -2.4723   -2.8094   -4.5869 N   0  0  0  0  0  0  0  0  0  0  0  0
   -3.3600   -3.9601   -4.5106 C   0  0  0  0  0  0  0  0  0  0  0  0
   -2.8635   -5.2738   -4.6542 C   0  0  0  0  0  0  0  0  0  0  0  0
   -3.7346   -6.3684   -4.7007 C   0  0  0  0  0  0  0  0  0  0  0  0
   -5.1133   -6.1721   -4.5935 C   0  0  0  0  0  0  0  0  0  0  0  0
   -6.2378   -7.5652   -4.7245 S   0  0  0  0  0  0  0  0  0  0  0  0
   -6.3478   -7.4769   -6.5358 C   0  0  0  0  0  0  0  0  0  0  0  0
   -5.6169   -4.8818   -4.4053 C   0  0  0  0  0  0  0  0  0  0  0  0
   -4.7500   -3.7890   -4.3340 C   0  0  0  0  0  0  0  0  0  0  0  0
   -2.9500   -1.5116   -5.0196 C   0  0  0  0  0  0  0  0  0  0  0  0
   -3.8363   -1.3960   -6.1048 C   0  0  0  0  0  0  0  0  0  0  0  0
   -4.3051   -0.1394   -6.5109 C   0  0  0  0  0  0  0  0  0  0  0  0
   -3.8703    1.0205   -5.8579 C   0  0  0  0  0  0  0  0  0  0  0  0
   -4.4817    2.6326   -6.3635 S   0  0  0  0  0  0  0  0  0  0  0  0
   -5.8893    2.5972   -5.2087 C   0  0  0  0  0  0  0  0  0  0  0  0
   -2.9531    0.9228   -4.8105 C   0  0  0  0  0  0  0  0  0  0  0  0
   -2.4808   -0.3310   -4.4064 C   0  0  0  0  0  0  0  0  0  0  0  0
   -0.3861   -3.3132   -5.8224 C   0  0  0  0  0  0  0  0  0  0  0  0
   -0.8576   -3.7579   -7.3706 S   0  0  0  0  0  0  0  0  0  0  0  0
   -0.4507   -2.3542   -2.1955 C   0  0  0  0  0  0  0  0  0  0  0  0
    0.5081   -1.8053   -1.3298 C   0  0  0  0  0  0  0  0  0  0  0  0
    1.8669   -2.2663   -1.2481 N   0  0  0  0  0  0  0  0  0  0  0  0
    2.9215   -1.2887   -1.1777 C   0  0  0  0  0  0  0  0  0  0  0  0
    3.9250   -1.3838   -0.1983 C   0  0  0  0  0  0  0  0  0  0  0  0
    4.9295   -0.4149   -0.1145 C   0  0  0  0  0  0  0  0  0  0  0  0
    4.9484    0.6658   -1.0105 C   0  0  0  0  0  0  0  0  0  0  0  0
    6.0614    1.6648   -0.9484 C   0  0  0  0  0  0  0  0  0  0  0  0
    3.9476    0.7646   -1.9907 C   0  0  0  0  0  0  0  0  0  0  0  0
    2.9408   -0.2034   -2.0727 C   0  0  0  0  0  0  0  0  0  0  0  0
    2.1135   -3.6589   -0.9228 C   0  0  0  0  0  0  0  0  0  0  0  0
    1.2277   -4.3728   -0.0905 C   0  0  0  0  0  0  0  0  0  0  0  0
    1.4806   -5.7047    0.2391 C   0  0  0  0  0  0  0  0  0  0  0  0
    2.6251   -6.3488   -0.2474 C   0  0  0  0  0  0  0  0  0  0  0  0
    2.8593   -7.7969    0.0661 C   0  0  0  0  0  0  0  0  0  0  0  0
    3.5091   -5.6462   -1.0811 C   0  0  0  0  0  0  0  0  0  0  0  0
    3.2582   -4.3130   -1.4144 C   0  0  0  0  0  0  0  0  0  0  0  0
   -0.0972   -1.1597   -0.2706 C   0  0  0  0  0  0  0  0  0  0  0  0
    0.5072   -0.3573    1.0562 S   0  0  0  0  0  0  0  0  0  0  0  0
   -1.0268   -0.1575    1.7612 C   0  0  0  0  0  0  0  0  0  0  0  0
   -2.0125   -0.8162    0.9990 C   0  0  0  0  0  0  0  0  0  0  0  0
   -3.1931   -1.4180    1.5718 N   0  0  0  0  0  0  0  0  0  0  0  0
   -3.2971   -2.8552    1.5817 C   0  0  0  0  0  0  0  0  0  0  0  0
   -2.2066   -3.6436    1.9916 C   0  0  0  0  0  0  0  0  0  0  0  0
   -2.2989   -5.0374    1.9791 C   0  0  0  0  0  0  0  0  0  0  0  0
   -3.4854   -5.6630    1.5721 C   0  0  0  0  0  0  0  0  0  0  0  0
   -3.5638   -7.1589    1.5164 C   0  0  0  0  0  0  0  0  0  0  0  0
   -4.5694   -4.8790    1.1514 C   0  0  0  0  0  0  0  0  0  0  0  0
   -4.4806   -3.4813    1.1719 C   0  0  0  0  0  0  0  0  0  0  0  0
   -4.0439   -0.6811    2.4577 C   0  0  0  0  0  0  0  0  0  0  0  0
   -5.1151    0.0541    1.9423 C   0  0  0  0  0  0  0  0  0  0  0  0
   -5.9876    0.7206    2.8069 C   0  0  0  0  0  0  0  0  0  0  0  0
   -5.7935    0.6622    4.1972 C   0  0  0  0  0  0  0  0  0  0  0  0
   -6.7045    1.4045    5.1305 C   0  0  0  0  0  0  0  0  0  0  0  0
   -4.7270   -0.0877    4.7106 C   0  0  0  0  0  0  0  0  0  0  0  0
   -3.8679   -0.7709    3.8478 C   0  0  0  0  0  0  0  0  0  0  0  0
   -1.4411   -1.2978   -0.1841 C   0  0  0  0  0  0  0  0  0  0  0  0
   -2.0051   -2.1716   -1.5029 S   0  0  0  0  0  0  0  0  0  0  0  0
   -1.2141    0.7229    2.9081 C   0  0  0  0  0  0  0  0  0  0  0  0
   -1.5145    2.0910    2.7909 C   0  0  0  0  0  0  0  0  0  0  0  0
   -1.7487    2.7410    1.5259 N   0  0  0  0  0  0  0  0  0  0  0  0
   -0.7887    3.6989    1.0238 C   0  0  0  0  0  0  0  0  0  0  0  0
   -1.2149    4.9657    0.5810 C   0  0  0  0  0  0  0  0  0  0  0  0
   -0.2871    5.9115    0.1375 C   0  0  0  0  0  0  0  0  0  0  0  0
    1.0746    5.5956    0.1012 C   0  0  0  0  0  0  0  0  0  0  0  0
    2.2612    6.8361   -0.4270 S   0  0  0  0  0  0  0  0  0  0  0  0
    2.1002    6.4360   -2.1952 C   0  0  0  0  0  0  0  0  0  0  0  0
    1.5116    4.3407    0.5375 C   0  0  0  0  0  0  0  0  0  0  0  0
    0.5855    3.3999    1.0100 C   0  0  0  0  0  0  0  0  0  0  0  0
   -3.0366    2.6437    0.8979 C   0  0  0  0  0  0  0  0  0  0  0  0
   -3.1483    2.1256   -0.3985 C   0  0  0  0  0  0  0  0  0  0  0  0
   -4.3667    2.1982   -1.0848 C   0  0  0  0  0  0  0  0  0  0  0  0
   -5.4748    2.8124   -0.4846 C   0  0  0  0  0  0  0  0  0  0  0  0
   -7.0055    2.9967   -1.3992 S   0  0  0  0  0  0  0  0  0  0  0  0
   -7.7763    1.5105   -0.6876 C   0  0  0  0  0  0  0  0  0  0  0  0
   -5.3660    3.3279    0.8134 C   0  0  0  0  0  0  0  0  0  0  0  0
   -4.1543    3.2250    1.5100 C   0  0  0  0  0  0  0  0  0  0  0  0
   -1.1027    2.7943    3.9265 C   0  0  0  0  0  0  0  0  0  0  0  0
   -1.0125    4.4233    4.2939 S   0  0  0  0  0  0  0  0  0  0  0  0
   -0.0253    4.2024    5.6580 C   0  0  0  0  0  0  0  0  0  0  0  0
    0.3195    2.8342    5.7824 C   0  0  0  0  0  0  0  0  0  0  0  0
    1.5019    2.3324    6.4578 N   0  0  0  0  0  0  0  0  0  0  0  0
    2.1717    3.1021    7.4618 C   0  0  0  0  0  0  0  0  0  0  0  0
    3.2023    3.9760    7.0986 C   0  0  0  0  0  0  0  0  0  0  0  0
    3.8849    4.7040    8.0736 C   0  0  0  0  0  0  0  0  0  0  0  0
    3.5487    4.5590    9.4210 C   0  0  0  0  0  0  0  0  0  0  0  0
    4.4156    5.5123   10.6646 S   0  0  0  0  0  0  0  0  0  0  0  0
    5.8583    4.3996   10.6878 C   0  0  0  0  0  0  0  0  0  0  0  0
    2.5103    3.6911    9.7905 C   0  0  0  0  0  0  0  0  0  0  0  0
    1.8267    2.9562    8.8125 C   0  0  0  0  0  0  0  0  0  0  0  0
    2.2915    1.3108    5.8201 C   0  0  0  0  0  0  0  0  0  0  0  0
    2.7484    1.4925    4.5016 C   0  0  0  0  0  0  0  0  0  0  0  0
    3.4133    0.4604    3.8383 C   0  0  0  0  0  0  0  0  0  0  0  0
    3.6566   -0.7536    4.4943 C   0  0  0  0  0  0  0  0  0  0  0  0
    4.4426   -2.1080    3.6072 S   0  0  0  0  0  0  0  0  0  0  0  0
    6.1323   -1.5042    3.9150 C   0  0  0  0  0  0  0  0  0  0  0  0
    3.2486   -0.9208    5.8253 C   0  0  0  0  0  0  0  0  0  0  0  0
    2.5666    0.1100    6.4842 C   0  0  0  0  0  0  0  0  0  0  0  0
   -0.4028    2.0768    4.8415 C   0  0  0  0  0  0  0  0  0  0  0  0
   -0.3506    0.4762    4.3455 S   0  0  0  0  0  0  0  0  0  0  0  0
    0.3639    5.3307    6.5147 C   0  0  0  0  0  0  0  0  0  0  0  0
   -0.1518    5.5208    7.7475 C   0  0  0  0  0  0  0  0  0  0  0  0
   -1.1814    4.6731    8.3660 C   0  0  0  0  0  0  0  0  0  0  0  0
   -1.5275    3.5240    7.9902 O   0  0  0  0  0  0  0  0  0  0  0  0
   -1.8017    5.4015    9.4422 C   0  0  0  0  0  0  0  0  0  0  0  0
   -2.9349    5.0016   10.1880 C   0  0  0  0  0  0  0  0  0  0  0  0
   -3.3969    5.9614   11.0651 C   0  0  0  0  0  0  0  0  0  0  0  0
   -2.7897    7.2479   11.2007 C   0  0  0  0  0  0  0  0  0  0  0  0
   -1.6825    7.6504   10.4708 C   0  0  0  0  0  0  0  0  0  0  0  0
   -1.1765    6.6696    9.5699 C   0  0  0  0  0  0  0  0  0  0  0  0
   -0.0565    6.7611    8.5845 C   0  0  0  0  0  0  0  0  0  0  0  0
    0.9249    7.7008    8.5479 C   0  0  0  0  0  0  0  0  0  0  0  0
    2.0607    7.6093    7.6711 C   0  0  0  0  0  0  0  0  0  0  0  0
    2.9770    7.5513    6.9649 N   0  0  0  0  0  0  0  0  0  0  0  0
    0.9141    8.8818    9.3768 C   0  0  0  0  0  0  0  0  0  0  0  0
    0.9005    9.8576   10.0094 N   0  0  0  0  0  0  0  0  0  0  0  0
   -3.8244    7.6466   12.2155 C   0  0  0  0  0  0  0  0  0  0  0  0
   -3.4037    7.6950   13.7147 C   0  0  0  0  0  0  0  0  0  0  0  0
   -2.3171    6.6783   13.9785 C   0  0  0  0  0  0  0  0  0  0  0  0
   -2.8801    5.4762   13.8579 C   0  0  0  0  0  0  0  0  0  0  0  0
   -4.3313    5.7153   13.5137 C   0  0  0  0  0  0  0  0  0  0  0  0
   -4.5741    6.9611   14.3426 C   0  0  0  0  0  0  0  0  0  0  0  0
   -4.4421    6.3241   12.0798 C   0  0  0  0  0  0  0  0  0  0  0  0
    1.0204   -5.4770   -9.3908 H   0  0  0  0  0  0  0  0  0  0  0  0
    5.4217   -4.4668  -12.2385 H   0  0  0  0  0  0  0  0  0  0  0  0
    6.2915   -0.3432  -11.3086 H   0  0  0  0  0  0  0  0  0  0  0  0
    4.0616   -0.0727  -10.3346 H   0  0  0  0  0  0  0  0  0  0  0  0
    2.4728   -1.0619   -6.8121 H   0  0  0  0  0  0  0  0  0  0  0  0
    3.9695    0.8064   -7.3537 H   0  0  0  0  0  0  0  0  0  0  0  0
    7.9921    0.1864   -6.5051 H   0  0  0  0  0  0  0  0  0  0  0  0
    6.7368    1.4086   -6.0169 H   0  0  0  0  0  0  0  0  0  0  0  0
    8.2383    1.9340   -6.8706 H   0  0  0  0  0  0  0  0  0  0  0  0
    7.0950   -1.9526   -8.3944 H   0  0  0  0  0  0  0  0  0  0  0  0
    5.6116   -3.8392   -7.8713 H   0  0  0  0  0  0  0  0  0  0  0  0
    4.4572   -3.8587   -4.6873 H   0  0  0  0  0  0  0  0  0  0  0  0
    5.4367   -5.8735   -3.6615 H   0  0  0  0  0  0  0  0  0  0  0  0
    3.6617   -8.2364   -2.8935 H   0  0  0  0  0  0  0  0  0  0  0  0
    4.1305   -9.9793   -2.9301 H   0  0  0  0  0  0  0  0  0  0  0  0
    3.1194   -9.3036   -4.2551 H   0  0  0  0  0  0  0  0  0  0  0  0
    3.9706   -8.2565   -6.9319 H   0  0  0  0  0  0  0  0  0  0  0  0
    2.9947   -6.2401   -7.9631 H   0  0  0  0  0  0  0  0  0  0  0  0
   -1.8082   -5.4699   -4.7662 H   0  0  0  0  0  0  0  0  0  0  0  0
   -3.3316   -7.3647   -4.8376 H   0  0  0  0  0  0  0  0  0  0  0  0
   -6.6060   -6.4479   -6.8616 H   0  0  0  0  0  0  0  0  0  0  0  0
   -5.3794   -7.7805   -6.9862 H   0  0  0  0  0  0  0  0  0  0  0  0
   -7.1402   -8.1708   -6.8901 H   0  0  0  0  0  0  0  0  0  0  0  0
   -6.6834   -4.7205   -4.3278 H   0  0  0  0  0  0  0  0  0  0  0  0
   -5.1710   -2.8066   -4.1650 H   0  0  0  0  0  0  0  0  0  0  0  0
   -4.1733   -2.2773   -6.6299 H   0  0  0  0  0  0  0  0  0  0  0  0
   -5.0023   -0.0708   -7.3316 H   0  0  0  0  0  0  0  0  0  0  0  0
   -6.5415    1.7295   -5.4421 H   0  0  0  0  0  0  0  0  0  0  0  0
   -5.5291    2.5256   -4.1622 H   0  0  0  0  0  0  0  0  0  0  0  0
   -6.4758    3.5323   -5.3207 H   0  0  0  0  0  0  0  0  0  0  0  0
   -2.6060    1.8167   -4.3008 H   0  0  0  0  0  0  0  0  0  0  0  0
   -1.7627   -0.3668   -3.6036 H   0  0  0  0  0  0  0  0  0  0  0  0
    3.9298   -2.2004    0.5098 H   0  0  0  0  0  0  0  0  0  0  0  0
    5.6999   -0.5098    0.6404 H   0  0  0  0  0  0  0  0  0  0  0  0
    5.8014    2.5906   -1.5062 H   0  0  0  0  0  0  0  0  0  0  0  0
    6.9776    1.2269   -1.3961 H   0  0  0  0  0  0  0  0  0  0  0  0
    6.2654    1.9424    0.1055 H   0  0  0  0  0  0  0  0  0  0  0  0
    3.9462    1.5899   -2.6909 H   0  0  0  0  0  0  0  0  0  0  0  0
    2.1783   -0.1124   -2.8352 H   0  0  0  0  0  0  0  0  0  0  0  0
    0.3430   -3.9022    0.3155 H   0  0  0  0  0  0  0  0  0  0  0  0
    0.7879   -6.2322    0.8823 H   0  0  0  0  0  0  0  0  0  0  0  0
    2.5498   -8.0223    1.1088 H   0  0  0  0  0  0  0  0  0  0  0  0
    3.9378   -8.0524   -0.0314 H   0  0  0  0  0  0  0  0  0  0  0  0
    2.2724   -8.4277   -0.6369 H   0  0  0  0  0  0  0  0  0  0  0  0
    4.3963   -6.1285   -1.4665 H   0  0  0  0  0  0  0  0  0  0  0  0
    3.9455   -3.7868   -2.0655 H   0  0  0  0  0  0  0  0  0  0  0  0
   -1.2840   -3.1784    2.3170 H   0  0  0  0  0  0  0  0  0  0  0  0
   -1.4458   -5.6255    2.2877 H   0  0  0  0  0  0  0  0  0  0  0  0
   -4.6015   -7.5063    1.7151 H   0  0  0  0  0  0  0  0  0  0  0  0
   -3.2481   -7.5145    0.5123 H   0  0  0  0  0  0  0  0  0  0  0  0
   -2.9028   -7.6158    2.2835 H   0  0  0  0  0  0  0  0  0  0  0  0
   -5.4823   -5.3483    0.8070 H   0  0  0  0  0  0  0  0  0  0  0  0
   -5.3274   -2.8890    0.8407 H   0  0  0  0  0  0  0  0  0  0  0  0
   -5.2779    0.0959    0.8724 H   0  0  0  0  0  0  0  0  0  0  0  0
   -6.8137    1.2858    2.3949 H   0  0  0  0  0  0  0  0  0  0  0  0
   -7.0656    0.7205    5.9286 H   0  0  0  0  0  0  0  0  0  0  0  0
   -6.1484    2.2461    5.5952 H   0  0  0  0  0  0  0  0  0  0  0  0
   -7.5871    1.8120    4.5933 H   0  0  0  0  0  0  0  0  0  0  0  0
   -4.5669   -0.1480    5.7799 H   0  0  0  0  0  0  0  0  0  0  0  0
   -3.0593   -1.3650    4.2540 H   0  0  0  0  0  0  0  0  0  0  0  0
   -2.2603    5.2421    0.6120 H   0  0  0  0  0  0  0  0  0  0  0  0
   -0.6273    6.8890   -0.1829 H   0  0  0  0  0  0  0  0  0  0  0  0
    2.6150    5.4767   -2.4054 H   0  0  0  0  0  0  0  0  0  0  0  0
    1.0325    6.3585   -2.4836 H   0  0  0  0  0  0  0  0  0  0  0  0
    2.5721    7.2411   -2.7916 H   0  0  0  0  0  0  0  0  0  0  0  0
    2.5659    4.0973    0.5226 H   0  0  0  0  0  0  0  0  0  0  0  0
    0.9414    2.4471    1.3652 H   0  0  0  0  0  0  0  0  0  0  0  0
   -2.2879    1.6870   -0.8913 H   0  0  0  0  0  0  0  0  0  0  0  0
   -4.4410    1.8015   -2.0881 H   0  0  0  0  0  0  0  0  0  0  0  0
   -7.1003    0.6377   -0.7682 H   0  0  0  0  0  0  0  0  0  0  0  0
   -8.0252    1.7006    0.3717 H   0  0  0  0  0  0  0  0  0  0  0  0
   -8.7125    1.2925   -1.2338 H   0  0  0  0  0  0  0  0  0  0  0  0
   -6.2140    3.8055    1.2847 H   0  0  0  0  0  0  0  0  0  0  0  0
   -4.0756    3.6389    2.5063 H   0  0  0  0  0  0  0  0  0  0  0  0
    3.4724    4.0965    6.0549 H   0  0  0  0  0  0  0  0  0  0  0  0
    4.6796    5.3731    7.7770 H   0  0  0  0  0  0  0  0  0  0  0  0
    6.3569    4.4128    9.6925 H   0  0  0  0  0  0  0  0  0  0  0  0
    6.5779    4.7600   11.4515 H   0  0  0  0  0  0  0  0  0  0  0  0
    5.5449    3.3640   10.9379 H   0  0  0  0  0  0  0  0  0  0  0  0
    2.2328    3.5841   10.8313 H   0  0  0  0  0  0  0  0  0  0  0  0
    1.0294    2.2795    9.1036 H   0  0  0  0  0  0  0  0  0  0  0  0
    2.5542    2.4197    3.9796 H   0  0  0  0  0  0  0  0  0  0  0  0
    3.7297    0.5964    2.8120 H   0  0  0  0  0  0  0  0  0  0  0  0
    6.3787   -1.6034    4.9930 H   0  0  0  0  0  0  0  0  0  0  0  0
    6.2144   -0.4418    3.6064 H   0  0  0  0  0  0  0  0  0  0  0  0
    6.8444   -2.1075    3.3166 H   0  0  0  0  0  0  0  0  0  0  0  0
    3.4416   -1.8560    6.3391 H   0  0  0  0  0  0  0  0  0  0  0  0
    2.2321   -0.0377    7.5044 H   0  0  0  0  0  0  0  0  0  0  0  0
    0.8860    6.1275    6.0182 H   0  0  0  0  0  0  0  0  0  0  0  0
   -3.4283    4.0498   10.0478 H   0  0  0  0  0  0  0  0  0  0  0  0
   -1.2997    8.6510   10.5766 H   0  0  0  0  0  0  0  0  0  0  0  0
   -4.4886    8.4782   11.8875 H   0  0  0  0  0  0  0  0  0  0  0  0
   -3.2013    8.7091   14.1136 H   0  0  0  0  0  0  0  0  0  0  0  0
   -1.2969    6.8715   14.2863 H   0  0  0  0  0  0  0  0  0  0  0  0
   -2.3981    4.5245   14.0592 H   0  0  0  0  0  0  0  0  0  0  0  0
   -5.0128    4.8623   13.7202 H   0  0  0  0  0  0  0  0  0  0  0  0
   -5.5567    7.4410   14.1404 H   0  0  0  0  0  0  0  0  0  0  0  0
   -4.4603    6.7971   15.4405 H   0  0  0  0  0  0  0  0  0  0  0  0
   -5.4778    6.3554   11.6684 H   0  0  0  0  0  0  0  0  0  0  0  0
  1  2  2  3
  2  3  1  0
  3  4  2  0
  3  5  1  0
  5  6  2  0
  6  7  1  0
  7  8  1  0
  7  9  2  0
  9 10  1  0
 10 11  2  0
 11 12  1  0
 12 13  2  3
 13 14  1  0
 14 15  3  0
 13 16  1  0
 16 17  3  0
  1 18  1  0
 18 19  2  0
 19 20  1  0
 20 21  1  0
 21 22  2  0
 22 23  1  0
 23 24  2  0
 24 25  1  0
 25 26  1  0
 24 27  1  0
 27 28  2  0
 20 29  1  0
 29 30  2  0
 30 31  1  0
 31 32  2  0
 32 33  1  0
 33 34  1  0
 32 35  1  0
 35 36  2  0
 19 37  1  0
 37 38  1  0
 38 39  1  0
 39 40  2  0
 40 41  1  0
 41 42  1  0
 42 43  2  0
 43 44  1  0
 44 45  2  0
 45 46  1  0
 46 47  1  0
 45 48  1  0
 48 49  2  0
 41 50  1  0
 50 51  2  0
 51 52  1  0
 52 53  2  0
 53 54  1  0
 54 55  1  0
 53 56  1  0
 56 57  2  0
 40 58  1  0
 58 59  1  0
 39 60  1  0
 60 61  2  0
 61 62  1  0
 62 63  1  0
 63 64  2  0
 64 65  1  0
 65 66  2  0
 66 67  1  0
 66 68  1  0
 68 69  2  0
 62 70  1  0
 70 71  2  0
 71 72  1  0
 72 73  2  0
 73 74  1  0
 73 75  1  0
 75 76  2  0
 61 77  1  0
 77 78  1  0
 78 79  1  0
 79 80  2  0
 80 81  1  0
 81 82  1  0
 82 83  2  0
 83 84  1  0
 84 85  2  0
 85 86  1  0
 85 87  1  0
 87 88  2  0
 81 89  1  0
 89 90  2  0
 90 91  1  0
 91 92  2  0
 92 93  1  0
 92 94  1  0
 94 95  2  0
 80 96  1  0
 96 97  1  0
 79 98  1  0
 98 99  2  0
 99100  1  0
100101  1  0
101102  2  0
102103  1  0
103104  2  0
104105  1  0
105106  1  0
104107  1  0
107108  2  0
100109  1  0
109110  2  0
110111  1  0
111112  2  0
112113  1  0
113114  1  0
112115  1  0
115116  2  0
 99117  1  0
117118  1  0
118119  1  0
119120  2  0
120121  1  0
121122  1  0
122123  2  0
123124  1  0
124125  2  0
125126  1  0
126127  1  0
125128  1  0
128129  2  0
121130  1  0
130131  2  0
131132  1  0
132133  2  0
133134  1  0
134135  1  0
133136  1  0
136137  2  0
120138  1  0
138139  1  0
119140  1  0
140141  2  3
141142  1  0
142143  2  0
142144  1  0
144145  2  0
145146  1  0
146147  2  0
147148  1  0
148149  2  0
149150  1  0
150151  2  3
151152  1  0
152153  3  0
151154  1  0
154155  3  0
147156  1  0
156157  1  0
157158  1  0
158159  2  0
159160  1  0
160161  1  0
160162  1  0
 12  2  1  0
 59 18  1  0
 97 60  1  0
139 98  1  0
150141  1  0
162156  1  0
 11  5  1  0
 28 21  1  0
 36 29  1  0
 58 37  2  0
 69 63  1  0
 76 70  1  0
 96 77  2  0
108101  1  0
116109  1  0
138117  2  0
149144  1  0
161157  1  0
 49 42  1  0
 57 50  1  0
 88 82  1  0
 95 89  1  0
129122  1  0
137130  1  0
162146  1  0
  1163  1  0
  6164  1  0
  9165  1  0
 10166  1  0
 22167  1  0
 23168  1  0
 26169  1  0
 26170  1  0
 26171  1  0
 27172  1  0
 28173  1  0
 30174  1  0
 31175  1  0
 34176  1  0
 34177  1  0
 34178  1  0
 35179  1  0
 36180  1  0
 43181  1  0
 44182  1  0
 47183  1  0
 47184  1  0
 47185  1  0
 48186  1  0
 49187  1  0
 51188  1  0
 52189  1  0
 55190  1  0
 55191  1  0
 55192  1  0
 56193  1  0
 57194  1  0
 64195  1  0
 65196  1  0
 67197  1  0
 67198  1  0
 67199  1  0
 68200  1  0
 69201  1  0
 71202  1  0
 72203  1  0
 74204  1  0
 74205  1  0
 74206  1  0
 75207  1  0
 76208  1  0
 83209  1  0
 84210  1  0
 86211  1  0
 86212  1  0
 86213  1  0
 87214  1  0
 88215  1  0
 90216  1  0
 91217  1  0
 93218  1  0
 93219  1  0
 93220  1  0
 94221  1  0
 95222  1  0
102223  1  0
103224  1  0
106225  1  0
106226  1  0
106227  1  0
107228  1  0
108229  1  0
110230  1  0
111231  1  0
114232  1  0
114233  1  0
114234  1  0
115235  1  0
116236  1  0
123237  1  0
124238  1  0
127239  1  0
127240  1  0
127241  1  0
128242  1  0
129243  1  0
131244  1  0
132245  1  0
135246  1  0
135247  1  0
135248  1  0
136249  1  0
137250  1  0
140251  1  0
145252  1  0
148253  1  0
156254  1  0
157255  1  0
158256  1  0
159257  1  0
160258  1  0
161259  1  0
161260  1  0
162261  1  0
M  END

