
     RDKit          3D

248269  0  0  0  0  0  0  0  0999 V2000
    3.8863    0.2186   -8.6734 C   0  0  0  0  0  0  0  0  0  0  0  0
    5.1396    0.7378   -8.5638 C   0  0  0  0  0  0  0  0  0  0  0  0
    5.6513    1.4028   -7.3601 C   0  0  0  0  0  0  0  0  0  0  0  0
    4.9988    1.6459   -6.3188 O   0  0  0  0  0  0  0  0  0  0  0  0
    7.0227    1.6832   -7.4974 C   0  0  0  0  0  0  0  0  0  0  0  0
    7.8676    2.2746   -6.5606 C   0  0  0  0  0  0  0  0  0  0  0  0
    9.2260    2.4172   -6.8797 C   0  0  0  0  0  0  0  0  0  0  0  0
   10.2944    3.2978   -5.8246 Cl  0  0  0  0  0  0  0  0  0  0  0  0
    9.6994    1.9116   -8.1007 C   0  0  0  0  0  0  0  0  0  0  0  0
    8.8020    1.3068   -9.0081 C   0  0  0  0  0  0  0  0  0  0  0  0
    7.4581    1.1900   -8.7068 C   0  0  0  0  0  0  0  0  0  0  0  0
    6.3528    0.5376   -9.4653 C   0  0  0  0  0  0  0  0  0  0  0  0
    6.4749   -0.5404  -10.2455 C   0  0  0  0  0  0  0  0  0  0  0  0
    6.0335   -0.4662  -11.5855 C   0  0  0  0  0  0  0  0  0  0  0  0
    5.7056   -0.4395  -12.7376 N   0  0  0  0  0  0  0  0  0  0  0  0
    7.6333   -1.4131  -10.0689 C   0  0  0  0  0  0  0  0  0  0  0  0
    8.5346   -2.1001   -9.9471 N   0  0  0  0  0  0  0  0  0  0  0  0
    2.9575    0.2757   -7.5656 C   0  0  0  0  0  0  0  0  0  0  0  0
    2.4720    1.4285   -6.9452 C   0  0  0  0  0  0  0  0  0  0  0  0
    2.0826    2.6028   -7.6860 N   0  0  0  0  0  0  0  0  0  0  0  0
    1.4112    2.2925   -8.9146 C   0  0  0  0  0  0  0  0  0  0  0  0
    0.2997    1.4273   -8.8971 C   0  0  0  0  0  0  0  0  0  0  0  0
   -0.2677    0.9874  -10.0808 C   0  0  0  0  0  0  0  0  0  0  0  0
    0.2204    1.4214  -11.3012 C   0  0  0  0  0  0  0  0  0  0  0  0
   -0.3490    0.8490  -12.5688 C   0  0  0  0  0  0  0  0  0  0  0  0
    1.2849    2.3234  -11.3441 C   0  0  0  0  0  0  0  0  0  0  0  0
    1.8704    2.7651  -10.1567 C   0  0  0  0  0  0  0  0  0  0  0  0
    1.9036    3.8845   -7.0630 C   0  0  0  0  0  0  0  0  0  0  0  0
    0.7460    4.6091   -7.3449 C   0  0  0  0  0  0  0  0  0  0  0  0
    0.5407    5.8437   -6.7287 C   0  0  0  0  0  0  0  0  0  0  0  0
    1.4870    6.3651   -5.8491 C   0  0  0  0  0  0  0  0  0  0  0  0
    1.2099    7.6619   -5.1550 C   0  0  0  0  0  0  0  0  0  0  0  0
    2.6433    5.6357   -5.5642 C   0  0  0  0  0  0  0  0  0  0  0  0
    2.8620    4.4102   -6.2005 C   0  0  0  0  0  0  0  0  0  0  0  0
    2.0207    1.2016   -5.6262 C   0  0  0  0  0  0  0  0  0  0  0  0
    2.1589    2.1222   -4.2229 S   0  0  0  0  0  0  0  0  0  0  0  0
    1.9490    0.8638   -3.0980 C   0  0  0  0  0  0  0  0  0  0  0  0
    1.9264   -0.3123   -3.8761 C   0  0  0  0  0  0  0  0  0  0  0  0
    1.7581   -1.6340   -3.3272 N   0  0  0  0  0  0  0  0  0  0  0  0
    0.3883   -2.0484   -3.1048 C   0  0  0  0  0  0  0  0  0  0  0  0
   -0.6562   -1.7436   -4.0310 C   0  0  0  0  0  0  0  0  0  0  0  0
   -1.9545   -2.2748   -3.8383 C   0  0  0  0  0  0  0  0  0  0  0  0
   -2.2318   -3.1227   -2.7511 C   0  0  0  0  0  0  0  0  0  0  0  0
   -3.5913   -3.7273   -2.5636 C   0  0  0  0  0  0  0  0  0  0  0  0
   -1.2200   -3.3582   -1.8290 C   0  0  0  0  0  0  0  0  0  0  0  0
    0.0472   -2.8083   -1.9934 C   0  0  0  0  0  0  0  0  0  0  0  0
    2.8246   -2.6100   -3.4876 C   0  0  0  0  0  0  0  0  0  0  0  0
    2.5744   -3.9900   -3.6384 C   0  0  0  0  0  0  0  0  0  0  0  0
    3.5449   -4.8604   -4.1030 C   0  0  0  0  0  0  0  0  0  0  0  0
    4.7969   -4.3518   -4.4772 C   0  0  0  0  0  0  0  0  0  0  0  0
    5.8517   -5.2441   -5.0158 C   0  0  0  0  0  0  0  0  0  0  0  0
    5.0649   -3.0063   -4.2933 C   0  0  0  0  0  0  0  0  0  0  0  0
    4.1232   -2.1408   -3.7729 C   0  0  0  0  0  0  0  0  0  0  0  0
    2.0127   -0.0931   -5.2430 C   0  0  0  0  0  0  0  0  0  0  0  0
    2.7058   -1.0623   -6.4966 S   0  0  0  0  0  0  0  0  0  0  0  0
    2.1280    0.9742   -1.5628 C   0  0  0  0  0  0  0  0  0  0  0  0
    1.3063    1.7441   -0.6863 C   0  0  0  0  0  0  0  0  0  0  0  0
    0.8432    3.0560   -1.1264 N   0  0  0  0  0  0  0  0  0  0  0  0
   -0.5556    3.2322   -1.4216 C   0  0  0  0  0  0  0  0  0  0  0  0
   -1.5131    2.6602   -0.5791 C   0  0  0  0  0  0  0  0  0  0  0  0
   -2.8138    2.5433   -1.0345 C   0  0  0  0  0  0  0  0  0  0  0  0
   -3.1135    2.9030   -2.3365 C   0  0  0  0  0  0  0  0  0  0  0  0
   -4.7591    2.7681   -2.9401 S   0  0  0  0  0  0  0  0  0  0  0  0
   -5.2150    4.5368   -2.7582 C   0  0  0  0  0  0  0  0  0  0  0  0
   -2.1181    3.3792   -3.1903 C   0  0  0  0  0  0  0  0  0  0  0  0
   -0.8364    3.4507   -2.7299 C   0  0  0  0  0  0  0  0  0  0  0  0
    1.4368    4.2445   -0.6075 C   0  0  0  0  0  0  0  0  0  0  0  0
    1.8293    5.1670   -1.4925 C   0  0  0  0  0  0  0  0  0  0  0  0
    2.0600    6.4452   -1.0313 C   0  0  0  0  0  0  0  0  0  0  0  0
    2.1356    6.7384    0.3327 C   0  0  0  0  0  0  0  0  0  0  0  0
    2.5216    8.4196    0.7494 S   0  0  0  0  0  0  0  0  0  0  0  0
    2.0502    8.5108    2.5238 C   0  0  0  0  0  0  0  0  0  0  0  0
    1.9421    5.7038    1.2478 C   0  0  0  0  0  0  0  0  0  0  0  0
    1.6806    4.4154    0.7646 C   0  0  0  0  0  0  0  0  0  0  0  0
    1.2506    1.2493    0.6879 C   0  0  0  0  0  0  0  0  0  0  0  0
    0.0606    0.1568    1.3879 S   0  0  0  0  0  0  0  0  0  0  0  0
    1.0538   -0.6841    2.3493 C   0  0  0  0  0  0  0  0  0  0  0  0
    2.3291   -0.0827    2.2609 C   0  0  0  0  0  0  0  0  0  0  0  0
    2.9878    0.4950    3.4647 N   0  0  0  0  0  0  0  0  0  0  0  0
    3.7228   -0.3765    4.3592 C   0  0  0  0  0  0  0  0  0  0  0  0
    4.7234    0.1436    5.1597 C   0  0  0  0  0  0  0  0  0  0  0  0
    5.0968   -0.5731    6.3037 C   0  0  0  0  0  0  0  0  0  0  0  0
    4.5737   -1.7975    6.5873 C   0  0  0  0  0  0  0  0  0  0  0  0
    5.1238   -2.6800    8.0372 S   0  0  0  0  0  0  0  0  0  0  0  0
    6.4386   -3.8108    7.3555 C   0  0  0  0  0  0  0  0  0  0  0  0
    3.5809   -2.3195    5.7932 C   0  0  0  0  0  0  0  0  0  0  0  0
    3.2413   -1.6889    4.6140 C   0  0  0  0  0  0  0  0  0  0  0  0
    3.4155    1.8908    3.3393 C   0  0  0  0  0  0  0  0  0  0  0  0
    4.7175    2.2461    2.8785 C   0  0  0  0  0  0  0  0  0  0  0  0
    5.2305    3.5166    3.1965 C   0  0  0  0  0  0  0  0  0  0  0  0
    4.3852    4.5141    3.6469 C   0  0  0  0  0  0  0  0  0  0  0  0
    5.0189    6.1602    3.8797 S   0  0  0  0  0  0  0  0  0  0  0  0
    5.3285    6.5065    2.1051 C   0  0  0  0  0  0  0  0  0  0  0  0
    3.0721    4.1935    4.0121 C   0  0  0  0  0  0  0  0  0  0  0  0
    2.5589    2.9076    3.7961 C   0  0  0  0  0  0  0  0  0  0  0  0
    2.3829    0.5731    0.9880 C   0  0  0  0  0  0  0  0  0  0  0  0
    3.1745    0.0022   -0.5753 S   0  0  0  0  0  0  0  0  0  0  0  0
    0.3774   -1.2784    3.5675 C   0  0  0  0  0  0  0  0  0  0  0  0
   -0.5223   -2.3242    3.3976 C   0  0  0  0  0  0  0  0  0  0  0  0
   -0.1619   -3.7615    3.4397 N   0  0  0  0  0  0  0  0  0  0  0  0
   -0.8134   -4.5876    4.4270 C   0  0  0  0  0  0  0  0  0  0  0  0
   -1.5659   -5.7156    4.0478 C   0  0  0  0  0  0  0  0  0  0  0  0
   -2.2889   -6.4136    4.9872 C   0  0  0  0  0  0  0  0  0  0  0  0
   -2.3564   -5.9874    6.3075 C   0  0  0  0  0  0  0  0  0  0  0  0
   -3.2472   -6.9540    7.5417 S   0  0  0  0  0  0  0  0  0  0  0  0
   -4.7740   -5.9471    7.6666 C   0  0  0  0  0  0  0  0  0  0  0  0
   -1.6202   -4.8706    6.6868 C   0  0  0  0  0  0  0  0  0  0  0  0
   -0.8335   -4.1873    5.7699 C   0  0  0  0  0  0  0  0  0  0  0  0
    0.7796   -4.4275    2.5576 C   0  0  0  0  0  0  0  0  0  0  0  0
    0.7661   -4.2327    1.1932 C   0  0  0  0  0  0  0  0  0  0  0  0
    1.3967   -5.1327    0.3099 C   0  0  0  0  0  0  0  0  0  0  0  0
    2.0726   -6.2432    0.8327 C   0  0  0  0  0  0  0  0  0  0  0  0
    2.6288   -7.5476   -0.2544 S   0  0  0  0  0  0  0  0  0  0  0  0
    4.2400   -6.8449   -0.7475 C   0  0  0  0  0  0  0  0  0  0  0  0
    2.0882   -6.4151    2.2131 C   0  0  0  0  0  0  0  0  0  0  0  0
    1.4708   -5.5248    3.0835 C   0  0  0  0  0  0  0  0  0  0  0  0
   -1.6392   -1.9521    4.0783 C   0  0  0  0  0  0  0  0  0  0  0  0
   -3.1651   -2.6927    4.3287 S   0  0  0  0  0  0  0  0  0  0  0  0
   -3.8515   -1.4773    5.2675 C   0  0  0  0  0  0  0  0  0  0  0  0
   -2.8880   -0.5227    5.5301 C   0  0  0  0  0  0  0  0  0  0  0  0
   -3.1485    0.7215    6.2030 N   0  0  0  0  0  0  0  0  0  0  0  0
   -2.1374    1.2558    7.0849 C   0  0  0  0  0  0  0  0  0  0  0  0
   -2.2485    1.0381    8.4741 C   0  0  0  0  0  0  0  0  0  0  0  0
   -1.3537    1.6667    9.3392 C   0  0  0  0  0  0  0  0  0  0  0  0
   -0.2685    2.3809    8.8467 C   0  0  0  0  0  0  0  0  0  0  0  0
    0.8158    3.2779    9.9764 S   0  0  0  0  0  0  0  0  0  0  0  0
    1.9696    1.9128   10.3044 C   0  0  0  0  0  0  0  0  0  0  0  0
   -0.1385    2.5678    7.4615 C   0  0  0  0  0  0  0  0  0  0  0  0
   -1.1230    2.0587    6.6125 C   0  0  0  0  0  0  0  0  0  0  0  0
   -4.4013    1.4211    6.1311 C   0  0  0  0  0  0  0  0  0  0  0  0
   -5.1297    1.5242    4.9076 C   0  0  0  0  0  0  0  0  0  0  0  0
   -6.3774    2.1371    4.8679 C   0  0  0  0  0  0  0  0  0  0  0  0
   -6.9109    2.7928    5.9732 C   0  0  0  0  0  0  0  0  0  0  0  0
   -8.6120    3.4490    6.0342 S   0  0  0  0  0  0  0  0  0  0  0  0
   -8.7825    4.2175    4.3790 C   0  0  0  0  0  0  0  0  0  0  0  0
   -6.2035    2.7776    7.1594 C   0  0  0  0  0  0  0  0  0  0  0  0
   -4.9773    2.1023    7.2524 C   0  0  0  0  0  0  0  0  0  0  0  0
   -1.6530   -0.8465    4.8852 C   0  0  0  0  0  0  0  0  0  0  0  0
   -0.1805   -0.0944    4.6064 S   0  0  0  0  0  0  0  0  0  0  0  0
   -5.3095   -1.4295    5.4853 C   0  0  0  0  0  0  0  0  0  0  0  0
   -6.2269   -1.6173    4.4797 C   0  0  0  0  0  0  0  0  0  0  0  0
   -7.6828   -1.5457    4.6677 C   0  0  0  0  0  0  0  0  0  0  0  0
   -8.2874   -1.4084    5.7336 O   0  0  0  0  0  0  0  0  0  0  0  0
   -8.3096   -1.6378    3.3590 C   0  0  0  0  0  0  0  0  0  0  0  0
   -9.6471   -1.5796    2.9932 C   0  0  0  0  0  0  0  0  0  0  0  0
  -10.0235   -1.6730    1.6639 C   0  0  0  0  0  0  0  0  0  0  0  0
  -11.7044   -1.6580    1.1868 Cl  0  0  0  0  0  0  0  0  0  0  0  0
   -9.0253   -1.8125    0.6988 C   0  0  0  0  0  0  0  0  0  0  0  0
   -7.6782   -1.8741    1.0590 C   0  0  0  0  0  0  0  0  0  0  0  0
   -7.3502   -1.7802    2.3909 C   0  0  0  0  0  0  0  0  0  0  0  0
   -6.0455   -1.8129    3.0084 C   0  0  0  0  0  0  0  0  0  0  0  0
   -4.9088   -1.6270    2.3307 C   0  0  0  0  0  0  0  0  0  0  0  0
   -4.3789   -2.7622    1.6843 C   0  0  0  0  0  0  0  0  0  0  0  0
   -3.8367   -3.6547    1.2098 N   0  0  0  0  0  0  0  0  0  0  0  0
   -4.8954   -0.4723    1.3927 C   0  0  0  0  0  0  0  0  0  0  0  0
   -4.8767    0.3767    0.6417 N   0  0  0  0  0  0  0  0  0  0  0  0
    3.6244   -0.3151   -9.6050 H   0  0  0  0  0  0  0  0  0  0  0  0
    7.4844    2.6749   -5.6486 H   0  0  0  0  0  0  0  0  0  0  0  0
   10.7356    2.0084   -8.3313 H   0  0  0  0  0  0  0  0  0  0  0  0
    9.1772    0.8830   -9.9466 H   0  0  0  0  0  0  0  0  0  0  0  0
   -0.0730    1.0850   -7.9438 H   0  0  0  0  0  0  0  0  0  0  0  0
   -1.0831    0.2784  -10.0272 H   0  0  0  0  0  0  0  0  0  0  0  0
    0.2941    0.0193  -12.9084 H   0  0  0  0  0  0  0  0  0  0  0  0
   -0.4168    1.6203  -13.3540 H   0  0  0  0  0  0  0  0  0  0  0  0
   -1.3615    0.4320  -12.3782 H   0  0  0  0  0  0  0  0  0  0  0  0
    1.6808    2.6523  -12.2982 H   0  0  0  0  0  0  0  0  0  0  0  0
    2.7208    3.4399  -10.1751 H   0  0  0  0  0  0  0  0  0  0  0  0
   -0.0006    4.2158   -8.0097 H   0  0  0  0  0  0  0  0  0  0  0  0
   -0.3709    6.3791   -6.9322 H   0  0  0  0  0  0  0  0  0  0  0  0
    0.4352    8.2377   -5.6963 H   0  0  0  0  0  0  0  0  0  0  0  0
    2.1508    8.2503   -5.0911 H   0  0  0  0  0  0  0  0  0  0  0  0
    0.8463    7.4593   -4.1314 H   0  0  0  0  0  0  0  0  0  0  0  0
    3.3737    5.9995   -4.8480 H   0  0  0  0  0  0  0  0  0  0  0  0
    3.7558    3.8540   -5.9713 H   0  0  0  0  0  0  0  0  0  0  0  0
   -0.4779   -1.1264   -4.9099 H   0  0  0  0  0  0  0  0  0  0  0  0
   -2.7754   -2.0716   -4.5166 H   0  0  0  0  0  0  0  0  0  0  0  0
   -4.2050   -3.1373   -1.8441 H   0  0  0  0  0  0  0  0  0  0  0  0
   -3.5043   -4.7628   -2.1552 H   0  0  0  0  0  0  0  0  0  0  0  0
   -4.1447   -3.8011   -3.5156 H   0  0  0  0  0  0  0  0  0  0  0  0
   -1.4240   -3.9681   -0.9685 H   0  0  0  0  0  0  0  0  0  0  0  0
    0.8060   -3.0008   -1.2933 H   0  0  0  0  0  0  0  0  0  0  0  0
    1.5868   -4.3986   -3.4714 H   0  0  0  0  0  0  0  0  0  0  0  0
    3.3594   -5.9200   -4.1879 H   0  0  0  0  0  0  0  0  0  0  0  0
    6.6649   -4.6752   -5.5046 H   0  0  0  0  0  0  0  0  0  0  0  0
    5.3963   -5.9147   -5.7696 H   0  0  0  0  0  0  0  0  0  0  0  0
    6.2907   -5.8608   -4.2029 H   0  0  0  0  0  0  0  0  0  0  0  0
    6.0188   -2.5813   -4.5579 H   0  0  0  0  0  0  0  0  0  0  0  0
    4.3514   -1.1004   -3.6994 H   0  0  0  0  0  0  0  0  0  0  0  0
   -1.3197    2.4385    0.4818 H   0  0  0  0  0  0  0  0  0  0  0  0
   -3.5651    2.2571   -0.3133 H   0  0  0  0  0  0  0  0  0  0  0  0
   -5.5384    4.8880   -3.7752 H   0  0  0  0  0  0  0  0  0  0  0  0
   -6.1055    4.5973   -2.0693 H   0  0  0  0  0  0  0  0  0  0  0  0
   -4.3801    5.2047   -2.3926 H   0  0  0  0  0  0  0  0  0  0  0  0
   -2.2590    3.7670   -4.1677 H   0  0  0  0  0  0  0  0  0  0  0  0
    0.0101    3.7564   -3.3632 H   0  0  0  0  0  0  0  0  0  0  0  0
    1.7333    4.8889   -2.5815 H   0  0  0  0  0  0  0  0  0  0  0  0
    2.1727    7.1337   -1.8359 H   0  0  0  0  0  0  0  0  0  0  0  0
    2.8246    8.0190    3.1668 H   0  0  0  0  0  0  0  0  0  0  0  0
    2.0017    9.5906    2.8699 H   0  0  0  0  0  0  0  0  0  0  0  0
    1.0474    8.0712    2.6806 H   0  0  0  0  0  0  0  0  0  0  0  0
    2.0078    5.8724    2.3153 H   0  0  0  0  0  0  0  0  0  0  0  0
    1.4504    3.6568    1.5360 H   0  0  0  0  0  0  0  0  0  0  0  0
    5.0714    1.1732    5.0145 H   0  0  0  0  0  0  0  0  0  0  0  0
    5.8455   -0.1562    6.8970 H   0  0  0  0  0  0  0  0  0  0  0  0
    7.1167   -4.2298    8.1708 H   0  0  0  0  0  0  0  0  0  0  0  0
    7.0894   -3.2527    6.6547 H   0  0  0  0  0  0  0  0  0  0  0  0
    5.9749   -4.6906    6.8416 H   0  0  0  0  0  0  0  0  0  0  0  0
    3.1099   -3.2195    6.0789 H   0  0  0  0  0  0  0  0  0  0  0  0
    2.4573   -2.1233    4.0430 H   0  0  0  0  0  0  0  0  0  0  0  0
    5.4517    1.5051    2.5646 H   0  0  0  0  0  0  0  0  0  0  0  0
    6.2367    3.7722    3.0277 H   0  0  0  0  0  0  0  0  0  0  0  0
    4.8627    7.4528    1.8140 H   0  0  0  0  0  0  0  0  0  0  0  0
    4.9514    5.6899    1.4629 H   0  0  0  0  0  0  0  0  0  0  0  0
    6.4001    6.6530    1.8960 H   0  0  0  0  0  0  0  0  0  0  0  0
    2.4380    4.8517    4.5123 H   0  0  0  0  0  0  0  0  0  0  0  0
    1.6113    2.5838    4.2146 H   0  0  0  0  0  0  0  0  0  0  0  0
   -1.5313   -6.0424    3.0078 H   0  0  0  0  0  0  0  0  0  0  0  0
   -2.8293   -7.2956    4.7186 H   0  0  0  0  0  0  0  0  0  0  0  0
   -4.5788   -5.0236    8.2517 H   0  0  0  0  0  0  0  0  0  0  0  0
   -5.5675   -6.5346    8.2121 H   0  0  0  0  0  0  0  0  0  0  0  0
   -5.1505   -5.6728    6.6607 H   0  0  0  0  0  0  0  0  0  0  0  0
   -1.6762   -4.5956    7.7242 H   0  0  0  0  0  0  0  0  0  0  0  0
   -0.2044   -3.3126    6.0592 H   0  0  0  0  0  0  0  0  0  0  0  0
    0.1495   -3.4326    0.7598 H   0  0  0  0  0  0  0  0  0  0  0  0
    1.3264   -5.0469   -0.7569 H   0  0  0  0  0  0  0  0  0  0  0  0
    4.4332   -7.1478   -1.8085 H   0  0  0  0  0  0  0  0  0  0  0  0
    4.2051   -5.7428   -0.6848 H   0  0  0  0  0  0  0  0  0  0  0  0
    5.0665   -7.2276   -0.0978 H   0  0  0  0  0  0  0  0  0  0  0  0
    2.5608   -7.3035    2.6127 H   0  0  0  0  0  0  0  0  0  0  0  0
    1.4281   -5.6869    4.1538 H   0  0  0  0  0  0  0  0  0  0  0  0
   -3.0557    0.4365    8.8480 H   0  0  0  0  0  0  0  0  0  0  0  0
   -1.4875    1.6051   10.4131 H   0  0  0  0  0  0  0  0  0  0  0  0
    2.3521    1.5001    9.3522 H   0  0  0  0  0  0  0  0  0  0  0  0
    2.8255    2.3084   10.9058 H   0  0  0  0  0  0  0  0  0  0  0  0
    1.4348    1.1111   10.8527 H   0  0  0  0  0  0  0  0  0  0  0  0
    0.7216    3.1046    7.1054 H   0  0  0  0  0  0  0  0  0  0  0  0
   -1.0684    2.2984    5.5364 H   0  0  0  0  0  0  0  0  0  0  0  0
   -4.7588    1.0419    4.0100 H   0  0  0  0  0  0  0  0  0  0  0  0
   -6.9383    2.0981    3.9530 H   0  0  0  0  0  0  0  0  0  0  0  0
   -9.8694    4.4391    4.2328 H   0  0  0  0  0  0  0  0  0  0  0  0
   -8.5002    3.4911    3.5979 H   0  0  0  0  0  0  0  0  0  0  0  0
   -8.1686    5.1453    4.2474 H   0  0  0  0  0  0  0  0  0  0  0  0
   -6.6749    3.2134    8.0187 H   0  0  0  0  0  0  0  0  0  0  0  0
   -4.4939    2.0404    8.1911 H   0  0  0  0  0  0  0  0  0  0  0  0
   -5.7542   -1.1633    6.4469 H   0  0  0  0  0  0  0  0  0  0  0  0
  -10.4318   -1.4897    3.7522 H   0  0  0  0  0  0  0  0  0  0  0  0
   -9.3287   -1.9057   -0.3300 H   0  0  0  0  0  0  0  0  0  0  0  0
   -6.8996   -2.0117    0.3121 H   0  0  0  0  0  0  0  0  0  0  0  0
  1  2  2  3
  2  3  1  0
  3  4  2  0
  3  5  1  0
  5  6  2  0
  6  7  1  0
  7  8  1  0
  7  9  2  0
  9 10  1  0
 10 11  2  0
 11 12  1  0
 12 13  2  3
 13 14  1  0
 14 15  3  0
 13 16  1  0
 16 17  3  0
  1 18  1  0
 18 19  2  0
 19 20  1  0
 20 21  1  0
 21 22  2  0
 22 23  1  0
 23 24  2  0
 24 25  1  0
 24 26  1  0
 26 27  2  0
 20 28  1  0
 28 29  2  0
 29 30  1  0
 30 31  2  0
 31 32  1  0
 31 33  1  0
 33 34  2  0
 19 35  1  0
 35 36  1  0
 36 37  1  0
 37 38  2  0
 38 39  1  0
 39 40  1  0
 40 41  2  0
 41 42  1  0
 42 43  2  0
 43 44  1  0
 43 45  1  0
 45 46  2  0
 39 47  1  0
 47 48  2  0
 48 49  1  0
 49 50  2  0
 50 51  1  0
 50 52  1  0
 52 53  2  0
 38 54  1  0
 54 55  1  0
 37 56  1  0
 56 57  2  0
 57 58  1  0
 58 59  1  0
 59 60  2  0
 60 61  1  0
 61 62  2  0
 62 63  1  0
 63 64  1  0
 62 65  1  0
 65 66  2  0
 58 67  1  0
 67 68  2  0
 68 69  1  0
 69 70  2  0
 70 71  1  0
 71 72  1  0
 70 73  1  0
 73 74  2  0
 57 75  1  0
 75 76  1  0
 76 77  1  0
 77 78  2  0
 78 79  1  0
 79 80  1  0
 80 81  2  0
 81 82  1  0
 82 83  2  0
 83 84  1  0
 84 85  1  0
 83 86  1  0
 86 87  2  0
 79 88  1  0
 88 89  2  0
 89 90  1  0
 90 91  2  0
 91 92  1  0
 92 93  1  0
 91 94  1  0
 94 95  2  0
 78 96  1  0
 96 97  1  0
 77 98  1  0
 98 99  2  0
 99100  1  0
100101  1  0
101102  2  0
102103  1  0
103104  2  0
104105  1  0
105106  1  0
104107  1  0
107108  2  0
100109  1  0
109110  2  0
110111  1  0
111112  2  0
112113  1  0
113114  1  0
112115  1  0
115116  2  0
 99117  1  0
117118  1  0
118119  1  0
119120  2  0
120121  1  0
121122  1  0
122123  2  0
123124  1  0
124125  2  0
125126  1  0
126127  1  0
125128  1  0
128129  2  0
121130  1  0
130131  2  0
131132  1  0
132133  2  0
133134  1  0
134135  1  0
133136  1  0
136137  2  0
120138  1  0
138139  1  0
119140  1  0
140141  2  3
141142  1  0
142143  2  0
142144  1  0
144145  2  0
145146  1  0
146147  1  0
146148  2  0
148149  1  0
149150  2  0
150151  1  0
151152  2  3
152153  1  0
153154  3  0
152155  1  0
155156  3  0
 12  2  1  0
 55 18  1  0
 97 56  1  0
139 98  1  0
151141  1  0
 11  5  1  0
 27 21  1  0
 34 28  1  0
 54 35  2  0
 66 59  1  0
 74 67  1  0
 96 75  2  0
108101  1  0
116109  1  0
138117  2  0
150144  1  0
 46 40  1  0
 53 47  1  0
 87 80  1  0
 95 88  1  0
129122  1  0
137130  1  0
  1157  1  0
  6158  1  0
  9159  1  0
 10160  1  0
 22161  1  0
 23162  1  0
 25163  1  0
 25164  1  0
 25165  1  0
 26166  1  0
 27167  1  0
 29168  1  0
 30169  1  0
 32170  1  0
 32171  1  0
 32172  1  0
 33173  1  0
 34174  1  0
 41175  1  0
 42176  1  0
 44177  1  0
 44178  1  0
 44179  1  0
 45180  1  0
 46181  1  0
 48182  1  0
 49183  1  0
 51184  1  0
 51185  1  0
 51186  1  0
 52187  1  0
 53188  1  0
 60189  1  0
 61190  1  0
 64191  1  0
 64192  1  0
 64193  1  0
 65194  1  0
 66195  1  0
 68196  1  0
 69197  1  0
 72198  1  0
 72199  1  0
 72200  1  0
 73201  1  0
 74202  1  0
 81203  1  0
 82204  1  0
 85205  1  0
 85206  1  0
 85207  1  0
 86208  1  0
 87209  1  0
 89210  1  0
 90211  1  0
 93212  1  0
 93213  1  0
 93214  1  0
 94215  1  0
 95216  1  0
102217  1  0
103218  1  0
106219  1  0
106220  1  0
106221  1  0
107222  1  0
108223  1  0
110224  1  0
111225  1  0
114226  1  0
114227  1  0
114228  1  0
115229  1  0
116230  1  0
123231  1  0
124232  1  0
127233  1  0
127234  1  0
127235  1  0
128236  1  0
129237  1  0
131238  1  0
132239  1  0
135240  1  0
135241  1  0
135242  1  0
136243  1  0
137244  1  0
140245  1  0
145246  1  0
148247  1  0
149248  1  0
M  END

