
     RDKit          3D

203219  0  0  0  0  0  0  0  0999 V2000
    4.3093    8.4165   -1.9962 C   0  0  0  0  0  0  0  0  0  0  0  0
    4.7827    8.2585   -3.2454 C   0  0  0  0  0  0  0  0  0  0  0  0
    4.6335    9.2846   -4.2758 C   0  0  0  0  0  0  0  0  0  0  0  0
    4.3572   10.4973   -4.0797 O   0  0  0  0  0  0  0  0  0  0  0  0
    4.7260    8.6416   -5.5716 C   0  0  0  0  0  0  0  0  0  0  0  0
    4.4804    9.1911   -6.8283 C   0  0  0  0  0  0  0  0  0  0  0  0
    4.5201    8.3401   -7.9464 C   0  0  0  0  0  0  0  0  0  0  0  0
    4.2012    8.9805   -9.5466 Cl  0  0  0  0  0  0  0  0  0  0  0  0
    4.7727    6.9638   -7.7804 C   0  0  0  0  0  0  0  0  0  0  0  0
    5.0032    6.4311   -6.4997 C   0  0  0  0  0  0  0  0  0  0  0  0
    5.0015    7.2962   -5.3971 C   0  0  0  0  0  0  0  0  0  0  0  0
    5.2095    7.0106   -3.9524 C   0  0  0  0  0  0  0  0  0  0  0  0
    6.0172    6.0447   -3.4457 C   0  0  0  0  0  0  0  0  0  0  0  0
    6.5517    4.9805   -4.2552 C   0  0  0  0  0  0  0  0  0  0  0  0
    6.9939    4.1195   -4.8906 N   0  0  0  0  0  0  0  0  0  0  0  0
    6.5152    6.0915   -2.0939 C   0  0  0  0  0  0  0  0  0  0  0  0
    6.9233    6.1171   -1.0127 N   0  0  0  0  0  0  0  0  0  0  0  0
    3.8866    7.3225   -1.1037 C   0  0  0  0  0  0  0  0  0  0  0  0
    3.8107    7.4087    0.2825 C   0  0  0  0  0  0  0  0  0  0  0  0
    4.2359    8.5488    0.9698 O   0  0  0  0  0  0  0  0  0  0  0  0
    5.3178    8.5320    1.9015 C   0  0  0  0  0  0  0  0  0  0  0  0
    6.5850    9.0413    1.2302 C   0  0  0  0  0  0  0  0  0  0  0  0
    3.2782    6.2488    0.8921 C   0  0  0  0  0  0  0  0  0  0  0  0
    3.1163    6.0628    2.2718 O   0  0  0  0  0  0  0  0  0  0  0  0
    2.5458    7.0304    3.1516 C   0  0  0  0  0  0  0  0  0  0  0  0
    3.0690    6.8189    4.5632 C   0  0  0  0  0  0  0  0  0  0  0  0
    2.9605    5.2538   -0.0319 C   0  0  0  0  0  0  0  0  0  0  0  0
    3.2838    5.8232   -1.5770 S   0  0  0  0  0  0  0  0  0  0  0  0
    2.3529    3.9495    0.2426 C   0  0  0  0  0  0  0  0  0  0  0  0
    1.1691    3.7345    0.9628 C   0  0  0  0  0  0  0  0  0  0  0  0
    0.2924    4.7651    1.4487 N   0  0  0  0  0  0  0  0  0  0  0  0
   -0.2075    4.6267    2.8005 C   0  0  0  0  0  0  0  0  0  0  0  0
   -1.5656    4.8518    3.1042 C   0  0  0  0  0  0  0  0  0  0  0  0
   -2.0504    4.6278    4.3938 C   0  0  0  0  0  0  0  0  0  0  0  0
   -1.1942    4.1649    5.3972 C   0  0  0  0  0  0  0  0  0  0  0  0
   -1.8279    3.8415    7.0439 S   0  0  0  0  0  0  0  0  0  0  0  0
   -1.5123    5.5365    7.6266 C   0  0  0  0  0  0  0  0  0  0  0  0
    0.1530    3.9343    5.1101 C   0  0  0  0  0  0  0  0  0  0  0  0
    0.6433    4.1623    3.8230 C   0  0  0  0  0  0  0  0  0  0  0  0
   -0.3863    5.6045    0.4864 C   0  0  0  0  0  0  0  0  0  0  0  0
   -0.7559    6.9177    0.8216 C   0  0  0  0  0  0  0  0  0  0  0  0
   -1.5409    7.6765   -0.0535 C   0  0  0  0  0  0  0  0  0  0  0  0
   -1.9570    7.1357   -1.2737 C   0  0  0  0  0  0  0  0  0  0  0  0
   -3.0453    8.0668   -2.3527 S   0  0  0  0  0  0  0  0  0  0  0  0
   -4.5555    7.3097   -1.6661 C   0  0  0  0  0  0  0  0  0  0  0  0
   -1.5417    5.8531   -1.6430 C   0  0  0  0  0  0  0  0  0  0  0  0
   -0.7648    5.0908   -0.7711 C   0  0  0  0  0  0  0  0  0  0  0  0
    0.7451    2.4197    0.8442 C   0  0  0  0  0  0  0  0  0  0  0  0
   -0.7196    1.6903    1.1647 S   0  0  0  0  0  0  0  0  0  0  0  0
   -0.3640    0.2698    0.3002 C   0  0  0  0  0  0  0  0  0  0  0  0
    0.9266    0.3847   -0.2535 C   0  0  0  0  0  0  0  0  0  0  0  0
    1.5344   -0.5668   -1.1364 N   0  0  0  0  0  0  0  0  0  0  0  0
    1.1446   -0.6333   -2.5272 C   0  0  0  0  0  0  0  0  0  0  0  0
    0.6588    0.5033   -3.2014 C   0  0  0  0  0  0  0  0  0  0  0  0
    0.3976    0.4581   -4.5745 C   0  0  0  0  0  0  0  0  0  0  0  0
    0.6181   -0.7202   -5.2928 C   0  0  0  0  0  0  0  0  0  0  0  0
    0.4078   -0.7514   -7.0764 S   0  0  0  0  0  0  0  0  0  0  0  0
   -1.3303   -1.2782   -7.0098 C   0  0  0  0  0  0  0  0  0  0  0  0
    1.0796   -1.8626   -4.6288 C   0  0  0  0  0  0  0  0  0  0  0  0
    1.3383   -1.8221   -3.2570 C   0  0  0  0  0  0  0  0  0  0  0  0
    2.7663   -1.1771   -0.7066 C   0  0  0  0  0  0  0  0  0  0  0  0
    3.9572   -0.9538   -1.4217 C   0  0  0  0  0  0  0  0  0  0  0  0
    5.1588   -1.5151   -0.9825 C   0  0  0  0  0  0  0  0  0  0  0  0
    5.1818   -2.3128    0.1679 C   0  0  0  0  0  0  0  0  0  0  0  0
    6.7220   -3.0487    0.7202 S   0  0  0  0  0  0  0  0  0  0  0  0
    6.5246   -4.5307   -0.3086 C   0  0  0  0  0  0  0  0  0  0  0  0
    4.0012   -2.5359    0.8854 C   0  0  0  0  0  0  0  0  0  0  0  0
    2.8044   -1.9542    0.4611 C   0  0  0  0  0  0  0  0  0  0  0  0
    1.5041    1.6143    0.0640 C   0  0  0  0  0  0  0  0  0  0  0  0
    2.7975    2.4971   -0.5437 S   0  0  0  0  0  0  0  0  0  0  0  0
   -1.2840   -0.8778    0.2682 C   0  0  0  0  0  0  0  0  0  0  0  0
   -2.6625   -0.7822    0.5289 C   0  0  0  0  0  0  0  0  0  0  0  0
   -3.4699    0.2943    0.0220 N   0  0  0  0  0  0  0  0  0  0  0  0
   -4.0117    1.3314    0.8711 C   0  0  0  0  0  0  0  0  0  0  0  0
   -4.4027    2.5639    0.3128 C   0  0  0  0  0  0  0  0  0  0  0  0
   -4.9303    3.5742    1.1212 C   0  0  0  0  0  0  0  0  0  0  0  0
   -5.0595    3.3749    2.5017 C   0  0  0  0  0  0  0  0  0  0  0  0
   -5.7682    4.6608    3.5290 S   0  0  0  0  0  0  0  0  0  0  0  0
   -7.4626    4.0125    3.3881 C   0  0  0  0  0  0  0  0  0  0  0  0
   -4.6319    2.1715    3.0720 C   0  0  0  0  0  0  0  0  0  0  0  0
   -4.1165    1.1531    2.2636 C   0  0  0  0  0  0  0  0  0  0  0  0
   -3.9052    0.1546   -1.3409 C   0  0  0  0  0  0  0  0  0  0  0  0
   -2.9708    0.2461   -2.3804 C   0  0  0  0  0  0  0  0  0  0  0  0
   -3.3318   -0.0944   -3.6838 C   0  0  0  0  0  0  0  0  0  0  0  0
   -4.6299   -0.5387   -3.9578 C   0  0  0  0  0  0  0  0  0  0  0  0
   -5.0531   -1.0923   -5.6101 S   0  0  0  0  0  0  0  0  0  0  0  0
   -4.5858   -2.8229   -5.2755 C   0  0  0  0  0  0  0  0  0  0  0  0
   -5.5800   -0.5890   -2.9321 C   0  0  0  0  0  0  0  0  0  0  0  0
   -5.2238   -0.2353   -1.6267 C   0  0  0  0  0  0  0  0  0  0  0  0
   -3.2007   -2.0394    0.7728 C   0  0  0  0  0  0  0  0  0  0  0  0
   -4.7534   -2.5755    1.0961 S   0  0  0  0  0  0  0  0  0  0  0  0
   -4.3091   -4.2160    1.0982 C   0  0  0  0  0  0  0  0  0  0  0  0
   -2.9436   -4.3482    0.7692 C   0  0  0  0  0  0  0  0  0  0  0  0
   -2.3354   -5.5779    0.3193 N   0  0  0  0  0  0  0  0  0  0  0  0
   -0.9203   -5.8141    0.4836 C   0  0  0  0  0  0  0  0  0  0  0  0
   -0.2849   -5.5266    1.7037 C   0  0  0  0  0  0  0  0  0  0  0  0
    1.0804   -5.7789    1.8655 C   0  0  0  0  0  0  0  0  0  0  0  0
    1.8265   -6.3025    0.8050 C   0  0  0  0  0  0  0  0  0  0  0  0
    3.5658   -6.6637    1.0336 S   0  0  0  0  0  0  0  0  0  0  0  0
    3.2718   -8.4121    1.4497 C   0  0  0  0  0  0  0  0  0  0  0  0
    1.2133   -6.5549   -0.4276 C   0  0  0  0  0  0  0  0  0  0  0  0
   -0.1545   -6.3240   -0.5832 C   0  0  0  0  0  0  0  0  0  0  0  0
   -3.1054   -6.4647   -0.5214 C   0  0  0  0  0  0  0  0  0  0  0  0
   -3.1273   -7.8470   -0.2711 C   0  0  0  0  0  0  0  0  0  0  0  0
   -3.8696   -8.6981   -1.0981 C   0  0  0  0  0  0  0  0  0  0  0  0
   -4.5896   -8.1784   -2.1785 C   0  0  0  0  0  0  0  0  0  0  0  0
   -5.5504   -9.2680   -3.2332 S   0  0  0  0  0  0  0  0  0  0  0  0
   -4.1885   -9.5203   -4.4154 C   0  0  0  0  0  0  0  0  0  0  0  0
   -4.5730   -6.8029   -2.4337 C   0  0  0  0  0  0  0  0  0  0  0  0
   -3.8307   -5.9516   -1.6131 C   0  0  0  0  0  0  0  0  0  0  0  0
   -2.3493   -3.0888    0.6430 C   0  0  0  0  0  0  0  0  0  0  0  0
   -0.8157   -2.5192    0.2471 S   0  0  0  0  0  0  0  0  0  0  0  0
   -5.2485   -5.3031    1.4049 C   0  0  0  0  0  0  0  0  0  0  0  0
   -5.0793   -6.1629    2.4295 C   0  0  0  0  0  0  0  0  0  0  0  0
   -4.0851   -6.0164    3.4992 C   0  0  0  0  0  0  0  0  0  0  0  0
   -3.1508   -5.1738    3.5473 O   0  0  0  0  0  0  0  0  0  0  0  0
   -4.4270   -6.9114    4.5797 C   0  0  0  0  0  0  0  0  0  0  0  0
   -3.7898   -7.0481    5.8126 C   0  0  0  0  0  0  0  0  0  0  0  0
   -4.3449   -7.9158    6.7587 C   0  0  0  0  0  0  0  0  0  0  0  0
   -3.5878   -8.1038    8.3261 Cl  0  0  0  0  0  0  0  0  0  0  0  0
   -5.5273   -8.6177    6.4635 C   0  0  0  0  0  0  0  0  0  0  0  0
   -6.1541   -8.4657    5.2147 C   0  0  0  0  0  0  0  0  0  0  0  0
   -5.5800   -7.6078    4.2584 C   0  0  0  0  0  0  0  0  0  0  0  0
   -6.0185   -7.2445    2.8733 C   0  0  0  0  0  0  0  0  0  0  0  0
   -6.9552   -7.8740    2.1211 C   0  0  0  0  0  0  0  0  0  0  0  0
   -7.1595   -7.5868    0.7246 C   0  0  0  0  0  0  0  0  0  0  0  0
   -7.3305   -7.3566   -0.3965 N   0  0  0  0  0  0  0  0  0  0  0  0
   -7.8292   -8.8907    2.6506 C   0  0  0  0  0  0  0  0  0  0  0  0
   -8.5467   -9.7021    3.0635 N   0  0  0  0  0  0  0  0  0  0  0  0
    4.0775    9.4194   -1.6603 H   0  0  0  0  0  0  0  0  0  0  0  0
    4.2567   10.2450   -6.9405 H   0  0  0  0  0  0  0  0  0  0  0  0
    4.7749    6.3066   -8.6408 H   0  0  0  0  0  0  0  0  0  0  0  0
    5.1401    5.3690   -6.3909 H   0  0  0  0  0  0  0  0  0  0  0  0
    5.0692    9.2102    2.7505 H   0  0  0  0  0  0  0  0  0  0  0  0
    5.4850    7.5079    2.3046 H   0  0  0  0  0  0  0  0  0  0  0  0
    6.4389   10.0903    0.8978 H   0  0  0  0  0  0  0  0  0  0  0  0
    6.8337    8.4162    0.3492 H   0  0  0  0  0  0  0  0  0  0  0  0
    7.4293    9.0052    1.9503 H   0  0  0  0  0  0  0  0  0  0  0  0
    1.4447    6.9175    3.1529 H   0  0  0  0  0  0  0  0  0  0  0  0
    2.7712    8.0662    2.8360 H   0  0  0  0  0  0  0  0  0  0  0  0
    4.1664    6.9827    4.5907 H   0  0  0  0  0  0  0  0  0  0  0  0
    2.8515    5.7837    4.9018 H   0  0  0  0  0  0  0  0  0  0  0  0
    2.5780    7.5339    5.2549 H   0  0  0  0  0  0  0  0  0  0  0  0
   -2.2627    5.1711    2.3406 H   0  0  0  0  0  0  0  0  0  0  0  0
   -3.0924    4.8057    4.6159 H   0  0  0  0  0  0  0  0  0  0  0  0
   -0.4338    5.7825    7.5330 H   0  0  0  0  0  0  0  0  0  0  0  0
   -2.1185    6.2560    7.0362 H   0  0  0  0  0  0  0  0  0  0  0  0
   -1.8072    5.6054    8.6937 H   0  0  0  0  0  0  0  0  0  0  0  0
    0.8198    3.5757    5.8849 H   0  0  0  0  0  0  0  0  0  0  0  0
    1.6886    3.9643    3.6210 H   0  0  0  0  0  0  0  0  0  0  0  0
   -0.4716    7.3373    1.7767 H   0  0  0  0  0  0  0  0  0  0  0  0
   -1.8495    8.6725    0.2339 H   0  0  0  0  0  0  0  0  0  0  0  0
   -5.4468    7.7571   -2.1531 H   0  0  0  0  0  0  0  0  0  0  0  0
   -4.5576    6.2152   -1.8578 H   0  0  0  0  0  0  0  0  0  0  0  0
   -4.6146    7.4963   -0.5724 H   0  0  0  0  0  0  0  0  0  0  0  0
   -1.8541    5.4301   -2.5914 H   0  0  0  0  0  0  0  0  0  0  0  0
   -0.5016    4.0815   -1.0648 H   0  0  0  0  0  0  0  0  0  0  0  0
    0.5106    1.4397   -2.6762 H   0  0  0  0  0  0  0  0  0  0  0  0
    0.0502    1.3503   -5.0822 H   0  0  0  0  0  0  0  0  0  0  0  0
   -1.6488   -1.6159   -8.0151 H   0  0  0  0  0  0  0  0  0  0  0  0
   -1.9646   -0.4225   -6.7045 H   0  0  0  0  0  0  0  0  0  0  0  0
   -1.4613   -2.1207   -6.2970 H   0  0  0  0  0  0  0  0  0  0  0  0
    1.2557   -2.7791   -5.1812 H   0  0  0  0  0  0  0  0  0  0  0  0
    1.7124   -2.7103   -2.7648 H   0  0  0  0  0  0  0  0  0  0  0  0
    3.9546   -0.3306   -2.3077 H   0  0  0  0  0  0  0  0  0  0  0  0
    6.0725   -1.3218   -1.5313 H   0  0  0  0  0  0  0  0  0  0  0  0
    7.3218   -5.2571   -0.0651 H   0  0  0  0  0  0  0  0  0  0  0  0
    6.5937   -4.2596   -1.3823 H   0  0  0  0  0  0  0  0  0  0  0  0
    5.5432   -4.9987   -0.1120 H   0  0  0  0  0  0  0  0  0  0  0  0
    4.0111   -3.1468    1.7781 H   0  0  0  0  0  0  0  0  0  0  0  0
    1.9020   -2.1159    1.0364 H   0  0  0  0  0  0  0  0  0  0  0  0
   -4.2790    2.7533   -0.7492 H   0  0  0  0  0  0  0  0  0  0  0  0
   -5.2293    4.5198    0.6785 H   0  0  0  0  0  0  0  0  0  0  0  0
   -7.7774    3.9901    2.3245 H   0  0  0  0  0  0  0  0  0  0  0  0
   -7.5130    2.9929    3.8196 H   0  0  0  0  0  0  0  0  0  0  0  0
   -8.1515    4.6724    3.9527 H   0  0  0  0  0  0  0  0  0  0  0  0
   -4.6948    2.0226    4.1393 H   0  0  0  0  0  0  0  0  0  0  0  0
   -3.8011    0.2286    2.7281 H   0  0  0  0  0  0  0  0  0  0  0  0
   -1.9570    0.5584   -2.1711 H   0  0  0  0  0  0  0  0  0  0  0  0
   -2.5947   -0.0418   -4.4724 H   0  0  0  0  0  0  0  0  0  0  0  0
   -4.7405   -3.4291   -6.1912 H   0  0  0  0  0  0  0  0  0  0  0  0
   -3.5198   -2.8803   -4.9764 H   0  0  0  0  0  0  0  0  0  0  0  0
   -5.2208   -3.2340   -4.4636 H   0  0  0  0  0  0  0  0  0  0  0  0
   -6.5876   -0.9317   -3.1380 H   0  0  0  0  0  0  0  0  0  0  0  0
   -5.9525   -0.3123   -0.8319 H   0  0  0  0  0  0  0  0  0  0  0  0
   -0.8431   -5.1145    2.5305 H   0  0  0  0  0  0  0  0  0  0  0  0
    1.5551   -5.5556    2.8130 H   0  0  0  0  0  0  0  0  0  0  0  0
    2.5215   -8.4967    2.2667 H   0  0  0  0  0  0  0  0  0  0  0  0
    2.9045   -8.9531    0.5508 H   0  0  0  0  0  0  0  0  0  0  0  0
    4.2238   -8.8668    1.7844 H   0  0  0  0  0  0  0  0  0  0  0  0
    1.7909   -6.9526   -1.2561 H   0  0  0  0  0  0  0  0  0  0  0  0
   -0.6097   -6.5213   -1.5459 H   0  0  0  0  0  0  0  0  0  0  0  0
   -2.5764   -8.2611    0.5616 H   0  0  0  0  0  0  0  0  0  0  0  0
   -3.8834   -9.7624   -0.8981 H   0  0  0  0  0  0  0  0  0  0  0  0
   -4.5516  -10.1343   -5.2654 H   0  0  0  0  0  0  0  0  0  0  0  0
   -3.8345   -8.5453   -4.8064 H   0  0  0  0  0  0  0  0  0  0  0  0
   -3.3511  -10.0518   -3.9191 H   0  0  0  0  0  0  0  0  0  0  0  0
   -5.1250   -6.3954   -3.2706 H   0  0  0  0  0  0  0  0  0  0  0  0
   -3.8034   -4.8922   -1.8312 H   0  0  0  0  0  0  0  0  0  0  0  0
   -6.1744   -5.2897    0.8498 H   0  0  0  0  0  0  0  0  0  0  0  0
   -2.9002   -6.4749    6.0421 H   0  0  0  0  0  0  0  0  0  0  0  0
   -5.9687   -9.2694    7.2038 H   0  0  0  0  0  0  0  0  0  0  0  0
   -7.0702   -8.9996    5.0440 H   0  0  0  0  0  0  0  0  0  0  0  0
  1  2  2  3
  2  3  1  0
  3  4  2  0
  3  5  1  0
  5  6  2  0
  6  7  1  0
  7  8  1  0
  7  9  2  0
  9 10  1  0
 10 11  2  0
 11 12  1  0
 12 13  2  3
 13 14  1  0
 14 15  3  0
 13 16  1  0
 16 17  3  0
  1 18  1  0
 18 19  2  0
 19 20  1  0
 20 21  1  0
 21 22  1  0
 19 23  1  0
 23 24  1  0
 24 25  1  0
 25 26  1  0
 23 27  2  0
 27 28  1  0
 27 29  1  0
 29 30  2  0
 30 31  1  0
 31 32  1  0
 32 33  2  0
 33 34  1  0
 34 35  2  0
 35 36  1  0
 36 37  1  0
 35 38  1  0
 38 39  2  0
 31 40  1  0
 40 41  2  0
 41 42  1  0
 42 43  2  0
 43 44  1  0
 44 45  1  0
 43 46  1  0
 46 47  2  0
 30 48  1  0
 48 49  1  0
 49 50  1  0
 50 51  2  0
 51 52  1  0
 52 53  1  0
 53 54  2  0
 54 55  1  0
 55 56  2  0
 56 57  1  0
 57 58  1  0
 56 59  1  0
 59 60  2  0
 52 61  1  0
 61 62  2  0
 62 63  1  0
 63 64  2  0
 64 65  1  0
 65 66  1  0
 64 67  1  0
 67 68  2  0
 51 69  1  0
 69 70  1  0
 50 71  1  0
 71 72  2  0
 72 73  1  0
 73 74  1  0
 74 75  2  0
 75 76  1  0
 76 77  2  0
 77 78  1  0
 78 79  1  0
 77 80  1  0
 80 81  2  0
 73 82  1  0
 82 83  2  0
 83 84  1  0
 84 85  2  0
 85 86  1  0
 86 87  1  0
 85 88  1  0
 88 89  2  0
 72 90  1  0
 90 91  1  0
 91 92  1  0
 92 93  2  0
 93 94  1  0
 94 95  1  0
 95 96  2  0
 96 97  1  0
 97 98  2  0
 98 99  1  0
 99100  1  0
 98101  1  0
101102  2  0
 94103  1  0
103104  2  0
104105  1  0
105106  2  0
106107  1  0
107108  1  0
106109  1  0
109110  2  0
 93111  1  0
111112  1  0
 92113  1  0
113114  2  3
114115  1  0
115116  2  0
115117  1  0
117118  2  0
118119  1  0
119120  1  0
119121  2  0
121122  1  0
122123  2  0
123124  1  0
124125  2  3
125126  1  0
126127  3  0
125128  1  0
128129  3  0
 12  2  1  0
 28 18  1  0
 70 29  1  0
112 71  1  0
124114  1  0
 11  5  1  0
 39 32  1  0
 47 40  1  0
 69 48  2  0
 81 74  1  0
 89 82  1  0
111 90  2  0
123117  1  0
 60 53  1  0
 68 61  1  0
102 95  1  0
110103  1  0
  1130  1  0
  6131  1  0
  9132  1  0
 10133  1  0
 21134  1  0
 21135  1  0
 22136  1  0
 22137  1  0
 22138  1  0
 25139  1  0
 25140  1  0
 26141  1  0
 26142  1  0
 26143  1  0
 33144  1  0
 34145  1  0
 37146  1  0
 37147  1  0
 37148  1  0
 38149  1  0
 39150  1  0
 41151  1  0
 42152  1  0
 45153  1  0
 45154  1  0
 45155  1  0
 46156  1  0
 47157  1  0
 54158  1  0
 55159  1  0
 58160  1  0
 58161  1  0
 58162  1  0
 59163  1  0
 60164  1  0
 62165  1  0
 63166  1  0
 66167  1  0
 66168  1  0
 66169  1  0
 67170  1  0
 68171  1  0
 75172  1  0
 76173  1  0
 79174  1  0
 79175  1  0
 79176  1  0
 80177  1  0
 81178  1  0
 83179  1  0
 84180  1  0
 87181  1  0
 87182  1  0
 87183  1  0
 88184  1  0
 89185  1  0
 96186  1  0
 97187  1  0
100188  1  0
100189  1  0
100190  1  0
101191  1  0
102192  1  0
104193  1  0
105194  1  0
108195  1  0
108196  1  0
108197  1  0
109198  1  0
110199  1  0
113200  1  0
118201  1  0
121202  1  0
122203  1  0
M  END

