
     RDKit          3D

 98104  0  0  0  0  0  0  0  0999 V2000
   -3.6368    1.0419    4.9143 C   0  0  0  0  0  0  0  0  0  0  0  0
   -3.4340    2.3604    4.7286 C   0  0  0  0  0  0  0  0  0  0  0  0
   -2.1821    2.9975    4.3115 C   0  0  0  0  0  0  0  0  0  0  0  0
   -1.0229    2.5806    4.5619 O   0  0  0  0  0  0  0  0  0  0  0  0
   -2.5003    4.2624    3.6753 C   0  0  0  0  0  0  0  0  0  0  0  0
   -1.6569    5.0950    2.9362 C   0  0  0  0  0  0  0  0  0  0  0  0
   -2.2186    6.2004    2.2759 C   0  0  0  0  0  0  0  0  0  0  0  0
   -1.2032    7.3140    1.3652 Cl  0  0  0  0  0  0  0  0  0  0  0  0
   -3.6086    6.4291    2.3385 C   0  0  0  0  0  0  0  0  0  0  0  0
   -4.4403    5.5672    3.0748 C   0  0  0  0  0  0  0  0  0  0  0  0
   -3.8606    4.4880    3.7704 C   0  0  0  0  0  0  0  0  0  0  0  0
   -4.4930    3.3967    4.5644 C   0  0  0  0  0  0  0  0  0  0  0  0
   -5.7176    3.4464    5.1711 C   0  0  0  0  0  0  0  0  0  0  0  0
   -6.1605    2.4298    6.0996 C   0  0  0  0  0  0  0  0  0  0  0  0
   -6.5307    1.6278    6.8567 N   0  0  0  0  0  0  0  0  0  0  0  0
   -6.5842    4.5954    5.0680 C   0  0  0  0  0  0  0  0  0  0  0  0
   -7.3033    5.4939    4.9869 N   0  0  0  0  0  0  0  0  0  0  0  0
   -2.6630   -0.0041    4.5380 C   0  0  0  0  0  0  0  0  0  0  0  0
   -2.6639   -1.3093    5.0242 C   0  0  0  0  0  0  0  0  0  0  0  0
   -3.4564   -1.6885    6.1110 O   0  0  0  0  0  0  0  0  0  0  0  0
   -4.4771   -2.6753    5.9911 C   0  0  0  0  0  0  0  0  0  0  0  0
   -5.4255   -2.5628    7.1739 C   0  0  0  0  0  0  0  0  0  0  0  0
   -1.8229   -2.1865    4.3138 C   0  0  0  0  0  0  0  0  0  0  0  0
   -1.6802   -3.5249    4.7060 O   0  0  0  0  0  0  0  0  0  0  0  0
   -1.1344   -4.5554    3.8781 C   0  0  0  0  0  0  0  0  0  0  0  0
   -1.3340   -5.8845    4.5877 C   0  0  0  0  0  0  0  0  0  0  0  0
   -1.2026   -1.5659    3.2132 C   0  0  0  0  0  0  0  0  0  0  0  0
   -1.6940    0.0326    3.1654 S   0  0  0  0  0  0  0  0  0  0  0  0
   -0.1746   -2.0867    2.2953 C   0  0  0  0  0  0  0  0  0  0  0  0
   -0.5440   -2.3487    0.9716 C   0  0  0  0  0  0  0  0  0  0  0  0
    0.3937   -2.2390   -0.0680 C   0  0  0  0  0  0  0  0  0  0  0  0
    0.0229   -2.3995   -1.4063 O   0  0  0  0  0  0  0  0  0  0  0  0
   -1.2230   -2.9438   -1.8522 C   0  0  0  0  0  0  0  0  0  0  0  0
   -1.2577   -2.9762   -3.3721 C   0  0  0  0  0  0  0  0  0  0  0  0
    1.7294   -1.9011    0.2412 C   0  0  0  0  0  0  0  0  0  0  0  0
    2.1325   -1.8235    1.5916 C   0  0  0  0  0  0  0  0  0  0  0  0
    1.1813   -1.8943    2.6190 C   0  0  0  0  0  0  0  0  0  0  0  0
    1.5480   -1.6122    3.8941 F   0  0  0  0  0  0  0  0  0  0  0  0
    2.6008   -1.3153   -0.8047 C   0  0  0  0  0  0  0  0  0  0  0  0
    2.8911    0.0611   -0.7531 C   0  0  0  0  0  0  0  0  0  0  0  0
    2.4856    0.8025    0.3746 O   0  0  0  0  0  0  0  0  0  0  0  0
    1.7105    1.9963    0.3167 C   0  0  0  0  0  0  0  0  0  0  0  0
    3.5521    0.6751   -1.8221 C   0  0  0  0  0  0  0  0  0  0  0  0
    3.8737    1.9954   -1.7456 F   0  0  0  0  0  0  0  0  0  0  0  0
    3.8461   -0.0505   -2.9876 C   0  0  0  0  0  0  0  0  0  0  0  0
    3.6748   -1.4602   -2.9946 C   0  0  0  0  0  0  0  0  0  0  0  0
    4.1303   -2.2998   -4.0291 O   0  0  0  0  0  0  0  0  0  0  0  0
    5.3455   -2.1123   -4.7380 C   0  0  0  0  0  0  0  0  0  0  0  0
    3.0028   -2.0681   -1.9186 C   0  0  0  0  0  0  0  0  0  0  0  0
    2.7446   -3.3945   -1.9675 F   0  0  0  0  0  0  0  0  0  0  0  0
    4.2665    0.7380   -4.1607 C   0  0  0  0  0  0  0  0  0  0  0  0
    3.7142    0.6809   -5.3938 C   0  0  0  0  0  0  0  0  0  0  0  0
    4.3711    1.2969   -6.5650 C   0  0  0  0  0  0  0  0  0  0  0  0
    5.2770    2.1815   -6.5470 O   0  0  0  0  0  0  0  0  0  0  0  0
    3.8069    0.6859   -7.7536 C   0  0  0  0  0  0  0  0  0  0  0  0
    2.8509   -0.2364   -7.3918 C   0  0  0  0  0  0  0  0  0  0  0  0
    2.3772   -1.0173   -8.4349 C   0  0  0  0  0  0  0  0  0  0  0  0
    3.1793   -0.4657   -9.8270 S   0  0  0  0  0  0  0  0  0  0  0  0
    4.0850    0.7694   -9.1120 C   0  0  0  0  0  0  0  0  0  0  0  0
    5.1573    1.5717   -9.7803 C   0  0  0  0  0  0  0  0  0  0  0  0
    2.6181   -0.1965   -5.9360 C   0  0  0  0  0  0  0  0  0  0  0  0
    1.4350   -0.5107   -5.3503 C   0  0  0  0  0  0  0  0  0  0  0  0
    1.0148    0.0351   -4.0887 C   0  0  0  0  0  0  0  0  0  0  0  0
    0.6661    0.4531   -3.0643 N   0  0  0  0  0  0  0  0  0  0  0  0
    0.4240   -1.2304   -6.0705 C   0  0  0  0  0  0  0  0  0  0  0  0
   -0.4007   -1.8137   -6.6315 N   0  0  0  0  0  0  0  0  0  0  0  0
   -4.6057    0.6745    5.2046 H   0  0  0  0  0  0  0  0  0  0  0  0
   -0.5877    4.9001    2.9035 H   0  0  0  0  0  0  0  0  0  0  0  0
   -4.0318    7.2771    1.8110 H   0  0  0  0  0  0  0  0  0  0  0  0
   -5.5126    5.7335    3.0452 H   0  0  0  0  0  0  0  0  0  0  0  0
   -5.0648   -2.5073    5.0591 H   0  0  0  0  0  0  0  0  0  0  0  0
   -4.0169   -3.6846    5.9404 H   0  0  0  0  0  0  0  0  0  0  0  0
   -6.3067   -3.2200    7.0319 H   0  0  0  0  0  0  0  0  0  0  0  0
   -5.7850   -1.4985    7.2944 H   0  0  0  0  0  0  0  0  0  0  0  0
   -4.8748   -2.8587    8.1018 H   0  0  0  0  0  0  0  0  0  0  0  0
   -0.0485   -4.3829    3.7063 H   0  0  0  0  0  0  0  0  0  0  0  0
   -1.6749   -4.5749    2.9128 H   0  0  0  0  0  0  0  0  0  0  0  0
   -0.6560   -5.9417    5.4641 H   0  0  0  0  0  0  0  0  0  0  0  0
   -2.3880   -5.9652    4.9422 H   0  0  0  0  0  0  0  0  0  0  0  0
   -1.1299   -6.7369    3.8974 H   0  0  0  0  0  0  0  0  0  0  0  0
   -1.5953   -2.4798    0.7405 H   0  0  0  0  0  0  0  0  0  0  0  0
   -2.0696   -2.3246   -1.5015 H   0  0  0  0  0  0  0  0  0  0  0  0
   -1.3483   -3.9840   -1.4777 H   0  0  0  0  0  0  0  0  0  0  0  0
   -1.1752   -1.9357   -3.7629 H   0  0  0  0  0  0  0  0  0  0  0  0
   -2.2018   -3.4286   -3.7287 H   0  0  0  0  0  0  0  0  0  0  0  0
   -0.4093   -3.5574   -3.7685 H   0  0  0  0  0  0  0  0  0  0  0  0
    3.1491   -1.5622    1.8304 H   0  0  0  0  0  0  0  0  0  0  0  0
    2.2734    2.8130   -0.1737 H   0  0  0  0  0  0  0  0  0  0  0  0
    0.7614    1.8068   -0.2321 H   0  0  0  0  0  0  0  0  0  0  0  0
    1.4542    2.3208    1.3521 H   0  0  0  0  0  0  0  0  0  0  0  0
    5.7041   -3.0804   -5.1095 H   0  0  0  0  0  0  0  0  0  0  0  0
    5.1894   -1.4621   -5.6242 H   0  0  0  0  0  0  0  0  0  0  0  0
    6.1382   -1.6744   -4.0801 H   0  0  0  0  0  0  0  0  0  0  0  0
    5.0936    1.4248   -4.0087 H   0  0  0  0  0  0  0  0  0  0  0  0
    1.6865   -1.8382   -8.3592 H   0  0  0  0  0  0  0  0  0  0  0  0
    5.3255    2.5192   -9.2221 H   0  0  0  0  0  0  0  0  0  0  0  0
    6.1018    0.9907   -9.7939 H   0  0  0  0  0  0  0  0  0  0  0  0
    4.8524    1.7988  -10.8209 H   0  0  0  0  0  0  0  0  0  0  0  0
  1  2  2  3
  2  3  1  0
  3  4  2  0
  3  5  1  0
  5  6  2  0
  6  7  1  0
  7  8  1  0
  7  9  2  0
  9 10  1  0
 10 11  2  0
 11 12  1  0
 12 13  2  3
 13 14  1  0
 14 15  3  0
 13 16  1  0
 16 17  3  0
  1 18  1  0
 18 19  2  0
 19 20  1  0
 20 21  1  0
 21 22  1  0
 19 23  1  0
 23 24  1  0
 24 25  1  0
 25 26  1  0
 23 27  2  0
 27 28  1  0
 27 29  1  0
 29 30  2  0
 30 31  1  0
 31 32  1  0
 32 33  1  0
 33 34  1  0
 31 35  2  0
 35 36  1  0
 36 37  2  0
 37 38  1  0
 35 39  1  0
 39 40  2  0
 40 41  1  0
 41 42  1  0
 40 43  1  0
 43 44  1  0
 43 45  2  0
 45 46  1  0
 46 47  1  0
 47 48  1  0
 46 49  2  0
 49 50  1  0
 45 51  1  0
 51 52  2  3
 52 53  1  0
 53 54  2  0
 53 55  1  0
 55 56  1  0
 56 57  2  0
 57 58  1  0
 58 59  1  0
 59 60  1  0
 56 61  1  0
 61 62  2  3
 62 63  1  0
 63 64  3  0
 62 65  1  0
 65 66  3  0
 12  2  1  0
 28 18  1  0
 37 29  1  0
 49 39  1  0
 61 52  1  0
 11  5  1  0
 59 55  2  0
  1 67  1  0
  6 68  1  0
  9 69  1  0
 10 70  1  0
 21 71  1  0
 21 72  1  0
 22 73  1  0
 22 74  1  0
 22 75  1  0
 25 76  1  0
 25 77  1  0
 26 78  1  0
 26 79  1  0
 26 80  1  0
 30 81  1  0
 33 82  1  0
 33 83  1  0
 34 84  1  0
 34 85  1  0
 34 86  1  0
 36 87  1  0
 42 88  1  0
 42 89  1  0
 42 90  1  0
 48 91  1  0
 48 92  1  0
 48 93  1  0
 51 94  1  0
 57 95  1  0
 60 96  1  0
 60 97  1  0
 60 98  1  0
M  END

