
     RDKit          3D

163179  0  0  0  0  0  0  0  0999 V2000
    5.3435    2.8099    4.8163 C   0  0  0  0  0  0  0  0  0  0  0  0
    4.9648    4.0720    5.1026 C   0  0  0  0  0  0  0  0  0  0  0  0
    3.7424    4.7860    4.6653 C   0  0  0  0  0  0  0  0  0  0  0  0
    3.1078    4.6312    3.5752 O   0  0  0  0  0  0  0  0  0  0  0  0
    3.2872    5.6146    5.7633 C   0  0  0  0  0  0  0  0  0  0  0  0
    1.9653    6.0305    5.9663 C   0  0  0  0  0  0  0  0  0  0  0  0
    1.5811    6.4078    7.2596 C   0  0  0  0  0  0  0  0  0  0  0  0
   -0.0810    6.8552    7.5880 Cl  0  0  0  0  0  0  0  0  0  0  0  0
    2.5099    6.3327    8.3163 C   0  0  0  0  0  0  0  0  0  0  0  0
    3.8301    5.9130    8.0912 C   0  0  0  0  0  0  0  0  0  0  0  0
    4.2008    5.5285    6.7987 C   0  0  0  0  0  0  0  0  0  0  0  0
    5.3677    4.7057    6.3751 C   0  0  0  0  0  0  0  0  0  0  0  0
    6.6328    4.8355    6.8559 C   0  0  0  0  0  0  0  0  0  0  0  0
    7.7756    4.4075    6.0839 C   0  0  0  0  0  0  0  0  0  0  0  0
    8.7268    4.0344    5.5317 N   0  0  0  0  0  0  0  0  0  0  0  0
    6.9232    5.6402    8.0146 C   0  0  0  0  0  0  0  0  0  0  0  0
    7.1524    6.2652    8.9645 N   0  0  0  0  0  0  0  0  0  0  0  0
    4.4859    1.7506    4.2002 C   0  0  0  0  0  0  0  0  0  0  0  0
    2.7961    1.7897    4.0894 S   0  0  0  0  0  0  0  0  0  0  0  0
    2.4669    0.2072    3.6442 C   0  0  0  0  0  0  0  0  0  0  0  0
    3.7233   -0.4057    3.6467 C   0  0  0  0  0  0  0  0  0  0  0  0
    4.2071   -2.0103    3.5633 S   0  0  0  0  0  0  0  0  0  0  0  0
    5.8316   -1.6796    3.9290 C   0  0  0  0  0  0  0  0  0  0  0  0
    6.7986   -2.7146    4.3084 C   0  0  0  0  0  0  0  0  0  0  0  0
    6.4588   -3.5442    5.1935 O   0  0  0  0  0  0  0  0  0  0  0  0
    8.1164   -2.6512    3.8411 O   0  0  0  0  0  0  0  0  0  0  0  0
    9.0914   -3.6537    4.0956 C   0  0  0  0  0  0  0  0  0  0  0  0
    9.0104   -4.7354    3.0200 C   0  0  0  0  0  0  0  0  0  0  0  0
    6.0270   -0.2988    4.0886 C   0  0  0  0  0  0  0  0  0  0  0  0
    4.8192    0.4122    3.9555 C   0  0  0  0  0  0  0  0  0  0  0  0
    7.5945    0.4088    4.4907 Cl  0  0  0  0  0  0  0  0  0  0  0  0
    1.1074   -0.2954    3.3222 C   0  0  0  0  0  0  0  0  0  0  0  0
    0.9580   -1.3526    2.4047 C   0  0  0  0  0  0  0  0  0  0  0  0
    0.9826   -2.7669    2.7809 N   0  0  0  0  0  0  0  0  0  0  0  0
    0.8593   -3.2799    4.1588 C   0  0  0  0  0  0  0  0  0  0  0  0
    1.4146   -2.6316    5.2857 C   0  0  0  0  0  0  0  0  0  0  0  0
    1.2556   -3.1313    6.5832 C   0  0  0  0  0  0  0  0  0  0  0  0
    0.5235   -4.2882    6.8118 C   0  0  0  0  0  0  0  0  0  0  0  0
    0.1597   -4.8042    8.4851 S   0  0  0  0  0  0  0  0  0  0  0  0
    1.5235   -6.0055    8.5365 C   0  0  0  0  0  0  0  0  0  0  0  0
   -0.0174   -4.9957    5.7276 C   0  0  0  0  0  0  0  0  0  0  0  0
    0.1707   -4.4973    4.4232 C   0  0  0  0  0  0  0  0  0  0  0  0
    0.6067   -3.6760    1.7179 C   0  0  0  0  0  0  0  0  0  0  0  0
    1.5606   -4.0966    0.7906 C   0  0  0  0  0  0  0  0  0  0  0  0
    1.1526   -4.7003   -0.4079 C   0  0  0  0  0  0  0  0  0  0  0  0
   -0.2196   -4.8394   -0.6912 C   0  0  0  0  0  0  0  0  0  0  0  0
   -0.7675   -5.3758   -2.3109 S   0  0  0  0  0  0  0  0  0  0  0  0
   -0.6585   -3.6927   -2.9753 C   0  0  0  0  0  0  0  0  0  0  0  0
   -1.1764   -4.4593    0.2447 C   0  0  0  0  0  0  0  0  0  0  0  0
   -0.7760   -3.8735    1.4485 C   0  0  0  0  0  0  0  0  0  0  0  0
    0.1713   -0.9041    1.3265 C   0  0  0  0  0  0  0  0  0  0  0  0
    0.2549   -1.2241   -0.3186 S   0  0  0  0  0  0  0  0  0  0  0  0
   -0.8260   -0.0001   -0.7703 C   0  0  0  0  0  0  0  0  0  0  0  0
   -1.2016    0.7219    0.3797 C   0  0  0  0  0  0  0  0  0  0  0  0
   -2.2746    1.6842    0.3666 N   0  0  0  0  0  0  0  0  0  0  0  0
   -3.4277    1.3980   -0.4478 C   0  0  0  0  0  0  0  0  0  0  0  0
   -3.9338    2.3508   -1.3507 C   0  0  0  0  0  0  0  0  0  0  0  0
   -5.0558    2.0522   -2.1344 C   0  0  0  0  0  0  0  0  0  0  0  0
   -5.6820    0.7963   -2.0148 C   0  0  0  0  0  0  0  0  0  0  0  0
   -7.1918    0.4563   -2.9195 S   0  0  0  0  0  0  0  0  0  0  0  0
   -6.3340   -0.3318   -4.3170 C   0  0  0  0  0  0  0  0  0  0  0  0
   -5.1717   -0.1536   -1.1291 C   0  0  0  0  0  0  0  0  0  0  0  0
   -4.0566    0.1434   -0.3447 C   0  0  0  0  0  0  0  0  0  0  0  0
   -2.4864    2.6138    1.4428 C   0  0  0  0  0  0  0  0  0  0  0  0
   -3.2250    2.2177    2.5628 C   0  0  0  0  0  0  0  0  0  0  0  0
   -3.6962    3.1741    3.4715 C   0  0  0  0  0  0  0  0  0  0  0  0
   -3.4276    4.5363    3.2556 C   0  0  0  0  0  0  0  0  0  0  0  0
   -4.1486    5.7948    4.3214 S   0  0  0  0  0  0  0  0  0  0  0  0
   -2.8682    5.6292    5.6068 C   0  0  0  0  0  0  0  0  0  0  0  0
   -2.6381    4.9285    2.1708 C   0  0  0  0  0  0  0  0  0  0  0  0
   -2.1696    3.9689    1.2606 C   0  0  0  0  0  0  0  0  0  0  0  0
   -0.5684    0.2085    1.5263 C   0  0  0  0  0  0  0  0  0  0  0  0
   -0.0855    0.8803    2.9668 S   0  0  0  0  0  0  0  0  0  0  0  0
   -0.8578    0.5565   -2.1309 C   0  0  0  0  0  0  0  0  0  0  0  0
   -1.7887    0.0043   -3.4454 S   0  0  0  0  0  0  0  0  0  0  0  0
   -1.1520    1.0558   -4.6259 C   0  0  0  0  0  0  0  0  0  0  0  0
   -0.2632    1.8718   -3.9490 C   0  0  0  0  0  0  0  0  0  0  0  0
    0.7692    3.1009   -4.4481 S   0  0  0  0  0  0  0  0  0  0  0  0
    1.4859    3.2713   -2.9145 C   0  0  0  0  0  0  0  0  0  0  0  0
    2.5132    4.2530   -2.5669 C   0  0  0  0  0  0  0  0  0  0  0  0
    2.3815    5.4552   -2.9221 O   0  0  0  0  0  0  0  0  0  0  0  0
    3.6272    3.8414   -1.8211 O   0  0  0  0  0  0  0  0  0  0  0  0
    4.4390    4.7212   -1.0436 C   0  0  0  0  0  0  0  0  0  0  0  0
    3.9802    4.7070    0.4059 C   0  0  0  0  0  0  0  0  0  0  0  0
    0.9223    2.3705   -2.0017 C   0  0  0  0  0  0  0  0  0  0  0  0
   -0.0619    1.5850   -2.6145 C   0  0  0  0  0  0  0  0  0  0  0  0
    1.3994    2.2652   -0.3088 Cl  0  0  0  0  0  0  0  0  0  0  0  0
   -1.4144    1.1189   -6.0862 C   0  0  0  0  0  0  0  0  0  0  0  0
   -1.3641    0.0603   -6.9337 C   0  0  0  0  0  0  0  0  0  0  0  0
   -1.2979   -1.3558   -6.5547 C   0  0  0  0  0  0  0  0  0  0  0  0
   -0.8617   -1.8246   -5.4752 O   0  0  0  0  0  0  0  0  0  0  0  0
   -1.6585   -2.1686   -7.6913 C   0  0  0  0  0  0  0  0  0  0  0  0
   -1.9538   -3.5545   -7.6716 C   0  0  0  0  0  0  0  0  0  0  0  0
   -2.3066   -4.0524   -8.9149 C   0  0  0  0  0  0  0  0  0  0  0  0
   -2.3712   -3.2354  -10.0946 C   0  0  0  0  0  0  0  0  0  0  0  0
   -2.1338   -1.8661  -10.0987 C   0  0  0  0  0  0  0  0  0  0  0  0
   -1.7587   -1.3391   -8.8278 C   0  0  0  0  0  0  0  0  0  0  0  0
   -1.4821    0.0690   -8.4291 C   0  0  0  0  0  0  0  0  0  0  0  0
   -1.1243    1.0756   -9.2763 C   0  0  0  0  0  0  0  0  0  0  0  0
   -0.9385    0.8714  -10.6906 C   0  0  0  0  0  0  0  0  0  0  0  0
   -0.7851    0.7144  -11.8288 N   0  0  0  0  0  0  0  0  0  0  0  0
   -0.7829    2.3974   -8.8219 C   0  0  0  0  0  0  0  0  0  0  0  0
   -0.5344    3.4686   -8.4719 N   0  0  0  0  0  0  0  0  0  0  0  0
   -2.7897   -4.4251  -10.9076 C   0  0  0  0  0  0  0  0  0  0  0  0
   -4.2780   -4.5145  -11.3820 C   0  0  0  0  0  0  0  0  0  0  0  0
   -5.1806   -3.8209  -10.3830 C   0  0  0  0  0  0  0  0  0  0  0  0
   -5.1503   -4.5590   -9.2684 C   0  0  0  0  0  0  0  0  0  0  0  0
   -4.2397   -5.7311   -9.5453 C   0  0  0  0  0  0  0  0  0  0  0  0
   -4.5789   -5.9539  -11.0097 C   0  0  0  0  0  0  0  0  0  0  0  0
   -2.7597   -5.2509   -9.6912 C   0  0  0  0  0  0  0  0  0  0  0  0
    6.2098    2.4220    5.3335 H   0  0  0  0  0  0  0  0  0  0  0  0
    1.2218    5.9503    5.1768 H   0  0  0  0  0  0  0  0  0  0  0  0
    2.2033    6.5915    9.3275 H   0  0  0  0  0  0  0  0  0  0  0  0
    4.4366    5.6756    8.9364 H   0  0  0  0  0  0  0  0  0  0  0  0
   10.1159   -3.2022    4.0746 H   0  0  0  0  0  0  0  0  0  0  0  0
    8.9503   -4.0719    5.1142 H   0  0  0  0  0  0  0  0  0  0  0  0
    8.0619   -5.3088    3.1187 H   0  0  0  0  0  0  0  0  0  0  0  0
    9.0748   -4.2528    2.0148 H   0  0  0  0  0  0  0  0  0  0  0  0
    9.8637   -5.4374    3.1453 H   0  0  0  0  0  0  0  0  0  0  0  0
    2.0074   -1.7244    5.2244 H   0  0  0  0  0  0  0  0  0  0  0  0
    1.6677   -2.5844    7.4098 H   0  0  0  0  0  0  0  0  0  0  0  0
    1.4258   -6.6395    9.4406 H   0  0  0  0  0  0  0  0  0  0  0  0
    2.4996   -5.4782    8.5873 H   0  0  0  0  0  0  0  0  0  0  0  0
    1.4942   -6.6630    7.6344 H   0  0  0  0  0  0  0  0  0  0  0  0
   -0.6058   -5.9107    5.8779 H   0  0  0  0  0  0  0  0  0  0  0  0
   -0.2558   -5.1057    3.6422 H   0  0  0  0  0  0  0  0  0  0  0  0
    2.6070   -3.9002    0.9740 H   0  0  0  0  0  0  0  0  0  0  0  0
    1.8871   -4.9219   -1.1567 H   0  0  0  0  0  0  0  0  0  0  0  0
   -1.2122   -2.9690   -2.3407 H   0  0  0  0  0  0  0  0  0  0  0  0
   -1.1264   -3.6999   -3.9787 H   0  0  0  0  0  0  0  0  0  0  0  0
    0.4033   -3.3807   -3.0573 H   0  0  0  0  0  0  0  0  0  0  0  0
   -2.2424   -4.4778   -0.0154 H   0  0  0  0  0  0  0  0  0  0  0  0
   -1.5315   -3.5121    2.1259 H   0  0  0  0  0  0  0  0  0  0  0  0
   -3.4530    3.3076   -1.4335 H   0  0  0  0  0  0  0  0  0  0  0  0
   -5.4409    2.8087   -2.8094 H   0  0  0  0  0  0  0  0  0  0  0  0
   -5.7503    0.4203   -4.8927 H   0  0  0  0  0  0  0  0  0  0  0  0
   -5.6741   -1.1566   -3.9795 H   0  0  0  0  0  0  0  0  0  0  0  0
   -7.1113   -0.7699   -4.9947 H   0  0  0  0  0  0  0  0  0  0  0  0
   -5.6544   -1.1164   -1.0172 H   0  0  0  0  0  0  0  0  0  0  0  0
   -3.6690   -0.6070    0.3457 H   0  0  0  0  0  0  0  0  0  0  0  0
   -3.4497    1.1606    2.7294 H   0  0  0  0  0  0  0  0  0  0  0  0
   -4.2912    2.8544    4.3203 H   0  0  0  0  0  0  0  0  0  0  0  0
   -2.9703    6.4568    6.3321 H   0  0  0  0  0  0  0  0  0  0  0  0
   -3.0070    4.6686    6.1587 H   0  0  0  0  0  0  0  0  0  0  0  0
   -1.8488    5.6657    5.1625 H   0  0  0  0  0  0  0  0  0  0  0  0
   -2.4081    5.9717    1.9972 H   0  0  0  0  0  0  0  0  0  0  0  0
   -1.5766    4.2792    0.4246 H   0  0  0  0  0  0  0  0  0  0  0  0
    5.4870    4.3613   -1.0895 H   0  0  0  0  0  0  0  0  0  0  0  0
    4.4019    5.7517   -1.4363 H   0  0  0  0  0  0  0  0  0  0  0  0
    2.8947    4.9390    0.4783 H   0  0  0  0  0  0  0  0  0  0  0  0
    4.1695    3.7017    0.8488 H   0  0  0  0  0  0  0  0  0  0  0  0
    4.5450    5.4587    1.0012 H   0  0  0  0  0  0  0  0  0  0  0  0
   -1.5648    2.1039   -6.4752 H   0  0  0  0  0  0  0  0  0  0  0  0
   -1.9498   -4.1614   -6.7645 H   0  0  0  0  0  0  0  0  0  0  0  0
   -2.2714   -1.2876  -10.9965 H   0  0  0  0  0  0  0  0  0  0  0  0
   -2.0397   -4.7317  -11.6726 H   0  0  0  0  0  0  0  0  0  0  0  0
   -4.4596   -4.2444  -12.4339 H   0  0  0  0  0  0  0  0  0  0  0  0
   -5.7506   -2.9100  -10.5337 H   0  0  0  0  0  0  0  0  0  0  0  0
   -5.7174   -4.3603   -8.3522 H   0  0  0  0  0  0  0  0  0  0  0  0
   -4.3865   -6.6082   -8.8823 H   0  0  0  0  0  0  0  0  0  0  0  0
   -3.9199   -6.7015  -11.5163 H   0  0  0  0  0  0  0  0  0  0  0  0
   -5.6453   -6.2430  -11.1749 H   0  0  0  0  0  0  0  0  0  0  0  0
   -1.9993   -6.0693   -9.7288 H   0  0  0  0  0  0  0  0  0  0  0  0
  1  2  2  3
  2  3  1  0
  3  4  2  0
  3  5  1  0
  5  6  2  0
  6  7  1  0
  7  8  1  0
  7  9  2  0
  9 10  1  0
 10 11  2  0
 11 12  1  0
 12 13  2  3
 13 14  1  0
 14 15  3  0
 13 16  1  0
 16 17  3  0
  1 18  1  0
 18 19  1  0
 19 20  1  0
 20 21  2  0
 21 22  1  0
 22 23  1  0
 23 24  1  0
 24 25  2  0
 24 26  1  0
 26 27  1  0
 27 28  1  0
 23 29  2  0
 29 30  1  0
 29 31  1  0
 20 32  1  0
 32 33  2  0
 33 34  1  0
 34 35  1  0
 35 36  2  0
 36 37  1  0
 37 38  2  0
 38 39  1  0
 39 40  1  0
 38 41  1  0
 41 42  2  0
 34 43  1  0
 43 44  2  0
 44 45  1  0
 45 46  2  0
 46 47  1  0
 47 48  1  0
 46 49  1  0
 49 50  2  0
 33 51  1  0
 51 52  1  0
 52 53  1  0
 53 54  2  0
 54 55  1  0
 55 56  1  0
 56 57  2  0
 57 58  1  0
 58 59  2  0
 59 60  1  0
 60 61  1  0
 59 62  1  0
 62 63  2  0
 55 64  1  0
 64 65  2  0
 65 66  1  0
 66 67  2  0
 67 68  1  0
 68 69  1  0
 67 70  1  0
 70 71  2  0
 54 72  1  0
 72 73  1  0
 53 74  1  0
 74 75  1  0
 75 76  1  0
 76 77  2  0
 77 78  1  0
 78 79  1  0
 79 80  1  0
 80 81  2  0
 80 82  1  0
 82 83  1  0
 83 84  1  0
 79 85  2  0
 85 86  1  0
 85 87  1  0
 76 88  1  0
 88 89  2  3
 89 90  1  0
 90 91  2  0
 90 92  1  0
 92 93  2  0
 93 94  1  0
 94 95  2  0
 95 96  1  0
 96 97  2  0
 97 98  1  0
 98 99  2  3
 99100  1  0
100101  3  0
 99102  1  0
102103  3  0
 95104  1  0
104105  1  0
105106  1  0
106107  2  0
107108  1  0
108109  1  0
108110  1  0
 12  2  1  0
 30 18  2  0
 73 32  1  0
 86 74  2  0
 98 89  1  0
110104  1  0
 11  5  1  0
 30 21  1  0
 42 35  1  0
 50 43  1  0
 72 51  2  0
 86 77  1  0
 97 92  1  0
109105  1  0
 63 56  1  0
 71 64  1  0
110 94  1  0
  1111  1  0
  6112  1  0
  9113  1  0
 10114  1  0
 27115  1  0
 27116  1  0
 28117  1  0
 28118  1  0
 28119  1  0
 36120  1  0
 37121  1  0
 40122  1  0
 40123  1  0
 40124  1  0
 41125  1  0
 42126  1  0
 44127  1  0
 45128  1  0
 48129  1  0
 48130  1  0
 48131  1  0
 49132  1  0
 50133  1  0
 57134  1  0
 58135  1  0
 61136  1  0
 61137  1  0
 61138  1  0
 62139  1  0
 63140  1  0
 65141  1  0
 66142  1  0
 69143  1  0
 69144  1  0
 69145  1  0
 70146  1  0
 71147  1  0
 83148  1  0
 83149  1  0
 84150  1  0
 84151  1  0
 84152  1  0
 88153  1  0
 93154  1  0
 96155  1  0
104156  1  0
105157  1  0
106158  1  0
107159  1  0
108160  1  0
109161  1  0
109162  1  0
110163  1  0
M  END

