
     RDKit          3D

 90 97  0  0  0  0  0  0  0  0999 V2000
    1.6443    5.5662   -2.4759 C   0  0  0  0  0  0  0  0  0  0  0  0
    1.5546    6.1079   -1.2326 C   0  0  0  0  0  0  0  0  0  0  0  0
    1.3234    5.5723    0.0052 C   0  0  0  0  0  0  0  0  0  0  0  0
    1.0179    4.4428    0.4592 O   0  0  0  0  0  0  0  0  0  0  0  0
    1.5506    6.7418    1.0581 C   0  0  0  0  0  0  0  0  0  0  0  0
    1.4162    6.5920    2.4134 C   0  0  0  0  0  0  0  0  0  0  0  0
    1.7110    7.7716    3.2005 C   0  0  0  0  0  0  0  0  0  0  0  0
    2.0587    8.8476    2.5032 C   0  0  0  0  0  0  0  0  0  0  0  0
    2.4294   10.6370    3.6102 I   0  0  0  0  0  0  0  0  0  0  0  0
    2.1739    8.9999    1.1389 C   0  0  0  0  0  0  0  0  0  0  0  0
    1.8870    7.7380    0.3954 C   0  0  0  0  0  0  0  0  0  0  0  0
    1.9268    7.5587   -1.0738 C   0  0  0  0  0  0  0  0  0  0  0  0
    1.9293    8.5184   -1.9352 C   0  0  0  0  0  0  0  0  0  0  0  0
    1.4631    8.2167   -3.3539 C   0  0  0  0  0  0  0  0  0  0  0  0
    1.0841    7.9710   -4.5286 N   0  0  0  0  0  0  0  0  0  0  0  0
    2.3345    9.8218   -1.9255 C   0  0  0  0  0  0  0  0  0  0  0  0
    2.7261   11.0253   -1.9311 N   0  0  0  0  0  0  0  0  0  0  0  0
    1.4588    4.1326   -2.6248 C   0  0  0  0  0  0  0  0  0  0  0  0
    0.3607    2.9306   -1.6253 Se  0  0  0  0  0  2  0  0  0  0  0  0
    0.9951    1.4303   -2.6961 C   0  0  0  0  0  0  0  0  0  0  0  0
    2.0576    2.2512   -3.7447 C   0  0  0  0  0  0  0  0  0  0  0  0
    2.4088    1.0969   -4.5726 C   0  0  0  0  0  0  0  0  0  0  0  0
    2.8899    1.9201   -5.6560 C   0  0  0  0  0  0  0  0  0  0  0  0
    3.2986    1.6527   -7.0794 C   0  0  0  0  0  0  0  0  0  0  0  0
    2.0542    1.7226   -7.9620 C   0  0  0  0  0  0  0  0  0  0  0  0
    2.7043    3.6326   -5.1387 S   0  0  0  0  0  0  0  0  0  0  0  0
    1.8997    3.0846   -3.3803 C   0  0  0  0  0  0  0  0  0  0  0  0
    0.8598    0.0795   -2.2835 C   0  0  0  0  0  0  0  0  0  0  0  0
   -0.3187   -0.3475   -1.8769 C   0  0  0  0  0  0  0  0  0  0  0  0
   -1.4947    0.3223   -2.2862 O   0  0  0  0  0  0  0  0  0  0  0  0
   -2.1480   -0.2224   -3.4557 C   0  0  0  0  0  0  0  0  0  0  0  0
   -0.4227   -1.4391   -1.0571 C   0  0  0  0  0  0  0  0  0  0  0  0
   -1.6643   -1.8497   -0.6975 F   0  0  0  0  0  0  0  0  0  0  0  0
    0.6433   -2.2016   -0.5817 C   0  0  0  0  0  0  0  0  0  0  0  0
    1.8568   -1.7886   -1.0223 C   0  0  0  0  0  0  0  0  0  0  0  0
    3.0698   -2.4433   -0.6923 O   0  0  0  0  0  0  0  0  0  0  0  0
    4.0117   -2.2104    0.2479 C   0  0  0  0  0  0  0  0  0  0  0  0
    1.9798   -0.6599   -1.8639 C   0  0  0  0  0  0  0  0  0  0  0  0
    3.2490   -0.3047   -2.2539 F   0  0  0  0  0  0  0  0  0  0  0  0
    0.3144   -3.1364    0.4796 C   0  0  0  0  0  0  0  0  0  0  0  0
    1.1158   -3.7082    1.5169 C   0  0  0  0  0  0  0  0  0  0  0  0
    0.3775   -4.3285    2.4205 C   0  0  0  0  0  0  0  0  0  0  0  0
    1.3829   -5.2544    3.8200 S   0  0  0  0  0  0  0  0  0  0  0  0
    1.8529   -6.8961    3.2380 C   0  0  0  0  0  0  0  0  0  0  0  0
    0.7748   -7.8817    3.1193 C   0  0  0  0  0  0  0  0  0  0  0  0
   -0.8012   -4.4841    2.5154 C   0  0  0  0  0  0  0  0  0  0  0  0
   -1.2130   -3.5764    0.9615 S   0  0  0  0  0  0  0  0  0  0  0  0
   -2.0228   -5.0377    3.1126 C   0  0  0  0  0  0  0  0  0  0  0  0
   -3.3134   -4.8350    2.8972 C   0  0  0  0  0  0  0  0  0  0  0  0
   -4.1466   -4.1397    2.0376 C   0  0  0  0  0  0  0  0  0  0  0  0
   -3.6936   -3.1353    1.3073 O   0  0  0  0  0  0  0  0  0  0  0  0
   -5.4649   -4.5406    2.0217 C   0  0  0  0  0  0  0  0  0  0  0  0
   -6.6570   -4.0715    1.4198 C   0  0  0  0  0  0  0  0  0  0  0  0
   -7.8138   -4.5574    1.6407 C   0  0  0  0  0  0  0  0  0  0  0  0
   -7.9087   -5.6170    2.5273 C   0  0  0  0  0  0  0  0  0  0  0  0
   -9.8559   -6.3636    2.8213 I   0  0  0  0  0  0  0  0  0  0  0  0
   -6.8416   -6.1626    3.1491 C   0  0  0  0  0  0  0  0  0  0  0  0
   -5.5490   -5.5998    2.8982 C   0  0  0  0  0  0  0  0  0  0  0  0
   -4.1813   -5.9321    3.5887 C   0  0  0  0  0  0  0  0  0  0  0  0
   -4.2367   -6.3940    4.7190 C   0  0  0  0  0  0  0  0  0  0  0  0
   -3.4235   -5.9540    5.7675 C   0  0  0  0  0  0  0  0  0  0  0  0
   -2.7246   -5.5571    6.6986 N   0  0  0  0  0  0  0  0  0  0  0  0
   -5.0789   -7.6293    5.0421 C   0  0  0  0  0  0  0  0  0  0  0  0
   -5.7187   -8.5858    5.2817 N   0  0  0  0  0  0  0  0  0  0  0  0
    1.9113    6.1272   -3.3270 H   0  0  0  0  0  0  0  0  0  0  0  0
    1.1516    5.6908    2.8959 H   0  0  0  0  0  0  0  0  0  0  0  0
    1.6076    7.6963    4.2684 H   0  0  0  0  0  0  0  0  0  0  0  0
    2.4730    9.8164    0.5709 H   0  0  0  0  0  0  0  0  0  0  0  0
    2.4642    0.1212   -4.6702 H   0  0  0  0  0  0  0  0  0  0  0  0
    3.8845    2.5859   -7.3576 H   0  0  0  0  0  0  0  0  0  0  0  0
    3.9383    0.8100   -7.1518 H   0  0  0  0  0  0  0  0  0  0  0  0
    2.2013    1.1111   -8.8974 H   0  0  0  0  0  0  0  0  0  0  0  0
    1.8686    2.7614   -8.2827 H   0  0  0  0  0  0  0  0  0  0  0  0
    1.0985    1.4511   -7.4080 H   0  0  0  0  0  0  0  0  0  0  0  0
   -2.5574   -1.1885   -3.1964 H   0  0  0  0  0  0  0  0  0  0  0  0
   -1.4426   -0.2084   -4.2912 H   0  0  0  0  0  0  0  0  0  0  0  0
   -3.0135    0.4208   -3.6473 H   0  0  0  0  0  0  0  0  0  0  0  0
    3.6211   -1.6586    1.0680 H   0  0  0  0  0  0  0  0  0  0  0  0
    4.4466   -3.2078    0.6150 H   0  0  0  0  0  0  0  0  0  0  0  0
    4.9088   -1.6845   -0.1926 H   0  0  0  0  0  0  0  0  0  0  0  0
    2.1874   -3.6043    1.4757 H   0  0  0  0  0  0  0  0  0  0  0  0
    2.4397   -6.7780    2.2671 H   0  0  0  0  0  0  0  0  0  0  0  0
    2.6604   -7.3656    3.9695 H   0  0  0  0  0  0  0  0  0  0  0  0
    0.2881   -7.9643    4.1090 H   0  0  0  0  0  0  0  0  0  0  0  0
    0.0398   -7.6732    2.3805 H   0  0  0  0  0  0  0  0  0  0  0  0
    1.1999   -8.9214    2.9090 H   0  0  0  0  0  0  0  0  0  0  0  0
   -1.8162   -5.7283    3.9949 H   0  0  0  0  0  0  0  0  0  0  0  0
   -6.4612   -3.2455    0.7287 H   0  0  0  0  0  0  0  0  0  0  0  0
   -8.7472   -4.1787    1.1366 H   0  0  0  0  0  0  0  0  0  0  0  0
   -6.9595   -6.9330    3.8451 H   0  0  0  0  0  0  0  0  0  0  0  0
  1  2  2  3
  2  3  1  0
  3  4  2  0
  3  5  1  0
  5  6  2  0
  6  7  1  0
  7  8  2  0
  8  9  1  0
  8 10  1  0
 10 11  2  0
 11 12  1  0
 12 13  2  3
 13 14  1  0
 14 15  3  0
 13 16  1  0
 16 17  3  0
  1 18  1  0
 18 19  1  0
 19 20  1  0
 20 21  2  0
 21 22  1  0
 22 23  2  0
 23 24  1  0
 24 25  1  0
 23 26  1  0
 26 27  1  0
 20 28  1  0
 28 29  2  0
 29 30  1  0
 30 31  1  0
 29 32  1  0
 32 33  1  0
 32 34  2  0
 34 35  1  0
 35 36  1  0
 36 37  1  0
 35 38  2  0
 38 39  1  0
 34 40  1  0
 40 41  2  0
 41 42  1  0
 42 43  1  0
 43 44  1  0
 44 45  1  0
 42 46  2  0
 46 47  1  0
 46 48  1  0
 48 49  2  3
 49 50  1  0
 50 51  2  0
 50 52  1  0
 52 53  2  0
 53 54  1  0
 54 55  2  0
 55 56  1  0
 55 57  1  0
 57 58  2  0
 58 59  1  0
 59 60  2  3
 60 61  1  0
 61 62  3  0
 60 63  1  0
 63 64  3  0
 12  2  1  0
 27 18  2  0
 38 28  1  0
 47 40  1  0
 59 49  1  0
 11  5  1  0
 27 21  1  0
 58 52  1  0
  1 65  1  0
  6 66  1  0
  7 67  1  0
 10 68  1  0
 22 69  1  0
 24 70  1  0
 24 71  1  0
 25 72  1  0
 25 73  1  0
 25 74  1  0
 31 75  1  0
 31 76  1  0
 31 77  1  0
 37 78  1  0
 37 79  1  0
 37 80  1  0
 41 81  1  0
 44 82  1  0
 44 83  1  0
 45 84  1  0
 45 85  1  0
 45 86  1  0
 48 87  1  0
 53 88  1  0
 54 89  1  0
 57 90  1  0
M  END

