
     RDKit          3D

103113  0  0  0  0  0  0  0  0999 V2000
    2.4994    6.2550   -3.5108 C   0  0  0  0  0  0  0  0  0  0  0  0
    3.0392    7.2552   -4.2374 C   0  0  0  0  0  0  0  0  0  0  0  0
    4.4161    7.3203   -4.7461 C   0  0  0  0  0  0  0  0  0  0  0  0
    5.4141    6.6868   -4.3045 O   0  0  0  0  0  0  0  0  0  0  0  0
    4.4549    8.3066   -5.8045 C   0  0  0  0  0  0  0  0  0  0  0  0
    5.5049    8.6002   -6.6799 C   0  0  0  0  0  0  0  0  0  0  0  0
    6.7073    7.9880   -6.5554 F   0  0  0  0  0  0  0  0  0  0  0  0
    5.2796    9.5196   -7.7128 C   0  0  0  0  0  0  0  0  0  0  0  0
    4.0124   10.1083   -7.8653 C   0  0  0  0  0  0  0  0  0  0  0  0
    2.9668    9.8051   -6.9735 C   0  0  0  0  0  0  0  0  0  0  0  0
    3.2128    8.9084   -5.9259 C   0  0  0  0  0  0  0  0  0  0  0  0
    2.3067    8.4015   -4.8572 C   0  0  0  0  0  0  0  0  0  0  0  0
    1.1921    9.0156   -4.3835 C   0  0  0  0  0  0  0  0  0  0  0  0
    0.6641   10.2226   -4.9624 C   0  0  0  0  0  0  0  0  0  0  0  0
    0.2292   11.1958   -5.4200 N   0  0  0  0  0  0  0  0  0  0  0  0
    0.5412    8.6045   -3.1687 C   0  0  0  0  0  0  0  0  0  0  0  0
   -0.0039    8.2796   -2.1987 N   0  0  0  0  0  0  0  0  0  0  0  0
    3.2266    5.0569   -3.0363 C   0  0  0  0  0  0  0  0  0  0  0  0
    3.0466    4.6536   -1.7005 C   0  0  0  0  0  0  0  0  0  0  0  0
    3.6163    3.4494   -1.2859 C   0  0  0  0  0  0  0  0  0  0  0  0
    3.4070    2.7204   -0.0415 C   0  0  0  0  0  0  0  0  0  0  0  0
    2.7476    3.1192    0.9640 O   0  0  0  0  0  0  0  0  0  0  0  0
    4.0050    1.4036   -0.2310 C   0  0  0  0  0  0  0  0  0  0  0  0
    4.5782    1.3586   -1.4904 C   0  0  0  0  0  0  0  0  0  0  0  0
    4.3251    2.6405   -2.1593 C   0  0  0  0  0  0  0  0  0  0  0  0
    4.4986    3.0043   -3.4945 C   0  0  0  0  0  0  0  0  0  0  0  0
    3.9421    4.2184   -3.9356 C   0  0  0  0  0  0  0  0  0  0  0  0
    5.0502    0.1568   -2.0215 C   0  0  0  0  0  0  0  0  0  0  0  0
    4.8677   -1.0234   -1.2744 C   0  0  0  0  0  0  0  0  0  0  0  0
    4.1964   -0.9900   -0.0280 C   0  0  0  0  0  0  0  0  0  0  0  0
    3.8021    0.2491    0.5148 C   0  0  0  0  0  0  0  0  0  0  0  0
    3.5928   -2.2101    0.5512 C   0  0  0  0  0  0  0  0  0  0  0  0
    3.7173   -2.4582    1.9263 C   0  0  0  0  0  0  0  0  0  0  0  0
    4.6507   -1.7986    2.6591 F   0  0  0  0  0  0  0  0  0  0  0  0
    2.8057   -3.2919    2.5787 C   0  0  0  0  0  0  0  0  0  0  0  0
    2.8842   -3.4232    3.9284 F   0  0  0  0  0  0  0  0  0  0  0  0
    1.7371   -3.8726    1.8733 C   0  0  0  0  0  0  0  0  0  0  0  0
    1.6917   -3.7409    0.4697 C   0  0  0  0  0  0  0  0  0  0  0  0
    0.6887   -4.3035   -0.2591 N   0  0  0  0  0  0  0  0  0  0  0  0
    0.5752   -4.1280   -1.6040 C   0  0  0  0  0  0  0  0  0  0  0  0
   -0.5427   -4.8293   -2.3237 C   0  0  0  0  0  0  0  0  0  0  0  0
   -0.0903   -6.1812   -2.8648 C   0  0  0  0  0  0  0  0  0  0  0  0
    1.5265   -3.3230   -2.2659 C   0  0  0  0  0  0  0  0  0  0  0  0
    2.4984   -2.7280   -1.5263 N   0  0  0  0  0  0  0  0  0  0  0  0
    2.6257   -2.9204   -0.1882 C   0  0  0  0  0  0  0  0  0  0  0  0
    1.4863   -3.0210   -3.7418 C   0  0  0  0  0  0  0  0  0  0  0  0
    0.7295   -1.7196   -3.9970 C   0  0  0  0  0  0  0  0  0  0  0  0
    0.5339   -4.3205    2.6184 C   0  0  0  0  0  0  0  0  0  0  0  0
   -0.0933   -3.4039    3.4922 C   0  0  0  0  0  0  0  0  0  0  0  0
   -1.3429   -3.7216    4.0087 C   0  0  0  0  0  0  0  0  0  0  0  0
   -2.2814   -2.8675    4.7177 C   0  0  0  0  0  0  0  0  0  0  0  0
   -2.0700   -1.6893    5.1089 O   0  0  0  0  0  0  0  0  0  0  0  0
   -3.5419   -3.5937    4.7769 C   0  0  0  0  0  0  0  0  0  0  0  0
   -3.3625   -4.8305    4.1802 C   0  0  0  0  0  0  0  0  0  0  0  0
   -1.9805   -4.9080    3.6966 C   0  0  0  0  0  0  0  0  0  0  0  0
   -1.3725   -5.8529    2.8642 C   0  0  0  0  0  0  0  0  0  0  0  0
   -0.1017   -5.5553    2.3292 C   0  0  0  0  0  0  0  0  0  0  0  0
   -4.4489   -5.6676    3.9263 C   0  0  0  0  0  0  0  0  0  0  0  0
   -5.7391   -5.2140    4.2692 C   0  0  0  0  0  0  0  0  0  0  0  0
   -5.9266   -3.9366    4.8576 C   0  0  0  0  0  0  0  0  0  0  0  0
   -4.8088   -3.1163    5.1113 C   0  0  0  0  0  0  0  0  0  0  0  0
   -7.2767   -3.3402    4.9828 C   0  0  0  0  0  0  0  0  0  0  0  0
   -8.3725   -3.9714    5.4397 C   0  0  0  0  0  0  0  0  0  0  0  0
  -10.0056   -3.2551    5.2209 S   0  0  0  0  0  0  0  0  0  0  0  0
  -10.6803   -4.8468    5.7232 C   0  0  0  0  0  0  0  0  0  0  0  0
  -11.9075   -5.1048    5.6238 O   0  0  0  0  0  0  0  0  0  0  0  0
   -9.7380   -5.7962    6.2256 N   0  0  0  0  0  0  0  0  0  0  0  0
  -10.0876   -7.0516    6.8845 C   0  0  0  0  0  0  0  0  0  0  0  0
  -10.4839   -6.7926    8.3290 C   0  0  0  0  0  0  0  0  0  0  0  0
   -8.4228   -5.2704    6.1101 C   0  0  0  0  0  0  0  0  0  0  0  0
   -7.4196   -5.8329    6.6204 O   0  0  0  0  0  0  0  0  0  0  0  0
    1.4518    6.2783   -3.2616 H   0  0  0  0  0  0  0  0  0  0  0  0
    6.0739    9.7596   -8.4117 H   0  0  0  0  0  0  0  0  0  0  0  0
    3.8372   10.7933   -8.6777 H   0  0  0  0  0  0  0  0  0  0  0  0
    1.9869   10.2269   -7.1505 H   0  0  0  0  0  0  0  0  0  0  0  0
    2.4167    5.2236   -1.0219 H   0  0  0  0  0  0  0  0  0  0  0  0
    4.9944    2.3432   -4.1914 H   0  0  0  0  0  0  0  0  0  0  0  0
    4.0291    4.4900   -4.9797 H   0  0  0  0  0  0  0  0  0  0  0  0
    5.4674    0.1157   -3.0219 H   0  0  0  0  0  0  0  0  0  0  0  0
    5.1494   -1.9721   -1.7146 H   0  0  0  0  0  0  0  0  0  0  0  0
    3.2230    0.2990    1.4268 H   0  0  0  0  0  0  0  0  0  0  0  0
   -1.3801   -4.9909   -1.6150 H   0  0  0  0  0  0  0  0  0  0  0  0
   -0.9419   -4.2008   -3.1434 H   0  0  0  0  0  0  0  0  0  0  0  0
   -0.9396   -6.6734   -3.3885 H   0  0  0  0  0  0  0  0  0  0  0  0
    0.7492   -6.0657   -3.5792 H   0  0  0  0  0  0  0  0  0  0  0  0
    0.2384   -6.8371   -2.0302 H   0  0  0  0  0  0  0  0  0  0  0  0
    2.5290   -2.9158   -4.1212 H   0  0  0  0  0  0  0  0  0  0  0  0
    1.0267   -3.8458   -4.3182 H   0  0  0  0  0  0  0  0  0  0  0  0
    0.5781   -1.5893   -5.0899 H   0  0  0  0  0  0  0  0  0  0  0  0
    1.3270   -0.8613   -3.6238 H   0  0  0  0  0  0  0  0  0  0  0  0
   -0.2650   -1.7252   -3.4893 H   0  0  0  0  0  0  0  0  0  0  0  0
    0.3298   -2.4241    3.6741 H   0  0  0  0  0  0  0  0  0  0  0  0
   -1.8844   -6.7678    2.5837 H   0  0  0  0  0  0  0  0  0  0  0  0
    0.3630   -6.2600    1.6467 H   0  0  0  0  0  0  0  0  0  0  0  0
   -4.3176   -6.6075    3.4117 H   0  0  0  0  0  0  0  0  0  0  0  0
   -6.5927   -5.8199    3.9969 H   0  0  0  0  0  0  0  0  0  0  0  0
   -4.9287   -2.1009    5.4825 H   0  0  0  0  0  0  0  0  0  0  0  0
   -7.3950   -2.3258    4.6119 H   0  0  0  0  0  0  0  0  0  0  0  0
  -10.9376   -7.5288    6.3501 H   0  0  0  0  0  0  0  0  0  0  0  0
   -9.2232   -7.7510    6.8524 H   0  0  0  0  0  0  0  0  0  0  0  0
  -10.7783   -7.7465    8.8178 H   0  0  0  0  0  0  0  0  0  0  0  0
  -11.3364   -6.0770    8.3745 H   0  0  0  0  0  0  0  0  0  0  0  0
   -9.6211   -6.3636    8.8852 H   0  0  0  0  0  0  0  0  0  0  0  0
  1  2  2  3
  2  3  1  0
  3  4  2  0
  3  5  1  0
  5  6  2  0
  6  7  1  0
  6  8  1  0
  8  9  2  0
  9 10  1  0
 10 11  2  0
 11 12  1  0
 12 13  2  3
 13 14  1  0
 14 15  3  0
 13 16  1  0
 16 17  3  0
  1 18  1  0
 18 19  2  0
 19 20  1  0
 20 21  1  0
 21 22  2  0
 21 23  1  0
 23 24  2  0
 24 25  1  0
 25 26  1  0
 26 27  2  0
 24 28  1  0
 28 29  2  0
 29 30  1  0
 30 31  2  0
 30 32  1  0
 32 33  2  0
 33 34  1  0
 33 35  1  0
 35 36  1  0
 35 37  2  0
 37 38  1  0
 38 39  2  0
 39 40  1  0
 40 41  1  0
 41 42  1  0
 40 43  2  0
 43 44  1  0
 44 45  2  0
 43 46  1  0
 46 47  1  0
 37 48  1  0
 48 49  2  0
 49 50  1  0
 50 51  1  0
 51 52  2  0
 51 53  1  0
 53 54  2  0
 54 55  1  0
 55 56  1  0
 56 57  2  0
 54 58  1  0
 58 59  2  0
 59 60  1  0
 60 61  2  0
 60 62  1  0
 62 63  2  3
 63 64  1  0
 64 65  1  0
 65 66  2  0
 65 67  1  0
 67 68  1  0
 68 69  1  0
 67 70  1  0
 70 71  2  0
 12  2  1  0
 27 18  1  0
 45 32  1  0
 57 48  1  0
 70 63  1  0
 11  5  1  0
 25 20  2  0
 45 38  1  0
 55 50  2  0
 31 23  1  0
 61 53  1  0
  1 72  1  0
  8 73  1  0
  9 74  1  0
 10 75  1  0
 19 76  1  0
 26 77  1  0
 27 78  1  0
 28 79  1  0
 29 80  1  0
 31 81  1  0
 41 82  1  0
 41 83  1  0
 42 84  1  0
 42 85  1  0
 42 86  1  0
 46 87  1  0
 46 88  1  0
 47 89  1  0
 47 90  1  0
 47 91  1  0
 49 92  1  0
 56 93  1  0
 57 94  1  0
 58 95  1  0
 59 96  1  0
 61 97  1  0
 62 98  1  0
 68 99  1  0
 68100  1  0
 69101  1  0
 69102  1  0
 69103  1  0
M  END

