
     RDKit          3D

248269  0  0  0  0  0  0  0  0999 V2000
    4.8472   -5.8041    0.9263 C   0  0  0  0  0  0  0  0  0  0  0  0
    5.8649   -5.4343    0.1227 C   0  0  0  0  0  0  0  0  0  0  0  0
    6.9523   -6.3486   -0.2474 C   0  0  0  0  0  0  0  0  0  0  0  0
    6.9424   -7.5989   -0.1053 O   0  0  0  0  0  0  0  0  0  0  0  0
    8.0984   -5.5571   -0.6706 C   0  0  0  0  0  0  0  0  0  0  0  0
    9.4135   -5.9572   -0.9364 C   0  0  0  0  0  0  0  0  0  0  0  0
    9.7590   -7.2563   -0.9736 F   0  0  0  0  0  0  0  0  0  0  0  0
   10.3986   -4.9633   -1.0958 C   0  0  0  0  0  0  0  0  0  0  0  0
   10.0518   -3.6074   -1.0103 C   0  0  0  0  0  0  0  0  0  0  0  0
    8.7260   -3.2220   -0.7760 C   0  0  0  0  0  0  0  0  0  0  0  0
    7.7453   -4.2219   -0.6338 C   0  0  0  0  0  0  0  0  0  0  0  0
    6.3059   -4.0812   -0.3188 C   0  0  0  0  0  0  0  0  0  0  0  0
    5.5159   -3.0868   -0.7827 C   0  0  0  0  0  0  0  0  0  0  0  0
    6.0485   -1.9842   -1.5483 C   0  0  0  0  0  0  0  0  0  0  0  0
    6.4493   -1.1347   -2.2182 N   0  0  0  0  0  0  0  0  0  0  0  0
    4.0863   -3.1536   -0.7524 C   0  0  0  0  0  0  0  0  0  0  0  0
    2.9297   -3.1848   -0.7419 N   0  0  0  0  0  0  0  0  0  0  0  0
    3.9610   -4.8937    1.6724 C   0  0  0  0  0  0  0  0  0  0  0  0
    4.2993   -3.6731    2.3254 C   0  0  0  0  0  0  0  0  0  0  0  0
    5.6176   -3.3735    2.8580 N   0  0  0  0  0  0  0  0  0  0  0  0
    5.7571   -2.2944    3.8045 C   0  0  0  0  0  0  0  0  0  0  0  0
    5.6291   -2.5642    5.1758 C   0  0  0  0  0  0  0  0  0  0  0  0
    5.7873   -1.5390    6.1143 C   0  0  0  0  0  0  0  0  0  0  0  0
    6.0451   -0.2386    5.6867 C   0  0  0  0  0  0  0  0  0  0  0  0
    6.1588    1.0880    6.8856 S   0  0  0  0  0  0  0  0  0  0  0  0
    4.3572    1.1581    7.1678 C   0  0  0  0  0  0  0  0  0  0  0  0
    6.1769    0.0368    4.3155 C   0  0  0  0  0  0  0  0  0  0  0  0
    6.0503   -0.9978    3.3746 C   0  0  0  0  0  0  0  0  0  0  0  0
    6.5805   -4.4258    3.0275 C   0  0  0  0  0  0  0  0  0  0  0  0
    7.9162   -4.2559    2.6267 C   0  0  0  0  0  0  0  0  0  0  0  0
    8.8430   -5.2945    2.7762 C   0  0  0  0  0  0  0  0  0  0  0  0
    8.4607   -6.5054    3.3741 C   0  0  0  0  0  0  0  0  0  0  0  0
    9.6372   -7.8335    3.5895 S   0  0  0  0  0  0  0  0  0  0  0  0
    9.1382   -8.7212    2.0824 C   0  0  0  0  0  0  0  0  0  0  0  0
    7.1402   -6.6611    3.8225 C   0  0  0  0  0  0  0  0  0  0  0  0
    6.2191   -5.6263    3.6766 C   0  0  0  0  0  0  0  0  0  0  0  0
    3.1238   -2.9769    2.6665 C   0  0  0  0  0  0  0  0  0  0  0  0
    2.7568   -1.3684    2.9062 S   0  0  0  0  0  0  0  0  0  0  0  0
    1.0629   -1.5916    2.9620 C   0  0  0  0  0  0  0  0  0  0  0  0
    0.7889   -2.9817    2.9119 C   0  0  0  0  0  0  0  0  0  0  0  0
   -0.3480   -3.6141    3.5738 N   0  0  0  0  0  0  0  0  0  0  0  0
   -1.1824   -2.8756    4.4852 C   0  0  0  0  0  0  0  0  0  0  0  0
   -2.5776   -3.0448    4.4556 C   0  0  0  0  0  0  0  0  0  0  0  0
   -3.3899   -2.4540    5.4292 C   0  0  0  0  0  0  0  0  0  0  0  0
   -2.8086   -1.7186    6.4762 C   0  0  0  0  0  0  0  0  0  0  0  0
   -3.8491   -1.0230    7.7617 S   0  0  0  0  0  0  0  0  0  0  0  0
   -3.7649    0.6738    7.1138 C   0  0  0  0  0  0  0  0  0  0  0  0
   -1.4160   -1.5896    6.5398 C   0  0  0  0  0  0  0  0  0  0  0  0
   -0.6102   -2.1629    5.5527 C   0  0  0  0  0  0  0  0  0  0  0  0
   -0.2894   -5.0317    3.8670 C   0  0  0  0  0  0  0  0  0  0  0  0
   -1.2947   -5.9040    3.4085 C   0  0  0  0  0  0  0  0  0  0  0  0
   -1.2545   -7.2602    3.7378 C   0  0  0  0  0  0  0  0  0  0  0  0
   -0.2146   -7.7668    4.5260 C   0  0  0  0  0  0  0  0  0  0  0  0
   -0.1313   -9.5167    4.8872 S   0  0  0  0  0  0  0  0  0  0  0  0
    0.7731   -9.8976    3.3566 C   0  0  0  0  0  0  0  0  0  0  0  0
    0.7680   -6.8988    5.0188 C   0  0  0  0  0  0  0  0  0  0  0  0
    0.7109   -5.5382    4.7199 C   0  0  0  0  0  0  0  0  0  0  0  0
    1.9668   -3.6768    2.5793 C   0  0  0  0  0  0  0  0  0  0  0  0
    2.2851   -5.1578    1.8442 S   0  0  0  0  0  0  0  0  0  0  0  0
    0.1312   -0.4791    2.6183 C   0  0  0  0  0  0  0  0  0  0  0  0
   -1.0247   -0.5474    1.8015 C   0  0  0  0  0  0  0  0  0  0  0  0
   -1.6407   -1.7355    1.2725 N   0  0  0  0  0  0  0  0  0  0  0  0
   -0.9473   -2.4380    0.2178 C   0  0  0  0  0  0  0  0  0  0  0  0
   -0.4239   -1.7500   -0.8903 C   0  0  0  0  0  0  0  0  0  0  0  0
    0.1518   -2.4514   -1.9529 C   0  0  0  0  0  0  0  0  0  0  0  0
    0.2343   -3.8511   -1.9077 C   0  0  0  0  0  0  0  0  0  0  0  0
    1.0751   -4.7517   -3.2077 S   0  0  0  0  0  0  0  0  0  0  0  0
   -0.4435   -5.1004   -4.1472 C   0  0  0  0  0  0  0  0  0  0  0  0
   -0.2706   -4.5381   -0.8011 C   0  0  0  0  0  0  0  0  0  0  0  0
   -0.8607   -3.8383    0.2501 C   0  0  0  0  0  0  0  0  0  0  0  0
   -3.0884   -1.8685    1.3964 C   0  0  0  0  0  0  0  0  0  0  0  0
   -3.8364   -2.7140    0.5518 C   0  0  0  0  0  0  0  0  0  0  0  0
   -5.2362   -2.7726    0.6430 C   0  0  0  0  0  0  0  0  0  0  0  0
   -5.9087   -1.9919    1.5783 C   0  0  0  0  0  0  0  0  0  0  0  0
   -7.6943   -2.0373    1.6708 S   0  0  0  0  0  0  0  0  0  0  0  0
   -7.9744   -0.8551    0.3066 C   0  0  0  0  0  0  0  0  0  0  0  0
   -5.1854   -1.2083    2.4768 C   0  0  0  0  0  0  0  0  0  0  0  0
   -3.7903   -1.1418    2.3883 C   0  0  0  0  0  0  0  0  0  0  0  0
   -1.4172    0.7170    1.3611 C   0  0  0  0  0  0  0  0  0  0  0  0
   -2.4269    1.1752    0.1277 S   0  0  0  0  0  0  0  0  0  0  0  0
   -1.9221    2.7955    0.0680 C   0  0  0  0  0  0  0  0  0  0  0  0
   -0.8994    2.9689    1.0404 C   0  0  0  0  0  0  0  0  0  0  0  0
   -0.1530    4.1751    1.2270 N   0  0  0  0  0  0  0  0  0  0  0  0
    1.2938    4.2135    1.1135 C   0  0  0  0  0  0  0  0  0  0  0  0
    2.0501    5.2130    1.7585 C   0  0  0  0  0  0  0  0  0  0  0  0
    3.4365    5.2637    1.6043 C   0  0  0  0  0  0  0  0  0  0  0  0
    4.0938    4.3053    0.8348 C   0  0  0  0  0  0  0  0  0  0  0  0
    5.8741    4.3763    0.6237 S   0  0  0  0  0  0  0  0  0  0  0  0
    6.2231    3.6023    2.2333 C   0  0  0  0  0  0  0  0  0  0  0  0
    3.3575    3.3136    0.1821 C   0  0  0  0  0  0  0  0  0  0  0  0
    1.9630    3.2715    0.3158 C   0  0  0  0  0  0  0  0  0  0  0  0
   -0.8721    5.3205    1.7184 C   0  0  0  0  0  0  0  0  0  0  0  0
   -1.0965    5.4810    3.0908 C   0  0  0  0  0  0  0  0  0  0  0  0
   -1.7748    6.6020    3.5672 C   0  0  0  0  0  0  0  0  0  0  0  0
   -2.2652    7.5656    2.6711 C   0  0  0  0  0  0  0  0  0  0  0  0
   -3.1422    8.9983    3.2773 S   0  0  0  0  0  0  0  0  0  0  0  0
   -1.6330    9.9717    3.5657 C   0  0  0  0  0  0  0  0  0  0  0  0
   -2.0292    7.4126    1.2999 C   0  0  0  0  0  0  0  0  0  0  0  0
   -1.3407    6.2933    0.8220 C   0  0  0  0  0  0  0  0  0  0  0  0
   -0.6525    1.7673    1.7395 C   0  0  0  0  0  0  0  0  0  0  0  0
    0.5862    1.1788    2.7077 S   0  0  0  0  0  0  0  0  0  0  0  0
   -2.0779    3.5365   -1.1954 C   0  0  0  0  0  0  0  0  0  0  0  0
   -3.1442    4.3866   -1.5658 C   0  0  0  0  0  0  0  0  0  0  0  0
   -4.0849    5.0350   -0.6726 N   0  0  0  0  0  0  0  0  0  0  0  0
   -4.6420    6.3130   -1.0504 C   0  0  0  0  0  0  0  0  0  0  0  0
   -3.8340    7.2915   -1.6742 C   0  0  0  0  0  0  0  0  0  0  0  0
   -4.3863    8.4952   -2.1180 C   0  0  0  0  0  0  0  0  0  0  0  0
   -5.7513    8.7468   -1.9606 C   0  0  0  0  0  0  0  0  0  0  0  0
   -6.3636   10.0174   -2.4710 C   0  0  0  0  0  0  0  0  0  0  0  0
   -6.5635    7.7830   -1.3334 C   0  0  0  0  0  0  0  0  0  0  0  0
   -6.0138    6.5739   -0.8952 C   0  0  0  0  0  0  0  0  0  0  0  0
   -4.6033    4.3681    0.4940 C   0  0  0  0  0  0  0  0  0  0  0  0
   -4.7396    5.0684    1.6980 C   0  0  0  0  0  0  0  0  0  0  0  0
   -5.2774    4.4526    2.8265 C   0  0  0  0  0  0  0  0  0  0  0  0
   -5.6933    3.1020    2.7631 C   0  0  0  0  0  0  0  0  0  0  0  0
   -6.2058    2.4155    3.9919 C   0  0  0  0  0  0  0  0  0  0  0  0
   -5.5960    2.4176    1.5496 C   0  0  0  0  0  0  0  0  0  0  0  0
   -5.0631    3.0426    0.4189 C   0  0  0  0  0  0  0  0  0  0  0  0
   -3.3056    4.4289   -2.9549 C   0  0  0  0  0  0  0  0  0  0  0  0
   -4.6165    4.8231   -3.8971 S   0  0  0  0  0  0  0  0  0  0  0  0
   -4.1598    3.9653   -5.2928 C   0  0  0  0  0  0  0  0  0  0  0  0
   -2.9186    3.3420   -4.9758 C   0  0  0  0  0  0  0  0  0  0  0  0
   -2.3111    2.2967   -5.7718 N   0  0  0  0  0  0  0  0  0  0  0  0
   -0.8796    2.2884   -5.9738 C   0  0  0  0  0  0  0  0  0  0  0  0
   -0.1477    1.0936   -5.8808 C   0  0  0  0  0  0  0  0  0  0  0  0
    1.2385    1.0858   -6.0467 C   0  0  0  0  0  0  0  0  0  0  0  0
    1.9258    2.2737   -6.3457 C   0  0  0  0  0  0  0  0  0  0  0  0
    3.4219    2.2814   -6.4965 C   0  0  0  0  0  0  0  0  0  0  0  0
    1.2066    3.4758   -6.4133 C   0  0  0  0  0  0  0  0  0  0  0  0
   -0.1846    3.4827   -6.2310 C   0  0  0  0  0  0  0  0  0  0  0  0
   -3.0622    1.1034   -6.0536 C   0  0  0  0  0  0  0  0  0  0  0  0
   -3.7222    0.4179   -5.0271 C   0  0  0  0  0  0  0  0  0  0  0  0
   -4.3993   -0.7760   -5.3016 C   0  0  0  0  0  0  0  0  0  0  0  0
   -4.4800   -1.2463   -6.6231 C   0  0  0  0  0  0  0  0  0  0  0  0
   -5.2054   -2.5240   -6.9260 C   0  0  0  0  0  0  0  0  0  0  0  0
   -3.8270   -0.5619   -7.6464 C   0  0  0  0  0  0  0  0  0  0  0  0
   -3.1421    0.6273   -7.3777 C   0  0  0  0  0  0  0  0  0  0  0  0
   -2.4815    3.6398   -3.6763 C   0  0  0  0  0  0  0  0  0  0  0  0
   -1.4456    2.8546   -2.6276 S   0  0  0  0  0  0  0  0  0  0  0  0
   -4.9842    3.7305   -6.5262 C   0  0  0  0  0  0  0  0  0  0  0  0
   -6.2192    4.2373   -6.8662 C   0  0  0  0  0  0  0  0  0  0  0  0
   -7.0325    5.2700   -6.1697 C   0  0  0  0  0  0  0  0  0  0  0  0
   -7.0173    5.5096   -4.9317 O   0  0  0  0  0  0  0  0  0  0  0  0
   -8.2288    5.4732   -6.9291 C   0  0  0  0  0  0  0  0  0  0  0  0
   -9.0599    6.5942   -6.9673 C   0  0  0  0  0  0  0  0  0  0  0  0
   -8.7131    7.7471   -6.3325 F   0  0  0  0  0  0  0  0  0  0  0  0
  -10.2829    6.5050   -7.6931 C   0  0  0  0  0  0  0  0  0  0  0  0
  -10.6066    5.3111   -8.3892 C   0  0  0  0  0  0  0  0  0  0  0  0
   -9.5518    4.3927   -8.6301 C   0  0  0  0  0  0  0  0  0  0  0  0
   -8.3466    4.5181   -7.9115 C   0  0  0  0  0  0  0  0  0  0  0  0
   -7.0323    3.8340   -8.0672 C   0  0  0  0  0  0  0  0  0  0  0  0
   -6.5528    3.3885   -9.2686 C   0  0  0  0  0  0  0  0  0  0  0  0
   -7.3863    3.2822  -10.4389 C   0  0  0  0  0  0  0  0  0  0  0  0
   -8.0491    3.2072  -11.3928 N   0  0  0  0  0  0  0  0  0  0  0  0
   -5.1508    3.1858   -9.5299 C   0  0  0  0  0  0  0  0  0  0  0  0
   -4.0295    3.0279   -9.7696 N   0  0  0  0  0  0  0  0  0  0  0  0
    4.6763   -6.8648    1.0840 H   0  0  0  0  0  0  0  0  0  0  0  0
   11.4343   -5.2442   -1.2105 H   0  0  0  0  0  0  0  0  0  0  0  0
   10.8221   -2.8455   -1.0790 H   0  0  0  0  0  0  0  0  0  0  0  0
    8.4846   -2.1777   -0.6561 H   0  0  0  0  0  0  0  0  0  0  0  0
    5.3976   -3.5624    5.5165 H   0  0  0  0  0  0  0  0  0  0  0  0
    5.6742   -1.7526    7.1677 H   0  0  0  0  0  0  0  0  0  0  0  0
    4.0396    0.2754    7.7586 H   0  0  0  0  0  0  0  0  0  0  0  0
    4.1077    2.0773    7.7338 H   0  0  0  0  0  0  0  0  0  0  0  0
    3.8139    1.1708    6.2020 H   0  0  0  0  0  0  0  0  0  0  0  0
    6.3887    1.0429    3.9827 H   0  0  0  0  0  0  0  0  0  0  0  0
    6.1570   -0.7775    2.3193 H   0  0  0  0  0  0  0  0  0  0  0  0
    8.2311   -3.3201    2.1783 H   0  0  0  0  0  0  0  0  0  0  0  0
    9.8625   -5.1650    2.4385 H   0  0  0  0  0  0  0  0  0  0  0  0
    9.4589   -8.1383    1.2033 H   0  0  0  0  0  0  0  0  0  0  0  0
    8.0383   -8.8661    2.0595 H   0  0  0  0  0  0  0  0  0  0  0  0
    9.6334   -9.7118    2.0609 H   0  0  0  0  0  0  0  0  0  0  0  0
    6.8393   -7.5883    4.2958 H   0  0  0  0  0  0  0  0  0  0  0  0
    5.2094   -5.7619    4.0441 H   0  0  0  0  0  0  0  0  0  0  0  0
   -3.0454   -3.6334    3.6837 H   0  0  0  0  0  0  0  0  0  0  0  0
   -4.4645   -2.5806    5.3836 H   0  0  0  0  0  0  0  0  0  0  0  0
   -3.9977    0.6921    6.0312 H   0  0  0  0  0  0  0  0  0  0  0  0
   -2.7449    1.0745    7.2780 H   0  0  0  0  0  0  0  0  0  0  0  0
   -4.4842    1.3111    7.6671 H   0  0  0  0  0  0  0  0  0  0  0  0
   -0.9644   -1.0680    7.3701 H   0  0  0  0  0  0  0  0  0  0  0  0
    0.4641   -2.1018    5.6451 H   0  0  0  0  0  0  0  0  0  0  0  0
   -2.1134   -5.5454    2.8033 H   0  0  0  0  0  0  0  0  0  0  0  0
   -2.0400   -7.9230    3.3882 H   0  0  0  0  0  0  0  0  0  0  0  0
    1.7046   -9.2971    3.3026 H   0  0  0  0  0  0  0  0  0  0  0  0
    1.0354  -10.9758    3.3481 H   0  0  0  0  0  0  0  0  0  0  0  0
    0.1270   -9.6764    2.4806 H   0  0  0  0  0  0  0  0  0  0  0  0
    1.5618   -7.2781    5.6493 H   0  0  0  0  0  0  0  0  0  0  0  0
    1.4630   -4.8754    5.1260 H   0  0  0  0  0  0  0  0  0  0  0  0
   -0.4771   -0.6702   -0.9485 H   0  0  0  0  0  0  0  0  0  0  0  0
    0.5594   -1.9113   -2.7961 H   0  0  0  0  0  0  0  0  0  0  0  0
   -1.2509   -5.4724   -3.4821 H   0  0  0  0  0  0  0  0  0  0  0  0
   -0.7736   -4.1696   -4.6559 H   0  0  0  0  0  0  0  0  0  0  0  0
   -0.2204   -5.8770   -4.9059 H   0  0  0  0  0  0  0  0  0  0  0  0
   -0.2072   -5.6177   -0.7582 H   0  0  0  0  0  0  0  0  0  0  0  0
   -1.2871   -4.3832    1.0723 H   0  0  0  0  0  0  0  0  0  0  0  0
   -3.3681   -3.3064   -0.2178 H   0  0  0  0  0  0  0  0  0  0  0  0
   -5.7939   -3.4003   -0.0368 H   0  0  0  0  0  0  0  0  0  0  0  0
   -8.5570    0.0107    0.6939 H   0  0  0  0  0  0  0  0  0  0  0  0
   -8.5716   -1.3669   -0.4766 H   0  0  0  0  0  0  0  0  0  0  0  0
   -7.0335   -0.4845   -0.1510 H   0  0  0  0  0  0  0  0  0  0  0  0
   -5.6987   -0.6390    3.2402 H   0  0  0  0  0  0  0  0  0  0  0  0
   -3.2789   -0.4995    3.0854 H   0  0  0  0  0  0  0  0  0  0  0  0
    1.5784    5.9631    2.3745 H   0  0  0  0  0  0  0  0  0  0  0  0
    4.0118    6.0308    2.1136 H   0  0  0  0  0  0  0  0  0  0  0  0
    5.6119    2.6821    2.3550 H   0  0  0  0  0  0  0  0  0  0  0  0
    7.2937    3.3123    2.2731 H   0  0  0  0  0  0  0  0  0  0  0  0
    5.9973    4.3208    3.0508 H   0  0  0  0  0  0  0  0  0  0  0  0
    3.8658    2.5829   -0.4284 H   0  0  0  0  0  0  0  0  0  0  0  0
    1.4183    2.5082   -0.2231 H   0  0  0  0  0  0  0  0  0  0  0  0
   -0.6948    4.7571    3.7920 H   0  0  0  0  0  0  0  0  0  0  0  0
   -1.9188    6.7305    4.6294 H   0  0  0  0  0  0  0  0  0  0  0  0
   -1.0010    9.9882    2.6545 H   0  0  0  0  0  0  0  0  0  0  0  0
   -1.9154   11.0120    3.8248 H   0  0  0  0  0  0  0  0  0  0  0  0
   -1.0636    9.5313    4.4090 H   0  0  0  0  0  0  0  0  0  0  0  0
   -2.3981    8.1586    0.6034 H   0  0  0  0  0  0  0  0  0  0  0  0
   -1.1569    6.1810   -0.2383 H   0  0  0  0  0  0  0  0  0  0  0  0
   -2.7784    7.1066   -1.8206 H   0  0  0  0  0  0  0  0  0  0  0  0
   -3.7484    9.2218   -2.6126 H   0  0  0  0  0  0  0  0  0  0  0  0
   -7.1014    9.7757   -3.2669 H   0  0  0  0  0  0  0  0  0  0  0  0
   -6.8824   10.5450   -1.6346 H   0  0  0  0  0  0  0  0  0  0  0  0
   -5.6006   10.6977   -2.9041 H   0  0  0  0  0  0  0  0  0  0  0  0
   -7.6227    7.9680   -1.1932 H   0  0  0  0  0  0  0  0  0  0  0  0
   -6.6689    5.8346   -0.4499 H   0  0  0  0  0  0  0  0  0  0  0  0
   -4.4576    6.1151    1.7482 H   0  0  0  0  0  0  0  0  0  0  0  0
   -5.3700    5.0107    3.7485 H   0  0  0  0  0  0  0  0  0  0  0  0
   -6.9995    1.6842    3.7344 H   0  0  0  0  0  0  0  0  0  0  0  0
   -5.3674    1.8897    4.4939 H   0  0  0  0  0  0  0  0  0  0  0  0
   -6.6440    3.1563    4.7014 H   0  0  0  0  0  0  0  0  0  0  0  0
   -5.9236    1.3862    1.4768 H   0  0  0  0  0  0  0  0  0  0  0  0
   -5.0263    2.5087   -0.5244 H   0  0  0  0  0  0  0  0  0  0  0  0
   -0.6386    0.1600   -5.6274 H   0  0  0  0  0  0  0  0  0  0  0  0
    1.7818    0.1503   -5.9313 H   0  0  0  0  0  0  0  0  0  0  0  0
    3.7967    1.2634   -6.7440 H   0  0  0  0  0  0  0  0  0  0  0  0
    3.7273    2.9688   -7.3131 H   0  0  0  0  0  0  0  0  0  0  0  0
    3.8871    2.6116   -5.5444 H   0  0  0  0  0  0  0  0  0  0  0  0
    1.7242    4.4091   -6.6292 H   0  0  0  0  0  0  0  0  0  0  0  0
   -0.7152    4.4218   -6.2984 H   0  0  0  0  0  0  0  0  0  0  0  0
   -3.6350    0.7552   -3.9980 H   0  0  0  0  0  0  0  0  0  0  0  0
   -4.8630   -1.3203   -4.4940 H   0  0  0  0  0  0  0  0  0  0  0  0
   -4.5473   -3.2036   -7.5122 H   0  0  0  0  0  0  0  0  0  0  0  0
   -5.5086   -3.0577   -5.9977 H   0  0  0  0  0  0  0  0  0  0  0  0
   -6.1221   -2.3049   -7.5194 H   0  0  0  0  0  0  0  0  0  0  0  0
   -3.8937   -0.9175   -8.6704 H   0  0  0  0  0  0  0  0  0  0  0  0
   -2.6326    1.1595   -8.1744 H   0  0  0  0  0  0  0  0  0  0  0  0
   -4.5437    2.9984   -7.1755 H   0  0  0  0  0  0  0  0  0  0  0  0
  -10.6726    7.4453   -8.0594 H   0  0  0  0  0  0  0  0  0  0  0  0
  -11.0673    5.4565   -7.3939 H   0  0  0  0  0  0  0  0  0  0  0  0
   -9.6989    3.6330   -9.3803 H   0  0  0  0  0  0  0  0  0  0  0  0
  1  2  2  3
  2  3  1  0
  3  4  2  0
  3  5  1  0
  5  6  2  0
  6  7  1  0
  6  8  1  0
  8  9  2  0
  9 10  1  0
 10 11  2  0
 11 12  1  0
 12 13  2  3
 13 14  1  0
 14 15  3  0
 13 16  1  0
 16 17  3  0
  1 18  1  0
 18 19  2  0
 19 20  1  0
 20 21  1  0
 21 22  2  0
 22 23  1  0
 23 24  2  0
 24 25  1  0
 25 26  1  0
 24 27  1  0
 27 28  2  0
 20 29  1  0
 29 30  2  0
 30 31  1  0
 31 32  2  0
 32 33  1  0
 33 34  1  0
 32 35  1  0
 35 36  2  0
 19 37  1  0
 37 38  1  0
 38 39  1  0
 39 40  2  0
 40 41  1  0
 41 42  1  0
 42 43  2  0
 43 44  1  0
 44 45  2  0
 45 46  1  0
 46 47  1  0
 45 48  1  0
 48 49  2  0
 41 50  1  0
 50 51  2  0
 51 52  1  0
 52 53  2  0
 53 54  1  0
 54 55  1  0
 53 56  1  0
 56 57  2  0
 40 58  1  0
 58 59  1  0
 39 60  1  0
 60 61  2  0
 61 62  1  0
 62 63  1  0
 63 64  2  0
 64 65  1  0
 65 66  2  0
 66 67  1  0
 67 68  1  0
 66 69  1  0
 69 70  2  0
 62 71  1  0
 71 72  2  0
 72 73  1  0
 73 74  2  0
 74 75  1  0
 75 76  1  0
 74 77  1  0
 77 78  2  0
 61 79  1  0
 79 80  1  0
 80 81  1  0
 81 82  2  0
 82 83  1  0
 83 84  1  0
 84 85  2  0
 85 86  1  0
 86 87  2  0
 87 88  1  0
 88 89  1  0
 87 90  1  0
 90 91  2  0
 83 92  1  0
 92 93  2  0
 93 94  1  0
 94 95  2  0
 95 96  1  0
 96 97  1  0
 95 98  1  0
 98 99  2  0
 82100  1  0
100101  1  0
 81102  1  0
102103  2  0
103104  1  0
104105  1  0
105106  2  0
106107  1  0
107108  2  0
108109  1  0
108110  1  0
110111  2  0
104112  1  0
112113  2  0
113114  1  0
114115  2  0
115116  1  0
115117  1  0
117118  2  0
103119  1  0
119120  1  0
120121  1  0
121122  2  0
122123  1  0
123124  1  0
124125  2  0
125126  1  0
126127  2  0
127128  1  0
127129  1  0
129130  2  0
123131  1  0
131132  2  0
132133  1  0
133134  2  0
134135  1  0
134136  1  0
136137  2  0
122138  1  0
138139  1  0
121140  1  0
140141  2  3
141142  1  0
142143  2  0
142144  1  0
144145  2  0
145146  1  0
145147  1  0
147148  2  0
148149  1  0
149150  2  0
150151  1  0
151152  2  3
152153  1  0
153154  3  0
152155  1  0
155156  3  0
 12  2  1  0
 59 18  1  0
101 60  1  0
139102  1  0
151141  1  0
 11  5  1  0
 28 21  1  0
 36 29  1  0
 58 37  2  0
 70 63  1  0
 78 71  1  0
100 79  2  0
111105  1  0
118112  1  0
138119  2  0
150144  1  0
 49 42  1  0
 57 50  1  0
 91 84  1  0
 99 92  1  0
130124  1  0
137131  1  0
  1157  1  0
  8158  1  0
  9159  1  0
 10160  1  0
 22161  1  0
 23162  1  0
 26163  1  0
 26164  1  0
 26165  1  0
 27166  1  0
 28167  1  0
 30168  1  0
 31169  1  0
 34170  1  0
 34171  1  0
 34172  1  0
 35173  1  0
 36174  1  0
 43175  1  0
 44176  1  0
 47177  1  0
 47178  1  0
 47179  1  0
 48180  1  0
 49181  1  0
 51182  1  0
 52183  1  0
 55184  1  0
 55185  1  0
 55186  1  0
 56187  1  0
 57188  1  0
 64189  1  0
 65190  1  0
 68191  1  0
 68192  1  0
 68193  1  0
 69194  1  0
 70195  1  0
 72196  1  0
 73197  1  0
 76198  1  0
 76199  1  0
 76200  1  0
 77201  1  0
 78202  1  0
 85203  1  0
 86204  1  0
 89205  1  0
 89206  1  0
 89207  1  0
 90208  1  0
 91209  1  0
 93210  1  0
 94211  1  0
 97212  1  0
 97213  1  0
 97214  1  0
 98215  1  0
 99216  1  0
106217  1  0
107218  1  0
109219  1  0
109220  1  0
109221  1  0
110222  1  0
111223  1  0
113224  1  0
114225  1  0
116226  1  0
116227  1  0
116228  1  0
117229  1  0
118230  1  0
125231  1  0
126232  1  0
128233  1  0
128234  1  0
128235  1  0
129236  1  0
130237  1  0
132238  1  0
133239  1  0
135240  1  0
135241  1  0
135242  1  0
136243  1  0
137244  1  0
140245  1  0
147246  1  0
148247  1  0
149248  1  0
M  END

