
     RDKit          3D

226246  0  0  0  0  0  0  0  0999 V2000
    4.2674   -4.6265    5.6413 C   0  0  0  0  0  0  0  0  0  0  0  0
    3.9248   -5.5802    6.5287 C   0  0  0  0  0  0  0  0  0  0  0  0
    2.7844   -5.5984    7.4486 C   0  0  0  0  0  0  0  0  0  0  0  0
    2.2850   -4.6060    8.0412 O   0  0  0  0  0  0  0  0  0  0  0  0
    2.4354   -6.9829    7.7066 C   0  0  0  0  0  0  0  0  0  0  0  0
    1.4046   -7.4874    8.5014 C   0  0  0  0  0  0  0  0  0  0  0  0
    0.5854   -6.6589    9.1889 F   0  0  0  0  0  0  0  0  0  0  0  0
    1.2550   -8.8788    8.6062 C   0  0  0  0  0  0  0  0  0  0  0  0
    2.1502   -9.7352    7.9398 C   0  0  0  0  0  0  0  0  0  0  0  0
    3.2038   -9.2122    7.1733 C   0  0  0  0  0  0  0  0  0  0  0  0
    3.3310   -7.8152    7.0562 C   0  0  0  0  0  0  0  0  0  0  0  0
    4.3872   -6.9922    6.4147 C   0  0  0  0  0  0  0  0  0  0  0  0
    5.6163   -7.3973    6.0103 C   0  0  0  0  0  0  0  0  0  0  0  0
    5.9448   -8.7816    5.7710 C   0  0  0  0  0  0  0  0  0  0  0  0
    6.2022   -9.9005    5.6001 N   0  0  0  0  0  0  0  0  0  0  0  0
    6.7404   -6.4934    6.0516 C   0  0  0  0  0  0  0  0  0  0  0  0
    7.6734   -5.8057    6.1656 N   0  0  0  0  0  0  0  0  0  0  0  0
    3.5676   -3.3651    5.2992 C   0  0  0  0  0  0  0  0  0  0  0  0
    4.0071   -2.5147    4.2742 C   0  0  0  0  0  0  0  0  0  0  0  0
    5.2061   -2.7127    3.5120 N   0  0  0  0  0  0  0  0  0  0  0  0
    6.3729   -1.9326    3.8598 C   0  0  0  0  0  0  0  0  0  0  0  0
    7.2611   -1.4790    2.8677 C   0  0  0  0  0  0  0  0  0  0  0  0
    8.3396   -0.6566    3.2056 C   0  0  0  0  0  0  0  0  0  0  0  0
    8.5388   -0.2643    4.5348 C   0  0  0  0  0  0  0  0  0  0  0  0
    9.8818    0.8479    4.9580 S   0  0  0  0  0  0  0  0  0  0  0  0
    8.8476    2.3351    4.7680 C   0  0  0  0  0  0  0  0  0  0  0  0
    7.6752   -0.7274    5.5312 C   0  0  0  0  0  0  0  0  0  0  0  0
    6.6026   -1.5540    5.1970 C   0  0  0  0  0  0  0  0  0  0  0  0
    5.1644   -3.5891    2.3590 C   0  0  0  0  0  0  0  0  0  0  0  0
    6.2564   -4.4174    2.0556 C   0  0  0  0  0  0  0  0  0  0  0  0
    6.2058   -5.2794    0.9560 C   0  0  0  0  0  0  0  0  0  0  0  0
    5.0625   -5.3286    0.1512 C   0  0  0  0  0  0  0  0  0  0  0  0
    4.9997   -6.4243   -1.2704 S   0  0  0  0  0  0  0  0  0  0  0  0
    4.1438   -7.7536   -0.3679 C   0  0  0  0  0  0  0  0  0  0  0  0
    3.9721   -4.5080    0.4474 C   0  0  0  0  0  0  0  0  0  0  0  0
    4.0156   -3.6535    1.5457 C   0  0  0  0  0  0  0  0  0  0  0  0
    3.1207   -1.4702    4.0451 C   0  0  0  0  0  0  0  0  0  0  0  0
    3.0813   -0.2211    2.9493 S   0  0  0  0  0  0  0  0  0  0  0  0
    1.5570    0.3851    3.4464 C   0  0  0  0  0  0  0  0  0  0  0  0
    1.1031   -0.4127    4.5341 C   0  0  0  0  0  0  0  0  0  0  0  0
    0.0764   -0.0519    5.4754 N   0  0  0  0  0  0  0  0  0  0  0  0
    0.2637    1.1602    6.2523 C   0  0  0  0  0  0  0  0  0  0  0  0
    1.5510    1.7044    6.4612 C   0  0  0  0  0  0  0  0  0  0  0  0
    1.7267    2.8749    7.1984 C   0  0  0  0  0  0  0  0  0  0  0  0
    0.6280    3.5117    7.7750 C   0  0  0  0  0  0  0  0  0  0  0  0
    0.8613    5.0271    8.7032 S   0  0  0  0  0  0  0  0  0  0  0  0
    1.4144    4.1615   10.2043 C   0  0  0  0  0  0  0  0  0  0  0  0
   -0.6529    2.9730    7.6063 C   0  0  0  0  0  0  0  0  0  0  0  0
   -0.8325    1.8099    6.8485 C   0  0  0  0  0  0  0  0  0  0  0  0
   -0.8213   -1.0978    5.9264 C   0  0  0  0  0  0  0  0  0  0  0  0
   -1.1240   -1.2646    7.2913 C   0  0  0  0  0  0  0  0  0  0  0  0
   -1.9442   -2.3109    7.7167 C   0  0  0  0  0  0  0  0  0  0  0  0
   -2.4530   -3.2246    6.7913 C   0  0  0  0  0  0  0  0  0  0  0  0
   -3.4885   -4.5817    7.3473 S   0  0  0  0  0  0  0  0  0  0  0  0
   -2.0772   -5.6985    7.6097 C   0  0  0  0  0  0  0  0  0  0  0  0
   -2.1410   -3.0859    5.4353 C   0  0  0  0  0  0  0  0  0  0  0  0
   -1.3248   -2.0380    5.0084 C   0  0  0  0  0  0  0  0  0  0  0  0
    2.0097   -1.4458    4.8083 C   0  0  0  0  0  0  0  0  0  0  0  0
    2.0701   -2.7579    5.8704 S   0  0  0  0  0  0  0  0  0  0  0  0
    0.8024    1.3138    2.5545 C   0  0  0  0  0  0  0  0  0  0  0  0
   -0.6015    1.3246    2.3439 C   0  0  0  0  0  0  0  0  0  0  0  0
   -1.5321    1.7524    3.3537 N   0  0  0  0  0  0  0  0  0  0  0  0
   -1.5157    3.1723    3.6400 C   0  0  0  0  0  0  0  0  0  0  0  0
   -2.5966    3.9912    3.2652 C   0  0  0  0  0  0  0  0  0  0  0  0
   -2.5420    5.3787    3.4610 C   0  0  0  0  0  0  0  0  0  0  0  0
   -1.4030    5.9642    4.0156 C   0  0  0  0  0  0  0  0  0  0  0  0
   -1.3254    7.7421    4.2607 S   0  0  0  0  0  0  0  0  0  0  0  0
   -0.5525    8.0660    2.6433 C   0  0  0  0  0  0  0  0  0  0  0  0
   -0.3169    5.1659    4.3744 C   0  0  0  0  0  0  0  0  0  0  0  0
   -0.3676    3.7834    4.1735 C   0  0  0  0  0  0  0  0  0  0  0  0
   -2.7099    0.9543    3.6556 C   0  0  0  0  0  0  0  0  0  0  0  0
   -3.0077   -0.2359    2.9511 C   0  0  0  0  0  0  0  0  0  0  0  0
   -4.1413   -0.9938    3.2696 C   0  0  0  0  0  0  0  0  0  0  0  0
   -4.9898   -0.5897    4.2991 C   0  0  0  0  0  0  0  0  0  0  0  0
   -6.4003   -1.5982    4.7621 S   0  0  0  0  0  0  0  0  0  0  0  0
   -7.5678   -0.6939    3.6956 C   0  0  0  0  0  0  0  0  0  0  0  0
   -4.7055    0.5776    5.0188 C   0  0  0  0  0  0  0  0  0  0  0  0
   -3.5877    1.3467    4.6887 C   0  0  0  0  0  0  0  0  0  0  0  0
   -0.8852    1.6273    1.0054 C   0  0  0  0  0  0  0  0  0  0  0  0
   -2.2772    1.6114    0.0577 S   0  0  0  0  0  0  0  0  0  0  0  0
   -1.4735    2.0362   -1.3940 C   0  0  0  0  0  0  0  0  0  0  0  0
   -0.1148    2.2687   -1.0943 C   0  0  0  0  0  0  0  0  0  0  0  0
    0.8612    2.8216   -1.9945 N   0  0  0  0  0  0  0  0  0  0  0  0
    0.6794    4.1678   -2.4989 C   0  0  0  0  0  0  0  0  0  0  0  0
    1.1503    4.5251   -3.7766 C   0  0  0  0  0  0  0  0  0  0  0  0
    0.9344    5.8092   -4.2818 C   0  0  0  0  0  0  0  0  0  0  0  0
    0.2477    6.7569   -3.5169 C   0  0  0  0  0  0  0  0  0  0  0  0
   -0.0410    8.4052   -4.1649 S   0  0  0  0  0  0  0  0  0  0  0  0
   -1.5597    7.9350   -5.0512 C   0  0  0  0  0  0  0  0  0  0  0  0
   -0.2153    6.4212   -2.2413 C   0  0  0  0  0  0  0  0  0  0  0  0
    0.0008    5.1394   -1.7336 C   0  0  0  0  0  0  0  0  0  0  0  0
    2.0880    2.0984   -2.2245 C   0  0  0  0  0  0  0  0  0  0  0  0
    3.3300    2.7669   -2.2189 C   0  0  0  0  0  0  0  0  0  0  0  0
    4.5159    2.0547   -2.4130 C   0  0  0  0  0  0  0  0  0  0  0  0
    4.4799    0.6696   -2.6058 C   0  0  0  0  0  0  0  0  0  0  0  0
    6.0038   -0.2429   -2.8401 S   0  0  0  0  0  0  0  0  0  0  0  0
    5.9689   -0.0795   -4.6511 C   0  0  0  0  0  0  0  0  0  0  0  0
    3.2536   -0.0048   -2.5899 C   0  0  0  0  0  0  0  0  0  0  0  0
    2.0661    0.7051   -2.4010 C   0  0  0  0  0  0  0  0  0  0  0  0
    0.1656    1.9858    0.2352 C   0  0  0  0  0  0  0  0  0  0  0  0
    1.5619    1.8818    1.1248 S   0  0  0  0  0  0  0  0  0  0  0  0
   -2.0565    1.8791   -2.7487 C   0  0  0  0  0  0  0  0  0  0  0  0
   -3.2719    1.2580   -3.0628 C   0  0  0  0  0  0  0  0  0  0  0  0
   -3.4855    1.1138   -4.4512 C   0  0  0  0  0  0  0  0  0  0  0  0
   -4.5937    0.5086   -5.0914 C   0  0  0  0  0  0  0  0  0  0  0  0
   -5.7309   -0.1064   -4.3511 C   0  0  0  0  0  0  0  0  0  0  0  0
   -6.3742    0.3813   -3.2132 C   0  0  0  0  0  0  0  0  0  0  0  0
   -7.4271   -0.4323   -2.7616 C   0  0  0  0  0  0  0  0  0  0  0  0
   -7.6278   -1.5490   -3.5568 C   0  0  0  0  0  0  0  0  0  0  0  0
   -8.9899   -2.7143   -3.3977 S   0  0  0  0  0  0  0  0  0  0  0  0
   -7.9454   -4.2252   -3.3585 C   0  0  0  0  0  0  0  0  0  0  0  0
   -7.2633   -4.4018   -2.0035 C   0  0  0  0  0  0  0  0  0  0  0  0
   -6.5167   -1.5220   -4.8067 S   0  0  0  0  0  0  0  0  0  0  0  0
   -4.5392    0.4492   -6.5043 C   0  0  0  0  0  0  0  0  0  0  0  0
   -3.4474    0.9078   -7.2616 C   0  0  0  0  0  0  0  0  0  0  0  0
   -2.3459    1.5061   -6.6180 C   0  0  0  0  0  0  0  0  0  0  0  0
   -1.1891    2.0550   -7.3641 C   0  0  0  0  0  0  0  0  0  0  0  0
   -0.4522    1.3997   -8.3448 C   0  0  0  0  0  0  0  0  0  0  0  0
    0.6093    2.1619   -8.8466 C   0  0  0  0  0  0  0  0  0  0  0  0
    0.7126    3.4107   -8.2500 C   0  0  0  0  0  0  0  0  0  0  0  0
    1.9275    4.6687   -8.6391 S   0  0  0  0  0  0  0  0  0  0  0  0
    3.2132    3.9438   -7.5715 C   0  0  0  0  0  0  0  0  0  0  0  0
    4.4646    4.8129   -7.5964 C   0  0  0  0  0  0  0  0  0  0  0  0
   -0.5095    3.5764   -7.1152 S   0  0  0  0  0  0  0  0  0  0  0  0
   -2.4108    1.6002   -5.2150 C   0  0  0  0  0  0  0  0  0  0  0  0
   -1.2344    2.1861   -4.1783 S   0  0  0  0  0  0  0  0  0  0  0  0
   -3.6417    0.7669   -8.6505 C   0  0  0  0  0  0  0  0  0  0  0  0
   -4.8806    0.2209   -8.9784 C   0  0  0  0  0  0  0  0  0  0  0  0
   -5.7508   -0.0488   -7.5674 S   0  0  0  0  0  0  0  0  0  0  0  0
   -5.4550    0.0818  -10.3228 C   0  0  0  0  0  0  0  0  0  0  0  0
   -4.7859   -0.3156  -11.4154 C   0  0  0  0  0  0  0  0  0  0  0  0
   -5.2030    0.0564  -12.7645 C   0  0  0  0  0  0  0  0  0  0  0  0
   -6.3021    0.5711  -13.0924 O   0  0  0  0  0  0  0  0  0  0  0  0
   -4.0841   -0.1650  -13.6605 C   0  0  0  0  0  0  0  0  0  0  0  0
   -3.9710    0.1688  -15.0109 C   0  0  0  0  0  0  0  0  0  0  0  0
   -4.9917    0.7516  -15.6751 F   0  0  0  0  0  0  0  0  0  0  0  0
   -2.7470   -0.0668  -15.6579 C   0  0  0  0  0  0  0  0  0  0  0  0
   -1.6640   -0.6002  -14.9438 C   0  0  0  0  0  0  0  0  0  0  0  0
   -1.7852   -0.9042  -13.5783 C   0  0  0  0  0  0  0  0  0  0  0  0
   -3.0242   -0.7051  -12.9491 C   0  0  0  0  0  0  0  0  0  0  0  0
   -3.4321   -0.9449  -11.5384 C   0  0  0  0  0  0  0  0  0  0  0  0
   -2.9284   -1.9081  -10.7247 C   0  0  0  0  0  0  0  0  0  0  0  0
   -1.7073   -2.6155  -11.0312 C   0  0  0  0  0  0  0  0  0  0  0  0
   -0.7253   -3.1873  -11.2694 N   0  0  0  0  0  0  0  0  0  0  0  0
   -3.6663   -2.4246   -9.5944 C   0  0  0  0  0  0  0  0  0  0  0  0
   -4.2382   -2.8571   -8.6813 N   0  0  0  0  0  0  0  0  0  0  0  0
    5.0713   -4.8641    4.9651 H   0  0  0  0  0  0  0  0  0  0  0  0
    0.4604   -9.2936    9.2157 H   0  0  0  0  0  0  0  0  0  0  0  0
    2.0505  -10.8106    8.0523 H   0  0  0  0  0  0  0  0  0  0  0  0
    3.8770   -9.9033    6.6972 H   0  0  0  0  0  0  0  0  0  0  0  0
    7.1041   -1.7311    1.8278 H   0  0  0  0  0  0  0  0  0  0  0  0
    9.0085   -0.3041    2.4272 H   0  0  0  0  0  0  0  0  0  0  0  0
    8.4697    2.4097    3.7277 H   0  0  0  0  0  0  0  0  0  0  0  0
    9.4606    3.2348    4.9884 H   0  0  0  0  0  0  0  0  0  0  0  0
    7.9959    2.3007    5.4790 H   0  0  0  0  0  0  0  0  0  0  0  0
    7.8170   -0.4275    6.5628 H   0  0  0  0  0  0  0  0  0  0  0  0
    5.9412   -1.8858    5.9835 H   0  0  0  0  0  0  0  0  0  0  0  0
    7.1445   -4.4067    2.6772 H   0  0  0  0  0  0  0  0  0  0  0  0
    7.0555   -5.9138    0.7306 H   0  0  0  0  0  0  0  0  0  0  0  0
    4.7828   -8.1217    0.4626 H   0  0  0  0  0  0  0  0  0  0  0  0
    3.9335   -8.5928   -1.0640 H   0  0  0  0  0  0  0  0  0  0  0  0
    3.1821   -7.3787    0.0403 H   0  0  0  0  0  0  0  0  0  0  0  0
    3.0821   -4.5477   -0.1641 H   0  0  0  0  0  0  0  0  0  0  0  0
    3.1540   -3.0459    1.7613 H   0  0  0  0  0  0  0  0  0  0  0  0
    2.4281    1.2227    6.0539 H   0  0  0  0  0  0  0  0  0  0  0  0
    2.7187    3.2845    7.3270 H   0  0  0  0  0  0  0  0  0  0  0  0
    0.6056    3.5152   10.5982 H   0  0  0  0  0  0  0  0  0  0  0  0
    1.6738    4.9183   10.9767 H   0  0  0  0  0  0  0  0  0  0  0  0
    2.3173    3.5521    9.9825 H   0  0  0  0  0  0  0  0  0  0  0  0
   -1.5143    3.4514    8.0569 H   0  0  0  0  0  0  0  0  0  0  0  0
   -1.8218    1.4052    6.7477 H   0  0  0  0  0  0  0  0  0  0  0  0
   -0.6981   -0.6092    8.0382 H   0  0  0  0  0  0  0  0  0  0  0  0
   -2.1638   -2.4250    8.7670 H   0  0  0  0  0  0  0  0  0  0  0  0
   -2.4437   -6.6481    8.0547 H   0  0  0  0  0  0  0  0  0  0  0  0
   -1.5826   -5.9174    6.6416 H   0  0  0  0  0  0  0  0  0  0  0  0
   -1.3529   -5.2300    8.3060 H   0  0  0  0  0  0  0  0  0  0  0  0
   -2.5232   -3.7969    4.7098 H   0  0  0  0  0  0  0  0  0  0  0  0
   -1.0698   -1.9677    3.9577 H   0  0  0  0  0  0  0  0  0  0  0  0
   -3.4745    3.5641    2.7983 H   0  0  0  0  0  0  0  0  0  0  0  0
   -3.3832    5.9932    3.1684 H   0  0  0  0  0  0  0  0  0  0  0  0
    0.4146    7.5300    2.5660 H   0  0  0  0  0  0  0  0  0  0  0  0
   -0.3685    9.1563    2.5426 H   0  0  0  0  0  0  0  0  0  0  0  0
   -1.2290    7.7412    1.8272 H   0  0  0  0  0  0  0  0  0  0  0  0
    0.5767    5.6094    4.7957 H   0  0  0  0  0  0  0  0  0  0  0  0
    0.4977    3.1999    4.4265 H   0  0  0  0  0  0  0  0  0  0  0  0
   -2.3513   -0.5949    2.1803 H   0  0  0  0  0  0  0  0  0  0  0  0
   -4.3416   -1.9075    2.7238 H   0  0  0  0  0  0  0  0  0  0  0  0
   -7.5745    0.3828    3.9691 H   0  0  0  0  0  0  0  0  0  0  0  0
   -8.5877   -1.1061    3.8453 H   0  0  0  0  0  0  0  0  0  0  0  0
   -7.2810   -0.8128    2.6301 H   0  0  0  0  0  0  0  0  0  0  0  0
   -5.3527    0.8964    5.8282 H   0  0  0  0  0  0  0  0  0  0  0  0
   -3.4116    2.2486    5.2573 H   0  0  0  0  0  0  0  0  0  0  0  0
    1.6538    3.7942   -4.3895 H   0  0  0  0  0  0  0  0  0  0  0  0
    1.2946    6.0605   -5.2682 H   0  0  0  0  0  0  0  0  0  0  0  0
   -1.2988    7.3121   -5.9299 H   0  0  0  0  0  0  0  0  0  0  0  0
   -2.2492    7.3786   -4.3853 H   0  0  0  0  0  0  0  0  0  0  0  0
   -2.0681    8.8568   -5.4041 H   0  0  0  0  0  0  0  0  0  0  0  0
   -0.7379    7.1515   -1.6385 H   0  0  0  0  0  0  0  0  0  0  0  0
   -0.3626    4.9058   -0.7394 H   0  0  0  0  0  0  0  0  0  0  0  0
    3.3749    3.8316   -2.0542 H   0  0  0  0  0  0  0  0  0  0  0  0
    5.4564    2.5806   -2.4084 H   0  0  0  0  0  0  0  0  0  0  0  0
    6.8216   -0.6423   -5.0821 H   0  0  0  0  0  0  0  0  0  0  0  0
    6.0607    0.9869   -4.9375 H   0  0  0  0  0  0  0  0  0  0  0  0
    5.0255   -0.4975   -5.0550 H   0  0  0  0  0  0  0  0  0  0  0  0
    3.2228   -1.0791   -2.7236 H   0  0  0  0  0  0  0  0  0  0  0  0
    1.1259    0.1673   -2.3992 H   0  0  0  0  0  0  0  0  0  0  0  0
   -3.9271    0.8718   -2.2998 H   0  0  0  0  0  0  0  0  0  0  0  0
   -6.1225    1.3217   -2.7413 H   0  0  0  0  0  0  0  0  0  0  0  0
   -8.0383   -0.1870   -1.9012 H   0  0  0  0  0  0  0  0  0  0  0  0
   -8.5866   -5.1057   -3.5604 H   0  0  0  0  0  0  0  0  0  0  0  0
   -7.1863   -4.1809   -4.1718 H   0  0  0  0  0  0  0  0  0  0  0  0
   -7.9635   -4.9050   -1.2990 H   0  0  0  0  0  0  0  0  0  0  0  0
   -6.3594   -5.0417   -2.1285 H   0  0  0  0  0  0  0  0  0  0  0  0
   -6.9742   -3.4250   -1.5746 H   0  0  0  0  0  0  0  0  0  0  0  0
   -0.6677    0.3937   -8.6873 H   0  0  0  0  0  0  0  0  0  0  0  0
    1.2788    1.8190   -9.6240 H   0  0  0  0  0  0  0  0  0  0  0  0
    2.8407    3.8708   -6.5291 H   0  0  0  0  0  0  0  0  0  0  0  0
    3.4652    2.9252   -7.9395 H   0  0  0  0  0  0  0  0  0  0  0  0
    4.9087    4.8099   -8.6165 H   0  0  0  0  0  0  0  0  0  0  0  0
    4.2111    5.8567   -7.3098 H   0  0  0  0  0  0  0  0  0  0  0  0
    5.2116    4.4090   -6.8811 H   0  0  0  0  0  0  0  0  0  0  0  0
   -2.9326    1.1033   -9.3963 H   0  0  0  0  0  0  0  0  0  0  0  0
   -6.4973    0.3773  -10.4309 H   0  0  0  0  0  0  0  0  0  0  0  0
   -2.6350    0.1869  -16.7050 H   0  0  0  0  0  0  0  0  0  0  0  0
   -0.7174   -0.7510  -15.4423 H   0  0  0  0  0  0  0  0  0  0  0  0
   -0.9192   -1.2458  -13.0431 H   0  0  0  0  0  0  0  0  0  0  0  0
  1  2  2  3
  2  3  1  0
  3  4  2  0
  3  5  1  0
  5  6  2  0
  6  7  1  0
  6  8  1  0
  8  9  2  0
  9 10  1  0
 10 11  2  0
 11 12  1  0
 12 13  2  3
 13 14  1  0
 14 15  3  0
 13 16  1  0
 16 17  3  0
  1 18  1  0
 18 19  2  0
 19 20  1  0
 20 21  1  0
 21 22  2  0
 22 23  1  0
 23 24  2  0
 24 25  1  0
 25 26  1  0
 24 27  1  0
 27 28  2  0
 20 29  1  0
 29 30  2  0
 30 31  1  0
 31 32  2  0
 32 33  1  0
 33 34  1  0
 32 35  1  0
 35 36  2  0
 19 37  1  0
 37 38  1  0
 38 39  1  0
 39 40  2  0
 40 41  1  0
 41 42  1  0
 42 43  2  0
 43 44  1  0
 44 45  2  0
 45 46  1  0
 46 47  1  0
 45 48  1  0
 48 49  2  0
 41 50  1  0
 50 51  2  0
 51 52  1  0
 52 53  2  0
 53 54  1  0
 54 55  1  0
 53 56  1  0
 56 57  2  0
 40 58  1  0
 58 59  1  0
 39 60  1  0
 60 61  2  0
 61 62  1  0
 62 63  1  0
 63 64  2  0
 64 65  1  0
 65 66  2  0
 66 67  1  0
 67 68  1  0
 66 69  1  0
 69 70  2  0
 62 71  1  0
 71 72  2  0
 72 73  1  0
 73 74  2  0
 74 75  1  0
 75 76  1  0
 74 77  1  0
 77 78  2  0
 61 79  1  0
 79 80  1  0
 80 81  1  0
 81 82  2  0
 82 83  1  0
 83 84  1  0
 84 85  2  0
 85 86  1  0
 86 87  2  0
 87 88  1  0
 88 89  1  0
 87 90  1  0
 90 91  2  0
 83 92  1  0
 92 93  2  0
 93 94  1  0
 94 95  2  0
 95 96  1  0
 96 97  1  0
 95 98  1  0
 98 99  2  0
 82100  1  0
100101  1  0
 81102  1  0
102103  2  0
103104  1  0
104105  2  0
105106  1  0
106107  2  0
107108  1  0
108109  2  0
109110  1  0
110111  1  0
111112  1  0
109113  1  0
105114  1  0
114115  2  0
115116  1  0
116117  1  0
117118  2  0
118119  1  0
119120  2  0
120121  1  0
121122  1  0
122123  1  0
120124  1  0
116125  2  0
125126  1  0
115127  1  0
127128  2  0
128129  1  0
128130  1  0
130131  2  3
131132  1  0
132133  2  0
132134  1  0
134135  2  0
135136  1  0
135137  1  0
137138  2  0
138139  1  0
139140  2  0
140141  1  0
141142  2  3
142143  1  0
143144  3  0
142145  1  0
145146  3  0
 12  2  1  0
 59 18  1  0
101 60  1  0
126102  1  0
141131  1  0
 11  5  1  0
 28 21  1  0
 36 29  1  0
 58 37  2  0
 70 63  1  0
 78 71  1  0
100 79  2  0
125104  1  0
140134  1  0
 49 42  1  0
 57 50  1  0
 91 84  1  0
 99 92  1  0
113106  1  0
129114  1  0
124117  1  0
  1147  1  0
  8148  1  0
  9149  1  0
 10150  1  0
 22151  1  0
 23152  1  0
 26153  1  0
 26154  1  0
 26155  1  0
 27156  1  0
 28157  1  0
 30158  1  0
 31159  1  0
 34160  1  0
 34161  1  0
 34162  1  0
 35163  1  0
 36164  1  0
 43165  1  0
 44166  1  0
 47167  1  0
 47168  1  0
 47169  1  0
 48170  1  0
 49171  1  0
 51172  1  0
 52173  1  0
 55174  1  0
 55175  1  0
 55176  1  0
 56177  1  0
 57178  1  0
 64179  1  0
 65180  1  0
 68181  1  0
 68182  1  0
 68183  1  0
 69184  1  0
 70185  1  0
 72186  1  0
 73187  1  0
 76188  1  0
 76189  1  0
 76190  1  0
 77191  1  0
 78192  1  0
 85193  1  0
 86194  1  0
 89195  1  0
 89196  1  0
 89197  1  0
 90198  1  0
 91199  1  0
 93200  1  0
 94201  1  0
 97202  1  0
 97203  1  0
 97204  1  0
 98205  1  0
 99206  1  0
103207  1  0
107208  1  0
108209  1  0
111210  1  0
111211  1  0
112212  1  0
112213  1  0
112214  1  0
118215  1  0
119216  1  0
122217  1  0
122218  1  0
123219  1  0
123220  1  0
123221  1  0
127222  1  0
130223  1  0
137224  1  0
138225  1  0
139226  1  0
M  END

