
     RDKit          3D

164178  0  0  0  0  0  0  0  0999 V2000
    3.8427   -3.7114    5.6365 C   0  0  0  0  0  0  0  0  0  0  0  0
    4.2724   -3.1268    6.7734 C   0  0  0  0  0  0  0  0  0  0  0  0
    4.0070   -1.7322    7.1660 C   0  0  0  0  0  0  0  0  0  0  0  0
    3.2463   -0.9165    6.5776 O   0  0  0  0  0  0  0  0  0  0  0  0
    4.8012   -1.4249    8.3331 C   0  0  0  0  0  0  0  0  0  0  0  0
    4.9753   -0.1898    8.9619 C   0  0  0  0  0  0  0  0  0  0  0  0
    5.8909   -0.1035   10.0195 C   0  0  0  0  0  0  0  0  0  0  0  0
    6.0850    1.0831   10.6515 F   0  0  0  0  0  0  0  0  0  0  0  0
    6.6249   -1.2348   10.4122 C   0  0  0  0  0  0  0  0  0  0  0  0
    6.4452   -2.4653    9.7561 C   0  0  0  0  0  0  0  0  0  0  0  0
    5.4945   -2.5549    8.7268 C   0  0  0  0  0  0  0  0  0  0  0  0
    5.1395   -3.7062    7.8517 C   0  0  0  0  0  0  0  0  0  0  0  0
    5.3481   -5.0173    8.1333 C   0  0  0  0  0  0  0  0  0  0  0  0
    4.9489   -6.0870    7.2590 C   0  0  0  0  0  0  0  0  0  0  0  0
    4.6384   -6.9560    6.5591 N   0  0  0  0  0  0  0  0  0  0  0  0
    5.8576   -5.4499    9.4045 C   0  0  0  0  0  0  0  0  0  0  0  0
    6.2432   -5.8087   10.4349 N   0  0  0  0  0  0  0  0  0  0  0  0
    2.9830   -3.0134    4.6808 C   0  0  0  0  0  0  0  0  0  0  0  0
    3.4167   -2.0986    3.7092 C   0  0  0  0  0  0  0  0  0  0  0  0
    4.7735   -2.0232    3.2419 N   0  0  0  0  0  0  0  0  0  0  0  0
    5.4285   -0.7527    3.3793 C   0  0  0  0  0  0  0  0  0  0  0  0
    5.9929   -0.3757    4.6055 C   0  0  0  0  0  0  0  0  0  0  0  0
    6.5282    0.9033    4.7719 C   0  0  0  0  0  0  0  0  0  0  0  0
    6.5035    1.8175    3.7101 C   0  0  0  0  0  0  0  0  0  0  0  0
    7.0954    3.4916    3.9483 S   0  0  0  0  0  0  0  0  0  0  0  0
    5.4764    4.0897    4.5255 C   0  0  0  0  0  0  0  0  0  0  0  0
    5.9912    1.4292    2.4671 C   0  0  0  0  0  0  0  0  0  0  0  0
    5.4645    0.1445    2.2993 C   0  0  0  0  0  0  0  0  0  0  0  0
    5.2684   -3.0107    2.3015 C   0  0  0  0  0  0  0  0  0  0  0  0
    4.4318   -4.0375    1.8112 C   0  0  0  0  0  0  0  0  0  0  0  0
    4.8792   -4.9214    0.8290 C   0  0  0  0  0  0  0  0  0  0  0  0
    6.1760   -4.8088    0.3247 C   0  0  0  0  0  0  0  0  0  0  0  0
    6.7272   -5.9089   -0.9824 S   0  0  0  0  0  0  0  0  0  0  0  0
    5.9616   -4.9090   -2.3038 C   0  0  0  0  0  0  0  0  0  0  0  0
    7.0349   -3.8285    0.8266 C   0  0  0  0  0  0  0  0  0  0  0  0
    6.5909   -2.9410    1.8143 C   0  0  0  0  0  0  0  0  0  0  0  0
    2.3449   -1.6796    2.9268 C   0  0  0  0  0  0  0  0  0  0  0  0
    2.2676   -0.8690    1.4726 S   0  0  0  0  0  0  0  0  0  0  0  0
    0.6473   -1.2791    1.1697 C   0  0  0  0  0  0  0  0  0  0  0  0
    0.1680   -2.1018    2.2090 C   0  0  0  0  0  0  0  0  0  0  0  0
   -0.9657   -2.9795    2.0785 N   0  0  0  0  0  0  0  0  0  0  0  0
   -1.0201   -3.8480    0.9257 C   0  0  0  0  0  0  0  0  0  0  0  0
    0.1428   -4.5077    0.4799 C   0  0  0  0  0  0  0  0  0  0  0  0
    0.0893   -5.3747   -0.6099 C   0  0  0  0  0  0  0  0  0  0  0  0
   -1.1251   -5.6068   -1.2620 C   0  0  0  0  0  0  0  0  0  0  0  0
   -1.1936   -6.7523   -2.6359 S   0  0  0  0  0  0  0  0  0  0  0  0
   -1.3622   -8.2215   -1.5748 C   0  0  0  0  0  0  0  0  0  0  0  0
   -2.2848   -4.9471   -0.8363 C   0  0  0  0  0  0  0  0  0  0  0  0
   -2.2323   -4.0640    0.2502 C   0  0  0  0  0  0  0  0  0  0  0  0
   -1.8824   -3.1432    3.1868 C   0  0  0  0  0  0  0  0  0  0  0  0
   -2.1240   -2.0775    4.0743 C   0  0  0  0  0  0  0  0  0  0  0  0
   -3.0421   -2.2148    5.1197 C   0  0  0  0  0  0  0  0  0  0  0  0
   -3.7071   -3.4266    5.3162 C   0  0  0  0  0  0  0  0  0  0  0  0
   -4.9275   -3.5888    6.6214 S   0  0  0  0  0  0  0  0  0  0  0  0
   -3.6974   -3.9826    7.9045 C   0  0  0  0  0  0  0  0  0  0  0  0
   -3.4347   -4.5143    4.4771 C   0  0  0  0  0  0  0  0  0  0  0  0
   -2.5311   -4.3758    3.4197 C   0  0  0  0  0  0  0  0  0  0  0  0
    1.1495   -2.2748    3.1895 C   0  0  0  0  0  0  0  0  0  0  0  0
    1.3252   -3.3506    4.4682 S   0  0  0  0  0  0  0  0  0  0  0  0
   -0.0816   -0.7695   -0.0076 C   0  0  0  0  0  0  0  0  0  0  0  0
    0.5327   -0.8573   -1.2704 C   0  0  0  0  0  0  0  0  0  0  0  0
    1.5843   -1.6931   -1.4604 F   0  0  0  0  0  0  0  0  0  0  0  0
    0.1566    0.0042   -2.3054 C   0  0  0  0  0  0  0  0  0  0  0  0
    0.8813    0.0046   -3.4532 F   0  0  0  0  0  0  0  0  0  0  0  0
   -0.8455    0.9663   -2.0999 C   0  0  0  0  0  0  0  0  0  0  0  0
   -1.5839    0.9341   -0.9012 C   0  0  0  0  0  0  0  0  0  0  0  0
   -2.6250    1.7858   -0.7096 N   0  0  0  0  0  0  0  0  0  0  0  0
   -3.3090    1.8497    0.4611 C   0  0  0  0  0  0  0  0  0  0  0  0
   -4.4346    2.8482    0.5616 C   0  0  0  0  0  0  0  0  0  0  0  0
   -3.9016    4.2229    0.9507 C   0  0  0  0  0  0  0  0  0  0  0  0
   -2.8838    1.0414    1.5383 C   0  0  0  0  0  0  0  0  0  0  0  0
   -1.8455    0.1783    1.3452 N   0  0  0  0  0  0  0  0  0  0  0  0
   -1.1937    0.0818    0.1545 C   0  0  0  0  0  0  0  0  0  0  0  0
   -3.5603    1.0560    2.8847 C   0  0  0  0  0  0  0  0  0  0  0  0
   -4.6991    0.0412    2.9330 C   0  0  0  0  0  0  0  0  0  0  0  0
   -0.9098    2.1540   -2.9861 C   0  0  0  0  0  0  0  0  0  0  0  0
   -1.0640    2.0328   -4.3896 C   0  0  0  0  0  0  0  0  0  0  0  0
   -0.9934    3.2034   -5.1634 C   0  0  0  0  0  0  0  0  0  0  0  0
   -1.1103    3.3320   -6.5119 N   0  0  0  0  0  0  0  0  0  0  0  0
   -1.3415    2.2693   -7.4931 C   0  0  0  0  0  0  0  0  0  0  0  0
   -0.0185    1.7603   -8.0413 C   0  0  0  0  0  0  0  0  0  0  0  0
   -0.9113    4.6540   -6.7596 C   0  0  0  0  0  0  0  0  0  0  0  0
   -0.6923    5.3496   -5.5875 C   0  0  0  0  0  0  0  0  0  0  0  0
   -0.7560    4.4289   -4.5748 C   0  0  0  0  0  0  0  0  0  0  0  0
   -0.6132    4.5801   -3.2025 C   0  0  0  0  0  0  0  0  0  0  0  0
   -0.6934    3.4313   -2.4060 C   0  0  0  0  0  0  0  0  0  0  0  0
   -0.4525    6.7181   -5.5644 C   0  0  0  0  0  0  0  0  0  0  0  0
   -0.4624    7.4078   -6.7846 C   0  0  0  0  0  0  0  0  0  0  0  0
   -0.7234    6.7225   -7.9950 C   0  0  0  0  0  0  0  0  0  0  0  0
   -0.9257    5.3206   -7.9933 C   0  0  0  0  0  0  0  0  0  0  0  0
   -0.8554    7.4995   -9.2375 C   0  0  0  0  0  0  0  0  0  0  0  0
   -2.0530    7.8947   -9.7061 C   0  0  0  0  0  0  0  0  0  0  0  0
   -3.3485    7.6232   -9.0649 C   0  0  0  0  0  0  0  0  0  0  0  0
   -3.5702    6.7961   -8.1413 O   0  0  0  0  0  0  0  0  0  0  0  0
   -4.3373    8.5096   -9.6346 C   0  0  0  0  0  0  0  0  0  0  0  0
   -5.6499    8.7158   -9.2105 C   0  0  0  0  0  0  0  0  0  0  0  0
   -6.3893    9.7474   -9.8042 C   0  0  0  0  0  0  0  0  0  0  0  0
   -7.6570    9.9918   -9.3959 F   0  0  0  0  0  0  0  0  0  0  0  0
   -5.7956   10.5648  -10.7830 C   0  0  0  0  0  0  0  0  0  0  0  0
   -4.4720   10.3386  -11.1952 C   0  0  0  0  0  0  0  0  0  0  0  0
   -3.7523    9.2737  -10.6277 C   0  0  0  0  0  0  0  0  0  0  0  0
   -2.3316    8.8639  -10.8118 C   0  0  0  0  0  0  0  0  0  0  0  0
   -1.5481    9.1454  -11.8865 C   0  0  0  0  0  0  0  0  0  0  0  0
   -2.0539    9.8502  -13.0347 C   0  0  0  0  0  0  0  0  0  0  0  0
   -2.4566   10.4140  -13.9628 N   0  0  0  0  0  0  0  0  0  0  0  0
   -0.2108    8.6356  -12.0298 C   0  0  0  0  0  0  0  0  0  0  0  0
    0.8676    8.2347  -12.1517 N   0  0  0  0  0  0  0  0  0  0  0  0
    4.1175   -4.7126    5.3707 H   0  0  0  0  0  0  0  0  0  0  0  0
    4.4413    0.6874    8.6217 H   0  0  0  0  0  0  0  0  0  0  0  0
    7.3560   -1.1492   11.2084 H   0  0  0  0  0  0  0  0  0  0  0  0
    7.0721   -3.2966   10.0280 H   0  0  0  0  0  0  0  0  0  0  0  0
    6.0069   -1.0673    5.4317 H   0  0  0  0  0  0  0  0  0  0  0  0
    6.9313    1.1979    5.7296 H   0  0  0  0  0  0  0  0  0  0  0  0
    4.6762    3.8575    3.7925 H   0  0  0  0  0  0  0  0  0  0  0  0
    5.5332    5.1919    4.6741 H   0  0  0  0  0  0  0  0  0  0  0  0
    5.2344    3.6157    5.5003 H   0  0  0  0  0  0  0  0  0  0  0  0
    5.9740    2.1293    1.6397 H   0  0  0  0  0  0  0  0  0  0  0  0
    5.0581   -0.1420    1.3389 H   0  0  0  0  0  0  0  0  0  0  0  0
    3.4162   -4.1588    2.1634 H   0  0  0  0  0  0  0  0  0  0  0  0
    4.2081   -5.6746    0.4388 H   0  0  0  0  0  0  0  0  0  0  0  0
    6.3710   -3.8770   -2.2906 H   0  0  0  0  0  0  0  0  0  0  0  0
    4.8624   -4.8711   -2.1645 H   0  0  0  0  0  0  0  0  0  0  0  0
    6.1814   -5.3731   -3.2876 H   0  0  0  0  0  0  0  0  0  0  0  0
    8.0440   -3.7475    0.4411 H   0  0  0  0  0  0  0  0  0  0  0  0
    7.2775   -2.1869    2.1796 H   0  0  0  0  0  0  0  0  0  0  0  0
    1.0888   -4.3582    0.9848 H   0  0  0  0  0  0  0  0  0  0  0  0
    0.9882   -5.8822   -0.9351 H   0  0  0  0  0  0  0  0  0  0  0  0
   -0.4394   -8.3664   -0.9742 H   0  0  0  0  0  0  0  0  0  0  0  0
   -2.2339   -8.1045   -0.8959 H   0  0  0  0  0  0  0  0  0  0  0  0
   -1.5191   -9.1195   -2.2113 H   0  0  0  0  0  0  0  0  0  0  0  0
   -3.2283   -5.1189   -1.3417 H   0  0  0  0  0  0  0  0  0  0  0  0
   -3.1327   -3.5535    0.5689 H   0  0  0  0  0  0  0  0  0  0  0  0
   -1.6128   -1.1335    3.9482 H   0  0  0  0  0  0  0  0  0  0  0  0
   -3.2395   -1.3766    5.7768 H   0  0  0  0  0  0  0  0  0  0  0  0
   -3.1093   -4.8808    7.6159 H   0  0  0  0  0  0  0  0  0  0  0  0
   -4.2274   -4.1913    8.8571 H   0  0  0  0  0  0  0  0  0  0  0  0
   -3.0145   -3.1192    8.0559 H   0  0  0  0  0  0  0  0  0  0  0  0
   -3.9287   -5.4664    4.6380 H   0  0  0  0  0  0  0  0  0  0  0  0
   -2.3246   -5.2372    2.7943 H   0  0  0  0  0  0  0  0  0  0  0  0
   -4.9355    2.9267   -0.4234 H   0  0  0  0  0  0  0  0  0  0  0  0
   -5.2056    2.5232    1.2871 H   0  0  0  0  0  0  0  0  0  0  0  0
   -3.3894    4.1767    1.9389 H   0  0  0  0  0  0  0  0  0  0  0  0
   -3.1772    4.5847    0.1876 H   0  0  0  0  0  0  0  0  0  0  0  0
   -4.7411    4.9474    1.0143 H   0  0  0  0  0  0  0  0  0  0  0  0
   -2.8180    0.8109    3.6699 H   0  0  0  0  0  0  0  0  0  0  0  0
   -3.9443    2.0668    3.1344 H   0  0  0  0  0  0  0  0  0  0  0  0
   -4.3433   -0.9599    2.6140 H   0  0  0  0  0  0  0  0  0  0  0  0
   -5.5320    0.3602    2.2728 H   0  0  0  0  0  0  0  0  0  0  0  0
   -5.0816   -0.0364    3.9709 H   0  0  0  0  0  0  0  0  0  0  0  0
   -1.2040    1.0643   -4.8467 H   0  0  0  0  0  0  0  0  0  0  0  0
   -1.9019    1.4313   -7.0307 H   0  0  0  0  0  0  0  0  0  0  0  0
   -1.9675    2.6509   -8.3294 H   0  0  0  0  0  0  0  0  0  0  0  0
   -0.2069    0.9160   -8.7389 H   0  0  0  0  0  0  0  0  0  0  0  0
    0.5054    2.5687   -8.5970 H   0  0  0  0  0  0  0  0  0  0  0  0
    0.6292    1.3972   -7.2149 H   0  0  0  0  0  0  0  0  0  0  0  0
   -0.4284    5.5519   -2.7598 H   0  0  0  0  0  0  0  0  0  0  0  0
   -0.5494    3.5338   -1.3359 H   0  0  0  0  0  0  0  0  0  0  0  0
   -0.2688    7.2384   -4.6335 H   0  0  0  0  0  0  0  0  0  0  0  0
   -0.3052    8.4804   -6.7858 H   0  0  0  0  0  0  0  0  0  0  0  0
   -1.1105    4.7864   -8.9188 H   0  0  0  0  0  0  0  0  0  0  0  0
    0.0585    7.8939   -9.6491 H   0  0  0  0  0  0  0  0  0  0  0  0
   -6.0762    8.1155   -8.4150 H   0  0  0  0  0  0  0  0  0  0  0  0
   -6.3589   11.3858  -11.2024 H   0  0  0  0  0  0  0  0  0  0  0  0
   -4.0211   11.0233  -11.8957 H   0  0  0  0  0  0  0  0  0  0  0  0
  1  2  2  3
  2  3  1  0
  3  4  2  0
  3  5  1  0
  5  6  2  0
  6  7  1  0
  7  8  1  0
  7  9  2  0
  9 10  1  0
 10 11  2  0
 11 12  1  0
 12 13  2  3
 13 14  1  0
 14 15  3  0
 13 16  1  0
 16 17  3  0
  1 18  1  0
 18 19  2  0
 19 20  1  0
 20 21  1  0
 21 22  2  0
 22 23  1  0
 23 24  2  0
 24 25  1  0
 25 26  1  0
 24 27  1  0
 27 28  2  0
 20 29  1  0
 29 30  2  0
 30 31  1  0
 31 32  2  0
 32 33  1  0
 33 34  1  0
 32 35  1  0
 35 36  2  0
 19 37  1  0
 37 38  1  0
 38 39  1  0
 39 40  2  0
 40 41  1  0
 41 42  1  0
 42 43  2  0
 43 44  1  0
 44 45  2  0
 45 46  1  0
 46 47  1  0
 45 48  1  0
 48 49  2  0
 41 50  1  0
 50 51  2  0
 51 52  1  0
 52 53  2  0
 53 54  1  0
 54 55  1  0
 53 56  1  0
 56 57  2  0
 40 58  1  0
 58 59  1  0
 39 60  1  0
 60 61  2  0
 61 62  1  0
 61 63  1  0
 63 64  1  0
 63 65  2  0
 65 66  1  0
 66 67  2  0
 67 68  1  0
 68 69  1  0
 69 70  1  0
 68 71  2  0
 71 72  1  0
 72 73  2  0
 71 74  1  0
 74 75  1  0
 65 76  1  0
 76 77  2  0
 77 78  1  0
 78 79  1  0
 79 80  1  0
 80 81  1  0
 79 82  1  0
 82 83  2  0
 83 84  1  0
 84 85  1  0
 85 86  2  0
 83 87  1  0
 87 88  2  0
 88 89  1  0
 89 90  2  0
 89 91  1  0
 91 92  2  3
 92 93  1  0
 93 94  2  0
 93 95  1  0
 95 96  2  0
 96 97  1  0
 97 98  1  0
 97 99  2  0
 99100  1  0
100101  2  0
101102  1  0
102103  2  3
103104  1  0
104105  3  0
103106  1  0
106107  3  0
 12  2  1  0
 59 18  1  0
 73 60  1  0
 86 76  1  0
102 92  1  0
 11  5  1  0
 28 21  1  0
 36 29  1  0
 58 37  2  0
 73 66  1  0
 84 78  2  0
101 95  1  0
 49 42  1  0
 57 50  1  0
 90 82  1  0
  1108  1  0
  6109  1  0
  9110  1  0
 10111  1  0
 22112  1  0
 23113  1  0
 26114  1  0
 26115  1  0
 26116  1  0
 27117  1  0
 28118  1  0
 30119  1  0
 31120  1  0
 34121  1  0
 34122  1  0
 34123  1  0
 35124  1  0
 36125  1  0
 43126  1  0
 44127  1  0
 47128  1  0
 47129  1  0
 47130  1  0
 48131  1  0
 49132  1  0
 51133  1  0
 52134  1  0
 55135  1  0
 55136  1  0
 55137  1  0
 56138  1  0
 57139  1  0
 69140  1  0
 69141  1  0
 70142  1  0
 70143  1  0
 70144  1  0
 74145  1  0
 74146  1  0
 75147  1  0
 75148  1  0
 75149  1  0
 77150  1  0
 80151  1  0
 80152  1  0
 81153  1  0
 81154  1  0
 81155  1  0
 85156  1  0
 86157  1  0
 87158  1  0
 88159  1  0
 90160  1  0
 91161  1  0
 96162  1  0
 99163  1  0
100164  1  0
M  END

