
     RDKit          3D

193210  0  0  0  0  0  0  0  0999 V2000
    3.2187    4.4331    2.9976 C   0  0  0  0  0  0  0  0  0  0  0  0
    4.4450    4.8995    2.6917 C   0  0  0  0  0  0  0  0  0  0  0  0
    4.7500    5.9436    1.7329 C   0  0  0  0  0  0  0  0  0  0  0  0
    3.9171    6.5189    0.9834 O   0  0  0  0  0  0  0  0  0  0  0  0
    6.1250    6.3398    1.9293 C   0  0  0  0  0  0  0  0  0  0  0  0
    6.8504    7.3317    1.2649 C   0  0  0  0  0  0  0  0  0  0  0  0
    8.1851    7.5440    1.6273 C   0  0  0  0  0  0  0  0  0  0  0  0
    8.9357    8.4640    0.9764 F   0  0  0  0  0  0  0  0  0  0  0  0
    8.7758    6.7563    2.6362 C   0  0  0  0  0  0  0  0  0  0  0  0
    8.0396    5.7709    3.2965 C   0  0  0  0  0  0  0  0  0  0  0  0
    6.6975    5.5535    2.9288 C   0  0  0  0  0  0  0  0  0  0  0  0
    5.6937    4.5616    3.4194 C   0  0  0  0  0  0  0  0  0  0  0  0
    5.9577    3.4040    4.0657 C   0  0  0  0  0  0  0  0  0  0  0  0
    5.0224    2.2985    4.1093 C   0  0  0  0  0  0  0  0  0  0  0  0
    4.2419    1.4392    4.0828 N   0  0  0  0  0  0  0  0  0  0  0  0
    7.2042    3.1315    4.7192 C   0  0  0  0  0  0  0  0  0  0  0  0
    8.2101    2.9129    5.2579 N   0  0  0  0  0  0  0  0  0  0  0  0
    2.0733    4.3382    2.0762 C   0  0  0  0  0  0  0  0  0  0  0  0
    2.0972    3.7416    0.7959 C   0  0  0  0  0  0  0  0  0  0  0  0
    3.2816    3.4544    0.0200 N   0  0  0  0  0  0  0  0  0  0  0  0
    4.0788    2.2984    0.3744 C   0  0  0  0  0  0  0  0  0  0  0  0
    3.5745    0.9966    0.1671 C   0  0  0  0  0  0  0  0  0  0  0  0
    4.3704   -0.1192    0.4160 C   0  0  0  0  0  0  0  0  0  0  0  0
    5.6916    0.0376    0.8796 C   0  0  0  0  0  0  0  0  0  0  0  0
    6.7455   -1.3963    1.1037 S   0  0  0  0  0  0  0  0  0  0  0  0
    6.4024   -1.5814    2.8924 C   0  0  0  0  0  0  0  0  0  0  0  0
    6.2000    1.3152    1.0620 C   0  0  0  0  0  0  0  0  0  0  0  0
    5.4001    2.4389    0.8121 C   0  0  0  0  0  0  0  0  0  0  0  0
    3.5196    4.1599   -1.2296 C   0  0  0  0  0  0  0  0  0  0  0  0
    4.8214    4.2451   -1.7855 C   0  0  0  0  0  0  0  0  0  0  0  0
    5.0401    4.8165   -3.0359 C   0  0  0  0  0  0  0  0  0  0  0  0
    3.9555    5.2879   -3.7929 C   0  0  0  0  0  0  0  0  0  0  0  0
    4.2291    5.9773   -5.4224 S   0  0  0  0  0  0  0  0  0  0  0  0
    4.1804    4.3572   -6.2627 C   0  0  0  0  0  0  0  0  0  0  0  0
    2.6830    5.2666   -3.2440 C   0  0  0  0  0  0  0  0  0  0  0  0
    2.4579    4.7146   -1.9737 C   0  0  0  0  0  0  0  0  0  0  0  0
    0.8284    3.2822    0.4543 C   0  0  0  0  0  0  0  0  0  0  0  0
    0.3349    2.1789   -0.6876 S   0  0  0  0  0  0  0  0  0  0  0  0
   -1.2027    1.9182   -0.0019 C   0  0  0  0  0  0  0  0  0  0  0  0
   -1.3478    2.7575    1.1440 C   0  0  0  0  0  0  0  0  0  0  0  0
   -2.5966    2.9698    1.9095 N   0  0  0  0  0  0  0  0  0  0  0  0
   -3.7335    2.1117    1.8304 C   0  0  0  0  0  0  0  0  0  0  0  0
   -4.9663    2.6092    1.3804 C   0  0  0  0  0  0  0  0  0  0  0  0
   -6.1276    1.8474    1.5286 C   0  0  0  0  0  0  0  0  0  0  0  0
   -6.0737    0.5834    2.1310 C   0  0  0  0  0  0  0  0  0  0  0  0
   -7.5723   -0.3345    2.4781 S   0  0  0  0  0  0  0  0  0  0  0  0
   -7.7651   -0.8900    0.7346 C   0  0  0  0  0  0  0  0  0  0  0  0
   -4.8437    0.0760    2.5672 C   0  0  0  0  0  0  0  0  0  0  0  0
   -3.6895    0.8456    2.4361 C   0  0  0  0  0  0  0  0  0  0  0  0
   -2.7297    4.1023    2.8092 C   0  0  0  0  0  0  0  0  0  0  0  0
   -3.1234    3.9084    4.1438 C   0  0  0  0  0  0  0  0  0  0  0  0
   -3.2521    4.9839    5.0282 C   0  0  0  0  0  0  0  0  0  0  0  0
   -3.0083    6.2871    4.5860 C   0  0  0  0  0  0  0  0  0  0  0  0
   -3.0618    7.6701    5.7204 S   0  0  0  0  0  0  0  0  0  0  0  0
   -4.8459    7.4938    6.0979 C   0  0  0  0  0  0  0  0  0  0  0  0
   -2.6610    6.5088    3.2452 C   0  0  0  0  0  0  0  0  0  0  0  0
   -2.5255    5.4268    2.3601 C   0  0  0  0  0  0  0  0  0  0  0  0
   -0.1742    3.4910    1.3583 C   0  0  0  0  0  0  0  0  0  0  0  0
    0.4887    4.2504    2.7005 S   0  0  0  0  0  0  0  0  0  0  0  0
   -1.7525    0.5575   -0.1195 C   0  0  0  0  0  0  0  0  0  0  0  0
   -2.5353   -0.0303   -1.1563 C   0  0  0  0  0  0  0  0  0  0  0  0
   -3.0430    0.7548   -2.2952 N   0  0  0  0  0  0  0  0  0  0  0  0
   -2.4606    2.0086   -2.6689 C   0  0  0  0  0  0  0  0  0  0  0  0
   -1.5890    2.0846   -3.7908 C   0  0  0  0  0  0  0  0  0  0  0  0
   -1.0651    3.3253   -4.1726 C   0  0  0  0  0  0  0  0  0  0  0  0
   -1.4682    4.5067   -3.5073 C   0  0  0  0  0  0  0  0  0  0  0  0
   -0.8153    6.1589   -3.9199 S   0  0  0  0  0  0  0  0  0  0  0  0
   -0.6877    5.9845   -5.7368 C   0  0  0  0  0  0  0  0  0  0  0  0
   -2.4150    4.4215   -2.4666 C   0  0  0  0  0  0  0  0  0  0  0  0
   -2.8962    3.1792   -2.0469 C   0  0  0  0  0  0  0  0  0  0  0  0
   -3.9855    0.2891   -3.2952 C   0  0  0  0  0  0  0  0  0  0  0  0
   -3.6593   -0.7814   -4.1645 C   0  0  0  0  0  0  0  0  0  0  0  0
   -4.3308   -0.9306   -5.3889 C   0  0  0  0  0  0  0  0  0  0  0  0
   -5.2925    0.0116   -5.7886 C   0  0  0  0  0  0  0  0  0  0  0  0
   -5.9227   -0.0039   -7.4495 S   0  0  0  0  0  0  0  0  0  0  0  0
   -4.4879    0.8530   -8.1795 C   0  0  0  0  0  0  0  0  0  0  0  0
   -5.6529    1.0431   -4.9059 C   0  0  0  0  0  0  0  0  0  0  0  0
   -5.0674    1.1349   -3.6543 C   0  0  0  0  0  0  0  0  0  0  0  0
   -2.6702   -1.4304   -0.9047 C   0  0  0  0  0  0  0  0  0  0  0  0
   -3.0921   -2.8126   -1.7899 S   0  0  0  0  0  0  0  0  0  0  0  0
   -2.3173   -3.9607   -0.7741 C   0  0  0  0  0  0  0  0  0  0  0  0
   -1.7525   -3.2813    0.3343 C   0  0  0  0  0  0  0  0  0  0  0  0
   -1.4813   -3.9187    1.6103 N   0  0  0  0  0  0  0  0  0  0  0  0
   -2.2800   -3.5134    2.7374 C   0  0  0  0  0  0  0  0  0  0  0  0
   -3.2664   -4.3770    3.2548 C   0  0  0  0  0  0  0  0  0  0  0  0
   -3.8724   -4.1121    4.5011 C   0  0  0  0  0  0  0  0  0  0  0  0
   -3.4656   -2.9978    5.2740 C   0  0  0  0  0  0  0  0  0  0  0  0
   -4.0871   -2.8199    6.9704 S   0  0  0  0  0  0  0  0  0  0  0  0
   -3.6282   -1.0763    7.3446 C   0  0  0  0  0  0  0  0  0  0  0  0
   -2.4352   -2.1717    4.7586 C   0  0  0  0  0  0  0  0  0  0  0  0
   -1.8145   -2.4426    3.5311 C   0  0  0  0  0  0  0  0  0  0  0  0
   -0.2067   -4.5171    1.9677 C   0  0  0  0  0  0  0  0  0  0  0  0
   -0.1476   -5.8056    2.5615 C   0  0  0  0  0  0  0  0  0  0  0  0
    1.0401   -6.2026    3.1704 C   0  0  0  0  0  0  0  0  0  0  0  0
    2.2760   -5.6201    2.7489 C   0  0  0  0  0  0  0  0  0  0  0  0
    3.7685   -5.9802    3.6835 S   0  0  0  0  0  0  0  0  0  0  0  0
    4.7469   -6.7581    2.3433 C   0  0  0  0  0  0  0  0  0  0  0  0
    2.2368   -4.4458    1.9591 C   0  0  0  0  0  0  0  0  0  0  0  0
    0.9992   -3.8101    1.7162 C   0  0  0  0  0  0  0  0  0  0  0  0
   -1.9292   -1.8809    0.1945 C   0  0  0  0  0  0  0  0  0  0  0  0
   -1.0969   -0.6275    0.8915 S   0  0  0  0  0  0  0  0  0  0  0  0
   -1.8789   -5.3079   -1.2347 C   0  0  0  0  0  0  0  0  0  0  0  0
   -0.5788   -5.7435   -0.9193 C   0  0  0  0  0  0  0  0  0  0  0  0
   -0.1088   -6.9855   -1.3441 C   0  0  0  0  0  0  0  0  0  0  0  0
    1.1674   -7.3307   -1.0344 F   0  0  0  0  0  0  0  0  0  0  0  0
   -0.8272   -7.7512   -2.2582 C   0  0  0  0  0  0  0  0  0  0  0  0
   -2.1411   -7.3728   -2.5659 C   0  0  0  0  0  0  0  0  0  0  0  0
   -2.6716   -6.1401   -2.0430 C   0  0  0  0  0  0  0  0  0  0  0  0
   -3.9132   -5.7884   -2.4483 N   0  0  0  0  0  0  0  0  0  0  0  0
   -4.2565   -7.0611   -3.4492 S   0  0  0  0  0  0  0  0  0  0  0  0
   -2.9330   -8.0682   -3.4254 N   0  0  0  0  0  0  0  0  0  0  0  0
   -0.1147   -8.7846   -3.0430 C   0  0  0  0  0  0  0  0  0  0  0  0
    0.8681   -8.4472   -3.8992 C   0  0  0  0  0  0  0  0  0  0  0  0
    1.1961   -7.0721   -4.3302 C   0  0  0  0  0  0  0  0  0  0  0  0
    0.8334   -6.0015   -3.7799 O   0  0  0  0  0  0  0  0  0  0  0  0
    1.9491   -7.1345   -5.5508 C   0  0  0  0  0  0  0  0  0  0  0  0
    2.4383   -6.0649   -6.3108 C   0  0  0  0  0  0  0  0  0  0  0  0
    3.1412   -6.3558   -7.4860 C   0  0  0  0  0  0  0  0  0  0  0  0
    3.6305   -5.3344   -8.2368 F   0  0  0  0  0  0  0  0  0  0  0  0
    3.3399   -7.6867   -7.8911 C   0  0  0  0  0  0  0  0  0  0  0  0
    2.8446   -8.7525   -7.1044 C   0  0  0  0  0  0  0  0  0  0  0  0
    2.1385   -8.4569   -5.9204 C   0  0  0  0  0  0  0  0  0  0  0  0
    1.5543   -9.3537   -4.8725 C   0  0  0  0  0  0  0  0  0  0  0  0
    1.7476  -10.6916   -4.7354 C   0  0  0  0  0  0  0  0  0  0  0  0
    1.5186  -11.3733   -3.4881 C   0  0  0  0  0  0  0  0  0  0  0  0
    1.3853  -11.9234   -2.4753 N   0  0  0  0  0  0  0  0  0  0  0  0
    2.2518  -11.5105   -5.7927 C   0  0  0  0  0  0  0  0  0  0  0  0
    2.6432  -12.2035   -6.6428 N   0  0  0  0  0  0  0  0  0  0  0  0
    3.0728    3.9428    3.9592 H   0  0  0  0  0  0  0  0  0  0  0  0
    6.4014    7.9124    0.4772 H   0  0  0  0  0  0  0  0  0  0  0  0
    9.8147    6.8967    2.8996 H   0  0  0  0  0  0  0  0  0  0  0  0
    8.5043    5.2229    4.0866 H   0  0  0  0  0  0  0  0  0  0  0  0
    2.5815    0.8410   -0.2239 H   0  0  0  0  0  0  0  0  0  0  0  0
    3.9852   -1.1181    0.2483 H   0  0  0  0  0  0  0  0  0  0  0  0
    5.5138   -1.0177    3.2155 H   0  0  0  0  0  0  0  0  0  0  0  0
    6.2232   -2.6611    3.1063 H   0  0  0  0  0  0  0  0  0  0  0  0
    7.2918   -1.2460    3.4720 H   0  0  0  0  0  0  0  0  0  0  0  0
    7.2212    1.4687    1.3902 H   0  0  0  0  0  0  0  0  0  0  0  0
    5.8342    3.4194    0.9276 H   0  0  0  0  0  0  0  0  0  0  0  0
    5.6894    3.8906   -1.2538 H   0  0  0  0  0  0  0  0  0  0  0  0
    6.0281    4.8442   -3.4456 H   0  0  0  0  0  0  0  0  0  0  0  0
    4.1642    4.5237   -7.3617 H   0  0  0  0  0  0  0  0  0  0  0  0
    5.1035    3.7725   -6.0130 H   0  0  0  0  0  0  0  0  0  0  0  0
    3.2781    3.7796   -5.9713 H   0  0  0  0  0  0  0  0  0  0  0  0
    1.8491    5.6538   -3.8060 H   0  0  0  0  0  0  0  0  0  0  0  0
    1.4396    4.7224   -1.6038 H   0  0  0  0  0  0  0  0  0  0  0  0
   -5.0477    3.6293    1.0046 H   0  0  0  0  0  0  0  0  0  0  0  0
   -7.0668    2.2203    1.1795 H   0  0  0  0  0  0  0  0  0  0  0  0
   -7.0385   -1.7253    0.5355 H   0  0  0  0  0  0  0  0  0  0  0  0
   -7.5647   -0.0466    0.0268 H   0  0  0  0  0  0  0  0  0  0  0  0
   -8.7884   -1.2562    0.5834 H   0  0  0  0  0  0  0  0  0  0  0  0
   -4.7854   -0.8791    3.0705 H   0  0  0  0  0  0  0  0  0  0  0  0
   -2.7523    0.4994    2.8827 H   0  0  0  0  0  0  0  0  0  0  0  0
   -3.3296    2.9026    4.5066 H   0  0  0  0  0  0  0  0  0  0  0  0
   -3.5177    4.8040    6.0521 H   0  0  0  0  0  0  0  0  0  0  0  0
   -5.4170    7.2975    5.1779 H   0  0  0  0  0  0  0  0  0  0  0  0
   -5.2102    8.4361    6.5694 H   0  0  0  0  0  0  0  0  0  0  0  0
   -4.9778    6.6648    6.8298 H   0  0  0  0  0  0  0  0  0  0  0  0
   -2.4752    7.5121    2.8906 H   0  0  0  0  0  0  0  0  0  0  0  0
   -2.2377    5.6143    1.3334 H   0  0  0  0  0  0  0  0  0  0  0  0
   -1.3303    1.1914   -4.3850 H   0  0  0  0  0  0  0  0  0  0  0  0
   -0.3406    3.3688   -4.9749 H   0  0  0  0  0  0  0  0  0  0  0  0
   -1.2469    5.1202   -6.1727 H   0  0  0  0  0  0  0  0  0  0  0  0
    0.4065    5.8789   -5.9508 H   0  0  0  0  0  0  0  0  0  0  0  0
   -1.0275    6.9306   -6.1978 H   0  0  0  0  0  0  0  0  0  0  0  0
   -2.7525    5.3062   -1.9762 H   0  0  0  0  0  0  0  0  0  0  0  0
   -3.6041    3.1129   -1.2285 H   0  0  0  0  0  0  0  0  0  0  0  0
   -2.8118   -1.4158   -3.9831 H   0  0  0  0  0  0  0  0  0  0  0  0
   -4.0010   -1.6884   -6.0899 H   0  0  0  0  0  0  0  0  0  0  0  0
   -4.2983    1.7967   -7.6275 H   0  0  0  0  0  0  0  0  0  0  0  0
   -3.6051    0.1548   -8.1026 H   0  0  0  0  0  0  0  0  0  0  0  0
   -4.7099    1.0629   -9.2567 H   0  0  0  0  0  0  0  0  0  0  0  0
   -6.4051    1.7576   -5.2006 H   0  0  0  0  0  0  0  0  0  0  0  0
   -5.2931    1.9681   -2.9872 H   0  0  0  0  0  0  0  0  0  0  0  0
   -3.6322   -5.1892    2.6454 H   0  0  0  0  0  0  0  0  0  0  0  0
   -4.6990   -4.7298    4.8082 H   0  0  0  0  0  0  0  0  0  0  0  0
   -2.5644   -1.0174    7.6380 H   0  0  0  0  0  0  0  0  0  0  0  0
   -3.8160   -0.3908    6.4805 H   0  0  0  0  0  0  0  0  0  0  0  0
   -4.2249   -0.7236    8.2164 H   0  0  0  0  0  0  0  0  0  0  0  0
   -1.9648   -1.4078    5.3659 H   0  0  0  0  0  0  0  0  0  0  0  0
   -0.8698   -1.9659    3.3044 H   0  0  0  0  0  0  0  0  0  0  0  0
   -1.0783   -6.2376    2.9424 H   0  0  0  0  0  0  0  0  0  0  0  0
    1.0239   -7.0936    3.8139 H   0  0  0  0  0  0  0  0  0  0  0  0
    4.7217   -7.8724    2.4486 H   0  0  0  0  0  0  0  0  0  0  0  0
    5.8042   -6.4203    2.4448 H   0  0  0  0  0  0  0  0  0  0  0  0
    4.3630   -6.4683    1.3238 H   0  0  0  0  0  0  0  0  0  0  0  0
    3.0866   -4.1621    1.2673 H   0  0  0  0  0  0  0  0  0  0  0  0
    1.0098   -2.9536    1.0311 H   0  0  0  0  0  0  0  0  0  0  0  0
    0.1355   -5.0777   -0.4649 H   0  0  0  0  0  0  0  0  0  0  0  0
   -0.4794   -9.7945   -2.9949 H   0  0  0  0  0  0  0  0  0  0  0  0
    2.2604   -5.0478   -5.9940 H   0  0  0  0  0  0  0  0  0  0  0  0
    3.8606   -7.8908   -8.8043 H   0  0  0  0  0  0  0  0  0  0  0  0
    3.0185   -9.7565   -7.4464 H   0  0  0  0  0  0  0  0  0  0  0  0
  1  2  2  3
  2  3  1  0
  3  4  2  0
  3  5  1  0
  5  6  2  0
  6  7  1  0
  7  8  1  0
  7  9  2  0
  9 10  1  0
 10 11  2  0
 11 12  1  0
 12 13  2  3
 13 14  1  0
 14 15  3  0
 13 16  1  0
 16 17  3  0
  1 18  1  0
 18 19  2  0
 19 20  1  0
 20 21  1  0
 21 22  2  0
 22 23  1  0
 23 24  2  0
 24 25  1  0
 25 26  1  0
 24 27  1  0
 27 28  2  0
 20 29  1  0
 29 30  2  0
 30 31  1  0
 31 32  2  0
 32 33  1  0
 33 34  1  0
 32 35  1  0
 35 36  2  0
 19 37  1  0
 37 38  1  0
 38 39  1  0
 39 40  2  0
 40 41  1  0
 41 42  1  0
 42 43  2  0
 43 44  1  0
 44 45  2  0
 45 46  1  0
 46 47  1  0
 45 48  1  0
 48 49  2  0
 41 50  1  0
 50 51  2  0
 51 52  1  0
 52 53  2  0
 53 54  1  0
 54 55  1  0
 53 56  1  0
 56 57  2  0
 40 58  1  0
 58 59  1  0
 39 60  1  0
 60 61  2  0
 61 62  1  0
 62 63  1  0
 63 64  2  0
 64 65  1  0
 65 66  2  0
 66 67  1  0
 67 68  1  0
 66 69  1  0
 69 70  2  0
 62 71  1  0
 71 72  2  0
 72 73  1  0
 73 74  2  0
 74 75  1  0
 75 76  1  0
 74 77  1  0
 77 78  2  0
 61 79  1  0
 79 80  1  0
 80 81  1  0
 81 82  2  0
 82 83  1  0
 83 84  1  0
 84 85  2  0
 85 86  1  0
 86 87  2  0
 87 88  1  0
 88 89  1  0
 87 90  1  0
 90 91  2  0
 83 92  1  0
 92 93  2  0
 93 94  1  0
 94 95  2  0
 95 96  1  0
 96 97  1  0
 95 98  1  0
 98 99  2  0
 82100  1  0
100101  1  0
 81102  1  0
102103  2  0
103104  1  0
104105  1  0
104106  2  0
106107  1  0
107108  1  0
108109  2  0
109110  1  0
110111  1  0
106112  1  0
112113  2  3
113114  1  0
114115  2  0
114116  1  0
116117  2  0
117118  1  0
118119  1  0
118120  2  0
120121  1  0
121122  2  0
122123  1  0
123124  2  3
124125  1  0
125126  3  0
124127  1  0
127128  3  0
 12  2  1  0
 59 18  1  0
101 60  1  0
108102  1  0
123113  1  0
 11  5  1  0
 28 21  1  0
 36 29  1  0
 58 37  2  0
 70 63  1  0
 78 71  1  0
100 79  2  0
111107  2  0
122116  1  0
 49 42  1  0
 57 50  1  0
 91 84  1  0
 99 92  1  0
  1129  1  0
  6130  1  0
  9131  1  0
 10132  1  0
 22133  1  0
 23134  1  0
 26135  1  0
 26136  1  0
 26137  1  0
 27138  1  0
 28139  1  0
 30140  1  0
 31141  1  0
 34142  1  0
 34143  1  0
 34144  1  0
 35145  1  0
 36146  1  0
 43147  1  0
 44148  1  0
 47149  1  0
 47150  1  0
 47151  1  0
 48152  1  0
 49153  1  0
 51154  1  0
 52155  1  0
 55156  1  0
 55157  1  0
 55158  1  0
 56159  1  0
 57160  1  0
 64161  1  0
 65162  1  0
 68163  1  0
 68164  1  0
 68165  1  0
 69166  1  0
 70167  1  0
 72168  1  0
 73169  1  0
 76170  1  0
 76171  1  0
 76172  1  0
 77173  1  0
 78174  1  0
 85175  1  0
 86176  1  0
 89177  1  0
 89178  1  0
 89179  1  0
 90180  1  0
 91181  1  0
 93182  1  0
 94183  1  0
 97184  1  0
 97185  1  0
 97186  1  0
 98187  1  0
 99188  1  0
103189  1  0
112190  1  0
117191  1  0
120192  1  0
121193  1  0
M  END

