
     RDKit          3D

254274  0  0  0  0  0  0  0  0999 V2000
   -2.0904    8.7624    4.1582 C   0  0  0  0  0  0  0  0  0  0  0  0
   -2.1939    9.1356    2.8682 C   0  0  0  0  0  0  0  0  0  0  0  0
   -2.5434    8.2384    1.7496 C   0  0  0  0  0  0  0  0  0  0  0  0
   -3.1756    7.1484    1.8316 O   0  0  0  0  0  0  0  0  0  0  0  0
   -2.0683    8.8257    0.5203 C   0  0  0  0  0  0  0  0  0  0  0  0
   -2.0540    8.2567   -0.7513 C   0  0  0  0  0  0  0  0  0  0  0  0
   -1.4300    8.9659   -1.7891 C   0  0  0  0  0  0  0  0  0  0  0  0
   -1.3909    8.4414   -3.0363 F   0  0  0  0  0  0  0  0  0  0  0  0
   -0.8295   10.2091   -1.5328 C   0  0  0  0  0  0  0  0  0  0  0  0
   -0.8576   10.7658   -0.2405 C   0  0  0  0  0  0  0  0  0  0  0  0
   -1.5033   10.0665    0.7899 C   0  0  0  0  0  0  0  0  0  0  0  0
   -1.6618   10.3863    2.2415 C   0  0  0  0  0  0  0  0  0  0  0  0
   -1.5249   11.5998    2.8332 C   0  0  0  0  0  0  0  0  0  0  0  0
   -1.1015   12.7749    2.1186 C   0  0  0  0  0  0  0  0  0  0  0  0
   -0.7601   13.7287    1.5534 N   0  0  0  0  0  0  0  0  0  0  0  0
   -1.9299   11.8431    4.1945 C   0  0  0  0  0  0  0  0  0  0  0  0
   -2.2707   12.0402    5.2826 N   0  0  0  0  0  0  0  0  0  0  0  0
   -2.2282    7.3579    4.5606 C   0  0  0  0  0  0  0  0  0  0  0  0
   -1.2403    6.4178    4.3022 C   0  0  0  0  0  0  0  0  0  0  0  0
   -1.7229    5.1041    4.2613 C   0  0  0  0  0  0  0  0  0  0  0  0
   -0.9865    3.9712    3.8569 C   0  0  0  0  0  0  0  0  0  0  0  0
    0.3888    4.0793    3.3120 C   0  0  0  0  0  0  0  0  0  0  0  0
    0.7979    4.9752    2.3279 C   0  0  0  0  0  0  0  0  0  0  0  0
    2.1372    4.8147    1.9475 C   0  0  0  0  0  0  0  0  0  0  0  0
    2.8553    5.8355    0.7133 Cl  0  0  0  0  0  0  0  0  0  0  0  0
    2.7970    3.7871    2.6243 C   0  0  0  0  0  0  0  0  0  0  0  0
    4.5338    3.1794    2.4059 Si  0  0  0  0  0  4  0  0  0  0  0  0
    5.6879    4.5382    1.7901 C   0  0  0  0  0  0  0  0  0  0  0  0
    7.1473    4.1084    1.8367 C   0  0  0  0  0  0  0  0  0  0  0  0
    5.1348    2.5527    4.0719 C   0  0  0  0  0  0  0  0  0  0  0  0
    5.1098    3.6484    5.1313 C   0  0  0  0  0  0  0  0  0  0  0  0
    4.5158    1.7361    1.2026 C   0  0  0  0  0  0  0  0  0  0  0  0
    4.3459    2.1919   -0.2413 C   0  0  0  0  0  0  0  0  0  0  0  0
    1.6848    3.0623    3.6647 S   0  0  0  0  0  0  0  0  0  0  0  0
   -1.6828    2.7536    3.8157 C   0  0  0  0  0  0  0  0  0  0  0  0
   -3.0468    2.6360    4.1110 C   0  0  0  0  0  0  0  0  0  0  0  0
   -3.7982    3.7825    4.4807 C   0  0  0  0  0  0  0  0  0  0  0  0
   -5.2785    3.7411    4.6267 C   0  0  0  0  0  0  0  0  0  0  0  0
   -6.1790    2.5487    5.3915 S   0  0  0  0  0  0  0  0  0  0  0  0
   -7.7047    3.0992    4.9550 C   0  0  0  0  0  0  0  0  0  0  0  0
   -9.2771    2.1660    5.3307 Si  0  0  0  0  0  4  0  0  0  0  0  0
  -10.7527    2.7999    4.3510 C   0  0  0  0  0  0  0  0  0  0  0  0
  -10.6003    2.5608    2.8535 C   0  0  0  0  0  0  0  0  0  0  0  0
   -9.7235    2.3355    7.1501 C   0  0  0  0  0  0  0  0  0  0  0  0
   -8.5038    2.2758    8.0631 C   0  0  0  0  0  0  0  0  0  0  0  0
   -9.1109    0.3534    4.8233 C   0  0  0  0  0  0  0  0  0  0  0  0
   -8.1762   -0.4655    5.7032 C   0  0  0  0  0  0  0  0  0  0  0  0
   -7.5151    4.2913    4.2414 C   0  0  0  0  0  0  0  0  0  0  0  0
   -6.1695    4.6229    4.0401 C   0  0  0  0  0  0  0  0  0  0  0  0
   -8.7855    5.3431    3.6665 Cl  0  0  0  0  0  0  0  0  0  0  0  0
   -3.0893    5.0017    4.5621 C   0  0  0  0  0  0  0  0  0  0  0  0
   -3.6916    6.5600    4.8231 S   0  0  0  0  0  0  0  0  0  0  0  0
   -3.5514    1.3452    3.8340 C   0  0  0  0  0  0  0  0  0  0  0  0
   -2.5802    0.4658    3.3666 C   0  0  0  0  0  0  0  0  0  0  0  0
   -1.1387    1.3087    3.1838 S   0  0  0  0  0  0  0  0  0  0  0  0
   -2.8407   -0.7533    2.6087 C   0  0  0  0  0  0  0  0  0  0  0  0
   -2.1565   -1.9704    2.8075 C   0  0  0  0  0  0  0  0  0  0  0  0
   -1.8158   -2.5372    4.0908 N   0  0  0  0  0  0  0  0  0  0  0  0
   -1.2506   -1.7255    5.1352 C   0  0  0  0  0  0  0  0  0  0  0  0
   -0.0657   -1.0159    4.9080 C   0  0  0  0  0  0  0  0  0  0  0  0
    0.4402   -0.1532    5.8850 C   0  0  0  0  0  0  0  0  0  0  0  0
   -0.1881   -0.0650    7.1331 C   0  0  0  0  0  0  0  0  0  0  0  0
    0.4851    1.0154    8.3936 S   0  0  0  0  0  0  0  0  0  0  0  0
    1.7446   -0.1922    8.9122 C   0  0  0  0  0  0  0  0  0  0  0  0
   -1.3475   -0.8096    7.3866 C   0  0  0  0  0  0  0  0  0  0  0  0
   -1.8816   -1.6334    6.3841 C   0  0  0  0  0  0  0  0  0  0  0  0
   -2.0914   -3.9326    4.3358 C   0  0  0  0  0  0  0  0  0  0  0  0
   -3.2722   -4.5232    3.8426 C   0  0  0  0  0  0  0  0  0  0  0  0
   -3.5016   -5.8909    4.0051 C   0  0  0  0  0  0  0  0  0  0  0  0
   -2.5511   -6.6904    4.6556 C   0  0  0  0  0  0  0  0  0  0  0  0
   -2.8192   -8.4574    4.7873 S   0  0  0  0  0  0  0  0  0  0  0  0
   -1.9394   -8.8337    3.2405 C   0  0  0  0  0  0  0  0  0  0  0  0
   -1.3935   -6.1072    5.1778 C   0  0  0  0  0  0  0  0  0  0  0  0
   -1.1618   -4.7315    5.0227 C   0  0  0  0  0  0  0  0  0  0  0  0
   -1.9022   -2.6202    1.5967 C   0  0  0  0  0  0  0  0  0  0  0  0
   -0.6201   -3.6110    1.1478 S   0  0  0  0  0  0  0  0  0  0  0  0
   -0.6062   -3.1619   -0.4938 C   0  0  0  0  0  0  0  0  0  0  0  0
   -1.6602   -2.2392   -0.6825 C   0  0  0  0  0  0  0  0  0  0  0  0
   -1.7800   -1.3541   -1.8099 N   0  0  0  0  0  0  0  0  0  0  0  0
   -3.0559   -1.3904   -2.4814 C   0  0  0  0  0  0  0  0  0  0  0  0
   -3.5640   -2.6125   -2.9537 C   0  0  0  0  0  0  0  0  0  0  0  0
   -4.8703   -2.7000   -3.4401 C   0  0  0  0  0  0  0  0  0  0  0  0
   -5.6913   -1.5653   -3.4549 C   0  0  0  0  0  0  0  0  0  0  0  0
   -7.3952   -1.6868   -4.0027 S   0  0  0  0  0  0  0  0  0  0  0  0
   -7.0171   -1.2475   -5.7267 C   0  0  0  0  0  0  0  0  0  0  0  0
   -5.1947   -0.3432   -2.9878 C   0  0  0  0  0  0  0  0  0  0  0  0
   -3.8859   -0.2514   -2.5007 C   0  0  0  0  0  0  0  0  0  0  0  0
   -0.9178   -0.1833   -1.8964 C   0  0  0  0  0  0  0  0  0  0  0  0
   -0.9054    0.6061   -3.0591 C   0  0  0  0  0  0  0  0  0  0  0  0
   -0.2195    1.8211   -3.0897 C   0  0  0  0  0  0  0  0  0  0  0  0
    0.4897    2.2598   -1.9684 C   0  0  0  0  0  0  0  0  0  0  0  0
    1.2941    3.8698   -1.9857 S   0  0  0  0  0  0  0  0  0  0  0  0
   -0.1103    4.7119   -1.1835 C   0  0  0  0  0  0  0  0  0  0  0  0
    0.5685    1.4436   -0.8413 C   0  0  0  0  0  0  0  0  0  0  0  0
   -0.1284    0.2331   -0.7973 C   0  0  0  0  0  0  0  0  0  0  0  0
   -2.3581   -1.9786    0.4955 C   0  0  0  0  0  0  0  0  0  0  0  0
   -3.1256   -0.5730    0.9513 S   0  0  0  0  0  0  0  0  0  0  0  0
    0.4911   -3.3877   -1.4615 C   0  0  0  0  0  0  0  0  0  0  0  0
    1.8788   -3.5984   -1.2098 C   0  0  0  0  0  0  0  0  0  0  0  0
    2.4455   -4.2351   -0.0401 N   0  0  0  0  0  0  0  0  0  0  0  0
    3.2598   -5.4144   -0.2257 C   0  0  0  0  0  0  0  0  0  0  0  0
    2.8502   -6.4326   -1.1045 C   0  0  0  0  0  0  0  0  0  0  0  0
    3.6617   -7.5513   -1.3202 C   0  0  0  0  0  0  0  0  0  0  0  0
    4.8884   -7.6635   -0.6542 C   0  0  0  0  0  0  0  0  0  0  0  0
    5.9527   -9.0806   -0.9309 S   0  0  0  0  0  0  0  0  0  0  0  0
    6.9010   -8.2587   -2.2456 C   0  0  0  0  0  0  0  0  0  0  0  0
    5.3027   -6.6568    0.2245 C   0  0  0  0  0  0  0  0  0  0  0  0
    4.5000   -5.5373    0.4296 C   0  0  0  0  0  0  0  0  0  0  0  0
    2.4635   -3.5954    1.2546 C   0  0  0  0  0  0  0  0  0  0  0  0
    2.2689   -4.3815    2.4112 C   0  0  0  0  0  0  0  0  0  0  0  0
    2.4638   -3.8408    3.6818 C   0  0  0  0  0  0  0  0  0  0  0  0
    2.9218   -2.5286    3.8214 C   0  0  0  0  0  0  0  0  0  0  0  0
    3.2917   -1.8784    5.4567 S   0  0  0  0  0  0  0  0  0  0  0  0
    4.8993   -2.7111    5.6103 C   0  0  0  0  0  0  0  0  0  0  0  0
    3.0722   -1.7212    2.6826 C   0  0  0  0  0  0  0  0  0  0  0  0
    2.8322   -2.2441    1.4025 C   0  0  0  0  0  0  0  0  0  0  0  0
    2.6153   -3.4618   -2.3986 C   0  0  0  0  0  0  0  0  0  0  0  0
    4.2512   -3.5390   -2.7843 S   0  0  0  0  0  0  0  0  0  0  0  0
    4.0133   -3.3338   -4.4691 C   0  0  0  0  0  0  0  0  0  0  0  0
    2.6382   -3.1532   -4.7050 C   0  0  0  0  0  0  0  0  0  0  0  0
    2.0512   -3.0145   -6.0073 N   0  0  0  0  0  0  0  0  0  0  0  0
    1.7841   -4.1836   -6.8272 C   0  0  0  0  0  0  0  0  0  0  0  0
    0.9124   -4.0983   -7.9345 C   0  0  0  0  0  0  0  0  0  0  0  0
    0.6982   -5.2014   -8.7695 C   0  0  0  0  0  0  0  0  0  0  0  0
    1.3508   -6.4109   -8.5064 C   0  0  0  0  0  0  0  0  0  0  0  0
    1.1010   -7.8231   -9.5940 S   0  0  0  0  0  0  0  0  0  0  0  0
    2.5239   -7.4104  -10.6602 C   0  0  0  0  0  0  0  0  0  0  0  0
    2.1833   -6.5270   -7.3923 C   0  0  0  0  0  0  0  0  0  0  0  0
    2.3970   -5.4268   -6.5593 C   0  0  0  0  0  0  0  0  0  0  0  0
    1.8448   -1.6887   -6.5283 C   0  0  0  0  0  0  0  0  0  0  0  0
    2.4871   -1.2948   -7.7119 C   0  0  0  0  0  0  0  0  0  0  0  0
    2.1932   -0.0648   -8.3113 C   0  0  0  0  0  0  0  0  0  0  0  0
    1.2249    0.7728   -7.7488 C   0  0  0  0  0  0  0  0  0  0  0  0
    0.7525    2.2843   -8.5915 S   0  0  0  0  0  0  0  0  0  0  0  0
   -0.3000    1.4240   -9.8089 C   0  0  0  0  0  0  0  0  0  0  0  0
    0.6076    0.4079   -6.5494 C   0  0  0  0  0  0  0  0  0  0  0  0
    0.9243   -0.8097   -5.9325 C   0  0  0  0  0  0  0  0  0  0  0  0
    1.8992   -3.2436   -3.5242 C   0  0  0  0  0  0  0  0  0  0  0  0
    0.2720   -3.1632   -3.1452 S   0  0  0  0  0  0  0  0  0  0  0  0
    5.0692   -3.1923   -5.5026 C   0  0  0  0  0  0  0  0  0  0  0  0
    6.2965   -3.7518   -5.4555 C   0  0  0  0  0  0  0  0  0  0  0  0
    6.8154   -4.6681   -4.4361 C   0  0  0  0  0  0  0  0  0  0  0  0
    6.1402   -5.4723   -3.7358 O   0  0  0  0  0  0  0  0  0  0  0  0
    8.2610   -4.5884   -4.4460 C   0  0  0  0  0  0  0  0  0  0  0  0
    9.1627   -5.1434   -3.5368 C   0  0  0  0  0  0  0  0  0  0  0  0
   10.5198   -4.8336   -3.6795 C   0  0  0  0  0  0  0  0  0  0  0  0
   11.4231   -5.3492   -2.8101 F   0  0  0  0  0  0  0  0  0  0  0  0
   10.9487   -3.9574   -4.6921 C   0  0  0  0  0  0  0  0  0  0  0  0
   10.0204   -3.4115   -5.5936 C   0  0  0  0  0  0  0  0  0  0  0  0
    8.6667   -3.7634   -5.4817 C   0  0  0  0  0  0  0  0  0  0  0  0
    7.4778   -3.3366   -6.2661 C   0  0  0  0  0  0  0  0  0  0  0  0
    7.4837   -2.9272   -7.5598 C   0  0  0  0  0  0  0  0  0  0  0  0
    8.7021   -2.6275   -8.2665 C   0  0  0  0  0  0  0  0  0  0  0  0
    9.6732   -2.3827   -8.8475 N   0  0  0  0  0  0  0  0  0  0  0  0
    6.2894   -2.8820   -8.3542 C   0  0  0  0  0  0  0  0  0  0  0  0
    5.3475   -2.8504   -9.0205 N   0  0  0  0  0  0  0  0  0  0  0  0
   -1.6403    9.4137    4.8885 H   0  0  0  0  0  0  0  0  0  0  0  0
   -2.4929    7.2840   -0.9324 H   0  0  0  0  0  0  0  0  0  0  0  0
   -0.3290   10.7376   -2.3363 H   0  0  0  0  0  0  0  0  0  0  0  0
   -0.3510   11.7002   -0.0702 H   0  0  0  0  0  0  0  0  0  0  0  0
   -0.2267    6.6979    4.0576 H   0  0  0  0  0  0  0  0  0  0  0  0
    0.1439    5.7017    1.8746 H   0  0  0  0  0  0  0  0  0  0  0  0
    5.5419    5.4487    2.4093 H   0  0  0  0  0  0  0  0  0  0  0  0
    5.4229    4.7843    0.7422 H   0  0  0  0  0  0  0  0  0  0  0  0
    7.2945    3.1774    1.2500 H   0  0  0  0  0  0  0  0  0  0  0  0
    7.7767    4.9107    1.4004 H   0  0  0  0  0  0  0  0  0  0  0  0
    7.4672    3.9413    2.8870 H   0  0  0  0  0  0  0  0  0  0  0  0
    4.4862    1.7094    4.3937 H   0  0  0  0  0  0  0  0  0  0  0  0
    6.1682    2.1679    3.9618 H   0  0  0  0  0  0  0  0  0  0  0  0
    5.4890    3.2478    6.0900 H   0  0  0  0  0  0  0  0  0  0  0  0
    5.7496    4.5063    4.8295 H   0  0  0  0  0  0  0  0  0  0  0  0
    4.0715    4.0080    5.2913 H   0  0  0  0  0  0  0  0  0  0  0  0
    3.6681    1.0783    1.4690 H   0  0  0  0  0  0  0  0  0  0  0  0
    5.4668    1.1758    1.3013 H   0  0  0  0  0  0  0  0  0  0  0  0
    5.2674    2.7009   -0.5970 H   0  0  0  0  0  0  0  0  0  0  0  0
    3.4825    2.8830   -0.3396 H   0  0  0  0  0  0  0  0  0  0  0  0
    4.1655    1.3027   -0.8891 H   0  0  0  0  0  0  0  0  0  0  0  0
  -10.8968    3.8794    4.5617 H   0  0  0  0  0  0  0  0  0  0  0  0
  -11.6616    2.2694    4.7111 H   0  0  0  0  0  0  0  0  0  0  0  0
   -9.6229    2.9375    2.4832 H   0  0  0  0  0  0  0  0  0  0  0  0
  -11.4090    3.0892    2.3023 H   0  0  0  0  0  0  0  0  0  0  0  0
  -10.6773    1.4746    2.6235 H   0  0  0  0  0  0  0  0  0  0  0  0
  -10.4340    1.5299    7.4197 H   0  0  0  0  0  0  0  0  0  0  0  0
  -10.2328    3.3098    7.2934 H   0  0  0  0  0  0  0  0  0  0  0  0
   -8.8376    2.2740    9.1215 H   0  0  0  0  0  0  0  0  0  0  0  0
   -7.8560    3.1611    7.9013 H   0  0  0  0  0  0  0  0  0  0  0  0
   -7.9099    1.3597    7.8818 H   0  0  0  0  0  0  0  0  0  0  0  0
   -8.7508    0.3158    3.7741 H   0  0  0  0  0  0  0  0  0  0  0  0
  -10.1190   -0.1137    4.8586 H   0  0  0  0  0  0  0  0  0  0  0  0
   -8.5935   -0.5606    6.7268 H   0  0  0  0  0  0  0  0  0  0  0  0
   -8.0722   -1.4863    5.2789 H   0  0  0  0  0  0  0  0  0  0  0  0
   -7.1655   -0.0183    5.7466 H   0  0  0  0  0  0  0  0  0  0  0  0
   -5.8757    5.4810    3.4475 H   0  0  0  0  0  0  0  0  0  0  0  0
   -4.5896    1.0633    3.8635 H   0  0  0  0  0  0  0  0  0  0  0  0
    0.4304   -1.0878    3.9484 H   0  0  0  0  0  0  0  0  0  0  0  0
    1.3296    0.4296    5.6749 H   0  0  0  0  0  0  0  0  0  0  0  0
    2.4926   -0.3307    8.1039 H   0  0  0  0  0  0  0  0  0  0  0  0
    2.2612    0.1897    9.8123 H   0  0  0  0  0  0  0  0  0  0  0  0
    1.2785   -1.1732    9.1516 H   0  0  0  0  0  0  0  0  0  0  0  0
   -1.8389   -0.7365    8.3483 H   0  0  0  0  0  0  0  0  0  0  0  0
   -2.7834   -2.2019    6.5858 H   0  0  0  0  0  0  0  0  0  0  0  0
   -4.0110   -3.9160    3.3343 H   0  0  0  0  0  0  0  0  0  0  0  0
   -4.4097   -6.3339    3.6157 H   0  0  0  0  0  0  0  0  0  0  0  0
   -2.4263   -8.3263    2.3803 H   0  0  0  0  0  0  0  0  0  0  0  0
   -1.9675   -9.9244    3.0625 H   0  0  0  0  0  0  0  0  0  0  0  0
   -0.8787   -8.5114    3.3133 H   0  0  0  0  0  0  0  0  0  0  0  0
   -0.6581   -6.7227    5.6886 H   0  0  0  0  0  0  0  0  0  0  0  0
   -0.2450   -4.3053    5.4162 H   0  0  0  0  0  0  0  0  0  0  0  0
   -2.9530   -3.5081   -2.9135 H   0  0  0  0  0  0  0  0  0  0  0  0
   -5.2471   -3.6509   -3.8022 H   0  0  0  0  0  0  0  0  0  0  0  0
   -7.9592   -0.9819   -6.2442 H   0  0  0  0  0  0  0  0  0  0  0  0
   -6.5509   -2.1153   -6.2406 H   0  0  0  0  0  0  0  0  0  0  0  0
   -6.3315   -0.3746   -5.7673 H   0  0  0  0  0  0  0  0  0  0  0  0
   -5.8244    0.5353   -2.9933 H   0  0  0  0  0  0  0  0  0  0  0  0
   -3.5396    0.6903   -2.0969 H   0  0  0  0  0  0  0  0  0  0  0  0
   -1.4583    0.2968   -3.9378 H   0  0  0  0  0  0  0  0  0  0  0  0
   -0.2632    2.4364   -3.9815 H   0  0  0  0  0  0  0  0  0  0  0  0
   -0.3377    4.2249   -0.2153 H   0  0  0  0  0  0  0  0  0  0  0  0
   -1.0041    4.6733   -1.8479 H   0  0  0  0  0  0  0  0  0  0  0  0
    0.1525    5.7726   -0.9971 H   0  0  0  0  0  0  0  0  0  0  0  0
    1.1354    1.7609    0.0232 H   0  0  0  0  0  0  0  0  0  0  0  0
   -0.0788   -0.3470    0.1081 H   0  0  0  0  0  0  0  0  0  0  0  0
    1.9077   -6.3551   -1.6349 H   0  0  0  0  0  0  0  0  0  0  0  0
    3.3388   -8.3312   -1.9967 H   0  0  0  0  0  0  0  0  0  0  0  0
    6.2816   -8.2090   -3.1617 H   0  0  0  0  0  0  0  0  0  0  0  0
    7.8236   -8.8337   -2.4555 H   0  0  0  0  0  0  0  0  0  0  0  0
    7.1870   -7.2352   -1.9288 H   0  0  0  0  0  0  0  0  0  0  0  0
    6.2546   -6.7352    0.7324 H   0  0  0  0  0  0  0  0  0  0  0  0
    4.8599   -4.7562    1.0906 H   0  0  0  0  0  0  0  0  0  0  0  0
    1.9690   -5.4166    2.3170 H   0  0  0  0  0  0  0  0  0  0  0  0
    2.3127   -4.4633    4.5570 H   0  0  0  0  0  0  0  0  0  0  0  0
    4.7539   -3.8057    5.6678 H   0  0  0  0  0  0  0  0  0  0  0  0
    5.5547   -2.4593    4.7422 H   0  0  0  0  0  0  0  0  0  0  0  0
    5.3906   -2.3621    6.5390 H   0  0  0  0  0  0  0  0  0  0  0  0
    3.3860   -0.6974    2.7973 H   0  0  0  0  0  0  0  0  0  0  0  0
    2.9816   -1.6253    0.5308 H   0  0  0  0  0  0  0  0  0  0  0  0
    0.3773   -3.1826   -8.1587 H   0  0  0  0  0  0  0  0  0  0  0  0
    0.0410   -5.1170   -9.6248 H   0  0  0  0  0  0  0  0  0  0  0  0
    2.3778   -6.4064  -11.1132 H   0  0  0  0  0  0  0  0  0  0  0  0
    3.4567   -7.4216  -10.0592 H   0  0  0  0  0  0  0  0  0  0  0  0
    2.6010   -8.1669  -11.4663 H   0  0  0  0  0  0  0  0  0  0  0  0
    2.6730   -7.4665   -7.1758 H   0  0  0  0  0  0  0  0  0  0  0  0
    3.0478   -5.5528   -5.7067 H   0  0  0  0  0  0  0  0  0  0  0  0
    3.1769   -1.9593   -8.1955 H   0  0  0  0  0  0  0  0  0  0  0  0
    2.6712    0.2048   -9.2421 H   0  0  0  0  0  0  0  0  0  0  0  0
   -0.7966    2.1720  -10.4591 H   0  0  0  0  0  0  0  0  0  0  0  0
    0.3261    0.7691  -10.4439 H   0  0  0  0  0  0  0  0  0  0  0  0
   -1.0726    0.8233   -9.2916 H   0  0  0  0  0  0  0  0  0  0  0  0
   -0.1414    1.0546   -6.1072 H   0  0  0  0  0  0  0  0  0  0  0  0
    0.4110   -1.0918   -5.0268 H   0  0  0  0  0  0  0  0  0  0  0  0
    4.8371   -2.5021   -6.2986 H   0  0  0  0  0  0  0  0  0  0  0  0
    8.8353   -5.7698   -2.7252 H   0  0  0  0  0  0  0  0  0  0  0  0
   11.9836   -3.6648   -4.7401 H   0  0  0  0  0  0  0  0  0  0  0  0
   10.3607   -2.6781   -6.3023 H   0  0  0  0  0  0  0  0  0  0  0  0
  1  2  2  3
  2  3  1  0
  3  4  2  0
  3  5  1  0
  5  6  2  0
  6  7  1  0
  7  8  1  0
  7  9  2  0
  9 10  1  0
 10 11  2  0
 11 12  1  0
 12 13  2  3
 13 14  1  0
 14 15  3  0
 13 16  1  0
 16 17  3  0
  1 18  1  0
 18 19  2  0
 19 20  1  0
 20 21  2  0
 21 22  1  0
 22 23  2  0
 23 24  1  0
 24 25  1  0
 24 26  2  0
 26 27  1  0
 27 28  1  0
 28 29  1  0
 27 30  1  0
 30 31  1  0
 27 32  1  0
 32 33  1  0
 26 34  1  0
 21 35  1  0
 35 36  2  0
 36 37  1  0
 37 38  1  0
 38 39  1  0
 39 40  1  0
 40 41  1  0
 41 42  1  0
 42 43  1  0
 41 44  1  0
 44 45  1  0
 41 46  1  0
 46 47  1  0
 40 48  2  0
 48 49  1  0
 48 50  1  0
 37 51  2  0
 51 52  1  0
 36 53  1  0
 53 54  2  0
 54 55  1  0
 54 56  1  0
 56 57  2  0
 57 58  1  0
 58 59  1  0
 59 60  2  0
 60 61  1  0
 61 62  2  0
 62 63  1  0
 63 64  1  0
 62 65  1  0
 65 66  2  0
 58 67  1  0
 67 68  2  0
 68 69  1  0
 69 70  2  0
 70 71  1  0
 71 72  1  0
 70 73  1  0
 73 74  2  0
 57 75  1  0
 75 76  1  0
 76 77  1  0
 77 78  2  0
 78 79  1  0
 79 80  1  0
 80 81  2  0
 81 82  1  0
 82 83  2  0
 83 84  1  0
 84 85  1  0
 83 86  1  0
 86 87  2  0
 79 88  1  0
 88 89  2  0
 89 90  1  0
 90 91  2  0
 91 92  1  0
 92 93  1  0
 91 94  1  0
 94 95  2  0
 78 96  1  0
 96 97  1  0
 77 98  1  0
 98 99  2  0
 99100  1  0
100101  1  0
101102  2  0
102103  1  0
103104  2  0
104105  1  0
105106  1  0
104107  1  0
107108  2  0
100109  1  0
109110  2  0
110111  1  0
111112  2  0
112113  1  0
113114  1  0
112115  1  0
115116  2  0
 99117  1  0
117118  1  0
118119  1  0
119120  2  0
120121  1  0
121122  1  0
122123  2  0
123124  1  0
124125  2  0
125126  1  0
126127  1  0
125128  1  0
128129  2  0
121130  1  0
130131  2  0
131132  1  0
132133  2  0
133134  1  0
134135  1  0
133136  1  0
136137  2  0
120138  1  0
138139  1  0
119140  1  0
140141  2  3
141142  1  0
142143  2  0
142144  1  0
144145  2  0
145146  1  0
146147  1  0
146148  2  0
148149  1  0
149150  2  0
150151  1  0
151152  2  3
152153  1  0
153154  3  0
152155  1  0
155156  3  0
 12  2  1  0
 52 18  1  0
 97 56  1  0
139 98  1  0
151141  1  0
 11  5  1  0
 51 20  1  0
 66 59  1  0
 74 67  1  0
 96 75  2  0
108101  1  0
116109  1  0
138117  2  0
150144  1  0
 34 22  1  0
 55 35  1  0
 87 80  1  0
 95 88  1  0
129122  1  0
137130  1  0
 49 38  2  0
  1157  1  0
  6158  1  0
  9159  1  0
 10160  1  0
 19161  1  0
 23162  1  0
 28163  1  0
 28164  1  0
 29165  1  0
 29166  1  0
 29167  1  0
 30168  1  0
 30169  1  0
 31170  1  0
 31171  1  0
 31172  1  0
 32173  1  0
 32174  1  0
 33175  1  0
 33176  1  0
 33177  1  0
 42178  1  0
 42179  1  0
 43180  1  0
 43181  1  0
 43182  1  0
 44183  1  0
 44184  1  0
 45185  1  0
 45186  1  0
 45187  1  0
 46188  1  0
 46189  1  0
 47190  1  0
 47191  1  0
 47192  1  0
 49193  1  0
 53194  1  0
 60195  1  0
 61196  1  0
 64197  1  0
 64198  1  0
 64199  1  0
 65200  1  0
 66201  1  0
 68202  1  0
 69203  1  0
 72204  1  0
 72205  1  0
 72206  1  0
 73207  1  0
 74208  1  0
 81209  1  0
 82210  1  0
 85211  1  0
 85212  1  0
 85213  1  0
 86214  1  0
 87215  1  0
 89216  1  0
 90217  1  0
 93218  1  0
 93219  1  0
 93220  1  0
 94221  1  0
 95222  1  0
102223  1  0
103224  1  0
106225  1  0
106226  1  0
106227  1  0
107228  1  0
108229  1  0
110230  1  0
111231  1  0
114232  1  0
114233  1  0
114234  1  0
115235  1  0
116236  1  0
123237  1  0
124238  1  0
127239  1  0
127240  1  0
127241  1  0
128242  1  0
129243  1  0
131244  1  0
132245  1  0
135246  1  0
135247  1  0
135248  1  0
136249  1  0
137250  1  0
140251  1  0
145252  1  0
148253  1  0
149254  1  0
M  END

