
     RDKit          3D

175191  0  0  0  0  0  0  0  0999 V2000
   -7.1701   -6.9882   -0.9601 C   0  0  0  0  0  0  0  0  0  0  0  0
   -6.9884   -8.1049   -1.6912 C   0  0  0  0  0  0  0  0  0  0  0  0
   -6.7691   -8.1640   -3.1427 C   0  0  0  0  0  0  0  0  0  0  0  0
   -6.4219   -7.2141   -3.8974 O   0  0  0  0  0  0  0  0  0  0  0  0
   -7.0551   -9.5100   -3.5816 C   0  0  0  0  0  0  0  0  0  0  0  0
   -7.1019   -9.9961   -4.8853 C   0  0  0  0  0  0  0  0  0  0  0  0
   -7.4835  -11.3396   -5.0870 C   0  0  0  0  0  0  0  0  0  0  0  0
   -7.4949  -11.9293   -6.4690 C   0  0  0  0  0  0  0  0  0  0  0  0
   -7.8054  -12.1440   -3.9678 C   0  0  0  0  0  0  0  0  0  0  0  0
   -8.1434  -13.4505   -4.1435 F   0  0  0  0  0  0  0  0  0  0  0  0
   -7.7469  -11.6240   -2.6635 C   0  0  0  0  0  0  0  0  0  0  0  0
   -7.3489  -10.3032   -2.4842 C   0  0  0  0  0  0  0  0  0  0  0  0
   -7.2005   -9.5063   -1.2372 C   0  0  0  0  0  0  0  0  0  0  0  0
   -6.8492   -9.9982   -0.0140 C   0  0  0  0  0  0  0  0  0  0  0  0
   -6.6736  -11.4145    0.2228 C   0  0  0  0  0  0  0  0  0  0  0  0
   -6.5012  -12.5433    0.4339 N   0  0  0  0  0  0  0  0  0  0  0  0
   -6.3568   -9.1489    1.0451 C   0  0  0  0  0  0  0  0  0  0  0  0
   -5.9630   -8.4466    1.8736 N   0  0  0  0  0  0  0  0  0  0  0  0
   -6.6327   -5.6781   -1.3666 C   0  0  0  0  0  0  0  0  0  0  0  0
   -5.4812   -5.2150   -0.7051 C   0  0  0  0  0  0  0  0  0  0  0  0
   -4.8469   -4.0873   -1.2009 C   0  0  0  0  0  0  0  0  0  0  0  0
   -3.5688   -3.5198   -0.8064 C   0  0  0  0  0  0  0  0  0  0  0  0
   -2.8263   -3.9031    0.1415 O   0  0  0  0  0  0  0  0  0  0  0  0
   -3.2586   -2.4981   -1.7849 C   0  0  0  0  0  0  0  0  0  0  0  0
   -4.2772   -2.4401   -2.7219 C   0  0  0  0  0  0  0  0  0  0  0  0
   -5.2837   -3.4398   -2.3431 C   0  0  0  0  0  0  0  0  0  0  0  0
   -6.4646   -3.8457   -2.9787 C   0  0  0  0  0  0  0  0  0  0  0  0
   -7.1616   -4.9560   -2.4614 C   0  0  0  0  0  0  0  0  0  0  0  0
   -4.1900   -1.5800   -3.8211 C   0  0  0  0  0  0  0  0  0  0  0  0
   -3.0431   -0.7668   -3.9447 C   0  0  0  0  0  0  0  0  0  0  0  0
   -2.0159   -0.8163   -2.9645 C   0  0  0  0  0  0  0  0  0  0  0  0
   -2.1262   -1.7083   -1.8779 C   0  0  0  0  0  0  0  0  0  0  0  0
   -0.8550    0.1028   -2.9732 C   0  0  0  0  0  0  0  0  0  0  0  0
   -0.9116    1.4719   -2.6512 C   0  0  0  0  0  0  0  0  0  0  0  0
   -1.9775    2.3656   -3.0238 N   0  0  0  0  0  0  0  0  0  0  0  0
   -1.6213    3.6079   -3.6683 C   0  0  0  0  0  0  0  0  0  0  0  0
   -2.0412    4.8320   -3.1255 C   0  0  0  0  0  0  0  0  0  0  0  0
   -1.5206    6.0331   -3.6154 C   0  0  0  0  0  0  0  0  0  0  0  0
   -0.5899    6.0225   -4.6547 C   0  0  0  0  0  0  0  0  0  0  0  0
    0.1957    7.5524   -5.1634 S   0  0  0  0  0  0  0  0  0  0  0  0
    1.5980    7.3378   -4.0265 C   0  0  0  0  0  0  0  0  0  0  0  0
   -0.2221    4.8123   -5.2523 C   0  0  0  0  0  0  0  0  0  0  0  0
   -0.7350    3.6075   -4.7626 C   0  0  0  0  0  0  0  0  0  0  0  0
   -3.3643    2.0942   -2.7518 C   0  0  0  0  0  0  0  0  0  0  0  0
   -3.7872    1.7765   -1.4486 C   0  0  0  0  0  0  0  0  0  0  0  0
   -5.1532    1.6477   -1.1714 C   0  0  0  0  0  0  0  0  0  0  0  0
   -6.0924    1.7882   -2.2005 C   0  0  0  0  0  0  0  0  0  0  0  0
   -7.8443    1.6755   -1.8305 S   0  0  0  0  0  0  0  0  0  0  0  0
   -8.1033    3.4881   -1.8639 C   0  0  0  0  0  0  0  0  0  0  0  0
   -5.6684    2.0484   -3.5022 C   0  0  0  0  0  0  0  0  0  0  0  0
   -4.3113    2.2234   -3.7794 C   0  0  0  0  0  0  0  0  0  0  0  0
    0.2977    1.9125   -2.1092 C   0  0  0  0  0  0  0  0  0  0  0  0
    0.7486    3.3294   -1.3429 S   0  0  0  0  0  0  0  0  0  0  0  0
    2.3014    2.7861   -0.9289 C   0  0  0  0  0  0  0  0  0  0  0  0
    2.4955    1.4734   -1.4225 C   0  0  0  0  0  0  0  0  0  0  0  0
    3.7698    0.7727   -1.4751 N   0  0  0  0  0  0  0  0  0  0  0  0
    3.8478   -0.5712   -0.9672 C   0  0  0  0  0  0  0  0  0  0  0  0
    4.4106   -0.8065    0.3054 C   0  0  0  0  0  0  0  0  0  0  0  0
    4.5363   -2.1120    0.7822 C   0  0  0  0  0  0  0  0  0  0  0  0
    4.0767   -3.1867    0.0191 C   0  0  0  0  0  0  0  0  0  0  0  0
    4.0924   -4.8525    0.6852 S   0  0  0  0  0  0  0  0  0  0  0  0
    2.4290   -4.6941    1.3917 C   0  0  0  0  0  0  0  0  0  0  0  0
    3.5899   -2.9619   -1.2715 C   0  0  0  0  0  0  0  0  0  0  0  0
    3.5239   -1.6603   -1.7726 C   0  0  0  0  0  0  0  0  0  0  0  0
    4.9021    1.3057   -2.2189 C   0  0  0  0  0  0  0  0  0  0  0  0
    4.8459    2.5700   -2.8603 C   0  0  0  0  0  0  0  0  0  0  0  0
    5.9614    3.0927   -3.5290 C   0  0  0  0  0  0  0  0  0  0  0  0
    7.1457    2.3593   -3.6131 C   0  0  0  0  0  0  0  0  0  0  0  0
    8.5288    3.0167   -4.5544 S   0  0  0  0  0  0  0  0  0  0  0  0
    9.4649    3.5647   -3.0920 C   0  0  0  0  0  0  0  0  0  0  0  0
    7.2059    1.0821   -3.0385 C   0  0  0  0  0  0  0  0  0  0  0  0
    6.1140    0.5773   -2.3284 C   0  0  0  0  0  0  0  0  0  0  0  0
    1.3132    1.0078   -2.0320 C   0  0  0  0  0  0  0  0  0  0  0  0
    0.7250   -0.4511   -2.6244 S   0  0  0  0  0  0  0  0  0  0  0  0
    3.1740    3.5971   -0.0595 C   0  0  0  0  0  0  0  0  0  0  0  0
    3.3941    4.9413   -0.4304 C   0  0  0  0  0  0  0  0  0  0  0  0
    3.1371    5.3649   -1.6945 F   0  0  0  0  0  0  0  0  0  0  0  0
    3.7106    5.8967    0.5321 C   0  0  0  0  0  0  0  0  0  0  0  0
    3.7308    7.2121    0.1800 F   0  0  0  0  0  0  0  0  0  0  0  0
    3.8601    5.5257    1.8782 C   0  0  0  0  0  0  0  0  0  0  0  0
    3.8560    4.1670    2.2169 C   0  0  0  0  0  0  0  0  0  0  0  0
    4.0904    3.7928    3.4982 N   0  0  0  0  0  0  0  0  0  0  0  0
    3.9323    2.5078    3.9066 C   0  0  0  0  0  0  0  0  0  0  0  0
    4.2835    2.1975    5.3044 C   0  0  0  0  0  0  0  0  0  0  0  0
    5.7287    2.6747    6.0328 S   0  0  0  0  0  0  0  0  0  0  0  0
    5.4349    1.9731    7.5315 C   0  0  0  0  0  0  0  0  0  0  0  0
    6.3789    1.9910    8.6904 C   0  0  0  0  0  0  0  0  0  0  0  0
    7.5508    1.0363    8.4330 C   0  0  0  0  0  0  0  0  0  0  0  0
    4.1792    1.3690    7.4832 C   0  0  0  0  0  0  0  0  0  0  0  0
    3.5227    1.5128    6.2522 C   0  0  0  0  0  0  0  0  0  0  0  0
    2.2806    1.0227    6.0082 F   0  0  0  0  0  0  0  0  0  0  0  0
    3.6409    0.6755    8.5197 F   0  0  0  0  0  0  0  0  0  0  0  0
    3.4618    1.5425    2.9862 C   0  0  0  0  0  0  0  0  0  0  0  0
    3.2252    1.9259    1.7007 N   0  0  0  0  0  0  0  0  0  0  0  0
    3.4506    3.2009    1.2707 C   0  0  0  0  0  0  0  0  0  0  0  0
    3.2374    0.1431    3.3722 C   0  0  0  0  0  0  0  0  0  0  0  0
    4.3703   -0.8616    4.1271 S   0  0  0  0  0  0  0  0  0  0  0  0
    3.3334   -2.1673    4.3358 C   0  0  0  0  0  0  0  0  0  0  0  0
    3.6845   -3.4299    5.0483 C   0  0  0  0  0  0  0  0  0  0  0  0
    3.7233   -3.2057    6.5529 C   0  0  0  0  0  0  0  0  0  0  0  0
    2.0767   -1.8152    3.8471 C   0  0  0  0  0  0  0  0  0  0  0  0
    0.9830   -2.6137    3.9400 F   0  0  0  0  0  0  0  0  0  0  0  0
    2.0341   -0.5387    3.2735 C   0  0  0  0  0  0  0  0  0  0  0  0
    0.9001    0.0090    2.7640 F   0  0  0  0  0  0  0  0  0  0  0  0
    3.6933    6.5544    2.9307 C   0  0  0  0  0  0  0  0  0  0  0  0
    2.5671    6.6569    3.6634 C   0  0  0  0  0  0  0  0  0  0  0  0
    1.3017    5.9521    3.3499 C   0  0  0  0  0  0  0  0  0  0  0  0
    1.1639    4.9590    2.6002 O   0  0  0  0  0  0  0  0  0  0  0  0
    0.2145    6.6490    4.0065 C   0  0  0  0  0  0  0  0  0  0  0  0
   -1.1547    6.4124    3.8417 C   0  0  0  0  0  0  0  0  0  0  0  0
   -2.0543    7.3008    4.4349 C   0  0  0  0  0  0  0  0  0  0  0  0
   -3.3923    7.1043    4.2779 F   0  0  0  0  0  0  0  0  0  0  0  0
   -1.5765    8.4176    5.1392 C   0  0  0  0  0  0  0  0  0  0  0  0
   -2.4430    9.3414    5.6069 F   0  0  0  0  0  0  0  0  0  0  0  0
   -0.1903    8.6335    5.3077 C   0  0  0  0  0  0  0  0  0  0  0  0
    0.7113    7.7223    4.7265 C   0  0  0  0  0  0  0  0  0  0  0  0
    2.2085    7.7222    4.6418 C   0  0  0  0  0  0  0  0  0  0  0  0
    3.0689    8.3855    5.4618 C   0  0  0  0  0  0  0  0  0  0  0  0
    4.4729    8.0936    5.4972 C   0  0  0  0  0  0  0  0  0  0  0  0
    5.6084    7.8514    5.5524 N   0  0  0  0  0  0  0  0  0  0  0  0
    2.6186    9.2985    6.4867 C   0  0  0  0  0  0  0  0  0  0  0  0
    2.2677   10.0214    7.3229 N   0  0  0  0  0  0  0  0  0  0  0  0
   -7.4991   -7.0640    0.0641 H   0  0  0  0  0  0  0  0  0  0  0  0
   -6.8709   -9.3578   -5.7166 H   0  0  0  0  0  0  0  0  0  0  0  0
   -6.7630  -12.7625   -6.5325 H   0  0  0  0  0  0  0  0  0  0  0  0
   -8.5019  -12.3203   -6.7074 H   0  0  0  0  0  0  0  0  0  0  0  0
   -7.2207  -11.1624   -7.2298 H   0  0  0  0  0  0  0  0  0  0  0  0
   -8.0286  -12.2555   -1.8355 H   0  0  0  0  0  0  0  0  0  0  0  0
   -5.0452   -5.7593    0.1294 H   0  0  0  0  0  0  0  0  0  0  0  0
   -6.8121   -3.3417   -3.8781 H   0  0  0  0  0  0  0  0  0  0  0  0
   -8.0452   -5.3034   -2.9720 H   0  0  0  0  0  0  0  0  0  0  0  0
   -4.9848   -1.5315   -4.5562 H   0  0  0  0  0  0  0  0  0  0  0  0
   -2.9583   -0.0963   -4.7916 H   0  0  0  0  0  0  0  0  0  0  0  0
   -1.3674   -1.7714   -1.1142 H   0  0  0  0  0  0  0  0  0  0  0  0
   -2.7346    4.8481   -2.3001 H   0  0  0  0  0  0  0  0  0  0  0  0
   -1.8285    6.9743   -3.1761 H   0  0  0  0  0  0  0  0  0  0  0  0
    2.1513    6.4156   -4.2778 H   0  0  0  0  0  0  0  0  0  0  0  0
    1.2331    7.3014   -2.9698 H   0  0  0  0  0  0  0  0  0  0  0  0
    2.2877    8.2072   -4.1294 H   0  0  0  0  0  0  0  0  0  0  0  0
    0.4959    4.7995   -6.0686 H   0  0  0  0  0  0  0  0  0  0  0  0
   -0.4180    2.6815   -5.2202 H   0  0  0  0  0  0  0  0  0  0  0  0
   -3.0711    1.6861   -0.6441 H   0  0  0  0  0  0  0  0  0  0  0  0
   -5.4877    1.4484   -0.1585 H   0  0  0  0  0  0  0  0  0  0  0  0
   -7.2233    4.0472   -1.4575 H   0  0  0  0  0  0  0  0  0  0  0  0
   -8.3352    3.7972   -2.9095 H   0  0  0  0  0  0  0  0  0  0  0  0
   -9.0016    3.7372   -1.2561 H   0  0  0  0  0  0  0  0  0  0  0  0
   -6.3870    2.1506   -4.3066 H   0  0  0  0  0  0  0  0  0  0  0  0
   -3.9917    2.4524   -4.7903 H   0  0  0  0  0  0  0  0  0  0  0  0
    4.7852    0.0157    0.8953 H   0  0  0  0  0  0  0  0  0  0  0  0
    4.9820   -2.2991    1.7518 H   0  0  0  0  0  0  0  0  0  0  0  0
    2.4082   -3.8779    2.1414 H   0  0  0  0  0  0  0  0  0  0  0  0
    1.6854   -4.4701    0.5933 H   0  0  0  0  0  0  0  0  0  0  0  0
    2.1432   -5.6359    1.8901 H   0  0  0  0  0  0  0  0  0  0  0  0
    3.2517   -3.7839   -1.8834 H   0  0  0  0  0  0  0  0  0  0  0  0
    3.2181   -1.5012   -2.7940 H   0  0  0  0  0  0  0  0  0  0  0  0
    3.9444    3.1554   -2.8665 H   0  0  0  0  0  0  0  0  0  0  0  0
    5.8871    4.0735   -3.9828 H   0  0  0  0  0  0  0  0  0  0  0  0
   10.4046    4.0388   -3.4256 H   0  0  0  0  0  0  0  0  0  0  0  0
    8.8819    4.3038   -2.5089 H   0  0  0  0  0  0  0  0  0  0  0  0
    9.7064    2.6722   -2.4652 H   0  0  0  0  0  0  0  0  0  0  0  0
    8.1104    0.4863   -3.1255 H   0  0  0  0  0  0  0  0  0  0  0  0
    6.2209   -0.4105   -1.8947 H   0  0  0  0  0  0  0  0  0  0  0  0
    6.7760    3.0186    8.7971 H   0  0  0  0  0  0  0  0  0  0  0  0
    5.8489    1.7118    9.6222 H   0  0  0  0  0  0  0  0  0  0  0  0
    7.1759   -0.0034    8.2931 H   0  0  0  0  0  0  0  0  0  0  0  0
    8.2314    1.0594    9.3048 H   0  0  0  0  0  0  0  0  0  0  0  0
    8.1071    1.3518    7.5219 H   0  0  0  0  0  0  0  0  0  0  0  0
    4.6859   -3.7753    4.7011 H   0  0  0  0  0  0  0  0  0  0  0  0
    2.9438   -4.2227    4.8150 H   0  0  0  0  0  0  0  0  0  0  0  0
    4.4003   -2.3590    6.8174 H   0  0  0  0  0  0  0  0  0  0  0  0
    2.7115   -2.9729    6.9359 H   0  0  0  0  0  0  0  0  0  0  0  0
    4.1040   -4.1161    7.0615 H   0  0  0  0  0  0  0  0  0  0  0  0
    4.4907    7.2685    3.0567 H   0  0  0  0  0  0  0  0  0  0  0  0
   -1.4981    5.5798    3.2427 H   0  0  0  0  0  0  0  0  0  0  0  0
    0.1374    9.5219    5.8010 H   0  0  0  0  0  0  0  0  0  0  0  0
  1  2  2  3
  2  3  1  0
  3  4  2  0
  3  5  1  0
  5  6  2  0
  6  7  1  0
  7  8  1  0
  7  9  2  0
  9 10  1  0
  9 11  1  0
 11 12  2  0
 12 13  1  0
 13 14  2  3
 14 15  1  0
 15 16  3  0
 14 17  1  0
 17 18  3  0
  1 19  1  0
 19 20  2  0
 20 21  1  0
 21 22  1  0
 22 23  2  0
 22 24  1  0
 24 25  2  0
 25 26  1  0
 26 27  1  0
 27 28  2  0
 25 29  1  0
 29 30  2  0
 30 31  1  0
 31 32  2  0
 31 33  1  0
 33 34  2  0
 34 35  1  0
 35 36  1  0
 36 37  2  0
 37 38  1  0
 38 39  2  0
 39 40  1  0
 40 41  1  0
 39 42  1  0
 42 43  2  0
 35 44  1  0
 44 45  2  0
 45 46  1  0
 46 47  2  0
 47 48  1  0
 48 49  1  0
 47 50  1  0
 50 51  2  0
 34 52  1  0
 52 53  1  0
 53 54  1  0
 54 55  2  0
 55 56  1  0
 56 57  1  0
 57 58  2  0
 58 59  1  0
 59 60  2  0
 60 61  1  0
 61 62  1  0
 60 63  1  0
 63 64  2  0
 56 65  1  0
 65 66  2  0
 66 67  1  0
 67 68  2  0
 68 69  1  0
 69 70  1  0
 68 71  1  0
 71 72  2  0
 55 73  1  0
 73 74  1  0
 54 75  1  0
 75 76  2  0
 76 77  1  0
 76 78  1  0
 78 79  1  0
 78 80  2  0
 80 81  1  0
 81 82  2  0
 82 83  1  0
 83 84  1  0
 84 85  1  0
 85 86  1  0
 86 87  1  0
 87 88  1  0
 86 89  2  0
 89 90  1  0
 90 91  1  0
 89 92  1  0
 83 93  2  0
 93 94  1  0
 94 95  2  0
 93 96  1  0
 96 97  1  0
 97 98  1  0
 98 99  1  0
 99100  1  0
 98101  2  0
101102  1  0
101103  1  0
103104  1  0
 80105  1  0
105106  2  3
106107  1  0
107108  2  0
107109  1  0
109110  2  0
110111  1  0
111112  1  0
111113  2  0
113114  1  0
113115  1  0
115116  2  0
116117  1  0
117118  2  3
118119  1  0
119120  3  0
118121  1  0
121122  3  0
 13  2  1  0
 28 19  1  0
 74 33  1  0
 95 75  1  0
103 96  2  0
117106  1  0
 12  5  1  0
 26 21  2  0
 43 36  1  0
 51 44  1  0
 73 52  2  0
 95 81  1  0
116109  1  0
 32 24  1  0
 64 57  1  0
 72 65  1  0
 90 84  2  0
  1123  1  0
  6124  1  0
  8125  1  0
  8126  1  0
  8127  1  0
 11128  1  0
 20129  1  0
 27130  1  0
 28131  1  0
 29132  1  0
 30133  1  0
 32134  1  0
 37135  1  0
 38136  1  0
 41137  1  0
 41138  1  0
 41139  1  0
 42140  1  0
 43141  1  0
 45142  1  0
 46143  1  0
 49144  1  0
 49145  1  0
 49146  1  0
 50147  1  0
 51148  1  0
 58149  1  0
 59150  1  0
 62151  1  0
 62152  1  0
 62153  1  0
 63154  1  0
 64155  1  0
 66156  1  0
 67157  1  0
 70158  1  0
 70159  1  0
 70160  1  0
 71161  1  0
 72162  1  0
 87163  1  0
 87164  1  0
 88165  1  0
 88166  1  0
 88167  1  0
 99168  1  0
 99169  1  0
100170  1  0
100171  1  0
100172  1  0
105173  1  0
110174  1  0
115175  1  0
M  END

