
     RDKit          3D

155169  0  0  0  0  0  0  0  0999 V2000
   -6.2716    0.1142   -7.3621 C   0  0  0  0  0  0  0  0  0  0  0  0
   -5.3650   -0.8202   -7.7268 C   0  0  0  0  0  0  0  0  0  0  0  0
   -4.1409   -1.1585   -6.9822 C   0  0  0  0  0  0  0  0  0  0  0  0
   -3.6229   -0.4984   -6.0468 O   0  0  0  0  0  0  0  0  0  0  0  0
   -3.6140   -2.3934   -7.5070 C   0  0  0  0  0  0  0  0  0  0  0  0
   -2.5401   -3.1400   -7.0179 C   0  0  0  0  0  0  0  0  0  0  0  0
   -2.2292   -4.3642   -7.6403 C   0  0  0  0  0  0  0  0  0  0  0  0
   -1.1081   -5.2154   -7.1078 C   0  0  0  0  0  0  0  0  0  0  0  0
   -3.0233   -4.8155   -8.7178 C   0  0  0  0  0  0  0  0  0  0  0  0
   -2.7599   -6.0097   -9.3050 F   0  0  0  0  0  0  0  0  0  0  0  0
   -4.1032   -4.0458   -9.1870 C   0  0  0  0  0  0  0  0  0  0  0  0
   -4.3787   -2.8086   -8.5812 C   0  0  0  0  0  0  0  0  0  0  0  0
   -5.4466   -1.8044   -8.8519 C   0  0  0  0  0  0  0  0  0  0  0  0
   -6.1739   -1.6903   -9.9950 C   0  0  0  0  0  0  0  0  0  0  0  0
   -7.0355   -0.5654  -10.2564 C   0  0  0  0  0  0  0  0  0  0  0  0
   -7.7285    0.3338  -10.4922 N   0  0  0  0  0  0  0  0  0  0  0  0
   -6.0153   -2.5850  -11.1080 C   0  0  0  0  0  0  0  0  0  0  0  0
   -5.8887   -3.2950  -12.0120 N   0  0  0  0  0  0  0  0  0  0  0  0
   -6.0815    0.9727   -6.1820 C   0  0  0  0  0  0  0  0  0  0  0  0
   -6.0876    0.3996   -4.8975 C   0  0  0  0  0  0  0  0  0  0  0  0
   -5.6366    1.1707   -3.8271 C   0  0  0  0  0  0  0  0  0  0  0  0
   -5.2143    0.7220   -2.5091 C   0  0  0  0  0  0  0  0  0  0  0  0
   -5.3913   -0.4190   -2.0068 O   0  0  0  0  0  0  0  0  0  0  0  0
   -4.4657    1.8218   -1.9229 C   0  0  0  0  0  0  0  0  0  0  0  0
   -4.4727    2.8832   -2.8067 C   0  0  0  0  0  0  0  0  0  0  0  0
   -5.2071    2.4768   -4.0053 C   0  0  0  0  0  0  0  0  0  0  0  0
   -5.2715    3.0881   -5.2562 C   0  0  0  0  0  0  0  0  0  0  0  0
   -5.7260    2.3297   -6.3479 C   0  0  0  0  0  0  0  0  0  0  0  0
   -3.6571    3.9918   -2.5966 C   0  0  0  0  0  0  0  0  0  0  0  0
   -2.8034    3.9949   -1.4775 C   0  0  0  0  0  0  0  0  0  0  0  0
   -2.7487    2.8825   -0.5937 C   0  0  0  0  0  0  0  0  0  0  0  0
   -3.6120    1.7873   -0.8279 C   0  0  0  0  0  0  0  0  0  0  0  0
   -1.7081    2.8456    0.4760 C   0  0  0  0  0  0  0  0  0  0  0  0
   -1.7028    2.1058    1.6776 C   0  0  0  0  0  0  0  0  0  0  0  0
   -2.5607    0.9870    1.9591 N   0  0  0  0  0  0  0  0  0  0  0  0
   -2.1904   -0.3518    1.5180 C   0  0  0  0  0  0  0  0  0  0  0  0
   -3.0301   -1.4510    1.7876 C   0  0  0  0  0  0  0  0  0  0  0  0
   -2.6774   -2.7375    1.3744 C   0  0  0  0  0  0  0  0  0  0  0  0
   -1.4865   -2.9551    0.6723 C   0  0  0  0  0  0  0  0  0  0  0  0
   -1.0112   -4.6198    0.1849 S   0  0  0  0  0  0  0  0  0  0  0  0
   -1.8733   -4.5318   -1.4149 C   0  0  0  0  0  0  0  0  0  0  0  0
   -0.6536   -1.8781    0.3772 C   0  0  0  0  0  0  0  0  0  0  0  0
   -1.0038   -0.5874    0.7851 C   0  0  0  0  0  0  0  0  0  0  0  0
   -3.5228    1.1670    3.0117 C   0  0  0  0  0  0  0  0  0  0  0  0
   -3.2596    0.6888    4.3051 C   0  0  0  0  0  0  0  0  0  0  0  0
   -4.2144    0.8214    5.3099 C   0  0  0  0  0  0  0  0  0  0  0  0
   -5.4453    1.4288    5.0322 C   0  0  0  0  0  0  0  0  0  0  0  0
   -6.6988    1.5373    6.3118 S   0  0  0  0  0  0  0  0  0  0  0  0
   -7.4069   -0.0848    5.8957 C   0  0  0  0  0  0  0  0  0  0  0  0
   -5.7070    1.9208    3.7494 C   0  0  0  0  0  0  0  0  0  0  0  0
   -4.7425    1.7944    2.7405 C   0  0  0  0  0  0  0  0  0  0  0  0
   -0.5016    2.2638    2.3673 C   0  0  0  0  0  0  0  0  0  0  0  0
    0.1964    1.2812    3.5195 S   0  0  0  0  0  0  0  0  0  0  0  0
    1.7848    1.7790    3.2055 C   0  0  0  0  0  0  0  0  0  0  0  0
    1.7767    2.7347    2.1619 C   0  0  0  0  0  0  0  0  0  0  0  0
    2.9283    3.0665    1.3590 N   0  0  0  0  0  0  0  0  0  0  0  0
    3.0770    4.3980    0.8328 C   0  0  0  0  0  0  0  0  0  0  0  0
    2.9566    5.5142    1.6799 C   0  0  0  0  0  0  0  0  0  0  0  0
    3.0935    6.8085    1.1684 C   0  0  0  0  0  0  0  0  0  0  0  0
    3.3042    7.0019   -0.2035 C   0  0  0  0  0  0  0  0  0  0  0  0
    3.5125    8.6531   -0.8664 S   0  0  0  0  0  0  0  0  0  0  0  0
    1.7297    9.0196   -0.8863 C   0  0  0  0  0  0  0  0  0  0  0  0
    3.3868    5.8987   -1.0597 C   0  0  0  0  0  0  0  0  0  0  0  0
    3.2902    4.5988   -0.5410 C   0  0  0  0  0  0  0  0  0  0  0  0
    3.7889    2.0091    0.8880 C   0  0  0  0  0  0  0  0  0  0  0  0
    5.1686    2.0595    1.1290 C   0  0  0  0  0  0  0  0  0  0  0  0
    5.9764    0.9669    0.8157 C   0  0  0  0  0  0  0  0  0  0  0  0
    5.4151   -0.1764    0.2390 C   0  0  0  0  0  0  0  0  0  0  0  0
    6.4381   -1.5970   -0.1472 S   0  0  0  0  0  0  0  0  0  0  0  0
    6.9756   -0.9352   -1.7568 C   0  0  0  0  0  0  0  0  0  0  0  0
    4.0479   -0.2140   -0.0411 C   0  0  0  0  0  0  0  0  0  0  0  0
    3.2347    0.8659    0.2888 C   0  0  0  0  0  0  0  0  0  0  0  0
    0.4586    2.9954    1.7462 C   0  0  0  0  0  0  0  0  0  0  0  0
   -0.1724    3.5791    0.3117 S   0  0  0  0  0  0  0  0  0  0  0  0
    2.9231    1.0003    3.7129 C   0  0  0  0  0  0  0  0  0  0  0  0
    4.1480    1.4671    4.1675 C   0  0  0  0  0  0  0  0  0  0  0  0
    4.9760    0.4484    4.6936 C   0  0  0  0  0  0  0  0  0  0  0  0
    6.2613    0.7395    5.3720 C   0  0  0  0  0  0  0  0  0  0  0  0
    6.3792    1.8538    6.2228 C   0  0  0  0  0  0  0  0  0  0  0  0
    7.5798    2.1257    6.8838 C   0  0  0  0  0  0  0  0  0  0  0  0
    8.6888    1.2947    6.6886 C   0  0  0  0  0  0  0  0  0  0  0  0
    8.5831    0.1861    5.8464 C   0  0  0  0  0  0  0  0  0  0  0  0
    7.3789   -0.0893    5.1870 C   0  0  0  0  0  0  0  0  0  0  0  0
    4.3994   -0.8259    4.6146 C   0  0  0  0  0  0  0  0  0  0  0  0
    2.8542   -0.6490    3.9754 S   0  0  0  0  0  0  0  0  0  0  0  0
    4.8573   -2.0655    5.2734 C   0  0  0  0  0  0  0  0  0  0  0  0
    4.5476   -3.3004    4.8171 C   0  0  0  0  0  0  0  0  0  0  0  0
    4.2313   -3.6280    3.4212 C   0  0  0  0  0  0  0  0  0  0  0  0
    4.2230   -2.8264    2.4488 O   0  0  0  0  0  0  0  0  0  0  0  0
    4.0968   -5.0583    3.2987 C   0  0  0  0  0  0  0  0  0  0  0  0
    3.7362   -5.7884    2.1669 C   0  0  0  0  0  0  0  0  0  0  0  0
    3.5818   -7.1818    2.2743 C   0  0  0  0  0  0  0  0  0  0  0  0
    3.1513   -7.9725    1.0734 C   0  0  0  0  0  0  0  0  0  0  0  0
    3.7356   -7.7978    3.5382 C   0  0  0  0  0  0  0  0  0  0  0  0
    3.5188   -9.1286    3.6823 F   0  0  0  0  0  0  0  0  0  0  0  0
    4.0946   -7.0377    4.6652 C   0  0  0  0  0  0  0  0  0  0  0  0
    4.3042   -5.6559    4.5284 C   0  0  0  0  0  0  0  0  0  0  0  0
    4.6131   -4.6105    5.5525 C   0  0  0  0  0  0  0  0  0  0  0  0
    4.8464   -4.8071    6.8764 C   0  0  0  0  0  0  0  0  0  0  0  0
    5.0316   -6.1091    7.4517 C   0  0  0  0  0  0  0  0  0  0  0  0
    5.1766   -7.1566    7.9263 N   0  0  0  0  0  0  0  0  0  0  0  0
    4.8738   -3.7325    7.8286 C   0  0  0  0  0  0  0  0  0  0  0  0
    4.8818   -2.8720    8.6089 N   0  0  0  0  0  0  0  0  0  0  0  0
   -7.1854    0.2568   -7.9055 H   0  0  0  0  0  0  0  0  0  0  0  0
   -1.9734   -2.7896   -6.1625 H   0  0  0  0  0  0  0  0  0  0  0  0
   -0.5120   -5.6335   -7.9444 H   0  0  0  0  0  0  0  0  0  0  0  0
   -0.4308   -4.6226   -6.4592 H   0  0  0  0  0  0  0  0  0  0  0  0
   -1.5355   -6.0495   -6.5153 H   0  0  0  0  0  0  0  0  0  0  0  0
   -4.7163   -4.4496   -9.9707 H   0  0  0  0  0  0  0  0  0  0  0  0
   -6.3071   -0.6575   -4.7538 H   0  0  0  0  0  0  0  0  0  0  0  0
   -4.9055    4.0986   -5.4000 H   0  0  0  0  0  0  0  0  0  0  0  0
   -5.7107    2.7702   -7.3407 H   0  0  0  0  0  0  0  0  0  0  0  0
   -3.6376    4.8112   -3.3035 H   0  0  0  0  0  0  0  0  0  0  0  0
   -2.1475    4.8420   -1.3274 H   0  0  0  0  0  0  0  0  0  0  0  0
   -3.5802    0.8866   -0.2490 H   0  0  0  0  0  0  0  0  0  0  0  0
   -3.9560   -1.3244    2.3310 H   0  0  0  0  0  0  0  0  0  0  0  0
   -3.3278   -3.5746    1.6070 H   0  0  0  0  0  0  0  0  0  0  0  0
   -1.4717   -3.6952   -2.0196 H   0  0  0  0  0  0  0  0  0  0  0  0
   -2.9604   -4.3825   -1.2527 H   0  0  0  0  0  0  0  0  0  0  0  0
   -1.7196   -5.4820   -1.9671 H   0  0  0  0  0  0  0  0  0  0  0  0
    0.2706   -2.0330   -0.1623 H   0  0  0  0  0  0  0  0  0  0  0  0
   -0.3346    0.2227    0.5276 H   0  0  0  0  0  0  0  0  0  0  0  0
   -2.3204    0.1968    4.5222 H   0  0  0  0  0  0  0  0  0  0  0  0
   -4.0122    0.4318    6.2982 H   0  0  0  0  0  0  0  0  0  0  0  0
   -8.3065   -0.2571    6.5237 H   0  0  0  0  0  0  0  0  0  0  0  0
   -6.6636   -0.8770    6.1048 H   0  0  0  0  0  0  0  0  0  0  0  0
   -7.7003   -0.1146    4.8258 H   0  0  0  0  0  0  0  0  0  0  0  0
   -6.6643    2.3826    3.5265 H   0  0  0  0  0  0  0  0  0  0  0  0
   -4.9637    2.1584    1.7476 H   0  0  0  0  0  0  0  0  0  0  0  0
    2.7828    5.3730    2.7376 H   0  0  0  0  0  0  0  0  0  0  0  0
    3.0305    7.6562    1.8348 H   0  0  0  0  0  0  0  0  0  0  0  0
    1.5588    9.9375   -1.4844 H   0  0  0  0  0  0  0  0  0  0  0  0
    1.3755    9.1961    0.1483 H   0  0  0  0  0  0  0  0  0  0  0  0
    1.1593    8.1825   -1.3448 H   0  0  0  0  0  0  0  0  0  0  0  0
    3.5501    6.0415   -2.1158 H   0  0  0  0  0  0  0  0  0  0  0  0
    3.3572    3.7584   -1.2179 H   0  0  0  0  0  0  0  0  0  0  0  0
    5.6052    2.9337    1.6038 H   0  0  0  0  0  0  0  0  0  0  0  0
    7.0393    1.0018    1.0278 H   0  0  0  0  0  0  0  0  0  0  0  0
    7.5058   -1.7278   -2.3179 H   0  0  0  0  0  0  0  0  0  0  0  0
    6.1117   -0.5862   -2.3597 H   0  0  0  0  0  0  0  0  0  0  0  0
    7.6758   -0.0874   -1.5899 H   0  0  0  0  0  0  0  0  0  0  0  0
    3.6053   -1.1045   -0.4821 H   0  0  0  0  0  0  0  0  0  0  0  0
    2.1721    0.8108    0.0971 H   0  0  0  0  0  0  0  0  0  0  0  0
    4.4208    2.5108    4.1535 H   0  0  0  0  0  0  0  0  0  0  0  0
    5.5334    2.5058    6.3994 H   0  0  0  0  0  0  0  0  0  0  0  0
    7.6564    2.9799    7.5447 H   0  0  0  0  0  0  0  0  0  0  0  0
    9.6173    1.5051    7.2040 H   0  0  0  0  0  0  0  0  0  0  0  0
    9.4423   -0.4620    5.7045 H   0  0  0  0  0  0  0  0  0  0  0  0
    7.3250   -0.9491    4.5328 H   0  0  0  0  0  0  0  0  0  0  0  0
    5.3818   -1.9392    6.1984 H   0  0  0  0  0  0  0  0  0  0  0  0
    3.5727   -5.2884    1.2203 H   0  0  0  0  0  0  0  0  0  0  0  0
    3.3423   -9.0600    1.2083 H   0  0  0  0  0  0  0  0  0  0  0  0
    3.7215   -7.6407    0.1798 H   0  0  0  0  0  0  0  0  0  0  0  0
    2.0671   -7.8120    0.8919 H   0  0  0  0  0  0  0  0  0  0  0  0
    4.1664   -7.5461    5.6103 H   0  0  0  0  0  0  0  0  0  0  0  0
  1  2  2  3
  2  3  1  0
  3  4  2  0
  3  5  1  0
  5  6  2  0
  6  7  1  0
  7  8  1  0
  7  9  2  0
  9 10  1  0
  9 11  1  0
 11 12  2  0
 12 13  1  0
 13 14  2  3
 14 15  1  0
 15 16  3  0
 14 17  1  0
 17 18  3  0
  1 19  1  0
 19 20  2  0
 20 21  1  0
 21 22  1  0
 22 23  2  0
 22 24  1  0
 24 25  2  0
 25 26  1  0
 26 27  1  0
 27 28  2  0
 25 29  1  0
 29 30  2  0
 30 31  1  0
 31 32  2  0
 31 33  1  0
 33 34  2  0
 34 35  1  0
 35 36  1  0
 36 37  2  0
 37 38  1  0
 38 39  2  0
 39 40  1  0
 40 41  1  0
 39 42  1  0
 42 43  2  0
 35 44  1  0
 44 45  2  0
 45 46  1  0
 46 47  2  0
 47 48  1  0
 48 49  1  0
 47 50  1  0
 50 51  2  0
 34 52  1  0
 52 53  1  0
 53 54  1  0
 54 55  2  0
 55 56  1  0
 56 57  1  0
 57 58  2  0
 58 59  1  0
 59 60  2  0
 60 61  1  0
 61 62  1  0
 60 63  1  0
 63 64  2  0
 56 65  1  0
 65 66  2  0
 66 67  1  0
 67 68  2  0
 68 69  1  0
 69 70  1  0
 68 71  1  0
 71 72  2  0
 55 73  1  0
 73 74  1  0
 54 75  1  0
 75 76  2  0
 76 77  1  0
 77 78  1  0
 78 79  2  0
 79 80  1  0
 80 81  2  0
 81 82  1  0
 82 83  2  0
 77 84  2  0
 84 85  1  0
 84 86  1  0
 86 87  2  3
 87 88  1  0
 88 89  2  0
 88 90  1  0
 90 91  2  0
 91 92  1  0
 92 93  1  0
 92 94  2  0
 94 95  1  0
 94 96  1  0
 96 97  2  0
 97 98  1  0
 98 99  2  3
 99100  1  0
100101  3  0
 99102  1  0
102103  3  0
 13  2  1  0
 28 19  1  0
 74 33  1  0
 85 75  1  0
 98 87  1  0
 12  5  1  0
 26 21  2  0
 43 36  1  0
 51 44  1  0
 73 52  2  0
 83 78  1  0
 97 90  1  0
 32 24  1  0
 64 57  1  0
 72 65  1  0
  1104  1  0
  6105  1  0
  8106  1  0
  8107  1  0
  8108  1  0
 11109  1  0
 20110  1  0
 27111  1  0
 28112  1  0
 29113  1  0
 30114  1  0
 32115  1  0
 37116  1  0
 38117  1  0
 41118  1  0
 41119  1  0
 41120  1  0
 42121  1  0
 43122  1  0
 45123  1  0
 46124  1  0
 49125  1  0
 49126  1  0
 49127  1  0
 50128  1  0
 51129  1  0
 58130  1  0
 59131  1  0
 62132  1  0
 62133  1  0
 62134  1  0
 63135  1  0
 64136  1  0
 66137  1  0
 67138  1  0
 70139  1  0
 70140  1  0
 70141  1  0
 71142  1  0
 72143  1  0
 76144  1  0
 79145  1  0
 80146  1  0
 81147  1  0
 82148  1  0
 83149  1  0
 86150  1  0
 91151  1  0
 93152  1  0
 93153  1  0
 93154  1  0
 96155  1  0
M  END

