
     RDKit          3D

147162  0  0  0  0  0  0  0  0999 V2000
   -6.5017   -6.3012   -2.0419 C   0  0  0  0  0  0  0  0  0  0  0  0
   -6.5714   -7.4257   -1.2939 C   0  0  0  0  0  0  0  0  0  0  0  0
   -5.4699   -8.3719   -1.0962 C   0  0  0  0  0  0  0  0  0  0  0  0
   -4.4589   -8.5084   -1.8380 O   0  0  0  0  0  0  0  0  0  0  0  0
   -5.7705   -9.1952    0.0497 C   0  0  0  0  0  0  0  0  0  0  0  0
   -4.9628  -10.1682    0.6355 C   0  0  0  0  0  0  0  0  0  0  0  0
   -5.4219  -10.8283    1.7873 C   0  0  0  0  0  0  0  0  0  0  0  0
   -4.5638  -11.8827    2.4183 C   0  0  0  0  0  0  0  0  0  0  0  0
   -6.6735  -10.4680    2.3411 C   0  0  0  0  0  0  0  0  0  0  0  0
   -7.1281  -11.0578    3.4772 F   0  0  0  0  0  0  0  0  0  0  0  0
   -7.4657   -9.4806    1.7338 C   0  0  0  0  0  0  0  0  0  0  0  0
   -7.0179   -8.8621    0.5510 C   0  0  0  0  0  0  0  0  0  0  0  0
   -7.6467   -7.8094   -0.3116 C   0  0  0  0  0  0  0  0  0  0  0  0
   -8.9279   -7.3591   -0.2534 C   0  0  0  0  0  0  0  0  0  0  0  0
   -9.4827   -6.4574   -1.2278 C   0  0  0  0  0  0  0  0  0  0  0  0
   -9.9107   -5.7084   -1.9973 N   0  0  0  0  0  0  0  0  0  0  0  0
   -9.8344   -7.7355    0.7913 C   0  0  0  0  0  0  0  0  0  0  0  0
  -10.5698   -8.0136    1.6469 N   0  0  0  0  0  0  0  0  0  0  0  0
   -5.2466   -5.7124   -2.5485 C   0  0  0  0  0  0  0  0  0  0  0  0
   -4.1246   -5.6061   -1.6973 C   0  0  0  0  0  0  0  0  0  0  0  0
   -3.0540   -4.8192   -2.0951 C   0  0  0  0  0  0  0  0  0  0  0  0
   -1.9445   -4.3437   -1.2866 C   0  0  0  0  0  0  0  0  0  0  0  0
   -1.6584   -4.7059   -0.1108 O   0  0  0  0  0  0  0  0  0  0  0  0
   -1.3401   -3.2498   -2.0260 C   0  0  0  0  0  0  0  0  0  0  0  0
   -2.0043   -3.1015   -3.2325 C   0  0  0  0  0  0  0  0  0  0  0  0
   -3.0809   -4.0987   -3.2781 C   0  0  0  0  0  0  0  0  0  0  0  0
   -4.1688   -4.1890   -4.1457 C   0  0  0  0  0  0  0  0  0  0  0  0
   -5.2567   -5.0061   -3.7771 C   0  0  0  0  0  0  0  0  0  0  0  0
   -1.7897   -1.9812   -4.0346 C   0  0  0  0  0  0  0  0  0  0  0  0
   -0.9139   -0.9815   -3.5655 C   0  0  0  0  0  0  0  0  0  0  0  0
   -0.2943   -1.0953   -2.2953 C   0  0  0  0  0  0  0  0  0  0  0  0
   -0.4952   -2.2653   -1.5357 C   0  0  0  0  0  0  0  0  0  0  0  0
    0.3693    0.0896   -1.6975 C   0  0  0  0  0  0  0  0  0  0  0  0
    1.3939    0.1356   -0.7197 C   0  0  0  0  0  0  0  0  0  0  0  0
    1.9786   -0.9965   -0.0562 N   0  0  0  0  0  0  0  0  0  0  0  0
    1.4401   -1.4813    1.2078 C   0  0  0  0  0  0  0  0  0  0  0  0
    2.0115   -2.5950    1.8540 C   0  0  0  0  0  0  0  0  0  0  0  0
    1.4297   -3.1316    3.0013 C   0  0  0  0  0  0  0  0  0  0  0  0
    0.2600   -2.5738    3.5224 C   0  0  0  0  0  0  0  0  0  0  0  0
   -0.5319   -3.3205    4.9495 S   0  0  0  0  0  0  0  0  0  0  0  0
   -1.4990   -4.4898    3.9435 C   0  0  0  0  0  0  0  0  0  0  0  0
   -0.3125   -1.4591    2.9050 C   0  0  0  0  0  0  0  0  0  0  0  0
    0.2715   -0.9123    1.7593 C   0  0  0  0  0  0  0  0  0  0  0  0
    3.2663   -1.4279   -0.5207 C   0  0  0  0  0  0  0  0  0  0  0  0
    4.4303   -1.0461    0.1674 C   0  0  0  0  0  0  0  0  0  0  0  0
    5.6782   -1.5165   -0.2446 C   0  0  0  0  0  0  0  0  0  0  0  0
    5.7707   -2.3873   -1.3389 C   0  0  0  0  0  0  0  0  0  0  0  0
    7.3664   -3.0496   -1.8316 S   0  0  0  0  0  0  0  0  0  0  0  0
    7.2630   -4.4602   -0.6840 C   0  0  0  0  0  0  0  0  0  0  0  0
    4.6135   -2.7572   -2.0383 C   0  0  0  0  0  0  0  0  0  0  0  0
    3.3635   -2.2782   -1.6326 C   0  0  0  0  0  0  0  0  0  0  0  0
    1.6335    1.4387   -0.2967 C   0  0  0  0  0  0  0  0  0  0  0  0
    2.6020    2.1111    0.8891 S   0  0  0  0  0  0  0  0  0  0  0  0
    1.9681    3.6819    0.6959 C   0  0  0  0  0  0  0  0  0  0  0  0
    0.9776    3.6706   -0.3042 C   0  0  0  0  0  0  0  0  0  0  0  0
   -0.0173    4.6918   -0.4526 N   0  0  0  0  0  0  0  0  0  0  0  0
   -0.9941    4.7609    0.5978 C   0  0  0  0  0  0  0  0  0  0  0  0
   -0.8925    5.7413    1.5968 C   0  0  0  0  0  0  0  0  0  0  0  0
   -1.8661    5.8301    2.5968 C   0  0  0  0  0  0  0  0  0  0  0  0
   -2.9442    4.9372    2.6025 C   0  0  0  0  0  0  0  0  0  0  0  0
   -4.1777    5.0236    3.9060 S   0  0  0  0  0  0  0  0  0  0  0  0
   -5.3018    6.0837    2.9396 C   0  0  0  0  0  0  0  0  0  0  0  0
   -3.0472    3.9584    1.6061 C   0  0  0  0  0  0  0  0  0  0  0  0
   -2.0816    3.8761    0.6042 C   0  0  0  0  0  0  0  0  0  0  0  0
   -0.2758    5.3245   -1.7330 C   0  0  0  0  0  0  0  0  0  0  0  0
    0.5514    5.0782   -2.8506 C   0  0  0  0  0  0  0  0  0  0  0  0
    0.2920    5.6868   -4.0804 C   0  0  0  0  0  0  0  0  0  0  0  0
   -0.7996    6.5439   -4.2219 C   0  0  0  0  0  0  0  0  0  0  0  0
   -1.1398    7.3069   -5.8084 S   0  0  0  0  0  0  0  0  0  0  0  0
   -2.2528    5.9695   -6.3542 C   0  0  0  0  0  0  0  0  0  0  0  0
   -1.6163    6.8232   -3.1206 C   0  0  0  0  0  0  0  0  0  0  0  0
   -1.3573    6.2178   -1.8899 C   0  0  0  0  0  0  0  0  0  0  0  0
    0.8446    2.3931   -0.8471 C   0  0  0  0  0  0  0  0  0  0  0  0
   -0.2081    1.6787   -1.9353 S   0  0  0  0  0  0  0  0  0  0  0  0
    2.6148    4.8706    1.2873 C   0  0  0  0  0  0  0  0  0  0  0  0
    3.1102    5.8878    0.4520 C   0  0  0  0  0  0  0  0  0  0  0  0
    4.0462    6.8356    0.9307 C   0  0  0  0  0  0  0  0  0  0  0  0
    4.5988    7.6947   -0.0710 N   0  0  0  0  0  0  0  0  0  0  0  0
    3.8663    7.1382   -1.3696 S   0  0  0  0  0  4  0  0  0  0  0  0
    2.9031    5.9396   -0.9610 N   0  0  0  0  0  0  0  0  0  0  0  0
    4.5376    6.7694    2.2450 C   0  0  0  0  0  0  0  0  0  0  0  0
    3.9633    5.8355    3.1207 C   0  0  0  0  0  0  0  0  0  0  0  0
    4.3315    5.7240    4.4239 N   0  0  0  0  0  0  0  0  0  0  0  0
    3.4034    4.4342    4.8859 S   0  0  0  0  0  0  0  0  0  0  0  0
    2.5557    3.9753    3.5414 N   0  0  0  0  0  0  0  0  0  0  0  0
    3.0076    4.8846    2.6413 C   0  0  0  0  0  0  0  0  0  0  0  0
    5.7496    7.5208    2.6212 C   0  0  0  0  0  0  0  0  0  0  0  0
    6.9387    7.2957    2.0204 C   0  0  0  0  0  0  0  0  0  0  0  0
    7.2365    6.1399    1.1538 C   0  0  0  0  0  0  0  0  0  0  0  0
    6.4597    5.1893    0.8704 O   0  0  0  0  0  0  0  0  0  0  0  0
    8.6198    6.2031    0.7561 C   0  0  0  0  0  0  0  0  0  0  0  0
    9.3280    5.2862   -0.0188 C   0  0  0  0  0  0  0  0  0  0  0  0
   10.6961    5.4961   -0.2270 C   0  0  0  0  0  0  0  0  0  0  0  0
   11.5841    4.3475   -1.2225 Cl  0  0  0  0  0  0  0  0  0  0  0  0
   11.3371    6.6075    0.3680 C   0  0  0  0  0  0  0  0  0  0  0  0
   13.2109    6.9184    0.1213 Br  0  0  0  0  0  0  0  0  0  0  0  0
   10.6021    7.5047    1.1652 C   0  0  0  0  0  0  0  0  0  0  0  0
    9.2197    7.3097    1.3299 C   0  0  0  0  0  0  0  0  0  0  0  0
    8.2049    8.0950    2.1015 C   0  0  0  0  0  0  0  0  0  0  0  0
    8.3479    9.3678    2.5568 C   0  0  0  0  0  0  0  0  0  0  0  0
    7.2818   10.0986    3.1905 C   0  0  0  0  0  0  0  0  0  0  0  0
    6.4339   10.7064    3.6919 N   0  0  0  0  0  0  0  0  0  0  0  0
    9.5251   10.1549    2.2916 C   0  0  0  0  0  0  0  0  0  0  0  0
   10.4498   10.8098    2.0642 N   0  0  0  0  0  0  0  0  0  0  0  0
   -7.3539   -5.6594   -2.1516 H   0  0  0  0  0  0  0  0  0  0  0  0
   -3.9958  -10.4038    0.2028 H   0  0  0  0  0  0  0  0  0  0  0  0
   -4.3532  -12.6760    1.6748 H   0  0  0  0  0  0  0  0  0  0  0  0
   -3.6072  -11.4358    2.7599 H   0  0  0  0  0  0  0  0  0  0  0  0
   -5.0629  -12.3519    3.2935 H   0  0  0  0  0  0  0  0  0  0  0  0
   -8.3980   -9.2233    2.2090 H   0  0  0  0  0  0  0  0  0  0  0  0
   -4.1335   -6.0251   -0.6962 H   0  0  0  0  0  0  0  0  0  0  0  0
   -4.2161   -3.5869   -5.0479 H   0  0  0  0  0  0  0  0  0  0  0  0
   -6.1364   -5.0341   -4.4078 H   0  0  0  0  0  0  0  0  0  0  0  0
   -2.3344   -1.8444   -4.9623 H   0  0  0  0  0  0  0  0  0  0  0  0
   -0.7712   -0.0886   -4.1646 H   0  0  0  0  0  0  0  0  0  0  0  0
   -0.1321   -2.3795   -0.5355 H   0  0  0  0  0  0  0  0  0  0  0  0
    2.8921   -3.0814    1.4582 H   0  0  0  0  0  0  0  0  0  0  0  0
    1.8772   -3.9970    3.4753 H   0  0  0  0  0  0  0  0  0  0  0  0
   -2.0968   -3.9427    3.1802 H   0  0  0  0  0  0  0  0  0  0  0  0
   -0.8202   -5.2014    3.4337 H   0  0  0  0  0  0  0  0  0  0  0  0
   -2.1841   -5.0536    4.6043 H   0  0  0  0  0  0  0  0  0  0  0  0
   -1.2249   -1.0270    3.2990 H   0  0  0  0  0  0  0  0  0  0  0  0
   -0.2088   -0.0574    1.2987 H   0  0  0  0  0  0  0  0  0  0  0  0
    4.3617   -0.3997    1.0344 H   0  0  0  0  0  0  0  0  0  0  0  0
    6.5673   -1.2364    0.3034 H   0  0  0  0  0  0  0  0  0  0  0  0
    7.2450   -4.0942    0.3625 H   0  0  0  0  0  0  0  0  0  0  0  0
    6.3473   -5.0524   -0.8875 H   0  0  0  0  0  0  0  0  0  0  0  0
    8.1527   -5.1064   -0.8307 H   0  0  0  0  0  0  0  0  0  0  0  0
    4.6773   -3.4211   -2.8900 H   0  0  0  0  0  0  0  0  0  0  0  0
    2.4702   -2.5808   -2.1644 H   0  0  0  0  0  0  0  0  0  0  0  0
   -0.0689    6.4473    1.5813 H   0  0  0  0  0  0  0  0  0  0  0  0
   -1.7716    6.5836    3.3687 H   0  0  0  0  0  0  0  0  0  0  0  0
   -5.7799    5.4896    2.1366 H   0  0  0  0  0  0  0  0  0  0  0  0
   -4.7406    6.9372    2.5026 H   0  0  0  0  0  0  0  0  0  0  0  0
   -6.0950    6.4783    3.6113 H   0  0  0  0  0  0  0  0  0  0  0  0
   -3.8681    3.2554    1.6113 H   0  0  0  0  0  0  0  0  0  0  0  0
   -2.1756    3.1190   -0.1667 H   0  0  0  0  0  0  0  0  0  0  0  0
    1.4034    4.4219   -2.7769 H   0  0  0  0  0  0  0  0  0  0  0  0
    0.9319    5.4732   -4.9308 H   0  0  0  0  0  0  0  0  0  0  0  0
   -1.6799    5.0274   -6.4949 H   0  0  0  0  0  0  0  0  0  0  0  0
   -2.7128    6.2597   -7.3232 H   0  0  0  0  0  0  0  0  0  0  0  0
   -3.0594    5.8086   -5.6104 H   0  0  0  0  0  0  0  0  0  0  0  0
   -2.4565    7.4966   -3.2217 H   0  0  0  0  0  0  0  0  0  0  0  0
   -2.0129    6.4572   -1.0586 H   0  0  0  0  0  0  0  0  0  0  0  0
    5.6496    8.2312    3.4211 H   0  0  0  0  0  0  0  0  0  0  0  0
    8.8257    4.4260   -0.4466 H   0  0  0  0  0  0  0  0  0  0  0  0
   11.1266    8.3078    1.6474 H   0  0  0  0  0  0  0  0  0  0  0  0
  1  2  2  3
  2  3  1  0
  3  4  2  0
  3  5  1  0
  5  6  2  0
  6  7  1  0
  7  8  1  0
  7  9  2  0
  9 10  1  0
  9 11  1  0
 11 12  2  0
 12 13  1  0
 13 14  2  3
 14 15  1  0
 15 16  3  0
 14 17  1  0
 17 18  3  0
  1 19  1  0
 19 20  2  0
 20 21  1  0
 21 22  1  0
 22 23  2  0
 22 24  1  0
 24 25  2  0
 25 26  1  0
 26 27  1  0
 27 28  2  0
 25 29  1  0
 29 30  2  0
 30 31  1  0
 31 32  2  0
 31 33  1  0
 33 34  2  0
 34 35  1  0
 35 36  1  0
 36 37  2  0
 37 38  1  0
 38 39  2  0
 39 40  1  0
 40 41  1  0
 39 42  1  0
 42 43  2  0
 35 44  1  0
 44 45  2  0
 45 46  1  0
 46 47  2  0
 47 48  1  0
 48 49  1  0
 47 50  1  0
 50 51  2  0
 34 52  1  0
 52 53  1  0
 53 54  1  0
 54 55  2  0
 55 56  1  0
 56 57  1  0
 57 58  2  0
 58 59  1  0
 59 60  2  0
 60 61  1  0
 61 62  1  0
 60 63  1  0
 63 64  2  0
 56 65  1  0
 65 66  2  0
 66 67  1  0
 67 68  2  0
 68 69  1  0
 69 70  1  0
 68 71  1  0
 71 72  2  0
 55 73  1  0
 73 74  1  0
 54 75  1  0
 75 76  2  0
 76 77  1  0
 77 78  1  0
 78 79  2  0
 79 80  2  0
 77 81  2  0
 81 82  1  0
 82 83  2  0
 83 84  1  0
 84 85  1  0
 85 86  2  0
 81 87  1  0
 87 88  2  3
 88 89  1  0
 89 90  2  0
 89 91  1  0
 91 92  2  0
 92 93  1  0
 93 94  1  0
 93 95  2  0
 95 96  1  0
 95 97  1  0
 97 98  2  0
 98 99  1  0
 99100  2  3
100101  1  0
101102  3  0
100103  1  0
103104  3  0
 13  2  1  0
 28 19  1  0
 74 33  1  0
 86 75  1  0
 99 88  1  0
 12  5  1  0
 26 21  2  0
 43 36  1  0
 51 44  1  0
 73 52  2  0
 80 76  1  0
 86 82  1  0
 98 91  1  0
 32 24  1  0
 64 57  1  0
 72 65  1  0
  1105  1  0
  6106  1  0
  8107  1  0
  8108  1  0
  8109  1  0
 11110  1  0
 20111  1  0
 27112  1  0
 28113  1  0
 29114  1  0
 30115  1  0
 32116  1  0
 37117  1  0
 38118  1  0
 41119  1  0
 41120  1  0
 41121  1  0
 42122  1  0
 43123  1  0
 45124  1  0
 46125  1  0
 49126  1  0
 49127  1  0
 49128  1  0
 50129  1  0
 51130  1  0
 58131  1  0
 59132  1  0
 62133  1  0
 62134  1  0
 62135  1  0
 63136  1  0
 64137  1  0
 66138  1  0
 67139  1  0
 70140  1  0
 70141  1  0
 70142  1  0
 71143  1  0
 72144  1  0
 87145  1  0
 92146  1  0
 97147  1  0
M  END

