
     RDKit          3D

158172  0  0  0  0  0  0  0  0999 V2000
   -6.5480   -6.7344    7.0505 C   0  0  0  0  0  0  0  0  0  0  0  0
   -5.7623   -6.6722    8.1407 C   0  0  0  0  0  0  0  0  0  0  0  0
   -5.9961   -7.4891    9.3313 C   0  0  0  0  0  0  0  0  0  0  0  0
   -7.0816   -8.0506    9.6421 O   0  0  0  0  0  0  0  0  0  0  0  0
   -4.7327   -7.6483   10.0243 C   0  0  0  0  0  0  0  0  0  0  0  0
   -4.4258   -8.5046   11.0791 C   0  0  0  0  0  0  0  0  0  0  0  0
   -3.0871   -8.6037   11.5057 C   0  0  0  0  0  0  0  0  0  0  0  0
   -2.7150   -9.5599   12.5994 C   0  0  0  0  0  0  0  0  0  0  0  0
   -2.0826   -7.8812   10.8154 C   0  0  0  0  0  0  0  0  0  0  0  0
   -0.7782   -8.0142   11.1701 F   0  0  0  0  0  0  0  0  0  0  0  0
   -2.4172   -7.0339    9.7467 C   0  0  0  0  0  0  0  0  0  0  0  0
   -3.7592   -6.9085    9.3723 C   0  0  0  0  0  0  0  0  0  0  0  0
   -4.3790   -6.1340    8.2693 C   0  0  0  0  0  0  0  0  0  0  0  0
   -3.9470   -4.9370    7.7978 C   0  0  0  0  0  0  0  0  0  0  0  0
   -2.6403   -4.4170    8.1029 C   0  0  0  0  0  0  0  0  0  0  0  0
   -1.5937   -3.9877    8.3459 N   0  0  0  0  0  0  0  0  0  0  0  0
   -4.8143   -4.0566    7.0545 C   0  0  0  0  0  0  0  0  0  0  0  0
   -5.5072   -3.3500    6.4581 N   0  0  0  0  0  0  0  0  0  0  0  0
   -6.0830   -6.4640    5.6814 C   0  0  0  0  0  0  0  0  0  0  0  0
   -4.5088   -6.7573    5.0992 S   0  0  0  0  0  0  0  0  0  0  0  0
   -4.8713   -6.2832    3.5395 C   0  0  0  0  0  0  0  0  0  0  0  0
   -4.0505   -5.9449    2.3885 C   0  0  0  0  0  0  0  0  0  0  0  0
   -4.7071   -5.2834    1.3841 C   0  0  0  0  0  0  0  0  0  0  0  0
   -6.5663   -5.0120    1.7925 Ge  0  0  0  0  0  4  0  0  0  0  0  0
   -7.0244   -3.1320    2.0258 C   0  0  0  0  0  0  0  0  0  0  0  0
   -5.9180   -2.3963    2.7673 C   0  0  0  0  0  0  0  0  0  0  0  0
   -7.7901   -6.0455    0.6850 C   0  0  0  0  0  0  0  0  0  0  0  0
   -7.9884   -5.3749   -0.6703 C   0  0  0  0  0  0  0  0  0  0  0  0
   -6.1749   -5.8852    3.4526 C   0  0  0  0  0  0  0  0  0  0  0  0
   -6.8928   -6.0038    4.6415 C   0  0  0  0  0  0  0  0  0  0  0  0
   -3.8677   -4.6260    0.4862 C   0  0  0  0  0  0  0  0  0  0  0  0
   -2.5166   -4.7950    0.8234 C   0  0  0  0  0  0  0  0  0  0  0  0
   -2.4013   -5.7098    2.2513 S   0  0  0  0  0  0  0  0  0  0  0  0
   -1.3890   -4.0590    0.2332 C   0  0  0  0  0  0  0  0  0  0  0  0
   -1.4199   -3.3055   -0.9383 C   0  0  0  0  0  0  0  0  0  0  0  0
   -0.2514   -2.5508   -1.1306 C   0  0  0  0  0  0  0  0  0  0  0  0
   -0.0043   -1.6316   -2.1756 C   0  0  0  0  0  0  0  0  0  0  0  0
   -0.9796   -1.3698   -3.2600 C   0  0  0  0  0  0  0  0  0  0  0  0
   -0.5918   -1.5245   -4.5978 C   0  0  0  0  0  0  0  0  0  0  0  0
   -1.4740   -1.2113   -5.6289 C   0  0  0  0  0  0  0  0  0  0  0  0
   -2.7751   -0.7526   -5.3441 C   0  0  0  0  0  0  0  0  0  0  0  0
   -3.6844   -0.4126   -6.3647 O   0  0  0  0  0  0  0  0  0  0  0  0
   -3.4681   -0.5635   -7.7675 C   0  0  0  0  0  0  0  0  0  0  0  0
   -3.6098   -2.0243   -8.1843 C   0  0  0  0  0  0  0  0  0  0  0  0
   -3.1829   -0.6131   -4.0006 C   0  0  0  0  0  0  0  0  0  0  0  0
   -4.5692   -0.1046   -3.6811 C   0  0  0  0  0  0  0  0  0  0  0  0
   -4.8319   -0.1447   -2.3216 F   0  0  0  0  0  0  0  0  0  0  0  0
   -5.5102   -0.8840   -4.3269 F   0  0  0  0  0  0  0  0  0  0  0  0
   -4.6873    1.2025   -4.1151 F   0  0  0  0  0  0  0  0  0  0  0  0
   -2.2687   -0.9080   -2.9672 C   0  0  0  0  0  0  0  0  0  0  0  0
    1.1915   -0.8922   -2.0934 C   0  0  0  0  0  0  0  0  0  0  0  0
    2.1270   -1.0640   -1.0650 C   0  0  0  0  0  0  0  0  0  0  0  0
    1.9032   -2.0194   -0.0575 C   0  0  0  0  0  0  0  0  0  0  0  0
    2.8485   -2.2178    1.0617 C   0  0  0  0  0  0  0  0  0  0  0  0
    2.4971   -1.8237    2.3568 C   0  0  0  0  0  0  0  0  0  0  0  0
    3.3689   -2.0511    3.4218 C   0  0  0  0  0  0  0  0  0  0  0  0
    4.6078   -2.6876    3.2088 C   0  0  0  0  0  0  0  0  0  0  0  0
    5.5007   -2.9375    4.2642 O   0  0  0  0  0  0  0  0  0  0  0  0
    5.2889   -2.5367    5.6186 C   0  0  0  0  0  0  0  0  0  0  0  0
    6.4636   -2.9847    6.4692 C   0  0  0  0  0  0  0  0  0  0  0  0
    4.9659   -3.0936    1.9032 C   0  0  0  0  0  0  0  0  0  0  0  0
    4.0841   -2.8393    0.8355 C   0  0  0  0  0  0  0  0  0  0  0  0
    6.2884   -3.7869    1.6655 C   0  0  0  0  0  0  0  0  0  0  0  0
    7.3239   -2.9272    1.9848 F   0  0  0  0  0  0  0  0  0  0  0  0
    6.4323   -4.1765    0.3429 F   0  0  0  0  0  0  0  0  0  0  0  0
    6.3721   -4.9150    2.4613 F   0  0  0  0  0  0  0  0  0  0  0  0
    0.6959   -2.7359   -0.1174 C   0  0  0  0  0  0  0  0  0  0  0  0
    0.0943   -3.8289    1.0057 S   0  0  0  0  0  0  0  0  0  0  0  0
    3.1636   -0.1158   -1.0960 C   0  0  0  0  0  0  0  0  0  0  0  0
    3.0127    0.8110   -2.1284 C   0  0  0  0  0  0  0  0  0  0  0  0
    1.6294    0.4375   -3.0167 S   0  0  0  0  0  0  0  0  0  0  0  0
    3.7680    2.0610   -2.2913 C   0  0  0  0  0  0  0  0  0  0  0  0
    3.1757    3.3940   -3.1634 S   0  0  0  0  0  0  0  0  0  0  0  0
    4.4693    4.3671   -2.7648 C   0  0  0  0  0  0  0  0  0  0  0  0
    4.8045    5.7464   -3.0426 C   0  0  0  0  0  0  0  0  0  0  0  0
    5.9885    6.1725   -2.5113 C   0  0  0  0  0  0  0  0  0  0  0  0
    6.8746    4.7905   -1.5086 Ge  0  0  0  0  0  4  0  0  0  0  0  0
    8.5299    4.2030   -2.3590 C   0  0  0  0  0  0  0  0  0  0  0  0
    8.2442    3.6296   -3.7428 C   0  0  0  0  0  0  0  0  0  0  0  0
    6.9668    5.2168    0.3934 C   0  0  0  0  0  0  0  0  0  0  0  0
    8.3177    4.8272    0.9757 C   0  0  0  0  0  0  0  0  0  0  0  0
    5.3648    3.6960   -1.9778 C   0  0  0  0  0  0  0  0  0  0  0  0
    4.9905    2.3864   -1.6832 C   0  0  0  0  0  0  0  0  0  0  0  0
    6.2858    7.5110   -2.7708 C   0  0  0  0  0  0  0  0  0  0  0  0
    5.2496    8.1188   -3.4916 C   0  0  0  0  0  0  0  0  0  0  0  0
    4.0251    6.9842   -3.8401 S   0  0  0  0  0  0  0  0  0  0  0  0
    5.2573    9.4781   -4.0407 C   0  0  0  0  0  0  0  0  0  0  0  0
    4.2095   10.3092   -3.8928 C   0  0  0  0  0  0  0  0  0  0  0  0
    3.0714   10.0541   -3.0069 C   0  0  0  0  0  0  0  0  0  0  0  0
    3.0984    9.3791   -1.9417 O   0  0  0  0  0  0  0  0  0  0  0  0
    1.9092   10.7236   -3.5448 C   0  0  0  0  0  0  0  0  0  0  0  0
    0.5884   10.6138   -3.1110 C   0  0  0  0  0  0  0  0  0  0  0  0
   -0.4180   11.2748   -3.8400 C   0  0  0  0  0  0  0  0  0  0  0  0
   -1.8528   11.1436   -3.4250 C   0  0  0  0  0  0  0  0  0  0  0  0
   -0.0640   12.0642   -4.9609 C   0  0  0  0  0  0  0  0  0  0  0  0
   -1.0217   12.7227   -5.6653 F   0  0  0  0  0  0  0  0  0  0  0  0
    1.2789   12.1599   -5.3763 C   0  0  0  0  0  0  0  0  0  0  0  0
    2.2721   11.4665   -4.6585 C   0  0  0  0  0  0  0  0  0  0  0  0
    3.7476   11.3394   -4.8821 C   0  0  0  0  0  0  0  0  0  0  0  0
    4.5137   12.0149   -5.7794 C   0  0  0  0  0  0  0  0  0  0  0  0
    3.9421   12.7511   -6.8747 C   0  0  0  0  0  0  0  0  0  0  0  0
    3.4805   13.3096   -7.7840 N   0  0  0  0  0  0  0  0  0  0  0  0
    5.9604   11.9674   -5.7354 C   0  0  0  0  0  0  0  0  0  0  0  0
    7.1078   11.8544   -5.7026 N   0  0  0  0  0  0  0  0  0  0  0  0
   -7.5433   -7.1515    7.1460 H   0  0  0  0  0  0  0  0  0  0  0  0
   -5.2075   -9.1007   11.5427 H   0  0  0  0  0  0  0  0  0  0  0  0
   -2.3807  -10.5207   12.1529 H   0  0  0  0  0  0  0  0  0  0  0  0
   -3.5820   -9.7600   13.2590 H   0  0  0  0  0  0  0  0  0  0  0  0
   -1.8921   -9.1415   13.2183 H   0  0  0  0  0  0  0  0  0  0  0  0
   -1.6295   -6.5389    9.1994 H   0  0  0  0  0  0  0  0  0  0  0  0
   -7.9691   -3.0658    2.6038 H   0  0  0  0  0  0  0  0  0  0  0  0
   -7.1729   -2.6682    1.0295 H   0  0  0  0  0  0  0  0  0  0  0  0
   -6.1992   -1.3283    2.8966 H   0  0  0  0  0  0  0  0  0  0  0  0
   -4.9707   -2.4365    2.1890 H   0  0  0  0  0  0  0  0  0  0  0  0
   -5.7545   -2.8522    3.7668 H   0  0  0  0  0  0  0  0  0  0  0  0
   -7.3726   -7.0622    0.5425 H   0  0  0  0  0  0  0  0  0  0  0  0
   -8.7656   -6.1195    1.2062 H   0  0  0  0  0  0  0  0  0  0  0  0
   -8.4600   -4.3772   -0.5374 H   0  0  0  0  0  0  0  0  0  0  0  0
   -7.0122   -5.2573   -1.1905 H   0  0  0  0  0  0  0  0  0  0  0  0
   -8.6552   -6.0015   -1.2955 H   0  0  0  0  0  0  0  0  0  0  0  0
   -7.9278   -5.7051    4.7566 H   0  0  0  0  0  0  0  0  0  0  0  0
   -4.2277   -3.9637   -0.2868 H   0  0  0  0  0  0  0  0  0  0  0  0
   -2.2743   -3.2792   -1.6014 H   0  0  0  0  0  0  0  0  0  0  0  0
    0.4056   -1.8711   -4.8455 H   0  0  0  0  0  0  0  0  0  0  0  0
   -1.1238   -1.3198   -6.6463 H   0  0  0  0  0  0  0  0  0  0  0  0
   -4.2412    0.0260   -8.3004 H   0  0  0  0  0  0  0  0  0  0  0  0
   -2.4790   -0.1561   -8.0688 H   0  0  0  0  0  0  0  0  0  0  0  0
   -2.7922   -2.6353   -7.7560 H   0  0  0  0  0  0  0  0  0  0  0  0
   -3.5656   -2.1022   -9.2918 H   0  0  0  0  0  0  0  0  0  0  0  0
   -4.5812   -2.4250   -7.8315 H   0  0  0  0  0  0  0  0  0  0  0  0
   -2.5492   -0.7625   -1.9326 H   0  0  0  0  0  0  0  0  0  0  0  0
    1.5448   -1.3471    2.5446 H   0  0  0  0  0  0  0  0  0  0  0  0
    3.0672   -1.7340    4.4099 H   0  0  0  0  0  0  0  0  0  0  0  0
    4.3580   -3.0066    6.0097 H   0  0  0  0  0  0  0  0  0  0  0  0
    5.1931   -1.4312    5.6714 H   0  0  0  0  0  0  0  0  0  0  0  0
    7.4053   -2.5419    6.0801 H   0  0  0  0  0  0  0  0  0  0  0  0
    6.3160   -2.6535    7.5188 H   0  0  0  0  0  0  0  0  0  0  0  0
    6.5485   -4.0911    6.4495 H   0  0  0  0  0  0  0  0  0  0  0  0
    4.3400   -3.1380   -0.1738 H   0  0  0  0  0  0  0  0  0  0  0  0
    3.9400   -0.0516   -0.3438 H   0  0  0  0  0  0  0  0  0  0  0  0
    9.0079    3.4251   -1.7241 H   0  0  0  0  0  0  0  0  0  0  0  0
    9.2162    5.0727   -2.4527 H   0  0  0  0  0  0  0  0  0  0  0  0
    9.1999    3.3502   -4.2368 H   0  0  0  0  0  0  0  0  0  0  0  0
    7.7220    4.3772   -4.3764 H   0  0  0  0  0  0  0  0  0  0  0  0
    7.6168    2.7197   -3.6540 H   0  0  0  0  0  0  0  0  0  0  0  0
    6.1579    4.6726    0.9226 H   0  0  0  0  0  0  0  0  0  0  0  0
    6.8085    6.3079    0.5229 H   0  0  0  0  0  0  0  0  0  0  0  0
    9.1308    5.3855    0.4623 H   0  0  0  0  0  0  0  0  0  0  0  0
    8.4838    3.7351    0.8572 H   0  0  0  0  0  0  0  0  0  0  0  0
    8.3396    5.0771    2.0588 H   0  0  0  0  0  0  0  0  0  0  0  0
    5.5652    1.7166   -1.0607 H   0  0  0  0  0  0  0  0  0  0  0  0
    7.1921    8.0074   -2.4529 H   0  0  0  0  0  0  0  0  0  0  0  0
    6.0331    9.6674   -4.7662 H   0  0  0  0  0  0  0  0  0  0  0  0
    0.3458   10.0023   -2.2477 H   0  0  0  0  0  0  0  0  0  0  0  0
   -1.9970   10.2637   -2.7591 H   0  0  0  0  0  0  0  0  0  0  0  0
   -2.5018   11.0033   -4.3164 H   0  0  0  0  0  0  0  0  0  0  0  0
   -2.1662   12.0602   -2.8857 H   0  0  0  0  0  0  0  0  0  0  0  0
    1.5002   12.7510   -6.2466 H   0  0  0  0  0  0  0  0  0  0  0  0
  1  2  2  3
  2  3  1  0
  3  4  2  0
  3  5  1  0
  5  6  2  0
  6  7  1  0
  7  8  1  0
  7  9  2  0
  9 10  1  0
  9 11  1  0
 11 12  2  0
 12 13  1  0
 13 14  2  3
 14 15  1  0
 15 16  3  0
 14 17  1  0
 17 18  3  0
  1 19  1  0
 19 20  1  0
 20 21  1  0
 21 22  1  0
 22 23  2  0
 23 24  1  0
 24 25  1  0
 25 26  1  0
 24 27  1  0
 27 28  1  0
 24 29  1  0
 29 30  1  0
 23 31  1  0
 31 32  2  0
 32 33  1  0
 32 34  1  0
 34 35  2  0
 35 36  1  0
 36 37  2  0
 37 38  1  0
 38 39  2  0
 39 40  1  0
 40 41  2  0
 41 42  1  0
 42 43  1  0
 43 44  1  0
 41 45  1  0
 45 46  1  0
 46 47  1  0
 46 48  1  0
 46 49  1  0
 45 50  2  0
 37 51  1  0
 51 52  2  0
 52 53  1  0
 53 54  1  0
 54 55  2  0
 55 56  1  0
 56 57  2  0
 57 58  1  0
 58 59  1  0
 59 60  1  0
 57 61  1  0
 61 62  2  0
 61 63  1  0
 63 64  1  0
 63 65  1  0
 63 66  1  0
 53 67  2  0
 67 68  1  0
 52 69  1  0
 69 70  2  0
 70 71  1  0
 70 72  1  0
 72 73  1  0
 73 74  1  0
 74 75  1  0
 75 76  2  0
 76 77  1  0
 77 78  1  0
 78 79  1  0
 77 80  1  0
 80 81  1  0
 77 82  1  0
 82 83  1  0
 76 84  1  0
 84 85  2  0
 85 86  1  0
 85 87  1  0
 87 88  2  3
 88 89  1  0
 89 90  2  0
 89 91  1  0
 91 92  2  0
 92 93  1  0
 93 94  1  0
 93 95  2  0
 95 96  1  0
 95 97  1  0
 97 98  2  0
 98 99  1  0
 99100  2  3
100101  1  0
101102  3  0
100103  1  0
103104  3  0
 13  2  1  0
 30 19  2  0
 68 34  1  0
 83 72  2  0
 99 88  1  0
 12  5  1  0
 29 21  2  0
 67 36  1  0
 82 74  2  0
 98 91  1  0
 33 22  1  0
 50 38  1  0
 71 51  1  0
 86 75  1  0
 62 54  1  0
  1105  1  0
  6106  1  0
  8107  1  0
  8108  1  0
  8109  1  0
 11110  1  0
 25111  1  0
 25112  1  0
 26113  1  0
 26114  1  0
 26115  1  0
 27116  1  0
 27117  1  0
 28118  1  0
 28119  1  0
 28120  1  0
 30121  1  0
 31122  1  0
 35123  1  0
 39124  1  0
 40125  1  0
 43126  1  0
 43127  1  0
 44128  1  0
 44129  1  0
 44130  1  0
 50131  1  0
 55132  1  0
 56133  1  0
 59134  1  0
 59135  1  0
 60136  1  0
 60137  1  0
 60138  1  0
 62139  1  0
 69140  1  0
 78141  1  0
 78142  1  0
 79143  1  0
 79144  1  0
 79145  1  0
 80146  1  0
 80147  1  0
 81148  1  0
 81149  1  0
 81150  1  0
 83151  1  0
 84152  1  0
 87153  1  0
 92154  1  0
 94155  1  0
 94156  1  0
 94157  1  0
 97158  1  0
M  END

