
     RDKit          3D

258279  0  0  0  0  0  0  0  0999 V2000
    1.3635    8.8673    1.8695 C   0  0  0  0  0  0  0  0  0  0  0  0
    2.6581    9.4085    1.6558 C   0  0  0  0  0  0  0  0  0  0  0  0
    3.9310    8.7432    1.2235 C   0  0  0  0  0  0  0  0  0  0  0  0
    4.4224    7.5792    1.4144 O   0  0  0  0  0  0  0  0  0  0  0  0
    4.8312    9.7117    0.7701 C   0  0  0  0  0  0  0  0  0  0  0  0
    5.8778    9.4877   -0.0395 C   0  0  0  0  0  0  0  0  0  0  0  0
    6.4268   10.5754   -0.6850 C   0  0  0  0  0  0  0  0  0  0  0  0
    7.3305   10.2095   -1.8199 C   0  0  0  0  0  0  0  0  0  0  0  0
    6.1558   11.8967   -0.2893 C   0  0  0  0  0  0  0  0  0  0  0  0
    6.6432   12.9748   -0.9937 F   0  0  0  0  0  0  0  0  0  0  0  0
    5.1804   12.1609    0.6576 C   0  0  0  0  0  0  0  0  0  0  0  0
    4.4755   11.0257    1.1713 C   0  0  0  0  0  0  0  0  0  0  0  0
    3.0771   10.9949    1.7013 C   0  0  0  0  0  0  0  0  0  0  0  0
    2.5138   12.1674    2.3206 C   0  0  0  0  0  0  0  0  0  0  0  0
    1.1131   12.5615    2.1759 C   0  0  0  0  0  0  0  0  0  0  0  0
   -0.0153   12.9695    1.9826 N   0  0  0  0  0  0  0  0  0  0  0  0
    3.4211   13.2130    2.8566 C   0  0  0  0  0  0  0  0  0  0  0  0
    4.2074   14.0615    3.1017 N   0  0  0  0  0  0  0  0  0  0  0  0
    0.9297    7.3828    1.9767 C   0  0  0  0  0  0  0  0  0  0  0  0
    0.9507    6.6087    3.1116 C   0  0  0  0  0  0  0  0  0  0  0  0
    0.1692    7.0949    4.2226 N   0  0  0  0  0  0  0  0  0  0  0  0
    0.8310    7.7050    5.3510 C   0  0  0  0  0  0  0  0  0  0  0  0
    0.0262    8.2941    6.4324 C   0  0  0  0  0  0  0  0  0  0  0  0
    0.5897    9.0121    7.4798 C   0  0  0  0  0  0  0  0  0  0  0  0
    2.0233    9.1249    7.5400 C   0  0  0  0  0  0  0  0  0  0  0  0
    2.8341    9.8763    8.9452 S   0  0  0  0  0  0  0  0  0  0  0  0
    4.0634    8.5227    9.2601 C   0  0  0  0  0  0  0  0  0  0  0  0
    2.7718    8.6119    6.4345 C   0  0  0  0  0  0  0  0  0  0  0  0
    2.2122    7.9037    5.3723 C   0  0  0  0  0  0  0  0  0  0  0  0
   -1.2291    7.2623    4.0022 C   0  0  0  0  0  0  0  0  0  0  0  0
   -2.0852    6.1428    4.1487 C   0  0  0  0  0  0  0  0  0  0  0  0
   -3.4314    6.2196    3.8365 C   0  0  0  0  0  0  0  0  0  0  0  0
   -4.0633    7.4078    3.3719 C   0  0  0  0  0  0  0  0  0  0  0  0
   -5.8471    7.5042    3.3752 S   0  0  0  0  0  0  0  0  0  0  0  0
   -6.2252    8.2721    1.7548 C   0  0  0  0  0  0  0  0  0  0  0  0
   -3.2144    8.5475    3.2474 C   0  0  0  0  0  0  0  0  0  0  0  0
   -1.8424    8.4798    3.5973 C   0  0  0  0  0  0  0  0  0  0  0  0
    1.2056    5.2365    2.8370 C   0  0  0  0  0  0  0  0  0  0  0  0
    0.6073    3.7630    3.4033 S   0  0  0  0  0  0  0  0  0  0  0  0
    1.1990    2.7810    2.1126 C   0  0  0  0  0  0  0  0  0  0  0  0
    1.8270    3.6221    1.1594 C   0  0  0  0  0  0  0  0  0  0  0  0
    3.3162    3.3018    1.0709 N   0  0  0  0  0  0  0  0  0  0  0  0
    4.0805    3.3903    2.2828 C   0  0  0  0  0  0  0  0  0  0  0  0
    4.2781    4.6544    2.8348 C   0  0  0  0  0  0  0  0  0  0  0  0
    4.7531    4.8225    4.0952 C   0  0  0  0  0  0  0  0  0  0  0  0
    5.1911    3.7111    4.8538 C   0  0  0  0  0  0  0  0  0  0  0  0
    5.9020    3.9620    6.4920 S   0  0  0  0  0  0  0  0  0  0  0  0
    4.7488    2.8069    7.4279 C   0  0  0  0  0  0  0  0  0  0  0  0
    5.2107    2.4095    4.2383 C   0  0  0  0  0  0  0  0  0  0  0  0
    4.6552    2.2420    2.9789 C   0  0  0  0  0  0  0  0  0  0  0  0
    3.9906    2.6458   -0.0911 C   0  0  0  0  0  0  0  0  0  0  0  0
    5.4286    2.6008   -0.1169 C   0  0  0  0  0  0  0  0  0  0  0  0
    6.1826    2.0877   -1.1582 C   0  0  0  0  0  0  0  0  0  0  0  0
    5.4932    1.6651   -2.3244 C   0  0  0  0  0  0  0  0  0  0  0  0
    6.4699    0.9389   -3.6359 S   0  0  0  0  0  0  0  0  0  0  0  0
    7.4161    2.4690   -4.0415 C   0  0  0  0  0  0  0  0  0  0  0  0
    4.0769    1.6952   -2.3411 C   0  0  0  0  0  0  0  0  0  0  0  0
    3.2924    2.1587   -1.2415 C   0  0  0  0  0  0  0  0  0  0  0  0
    1.4276    4.9574    1.5108 C   0  0  0  0  0  0  0  0  0  0  0  0
    0.5853    6.2186    0.6962 S   0  0  0  0  0  0  0  0  0  0  0  0
    0.5862    1.5662    1.6807 C   0  0  0  0  0  0  0  0  0  0  0  0
    1.2448    0.2882    1.5398 C   0  0  0  0  0  0  0  0  0  0  0  0
    2.0500   -0.3033    2.5729 N   0  0  0  0  0  0  0  0  0  0  0  0
    1.4036   -0.2608    3.8779 C   0  0  0  0  0  0  0  0  0  0  0  0
    0.1140   -0.7600    4.0513 C   0  0  0  0  0  0  0  0  0  0  0  0
   -0.5108   -0.7988    5.3195 C   0  0  0  0  0  0  0  0  0  0  0  0
    0.1788   -0.3092    6.4373 C   0  0  0  0  0  0  0  0  0  0  0  0
   -0.6735   -0.2262    8.0165 S   0  0  0  0  0  0  0  0  0  0  0  0
   -1.7930    1.1069    7.4210 C   0  0  0  0  0  0  0  0  0  0  0  0
    1.5253    0.0766    6.3174 C   0  0  0  0  0  0  0  0  0  0  0  0
    2.1641    0.0774    5.0514 C   0  0  0  0  0  0  0  0  0  0  0  0
    3.0063   -1.3995    2.3228 C   0  0  0  0  0  0  0  0  0  0  0  0
    3.0595   -2.5222    3.2188 C   0  0  0  0  0  0  0  0  0  0  0  0
    3.9253   -3.6137    2.9627 C   0  0  0  0  0  0  0  0  0  0  0  0
    4.6730   -3.6432    1.7775 C   0  0  0  0  0  0  0  0  0  0  0  0
    5.3291   -5.2313    1.2053 S   0  0  0  0  0  0  0  0  0  0  0  0
    6.8053   -5.4560    2.3178 C   0  0  0  0  0  0  0  0  0  0  0  0
    4.6114   -2.5453    0.8786 C   0  0  0  0  0  0  0  0  0  0  0  0
    3.7296   -1.4532    1.1246 C   0  0  0  0  0  0  0  0  0  0  0  0
    0.4034   -0.5610    0.7704 C   0  0  0  0  0  0  0  0  0  0  0  0
    0.4936   -2.0118   -0.0650 S   0  0  0  0  0  0  0  0  0  0  0  0
   -1.0570   -1.9735   -0.8334 C   0  0  0  0  0  0  0  0  0  0  0  0
   -1.7143   -0.7686   -0.4179 C   0  0  0  0  0  0  0  0  0  0  0  0
   -2.9839   -0.2850   -0.7845 N   0  0  0  0  0  0  0  0  0  0  0  0
   -2.9589    0.7210   -1.8838 C   0  0  0  0  0  0  0  0  0  0  0  0
   -3.7737    1.8758   -1.8671 C   0  0  0  0  0  0  0  0  0  0  0  0
   -3.7882    2.7597   -2.9262 C   0  0  0  0  0  0  0  0  0  0  0  0
   -2.8809    2.5615   -3.9805 C   0  0  0  0  0  0  0  0  0  0  0  0
   -3.0432    3.6709   -5.3859 S   0  0  0  0  0  0  0  0  0  0  0  0
   -1.3813    3.4943   -6.1818 C   0  0  0  0  0  0  0  0  0  0  0  0
   -2.1330    1.4136   -4.0115 C   0  0  0  0  0  0  0  0  0  0  0  0
   -2.0817    0.5287   -2.9056 C   0  0  0  0  0  0  0  0  0  0  0  0
   -4.1661   -0.5489    0.0268 C   0  0  0  0  0  0  0  0  0  0  0  0
   -4.6849   -1.8551    0.0992 C   0  0  0  0  0  0  0  0  0  0  0  0
   -5.8503   -2.1187    0.8608 C   0  0  0  0  0  0  0  0  0  0  0  0
   -6.4916   -1.0943    1.5809 C   0  0  0  0  0  0  0  0  0  0  0  0
   -8.0476   -1.3985    2.4299 S   0  0  0  0  0  0  0  0  0  0  0  0
   -7.4159   -1.5597    4.1649 C   0  0  0  0  0  0  0  0  0  0  0  0
   -5.9906    0.2171    1.5012 C   0  0  0  0  0  0  0  0  0  0  0  0
   -4.7890    0.4845    0.8112 C   0  0  0  0  0  0  0  0  0  0  0  0
   -0.8548    0.0316    0.3944 C   0  0  0  0  0  0  0  0  0  0  0  0
   -0.8460    1.6717    0.7972 S   0  0  0  0  0  0  0  0  0  0  0  0
   -1.5214   -3.1634   -1.5581 C   0  0  0  0  0  0  0  0  0  0  0  0
   -1.8659   -3.3152   -2.9612 C   0  0  0  0  0  0  0  0  0  0  0  0
   -2.6231   -2.4255   -3.7428 N   0  0  0  0  0  0  0  0  0  0  0  0
   -4.0521   -2.2160   -3.3985 C   0  0  0  0  0  0  0  0  0  0  0  0
   -4.8111   -3.3261   -2.9680 C   0  0  0  0  0  0  0  0  0  0  0  0
   -6.2111   -3.2464   -2.8365 C   0  0  0  0  0  0  0  0  0  0  0  0
   -6.9003   -2.0906   -3.2237 C   0  0  0  0  0  0  0  0  0  0  0  0
   -8.6749   -2.1753   -3.3497 S   0  0  0  0  0  0  0  0  0  0  0  0
   -9.0398   -0.6652   -2.3451 C   0  0  0  0  0  0  0  0  0  0  0  0
   -6.1750   -0.9658   -3.6972 C   0  0  0  0  0  0  0  0  0  0  0  0
   -4.7578   -1.0536   -3.8132 C   0  0  0  0  0  0  0  0  0  0  0  0
   -2.3620   -2.3576   -5.1924 C   0  0  0  0  0  0  0  0  0  0  0  0
   -1.0241   -2.3474   -5.6663 C   0  0  0  0  0  0  0  0  0  0  0  0
   -0.7663   -2.2805   -7.0519 C   0  0  0  0  0  0  0  0  0  0  0  0
   -1.8255   -2.2881   -7.9922 C   0  0  0  0  0  0  0  0  0  0  0  0
   -1.5096   -2.1753   -9.7530 S   0  0  0  0  0  0  0  0  0  0  0  0
   -3.0845   -1.3406  -10.2676 C   0  0  0  0  0  0  0  0  0  0  0  0
   -3.1310   -2.4990   -7.5136 C   0  0  0  0  0  0  0  0  0  0  0  0
   -3.3792   -2.5590   -6.1421 C   0  0  0  0  0  0  0  0  0  0  0  0
   -1.8459   -4.6985   -3.3256 C   0  0  0  0  0  0  0  0  0  0  0  0
   -1.4824   -5.5213   -4.7679 S   0  0  0  0  0  0  0  0  0  0  0  0
   -1.1543   -7.0163   -4.0388 C   0  0  0  0  0  0  0  0  0  0  0  0
   -1.3155   -6.9113   -2.6498 C   0  0  0  0  0  0  0  0  0  0  0  0
   -1.3292   -8.0268   -1.7488 N   0  0  0  0  0  0  0  0  0  0  0  0
   -0.7026   -7.8955   -0.4349 C   0  0  0  0  0  0  0  0  0  0  0  0
    0.6972   -7.6739   -0.3834 C   0  0  0  0  0  0  0  0  0  0  0  0
    1.3357   -7.7842    0.8651 C   0  0  0  0  0  0  0  0  0  0  0  0
    0.6015   -8.0483    2.0478 C   0  0  0  0  0  0  0  0  0  0  0  0
    1.4842   -8.4949    3.5760 S   0  0  0  0  0  0  0  0  0  0  0  0
    1.3055   -6.9425    4.5528 C   0  0  0  0  0  0  0  0  0  0  0  0
   -0.7782   -8.2493    1.9771 C   0  0  0  0  0  0  0  0  0  0  0  0
   -1.4369   -8.1162    0.7386 C   0  0  0  0  0  0  0  0  0  0  0  0
   -2.2210   -9.1666   -1.9216 C   0  0  0  0  0  0  0  0  0  0  0  0
   -3.6012   -8.9967   -2.3073 C   0  0  0  0  0  0  0  0  0  0  0  0
   -4.5008  -10.0580   -2.1163 C   0  0  0  0  0  0  0  0  0  0  0  0
   -4.1002  -11.2630   -1.4881 C   0  0  0  0  0  0  0  0  0  0  0  0
   -5.2142  -12.6434   -1.2847 S   0  0  0  0  0  0  0  0  0  0  0  0
   -5.8490  -12.1694    0.3645 C   0  0  0  0  0  0  0  0  0  0  0  0
   -2.7311  -11.4283   -1.1523 C   0  0  0  0  0  0  0  0  0  0  0  0
   -1.8293  -10.3990   -1.3707 C   0  0  0  0  0  0  0  0  0  0  0  0
   -1.6161   -5.6049   -2.2512 C   0  0  0  0  0  0  0  0  0  0  0  0
   -1.2035   -4.7044   -0.8982 S   0  0  0  0  0  0  0  0  0  0  0  0
   -0.6645   -8.2039   -4.7996 C   0  0  0  0  0  0  0  0  0  0  0  0
    0.4730   -8.2125   -5.5064 C   0  0  0  0  0  0  0  0  0  0  0  0
    1.6433   -7.3284   -5.2842 C   0  0  0  0  0  0  0  0  0  0  0  0
    1.7360   -6.3878   -4.4205 O   0  0  0  0  0  0  0  0  0  0  0  0
    2.7113   -7.7674   -6.1649 C   0  0  0  0  0  0  0  0  0  0  0  0
    3.9253   -7.1402   -6.4373 C   0  0  0  0  0  0  0  0  0  0  0  0
    4.7416   -7.6098   -7.5124 C   0  0  0  0  0  0  0  0  0  0  0  0
    6.0165   -6.9076   -7.8583 C   0  0  0  0  0  0  0  0  0  0  0  0
    4.3252   -8.7637   -8.2251 C   0  0  0  0  0  0  0  0  0  0  0  0
    5.0707   -9.2483   -9.2527 F   0  0  0  0  0  0  0  0  0  0  0  0
    3.0890   -9.4056   -7.9242 C   0  0  0  0  0  0  0  0  0  0  0  0
    2.2936   -8.9137   -6.8955 C   0  0  0  0  0  0  0  0  0  0  0  0
    0.8775   -9.2021   -6.5862 C   0  0  0  0  0  0  0  0  0  0  0  0
    0.0051   -9.8927   -7.3959 C   0  0  0  0  0  0  0  0  0  0  0  0
    0.4358  -10.8476   -8.3421 C   0  0  0  0  0  0  0  0  0  0  0  0
    0.7752  -11.6586   -9.1577 N   0  0  0  0  0  0  0  0  0  0  0  0
   -1.3263   -9.5009   -7.5681 C   0  0  0  0  0  0  0  0  0  0  0  0
   -2.4342   -9.1402   -7.7295 N   0  0  0  0  0  0  0  0  0  0  0  0
    0.6521    9.5403    2.4546 H   0  0  0  0  0  0  0  0  0  0  0  0
    6.2272    8.4957   -0.2887 H   0  0  0  0  0  0  0  0  0  0  0  0
    6.7015    9.5819   -2.5058 H   0  0  0  0  0  0  0  0  0  0  0  0
    7.6461   11.1077   -2.3835 H   0  0  0  0  0  0  0  0  0  0  0  0
    8.1763    9.5811   -1.4462 H   0  0  0  0  0  0  0  0  0  0  0  0
    4.7614   13.1371    0.7622 H   0  0  0  0  0  0  0  0  0  0  0  0
   -1.0486    8.2019    6.4505 H   0  0  0  0  0  0  0  0  0  0  0  0
   -0.0389    9.4621    8.2642 H   0  0  0  0  0  0  0  0  0  0  0  0
    4.9146    8.5870    8.5334 H   0  0  0  0  0  0  0  0  0  0  0  0
    3.6165    7.4996    9.2111 H   0  0  0  0  0  0  0  0  0  0  0  0
    4.5253    8.6392   10.2740 H   0  0  0  0  0  0  0  0  0  0  0  0
    3.7930    8.9067    6.3115 H   0  0  0  0  0  0  0  0  0  0  0  0
    2.8709    7.4931    4.6029 H   0  0  0  0  0  0  0  0  0  0  0  0
   -1.6540    5.2245    4.5815 H   0  0  0  0  0  0  0  0  0  0  0  0
   -4.0787    5.3104    4.0228 H   0  0  0  0  0  0  0  0  0  0  0  0
   -6.2694    9.3774    1.8942 H   0  0  0  0  0  0  0  0  0  0  0  0
   -5.5403    8.0260    0.9035 H   0  0  0  0  0  0  0  0  0  0  0  0
   -7.2716    7.9580    1.4749 H   0  0  0  0  0  0  0  0  0  0  0  0
   -3.6497    9.5299    2.9445 H   0  0  0  0  0  0  0  0  0  0  0  0
   -1.2376    9.4076    3.5678 H   0  0  0  0  0  0  0  0  0  0  0  0
    3.9941    5.4793    2.2330 H   0  0  0  0  0  0  0  0  0  0  0  0
    4.7599    5.8337    4.5209 H   0  0  0  0  0  0  0  0  0  0  0  0
    4.5392    1.8588    6.8393 H   0  0  0  0  0  0  0  0  0  0  0  0
    5.1810    2.4932    8.4200 H   0  0  0  0  0  0  0  0  0  0  0  0
    3.7923    3.3625    7.6131 H   0  0  0  0  0  0  0  0  0  0  0  0
    5.6582    1.5339    4.7405 H   0  0  0  0  0  0  0  0  0  0  0  0
    4.6496    1.2532    2.4871 H   0  0  0  0  0  0  0  0  0  0  0  0
    5.9861    2.9626    0.6966 H   0  0  0  0  0  0  0  0  0  0  0  0
    7.2723    2.0719   -1.0373 H   0  0  0  0  0  0  0  0  0  0  0  0
    7.8582    2.3620   -5.0574 H   0  0  0  0  0  0  0  0  0  0  0  0
    8.2655    2.6029   -3.3369 H   0  0  0  0  0  0  0  0  0  0  0  0
    6.7962    3.4060   -4.0213 H   0  0  0  0  0  0  0  0  0  0  0  0
    3.5919    1.3000   -3.1837 H   0  0  0  0  0  0  0  0  0  0  0  0
    2.2049    2.1109   -1.3059 H   0  0  0  0  0  0  0  0  0  0  0  0
   -0.4872   -1.1439    3.2262 H   0  0  0  0  0  0  0  0  0  0  0  0
   -1.5594   -1.1127    5.4166 H   0  0  0  0  0  0  0  0  0  0  0  0
   -2.6219    0.6713    6.7971 H   0  0  0  0  0  0  0  0  0  0  0  0
   -2.2532    1.6269    8.2955 H   0  0  0  0  0  0  0  0  0  0  0  0
   -1.2391    1.8672    6.8057 H   0  0  0  0  0  0  0  0  0  0  0  0
    2.1117    0.4351    7.2011 H   0  0  0  0  0  0  0  0  0  0  0  0
    3.1859    0.3434    4.9593 H   0  0  0  0  0  0  0  0  0  0  0  0
    2.4780   -2.5626    4.1416 H   0  0  0  0  0  0  0  0  0  0  0  0
    3.8989   -4.4505    3.6636 H   0  0  0  0  0  0  0  0  0  0  0  0
    7.6665   -5.7980    1.6995 H   0  0  0  0  0  0  0  0  0  0  0  0
    6.6336   -6.2859    3.0585 H   0  0  0  0  0  0  0  0  0  0  0  0
    7.1354   -4.5475    2.8879 H   0  0  0  0  0  0  0  0  0  0  0  0
    5.1706   -2.5769   -0.0587 H   0  0  0  0  0  0  0  0  0  0  0  0
    3.7050   -0.6188    0.4193 H   0  0  0  0  0  0  0  0  0  0  0  0
   -4.4713    2.1141   -1.1083 H   0  0  0  0  0  0  0  0  0  0  0  0
   -4.4431    3.6345   -2.8728 H   0  0  0  0  0  0  0  0  0  0  0  0
   -1.1524    2.4688   -6.5335 H   0  0  0  0  0  0  0  0  0  0  0  0
   -0.5449    3.8516   -5.5526 H   0  0  0  0  0  0  0  0  0  0  0  0
   -1.3611    4.0824   -7.1196 H   0  0  0  0  0  0  0  0  0  0  0  0
   -1.4635    1.1551   -4.7982 H   0  0  0  0  0  0  0  0  0  0  0  0
   -1.4900   -0.3409   -2.9858 H   0  0  0  0  0  0  0  0  0  0  0  0
   -4.2037   -2.6513   -0.4206 H   0  0  0  0  0  0  0  0  0  0  0  0
   -6.2305   -3.1414    0.8717 H   0  0  0  0  0  0  0  0  0  0  0  0
   -8.3012   -1.6961    4.8403 H   0  0  0  0  0  0  0  0  0  0  0  0
   -6.8860   -0.6482    4.5426 H   0  0  0  0  0  0  0  0  0  0  0  0
   -6.7552   -2.4556    4.3057 H   0  0  0  0  0  0  0  0  0  0  0  0
   -6.5088    1.0356    1.9803 H   0  0  0  0  0  0  0  0  0  0  0  0
   -4.3315    1.4785    0.9232 H   0  0  0  0  0  0  0  0  0  0  0  0
   -4.4033   -4.3161   -2.7536 H   0  0  0  0  0  0  0  0  0  0  0  0
   -6.7797   -4.1454   -2.5110 H   0  0  0  0  0  0  0  0  0  0  0  0
   -8.3967    0.1989   -2.6727 H   0  0  0  0  0  0  0  0  0  0  0  0
   -8.8730   -0.8610   -1.2439 H   0  0  0  0  0  0  0  0  0  0  0  0
  -10.1223   -0.3716   -2.5029 H   0  0  0  0  0  0  0  0  0  0  0  0
   -6.6669   -0.0586   -4.0566 H   0  0  0  0  0  0  0  0  0  0  0  0
   -4.2467   -0.2692   -4.3121 H   0  0  0  0  0  0  0  0  0  0  0  0
   -0.2004   -2.3714   -4.9817 H   0  0  0  0  0  0  0  0  0  0  0  0
    0.2878   -2.2067   -7.3943 H   0  0  0  0  0  0  0  0  0  0  0  0
   -3.7779   -2.0886  -10.7158 H   0  0  0  0  0  0  0  0  0  0  0  0
   -3.6342   -0.8069   -9.4640 H   0  0  0  0  0  0  0  0  0  0  0  0
   -2.8927   -0.5891  -11.0590 H   0  0  0  0  0  0  0  0  0  0  0  0
   -3.9861   -2.5800   -8.1713 H   0  0  0  0  0  0  0  0  0  0  0  0
   -4.4386   -2.6504   -5.8812 H   0  0  0  0  0  0  0  0  0  0  0  0
    1.2654   -7.5552   -1.3129 H   0  0  0  0  0  0  0  0  0  0  0  0
    2.4264   -7.7174    0.8955 H   0  0  0  0  0  0  0  0  0  0  0  0
    0.2475   -6.6759    4.7848 H   0  0  0  0  0  0  0  0  0  0  0  0
    1.8242   -7.0891    5.5270 H   0  0  0  0  0  0  0  0  0  0  0  0
    1.8028   -6.0750    4.0684 H   0  0  0  0  0  0  0  0  0  0  0  0
   -1.3737   -8.5504    2.8490 H   0  0  0  0  0  0  0  0  0  0  0  0
   -2.5024   -8.3465    0.6799 H   0  0  0  0  0  0  0  0  0  0  0  0
   -3.9696   -8.0452   -2.6974 H   0  0  0  0  0  0  0  0  0  0  0  0
   -5.5501   -9.9519   -2.4336 H   0  0  0  0  0  0  0  0  0  0  0  0
   -6.3972  -11.2083    0.3428 H   0  0  0  0  0  0  0  0  0  0  0  0
   -6.5632  -12.9352    0.7179 H   0  0  0  0  0  0  0  0  0  0  0  0
   -5.0460  -12.1161    1.1236 H   0  0  0  0  0  0  0  0  0  0  0  0
   -2.3548  -12.3786   -0.7120 H   0  0  0  0  0  0  0  0  0  0  0  0
   -0.8066  -10.5095   -0.9981 H   0  0  0  0  0  0  0  0  0  0  0  0
   -1.3750   -8.9958   -4.9297 H   0  0  0  0  0  0  0  0  0  0  0  0
    4.2388   -6.2399   -5.8612 H   0  0  0  0  0  0  0  0  0  0  0  0
    5.8900   -5.8205   -7.7189 H   0  0  0  0  0  0  0  0  0  0  0  0
    6.8137   -7.3020   -7.2087 H   0  0  0  0  0  0  0  0  0  0  0  0
    6.2721   -7.1017   -8.9149 H   0  0  0  0  0  0  0  0  0  0  0  0
    2.8387  -10.2760   -8.4982 H   0  0  0  0  0  0  0  0  0  0  0  0
  1  2  2  3
  2  3  1  0
  3  4  2  0
  3  5  1  0
  5  6  2  0
  6  7  1  0
  7  8  1  0
  7  9  2  0
  9 10  1  0
  9 11  1  0
 11 12  2  0
 12 13  1  0
 13 14  2  3
 14 15  1  0
 15 16  3  0
 14 17  1  0
 17 18  3  0
  1 19  1  0
 19 20  2  0
 20 21  1  0
 21 22  1  0
 22 23  2  0
 23 24  1  0
 24 25  2  0
 25 26  1  0
 26 27  1  0
 25 28  1  0
 28 29  2  0
 21 30  1  0
 30 31  2  0
 31 32  1  0
 32 33  2  0
 33 34  1  0
 34 35  1  0
 33 36  1  0
 36 37  2  0
 20 38  1  0
 38 39  1  0
 39 40  1  0
 40 41  2  0
 41 42  1  0
 42 43  1  0
 43 44  2  0
 44 45  1  0
 45 46  2  0
 46 47  1  0
 47 48  1  0
 46 49  1  0
 49 50  2  0
 42 51  1  0
 51 52  2  0
 52 53  1  0
 53 54  2  0
 54 55  1  0
 55 56  1  0
 54 57  1  0
 57 58  2  0
 41 59  1  0
 59 60  1  0
 40 61  1  0
 61 62  2  0
 62 63  1  0
 63 64  1  0
 64 65  2  0
 65 66  1  0
 66 67  2  0
 67 68  1  0
 68 69  1  0
 67 70  1  0
 70 71  2  0
 63 72  1  0
 72 73  2  0
 73 74  1  0
 74 75  2  0
 75 76  1  0
 76 77  1  0
 75 78  1  0
 78 79  2  0
 62 80  1  0
 80 81  1  0
 81 82  1  0
 82 83  2  0
 83 84  1  0
 84 85  1  0
 85 86  2  0
 86 87  1  0
 87 88  2  0
 88 89  1  0
 89 90  1  0
 88 91  1  0
 91 92  2  0
 84 93  1  0
 93 94  2  0
 94 95  1  0
 95 96  2  0
 96 97  1  0
 97 98  1  0
 96 99  1  0
 99100  2  0
 83101  1  0
101102  1  0
 82103  1  0
103104  2  0
104105  1  0
105106  1  0
106107  2  0
107108  1  0
108109  2  0
109110  1  0
110111  1  0
109112  1  0
112113  2  0
105114  1  0
114115  2  0
115116  1  0
116117  2  0
117118  1  0
118119  1  0
117120  1  0
120121  2  0
104122  1  0
122123  1  0
123124  1  0
124125  2  0
125126  1  0
126127  1  0
127128  2  0
128129  1  0
129130  2  0
130131  1  0
131132  1  0
130133  1  0
133134  2  0
126135  1  0
135136  2  0
136137  1  0
137138  2  0
138139  1  0
139140  1  0
138141  1  0
141142  2  0
125143  1  0
143144  1  0
124145  1  0
145146  2  3
146147  1  0
147148  2  0
147149  1  0
149150  2  0
150151  1  0
151152  1  0
151153  2  0
153154  1  0
153155  1  0
155156  2  0
156157  1  0
157158  2  3
158159  1  0
159160  3  0
158161  1  0
161162  3  0
 13  2  1  0
 60 19  1  0
102 61  1  0
144103  1  0
157146  1  0
 12  5  1  0
 29 22  1  0
 37 30  1  0
 59 38  2  0
 71 64  1  0
 79 72  1  0
101 80  2  0
113106  1  0
121114  1  0
143122  2  0
156149  1  0
 50 43  1  0
 58 51  1  0
 92 85  1  0
100 93  1  0
134127  1  0
142135  1  0
  1163  1  0
  6164  1  0
  8165  1  0
  8166  1  0
  8167  1  0
 11168  1  0
 23169  1  0
 24170  1  0
 27171  1  0
 27172  1  0
 27173  1  0
 28174  1  0
 29175  1  0
 31176  1  0
 32177  1  0
 35178  1  0
 35179  1  0
 35180  1  0
 36181  1  0
 37182  1  0
 44183  1  0
 45184  1  0
 48185  1  0
 48186  1  0
 48187  1  0
 49188  1  0
 50189  1  0
 52190  1  0
 53191  1  0
 56192  1  0
 56193  1  0
 56194  1  0
 57195  1  0
 58196  1  0
 65197  1  0
 66198  1  0
 69199  1  0
 69200  1  0
 69201  1  0
 70202  1  0
 71203  1  0
 73204  1  0
 74205  1  0
 77206  1  0
 77207  1  0
 77208  1  0
 78209  1  0
 79210  1  0
 86211  1  0
 87212  1  0
 90213  1  0
 90214  1  0
 90215  1  0
 91216  1  0
 92217  1  0
 94218  1  0
 95219  1  0
 98220  1  0
 98221  1  0
 98222  1  0
 99223  1  0
100224  1  0
107225  1  0
108226  1  0
111227  1  0
111228  1  0
111229  1  0
112230  1  0
113231  1  0
115232  1  0
116233  1  0
119234  1  0
119235  1  0
119236  1  0
120237  1  0
121238  1  0
128239  1  0
129240  1  0
132241  1  0
132242  1  0
132243  1  0
133244  1  0
134245  1  0
136246  1  0
137247  1  0
140248  1  0
140249  1  0
140250  1  0
141251  1  0
142252  1  0
145253  1  0
150254  1  0
152255  1  0
152256  1  0
152257  1  0
155258  1  0
M  END

