
     RDKit          3D

167182  0  0  0  0  0  0  0  0999 V2000
   -1.2408    6.8374    3.3301 C   0  0  0  0  0  0  0  0  0  0  0  0
   -0.6728    7.5702    2.3460 C   0  0  0  0  0  0  0  0  0  0  0  0
    0.5007    7.1428    1.5730 C   0  0  0  0  0  0  0  0  0  0  0  0
    1.4653    6.4587    1.9987 O   0  0  0  0  0  0  0  0  0  0  0  0
    0.4519    7.7709    0.2697 C   0  0  0  0  0  0  0  0  0  0  0  0
    1.2147    7.4226   -0.8463 C   0  0  0  0  0  0  0  0  0  0  0  0
    0.8648    7.9589   -2.0960 C   0  0  0  0  0  0  0  0  0  0  0  0
    1.6269    7.5659   -3.3326 C   0  0  0  0  0  0  0  0  0  0  0  0
   -0.2575    8.8183   -2.1918 C   0  0  0  0  0  0  0  0  0  0  0  0
   -0.6598    9.2666   -3.4063 F   0  0  0  0  0  0  0  0  0  0  0  0
   -1.0349    9.1067   -1.0576 C   0  0  0  0  0  0  0  0  0  0  0  0
   -0.6269    8.6305    0.1984 C   0  0  0  0  0  0  0  0  0  0  0  0
   -1.3304    8.6392    1.5169 C   0  0  0  0  0  0  0  0  0  0  0  0
   -2.3480    9.4817    1.8717 C   0  0  0  0  0  0  0  0  0  0  0  0
   -3.0266    9.3824    3.1401 C   0  0  0  0  0  0  0  0  0  0  0  0
   -3.6003    9.2801    4.1355 N   0  0  0  0  0  0  0  0  0  0  0  0
   -2.7891   10.5602    1.0293 C   0  0  0  0  0  0  0  0  0  0  0  0
   -3.1540   11.4285    0.3514 N   0  0  0  0  0  0  0  0  0  0  0  0
   -1.0959    5.3680    3.3343 C   0  0  0  0  0  0  0  0  0  0  0  0
    0.0594    4.6886    3.7802 C   0  0  0  0  0  0  0  0  0  0  0  0
    1.0727    5.2646    4.4854 N   0  0  0  0  0  0  0  0  0  0  0  0
    2.1148    4.4038    4.6349 C   0  0  0  0  0  0  0  0  0  0  0  0
    3.3734    4.7620    5.3620 C   0  0  0  0  0  0  0  0  0  0  0  0
    3.1899    4.6074    6.8648 C   0  0  0  0  0  0  0  0  0  0  0  0
    1.8241    2.9055    3.9038 S   0  0  0  0  0  0  0  0  0  0  0  0
    0.2888    3.3620    3.3958 C   0  0  0  0  0  0  0  0  0  0  0  0
   -0.6124    2.6485    2.5845 C   0  0  0  0  0  0  0  0  0  0  0  0
   -1.8192    3.2924    2.2573 C   0  0  0  0  0  0  0  0  0  0  0  0
   -2.0492    4.6084    2.6444 C   0  0  0  0  0  0  0  0  0  0  0  0
   -3.5399    5.1085    2.0295 S   0  0  0  0  0  0  0  0  0  0  0  0
   -3.8225    3.6174    1.2901 C   0  0  0  0  0  0  0  0  0  0  0  0
   -5.0948    3.2264    0.6169 C   0  0  0  0  0  0  0  0  0  0  0  0
   -6.0239    2.5311    1.6092 C   0  0  0  0  0  0  0  0  0  0  0  0
   -2.8028    2.7471    1.4932 N   0  0  0  0  0  0  0  0  0  0  0  0
   -0.1786    1.5041    1.7777 C   0  0  0  0  0  0  0  0  0  0  0  0
   -0.2162    0.1416    2.1114 C   0  0  0  0  0  0  0  0  0  0  0  0
   -0.3890   -0.3817    3.4346 N   0  0  0  0  0  0  0  0  0  0  0  0
    0.7640   -0.5274    4.2895 C   0  0  0  0  0  0  0  0  0  0  0  0
    0.6750   -0.1912    5.6540 C   0  0  0  0  0  0  0  0  0  0  0  0
    1.7685   -0.3935    6.5035 C   0  0  0  0  0  0  0  0  0  0  0  0
    2.9546   -0.9415    6.0030 C   0  0  0  0  0  0  0  0  0  0  0  0
    4.3249   -1.2833    7.1037 S   0  0  0  0  0  0  0  0  0  0  0  0
    5.0989    0.3462    6.8593 C   0  0  0  0  0  0  0  0  0  0  0  0
    3.0628   -1.2536    4.6425 C   0  0  0  0  0  0  0  0  0  0  0  0
    1.9753   -1.0377    3.7845 C   0  0  0  0  0  0  0  0  0  0  0  0
   -1.6448   -0.9930    3.7941 C   0  0  0  0  0  0  0  0  0  0  0  0
   -2.8524   -0.3311    3.5291 C   0  0  0  0  0  0  0  0  0  0  0  0
   -4.0740   -0.9075    3.8888 C   0  0  0  0  0  0  0  0  0  0  0  0
   -4.0983   -2.1664    4.4957 C   0  0  0  0  0  0  0  0  0  0  0  0
   -5.6668   -2.9028    4.9713 S   0  0  0  0  0  0  0  0  0  0  0  0
   -5.9293   -3.7087    3.3581 C   0  0  0  0  0  0  0  0  0  0  0  0
   -2.9000   -2.8426    4.7597 C   0  0  0  0  0  0  0  0  0  0  0  0
   -1.6802   -2.2557    4.4160 C   0  0  0  0  0  0  0  0  0  0  0  0
   -0.0291   -0.6581    0.9854 C   0  0  0  0  0  0  0  0  0  0  0  0
    0.0116   -2.3026    0.6767 S   0  0  0  0  0  0  0  0  0  0  0  0
    0.2672   -2.1224   -1.0142 C   0  0  0  0  0  0  0  0  0  0  0  0
    0.2791   -0.7454   -1.3241 C   0  0  0  0  0  0  0  0  0  0  0  0
    0.4645   -0.1571   -2.6225 N   0  0  0  0  0  0  0  0  0  0  0  0
    1.7043   -0.4033   -3.3297 C   0  0  0  0  0  0  0  0  0  0  0  0
    1.7374   -0.4288   -4.7325 C   0  0  0  0  0  0  0  0  0  0  0  0
    2.9557   -0.4981   -5.4196 C   0  0  0  0  0  0  0  0  0  0  0  0
    4.1569   -0.5683   -4.7041 C   0  0  0  0  0  0  0  0  0  0  0  0
    5.7307   -0.6096   -5.5631 S   0  0  0  0  0  0  0  0  0  0  0  0
    6.0039    1.1860   -5.4308 C   0  0  0  0  0  0  0  0  0  0  0  0
    4.1347   -0.6121   -3.3056 C   0  0  0  0  0  0  0  0  0  0  0  0
    2.9157   -0.5321   -2.6214 C   0  0  0  0  0  0  0  0  0  0  0  0
   -0.4006    0.9425   -3.0062 C   0  0  0  0  0  0  0  0  0  0  0  0
    0.1207    2.0875   -3.6446 C   0  0  0  0  0  0  0  0  0  0  0  0
   -0.6904    3.2089   -3.8622 C   0  0  0  0  0  0  0  0  0  0  0  0
   -2.0203    3.2159   -3.4395 C   0  0  0  0  0  0  0  0  0  0  0  0
   -3.0254    4.6905   -3.6341 S   0  0  0  0  0  0  0  0  0  0  0  0
   -2.4956    5.4180   -2.0558 C   0  0  0  0  0  0  0  0  0  0  0  0
   -2.5592    2.0718   -2.8414 C   0  0  0  0  0  0  0  0  0  0  0  0
   -1.7644    0.9419   -2.6337 C   0  0  0  0  0  0  0  0  0  0  0  0
    0.1495    0.0217   -0.1723 C   0  0  0  0  0  0  0  0  0  0  0  0
    0.0956    1.6723    0.1101 S   0  0  0  0  0  0  0  0  0  0  0  0
    0.2682   -3.2777   -1.9385 C   0  0  0  0  0  0  0  0  0  0  0  0
    0.9926   -4.4511   -1.6220 C   0  0  0  0  0  0  0  0  0  0  0  0
    1.8976   -4.5410   -0.6120 N   0  0  0  0  0  0  0  0  0  0  0  0
    2.3974   -5.7992   -0.5008 C   0  0  0  0  0  0  0  0  0  0  0  0
    3.3987   -6.2027    0.5362 C   0  0  0  0  0  0  0  0  0  0  0  0
    2.8770   -5.9457    1.9439 C   0  0  0  0  0  0  0  0  0  0  0  0
    1.7379   -6.8547   -1.6507 S   0  0  0  0  0  0  0  0  0  0  0  0
    0.7870   -5.6463   -2.3270 C   0  0  0  0  0  0  0  0  0  0  0  0
   -0.1582   -5.7530   -3.3583 C   0  0  0  0  0  0  0  0  0  0  0  0
   -0.8121   -4.5668   -3.7429 C   0  0  0  0  0  0  0  0  0  0  0  0
   -0.6014   -3.3744   -3.0442 C   0  0  0  0  0  0  0  0  0  0  0  0
   -1.5833   -2.2018   -3.7377 S   0  0  0  0  0  0  0  0  0  0  0  0
   -2.2133   -3.2445   -4.9096 C   0  0  0  0  0  0  0  0  0  0  0  0
   -3.1243   -2.8577   -6.0362 C   0  0  0  0  0  0  0  0  0  0  0  0
   -4.0251   -1.6693   -5.6832 C   0  0  0  0  0  0  0  0  0  0  0  0
   -1.6906   -4.4852   -4.7831 N   0  0  0  0  0  0  0  0  0  0  0  0
   -0.4844   -7.0572   -3.9697 C   0  0  0  0  0  0  0  0  0  0  0  0
   -1.7362   -7.5269   -4.0867 C   0  0  0  0  0  0  0  0  0  0  0  0
   -2.1305   -8.5252   -5.0778 C   0  0  0  0  0  0  0  0  0  0  0  0
   -1.3470   -9.3133   -5.6780 O   0  0  0  0  0  0  0  0  0  0  0  0
   -3.5360   -8.2892   -5.4056 C   0  0  0  0  0  0  0  0  0  0  0  0
   -4.3019   -8.8346   -6.4415 C   0  0  0  0  0  0  0  0  0  0  0  0
   -3.6875  -10.1821   -7.3983 Cl  0  0  0  0  0  0  0  0  0  0  0  0
   -5.5652   -8.2666   -6.7098 C   0  0  0  0  0  0  0  0  0  0  0  0
   -6.5832   -8.9548   -7.9811 Cl  0  0  0  0  0  0  0  0  0  0  0  0
   -6.0042   -7.1335   -5.9834 C   0  0  0  0  0  0  0  0  0  0  0  0
   -7.5421   -6.3653   -6.3964 Cl  0  0  0  0  0  0  0  0  0  0  0  0
   -5.2131   -6.6030   -4.9405 C   0  0  0  0  0  0  0  0  0  0  0  0
   -5.6336   -5.0446   -4.2209 Cl  0  0  0  0  0  0  0  0  0  0  0  0
   -4.0142   -7.2579   -4.6103 C   0  0  0  0  0  0  0  0  0  0  0  0
   -2.9917   -6.9040   -3.5913 C   0  0  0  0  0  0  0  0  0  0  0  0
   -3.2490   -6.6516   -2.2856 C   0  0  0  0  0  0  0  0  0  0  0  0
   -2.2275   -6.7417   -1.2750 C   0  0  0  0  0  0  0  0  0  0  0  0
   -1.4230   -6.8103   -0.4450 N   0  0  0  0  0  0  0  0  0  0  0  0
   -4.5913   -6.5450   -1.7707 C   0  0  0  0  0  0  0  0  0  0  0  0
   -5.6692   -6.4775   -1.3445 N   0  0  0  0  0  0  0  0  0  0  0  0
   -2.1512    7.1766    3.7893 H   0  0  0  0  0  0  0  0  0  0  0  0
    2.0130    6.6845   -0.7610 H   0  0  0  0  0  0  0  0  0  0  0  0
    0.9407    7.0734   -4.0513 H   0  0  0  0  0  0  0  0  0  0  0  0
    2.0693    8.4696   -3.8030 H   0  0  0  0  0  0  0  0  0  0  0  0
    2.4491    6.8557   -3.0962 H   0  0  0  0  0  0  0  0  0  0  0  0
   -1.9569    9.6389   -1.1934 H   0  0  0  0  0  0  0  0  0  0  0  0
    4.1976    4.0961    5.0249 H   0  0  0  0  0  0  0  0  0  0  0  0
    3.6589    5.8069    5.1179 H   0  0  0  0  0  0  0  0  0  0  0  0
    4.1127    4.9303    7.3878 H   0  0  0  0  0  0  0  0  0  0  0  0
    2.9864    3.5462    7.1199 H   0  0  0  0  0  0  0  0  0  0  0  0
    2.3433    5.2306    7.2223 H   0  0  0  0  0  0  0  0  0  0  0  0
   -4.8729    2.5389   -0.2297 H   0  0  0  0  0  0  0  0  0  0  0  0
   -5.6001    4.1321    0.2134 H   0  0  0  0  0  0  0  0  0  0  0  0
   -5.5348    1.6225    2.0196 H   0  0  0  0  0  0  0  0  0  0  0  0
   -6.2816    3.2085    2.4453 H   0  0  0  0  0  0  0  0  0  0  0  0
   -6.9614    2.2292    1.1035 H   0  0  0  0  0  0  0  0  0  0  0  0
   -0.2422    0.2315    6.0515 H   0  0  0  0  0  0  0  0  0  0  0  0
    1.6863   -0.1413    7.5539 H   0  0  0  0  0  0  0  0  0  0  0  0
    4.4425    1.1378    7.2810 H   0  0  0  0  0  0  0  0  0  0  0  0
    5.2732    0.5352    5.7788 H   0  0  0  0  0  0  0  0  0  0  0  0
    6.0734    0.3593    7.3931 H   0  0  0  0  0  0  0  0  0  0  0  0
    3.9887   -1.6470    4.2440 H   0  0  0  0  0  0  0  0  0  0  0  0
    2.0719   -1.3106    2.7399 H   0  0  0  0  0  0  0  0  0  0  0  0
   -2.8489    0.6462    3.0730 H   0  0  0  0  0  0  0  0  0  0  0  0
   -4.9981   -0.3741    3.6999 H   0  0  0  0  0  0  0  0  0  0  0  0
   -6.8705   -4.2978    3.3987 H   0  0  0  0  0  0  0  0  0  0  0  0
   -6.0196   -2.9423    2.5588 H   0  0  0  0  0  0  0  0  0  0  0  0
   -5.0846   -4.3932    3.1275 H   0  0  0  0  0  0  0  0  0  0  0  0
   -2.9104   -3.8096    5.2377 H   0  0  0  0  0  0  0  0  0  0  0  0
   -0.7612   -2.7894    4.6318 H   0  0  0  0  0  0  0  0  0  0  0  0
    0.8135   -0.3608   -5.3044 H   0  0  0  0  0  0  0  0  0  0  0  0
    2.9682   -0.4849   -6.5041 H   0  0  0  0  0  0  0  0  0  0  0  0
    5.9149    1.5172   -4.3776 H   0  0  0  0  0  0  0  0  0  0  0  0
    7.0259    1.4247   -5.7867 H   0  0  0  0  0  0  0  0  0  0  0  0
    5.2706    1.7294   -6.0575 H   0  0  0  0  0  0  0  0  0  0  0  0
    5.0564   -0.6829   -2.7408 H   0  0  0  0  0  0  0  0  0  0  0  0
    2.9245   -0.5247   -1.5430 H   0  0  0  0  0  0  0  0  0  0  0  0
    1.1686    2.1543   -3.9111 H   0  0  0  0  0  0  0  0  0  0  0  0
   -0.2633    4.0973   -4.3153 H   0  0  0  0  0  0  0  0  0  0  0  0
   -1.3898    5.4314   -1.9925 H   0  0  0  0  0  0  0  0  0  0  0  0
   -2.8743    6.4565   -1.9951 H   0  0  0  0  0  0  0  0  0  0  0  0
   -2.9112    4.8332   -1.2131 H   0  0  0  0  0  0  0  0  0  0  0  0
   -3.5845    2.0622   -2.5054 H   0  0  0  0  0  0  0  0  0  0  0  0
   -2.1899    0.0970   -2.1133 H   0  0  0  0  0  0  0  0  0  0  0  0
    4.3303   -5.6210    0.3740 H   0  0  0  0  0  0  0  0  0  0  0  0
    3.6420   -7.2914    0.4270 H   0  0  0  0  0  0  0  0  0  0  0  0
    2.7126   -4.8581    2.0977 H   0  0  0  0  0  0  0  0  0  0  0  0
    3.6268   -6.2964    2.6846 H   0  0  0  0  0  0  0  0  0  0  0  0
    1.9212   -6.4794    2.1143 H   0  0  0  0  0  0  0  0  0  0  0  0
   -2.5152   -2.5980   -6.9286 H   0  0  0  0  0  0  0  0  0  0  0  0
   -3.7654   -3.7274   -6.3047 H   0  0  0  0  0  0  0  0  0  0  0  0
   -3.4177   -0.7509   -5.5135 H   0  0  0  0  0  0  0  0  0  0  0  0
   -4.7263   -1.4684   -6.5241 H   0  0  0  0  0  0  0  0  0  0  0  0
   -4.6311   -1.9018   -4.7782 H   0  0  0  0  0  0  0  0  0  0  0  0
    0.3327   -7.6158   -4.4147 H   0  0  0  0  0  0  0  0  0  0  0  0
  1  2  2  3
  2  3  1  0
  3  4  2  0
  3  5  1  0
  5  6  2  0
  6  7  1  0
  7  8  1  0
  7  9  2  0
  9 10  1  0
  9 11  1  0
 11 12  2  0
 12 13  1  0
 13 14  2  3
 14 15  1  0
 15 16  3  0
 14 17  1  0
 17 18  3  0
  1 19  1  0
 19 20  2  0
 20 21  1  0
 21 22  2  0
 22 23  1  0
 23 24  1  0
 22 25  1  0
 25 26  1  0
 26 27  2  0
 27 28  1  0
 28 29  2  0
 29 30  1  0
 30 31  1  0
 31 32  1  0
 32 33  1  0
 31 34  2  0
 27 35  1  0
 35 36  2  0
 36 37  1  0
 37 38  1  0
 38 39  2  0
 39 40  1  0
 40 41  2  0
 41 42  1  0
 42 43  1  0
 41 44  1  0
 44 45  2  0
 37 46  1  0
 46 47  2  0
 47 48  1  0
 48 49  2  0
 49 50  1  0
 50 51  1  0
 49 52  1  0
 52 53  2  0
 36 54  1  0
 54 55  1  0
 55 56  1  0
 56 57  2  0
 57 58  1  0
 58 59  1  0
 59 60  2  0
 60 61  1  0
 61 62  2  0
 62 63  1  0
 63 64  1  0
 62 65  1  0
 65 66  2  0
 58 67  1  0
 67 68  2  0
 68 69  1  0
 69 70  2  0
 70 71  1  0
 71 72  1  0
 70 73  1  0
 73 74  2  0
 57 75  1  0
 75 76  1  0
 56 77  1  0
 77 78  2  0
 78 79  1  0
 79 80  2  0
 80 81  1  0
 81 82  1  0
 80 83  1  0
 83 84  1  0
 84 85  2  0
 85 86  1  0
 86 87  2  0
 87 88  1  0
 88 89  1  0
 89 90  1  0
 90 91  1  0
 89 92  2  0
 85 93  1  0
 93 94  2  3
 94 95  1  0
 95 96  2  0
 95 97  1  0
 97 98  2  0
 98 99  1  0
 98100  1  0
100101  1  0
100102  2  0
102103  1  0
102104  1  0
104105  1  0
104106  2  0
106107  1  0
107108  2  3
108109  1  0
109110  3  0
108111  1  0
111112  3  0
 13  2  1  0
 29 19  1  0
 76 35  1  0
 87 77  1  0
107 94  1  0
 12  5  1  0
 26 20  1  0
 34 28  1  0
 45 38  1  0
 53 46  1  0
 75 54  2  0
 84 78  1  0
 92 86  1  0
106 97  1  0
 66 59  1  0
 74 67  1  0
  1113  1  0
  6114  1  0
  8115  1  0
  8116  1  0
  8117  1  0
 11118  1  0
 23119  1  0
 23120  1  0
 24121  1  0
 24122  1  0
 24123  1  0
 32124  1  0
 32125  1  0
 33126  1  0
 33127  1  0
 33128  1  0
 39129  1  0
 40130  1  0
 43131  1  0
 43132  1  0
 43133  1  0
 44134  1  0
 45135  1  0
 47136  1  0
 48137  1  0
 51138  1  0
 51139  1  0
 51140  1  0
 52141  1  0
 53142  1  0
 60143  1  0
 61144  1  0
 64145  1  0
 64146  1  0
 64147  1  0
 65148  1  0
 66149  1  0
 68150  1  0
 69151  1  0
 72152  1  0
 72153  1  0
 72154  1  0
 73155  1  0
 74156  1  0
 81157  1  0
 81158  1  0
 82159  1  0
 82160  1  0
 82161  1  0
 90162  1  0
 90163  1  0
 91164  1  0
 91165  1  0
 91166  1  0
 93167  1  0
M  END

