
     RDKit          3D

 83 94  0  0  0  0  0  0  0  0999 V2000
   -2.1418    1.6219   -6.5696 C   0  0  0  0  0  0  0  0  0  0  0  0
   -1.5344    2.7648   -6.9395 C   0  0  0  0  0  0  0  0  0  0  0  0
   -0.6040    3.5493   -6.1139 C   0  0  0  0  0  0  0  0  0  0  0  0
   -0.4015    3.4246   -4.8792 O   0  0  0  0  0  0  0  0  0  0  0  0
    0.1630    4.4073   -6.9919 C   0  0  0  0  0  0  0  0  0  0  0  0
    1.2328    5.2366   -6.6651 C   0  0  0  0  0  0  0  0  0  0  0  0
    1.9278    5.8918   -7.6970 C   0  0  0  0  0  0  0  0  0  0  0  0
    3.0741    6.8094   -7.3847 C   0  0  0  0  0  0  0  0  0  0  0  0
    1.5418    5.6752   -9.0366 C   0  0  0  0  0  0  0  0  0  0  0  0
    2.2383    6.2403  -10.0616 F   0  0  0  0  0  0  0  0  0  0  0  0
    0.4673    4.8267   -9.3413 C   0  0  0  0  0  0  0  0  0  0  0  0
   -0.2461    4.2227   -8.2983 C   0  0  0  0  0  0  0  0  0  0  0  0
   -1.3939    3.2768   -8.3332 C   0  0  0  0  0  0  0  0  0  0  0  0
   -2.2742    3.0875   -9.3520 C   0  0  0  0  0  0  0  0  0  0  0  0
   -2.1085    3.6934  -10.6434 C   0  0  0  0  0  0  0  0  0  0  0  0
   -1.9880    4.1881  -11.6799 N   0  0  0  0  0  0  0  0  0  0  0  0
   -3.5160    2.3870   -9.1608 C   0  0  0  0  0  0  0  0  0  0  0  0
   -4.5282    1.8438   -9.0199 N   0  0  0  0  0  0  0  0  0  0  0  0
   -2.1639    1.1125   -5.1892 C   0  0  0  0  0  0  0  0  0  0  0  0
   -2.7639    1.8455   -4.1457 C   0  0  0  0  0  0  0  0  0  0  0  0
   -2.7793    1.3495   -2.8168 C   0  0  0  0  0  0  0  0  0  0  0  0
   -3.3920    2.2228   -1.8613 N   0  0  0  0  0  0  0  0  0  0  0  0
   -3.8074    3.4358   -2.8145 S   0  0  0  0  0  4  0  0  0  0  0  0
   -3.3636    3.1347   -4.3207 N   0  0  0  0  0  0  0  0  0  0  0  0
   -2.2152    0.1004   -2.4927 C   0  0  0  0  0  0  0  0  0  0  0  0
   -1.6793   -0.6728   -3.5397 C   0  0  0  0  0  0  0  0  0  0  0  0
   -1.1653   -1.9181   -3.3481 N   0  0  0  0  0  0  0  0  0  0  0  0
   -0.7096   -2.2891   -4.8963 S   0  0  0  0  0  0  0  0  0  0  0  0
   -1.1216   -0.9871   -5.8312 N   0  0  0  0  0  0  0  0  0  0  0  0
   -1.6579   -0.1681   -4.8868 C   0  0  0  0  0  0  0  0  0  0  0  0
   -2.1776   -0.3705   -1.0905 C   0  0  0  0  0  0  0  0  0  0  0  0
   -3.3764   -0.5596   -0.3695 C   0  0  0  0  0  0  0  0  0  0  0  0
   -3.3558   -1.0438    0.9478 C   0  0  0  0  0  0  0  0  0  0  0  0
   -2.1399   -1.3330    1.5779 C   0  0  0  0  0  0  0  0  0  0  0  0
   -0.9396   -1.1350    0.8736 C   0  0  0  0  0  0  0  0  0  0  0  0
    0.2822   -1.3662    1.4230 N   0  0  0  0  0  0  0  0  0  0  0  0
    1.2642   -0.9395    0.1632 S   0  0  0  0  0  0  0  0  0  0  0  0
    0.2586   -0.4710   -1.0626 N   0  0  0  0  0  0  0  0  0  0  0  0
   -0.9529   -0.6506   -0.4640 C   0  0  0  0  0  0  0  0  0  0  0  0
   -2.1038   -1.8650    2.9518 C   0  0  0  0  0  0  0  0  0  0  0  0
   -2.2217   -1.0058    4.0589 C   0  0  0  0  0  0  0  0  0  0  0  0
   -1.8268   -1.4284    5.3518 C   0  0  0  0  0  0  0  0  0  0  0  0
   -1.8154   -0.3862    6.3340 N   0  0  0  0  0  0  0  0  0  0  0  0
   -2.3134    0.8568    5.4603 S   0  0  0  0  0  4  0  0  0  0  0  0
   -2.5623    0.3819    3.9603 N   0  0  0  0  0  0  0  0  0  0  0  0
   -1.3230   -2.7196    5.5748 C   0  0  0  0  0  0  0  0  0  0  0  0
   -1.3111   -3.6141    4.4925 C   0  0  0  0  0  0  0  0  0  0  0  0
   -0.8248   -4.8809    4.5896 N   0  0  0  0  0  0  0  0  0  0  0  0
   -0.9180   -5.3763    3.0126 S   0  0  0  0  0  0  0  0  0  0  0  0
   -1.5298   -4.0893    2.1767 N   0  0  0  0  0  0  0  0  0  0  0  0
   -1.6892   -3.1879    3.1798 C   0  0  0  0  0  0  0  0  0  0  0  0
   -0.5241   -3.0414    6.7776 C   0  0  0  0  0  0  0  0  0  0  0  0
    0.8184   -2.8978    6.7300 C   0  0  0  0  0  0  0  0  0  0  0  0
    1.5156   -2.1544    5.6748 C   0  0  0  0  0  0  0  0  0  0  0  0
    1.1035   -1.1122    5.1007 O   0  0  0  0  0  0  0  0  0  0  0  0
    2.7543   -2.8257    5.3705 C   0  0  0  0  0  0  0  0  0  0  0  0
    3.5670   -2.6280    4.2610 C   0  0  0  0  0  0  0  0  0  0  0  0
    4.6384   -3.5187    4.0358 C   0  0  0  0  0  0  0  0  0  0  0  0
    5.4897   -3.3690    2.8077 C   0  0  0  0  0  0  0  0  0  0  0  0
    4.8289   -4.6098    4.9200 C   0  0  0  0  0  0  0  0  0  0  0  0
    5.7954   -5.5348    4.6751 F   0  0  0  0  0  0  0  0  0  0  0  0
    3.9679   -4.8008    6.0225 C   0  0  0  0  0  0  0  0  0  0  0  0
    2.9267   -3.8844    6.2403 C   0  0  0  0  0  0  0  0  0  0  0  0
    1.8037   -3.9066    7.2272 C   0  0  0  0  0  0  0  0  0  0  0  0
    1.7373   -4.6044    8.3918 C   0  0  0  0  0  0  0  0  0  0  0  0
    0.6579   -4.4141    9.3284 C   0  0  0  0  0  0  0  0  0  0  0  0
   -0.2208   -4.2710   10.0687 N   0  0  0  0  0  0  0  0  0  0  0  0
    2.7230   -5.5856    8.7580 C   0  0  0  0  0  0  0  0  0  0  0  0
    3.4985   -6.3989    9.0465 N   0  0  0  0  0  0  0  0  0  0  0  0
   -2.5252    0.9495   -7.3213 H   0  0  0  0  0  0  0  0  0  0  0  0
    1.5325    5.3563   -5.6369 H   0  0  0  0  0  0  0  0  0  0  0  0
    2.8132    7.8455   -7.6852 H   0  0  0  0  0  0  0  0  0  0  0  0
    3.3067    6.8002   -6.3025 H   0  0  0  0  0  0  0  0  0  0  0  0
    3.9853    6.4872   -7.9299 H   0  0  0  0  0  0  0  0  0  0  0  0
    0.2268    4.6592  -10.3812 H   0  0  0  0  0  0  0  0  0  0  0  0
   -4.3339   -0.3532   -0.8373 H   0  0  0  0  0  0  0  0  0  0  0  0
   -4.2929   -1.1797    1.4741 H   0  0  0  0  0  0  0  0  0  0  0  0
   -0.9542   -3.7900    7.4240 H   0  0  0  0  0  0  0  0  0  0  0  0
    3.3603   -1.8225    3.5601 H   0  0  0  0  0  0  0  0  0  0  0  0
    6.5560   -3.5840    3.0324 H   0  0  0  0  0  0  0  0  0  0  0  0
    5.4346   -2.3303    2.4102 H   0  0  0  0  0  0  0  0  0  0  0  0
    5.1422   -4.0637    2.0165 H   0  0  0  0  0  0  0  0  0  0  0  0
    4.1067   -5.6781    6.6301 H   0  0  0  0  0  0  0  0  0  0  0  0
  1  2  2  3
  2  3  1  0
  3  4  2  0
  3  5  1  0
  5  6  2  0
  6  7  1  0
  7  8  1  0
  7  9  2  0
  9 10  1  0
  9 11  1  0
 11 12  2  0
 12 13  1  0
 13 14  2  3
 14 15  1  0
 15 16  3  0
 14 17  1  0
 17 18  3  0
  1 19  1  0
 19 20  2  0
 20 21  1  0
 21 22  1  0
 22 23  2  0
 23 24  2  0
 21 25  2  0
 25 26  1  0
 26 27  2  0
 27 28  1  0
 28 29  1  0
 29 30  2  0
 25 31  1  0
 31 32  2  0
 32 33  1  0
 33 34  2  0
 34 35  1  0
 35 36  2  0
 36 37  1  0
 37 38  1  0
 38 39  2  0
 34 40  1  0
 40 41  2  0
 41 42  1  0
 42 43  1  0
 43 44  2  0
 44 45  2  0
 42 46  2  0
 46 47  1  0
 47 48  2  0
 48 49  1  0
 49 50  1  0
 50 51  2  0
 46 52  1  0
 52 53  2  3
 53 54  1  0
 54 55  2  0
 54 56  1  0
 56 57  2  0
 57 58  1  0
 58 59  1  0
 58 60  2  0
 60 61  1  0
 60 62  1  0
 62 63  2  0
 63 64  1  0
 64 65  2  3
 65 66  1  0
 66 67  3  0
 65 68  1  0
 68 69  3  0
 13  2  1  0
 30 19  1  0
 39 31  1  0
 51 40  1  0
 64 53  1  0
 12  5  1  0
 24 20  1  0
 30 26  1  0
 39 35  1  0
 45 41  1  0
 51 47  1  0
 63 56  1  0
  1 70  1  0
  6 71  1  0
  8 72  1  0
  8 73  1  0
  8 74  1  0
 11 75  1  0
 32 76  1  0
 33 77  1  0
 52 78  1  0
 57 79  1  0
 59 80  1  0
 59 81  1  0
 59 82  1  0
 62 83  1  0
M  END

