
     RDKit          3D

147162  0  0  0  0  0  0  0  0999 V2000
   -4.1484    4.8560   -8.0908 C   0  0  0  0  0  0  0  0  0  0  0  0
   -3.8332    6.0093   -7.4799 C   0  0  0  0  0  0  0  0  0  0  0  0
   -2.7936    6.9017   -8.0194 C   0  0  0  0  0  0  0  0  0  0  0  0
   -2.5378    7.0722   -9.2403 O   0  0  0  0  0  0  0  0  0  0  0  0
   -1.9883    7.4026   -6.9091 C   0  0  0  0  0  0  0  0  0  0  0  0
   -0.7789    8.1012   -6.9515 C   0  0  0  0  0  0  0  0  0  0  0  0
   -0.1032    8.3626   -5.7332 C   0  0  0  0  0  0  0  0  0  0  0  0
    1.2277    9.0603   -5.7219 C   0  0  0  0  0  0  0  0  0  0  0  0
   -0.6459    7.8751   -4.5170 C   0  0  0  0  0  0  0  0  0  0  0  0
    0.0035    8.0804   -3.3427 F   0  0  0  0  0  0  0  0  0  0  0  0
   -1.8529    7.1595   -4.5086 C   0  0  0  0  0  0  0  0  0  0  0  0
   -2.5323    6.9478   -5.7204 C   0  0  0  0  0  0  0  0  0  0  0  0
   -3.7649    6.1789   -5.9983 C   0  0  0  0  0  0  0  0  0  0  0  0
   -4.7661    5.9005   -5.1321 C   0  0  0  0  0  0  0  0  0  0  0  0
   -6.0554    5.4659   -5.6233 C   0  0  0  0  0  0  0  0  0  0  0  0
   -7.1053    5.1618   -6.0207 N   0  0  0  0  0  0  0  0  0  0  0  0
   -4.7398    6.2984   -3.7551 C   0  0  0  0  0  0  0  0  0  0  0  0
   -4.7219    6.6326   -2.6487 N   0  0  0  0  0  0  0  0  0  0  0  0
   -3.8635    3.5894   -7.3949 C   0  0  0  0  0  0  0  0  0  0  0  0
   -2.5399    3.3544   -6.9897 C   0  0  0  0  0  0  0  0  0  0  0  0
   -2.2980    2.3824   -6.0323 C   0  0  0  0  0  0  0  0  0  0  0  0
   -1.1326    2.2693   -5.1738 C   0  0  0  0  0  0  0  0  0  0  0  0
   -0.0302    2.8638   -5.3137 O   0  0  0  0  0  0  0  0  0  0  0  0
   -1.5281    1.4255   -4.0676 C   0  0  0  0  0  0  0  0  0  0  0  0
   -2.8200    0.9839   -4.2784 C   0  0  0  0  0  0  0  0  0  0  0  0
   -3.3223    1.6070   -5.5116 C   0  0  0  0  0  0  0  0  0  0  0  0
   -4.6325    1.7573   -5.9612 C   0  0  0  0  0  0  0  0  0  0  0  0
   -4.8955    2.7422   -6.9382 C   0  0  0  0  0  0  0  0  0  0  0  0
   -3.4747    0.2076   -3.3226 C   0  0  0  0  0  0  0  0  0  0  0  0
   -2.8009   -0.0773   -2.1195 C   0  0  0  0  0  0  0  0  0  0  0  0
   -1.5344    0.5032   -1.8390 C   0  0  0  0  0  0  0  0  0  0  0  0
   -0.8798    1.2311   -2.8620 C   0  0  0  0  0  0  0  0  0  0  0  0
   -0.8627    0.3763   -0.5172 C   0  0  0  0  0  0  0  0  0  0  0  0
   -1.3420   -0.1705    0.6960 C   0  0  0  0  0  0  0  0  0  0  0  0
   -2.7246   -0.4348    1.0132 N   0  0  0  0  0  0  0  0  0  0  0  0
   -3.0288   -1.5836    1.8304 C   0  0  0  0  0  0  0  0  0  0  0  0
   -3.5199   -1.4154    3.1386 C   0  0  0  0  0  0  0  0  0  0  0  0
   -3.6358   -2.5130    3.9908 C   0  0  0  0  0  0  0  0  0  0  0  0
   -3.3212   -3.7961    3.5285 C   0  0  0  0  0  0  0  0  0  0  0  0
   -3.3907   -5.2011    4.6432 S   0  0  0  0  0  0  0  0  0  0  0  0
   -5.1952   -5.4130    4.5010 C   0  0  0  0  0  0  0  0  0  0  0  0
   -2.8938   -3.9754    2.2015 C   0  0  0  0  0  0  0  0  0  0  0  0
   -2.7265   -2.8660    1.3667 C   0  0  0  0  0  0  0  0  0  0  0  0
   -3.7497    0.5673    0.7893 C   0  0  0  0  0  0  0  0  0  0  0  0
   -5.0953    0.1707    0.6042 C   0  0  0  0  0  0  0  0  0  0  0  0
   -6.0837    1.1278    0.3506 C   0  0  0  0  0  0  0  0  0  0  0  0
   -5.7426    2.4854    0.2684 C   0  0  0  0  0  0  0  0  0  0  0  0
   -7.0170    3.7142   -0.0319 S   0  0  0  0  0  0  0  0  0  0  0  0
   -6.8213    3.6397   -1.8452 C   0  0  0  0  0  0  0  0  0  0  0  0
   -4.4168    2.8884    0.4718 C   0  0  0  0  0  0  0  0  0  0  0  0
   -3.4287    1.9384    0.7241 C   0  0  0  0  0  0  0  0  0  0  0  0
   -0.3148   -0.2630    1.6447 C   0  0  0  0  0  0  0  0  0  0  0  0
   -0.1168   -1.1021    3.0857 S   0  0  0  0  0  0  0  0  0  0  0  0
    1.5494   -0.7520    3.2450 C   0  0  0  0  0  0  0  0  0  0  0  0
    1.9238    0.1091    2.1907 C   0  0  0  0  0  0  0  0  0  0  0  0
    3.1778    0.8299    2.1710 N   0  0  0  0  0  0  0  0  0  0  0  0
    3.6014    1.5145    3.3719 C   0  0  0  0  0  0  0  0  0  0  0  0
    2.6770    2.2595    4.1324 C   0  0  0  0  0  0  0  0  0  0  0  0
    3.1019    2.9709    5.2540 C   0  0  0  0  0  0  0  0  0  0  0  0
    4.4504    2.9523    5.6354 C   0  0  0  0  0  0  0  0  0  0  0  0
    4.9700    3.8636    7.0934 S   0  0  0  0  0  0  0  0  0  0  0  0
    5.6630    5.2581    6.1307 C   0  0  0  0  0  0  0  0  0  0  0  0
    5.3748    2.2096    4.8896 C   0  0  0  0  0  0  0  0  0  0  0  0
    4.9525    1.5065    3.7560 C   0  0  0  0  0  0  0  0  0  0  0  0
    3.7645    1.2768    0.9362 C   0  0  0  0  0  0  0  0  0  0  0  0
    3.3452    2.4877    0.3584 C   0  0  0  0  0  0  0  0  0  0  0  0
    3.8731    2.9020   -0.8635 C   0  0  0  0  0  0  0  0  0  0  0  0
    4.8626    2.1421   -1.4930 C   0  0  0  0  0  0  0  0  0  0  0  0
    5.5435    2.6837   -3.0651 S   0  0  0  0  0  0  0  0  0  0  0  0
    4.3629    1.7197   -4.0683 C   0  0  0  0  0  0  0  0  0  0  0  0
    5.3450    0.9806   -0.8803 C   0  0  0  0  0  0  0  0  0  0  0  0
    4.8014    0.5493    0.3345 C   0  0  0  0  0  0  0  0  0  0  0  0
    0.8760    0.2776    1.2844 C   0  0  0  0  0  0  0  0  0  0  0  0
    0.7646    0.8192   -0.2753 S   0  0  0  0  0  0  0  0  0  0  0  0
    2.4551   -1.7380    3.8704 C   0  0  0  0  0  0  0  0  0  0  0  0
    2.2254   -2.2113    5.1742 C   0  0  0  0  0  0  0  0  0  0  0  0
    2.9000   -3.3552    5.6712 C   0  0  0  0  0  0  0  0  0  0  0  0
    2.5005   -3.7604    6.9876 N   0  0  0  0  0  0  0  0  0  0  0  0
    1.4158   -2.6403    7.3170 S   0  0  0  0  0  4  0  0  0  0  0  0
    1.2790   -1.6411    6.0778 N   0  0  0  0  0  0  0  0  0  0  0  0
    3.8323   -4.0492    4.8801 C   0  0  0  0  0  0  0  0  0  0  0  0
    4.1084   -3.5588    3.5968 C   0  0  0  0  0  0  0  0  0  0  0  0
    4.9618   -4.1854    2.7433 N   0  0  0  0  0  0  0  0  0  0  0  0
    4.7569   -3.2777    1.3862 S   0  0  0  0  0  0  0  0  0  0  0  0
    3.6454   -2.1303    1.7827 N   0  0  0  0  0  0  0  0  0  0  0  0
    3.4041   -2.4293    3.0847 C   0  0  0  0  0  0  0  0  0  0  0  0
    4.3964   -5.3422    5.3053 C   0  0  0  0  0  0  0  0  0  0  0  0
    4.0155   -6.4966    4.7128 C   0  0  0  0  0  0  0  0  0  0  0  0
    2.9092   -6.6280    3.7524 C   0  0  0  0  0  0  0  0  0  0  0  0
    1.9525   -5.8213    3.5979 O   0  0  0  0  0  0  0  0  0  0  0  0
    3.1190   -7.8260    2.9679 C   0  0  0  0  0  0  0  0  0  0  0  0
    2.4325   -8.2469    1.8302 C   0  0  0  0  0  0  0  0  0  0  0  0
    2.9255   -9.3461    1.1183 C   0  0  0  0  0  0  0  0  0  0  0  0
    2.3025   -9.7311   -0.0279 F   0  0  0  0  0  0  0  0  0  0  0  0
    4.1044   -9.9922    1.5337 C   0  0  0  0  0  0  0  0  0  0  0  0
    4.6289  -10.9837    0.7779 F   0  0  0  0  0  0  0  0  0  0  0  0
    4.7873   -9.5490    2.6809 C   0  0  0  0  0  0  0  0  0  0  0  0
    4.2562   -8.4780    3.4189 C   0  0  0  0  0  0  0  0  0  0  0  0
    4.8069   -7.7606    4.5995 C   0  0  0  0  0  0  0  0  0  0  0  0
    5.6906   -8.2586    5.5045 C   0  0  0  0  0  0  0  0  0  0  0  0
    6.0565   -7.5582    6.7084 C   0  0  0  0  0  0  0  0  0  0  0  0
    6.3555   -7.0050    7.6822 N   0  0  0  0  0  0  0  0  0  0  0  0
    6.2004   -9.6036    5.4123 C   0  0  0  0  0  0  0  0  0  0  0  0
    6.5964  -10.6885    5.3608 N   0  0  0  0  0  0  0  0  0  0  0  0
   -4.0208    4.8213   -9.1683 H   0  0  0  0  0  0  0  0  0  0  0  0
   -0.3560    8.4222   -7.8982 H   0  0  0  0  0  0  0  0  0  0  0  0
    1.1951    9.9131   -5.0155 H   0  0  0  0  0  0  0  0  0  0  0  0
    2.0168    8.3510   -5.4019 H   0  0  0  0  0  0  0  0  0  0  0  0
    1.4849    9.4607   -6.7281 H   0  0  0  0  0  0  0  0  0  0  0  0
   -2.2103    6.7505   -3.5778 H   0  0  0  0  0  0  0  0  0  0  0  0
   -1.7338    4.0180   -7.2886 H   0  0  0  0  0  0  0  0  0  0  0  0
   -5.4412    1.1976   -5.5113 H   0  0  0  0  0  0  0  0  0  0  0  0
   -5.9149    2.9257   -7.2528 H   0  0  0  0  0  0  0  0  0  0  0  0
   -4.4720   -0.1716   -3.5051 H   0  0  0  0  0  0  0  0  0  0  0  0
   -3.2768   -0.7506   -1.4265 H   0  0  0  0  0  0  0  0  0  0  0  0
    0.0912    1.6914   -2.7150 H   0  0  0  0  0  0  0  0  0  0  0  0
   -3.7599   -0.4218    3.5107 H   0  0  0  0  0  0  0  0  0  0  0  0
   -3.9671   -2.3675    5.0147 H   0  0  0  0  0  0  0  0  0  0  0  0
   -5.7016   -4.5535    4.9809 H   0  0  0  0  0  0  0  0  0  0  0  0
   -5.4863   -6.3400    5.0351 H   0  0  0  0  0  0  0  0  0  0  0  0
   -5.5020   -5.4892    3.4366 H   0  0  0  0  0  0  0  0  0  0  0  0
   -2.6591   -4.9599    1.8310 H   0  0  0  0  0  0  0  0  0  0  0  0
   -2.3467   -3.0044    0.3613 H   0  0  0  0  0  0  0  0  0  0  0  0
   -5.3700   -0.8756    0.6324 H   0  0  0  0  0  0  0  0  0  0  0  0
   -7.1072    0.8110    0.1989 H   0  0  0  0  0  0  0  0  0  0  0  0
   -5.7964    3.9546   -2.1256 H   0  0  0  0  0  0  0  0  0  0  0  0
   -7.5497    4.3365   -2.3274 H   0  0  0  0  0  0  0  0  0  0  0  0
   -6.9903    2.6054   -2.2094 H   0  0  0  0  0  0  0  0  0  0  0  0
   -4.1540    3.9356    0.4310 H   0  0  0  0  0  0  0  0  0  0  0  0
   -2.4118    2.2716    0.8831 H   0  0  0  0  0  0  0  0  0  0  0  0
    1.6363    2.2951    3.8466 H   0  0  0  0  0  0  0  0  0  0  0  0
    2.3852    3.5394    5.8351 H   0  0  0  0  0  0  0  0  0  0  0  0
    6.5602    4.9114    5.5775 H   0  0  0  0  0  0  0  0  0  0  0  0
    5.9592    6.0767    6.8244 H   0  0  0  0  0  0  0  0  0  0  0  0
    4.9127    5.6426    5.4053 H   0  0  0  0  0  0  0  0  0  0  0  0
    6.4184    2.1890    5.1744 H   0  0  0  0  0  0  0  0  0  0  0  0
    5.6822    0.9552    3.1737 H   0  0  0  0  0  0  0  0  0  0  0  0
    2.5746    3.0801    0.8419 H   0  0  0  0  0  0  0  0  0  0  0  0
    3.5100    3.8127   -1.3258 H   0  0  0  0  0  0  0  0  0  0  0  0
    4.5033    0.6347   -3.8770 H   0  0  0  0  0  0  0  0  0  0  0  0
    4.5542    1.9210   -5.1400 H   0  0  0  0  0  0  0  0  0  0  0  0
    3.3195    2.0091   -3.8078 H   0  0  0  0  0  0  0  0  0  0  0  0
    6.1514    0.4129   -1.3355 H   0  0  0  0  0  0  0  0  0  0  0  0
    5.2029   -0.3312    0.8168 H   0  0  0  0  0  0  0  0  0  0  0  0
    5.3112   -5.2887    5.8616 H   0  0  0  0  0  0  0  0  0  0  0  0
    1.5673   -7.6956    1.4768 H   0  0  0  0  0  0  0  0  0  0  0  0
    5.7467   -9.9729    2.9089 H   0  0  0  0  0  0  0  0  0  0  0  0
  1  2  2  3
  2  3  1  0
  3  4  2  0
  3  5  1  0
  5  6  2  0
  6  7  1  0
  7  8  1  0
  7  9  2  0
  9 10  1  0
  9 11  1  0
 11 12  2  0
 12 13  1  0
 13 14  2  3
 14 15  1  0
 15 16  3  0
 14 17  1  0
 17 18  3  0
  1 19  1  0
 19 20  2  0
 20 21  1  0
 21 22  1  0
 22 23  2  0
 22 24  1  0
 24 25  2  0
 25 26  1  0
 26 27  1  0
 27 28  2  0
 25 29  1  0
 29 30  2  0
 30 31  1  0
 31 32  2  0
 31 33  1  0
 33 34  2  0
 34 35  1  0
 35 36  1  0
 36 37  2  0
 37 38  1  0
 38 39  2  0
 39 40  1  0
 40 41  1  0
 39 42  1  0
 42 43  2  0
 35 44  1  0
 44 45  2  0
 45 46  1  0
 46 47  2  0
 47 48  1  0
 48 49  1  0
 47 50  1  0
 50 51  2  0
 34 52  1  0
 52 53  1  0
 53 54  1  0
 54 55  2  0
 55 56  1  0
 56 57  1  0
 57 58  2  0
 58 59  1  0
 59 60  2  0
 60 61  1  0
 61 62  1  0
 60 63  1  0
 63 64  2  0
 56 65  1  0
 65 66  2  0
 66 67  1  0
 67 68  2  0
 68 69  1  0
 69 70  1  0
 68 71  1  0
 71 72  2  0
 55 73  1  0
 73 74  1  0
 54 75  1  0
 75 76  2  0
 76 77  1  0
 77 78  1  0
 78 79  2  0
 79 80  2  0
 77 81  2  0
 81 82  1  0
 82 83  2  0
 83 84  1  0
 84 85  1  0
 85 86  2  0
 81 87  1  0
 87 88  2  3
 88 89  1  0
 89 90  2  0
 89 91  1  0
 91 92  2  0
 92 93  1  0
 93 94  1  0
 93 95  2  0
 95 96  1  0
 95 97  1  0
 97 98  2  0
 98 99  1  0
 99100  2  3
100101  1  0
101102  3  0
100103  1  0
103104  3  0
 13  2  1  0
 28 19  1  0
 74 33  1  0
 86 75  1  0
 99 88  1  0
 12  5  1  0
 26 21  2  0
 43 36  1  0
 51 44  1  0
 73 52  2  0
 80 76  1  0
 86 82  1  0
 98 91  1  0
 32 24  1  0
 64 57  1  0
 72 65  1  0
  1105  1  0
  6106  1  0
  8107  1  0
  8108  1  0
  8109  1  0
 11110  1  0
 20111  1  0
 27112  1  0
 28113  1  0
 29114  1  0
 30115  1  0
 32116  1  0
 37117  1  0
 38118  1  0
 41119  1  0
 41120  1  0
 41121  1  0
 42122  1  0
 43123  1  0
 45124  1  0
 46125  1  0
 49126  1  0
 49127  1  0
 49128  1  0
 50129  1  0
 51130  1  0
 58131  1  0
 59132  1  0
 62133  1  0
 62134  1  0
 62135  1  0
 63136  1  0
 64137  1  0
 66138  1  0
 67139  1  0
 70140  1  0
 70141  1  0
 70142  1  0
 71143  1  0
 72144  1  0
 87145  1  0
 92146  1  0
 97147  1  0
M  END

