
     RDKit          3D

153169  0  0  0  0  0  0  0  0999 V2000
   -2.7153    1.0723   -7.8954 C   0  0  0  0  0  0  0  0  0  0  0  0
   -2.2077    0.0093   -8.5487 C   0  0  0  0  0  0  0  0  0  0  0  0
   -0.9497   -0.6604   -8.2151 C   0  0  0  0  0  0  0  0  0  0  0  0
   -0.2253   -0.4288   -7.2130 O   0  0  0  0  0  0  0  0  0  0  0  0
   -0.6157   -1.5917   -9.2631 C   0  0  0  0  0  0  0  0  0  0  0  0
    0.5340   -2.3671   -9.3811 C   0  0  0  0  0  0  0  0  0  0  0  0
    0.6970   -3.1583  -10.5297 C   0  0  0  0  0  0  0  0  0  0  0  0
    1.9287   -4.0054  -10.6979 C   0  0  0  0  0  0  0  0  0  0  0  0
   -0.2805   -3.1157  -11.5493 C   0  0  0  0  0  0  0  0  0  0  0  0
   -0.1064   -3.8260  -12.6900 F   0  0  0  0  0  0  0  0  0  0  0  0
   -1.4258   -2.3100  -11.4097 C   0  0  0  0  0  0  0  0  0  0  0  0
   -1.6014   -1.5631  -10.2337 C   0  0  0  0  0  0  0  0  0  0  0  0
   -2.6967   -0.6324   -9.8120 C   0  0  0  0  0  0  0  0  0  0  0  0
   -3.9406   -0.5498  -10.3559 C   0  0  0  0  0  0  0  0  0  0  0  0
   -5.0090    0.1962   -9.7461 C   0  0  0  0  0  0  0  0  0  0  0  0
   -5.8782    0.7877   -9.2655 N   0  0  0  0  0  0  0  0  0  0  0  0
   -4.3199   -1.2407  -11.5597 C   0  0  0  0  0  0  0  0  0  0  0  0
   -4.6316   -1.7671  -12.5408 N   0  0  0  0  0  0  0  0  0  0  0  0
   -2.0957    1.6081   -6.6640 C   0  0  0  0  0  0  0  0  0  0  0  0
   -2.6105    1.2791   -5.4065 C   0  0  0  0  0  0  0  0  0  0  0  0
   -1.9508    1.6724   -4.2142 C   0  0  0  0  0  0  0  0  0  0  0  0
   -2.5557    1.1882   -3.0083 N   0  0  0  0  0  0  0  0  0  0  0  0
   -3.7845    0.3608   -3.6134 S   0  0  0  0  0  4  0  0  0  0  0  0
   -3.7692    0.4586   -5.2049 N   0  0  0  0  0  0  0  0  0  0  0  0
   -0.7435    2.3913   -4.2537 C   0  0  0  0  0  0  0  0  0  0  0  0
   -0.2327    2.7521   -5.5125 C   0  0  0  0  0  0  0  0  0  0  0  0
    0.9149    3.4586   -5.6675 N   0  0  0  0  0  0  0  0  0  0  0  0
    0.9859    3.5626   -7.3134 S   0  0  0  0  0  0  0  0  0  0  0  0
   -0.3429    2.7633   -7.8857 N   0  0  0  0  0  0  0  0  0  0  0  0
   -0.9186    2.3773   -6.7145 C   0  0  0  0  0  0  0  0  0  0  0  0
    0.0103    2.6418   -3.0136 C   0  0  0  0  0  0  0  0  0  0  0  0
    1.2194    2.0146   -2.6643 C   0  0  0  0  0  0  0  0  0  0  0  0
    1.8817    1.0121   -3.4570 N   0  0  0  0  0  0  0  0  0  0  0  0
    1.1940   -0.2264   -3.7599 C   0  0  0  0  0  0  0  0  0  0  0  0
    0.1874   -0.7183   -2.9045 C   0  0  0  0  0  0  0  0  0  0  0  0
   -0.4608   -1.9193   -3.1892 C   0  0  0  0  0  0  0  0  0  0  0  0
   -0.1024   -2.6650   -4.3176 C   0  0  0  0  0  0  0  0  0  0  0  0
   -0.9440   -4.2047   -4.6873 S   0  0  0  0  0  0  0  0  0  0  0  0
    0.2948   -5.2198   -3.8239 C   0  0  0  0  0  0  0  0  0  0  0  0
    0.9032   -2.1980   -5.1703 C   0  0  0  0  0  0  0  0  0  0  0  0
    1.5382   -0.9801   -4.9015 C   0  0  0  0  0  0  0  0  0  0  0  0
    3.3019    1.1710   -3.6887 C   0  0  0  0  0  0  0  0  0  0  0  0
    3.8361    2.4488   -3.9355 C   0  0  0  0  0  0  0  0  0  0  0  0
    5.2162    2.6346   -4.0530 C   0  0  0  0  0  0  0  0  0  0  0  0
    6.0791    1.5403   -3.9297 C   0  0  0  0  0  0  0  0  0  0  0  0
    7.8539    1.7941   -3.9968 S   0  0  0  0  0  0  0  0  0  0  0  0
    8.0053    2.0389   -2.1980 C   0  0  0  0  0  0  0  0  0  0  0  0
    5.5592    0.2623   -3.7099 C   0  0  0  0  0  0  0  0  0  0  0  0
    4.1828    0.0769   -3.5771 C   0  0  0  0  0  0  0  0  0  0  0  0
    1.5345    2.2232   -1.3256 C   0  0  0  0  0  0  0  0  0  0  0  0
    2.5332    1.3797   -0.2927 S   0  0  0  0  0  0  0  0  0  0  0  0
    1.7873    1.9230    1.1444 C   0  0  0  0  0  0  0  0  0  0  0  0
    0.7356    2.7984    0.7827 C   0  0  0  0  0  0  0  0  0  0  0  0
   -0.1629    3.4371    1.7145 N   0  0  0  0  0  0  0  0  0  0  0  0
    0.3664    4.3174    2.7339 C   0  0  0  0  0  0  0  0  0  0  0  0
    1.5800    5.0127    2.5249 C   0  0  0  0  0  0  0  0  0  0  0  0
    2.1307    5.7905    3.5495 C   0  0  0  0  0  0  0  0  0  0  0  0
    1.4701    5.9035    4.7811 C   0  0  0  0  0  0  0  0  0  0  0  0
    2.1945    6.8813    6.1029 S   0  0  0  0  0  0  0  0  0  0  0  0
    2.9442    5.4354    6.9180 C   0  0  0  0  0  0  0  0  0  0  0  0
    0.2441    5.2527    4.9771 C   0  0  0  0  0  0  0  0  0  0  0  0
   -0.3017    4.4608    3.9668 C   0  0  0  0  0  0  0  0  0  0  0  0
   -1.5845    3.3759    1.4773 C   0  0  0  0  0  0  0  0  0  0  0  0
   -2.2078    2.1436    1.2139 C   0  0  0  0  0  0  0  0  0  0  0  0
   -3.5700    2.0940    0.9010 C   0  0  0  0  0  0  0  0  0  0  0  0
   -4.3184    3.2773    0.8393 C   0  0  0  0  0  0  0  0  0  0  0  0
   -6.0575    3.2311    0.3982 S   0  0  0  0  0  0  0  0  0  0  0  0
   -5.7340    3.4257   -1.3824 C   0  0  0  0  0  0  0  0  0  0  0  0
   -3.7062    4.5066    1.1117 C   0  0  0  0  0  0  0  0  0  0  0  0
   -2.3458    4.5559    1.4244 C   0  0  0  0  0  0  0  0  0  0  0  0
    0.6242    2.9243   -0.6071 C   0  0  0  0  0  0  0  0  0  0  0  0
   -0.6329    3.3940   -1.6236 S   0  0  0  0  0  0  0  0  0  0  0  0
    1.8137    1.0810    2.3636 C   0  0  0  0  0  0  0  0  0  0  0  0
    1.8710    1.6135    3.6744 C   0  0  0  0  0  0  0  0  0  0  0  0
    1.7812    0.7309    4.7543 C   0  0  0  0  0  0  0  0  0  0  0  0
    1.6944    0.9806    6.1951 C   0  0  0  0  0  0  0  0  0  0  0  0
    1.6946    2.1060    6.7585 O   0  0  0  0  0  0  0  0  0  0  0  0
    1.5465   -0.3270    6.8411 C   0  0  0  0  0  0  0  0  0  0  0  0
    1.5714   -1.2924    5.8473 C   0  0  0  0  0  0  0  0  0  0  0  0
    1.6960   -0.6325    4.5573 C   0  0  0  0  0  0  0  0  0  0  0  0
    1.6842   -1.1884    3.2882 C   0  0  0  0  0  0  0  0  0  0  0  0
    1.7354   -0.3264    2.1915 C   0  0  0  0  0  0  0  0  0  0  0  0
    1.4342   -2.6455    6.1314 C   0  0  0  0  0  0  0  0  0  0  0  0
    1.2498   -3.0174    7.4615 C   0  0  0  0  0  0  0  0  0  0  0  0
    1.1610   -2.0438    8.4919 C   0  0  0  0  0  0  0  0  0  0  0  0
    1.3456   -0.6761    8.1819 C   0  0  0  0  0  0  0  0  0  0  0  0
    0.9567   -2.5005    9.8840 C   0  0  0  0  0  0  0  0  0  0  0  0
   -0.0237   -3.3714   10.2008 C   0  0  0  0  0  0  0  0  0  0  0  0
   -1.1311   -3.7358    9.3112 C   0  0  0  0  0  0  0  0  0  0  0  0
   -1.6462   -2.9977    8.4288 O   0  0  0  0  0  0  0  0  0  0  0  0
   -1.5189   -5.0983    9.5933 C   0  0  0  0  0  0  0  0  0  0  0  0
   -2.3570   -5.9128    8.8372 C   0  0  0  0  0  0  0  0  0  0  0  0
   -2.4381   -7.2787    9.1601 C   0  0  0  0  0  0  0  0  0  0  0  0
   -3.2458   -8.1405    8.4026 C   0  0  0  0  0  0  0  0  0  0  0  0
   -3.2915   -9.5039    8.6979 C   0  0  0  0  0  0  0  0  0  0  0  0
   -4.0617  -10.3346    7.9499 F   0  0  0  0  0  0  0  0  0  0  0  0
   -2.5299  -10.0216    9.7548 C   0  0  0  0  0  0  0  0  0  0  0  0
   -2.5623  -11.3534   10.0225 F   0  0  0  0  0  0  0  0  0  0  0  0
   -1.7215   -9.1737   10.5229 C   0  0  0  0  0  0  0  0  0  0  0  0
   -1.6662   -7.8002   10.2395 C   0  0  0  0  0  0  0  0  0  0  0  0
   -0.8287   -6.9450   10.9866 C   0  0  0  0  0  0  0  0  0  0  0  0
   -0.7782   -5.5753   10.6617 C   0  0  0  0  0  0  0  0  0  0  0  0
    0.0846   -4.4790   11.1939 C   0  0  0  0  0  0  0  0  0  0  0  0
    0.7099   -4.4344   12.3970 C   0  0  0  0  0  0  0  0  0  0  0  0
    1.2969   -3.2196   12.9030 C   0  0  0  0  0  0  0  0  0  0  0  0
    1.7624   -2.2428   13.3153 N   0  0  0  0  0  0  0  0  0  0  0  0
    0.7125   -5.5487   13.3072 C   0  0  0  0  0  0  0  0  0  0  0  0
    0.7161   -6.4361   14.0522 N   0  0  0  0  0  0  0  0  0  0  0  0
   -3.5800    1.5950   -8.2555 H   0  0  0  0  0  0  0  0  0  0  0  0
    1.2924   -2.3449   -8.6068 H   0  0  0  0  0  0  0  0  0  0  0  0
    2.5204   -4.0489   -9.7583 H   0  0  0  0  0  0  0  0  0  0  0  0
    1.6393   -5.0439  -10.9651 H   0  0  0  0  0  0  0  0  0  0  0  0
    2.5742   -3.5882  -11.5026 H   0  0  0  0  0  0  0  0  0  0  0  0
   -2.1204   -2.2661  -12.2274 H   0  0  0  0  0  0  0  0  0  0  0  0
   -0.0956   -0.1776   -2.0076 H   0  0  0  0  0  0  0  0  0  0  0  0
   -1.2349   -2.2825   -2.5237 H   0  0  0  0  0  0  0  0  0  0  0  0
    0.3616   -4.9246   -2.7581 H   0  0  0  0  0  0  0  0  0  0  0  0
   -0.0044   -6.2845   -3.8870 H   0  0  0  0  0  0  0  0  0  0  0  0
    1.2860   -5.0983   -4.3072 H   0  0  0  0  0  0  0  0  0  0  0  0
    1.1832   -2.7643   -6.0483 H   0  0  0  0  0  0  0  0  0  0  0  0
    2.2963   -0.6248   -5.5844 H   0  0  0  0  0  0  0  0  0  0  0  0
    3.1866    3.3126   -4.0074 H   0  0  0  0  0  0  0  0  0  0  0  0
    5.6106    3.6266   -4.2115 H   0  0  0  0  0  0  0  0  0  0  0  0
    7.2171    2.7252   -1.8229 H   0  0  0  0  0  0  0  0  0  0  0  0
    7.9235    1.0610   -1.6808 H   0  0  0  0  0  0  0  0  0  0  0  0
    8.9968    2.4812   -1.9723 H   0  0  0  0  0  0  0  0  0  0  0  0
    6.2251   -0.5823   -3.6124 H   0  0  0  0  0  0  0  0  0  0  0  0
    3.8084   -0.9113   -3.3545 H   0  0  0  0  0  0  0  0  0  0  0  0
    2.1095    4.9318    1.5871 H   0  0  0  0  0  0  0  0  0  0  0  0
    3.0752    6.2991    3.3868 H   0  0  0  0  0  0  0  0  0  0  0  0
    2.1457    4.7306    7.2283 H   0  0  0  0  0  0  0  0  0  0  0  0
    3.4888    5.7743    7.8192 H   0  0  0  0  0  0  0  0  0  0  0  0
    3.6470    4.9295    6.2264 H   0  0  0  0  0  0  0  0  0  0  0  0
   -0.2690    5.3380    5.9294 H   0  0  0  0  0  0  0  0  0  0  0  0
   -1.2278    3.9276    4.1561 H   0  0  0  0  0  0  0  0  0  0  0  0
   -1.6323    1.2249    1.2344 H   0  0  0  0  0  0  0  0  0  0  0  0
   -4.0401    1.1432    0.6849 H   0  0  0  0  0  0  0  0  0  0  0  0
   -5.2045    2.5285   -1.7671 H   0  0  0  0  0  0  0  0  0  0  0  0
   -5.1174    4.3333   -1.5683 H   0  0  0  0  0  0  0  0  0  0  0  0
   -6.7025    3.5331   -1.9135 H   0  0  0  0  0  0  0  0  0  0  0  0
   -4.2754    5.4258    1.0536 H   0  0  0  0  0  0  0  0  0  0  0  0
   -1.8821    5.5154    1.5990 H   0  0  0  0  0  0  0  0  0  0  0  0
    1.9987    2.6674    3.8609 H   0  0  0  0  0  0  0  0  0  0  0  0
    1.6111   -2.2562    3.1399 H   0  0  0  0  0  0  0  0  0  0  0  0
    1.6766   -0.7693    1.2029 H   0  0  0  0  0  0  0  0  0  0  0  0
    1.4675   -3.3926    5.3450 H   0  0  0  0  0  0  0  0  0  0  0  0
    1.1626   -4.0747    7.6980 H   0  0  0  0  0  0  0  0  0  0  0  0
    1.3034    0.0877    8.9504 H   0  0  0  0  0  0  0  0  0  0  0  0
    1.7765   -2.3173   10.5631 H   0  0  0  0  0  0  0  0  0  0  0  0
   -2.8927   -5.5055    7.9883 H   0  0  0  0  0  0  0  0  0  0  0  0
   -3.8344   -7.7611    7.5744 H   0  0  0  0  0  0  0  0  0  0  0  0
   -1.1330   -9.5940   11.3272 H   0  0  0  0  0  0  0  0  0  0  0  0
   -0.2023   -7.3632   11.7574 H   0  0  0  0  0  0  0  0  0  0  0  0
  1  2  2  3
  2  3  1  0
  3  4  2  0
  3  5  1  0
  5  6  2  0
  6  7  1  0
  7  8  1  0
  7  9  2  0
  9 10  1  0
  9 11  1  0
 11 12  2  0
 12 13  1  0
 13 14  2  3
 14 15  1  0
 15 16  3  0
 14 17  1  0
 17 18  3  0
  1 19  1  0
 19 20  2  0
 20 21  1  0
 21 22  1  0
 22 23  2  0
 23 24  2  0
 21 25  2  0
 25 26  1  0
 26 27  2  0
 27 28  1  0
 28 29  1  0
 29 30  2  0
 25 31  1  0
 31 32  2  0
 32 33  1  0
 33 34  1  0
 34 35  2  0
 35 36  1  0
 36 37  2  0
 37 38  1  0
 38 39  1  0
 37 40  1  0
 40 41  2  0
 33 42  1  0
 42 43  2  0
 43 44  1  0
 44 45  2  0
 45 46  1  0
 46 47  1  0
 45 48  1  0
 48 49  2  0
 32 50  1  0
 50 51  1  0
 51 52  1  0
 52 53  2  0
 53 54  1  0
 54 55  1  0
 55 56  2  0
 56 57  1  0
 57 58  2  0
 58 59  1  0
 59 60  1  0
 58 61  1  0
 61 62  2  0
 54 63  1  0
 63 64  2  0
 64 65  1  0
 65 66  2  0
 66 67  1  0
 67 68  1  0
 66 69  1  0
 69 70  2  0
 53 71  1  0
 71 72  1  0
 52 73  1  0
 73 74  2  0
 74 75  1  0
 75 76  1  0
 76 77  2  0
 76 78  1  0
 78 79  2  0
 79 80  1  0
 80 81  1  0
 81 82  2  0
 79 83  1  0
 83 84  2  0
 84 85  1  0
 85 86  2  0
 85 87  1  0
 87 88  2  3
 88 89  1  0
 89 90  2  0
 89 91  1  0
 91 92  2  0
 92 93  1  0
 93 94  2  0
 94 95  1  0
 95 96  1  0
 95 97  2  0
 97 98  1  0
 97 99  1  0
 99100  2  0
100101  1  0
101102  2  0
102103  1  0
103104  2  3
104105  1  0
105106  3  0
104107  1  0
107108  3  0
 13  2  1  0
 30 19  1  0
 72 31  1  0
 82 73  1  0
103 88  1  0
 12  5  1  0
 24 20  1  0
 30 26  1  0
 41 34  1  0
 49 42  1  0
 71 50  2  0
 80 75  2  0
102 91  1  0
 62 55  1  0
 70 63  1  0
 86 78  1  0
100 93  1  0
  1109  1  0
  6110  1  0
  8111  1  0
  8112  1  0
  8113  1  0
 11114  1  0
 35115  1  0
 36116  1  0
 39117  1  0
 39118  1  0
 39119  1  0
 40120  1  0
 41121  1  0
 43122  1  0
 44123  1  0
 47124  1  0
 47125  1  0
 47126  1  0
 48127  1  0
 49128  1  0
 56129  1  0
 57130  1  0
 60131  1  0
 60132  1  0
 60133  1  0
 61134  1  0
 62135  1  0
 64136  1  0
 65137  1  0
 68138  1  0
 68139  1  0
 68140  1  0
 69141  1  0
 70142  1  0
 74143  1  0
 81144  1  0
 82145  1  0
 83146  1  0
 84147  1  0
 86148  1  0
 87149  1  0
 92150  1  0
 94151  1  0
 99152  1  0
101153  1  0
M  END

