
     RDKit          3D

153169  0  0  0  0  0  0  0  0999 V2000
    2.7546   -8.7170    1.5125 C   0  0  0  0  0  0  0  0  0  0  0  0
    1.5315   -9.1833    1.1728 C   0  0  0  0  0  0  0  0  0  0  0  0
    0.4810   -8.4119    0.4958 C   0  0  0  0  0  0  0  0  0  0  0  0
    0.6344   -7.3434   -0.1540 O   0  0  0  0  0  0  0  0  0  0  0  0
   -0.7642   -9.1340    0.6144 C   0  0  0  0  0  0  0  0  0  0  0  0
   -2.0075   -8.7784    0.0886 C   0  0  0  0  0  0  0  0  0  0  0  0
   -3.0759   -9.6831    0.2246 C   0  0  0  0  0  0  0  0  0  0  0  0
   -4.4271   -9.3516   -0.3377 C   0  0  0  0  0  0  0  0  0  0  0  0
   -2.8633  -10.9246    0.8669 C   0  0  0  0  0  0  0  0  0  0  0  0
   -3.8669  -11.8362    0.9426 F   0  0  0  0  0  0  0  0  0  0  0  0
   -1.6041  -11.2526    1.3923 C   0  0  0  0  0  0  0  0  0  0  0  0
   -0.5561  -10.3240    1.2878 C   0  0  0  0  0  0  0  0  0  0  0  0
    0.8867  -10.4485    1.6440 C   0  0  0  0  0  0  0  0  0  0  0  0
    1.4777  -11.4959    2.2770 C   0  0  0  0  0  0  0  0  0  0  0  0
    2.8908  -11.7390    2.2144 C   0  0  0  0  0  0  0  0  0  0  0  0
    4.0319  -11.9461    2.1654 N   0  0  0  0  0  0  0  0  0  0  0  0
    0.7285  -12.3786    3.1348 C   0  0  0  0  0  0  0  0  0  0  0  0
    0.1563  -13.0582    3.8743 N   0  0  0  0  0  0  0  0  0  0  0  0
    3.1604   -7.3065    1.3700 C   0  0  0  0  0  0  0  0  0  0  0  0
    2.3686   -6.2864    1.9404 C   0  0  0  0  0  0  0  0  0  0  0  0
    2.8162   -4.9759    1.8533 C   0  0  0  0  0  0  0  0  0  0  0  0
    2.1568   -3.7418    2.2577 C   0  0  0  0  0  0  0  0  0  0  0  0
    1.0082   -3.6311    2.7596 O   0  0  0  0  0  0  0  0  0  0  0  0
    3.0474   -2.6547    1.8655 C   0  0  0  0  0  0  0  0  0  0  0  0
    4.1711   -3.1945    1.2690 C   0  0  0  0  0  0  0  0  0  0  0  0
    4.0243   -4.6556    1.2566 C   0  0  0  0  0  0  0  0  0  0  0  0
    4.8380   -5.6455    0.7045 C   0  0  0  0  0  0  0  0  0  0  0  0
    4.4033   -6.9855    0.7738 C   0  0  0  0  0  0  0  0  0  0  0  0
    5.1512   -2.3749    0.7059 C   0  0  0  0  0  0  0  0  0  0  0  0
    4.9477   -0.9797    0.7347 C   0  0  0  0  0  0  0  0  0  0  0  0
    3.7748   -0.4253    1.3115 C   0  0  0  0  0  0  0  0  0  0  0  0
    2.8221   -1.2894    1.8910 C   0  0  0  0  0  0  0  0  0  0  0  0
    3.4322    0.9861    1.0535 C   0  0  0  0  0  0  0  0  0  0  0  0
    2.5548    1.8032    1.8013 C   0  0  0  0  0  0  0  0  0  0  0  0
    2.2026    1.5908    3.1833 N   0  0  0  0  0  0  0  0  0  0  0  0
    0.9152    1.0333    3.5688 C   0  0  0  0  0  0  0  0  0  0  0  0
    0.6840    0.6034    4.8938 C   0  0  0  0  0  0  0  0  0  0  0  0
   -0.5541    0.0770    5.2699 C   0  0  0  0  0  0  0  0  0  0  0  0
   -1.5822   -0.0388    4.3301 C   0  0  0  0  0  0  0  0  0  0  0  0
   -3.1873   -0.6821    4.8156 S   0  0  0  0  0  0  0  0  0  0  0  0
   -3.8726    0.9715    5.1582 C   0  0  0  0  0  0  0  0  0  0  0  0
   -1.3564    0.3342    3.0016 C   0  0  0  0  0  0  0  0  0  0  0  0
   -0.1147    0.8495    2.6195 C   0  0  0  0  0  0  0  0  0  0  0  0
    3.1005    2.1506    4.1605 C   0  0  0  0  0  0  0  0  0  0  0  0
    2.6396    3.1188    5.0687 C   0  0  0  0  0  0  0  0  0  0  0  0
    3.5155    3.6910    5.9995 C   0  0  0  0  0  0  0  0  0  0  0  0
    4.8633    3.3159    6.0145 C   0  0  0  0  0  0  0  0  0  0  0  0
    6.0070    4.1054    7.1550 S   0  0  0  0  0  0  0  0  0  0  0  0
    5.8522    2.8113    8.4235 C   0  0  0  0  0  0  0  0  0  0  0  0
    5.3319    2.3573    5.1073 C   0  0  0  0  0  0  0  0  0  0  0  0
    4.4556    1.7756    4.1841 C   0  0  0  0  0  0  0  0  0  0  0  0
    2.0700    2.8696    1.0398 C   0  0  0  0  0  0  0  0  0  0  0  0
    0.6811    3.7905    1.1510 S   0  0  0  0  0  0  0  0  0  0  0  0
    0.6045    4.2012   -0.5157 C   0  0  0  0  0  0  0  0  0  0  0  0
    1.7549    3.6647   -1.1258 C   0  0  0  0  0  0  0  0  0  0  0  0
    2.2295    3.9927   -2.4410 N   0  0  0  0  0  0  0  0  0  0  0  0
    2.2543    2.9385   -3.4197 C   0  0  0  0  0  0  0  0  0  0  0  0
    3.4816    2.3952   -3.8374 C   0  0  0  0  0  0  0  0  0  0  0  0
    3.5187    1.3727   -4.7914 C   0  0  0  0  0  0  0  0  0  0  0  0
    2.3291    0.8925   -5.3427 C   0  0  0  0  0  0  0  0  0  0  0  0
    2.3814   -0.3585   -6.6230 S   0  0  0  0  0  0  0  0  0  0  0  0
    2.6746    0.8499   -7.9545 C   0  0  0  0  0  0  0  0  0  0  0  0
    1.1004    1.4163   -4.9187 C   0  0  0  0  0  0  0  0  0  0  0  0
    1.0604    2.4216   -3.9449 C   0  0  0  0  0  0  0  0  0  0  0  0
    3.0959    5.1477   -2.6036 C   0  0  0  0  0  0  0  0  0  0  0  0
    3.3389    5.6703   -3.8887 C   0  0  0  0  0  0  0  0  0  0  0  0
    4.1725    6.7792   -4.0582 C   0  0  0  0  0  0  0  0  0  0  0  0
    4.7878    7.3750   -2.9511 C   0  0  0  0  0  0  0  0  0  0  0  0
    5.8584    8.8031   -3.1640 S   0  0  0  0  0  0  0  0  0  0  0  0
    7.3705    7.7990   -3.2882 C   0  0  0  0  0  0  0  0  0  0  0  0
    4.5375    6.8789   -1.6709 C   0  0  0  0  0  0  0  0  0  0  0  0
    3.6918    5.7833   -1.4942 C   0  0  0  0  0  0  0  0  0  0  0  0
    2.5181    2.9154   -0.2373 C   0  0  0  0  0  0  0  0  0  0  0  0
    3.5766    1.6451   -0.5103 S   0  0  0  0  0  0  0  0  0  0  0  0
   -0.6840    4.4251   -1.2347 C   0  0  0  0  0  0  0  0  0  0  0  0
   -0.7636    5.2088   -2.4087 C   0  0  0  0  0  0  0  0  0  0  0  0
   -1.9042    5.1705   -3.2530 C   0  0  0  0  0  0  0  0  0  0  0  0
   -1.8004    5.9527   -4.4455 N   0  0  0  0  0  0  0  0  0  0  0  0
   -0.3439    6.5760   -4.2555 S   0  0  0  0  0  4  0  0  0  0  0  0
    0.2892    6.0585   -2.8814 N   0  0  0  0  0  0  0  0  0  0  0  0
   -3.0361    4.4206   -2.9215 C   0  0  0  0  0  0  0  0  0  0  0  0
   -3.0155    3.7016   -1.7143 C   0  0  0  0  0  0  0  0  0  0  0  0
   -4.0621    2.9335   -1.2999 N   0  0  0  0  0  0  0  0  0  0  0  0
   -3.4566    2.3016    0.0939 S   0  0  0  0  0  0  0  0  0  0  0  0
   -1.9358    2.9266    0.2391 N   0  0  0  0  0  0  0  0  0  0  0  0
   -1.8501    3.6989   -0.8795 C   0  0  0  0  0  0  0  0  0  0  0  0
   -4.1286    4.2163   -3.9018 C   0  0  0  0  0  0  0  0  0  0  0  0
   -5.4288    4.3708   -3.5868 C   0  0  0  0  0  0  0  0  0  0  0  0
   -5.9298    5.2285   -2.5114 C   0  0  0  0  0  0  0  0  0  0  0  0
   -5.2324    5.9475   -1.7452 O   0  0  0  0  0  0  0  0  0  0  0  0
   -7.3711    5.1972   -2.5401 C   0  0  0  0  0  0  0  0  0  0  0  0
   -8.2539    5.8850   -1.7085 C   0  0  0  0  0  0  0  0  0  0  0  0
   -9.6336    5.6760   -1.8809 C   0  0  0  0  0  0  0  0  0  0  0  0
  -10.5555    6.3108   -1.0391 C   0  0  0  0  0  0  0  0  0  0  0  0
  -11.9239    6.0656   -1.1865 C   0  0  0  0  0  0  0  0  0  0  0  0
  -12.8048    6.6622   -0.3456 F   0  0  0  0  0  0  0  0  0  0  0  0
  -12.3812    5.1944   -2.1828 C   0  0  0  0  0  0  0  0  0  0  0  0
  -13.7102    4.9496   -2.3126 F   0  0  0  0  0  0  0  0  0  0  0  0
  -11.4748    4.5784   -3.0469 C   0  0  0  0  0  0  0  0  0  0  0  0
  -10.1005    4.8078   -2.9065 C   0  0  0  0  0  0  0  0  0  0  0  0
   -9.1828    4.1754   -3.7647 C   0  0  0  0  0  0  0  0  0  0  0  0
   -7.8000    4.3571   -3.5531 C   0  0  0  0  0  0  0  0  0  0  0  0
   -6.6233    3.7469   -4.2411 C   0  0  0  0  0  0  0  0  0  0  0  0
   -6.6331    2.6431   -5.0454 C   0  0  0  0  0  0  0  0  0  0  0  0
   -5.4272    1.9756   -5.4539 C   0  0  0  0  0  0  0  0  0  0  0  0
   -4.4621    1.4165   -5.7755 N   0  0  0  0  0  0  0  0  0  0  0  0
   -7.8431    1.9370   -5.3787 C   0  0  0  0  0  0  0  0  0  0  0  0
   -8.8086    1.3532   -5.6156 N   0  0  0  0  0  0  0  0  0  0  0  0
    3.4658   -9.3367    2.0236 H   0  0  0  0  0  0  0  0  0  0  0  0
   -2.1326   -7.8294   -0.4166 H   0  0  0  0  0  0  0  0  0  0  0  0
   -5.2003   -9.4751    0.4517 H   0  0  0  0  0  0  0  0  0  0  0  0
   -4.4639   -8.2943   -0.6957 H   0  0  0  0  0  0  0  0  0  0  0  0
   -4.6588  -10.0196   -1.1940 H   0  0  0  0  0  0  0  0  0  0  0  0
   -1.4612  -12.2292    1.8303 H   0  0  0  0  0  0  0  0  0  0  0  0
    1.4305   -6.5091    2.4303 H   0  0  0  0  0  0  0  0  0  0  0  0
    5.7706   -5.3938    0.2168 H   0  0  0  0  0  0  0  0  0  0  0  0
    5.0265   -7.7650    0.3551 H   0  0  0  0  0  0  0  0  0  0  0  0
    6.0152   -2.7972    0.2144 H   0  0  0  0  0  0  0  0  0  0  0  0
    5.6764   -0.3353    0.2521 H   0  0  0  0  0  0  0  0  0  0  0  0
    1.8765   -0.9415    2.2580 H   0  0  0  0  0  0  0  0  0  0  0  0
    1.4699    0.6645    5.6386 H   0  0  0  0  0  0  0  0  0  0  0  0
   -0.7099   -0.2397    6.2931 H   0  0  0  0  0  0  0  0  0  0  0  0
   -4.9538    0.8781    5.3824 H   0  0  0  0  0  0  0  0  0  0  0  0
   -3.3555    1.4264    6.0295 H   0  0  0  0  0  0  0  0  0  0  0  0
   -3.7553    1.6286    4.2707 H   0  0  0  0  0  0  0  0  0  0  0  0
   -2.1379    0.2247    2.2641 H   0  0  0  0  0  0  0  0  0  0  0  0
    0.0280    1.0951    1.5755 H   0  0  0  0  0  0  0  0  0  0  0  0
    1.6024    3.4353    5.0538 H   0  0  0  0  0  0  0  0  0  0  0  0
    3.1514    4.4412    6.6905 H   0  0  0  0  0  0  0  0  0  0  0  0
    6.5047    3.0736    9.2801 H   0  0  0  0  0  0  0  0  0  0  0  0
    4.8063    2.7322    8.7777 H   0  0  0  0  0  0  0  0  0  0  0  0
    6.1792    1.8300    8.0119 H   0  0  0  0  0  0  0  0  0  0  0  0
    6.3771    2.0685    5.1093 H   0  0  0  0  0  0  0  0  0  0  0  0
    4.8321    1.0309    3.5001 H   0  0  0  0  0  0  0  0  0  0  0  0
    4.4110    2.7593   -3.4084 H   0  0  0  0  0  0  0  0  0  0  0  0
    4.4716    0.9741   -5.1064 H   0  0  0  0  0  0  0  0  0  0  0  0
    3.6423    1.3684   -7.7881 H   0  0  0  0  0  0  0  0  0  0  0  0
    1.8603    1.6027   -7.9997 H   0  0  0  0  0  0  0  0  0  0  0  0
    2.7307    0.3147   -8.9276 H   0  0  0  0  0  0  0  0  0  0  0  0
    0.1751    1.0542   -5.3518 H   0  0  0  0  0  0  0  0  0  0  0  0
    0.1062    2.8181   -3.6293 H   0  0  0  0  0  0  0  0  0  0  0  0
    2.8637    5.2331   -4.7587 H   0  0  0  0  0  0  0  0  0  0  0  0
    4.3338    7.1828   -5.0550 H   0  0  0  0  0  0  0  0  0  0  0  0
    7.2994    7.1141   -4.1582 H   0  0  0  0  0  0  0  0  0  0  0  0
    8.2396    8.4753   -3.4294 H   0  0  0  0  0  0  0  0  0  0  0  0
    7.5206    7.2123   -2.3563 H   0  0  0  0  0  0  0  0  0  0  0  0
    4.9973    7.3403   -0.8051 H   0  0  0  0  0  0  0  0  0  0  0  0
    3.5268    5.4268   -0.4855 H   0  0  0  0  0  0  0  0  0  0  0  0
   -3.8337    3.8275   -4.8617 H   0  0  0  0  0  0  0  0  0  0  0  0
   -7.8767    6.5501   -0.9351 H   0  0  0  0  0  0  0  0  0  0  0  0
  -10.2149    6.9861   -0.2589 H   0  0  0  0  0  0  0  0  0  0  0  0
  -11.8451    3.8995   -3.8111 H   0  0  0  0  0  0  0  0  0  0  0  0
   -9.5547    3.5611   -4.5703 H   0  0  0  0  0  0  0  0  0  0  0  0
  1  2  2  3
  2  3  1  0
  3  4  2  0
  3  5  1  0
  5  6  2  0
  6  7  1  0
  7  8  1  0
  7  9  2  0
  9 10  1  0
  9 11  1  0
 11 12  2  0
 12 13  1  0
 13 14  2  3
 14 15  1  0
 15 16  3  0
 14 17  1  0
 17 18  3  0
  1 19  1  0
 19 20  2  0
 20 21  1  0
 21 22  1  0
 22 23  2  0
 22 24  1  0
 24 25  2  0
 25 26  1  0
 26 27  1  0
 27 28  2  0
 25 29  1  0
 29 30  2  0
 30 31  1  0
 31 32  2  0
 31 33  1  0
 33 34  2  0
 34 35  1  0
 35 36  1  0
 36 37  2  0
 37 38  1  0
 38 39  2  0
 39 40  1  0
 40 41  1  0
 39 42  1  0
 42 43  2  0
 35 44  1  0
 44 45  2  0
 45 46  1  0
 46 47  2  0
 47 48  1  0
 48 49  1  0
 47 50  1  0
 50 51  2  0
 34 52  1  0
 52 53  1  0
 53 54  1  0
 54 55  2  0
 55 56  1  0
 56 57  1  0
 57 58  2  0
 58 59  1  0
 59 60  2  0
 60 61  1  0
 61 62  1  0
 60 63  1  0
 63 64  2  0
 56 65  1  0
 65 66  2  0
 66 67  1  0
 67 68  2  0
 68 69  1  0
 69 70  1  0
 68 71  1  0
 71 72  2  0
 55 73  1  0
 73 74  1  0
 54 75  1  0
 75 76  2  0
 76 77  1  0
 77 78  1  0
 78 79  2  0
 79 80  2  0
 77 81  2  0
 81 82  1  0
 82 83  2  0
 83 84  1  0
 84 85  1  0
 85 86  2  0
 81 87  1  0
 87 88  2  3
 88 89  1  0
 89 90  2  0
 89 91  1  0
 91 92  2  0
 92 93  1  0
 93 94  2  0
 94 95  1  0
 95 96  1  0
 95 97  2  0
 97 98  1  0
 97 99  1  0
 99100  2  0
100101  1  0
101102  2  0
102103  1  0
103104  2  3
104105  1  0
105106  3  0
104107  1  0
107108  3  0
 13  2  1  0
 28 19  1  0
 74 33  1  0
 86 75  1  0
103 88  1  0
 12  5  1  0
 26 21  2  0
 43 36  1  0
 51 44  1  0
 73 52  2  0
 80 76  1  0
 86 82  1  0
102 91  1  0
 32 24  1  0
 64 57  1  0
 72 65  1  0
100 93  1  0
  1109  1  0
  6110  1  0
  8111  1  0
  8112  1  0
  8113  1  0
 11114  1  0
 20115  1  0
 27116  1  0
 28117  1  0
 29118  1  0
 30119  1  0
 32120  1  0
 37121  1  0
 38122  1  0
 41123  1  0
 41124  1  0
 41125  1  0
 42126  1  0
 43127  1  0
 45128  1  0
 46129  1  0
 49130  1  0
 49131  1  0
 49132  1  0
 50133  1  0
 51134  1  0
 58135  1  0
 59136  1  0
 62137  1  0
 62138  1  0
 62139  1  0
 63140  1  0
 64141  1  0
 66142  1  0
 67143  1  0
 70144  1  0
 70145  1  0
 70146  1  0
 71147  1  0
 72148  1  0
 87149  1  0
 92150  1  0
 94151  1  0
 99152  1  0
101153  1  0
M  END

