
     RDKit          3D

175193  0  0  0  0  0  0  0  0999 V2000
    7.8359    4.1884   -1.3912 C   0  0  0  0  0  0  0  0  0  0  0  0
    7.4090    4.4031   -2.6526 C   0  0  0  0  0  0  0  0  0  0  0  0
    8.0494    5.3783   -3.5333 C   0  0  0  0  0  0  0  0  0  0  0  0
    9.1944    5.8795   -3.3733 O   0  0  0  0  0  0  0  0  0  0  0  0
    7.0956    5.7715   -4.5514 C   0  0  0  0  0  0  0  0  0  0  0  0
    7.2099    6.7929   -5.4936 C   0  0  0  0  0  0  0  0  0  0  0  0
    6.1049    7.0772   -6.3184 C   0  0  0  0  0  0  0  0  0  0  0  0
    6.1732    8.2029   -7.3097 C   0  0  0  0  0  0  0  0  0  0  0  0
    4.8970    6.3635   -6.1382 C   0  0  0  0  0  0  0  0  0  0  0  0
    3.8059    6.6661   -6.8856 F   0  0  0  0  0  0  0  0  0  0  0  0
    4.8028    5.3505   -5.1713 C   0  0  0  0  0  0  0  0  0  0  0  0
    5.9320    5.0412   -4.3962 C   0  0  0  0  0  0  0  0  0  0  0  0
    6.1070    4.0457   -3.3071 C   0  0  0  0  0  0  0  0  0  0  0  0
    5.4432    2.8689   -3.1956 C   0  0  0  0  0  0  0  0  0  0  0  0
    4.2760    2.5557   -3.9790 C   0  0  0  0  0  0  0  0  0  0  0  0
    3.3401    2.2919   -4.6061 N   0  0  0  0  0  0  0  0  0  0  0  0
    5.9568    1.7731   -2.4241 C   0  0  0  0  0  0  0  0  0  0  0  0
    6.3648    0.8723   -1.8230 N   0  0  0  0  0  0  0  0  0  0  0  0
    7.0152    3.6204   -0.2975 C   0  0  0  0  0  0  0  0  0  0  0  0
    5.7080    4.0674   -0.0448 C   0  0  0  0  0  0  0  0  0  0  0  0
    4.8851    3.4247    0.9088 C   0  0  0  0  0  0  0  0  0  0  0  0
    3.5409    3.9209    0.9567 N   0  0  0  0  0  0  0  0  0  0  0  0
    3.6082    5.0806   -0.1311 S   0  0  0  0  0  4  0  0  0  0  0  0
    5.0714    5.1360   -0.7546 N   0  0  0  0  0  0  0  0  0  0  0  0
    5.3578    2.3526    1.6851 C   0  0  0  0  0  0  0  0  0  0  0  0
    6.6969    1.9627    1.5099 C   0  0  0  0  0  0  0  0  0  0  0  0
    7.2638    0.9476    2.2107 N   0  0  0  0  0  0  0  0  0  0  0  0
    8.7778    0.9284    1.5471 S   0  0  0  0  0  0  0  0  0  0  0  0
    8.7910    2.1202    0.4044 N   0  0  0  0  0  0  0  0  0  0  0  0
    7.5277    2.6033    0.5313 C   0  0  0  0  0  0  0  0  0  0  0  0
    4.4135    1.5061    2.4391 C   0  0  0  0  0  0  0  0  0  0  0  0
    3.3388    1.9572    3.2368 C   0  0  0  0  0  0  0  0  0  0  0  0
    3.2844    3.2641    3.8667 N   0  0  0  0  0  0  0  0  0  0  0  0
    2.0283    3.8191    4.2932 C   0  0  0  0  0  0  0  0  0  0  0  0
    1.0811    4.2474    3.3490 C   0  0  0  0  0  0  0  0  0  0  0  0
   -0.1794    4.6814    3.7677 C   0  0  0  0  0  0  0  0  0  0  0  0
   -0.5036    4.6883    5.1289 C   0  0  0  0  0  0  0  0  0  0  0  0
   -2.1488    5.1673    5.6614 S   0  0  0  0  0  0  0  0  0  0  0  0
   -2.8257    3.4858    5.4989 C   0  0  0  0  0  0  0  0  0  0  0  0
    0.4513    4.2968    6.0751 C   0  0  0  0  0  0  0  0  0  0  0  0
    1.7138    3.8687    5.6607 C   0  0  0  0  0  0  0  0  0  0  0  0
    4.4968    3.9372    4.2640 C   0  0  0  0  0  0  0  0  0  0  0  0
    4.6322    5.3223    4.0697 C   0  0  0  0  0  0  0  0  0  0  0  0
    5.8075    5.9774    4.4478 C   0  0  0  0  0  0  0  0  0  0  0  0
    6.8611    5.2536    5.0187 C   0  0  0  0  0  0  0  0  0  0  0  0
    8.3706    6.0913    5.5076 S   0  0  0  0  0  0  0  0  0  0  0  0
    7.7838    6.4119    7.2011 C   0  0  0  0  0  0  0  0  0  0  0  0
    6.7322    3.8749    5.2199 C   0  0  0  0  0  0  0  0  0  0  0  0
    5.5539    3.2210    4.8541 C   0  0  0  0  0  0  0  0  0  0  0  0
    2.3261    0.9817    3.2990 C   0  0  0  0  0  0  0  0  0  0  0  0
    0.6927    1.0551    3.6685 S   0  0  0  0  0  0  0  0  0  0  0  0
    0.2906   -0.4050    2.9070 C   0  0  0  0  0  0  0  0  0  0  0  0
    1.4586   -0.9958    2.3840 C   0  0  0  0  0  0  0  0  0  0  0  0
    1.4757   -2.2317    1.6236 N   0  0  0  0  0  0  0  0  0  0  0  0
    2.6114   -2.5925    0.8256 C   0  0  0  0  0  0  0  0  0  0  0  0
    2.8639   -1.9492   -0.3939 C   0  0  0  0  0  0  0  0  0  0  0  0
    4.0239   -2.2525   -1.1186 C   0  0  0  0  0  0  0  0  0  0  0  0
    4.9228   -3.2141   -0.6355 C   0  0  0  0  0  0  0  0  0  0  0  0
    6.4353   -3.5821   -1.5300 S   0  0  0  0  0  0  0  0  0  0  0  0
    7.4398   -2.3968   -0.5831 C   0  0  0  0  0  0  0  0  0  0  0  0
    4.6382   -3.8972    0.5539 C   0  0  0  0  0  0  0  0  0  0  0  0
    3.4925   -3.5866    1.2834 C   0  0  0  0  0  0  0  0  0  0  0  0
    0.4508   -3.2311    1.7989 C   0  0  0  0  0  0  0  0  0  0  0  0
    0.0078   -3.5958    3.0826 C   0  0  0  0  0  0  0  0  0  0  0  0
   -0.9826   -4.5722    3.2348 C   0  0  0  0  0  0  0  0  0  0  0  0
   -1.5457   -5.1850    2.1070 C   0  0  0  0  0  0  0  0  0  0  0  0
   -2.8072   -6.4464    2.3025 S   0  0  0  0  0  0  0  0  0  0  0  0
   -1.6374   -7.8240    2.0993 C   0  0  0  0  0  0  0  0  0  0  0  0
   -1.1066   -4.8234    0.8289 C   0  0  0  0  0  0  0  0  0  0  0  0
   -0.0987   -3.8687    0.6777 C   0  0  0  0  0  0  0  0  0  0  0  0
    2.5735   -0.1758    2.6209 C   0  0  0  0  0  0  0  0  0  0  0  0
    4.0811   -0.0686    1.9027 S   0  0  0  0  0  0  0  0  0  0  0  0
   -1.0439   -0.5923    2.3371 C   0  0  0  0  0  0  0  0  0  0  0  0
   -1.3134   -0.5513    0.9728 C   0  0  0  0  0  0  0  0  0  0  0  0
   -2.6804   -0.5876    0.6885 C   0  0  0  0  0  0  0  0  0  0  0  0
   -3.2526   -0.5359   -0.5904 C   0  0  0  0  0  0  0  0  0  0  0  0
   -2.4494   -0.2696   -1.7928 C   0  0  0  0  0  0  0  0  0  0  0  0
   -2.3019    1.2482   -2.5037 S   0  0  0  0  0  0  0  0  0  0  0  0
   -1.2792    0.7597   -3.7490 C   0  0  0  0  0  0  0  0  0  0  0  0
   -0.8291    1.6471   -4.8732 C   0  0  0  0  0  0  0  0  0  0  0  0
   -1.7474    1.4839   -6.0814 C   0  0  0  0  0  0  0  0  0  0  0  0
   -1.0589   -0.6150   -3.6327 C   0  0  0  0  0  0  0  0  0  0  0  0
   -0.0658   -1.5349   -4.7544 Cl  0  0  0  0  0  0  0  0  0  0  0  0
   -1.7222   -1.1917   -2.5378 C   0  0  0  0  0  0  0  0  0  0  0  0
   -1.7285   -2.9172   -2.2076 Cl  0  0  0  0  0  0  0  0  0  0  0  0
   -4.6420   -0.6690   -0.6695 C   0  0  0  0  0  0  0  0  0  0  0  0
   -5.4601   -0.7911    0.4606 C   0  0  0  0  0  0  0  0  0  0  0  0
   -4.8952   -0.7286    1.7595 C   0  0  0  0  0  0  0  0  0  0  0  0
   -5.7137   -0.6527    2.9878 C   0  0  0  0  0  0  0  0  0  0  0  0
   -5.5831    0.3247    3.9708 C   0  0  0  0  0  0  0  0  0  0  0  0
   -6.5149    0.1992    5.0071 C   0  0  0  0  0  0  0  0  0  0  0  0
   -7.3755   -0.8794    4.8425 C   0  0  0  0  0  0  0  0  0  0  0  0
   -8.5434   -1.2067    5.7214 C   0  0  0  0  0  0  0  0  0  0  0  0
   -9.6458   -0.1653    5.5552 C   0  0  0  0  0  0  0  0  0  0  0  0
   -6.9811   -1.6771    3.4157 S   0  0  0  0  0  0  0  0  0  0  0  0
   -3.4891   -0.6575    1.8298 C   0  0  0  0  0  0  0  0  0  0  0  0
   -2.4970   -0.6460    3.1982 S   0  0  0  0  0  0  0  0  0  0  0  0
   -6.8105   -1.0098    0.1233 C   0  0  0  0  0  0  0  0  0  0  0  0
   -7.0179   -1.0944   -1.2524 C   0  0  0  0  0  0  0  0  0  0  0  0
   -5.5597   -0.8582   -2.0591 S   0  0  0  0  0  0  0  0  0  0  0  0
   -8.1526   -1.7704   -1.8844 C   0  0  0  0  0  0  0  0  0  0  0  0
   -8.1340   -3.1048   -2.0830 C   0  0  0  0  0  0  0  0  0  0  0  0
   -7.0625   -4.0140   -1.6457 C   0  0  0  0  0  0  0  0  0  0  0  0
   -6.2753   -3.8405   -0.6761 O   0  0  0  0  0  0  0  0  0  0  0  0
   -7.0400   -5.1534   -2.5317 C   0  0  0  0  0  0  0  0  0  0  0  0
   -6.0735   -6.1565   -2.6067 C   0  0  0  0  0  0  0  0  0  0  0  0
   -6.1390   -7.0734   -3.6686 C   0  0  0  0  0  0  0  0  0  0  0  0
   -5.1791   -8.0882   -3.7924 C   0  0  0  0  0  0  0  0  0  0  0  0
   -5.2235   -8.9685   -4.8777 C   0  0  0  0  0  0  0  0  0  0  0  0
   -4.2899   -9.9460   -4.9907 F   0  0  0  0  0  0  0  0  0  0  0  0
   -6.2235   -8.8405   -5.8487 C   0  0  0  0  0  0  0  0  0  0  0  0
   -6.2503   -9.6929   -6.9032 F   0  0  0  0  0  0  0  0  0  0  0  0
   -7.1959   -7.8404   -5.7333 C   0  0  0  0  0  0  0  0  0  0  0  0
   -7.1688   -6.9523   -4.6474 C   0  0  0  0  0  0  0  0  0  0  0  0
   -8.1382   -5.9323   -4.5323 C   0  0  0  0  0  0  0  0  0  0  0  0
   -8.0736   -5.0472   -3.4456 C   0  0  0  0  0  0  0  0  0  0  0  0
   -8.8996   -3.8466   -3.1259 C   0  0  0  0  0  0  0  0  0  0  0  0
  -10.1777   -3.6106   -3.5013 C   0  0  0  0  0  0  0  0  0  0  0  0
  -10.8843   -4.4727   -4.4145 C   0  0  0  0  0  0  0  0  0  0  0  0
  -11.4619   -5.1620   -5.1445 N   0  0  0  0  0  0  0  0  0  0  0  0
  -10.9585   -2.5561   -2.9028 C   0  0  0  0  0  0  0  0  0  0  0  0
  -11.5849   -1.7126   -2.4179 N   0  0  0  0  0  0  0  0  0  0  0  0
    8.8303    4.5247   -1.1191 H   0  0  0  0  0  0  0  0  0  0  0  0
    8.1247    7.3679   -5.5704 H   0  0  0  0  0  0  0  0  0  0  0  0
    5.6489    7.9217   -8.2479 H   0  0  0  0  0  0  0  0  0  0  0  0
    7.2274    8.4453   -7.5659 H   0  0  0  0  0  0  0  0  0  0  0  0
    5.6893    9.1064   -6.8792 H   0  0  0  0  0  0  0  0  0  0  0  0
    3.8528    4.8642   -5.0143 H   0  0  0  0  0  0  0  0  0  0  0  0
    1.3044    4.2073    2.2931 H   0  0  0  0  0  0  0  0  0  0  0  0
   -0.9139    4.9814    3.0306 H   0  0  0  0  0  0  0  0  0  0  0  0
   -2.7980    3.1680    4.4371 H   0  0  0  0  0  0  0  0  0  0  0  0
   -2.2417    2.7727    6.1152 H   0  0  0  0  0  0  0  0  0  0  0  0
   -3.8777    3.4825    5.8480 H   0  0  0  0  0  0  0  0  0  0  0  0
    0.2036    4.3044    7.1291 H   0  0  0  0  0  0  0  0  0  0  0  0
    2.4356    3.5422    6.3974 H   0  0  0  0  0  0  0  0  0  0  0  0
    3.8273    5.8890    3.6194 H   0  0  0  0  0  0  0  0  0  0  0  0
    5.9031    7.0427    4.2837 H   0  0  0  0  0  0  0  0  0  0  0  0
    8.6003    6.8838    7.7854 H   0  0  0  0  0  0  0  0  0  0  0  0
    6.9144    7.0987    7.1751 H   0  0  0  0  0  0  0  0  0  0  0  0
    7.4922    5.4610    7.6924 H   0  0  0  0  0  0  0  0  0  0  0  0
    7.5400    3.3107    5.6669 H   0  0  0  0  0  0  0  0  0  0  0  0
    5.4653    2.1558    5.0283 H   0  0  0  0  0  0  0  0  0  0  0  0
    2.1814   -1.1907   -0.7568 H   0  0  0  0  0  0  0  0  0  0  0  0
    4.2319   -1.7272   -2.0423 H   0  0  0  0  0  0  0  0  0  0  0  0
    7.2040   -2.4442    0.4990 H   0  0  0  0  0  0  0  0  0  0  0  0
    7.2483   -1.3755   -0.9586 H   0  0  0  0  0  0  0  0  0  0  0  0
    8.5121   -2.6365   -0.7182 H   0  0  0  0  0  0  0  0  0  0  0  0
    5.3225   -4.6498    0.9234 H   0  0  0  0  0  0  0  0  0  0  0  0
    3.3017   -4.0889    2.2249 H   0  0  0  0  0  0  0  0  0  0  0  0
    0.4380   -3.1344    3.9612 H   0  0  0  0  0  0  0  0  0  0  0  0
   -1.3099   -4.8538    4.2261 H   0  0  0  0  0  0  0  0  0  0  0  0
   -1.2195   -7.8110    1.0707 H   0  0  0  0  0  0  0  0  0  0  0  0
   -2.1769   -8.7799    2.2612 H   0  0  0  0  0  0  0  0  0  0  0  0
   -0.8128   -7.7417    2.8367 H   0  0  0  0  0  0  0  0  0  0  0  0
   -1.5306   -5.2992   -0.0463 H   0  0  0  0  0  0  0  0  0  0  0  0
    0.2555   -3.6179   -0.3142 H   0  0  0  0  0  0  0  0  0  0  0  0
   -0.5421   -0.4607    0.2207 H   0  0  0  0  0  0  0  0  0  0  0  0
    0.2172    1.3976   -5.1540 H   0  0  0  0  0  0  0  0  0  0  0  0
   -0.8548    2.7080   -4.5417 H   0  0  0  0  0  0  0  0  0  0  0  0
   -1.4634    2.2118   -6.8768 H   0  0  0  0  0  0  0  0  0  0  0  0
   -1.6646    0.4536   -6.4933 H   0  0  0  0  0  0  0  0  0  0  0  0
   -2.8044    1.6795   -5.7952 H   0  0  0  0  0  0  0  0  0  0  0  0
   -4.8544    1.1227    3.9311 H   0  0  0  0  0  0  0  0  0  0  0  0
   -6.5724    0.8965    5.8341 H   0  0  0  0  0  0  0  0  0  0  0  0
   -8.2128   -1.2291    6.7842 H   0  0  0  0  0  0  0  0  0  0  0  0
   -8.9421   -2.2105    5.4572 H   0  0  0  0  0  0  0  0  0  0  0  0
  -10.5190   -0.4383    6.1852 H   0  0  0  0  0  0  0  0  0  0  0  0
   -9.2767    0.8339    5.8759 H   0  0  0  0  0  0  0  0  0  0  0  0
   -9.9734   -0.1158    4.4934 H   0  0  0  0  0  0  0  0  0  0  0  0
   -7.6035   -1.2001    0.8323 H   0  0  0  0  0  0  0  0  0  0  0  0
   -8.8596   -1.1457   -2.4081 H   0  0  0  0  0  0  0  0  0  0  0  0
   -5.2700   -6.1923   -1.8773 H   0  0  0  0  0  0  0  0  0  0  0  0
   -4.3926   -8.1978   -3.0518 H   0  0  0  0  0  0  0  0  0  0  0  0
   -7.9612   -7.7555   -6.4958 H   0  0  0  0  0  0  0  0  0  0  0  0
   -8.8792   -5.8107   -5.3077 H   0  0  0  0  0  0  0  0  0  0  0  0
  1  2  2  3
  2  3  1  0
  3  4  2  0
  3  5  1  0
  5  6  2  0
  6  7  1  0
  7  8  1  0
  7  9  2  0
  9 10  1  0
  9 11  1  0
 11 12  2  0
 12 13  1  0
 13 14  2  3
 14 15  1  0
 15 16  3  0
 14 17  1  0
 17 18  3  0
  1 19  1  0
 19 20  2  0
 20 21  1  0
 21 22  1  0
 22 23  2  0
 23 24  2  0
 21 25  2  0
 25 26  1  0
 26 27  2  0
 27 28  1  0
 28 29  1  0
 29 30  2  0
 25 31  1  0
 31 32  2  0
 32 33  1  0
 33 34  1  0
 34 35  2  0
 35 36  1  0
 36 37  2  0
 37 38  1  0
 38 39  1  0
 37 40  1  0
 40 41  2  0
 33 42  1  0
 42 43  2  0
 43 44  1  0
 44 45  2  0
 45 46  1  0
 46 47  1  0
 45 48  1  0
 48 49  2  0
 32 50  1  0
 50 51  1  0
 51 52  1  0
 52 53  2  0
 53 54  1  0
 54 55  1  0
 55 56  2  0
 56 57  1  0
 57 58  2  0
 58 59  1  0
 59 60  1  0
 58 61  1  0
 61 62  2  0
 54 63  1  0
 63 64  2  0
 64 65  1  0
 65 66  2  0
 66 67  1  0
 67 68  1  0
 66 69  1  0
 69 70  2  0
 53 71  1  0
 71 72  1  0
 52 73  1  0
 73 74  2  0
 74 75  1  0
 75 76  2  0
 76 77  1  0
 77 78  1  0
 78 79  1  0
 79 80  1  0
 80 81  1  0
 79 82  2  0
 82 83  1  0
 82 84  1  0
 84 85  1  0
 76 86  1  0
 86 87  2  0
 87 88  1  0
 88 89  1  0
 89 90  2  0
 90 91  1  0
 91 92  2  0
 92 93  1  0
 93 94  1  0
 92 95  1  0
 88 96  2  0
 96 97  1  0
 87 98  1  0
 98 99  2  0
 99100  1  0
 99101  1  0
101102  2  3
102103  1  0
103104  2  0
103105  1  0
105106  2  0
106107  1  0
107108  2  0
108109  1  0
109110  1  0
109111  2  0
111112  1  0
111113  1  0
113114  2  0
114115  1  0
115116  2  0
116117  1  0
117118  2  3
118119  1  0
119120  3  0
118121  1  0
121122  3  0
 13  2  1  0
 30 19  1  0
 72 31  1  0
 97 73  1  0
117102  1  0
 12  5  1  0
 24 20  1  0
 30 26  1  0
 41 34  1  0
 49 42  1  0
 71 50  2  0
 96 75  1  0
116105  1  0
 62 55  1  0
 70 63  1  0
 84 77  2  0
100 86  1  0
114107  1  0
 95 89  1  0
  1123  1  0
  6124  1  0
  8125  1  0
  8126  1  0
  8127  1  0
 11128  1  0
 35129  1  0
 36130  1  0
 39131  1  0
 39132  1  0
 39133  1  0
 40134  1  0
 41135  1  0
 43136  1  0
 44137  1  0
 47138  1  0
 47139  1  0
 47140  1  0
 48141  1  0
 49142  1  0
 56143  1  0
 57144  1  0
 60145  1  0
 60146  1  0
 60147  1  0
 61148  1  0
 62149  1  0
 64150  1  0
 65151  1  0
 68152  1  0
 68153  1  0
 68154  1  0
 69155  1  0
 70156  1  0
 74157  1  0
 80158  1  0
 80159  1  0
 81160  1  0
 81161  1  0
 81162  1  0
 90163  1  0
 91164  1  0
 93165  1  0
 93166  1  0
 94167  1  0
 94168  1  0
 94169  1  0
 98170  1  0
101171  1  0
106172  1  0
108173  1  0
113174  1  0
115175  1  0
M  END

