
     RDKit          3D

 95106  0  0  0  0  0  0  0  0999 V2000
    4.0918    2.2352    3.6155 C   0  0  0  0  0  0  0  0  0  0  0  0
    4.6497    2.9638    2.6266 C   0  0  0  0  0  0  0  0  0  0  0  0
    5.0061    2.4553    1.2941 C   0  0  0  0  0  0  0  0  0  0  0  0
    5.0746    1.2469    0.9428 O   0  0  0  0  0  0  0  0  0  0  0  0
    5.1613    3.5831    0.4027 C   0  0  0  0  0  0  0  0  0  0  0  0
    5.4015    3.5609   -0.9700 C   0  0  0  0  0  0  0  0  0  0  0  0
    5.4445    4.7801   -1.6706 C   0  0  0  0  0  0  0  0  0  0  0  0
    5.6698    4.7849   -3.1544 C   0  0  0  0  0  0  0  0  0  0  0  0
    5.1995    5.9875   -0.9796 C   0  0  0  0  0  0  0  0  0  0  0  0
    5.1827    7.1673   -1.6504 F   0  0  0  0  0  0  0  0  0  0  0  0
    4.9517    5.9811    0.4042 C   0  0  0  0  0  0  0  0  0  0  0  0
    4.9589    4.7618    1.0982 C   0  0  0  0  0  0  0  0  0  0  0  0
    4.7250    4.4560    2.5406 C   0  0  0  0  0  0  0  0  0  0  0  0
    4.7772    5.3287    3.5835 C   0  0  0  0  0  0  0  0  0  0  0  0
    4.7949    4.8839    4.9542 C   0  0  0  0  0  0  0  0  0  0  0  0
    4.8109    4.5311    6.0555 N   0  0  0  0  0  0  0  0  0  0  0  0
    4.9238    6.7485    3.4035 C   0  0  0  0  0  0  0  0  0  0  0  0
    5.0338    7.8955    3.2804 N   0  0  0  0  0  0  0  0  0  0  0  0
    3.8954    0.7759    3.5205 C   0  0  0  0  0  0  0  0  0  0  0  0
    4.9777   -0.1143    3.6069 C   0  0  0  0  0  0  0  0  0  0  0  0
    4.7998   -1.5069    3.4193 C   0  0  0  0  0  0  0  0  0  0  0  0
    6.0060   -2.2755    3.4845 N   0  0  0  0  0  0  0  0  0  0  0  0
    7.0717   -1.1210    3.7705 S   0  0  0  0  0  4  0  0  0  0  0  0
    6.3292    0.2901    3.8465 N   0  0  0  0  0  0  0  0  0  0  0  0
    3.5379   -2.0489    3.1386 C   0  0  0  0  0  0  0  0  0  0  0  0
    2.4414   -1.1636    3.0682 C   0  0  0  0  0  0  0  0  0  0  0  0
    1.1823   -1.5673    2.7479 N   0  0  0  0  0  0  0  0  0  0  0  0
    0.3784   -0.1219    2.7710 S   0  0  0  0  0  0  0  0  0  0  0  0
    1.5145    1.0212    3.1440 N   0  0  0  0  0  0  0  0  0  0  0  0
    2.6216    0.2422    3.2706 C   0  0  0  0  0  0  0  0  0  0  0  0
    3.3785   -3.4726    2.7740 C   0  0  0  0  0  0  0  0  0  0  0  0
    3.6719   -3.9124    1.5410 C   0  0  0  0  0  0  0  0  0  0  0  0
    2.6904   -4.8766    1.1075 C   0  0  0  0  0  0  0  0  0  0  0  0
    1.8591   -5.1142    2.2737 C   0  0  0  0  0  0  0  0  0  0  0  0
    0.8655   -5.8881    2.3467 O   0  0  0  0  0  0  0  0  0  0  0  0
    2.3259   -4.2809    3.3314 N   0  0  0  0  0  0  0  0  0  0  0  0
    1.7979   -4.2176    4.6937 C   0  0  0  0  0  0  0  0  0  0  0  0
    2.3586   -4.6532   -0.1744 C   0  0  0  0  0  0  0  0  0  0  0  0
    3.2590   -3.6830   -0.7483 N   0  0  0  0  0  0  0  0  0  0  0  0
    3.0466   -2.9601   -1.9971 C   0  0  0  0  0  0  0  0  0  0  0  0
    4.0141   -3.1726    0.3456 C   0  0  0  0  0  0  0  0  0  0  0  0
    4.7567   -2.1523    0.2899 O   0  0  0  0  0  0  0  0  0  0  0  0
    0.9789   -4.7789   -0.6835 C   0  0  0  0  0  0  0  0  0  0  0  0
   -0.0481   -4.0145   -0.0823 C   0  0  0  0  0  0  0  0  0  0  0  0
   -1.2788   -3.9342   -0.7204 C   0  0  0  0  0  0  0  0  0  0  0  0
   -2.4296   -3.0970   -0.4064 C   0  0  0  0  0  0  0  0  0  0  0  0
   -2.5724   -2.3599    0.6046 O   0  0  0  0  0  0  0  0  0  0  0  0
   -3.3448   -3.2218   -1.5320 C   0  0  0  0  0  0  0  0  0  0  0  0
   -2.7931   -4.0959   -2.4531 C   0  0  0  0  0  0  0  0  0  0  0  0
   -1.5007   -4.5515   -1.9413 C   0  0  0  0  0  0  0  0  0  0  0  0
   -0.5151   -5.3295   -2.5505 C   0  0  0  0  0  0  0  0  0  0  0  0
    0.7317   -5.4474   -1.9052 C   0  0  0  0  0  0  0  0  0  0  0  0
   -3.3967   -4.3199   -3.6888 C   0  0  0  0  0  0  0  0  0  0  0  0
   -4.5818   -3.6257   -3.9836 C   0  0  0  0  0  0  0  0  0  0  0  0
   -5.1272   -2.7020   -3.0586 C   0  0  0  0  0  0  0  0  0  0  0  0
   -4.5206   -2.5273   -1.7965 C   0  0  0  0  0  0  0  0  0  0  0  0
   -6.3721   -1.9846   -3.3958 C   0  0  0  0  0  0  0  0  0  0  0  0
   -6.5402   -0.6533   -3.2577 C   0  0  0  0  0  0  0  0  0  0  0  0
   -5.4669    0.3415   -3.0970 C   0  0  0  0  0  0  0  0  0  0  0  0
   -4.2541    0.1111   -2.8529 O   0  0  0  0  0  0  0  0  0  0  0  0
   -6.0113    1.6510   -3.3828 C   0  0  0  0  0  0  0  0  0  0  0  0
   -5.3233    2.8608   -3.4677 C   0  0  0  0  0  0  0  0  0  0  0  0
   -6.0274    4.0024   -3.8757 C   0  0  0  0  0  0  0  0  0  0  0  0
   -5.3842    5.1931   -3.9624 F   0  0  0  0  0  0  0  0  0  0  0  0
   -7.3906    3.9100   -4.2158 C   0  0  0  0  0  0  0  0  0  0  0  0
   -8.0546    5.0108   -4.6419 F   0  0  0  0  0  0  0  0  0  0  0  0
   -8.0609    2.6777   -4.1341 C   0  0  0  0  0  0  0  0  0  0  0  0
   -7.3560    1.5430   -3.6928 C   0  0  0  0  0  0  0  0  0  0  0  0
   -7.7897    0.1226   -3.5459 C   0  0  0  0  0  0  0  0  0  0  0  0
   -9.0667   -0.3277   -3.4369 C   0  0  0  0  0  0  0  0  0  0  0  0
   -9.3694   -1.6719   -3.0090 C   0  0  0  0  0  0  0  0  0  0  0  0
   -9.6239   -2.7454   -2.6633 N   0  0  0  0  0  0  0  0  0  0  0  0
  -10.2110    0.5359   -3.5802 C   0  0  0  0  0  0  0  0  0  0  0  0
  -11.1412    1.2167   -3.6864 N   0  0  0  0  0  0  0  0  0  0  0  0
    3.6057    2.7219    4.4430 H   0  0  0  0  0  0  0  0  0  0  0  0
    5.5456    2.6183   -1.4807 H   0  0  0  0  0  0  0  0  0  0  0  0
    6.1804    3.8532   -3.4869 H   0  0  0  0  0  0  0  0  0  0  0  0
    4.6899    4.8597   -3.6705 H   0  0  0  0  0  0  0  0  0  0  0  0
    6.3071    5.6459   -3.4498 H   0  0  0  0  0  0  0  0  0  0  0  0
    4.7269    6.9139    0.8852 H   0  0  0  0  0  0  0  0  0  0  0  0
    1.1940   -5.1267    4.9187 H   0  0  0  0  0  0  0  0  0  0  0  0
    2.6387   -4.1617    5.4196 H   0  0  0  0  0  0  0  0  0  0  0  0
    1.1573   -3.3188    4.8081 H   0  0  0  0  0  0  0  0  0  0  0  0
    2.6701   -3.6520   -2.7781 H   0  0  0  0  0  0  0  0  0  0  0  0
    4.0082   -2.5356   -2.3486 H   0  0  0  0  0  0  0  0  0  0  0  0
    2.3079   -2.1456   -1.8409 H   0  0  0  0  0  0  0  0  0  0  0  0
    0.1326   -3.4300    0.8122 H   0  0  0  0  0  0  0  0  0  0  0  0
   -0.6793   -5.7781   -3.5222 H   0  0  0  0  0  0  0  0  0  0  0  0
    1.5276   -5.9974   -2.3914 H   0  0  0  0  0  0  0  0  0  0  0  0
   -2.9465   -4.9811   -4.4168 H   0  0  0  0  0  0  0  0  0  0  0  0
   -5.0589   -3.7778   -4.9429 H   0  0  0  0  0  0  0  0  0  0  0  0
   -4.9327   -1.8448   -1.0613 H   0  0  0  0  0  0  0  0  0  0  0  0
   -7.1569   -2.5725   -3.8384 H   0  0  0  0  0  0  0  0  0  0  0  0
   -4.2634    2.9121   -3.2424 H   0  0  0  0  0  0  0  0  0  0  0  0
   -9.0842    2.6254   -4.4575 H   0  0  0  0  0  0  0  0  0  0  0  0
  1  2  2  3
  2  3  1  0
  3  4  2  0
  3  5  1  0
  5  6  2  0
  6  7  1  0
  7  8  1  0
  7  9  2  0
  9 10  1  0
  9 11  1  0
 11 12  2  0
 12 13  1  0
 13 14  2  3
 14 15  1  0
 15 16  3  0
 14 17  1  0
 17 18  3  0
  1 19  1  0
 19 20  2  0
 20 21  1  0
 21 22  1  0
 22 23  2  0
 23 24  2  0
 21 25  2  0
 25 26  1  0
 26 27  2  0
 27 28  1  0
 28 29  1  0
 29 30  2  0
 25 31  1  0
 31 32  2  0
 32 33  1  0
 33 34  1  0
 34 35  2  0
 34 36  1  0
 36 37  1  0
 33 38  2  0
 38 39  1  0
 39 40  1  0
 39 41  1  0
 41 42  2  0
 38 43  1  0
 43 44  2  0
 44 45  1  0
 45 46  1  0
 46 47  2  0
 46 48  1  0
 48 49  2  0
 49 50  1  0
 50 51  1  0
 51 52  2  0
 49 53  1  0
 53 54  2  0
 54 55  1  0
 55 56  2  0
 55 57  1  0
 57 58  2  3
 58 59  1  0
 59 60  2  0
 59 61  1  0
 61 62  2  0
 62 63  1  0
 63 64  1  0
 63 65  2  0
 65 66  1  0
 65 67  1  0
 67 68  2  0
 68 69  1  0
 69 70  2  3
 70 71  1  0
 71 72  3  0
 70 73  1  0
 73 74  3  0
 13  2  1  0
 30 19  1  0
 36 31  1  0
 52 43  1  0
 69 58  1  0
 12  5  1  0
 24 20  1  0
 30 26  1  0
 41 32  1  0
 50 45  2  0
 68 61  1  0
 56 48  1  0
  1 75  1  0
  6 76  1  0
  8 77  1  0
  8 78  1  0
  8 79  1  0
 11 80  1  0
 37 81  1  0
 37 82  1  0
 37 83  1  0
 40 84  1  0
 40 85  1  0
 40 86  1  0
 44 87  1  0
 51 88  1  0
 52 89  1  0
 53 90  1  0
 54 91  1  0
 56 92  1  0
 57 93  1  0
 62 94  1  0
 67 95  1  0
M  END

