
     RDKit          3D

204222  0  0  0  0  0  0  0  0999 V2000
    0.4893   -1.4053    4.8605 C   0  0  0  0  0  0  0  0  0  0  0  0
    0.1213   -2.3814    5.7105 C   0  0  0  0  0  0  0  0  0  0  0  0
   -1.1947   -3.0338    5.7328 C   0  0  0  0  0  0  0  0  0  0  0  0
   -2.2329   -2.6447    5.1334 O   0  0  0  0  0  0  0  0  0  0  0  0
   -1.1128   -4.2027    6.5800 C   0  0  0  0  0  0  0  0  0  0  0  0
   -2.0843   -5.1824    6.7942 C   0  0  0  0  0  0  0  0  0  0  0  0
   -1.7628   -6.2843    7.6046 C   0  0  0  0  0  0  0  0  0  0  0  0
   -2.7709   -7.3727    7.8348 C   0  0  0  0  0  0  0  0  0  0  0  0
   -0.4597   -6.3987    8.1398 C   0  0  0  0  0  0  0  0  0  0  0  0
   -0.1182   -7.4859    8.8750 F   0  0  0  0  0  0  0  0  0  0  0  0
    0.5025   -5.4078    7.8970 C   0  0  0  0  0  0  0  0  0  0  0  0
    0.1512   -4.2807    7.1342 C   0  0  0  0  0  0  0  0  0  0  0  0
    0.9655   -3.1038    6.7127 C   0  0  0  0  0  0  0  0  0  0  0  0
    2.1257   -2.6782    7.2804 C   0  0  0  0  0  0  0  0  0  0  0  0
    2.7451   -3.3692    8.3829 C   0  0  0  0  0  0  0  0  0  0  0  0
    3.2551   -3.9043    9.2740 N   0  0  0  0  0  0  0  0  0  0  0  0
    2.7643   -1.4401    6.9249 C   0  0  0  0  0  0  0  0  0  0  0  0
    3.2889   -0.4472    6.6500 N   0  0  0  0  0  0  0  0  0  0  0  0
   -0.4018   -0.8696    3.8270 C   0  0  0  0  0  0  0  0  0  0  0  0
   -0.6674   -1.4605    2.5798 C   0  0  0  0  0  0  0  0  0  0  0  0
    0.0055   -2.6388    2.0907 N   0  0  0  0  0  0  0  0  0  0  0  0
   -0.7421   -3.8129    1.6835 C   0  0  0  0  0  0  0  0  0  0  0  0
   -2.0985   -3.9645    2.0346 C   0  0  0  0  0  0  0  0  0  0  0  0
   -2.7998   -5.1231    1.6964 C   0  0  0  0  0  0  0  0  0  0  0  0
   -2.1647   -6.1567    0.9976 C   0  0  0  0  0  0  0  0  0  0  0  0
   -2.9298   -7.3954    0.6351 C   0  0  0  0  0  0  0  0  0  0  0  0
   -0.8315   -5.9939    0.5961 C   0  0  0  0  0  0  0  0  0  0  0  0
   -0.1243   -4.8351    0.9352 C   0  0  0  0  0  0  0  0  0  0  0  0
    1.4460   -2.6427    2.1317 C   0  0  0  0  0  0  0  0  0  0  0  0
    2.1359   -3.6113    2.8765 C   0  0  0  0  0  0  0  0  0  0  0  0
    3.5270   -3.5567    2.9861 C   0  0  0  0  0  0  0  0  0  0  0  0
    4.2498   -2.5409    2.3453 C   0  0  0  0  0  0  0  0  0  0  0  0
    5.7380   -2.4518    2.5265 C   0  0  0  0  0  0  0  0  0  0  0  0
    3.5636   -1.5814    1.5841 C   0  0  0  0  0  0  0  0  0  0  0  0
    2.1717   -1.6298    1.4817 C   0  0  0  0  0  0  0  0  0  0  0  0
   -1.4337   -0.6080    1.7785 C   0  0  0  0  0  0  0  0  0  0  0  0
   -1.8553   -0.5728    0.1612 S   0  0  0  0  0  0  0  0  0  0  0  0
   -2.3824    1.0641    0.1422 C   0  0  0  0  0  0  0  0  0  0  0  0
   -2.1924    1.5722    1.4502 C   0  0  0  0  0  0  0  0  0  0  0  0
   -2.2673    2.9477    1.8490 N   0  0  0  0  0  0  0  0  0  0  0  0
   -3.3215    3.2354    2.7991 C   0  0  0  0  0  0  0  0  0  0  0  0
   -3.0250    3.6716    4.1008 C   0  0  0  0  0  0  0  0  0  0  0  0
   -4.0461    3.8687    5.0322 C   0  0  0  0  0  0  0  0  0  0  0  0
   -5.3794    3.5857    4.6973 C   0  0  0  0  0  0  0  0  0  0  0  0
   -6.4806    3.8320    5.6832 C   0  0  0  0  0  0  0  0  0  0  0  0
   -5.6737    3.0990    3.4185 C   0  0  0  0  0  0  0  0  0  0  0  0
   -4.6481    2.8911    2.4906 C   0  0  0  0  0  0  0  0  0  0  0  0
   -1.1037    3.8098    1.6622 C   0  0  0  0  0  0  0  0  0  0  0  0
   -1.0745    5.1280    2.1657 C   0  0  0  0  0  0  0  0  0  0  0  0
    0.0183    5.9650    1.9268 C   0  0  0  0  0  0  0  0  0  0  0  0
    1.1129    5.5109    1.1848 C   0  0  0  0  0  0  0  0  0  0  0  0
    2.2648    6.4340    0.9126 C   0  0  0  0  0  0  0  0  0  0  0  0
    1.1156    4.1986    0.7063 C   0  0  0  0  0  0  0  0  0  0  0  0
    0.0239    3.3595    0.9381 C   0  0  0  0  0  0  0  0  0  0  0  0
   -1.6933    0.6072    2.3225 C   0  0  0  0  0  0  0  0  0  0  0  0
   -1.0297    0.7083    3.8583 S   0  0  0  0  0  0  0  0  0  0  0  0
   -2.6166    1.8099   -1.1300 C   0  0  0  0  0  0  0  0  0  0  0  0
   -2.3176    3.1792   -1.3397 C   0  0  0  0  0  0  0  0  0  0  0  0
   -3.2698    4.2246   -0.9835 N   0  0  0  0  0  0  0  0  0  0  0  0
   -4.6898    3.9416   -0.9580 C   0  0  0  0  0  0  0  0  0  0  0  0
   -5.5249    4.5666   -0.0136 C   0  0  0  0  0  0  0  0  0  0  0  0
   -6.9028    4.3602   -0.0345 C   0  0  0  0  0  0  0  0  0  0  0  0
   -7.4763    3.5477   -1.0141 C   0  0  0  0  0  0  0  0  0  0  0  0
   -9.2513    3.2712   -1.0337 S   0  0  0  0  0  0  0  0  0  0  0  0
   -9.1462    1.8224    0.0651 C   0  0  0  0  0  0  0  0  0  0  0  0
   -6.6654    2.9498   -1.9840 C   0  0  0  0  0  0  0  0  0  0  0  0
   -5.2831    3.1552   -1.9633 C   0  0  0  0  0  0  0  0  0  0  0  0
   -2.9354    5.6087   -1.2267 C   0  0  0  0  0  0  0  0  0  0  0  0
   -2.8419    6.0989   -2.5431 C   0  0  0  0  0  0  0  0  0  0  0  0
   -2.5733    7.4472   -2.7819 C   0  0  0  0  0  0  0  0  0  0  0  0
   -2.4352    8.3341   -1.7079 C   0  0  0  0  0  0  0  0  0  0  0  0
   -2.1425   10.0777   -2.0201 S   0  0  0  0  0  0  0  0  0  0  0  0
   -0.3338    9.9112   -2.0316 C   0  0  0  0  0  0  0  0  0  0  0  0
   -2.5898    7.8680   -0.3999 C   0  0  0  0  0  0  0  0  0  0  0  0
   -2.8544    6.5172   -0.1639 C   0  0  0  0  0  0  0  0  0  0  0  0
   -1.5998    3.3298   -2.5409 C   0  0  0  0  0  0  0  0  0  0  0  0
   -0.0775    4.0185   -2.6998 S   0  0  0  0  0  0  0  0  0  0  0  0
    0.4723    3.0603   -3.9948 C   0  0  0  0  0  0  0  0  0  0  0  0
   -0.5885    2.1932   -4.3328 C   0  0  0  0  0  0  0  0  0  0  0  0
   -0.8005    1.6623   -5.6613 N   0  0  0  0  0  0  0  0  0  0  0  0
   -1.6527    0.5184   -5.8053 C   0  0  0  0  0  0  0  0  0  0  0  0
   -1.1591   -0.7757   -5.5908 C   0  0  0  0  0  0  0  0  0  0  0  0
   -2.0114   -1.8812   -5.7082 C   0  0  0  0  0  0  0  0  0  0  0  0
   -3.3648   -1.6932   -6.0161 C   0  0  0  0  0  0  0  0  0  0  0  0
   -4.4687   -3.1018   -6.1427 S   0  0  0  0  0  0  0  0  0  0  0  0
   -4.1869   -3.3176   -7.9268 C   0  0  0  0  0  0  0  0  0  0  0  0
   -3.8664   -0.3985   -6.2148 C   0  0  0  0  0  0  0  0  0  0  0  0
   -3.0104    0.6977   -6.1192 C   0  0  0  0  0  0  0  0  0  0  0  0
   -0.6173    2.4988   -6.8251 C   0  0  0  0  0  0  0  0  0  0  0  0
   -0.8146    3.8923   -6.7674 C   0  0  0  0  0  0  0  0  0  0  0  0
   -0.6274    4.6823   -7.9036 C   0  0  0  0  0  0  0  0  0  0  0  0
   -0.2634    4.0936   -9.1178 C   0  0  0  0  0  0  0  0  0  0  0  0
   -0.0402    5.1065  -10.5814 S   0  0  0  0  0  0  0  0  0  0  0  0
    1.7663    5.2102  -10.3888 C   0  0  0  0  0  0  0  0  0  0  0  0
   -0.0999    2.7067   -9.1960 C   0  0  0  0  0  0  0  0  0  0  0  0
   -0.2652    1.9154   -8.0560 C   0  0  0  0  0  0  0  0  0  0  0  0
   -1.6506    2.2886   -3.4248 C   0  0  0  0  0  0  0  0  0  0  0  0
   -2.3096    1.0032   -2.5950 S   0  0  0  0  0  0  0  0  0  0  0  0
    1.9064    2.6757   -4.1421 C   0  0  0  0  0  0  0  0  0  0  0  0
    2.7637    2.7877   -3.0213 C   0  0  0  0  0  0  0  0  0  0  0  0
    3.9891    2.1326   -3.0327 C   0  0  0  0  0  0  0  0  0  0  0  0
    4.8520    1.8011   -1.9010 C   0  0  0  0  0  0  0  0  0  0  0  0
    4.7479    2.2342   -0.7210 O   0  0  0  0  0  0  0  0  0  0  0  0
    5.7808    0.7809   -2.3708 C   0  0  0  0  0  0  0  0  0  0  0  0
    5.5270    0.5409   -3.7100 C   0  0  0  0  0  0  0  0  0  0  0  0
    4.3951    1.3791   -4.1182 C   0  0  0  0  0  0  0  0  0  0  0  0
    3.6105    1.2960   -5.2667 C   0  0  0  0  0  0  0  0  0  0  0  0
    2.3689    1.9555   -5.2764 C   0  0  0  0  0  0  0  0  0  0  0  0
    6.1236   -0.5258   -4.3818 C   0  0  0  0  0  0  0  0  0  0  0  0
    6.9712   -1.3791   -3.6572 C   0  0  0  0  0  0  0  0  0  0  0  0
    7.1766   -1.1738   -2.2716 C   0  0  0  0  0  0  0  0  0  0  0  0
    6.5960   -0.0660   -1.6246 C   0  0  0  0  0  0  0  0  0  0  0  0
    7.8040   -2.2326   -1.4667 C   0  0  0  0  0  0  0  0  0  0  0  0
    7.0644   -3.1772   -0.8477 C   0  0  0  0  0  0  0  0  0  0  0  0
    5.6162   -3.3623   -1.0158 C   0  0  0  0  0  0  0  0  0  0  0  0
    4.8086   -2.5484   -1.5412 O   0  0  0  0  0  0  0  0  0  0  0  0
    5.2617   -4.6718   -0.5273 C   0  0  0  0  0  0  0  0  0  0  0  0
    4.0238   -5.3086   -0.6197 C   0  0  0  0  0  0  0  0  0  0  0  0
    3.9237   -6.6450   -0.2007 C   0  0  0  0  0  0  0  0  0  0  0  0
    2.6108   -7.3634   -0.2929 C   0  0  0  0  0  0  0  0  0  0  0  0
    5.0646   -7.3024    0.3217 C   0  0  0  0  0  0  0  0  0  0  0  0
    4.9789   -8.5970    0.7259 F   0  0  0  0  0  0  0  0  0  0  0  0
    6.2989   -6.6381    0.3986 C   0  0  0  0  0  0  0  0  0  0  0  0
    6.3853   -5.2995   -0.0240 C   0  0  0  0  0  0  0  0  0  0  0  0
    7.5564   -4.3758   -0.0974 C   0  0  0  0  0  0  0  0  0  0  0  0
    8.7371   -4.5030    0.5586 C   0  0  0  0  0  0  0  0  0  0  0  0
    9.7092   -3.4401    0.6094 C   0  0  0  0  0  0  0  0  0  0  0  0
   10.4980   -2.5964    0.6628 N   0  0  0  0  0  0  0  0  0  0  0  0
    9.0613   -5.6536    1.3632 C   0  0  0  0  0  0  0  0  0  0  0  0
    9.3413   -6.5682    2.0115 N   0  0  0  0  0  0  0  0  0  0  0  0
    1.4955   -1.0283    4.8377 H   0  0  0  0  0  0  0  0  0  0  0  0
   -3.0577   -5.0969    6.3339 H   0  0  0  0  0  0  0  0  0  0  0  0
   -2.5104   -8.2602    7.2222 H   0  0  0  0  0  0  0  0  0  0  0  0
   -2.7819   -7.6608    8.9061 H   0  0  0  0  0  0  0  0  0  0  0  0
   -3.7900   -7.0358    7.5539 H   0  0  0  0  0  0  0  0  0  0  0  0
    1.4990   -5.5607    8.2733 H   0  0  0  0  0  0  0  0  0  0  0  0
   -2.6196   -3.1997    2.5907 H   0  0  0  0  0  0  0  0  0  0  0  0
   -3.8372   -5.2205    1.9954 H   0  0  0  0  0  0  0  0  0  0  0  0
   -3.5399   -7.7221    1.5017 H   0  0  0  0  0  0  0  0  0  0  0  0
   -2.2440   -8.2255    0.3627 H   0  0  0  0  0  0  0  0  0  0  0  0
   -3.5982   -7.1805   -0.2247 H   0  0  0  0  0  0  0  0  0  0  0  0
   -0.3388   -6.7689    0.0233 H   0  0  0  0  0  0  0  0  0  0  0  0
    0.9020   -4.7407    0.6000 H   0  0  0  0  0  0  0  0  0  0  0  0
    1.5885   -4.3780    3.4100 H   0  0  0  0  0  0  0  0  0  0  0  0
    4.0434   -4.2923    3.5927 H   0  0  0  0  0  0  0  0  0  0  0  0
    5.9599   -2.1035    3.5560 H   0  0  0  0  0  0  0  0  0  0  0  0
    6.1931   -1.7411    1.8038 H   0  0  0  0  0  0  0  0  0  0  0  0
    6.2005   -3.4502    2.3764 H   0  0  0  0  0  0  0  0  0  0  0  0
    4.1072   -0.7903    1.0786 H   0  0  0  0  0  0  0  0  0  0  0  0
    1.6520   -0.8788    0.8980 H   0  0  0  0  0  0  0  0  0  0  0  0
   -2.0000    3.8442    4.4032 H   0  0  0  0  0  0  0  0  0  0  0  0
   -3.7953    4.2208    6.0245 H   0  0  0  0  0  0  0  0  0  0  0  0
   -7.2657    3.0527    5.5922 H   0  0  0  0  0  0  0  0  0  0  0  0
   -6.0937    3.8099    6.7234 H   0  0  0  0  0  0  0  0  0  0  0  0
   -6.9310    4.8267    5.4875 H   0  0  0  0  0  0  0  0  0  0  0  0
   -6.6946    2.8622    3.1456 H   0  0  0  0  0  0  0  0  0  0  0  0
   -4.8860    2.4483    1.5317 H   0  0  0  0  0  0  0  0  0  0  0  0
   -1.9055    5.5398    2.7147 H   0  0  0  0  0  0  0  0  0  0  0  0
   -0.0032    6.9785    2.3056 H   0  0  0  0  0  0  0  0  0  0  0  0
    3.0432    5.9403    0.2927 H   0  0  0  0  0  0  0  0  0  0  0  0
    1.9004    7.3310    0.3690 H   0  0  0  0  0  0  0  0  0  0  0  0
    2.7260    6.7519    1.8705 H   0  0  0  0  0  0  0  0  0  0  0  0
    1.9563    3.8231    0.1384 H   0  0  0  0  0  0  0  0  0  0  0  0
    0.0716    2.3588    0.5314 H   0  0  0  0  0  0  0  0  0  0  0  0
   -5.1086    5.2046    0.7548 H   0  0  0  0  0  0  0  0  0  0  0  0
   -7.5276    4.8292    0.7146 H   0  0  0  0  0  0  0  0  0  0  0  0
   -8.7019    2.1098    1.0432 H   0  0  0  0  0  0  0  0  0  0  0  0
   -8.5263    1.0256   -0.4020 H   0  0  0  0  0  0  0  0  0  0  0  0
  -10.1683    1.4222    0.2422 H   0  0  0  0  0  0  0  0  0  0  0  0
   -7.1013    2.3427   -2.7663 H   0  0  0  0  0  0  0  0  0  0  0  0
   -4.6860    2.7284   -2.7543 H   0  0  0  0  0  0  0  0  0  0  0  0
   -2.9927    5.4406   -3.3869 H   0  0  0  0  0  0  0  0  0  0  0  0
   -2.4821    7.8057   -3.7986 H   0  0  0  0  0  0  0  0  0  0  0  0
   -0.0217    9.1192   -2.7393 H   0  0  0  0  0  0  0  0  0  0  0  0
    0.0293    9.6710   -1.0140 H   0  0  0  0  0  0  0  0  0  0  0  0
    0.1194   10.8701   -2.3534 H   0  0  0  0  0  0  0  0  0  0  0  0
   -2.5343    8.5586    0.4305 H   0  0  0  0  0  0  0  0  0  0  0  0
   -3.0409    6.1899    0.8439 H   0  0  0  0  0  0  0  0  0  0  0  0
   -0.1198   -0.9229   -5.3369 H   0  0  0  0  0  0  0  0  0  0  0  0
   -1.6238   -2.8797   -5.5401 H   0  0  0  0  0  0  0  0  0  0  0  0
   -4.8541   -4.1165   -8.3084 H   0  0  0  0  0  0  0  0  0  0  0  0
   -3.1333   -3.6146   -8.1074 H   0  0  0  0  0  0  0  0  0  0  0  0
   -4.4128   -2.3777   -8.4682 H   0  0  0  0  0  0  0  0  0  0  0  0
   -4.9136   -0.2466   -6.4524 H   0  0  0  0  0  0  0  0  0  0  0  0
   -3.4038    1.6974   -6.2708 H   0  0  0  0  0  0  0  0  0  0  0  0
   -1.1339    4.3688   -5.8471 H   0  0  0  0  0  0  0  0  0  0  0  0
   -0.7765    5.7496   -7.8396 H   0  0  0  0  0  0  0  0  0  0  0  0
    2.2166    4.2027  -10.4969 H   0  0  0  0  0  0  0  0  0  0  0  0
    2.0264    5.6330   -9.3977 H   0  0  0  0  0  0  0  0  0  0  0  0
    2.1802    5.8705  -11.1783 H   0  0  0  0  0  0  0  0  0  0  0  0
    0.1693    2.2415  -10.1318 H   0  0  0  0  0  0  0  0  0  0  0  0
   -0.1135    0.8455   -8.1270 H   0  0  0  0  0  0  0  0  0  0  0  0
    2.4445    3.2662   -2.1066 H   0  0  0  0  0  0  0  0  0  0  0  0
    3.9011    0.6667   -6.0964 H   0  0  0  0  0  0  0  0  0  0  0  0
    1.7519    1.8286   -6.1466 H   0  0  0  0  0  0  0  0  0  0  0  0
    5.8869   -0.7373   -5.4188 H   0  0  0  0  0  0  0  0  0  0  0  0
    7.3821   -2.2548   -4.1436 H   0  0  0  0  0  0  0  0  0  0  0  0
    6.6905    0.0596   -0.5562 H   0  0  0  0  0  0  0  0  0  0  0  0
    8.8807   -2.2757   -1.4713 H   0  0  0  0  0  0  0  0  0  0  0  0
    3.1702   -4.7837   -1.0335 H   0  0  0  0  0  0  0  0  0  0  0  0
    1.9274   -6.8424   -0.9965 H   0  0  0  0  0  0  0  0  0  0  0  0
    2.7603   -8.3991   -0.6676 H   0  0  0  0  0  0  0  0  0  0  0  0
    2.1399   -7.4025    0.7112 H   0  0  0  0  0  0  0  0  0  0  0  0
    7.1555   -7.1921    0.7464 H   0  0  0  0  0  0  0  0  0  0  0  0
  1  2  2  3
  2  3  1  0
  3  4  2  0
  3  5  1  0
  5  6  2  0
  6  7  1  0
  7  8  1  0
  7  9  2  0
  9 10  1  0
  9 11  1  0
 11 12  2  0
 12 13  1  0
 13 14  2  3
 14 15  1  0
 15 16  3  0
 14 17  1  0
 17 18  3  0
  1 19  1  0
 19 20  2  0
 20 21  1  0
 21 22  1  0
 22 23  2  0
 23 24  1  0
 24 25  2  0
 25 26  1  0
 25 27  1  0
 27 28  2  0
 21 29  1  0
 29 30  2  0
 30 31  1  0
 31 32  2  0
 32 33  1  0
 32 34  1  0
 34 35  2  0
 20 36  1  0
 36 37  1  0
 37 38  1  0
 38 39  2  0
 39 40  1  0
 40 41  1  0
 41 42  2  0
 42 43  1  0
 43 44  2  0
 44 45  1  0
 44 46  1  0
 46 47  2  0
 40 48  1  0
 48 49  2  0
 49 50  1  0
 50 51  2  0
 51 52  1  0
 51 53  1  0
 53 54  2  0
 39 55  1  0
 55 56  1  0
 38 57  1  0
 57 58  2  0
 58 59  1  0
 59 60  1  0
 60 61  2  0
 61 62  1  0
 62 63  2  0
 63 64  1  0
 64 65  1  0
 63 66  1  0
 66 67  2  0
 59 68  1  0
 68 69  2  0
 69 70  1  0
 70 71  2  0
 71 72  1  0
 72 73  1  0
 71 74  1  0
 74 75  2  0
 58 76  1  0
 76 77  1  0
 77 78  1  0
 78 79  2  0
 79 80  1  0
 80 81  1  0
 81 82  2  0
 82 83  1  0
 83 84  2  0
 84 85  1  0
 85 86  1  0
 84 87  1  0
 87 88  2  0
 80 89  1  0
 89 90  2  0
 90 91  1  0
 91 92  2  0
 92 93  1  0
 93 94  1  0
 92 95  1  0
 95 96  2  0
 79 97  1  0
 97 98  1  0
 78 99  1  0
 99100  2  0
100101  1  0
101102  1  0
102103  2  0
102104  1  0
104105  2  0
105106  1  0
106107  1  0
107108  2  0
105109  1  0
109110  2  0
110111  1  0
111112  2  0
111113  1  0
113114  2  3
114115  1  0
115116  2  0
115117  1  0
117118  2  0
118119  1  0
119120  1  0
119121  2  0
121122  1  0
121123  1  0
123124  2  0
124125  1  0
125126  2  3
126127  1  0
127128  3  0
126129  1  0
129130  3  0
 13  2  1  0
 56 19  1  0
 98 57  1  0
108 99  1  0
125114  1  0
 12  5  1  0
 28 22  1  0
 35 29  1  0
 55 36  2  0
 67 60  1  0
 75 68  1  0
 97 76  2  0
106101  2  0
124117  1  0
 47 41  1  0
 54 48  1  0
 88 81  1  0
 96 89  1  0
112104  1  0
  1131  1  0
  6132  1  0
  8133  1  0
  8134  1  0
  8135  1  0
 11136  1  0
 23137  1  0
 24138  1  0
 26139  1  0
 26140  1  0
 26141  1  0
 27142  1  0
 28143  1  0
 30144  1  0
 31145  1  0
 33146  1  0
 33147  1  0
 33148  1  0
 34149  1  0
 35150  1  0
 42151  1  0
 43152  1  0
 45153  1  0
 45154  1  0
 45155  1  0
 46156  1  0
 47157  1  0
 49158  1  0
 50159  1  0
 52160  1  0
 52161  1  0
 52162  1  0
 53163  1  0
 54164  1  0
 61165  1  0
 62166  1  0
 65167  1  0
 65168  1  0
 65169  1  0
 66170  1  0
 67171  1  0
 69172  1  0
 70173  1  0
 73174  1  0
 73175  1  0
 73176  1  0
 74177  1  0
 75178  1  0
 82179  1  0
 83180  1  0
 86181  1  0
 86182  1  0
 86183  1  0
 87184  1  0
 88185  1  0
 90186  1  0
 91187  1  0
 94188  1  0
 94189  1  0
 94190  1  0
 95191  1  0
 96192  1  0
100193  1  0
107194  1  0
108195  1  0
109196  1  0
110197  1  0
112198  1  0
113199  1  0
118200  1  0
120201  1  0
120202  1  0
120203  1  0
123204  1  0
M  END

