
     RDKit          3D

250271  0  0  0  0  0  0  0  0999 V2000
    0.7390    2.6770   -5.5996 C   0  0  0  0  0  0  0  0  0  0  0  0
    0.9069    3.7263   -6.4202 C   0  0  0  0  0  0  0  0  0  0  0  0
   -0.1997    4.5151   -6.9618 C   0  0  0  0  0  0  0  0  0  0  0  0
   -1.4206    4.1969   -6.9372 O   0  0  0  0  0  0  0  0  0  0  0  0
    0.3431    5.6304   -7.6854 C   0  0  0  0  0  0  0  0  0  0  0  0
   -0.3591    6.6454   -8.3334 C   0  0  0  0  0  0  0  0  0  0  0  0
    0.3645    7.6662   -8.9675 C   0  0  0  0  0  0  0  0  0  0  0  0
   -0.3610    8.7717   -9.6781 C   0  0  0  0  0  0  0  0  0  0  0  0
    1.7759    7.6487   -8.9292 C   0  0  0  0  0  0  0  0  0  0  0  0
    2.4854    8.6389   -9.5296 F   0  0  0  0  0  0  0  0  0  0  0  0
    2.4608    6.6101   -8.2752 C   0  0  0  0  0  0  0  0  0  0  0  0
    1.7288    5.5822   -7.6565 C   0  0  0  0  0  0  0  0  0  0  0  0
    2.1779    4.3800   -6.8805 C   0  0  0  0  0  0  0  0  0  0  0  0
    3.4568    4.0145   -6.5902 C   0  0  0  0  0  0  0  0  0  0  0  0
    4.6035    4.7708   -7.0208 C   0  0  0  0  0  0  0  0  0  0  0  0
    5.5399    5.3636   -7.3570 N   0  0  0  0  0  0  0  0  0  0  0  0
    3.7919    2.8829   -5.7674 C   0  0  0  0  0  0  0  0  0  0  0  0
    4.0820    1.9811   -5.0994 N   0  0  0  0  0  0  0  0  0  0  0  0
   -0.4603    2.5634   -4.7657 C   0  0  0  0  0  0  0  0  0  0  0  0
   -0.7651    3.4455   -3.7179 C   0  0  0  0  0  0  0  0  0  0  0  0
    0.0274    4.5830   -3.3441 N   0  0  0  0  0  0  0  0  0  0  0  0
   -0.5950    5.8876   -3.2762 C   0  0  0  0  0  0  0  0  0  0  0  0
   -1.6632    6.2128   -4.1361 C   0  0  0  0  0  0  0  0  0  0  0  0
   -2.2751    7.4640   -4.0776 C   0  0  0  0  0  0  0  0  0  0  0  0
   -1.8570    8.4123   -3.1334 C   0  0  0  0  0  0  0  0  0  0  0  0
   -2.4958    9.7683   -3.0878 C   0  0  0  0  0  0  0  0  0  0  0  0
   -0.7964    8.0991   -2.2694 C   0  0  0  0  0  0  0  0  0  0  0  0
   -0.1748    6.8481   -2.3351 C   0  0  0  0  0  0  0  0  0  0  0  0
    1.3819    4.3728   -2.8926 C   0  0  0  0  0  0  0  0  0  0  0  0
    2.4197    5.2021   -3.3482 C   0  0  0  0  0  0  0  0  0  0  0  0
    3.7273    5.0133   -2.8937 C   0  0  0  0  0  0  0  0  0  0  0  0
    4.0148    3.9967   -1.9654 C   0  0  0  0  0  0  0  0  0  0  0  0
    5.4090    3.7890   -1.4575 C   0  0  0  0  0  0  0  0  0  0  0  0
    2.9824    3.1598   -1.5197 C   0  0  0  0  0  0  0  0  0  0  0  0
    1.6778    3.3429   -1.9808 C   0  0  0  0  0  0  0  0  0  0  0  0
   -1.7834    2.9456   -2.9295 C   0  0  0  0  0  0  0  0  0  0  0  0
   -2.2079    3.2631   -1.3531 S   0  0  0  0  0  0  0  0  0  0  0  0
   -3.1127    1.8404   -1.1163 C   0  0  0  0  0  0  0  0  0  0  0  0
   -3.0592    1.0986   -2.3281 C   0  0  0  0  0  0  0  0  0  0  0  0
   -3.6906   -0.1784   -2.5353 N   0  0  0  0  0  0  0  0  0  0  0  0
   -2.9084   -1.2975   -3.0142 C   0  0  0  0  0  0  0  0  0  0  0  0
   -1.5609   -1.4412   -2.6324 C   0  0  0  0  0  0  0  0  0  0  0  0
   -0.7642   -2.4376   -3.2021 C   0  0  0  0  0  0  0  0  0  0  0  0
   -1.3142   -3.3431   -4.1180 C   0  0  0  0  0  0  0  0  0  0  0  0
   -0.4569   -4.3940   -4.7589 C   0  0  0  0  0  0  0  0  0  0  0  0
   -2.6604   -3.2235   -4.4843 C   0  0  0  0  0  0  0  0  0  0  0  0
   -3.4490   -2.2021   -3.9453 C   0  0  0  0  0  0  0  0  0  0  0  0
   -5.1236   -0.2627   -2.3705 C   0  0  0  0  0  0  0  0  0  0  0  0
   -5.9465    0.8275   -2.7173 C   0  0  0  0  0  0  0  0  0  0  0  0
   -7.3246    0.7704   -2.5115 C   0  0  0  0  0  0  0  0  0  0  0  0
   -7.9105   -0.3829   -1.9718 C   0  0  0  0  0  0  0  0  0  0  0  0
   -9.3857   -0.4201   -1.7076 C   0  0  0  0  0  0  0  0  0  0  0  0
   -7.0960   -1.4669   -1.6066 C   0  0  0  0  0  0  0  0  0  0  0  0
   -5.7158   -1.4112   -1.8131 C   0  0  0  0  0  0  0  0  0  0  0  0
   -2.2809    1.7401   -3.2978 C   0  0  0  0  0  0  0  0  0  0  0  0
   -1.4611    1.1919   -4.6642 S   0  0  0  0  0  0  0  0  0  0  0  0
   -3.3480    1.2662    0.2374 C   0  0  0  0  0  0  0  0  0  0  0  0
   -2.8553    1.8516    1.4320 C   0  0  0  0  0  0  0  0  0  0  0  0
   -2.7937    3.2752    1.6705 N   0  0  0  0  0  0  0  0  0  0  0  0
   -1.6543    3.8513    2.3260 C   0  0  0  0  0  0  0  0  0  0  0  0
   -1.8325    4.6837    3.4425 C   0  0  0  0  0  0  0  0  0  0  0  0
   -0.7260    5.1887    4.1256 C   0  0  0  0  0  0  0  0  0  0  0  0
    0.5697    4.8855    3.6854 C   0  0  0  0  0  0  0  0  0  0  0  0
    1.9845    5.4481    4.6208 S   0  0  0  0  0  0  0  0  0  0  0  0
    2.1774    3.8631    5.5015 C   0  0  0  0  0  0  0  0  0  0  0  0
    0.7494    4.0901    2.5422 C   0  0  0  0  0  0  0  0  0  0  0  0
   -0.3579    3.5685    1.8715 C   0  0  0  0  0  0  0  0  0  0  0  0
   -3.8946    4.1185    1.2607 C   0  0  0  0  0  0  0  0  0  0  0  0
   -5.2218    3.6725    1.3810 C   0  0  0  0  0  0  0  0  0  0  0  0
   -6.2733    4.4228    0.8478 C   0  0  0  0  0  0  0  0  0  0  0  0
   -6.0060    5.6202    0.1724 C   0  0  0  0  0  0  0  0  0  0  0  0
   -7.3319    6.5097   -0.6433 S   0  0  0  0  0  0  0  0  0  0  0  0
   -7.3508    5.3942   -2.0838 C   0  0  0  0  0  0  0  0  0  0  0  0
   -4.6940    6.0963    0.0884 C   0  0  0  0  0  0  0  0  0  0  0  0
   -3.6465    5.3647    0.6525 C   0  0  0  0  0  0  0  0  0  0  0  0
   -2.4873    0.8749    2.3735 C   0  0  0  0  0  0  0  0  0  0  0  0
   -1.2679    0.8061    3.5299 S   0  0  0  0  0  0  0  0  0  0  0  0
   -1.1388   -0.9029    3.5869 C   0  0  0  0  0  0  0  0  0  0  0  0
   -2.0967   -1.4063    2.6861 C   0  0  0  0  0  0  0  0  0  0  0  0
   -2.5878   -2.7533    2.6765 N   0  0  0  0  0  0  0  0  0  0  0  0
   -3.7432   -2.9329    3.5199 C   0  0  0  0  0  0  0  0  0  0  0  0
   -5.0351   -2.8847    2.9680 C   0  0  0  0  0  0  0  0  0  0  0  0
   -6.1553   -2.8039    3.7974 C   0  0  0  0  0  0  0  0  0  0  0  0
   -5.9957   -2.7438    5.1850 C   0  0  0  0  0  0  0  0  0  0  0  0
   -7.4208   -2.4651    6.2343 S   0  0  0  0  0  0  0  0  0  0  0  0
   -7.1889   -0.6584    6.2358 C   0  0  0  0  0  0  0  0  0  0  0  0
   -4.7188   -2.8100    5.7464 C   0  0  0  0  0  0  0  0  0  0  0  0
   -3.6004   -2.8788    4.9151 C   0  0  0  0  0  0  0  0  0  0  0  0
   -2.3172   -3.6215    1.5436 C   0  0  0  0  0  0  0  0  0  0  0  0
   -1.2163   -3.3711    0.6998 C   0  0  0  0  0  0  0  0  0  0  0  0
   -0.9275   -4.2256   -0.3672 C   0  0  0  0  0  0  0  0  0  0  0  0
   -1.7311   -5.3382   -0.6182 C   0  0  0  0  0  0  0  0  0  0  0  0
   -1.3581   -6.4253   -1.9979 S   0  0  0  0  0  0  0  0  0  0  0  0
   -0.1332   -7.4067   -1.0801 C   0  0  0  0  0  0  0  0  0  0  0  0
   -2.8263   -5.6024    0.2051 C   0  0  0  0  0  0  0  0  0  0  0  0
   -3.1093   -4.7623    1.2880 C   0  0  0  0  0  0  0  0  0  0  0  0
   -2.7874   -0.3984    2.0228 C   0  0  0  0  0  0  0  0  0  0  0  0
   -3.4373   -0.4134    0.4905 S   0  0  0  0  0  0  0  0  0  0  0  0
    0.1827   -1.5524    3.7713 C   0  0  0  0  0  0  0  0  0  0  0  0
    0.4328   -2.9376    3.9115 C   0  0  0  0  0  0  0  0  0  0  0  0
   -0.2477   -3.7720    4.8657 N   0  0  0  0  0  0  0  0  0  0  0  0
    0.1439   -3.5697    6.2406 C   0  0  0  0  0  0  0  0  0  0  0  0
    0.9190   -4.5384    6.9010 C   0  0  0  0  0  0  0  0  0  0  0  0
    1.4337   -4.2888    8.1766 C   0  0  0  0  0  0  0  0  0  0  0  0
    1.1914   -3.0589    8.8067 C   0  0  0  0  0  0  0  0  0  0  0  0
    1.7662   -2.7635   10.1600 C   0  0  0  0  0  0  0  0  0  0  0  0
    0.3969   -2.0997    8.1608 C   0  0  0  0  0  0  0  0  0  0  0  0
   -0.1198   -2.3505    6.8858 C   0  0  0  0  0  0  0  0  0  0  0  0
   -0.8953   -5.0131    4.4899 C   0  0  0  0  0  0  0  0  0  0  0  0
   -0.6326   -5.6424    3.2593 C   0  0  0  0  0  0  0  0  0  0  0  0
   -1.2776   -6.8285    2.9150 C   0  0  0  0  0  0  0  0  0  0  0  0
   -2.2185   -7.4035    3.7774 C   0  0  0  0  0  0  0  0  0  0  0  0
   -2.9901   -8.6131    3.3461 C   0  0  0  0  0  0  0  0  0  0  0  0
   -2.5011   -6.7738    4.9975 C   0  0  0  0  0  0  0  0  0  0  0  0
   -1.8305   -5.6043    5.3605 C   0  0  0  0  0  0  0  0  0  0  0  0
    1.7406   -3.2356    3.5230 C   0  0  0  0  0  0  0  0  0  0  0  0
    2.6059   -4.6667    3.3314 S   0  0  0  0  0  0  0  0  0  0  0  0
    3.9805   -3.8868    2.6978 C   0  0  0  0  0  0  0  0  0  0  0  0
    3.8062   -2.4932    2.7582 C   0  0  0  0  0  0  0  0  0  0  0  0
    4.8494   -1.5162    2.5738 N   0  0  0  0  0  0  0  0  0  0  0  0
    5.0709   -0.5079    3.5838 C   0  0  0  0  0  0  0  0  0  0  0  0
    4.9026   -0.8102    4.9462 C   0  0  0  0  0  0  0  0  0  0  0  0
    5.1560    0.1515    5.9243 C   0  0  0  0  0  0  0  0  0  0  0  0
    5.5782    1.4387    5.5551 C   0  0  0  0  0  0  0  0  0  0  0  0
    5.8637    2.4609    6.6118 C   0  0  0  0  0  0  0  0  0  0  0  0
    5.7067    1.7596    4.1954 C   0  0  0  0  0  0  0  0  0  0  0  0
    5.4605    0.7927    3.2143 C   0  0  0  0  0  0  0  0  0  0  0  0
    5.8390   -1.7114    1.5501 C   0  0  0  0  0  0  0  0  0  0  0  0
    7.1756   -1.9500    1.9054 C   0  0  0  0  0  0  0  0  0  0  0  0
    8.1243   -2.2385    0.9227 C   0  0  0  0  0  0  0  0  0  0  0  0
    7.7553   -2.2781   -0.4308 C   0  0  0  0  0  0  0  0  0  0  0  0
    8.7728   -2.6432   -1.4695 C   0  0  0  0  0  0  0  0  0  0  0  0
    6.4232   -2.0245   -0.7905 C   0  0  0  0  0  0  0  0  0  0  0  0
    5.4704   -1.7448    0.1959 C   0  0  0  0  0  0  0  0  0  0  0  0
    2.5145   -2.1809    3.1765 C   0  0  0  0  0  0  0  0  0  0  0  0
    1.6149   -0.7768    3.2472 S   0  0  0  0  0  0  0  0  0  0  0  0
    5.2203   -4.5796    2.3880 C   0  0  0  0  0  0  0  0  0  0  0  0
    5.4602   -5.4070    1.3474 C   0  0  0  0  0  0  0  0  0  0  0  0
    6.7017   -6.1871    1.3142 C   0  0  0  0  0  0  0  0  0  0  0  0
    7.6484   -6.1060    2.1420 O   0  0  0  0  0  0  0  0  0  0  0  0
    6.6611   -7.0939    0.1939 C   0  0  0  0  0  0  0  0  0  0  0  0
    7.5926   -8.0747   -0.1489 C   0  0  0  0  0  0  0  0  0  0  0  0
    7.3252   -8.9062   -1.2508 C   0  0  0  0  0  0  0  0  0  0  0  0
    8.3033   -9.9702   -1.6472 C   0  0  0  0  0  0  0  0  0  0  0  0
    6.1047   -8.7652   -1.9471 C   0  0  0  0  0  0  0  0  0  0  0  0
    5.8140   -9.5779   -2.9976 F   0  0  0  0  0  0  0  0  0  0  0  0
    5.1727   -7.7861   -1.5635 C   0  0  0  0  0  0  0  0  0  0  0  0
    5.4812   -6.9130   -0.4993 C   0  0  0  0  0  0  0  0  0  0  0  0
    4.6846   -5.7999    0.1022 C   0  0  0  0  0  0  0  0  0  0  0  0
    3.6666   -5.1574   -0.5405 C   0  0  0  0  0  0  0  0  0  0  0  0
    2.9064   -4.0607   -0.0176 C   0  0  0  0  0  0  0  0  0  0  0  0
    2.2490   -3.1748    0.3370 N   0  0  0  0  0  0  0  0  0  0  0  0
    3.3411   -5.4171   -1.9185 C   0  0  0  0  0  0  0  0  0  0  0  0
    3.0888   -5.5808   -3.0425 N   0  0  0  0  0  0  0  0  0  0  0  0
    1.5361    2.0057   -5.3460 H   0  0  0  0  0  0  0  0  0  0  0  0
   -1.4425    6.6436   -8.3293 H   0  0  0  0  0  0  0  0  0  0  0  0
   -0.1678    9.7362   -9.1656 H   0  0  0  0  0  0  0  0  0  0  0  0
   -1.4592    8.5973   -9.6897 H   0  0  0  0  0  0  0  0  0  0  0  0
   -0.0175    8.8379  -10.7330 H   0  0  0  0  0  0  0  0  0  0  0  0
    3.5323    6.6416   -8.2812 H   0  0  0  0  0  0  0  0  0  0  0  0
   -2.0272    5.4975   -4.8571 H   0  0  0  0  0  0  0  0  0  0  0  0
   -3.0826    7.6915   -4.7607 H   0  0  0  0  0  0  0  0  0  0  0  0
   -2.5485   10.1355   -2.0410 H   0  0  0  0  0  0  0  0  0  0  0  0
   -3.5304    9.7332   -3.4910 H   0  0  0  0  0  0  0  0  0  0  0  0
   -1.8956   10.4811   -3.6934 H   0  0  0  0  0  0  0  0  0  0  0  0
   -0.4570    8.8261   -1.5396 H   0  0  0  0  0  0  0  0  0  0  0  0
    0.6198    6.6289   -1.6324 H   0  0  0  0  0  0  0  0  0  0  0  0
    2.2148    5.9922   -4.0598 H   0  0  0  0  0  0  0  0  0  0  0  0
    4.5142    5.6661   -3.2544 H   0  0  0  0  0  0  0  0  0  0  0  0
    6.1054    4.5626   -1.8403 H   0  0  0  0  0  0  0  0  0  0  0  0
    5.7745    2.7909   -1.7774 H   0  0  0  0  0  0  0  0  0  0  0  0
    5.4098    3.8330   -0.3453 H   0  0  0  0  0  0  0  0  0  0  0  0
    3.1851    2.3736   -0.8054 H   0  0  0  0  0  0  0  0  0  0  0  0
    0.8915    2.7015   -1.6078 H   0  0  0  0  0  0  0  0  0  0  0  0
   -1.1153   -0.7587   -1.9195 H   0  0  0  0  0  0  0  0  0  0  0  0
    0.2803   -2.5038   -2.9232 H   0  0  0  0  0  0  0  0  0  0  0  0
    0.4820   -4.5569   -4.1874 H   0  0  0  0  0  0  0  0  0  0  0  0
   -1.0048   -5.3607   -4.8012 H   0  0  0  0  0  0  0  0  0  0  0  0
   -0.1995   -4.0896   -5.7989 H   0  0  0  0  0  0  0  0  0  0  0  0
   -3.0945   -3.9050   -5.2044 H   0  0  0  0  0  0  0  0  0  0  0  0
   -4.4729   -2.1007   -4.2857 H   0  0  0  0  0  0  0  0  0  0  0  0
   -5.5210    1.7232   -3.1490 H   0  0  0  0  0  0  0  0  0  0  0  0
   -7.9357    1.6227   -2.7742 H   0  0  0  0  0  0  0  0  0  0  0  0
   -9.5987    0.0311   -0.7160 H   0  0  0  0  0  0  0  0  0  0  0  0
   -9.9329    0.1491   -2.4915 H   0  0  0  0  0  0  0  0  0  0  0  0
   -9.7638   -1.4658   -1.7207 H   0  0  0  0  0  0  0  0  0  0  0  0
   -7.5305   -2.3521   -1.1588 H   0  0  0  0  0  0  0  0  0  0  0  0
   -5.1029   -2.2528   -1.5126 H   0  0  0  0  0  0  0  0  0  0  0  0
   -2.8256    4.9188    3.8001 H   0  0  0  0  0  0  0  0  0  0  0  0
   -0.8787    5.8050    5.0049 H   0  0  0  0  0  0  0  0  0  0  0  0
    2.8570    4.0028    6.3649 H   0  0  0  0  0  0  0  0  0  0  0  0
    2.6240    3.1200    4.8078 H   0  0  0  0  0  0  0  0  0  0  0  0
    1.2019    3.4792    5.8745 H   0  0  0  0  0  0  0  0  0  0  0  0
    1.7441    3.8359    2.2039 H   0  0  0  0  0  0  0  0  0  0  0  0
   -0.2100    2.9248    1.0149 H   0  0  0  0  0  0  0  0  0  0  0  0
   -5.4448    2.7282    1.8624 H   0  0  0  0  0  0  0  0  0  0  0  0
   -7.2862    4.0554    0.9275 H   0  0  0  0  0  0  0  0  0  0  0  0
   -7.7573    4.4060   -1.7816 H   0  0  0  0  0  0  0  0  0  0  0  0
   -8.0040    5.8233   -2.8710 H   0  0  0  0  0  0  0  0  0  0  0  0
   -6.3283    5.2647   -2.4969 H   0  0  0  0  0  0  0  0  0  0  0  0
   -4.4787    7.0245   -0.4279 H   0  0  0  0  0  0  0  0  0  0  0  0
   -2.6306    5.7270    0.5451 H   0  0  0  0  0  0  0  0  0  0  0  0
   -5.1689   -2.8470    1.8930 H   0  0  0  0  0  0  0  0  0  0  0  0
   -7.1408   -2.7297    3.3562 H   0  0  0  0  0  0  0  0  0  0  0  0
   -6.2529   -0.4009    6.7755 H   0  0  0  0  0  0  0  0  0  0  0  0
   -8.0431   -0.1732    6.7508 H   0  0  0  0  0  0  0  0  0  0  0  0
   -7.1357   -0.2779    5.1944 H   0  0  0  0  0  0  0  0  0  0  0  0
   -4.5818   -2.7381    6.8201 H   0  0  0  0  0  0  0  0  0  0  0  0
   -2.6193   -2.8199    5.3602 H   0  0  0  0  0  0  0  0  0  0  0  0
   -0.5583   -2.5314    0.8810 H   0  0  0  0  0  0  0  0  0  0  0  0
   -0.0632   -4.0336   -0.9873 H   0  0  0  0  0  0  0  0  0  0  0  0
   -0.6444   -8.0595   -0.3449 H   0  0  0  0  0  0  0  0  0  0  0  0
    0.5920   -6.7508   -0.5540 H   0  0  0  0  0  0  0  0  0  0  0  0
    0.4249   -8.0408   -1.7974 H   0  0  0  0  0  0  0  0  0  0  0  0
   -3.4445   -6.4752    0.0263 H   0  0  0  0  0  0  0  0  0  0  0  0
   -3.9306   -5.0401    1.9352 H   0  0  0  0  0  0  0  0  0  0  0  0
    1.1628   -5.4687    6.4053 H   0  0  0  0  0  0  0  0  0  0  0  0
    2.0402   -5.0493    8.6603 H   0  0  0  0  0  0  0  0  0  0  0  0
    2.3011   -1.7908   10.1364 H   0  0  0  0  0  0  0  0  0  0  0  0
    0.9488   -2.7108   10.9113 H   0  0  0  0  0  0  0  0  0  0  0  0
    2.4900   -3.5464   10.4747 H   0  0  0  0  0  0  0  0  0  0  0  0
    0.1967   -1.1504    8.6401 H   0  0  0  0  0  0  0  0  0  0  0  0
   -0.7119   -1.5865    6.4041 H   0  0  0  0  0  0  0  0  0  0  0  0
    0.0399   -5.2063    2.5382 H   0  0  0  0  0  0  0  0  0  0  0  0
   -1.0688   -7.2813    1.9572 H   0  0  0  0  0  0  0  0  0  0  0  0
   -2.3340   -9.3111    2.7837 H   0  0  0  0  0  0  0  0  0  0  0  0
   -3.4022   -9.1580    4.2228 H   0  0  0  0  0  0  0  0  0  0  0  0
   -3.8321   -8.3047    2.6896 H   0  0  0  0  0  0  0  0  0  0  0  0
   -3.2379   -7.1887    5.6714 H   0  0  0  0  0  0  0  0  0  0  0  0
   -2.0709   -5.1383    6.3077 H   0  0  0  0  0  0  0  0  0  0  0  0
    4.5967   -1.8026    5.2536 H   0  0  0  0  0  0  0  0  0  0  0  0
    5.0336   -0.1098    6.9684 H   0  0  0  0  0  0  0  0  0  0  0  0
    6.3233    1.9811    7.5024 H   0  0  0  0  0  0  0  0  0  0  0  0
    6.5712    3.2342    6.2363 H   0  0  0  0  0  0  0  0  0  0  0  0
    4.9171    2.9539    6.9160 H   0  0  0  0  0  0  0  0  0  0  0  0
    6.0016    2.7578    3.8914 H   0  0  0  0  0  0  0  0  0  0  0  0
    5.5641    1.0597    2.1710 H   0  0  0  0  0  0  0  0  0  0  0  0
    7.4714   -1.9582    2.9488 H   0  0  0  0  0  0  0  0  0  0  0  0
    9.1463   -2.4481    1.2160 H   0  0  0  0  0  0  0  0  0  0  0  0
    8.4060   -2.4146   -2.4928 H   0  0  0  0  0  0  0  0  0  0  0  0
    9.7091   -2.0700   -1.3023 H   0  0  0  0  0  0  0  0  0  0  0  0
    8.9967   -3.7291   -1.4050 H   0  0  0  0  0  0  0  0  0  0  0  0
    6.1164   -2.0517   -1.8303 H   0  0  0  0  0  0  0  0  0  0  0  0
    4.4459   -1.5601   -0.0957 H   0  0  0  0  0  0  0  0  0  0  0  0
    6.0082   -4.4310    3.1189 H   0  0  0  0  0  0  0  0  0  0  0  0
    8.4956   -8.1939    0.4376 H   0  0  0  0  0  0  0  0  0  0  0  0
    8.5110   -9.9078   -2.7381 H   0  0  0  0  0  0  0  0  0  0  0  0
    9.2681   -9.8579   -1.1065 H   0  0  0  0  0  0  0  0  0  0  0  0
    7.8784  -10.9717   -1.4206 H   0  0  0  0  0  0  0  0  0  0  0  0
    4.2241   -7.7528   -2.0732 H   0  0  0  0  0  0  0  0  0  0  0  0
  1  2  2  3
  2  3  1  0
  3  4  2  0
  3  5  1  0
  5  6  2  0
  6  7  1  0
  7  8  1  0
  7  9  2  0
  9 10  1  0
  9 11  1  0
 11 12  2  0
 12 13  1  0
 13 14  2  3
 14 15  1  0
 15 16  3  0
 14 17  1  0
 17 18  3  0
  1 19  1  0
 19 20  2  0
 20 21  1  0
 21 22  1  0
 22 23  2  0
 23 24  1  0
 24 25  2  0
 25 26  1  0
 25 27  1  0
 27 28  2  0
 21 29  1  0
 29 30  2  0
 30 31  1  0
 31 32  2  0
 32 33  1  0
 32 34  1  0
 34 35  2  0
 20 36  1  0
 36 37  1  0
 37 38  1  0
 38 39  2  0
 39 40  1  0
 40 41  1  0
 41 42  2  0
 42 43  1  0
 43 44  2  0
 44 45  1  0
 44 46  1  0
 46 47  2  0
 40 48  1  0
 48 49  2  0
 49 50  1  0
 50 51  2  0
 51 52  1  0
 51 53  1  0
 53 54  2  0
 39 55  1  0
 55 56  1  0
 38 57  1  0
 57 58  2  0
 58 59  1  0
 59 60  1  0
 60 61  2  0
 61 62  1  0
 62 63  2  0
 63 64  1  0
 64 65  1  0
 63 66  1  0
 66 67  2  0
 59 68  1  0
 68 69  2  0
 69 70  1  0
 70 71  2  0
 71 72  1  0
 72 73  1  0
 71 74  1  0
 74 75  2  0
 58 76  1  0
 76 77  1  0
 77 78  1  0
 78 79  2  0
 79 80  1  0
 80 81  1  0
 81 82  2  0
 82 83  1  0
 83 84  2  0
 84 85  1  0
 85 86  1  0
 84 87  1  0
 87 88  2  0
 80 89  1  0
 89 90  2  0
 90 91  1  0
 91 92  2  0
 92 93  1  0
 93 94  1  0
 92 95  1  0
 95 96  2  0
 79 97  1  0
 97 98  1  0
 78 99  1  0
 99100  2  0
100101  1  0
101102  1  0
102103  2  0
103104  1  0
104105  2  0
105106  1  0
105107  1  0
107108  2  0
101109  1  0
109110  2  0
110111  1  0
111112  2  0
112113  1  0
112114  1  0
114115  2  0
100116  1  0
116117  1  0
117118  1  0
118119  2  0
119120  1  0
120121  1  0
121122  2  0
122123  1  0
123124  2  0
124125  1  0
124126  1  0
126127  2  0
120128  1  0
128129  2  0
129130  1  0
130131  2  0
131132  1  0
131133  1  0
133134  2  0
119135  1  0
135136  1  0
118137  1  0
137138  2  3
138139  1  0
139140  2  0
139141  1  0
141142  2  0
142143  1  0
143144  1  0
143145  2  0
145146  1  0
145147  1  0
147148  2  0
148149  1  0
149150  2  3
150151  1  0
151152  3  0
150153  1  0
153154  3  0
 13  2  1  0
 56 19  1  0
 98 57  1  0
136 99  1  0
149138  1  0
 12  5  1  0
 28 22  1  0
 35 29  1  0
 55 36  2  0
 67 60  1  0
 75 68  1  0
 97 76  2  0
108102  1  0
115109  1  0
135116  2  0
148141  1  0
 47 41  1  0
 54 48  1  0
 88 81  1  0
 96 89  1  0
127121  1  0
134128  1  0
  1155  1  0
  6156  1  0
  8157  1  0
  8158  1  0
  8159  1  0
 11160  1  0
 23161  1  0
 24162  1  0
 26163  1  0
 26164  1  0
 26165  1  0
 27166  1  0
 28167  1  0
 30168  1  0
 31169  1  0
 33170  1  0
 33171  1  0
 33172  1  0
 34173  1  0
 35174  1  0
 42175  1  0
 43176  1  0
 45177  1  0
 45178  1  0
 45179  1  0
 46180  1  0
 47181  1  0
 49182  1  0
 50183  1  0
 52184  1  0
 52185  1  0
 52186  1  0
 53187  1  0
 54188  1  0
 61189  1  0
 62190  1  0
 65191  1  0
 65192  1  0
 65193  1  0
 66194  1  0
 67195  1  0
 69196  1  0
 70197  1  0
 73198  1  0
 73199  1  0
 73200  1  0
 74201  1  0
 75202  1  0
 82203  1  0
 83204  1  0
 86205  1  0
 86206  1  0
 86207  1  0
 87208  1  0
 88209  1  0
 90210  1  0
 91211  1  0
 94212  1  0
 94213  1  0
 94214  1  0
 95215  1  0
 96216  1  0
103217  1  0
104218  1  0
106219  1  0
106220  1  0
106221  1  0
107222  1  0
108223  1  0
110224  1  0
111225  1  0
113226  1  0
113227  1  0
113228  1  0
114229  1  0
115230  1  0
122231  1  0
123232  1  0
125233  1  0
125234  1  0
125235  1  0
126236  1  0
127237  1  0
129238  1  0
130239  1  0
132240  1  0
132241  1  0
132242  1  0
133243  1  0
134244  1  0
137245  1  0
142246  1  0
144247  1  0
144248  1  0
144249  1  0
147250  1  0
M  END

