
     RDKit          3D

244265  0  0  0  0  0  0  0  0999 V2000
    4.8481    0.2553    5.9644 C   0  0  0  0  0  0  0  0  0  0  0  0
    5.6855   -0.7801    5.7272 C   0  0  0  0  0  0  0  0  0  0  0  0
    6.4122   -1.3891    6.8497 C   0  0  0  0  0  0  0  0  0  0  0  0
    6.3487   -1.0201    8.0542 O   0  0  0  0  0  0  0  0  0  0  0  0
    7.2264   -2.4724    6.3651 C   0  0  0  0  0  0  0  0  0  0  0  0
    8.0726   -3.3057    7.0963 C   0  0  0  0  0  0  0  0  0  0  0  0
    8.8304   -4.2695    6.4078 C   0  0  0  0  0  0  0  0  0  0  0  0
    9.7286   -5.1997    7.1648 C   0  0  0  0  0  0  0  0  0  0  0  0
    8.7812   -4.3119    4.9980 C   0  0  0  0  0  0  0  0  0  0  0  0
    9.5624   -5.1794    4.3100 F   0  0  0  0  0  0  0  0  0  0  0  0
    7.9199   -3.4562    4.2891 C   0  0  0  0  0  0  0  0  0  0  0  0
    7.0833   -2.5774    4.9991 C   0  0  0  0  0  0  0  0  0  0  0  0
    6.0578   -1.6020    4.5073 C   0  0  0  0  0  0  0  0  0  0  0  0
    5.4529   -1.7041    3.2865 C   0  0  0  0  0  0  0  0  0  0  0  0
    4.5498   -0.7551    2.7069 C   0  0  0  0  0  0  0  0  0  0  0  0
    3.8157   -0.0430    2.1676 N   0  0  0  0  0  0  0  0  0  0  0  0
    5.5973   -2.8866    2.4778 C   0  0  0  0  0  0  0  0  0  0  0  0
    5.6934   -3.8409    1.8266 N   0  0  0  0  0  0  0  0  0  0  0  0
    3.9921    0.9664    5.0253 C   0  0  0  0  0  0  0  0  0  0  0  0
    2.6082    0.7759    4.9143 C   0  0  0  0  0  0  0  0  0  0  0  0
    1.9059   -0.3645    5.4343 N   0  0  0  0  0  0  0  0  0  0  0  0
    1.4942   -1.4270    4.5582 C   0  0  0  0  0  0  0  0  0  0  0  0
    2.3530   -2.5035    4.3023 C   0  0  0  0  0  0  0  0  0  0  0  0
    2.0278   -3.4480    3.3201 C   0  0  0  0  0  0  0  0  0  0  0  0
    0.8441   -3.3104    2.5786 C   0  0  0  0  0  0  0  0  0  0  0  0
    0.5083   -4.2836    1.4840 C   0  0  0  0  0  0  0  0  0  0  0  0
   -0.0469   -2.2764    2.8872 C   0  0  0  0  0  0  0  0  0  0  0  0
    0.2601   -1.3614    3.8963 C   0  0  0  0  0  0  0  0  0  0  0  0
    1.4332   -0.3417    6.7827 C   0  0  0  0  0  0  0  0  0  0  0  0
    0.3525    0.4806    7.1332 C   0  0  0  0  0  0  0  0  0  0  0  0
   -0.1288    0.4860    8.4449 C   0  0  0  0  0  0  0  0  0  0  0  0
    0.4787   -0.3172    9.4240 C   0  0  0  0  0  0  0  0  0  0  0  0
   -0.0243   -0.2778   10.8367 C   0  0  0  0  0  0  0  0  0  0  0  0
    1.5735   -1.1293    9.0703 C   0  0  0  0  0  0  0  0  0  0  0  0
    2.0418   -1.1468    7.7536 C   0  0  0  0  0  0  0  0  0  0  0  0
    2.0552    1.7130    4.0453 C   0  0  0  0  0  0  0  0  0  0  0  0
    0.6057    1.7884    3.2319 S   0  0  0  0  0  0  0  0  0  0  0  0
    1.1088    2.9440    2.0984 C   0  0  0  0  0  0  0  0  0  0  0  0
    2.4434    3.3017    2.3894 C   0  0  0  0  0  0  0  0  0  0  0  0
    3.2226    4.2671    1.6623 N   0  0  0  0  0  0  0  0  0  0  0  0
    3.7812    5.3945    2.3625 C   0  0  0  0  0  0  0  0  0  0  0  0
    5.0839    5.8411    2.0771 C   0  0  0  0  0  0  0  0  0  0  0  0
    5.6321    6.9199    2.7758 C   0  0  0  0  0  0  0  0  0  0  0  0
    4.8867    7.5742    3.7654 C   0  0  0  0  0  0  0  0  0  0  0  0
    5.5015    8.7023    4.5381 C   0  0  0  0  0  0  0  0  0  0  0  0
    3.5895    7.1276    4.0596 C   0  0  0  0  0  0  0  0  0  0  0  0
    3.0383    6.0525    3.3576 C   0  0  0  0  0  0  0  0  0  0  0  0
    3.4856    4.0862    0.2641 C   0  0  0  0  0  0  0  0  0  0  0  0
    4.1841    2.9569   -0.1850 C   0  0  0  0  0  0  0  0  0  0  0  0
    4.4297    2.7802   -1.5499 C   0  0  0  0  0  0  0  0  0  0  0  0
    3.9809    3.7355   -2.4772 C   0  0  0  0  0  0  0  0  0  0  0  0
    4.2258    3.5585   -3.9472 C   0  0  0  0  0  0  0  0  0  0  0  0
    3.2988    4.8732   -2.0221 C   0  0  0  0  0  0  0  0  0  0  0  0
    3.0615    5.0539   -0.6580 C   0  0  0  0  0  0  0  0  0  0  0  0
    2.9269    2.6033    3.4991 C   0  0  0  0  0  0  0  0  0  0  0  0
    4.4710    2.3255    4.1068 S   0  0  0  0  0  0  0  0  0  0  0  0
    0.4427    2.9689    0.7932 C   0  0  0  0  0  0  0  0  0  0  0  0
   -0.9665    2.9518    0.7066 C   0  0  0  0  0  0  0  0  0  0  0  0
   -1.7865    3.9528    1.3372 N   0  0  0  0  0  0  0  0  0  0  0  0
   -3.0630    3.6093    1.9097 C   0  0  0  0  0  0  0  0  0  0  0  0
   -3.2086    2.4476    2.6900 C   0  0  0  0  0  0  0  0  0  0  0  0
   -4.4283    2.1658    3.3149 C   0  0  0  0  0  0  0  0  0  0  0  0
   -5.5155    3.0338    3.1618 C   0  0  0  0  0  0  0  0  0  0  0  0
   -7.0642    2.6987    4.0044 S   0  0  0  0  0  0  0  0  0  0  0  0
   -6.6217    3.6979    5.4620 C   0  0  0  0  0  0  0  0  0  0  0  0
   -5.3926    4.1670    2.3468 C   0  0  0  0  0  0  0  0  0  0  0  0
   -4.1710    4.4582    1.7332 C   0  0  0  0  0  0  0  0  0  0  0  0
   -1.3304    5.3266    1.3104 C   0  0  0  0  0  0  0  0  0  0  0  0
   -0.7042    5.8461    0.1607 C   0  0  0  0  0  0  0  0  0  0  0  0
   -0.1927    7.1450    0.1552 C   0  0  0  0  0  0  0  0  0  0  0  0
   -0.3064    7.9480    1.2941 C   0  0  0  0  0  0  0  0  0  0  0  0
    0.4222    9.5899    1.3115 S   0  0  0  0  0  0  0  0  0  0  0  0
   -1.1080   10.4215    0.7861 C   0  0  0  0  0  0  0  0  0  0  0  0
   -0.9495    7.4513    2.4344 C   0  0  0  0  0  0  0  0  0  0  0  0
   -1.4598    6.1485    2.4438 C   0  0  0  0  0  0  0  0  0  0  0  0
   -1.4135    2.0957   -0.3058 C   0  0  0  0  0  0  0  0  0  0  0  0
   -2.8980    1.4913   -0.8306 S   0  0  0  0  0  0  0  0  0  0  0  0
   -2.2182    0.5222   -2.0714 C   0  0  0  0  0  0  0  0  0  0  0  0
   -0.8250    0.7369   -2.0932 C   0  0  0  0  0  0  0  0  0  0  0  0
    0.0417    0.4726   -3.2117 N   0  0  0  0  0  0  0  0  0  0  0  0
    1.2317   -0.3057   -2.9856 C   0  0  0  0  0  0  0  0  0  0  0  0
    2.4776    0.1619   -3.4339 C   0  0  0  0  0  0  0  0  0  0  0  0
    3.6348   -0.5834   -3.2106 C   0  0  0  0  0  0  0  0  0  0  0  0
    3.5665   -1.7895   -2.5062 C   0  0  0  0  0  0  0  0  0  0  0  0
    5.0633   -2.7338   -2.2173 S   0  0  0  0  0  0  0  0  0  0  0  0
    5.5909   -1.6916   -0.8202 C   0  0  0  0  0  0  0  0  0  0  0  0
    2.3312   -2.2572   -2.0396 C   0  0  0  0  0  0  0  0  0  0  0  0
    1.1663   -1.5188   -2.2777 C   0  0  0  0  0  0  0  0  0  0  0  0
   -0.1812    1.1707   -4.4689 C   0  0  0  0  0  0  0  0  0  0  0  0
   -0.9772    2.3348   -4.5147 C   0  0  0  0  0  0  0  0  0  0  0  0
   -1.3083    2.9219   -5.7362 C   0  0  0  0  0  0  0  0  0  0  0  0
   -0.8142    2.3921   -6.9295 C   0  0  0  0  0  0  0  0  0  0  0  0
   -1.2380    3.1613   -8.4922 S   0  0  0  0  0  0  0  0  0  0  0  0
    0.0254    4.4603   -8.3243 C   0  0  0  0  0  0  0  0  0  0  0  0
    0.0015    1.2580   -6.9018 C   0  0  0  0  0  0  0  0  0  0  0  0
    0.3097    0.6449   -5.6825 C   0  0  0  0  0  0  0  0  0  0  0  0
   -0.4286    1.5582   -1.0559 C   0  0  0  0  0  0  0  0  0  0  0  0
    1.0591    2.0165   -0.4717 S   0  0  0  0  0  0  0  0  0  0  0  0
   -2.9343   -0.4543   -2.9237 C   0  0  0  0  0  0  0  0  0  0  0  0
   -4.1685   -1.1000   -2.6781 C   0  0  0  0  0  0  0  0  0  0  0  0
   -4.9488   -0.9733   -1.4807 N   0  0  0  0  0  0  0  0  0  0  0  0
   -4.4541   -1.5314   -0.2452 C   0  0  0  0  0  0  0  0  0  0  0  0
   -4.7666   -0.9238    0.9814 C   0  0  0  0  0  0  0  0  0  0  0  0
   -4.3823   -1.5203    2.1866 C   0  0  0  0  0  0  0  0  0  0  0  0
   -3.6733   -2.7300    2.1833 C   0  0  0  0  0  0  0  0  0  0  0  0
   -3.3301   -3.4051    3.4798 C   0  0  0  0  0  0  0  0  0  0  0  0
   -3.3486   -3.3357    0.9593 C   0  0  0  0  0  0  0  0  0  0  0  0
   -3.7245   -2.7339   -0.2453 C   0  0  0  0  0  0  0  0  0  0  0  0
   -6.3333   -0.5862   -1.6026 C   0  0  0  0  0  0  0  0  0  0  0  0
   -7.3437   -1.3246   -0.9620 C   0  0  0  0  0  0  0  0  0  0  0  0
   -8.6867   -0.9693   -1.1134 C   0  0  0  0  0  0  0  0  0  0  0  0
   -9.0422    0.1149   -1.9288 C   0  0  0  0  0  0  0  0  0  0  0  0
  -10.4803    0.5151   -2.0718 C   0  0  0  0  0  0  0  0  0  0  0  0
   -8.0355    0.8621   -2.5611 C   0  0  0  0  0  0  0  0  0  0  0  0
   -6.6923    0.5088   -2.4059 C   0  0  0  0  0  0  0  0  0  0  0  0
   -4.4594   -2.0393   -3.6810 C   0  0  0  0  0  0  0  0  0  0  0  0
   -5.6613   -3.1858   -3.9572 S   0  0  0  0  0  0  0  0  0  0  0  0
   -4.9232   -3.8085   -5.3728 C   0  0  0  0  0  0  0  0  0  0  0  0
   -3.7359   -3.1157   -5.6119 C   0  0  0  0  0  0  0  0  0  0  0  0
   -2.8235   -3.3642   -6.6929 N   0  0  0  0  0  0  0  0  0  0  0  0
   -2.9181   -2.5939   -7.9160 C   0  0  0  0  0  0  0  0  0  0  0  0
   -3.6718   -1.4022   -7.9730 C   0  0  0  0  0  0  0  0  0  0  0  0
   -3.7212   -0.6436   -9.1444 C   0  0  0  0  0  0  0  0  0  0  0  0
   -3.0112   -1.0526  -10.2811 C   0  0  0  0  0  0  0  0  0  0  0  0
   -3.0185   -0.1961  -11.5137 C   0  0  0  0  0  0  0  0  0  0  0  0
   -2.2667   -2.2394  -10.2376 C   0  0  0  0  0  0  0  0  0  0  0  0
   -2.2296   -3.0083   -9.0707 C   0  0  0  0  0  0  0  0  0  0  0  0
   -1.5905   -4.0238   -6.3532 C   0  0  0  0  0  0  0  0  0  0  0  0
   -1.5981   -5.3630   -5.9418 C   0  0  0  0  0  0  0  0  0  0  0  0
   -0.4194   -5.9740   -5.5003 C   0  0  0  0  0  0  0  0  0  0  0  0
    0.7822   -5.2501   -5.4671 C   0  0  0  0  0  0  0  0  0  0  0  0
    2.0281   -5.8788   -4.9120 C   0  0  0  0  0  0  0  0  0  0  0  0
    0.7869   -3.9072   -5.8708 C   0  0  0  0  0  0  0  0  0  0  0  0
   -0.3849   -3.3028   -6.3259 C   0  0  0  0  0  0  0  0  0  0  0  0
   -3.5168   -2.1532   -4.6446 C   0  0  0  0  0  0  0  0  0  0  0  0
   -2.2685   -1.1084   -4.3453 S   0  0  0  0  0  0  0  0  0  0  0  0
   -5.4585   -4.8693   -6.2303 C   0  0  0  0  0  0  0  0  0  0  0  0
   -5.3997   -6.1731   -5.9076 C   0  0  0  0  0  0  0  0  0  0  0  0
   -4.8724   -6.7232   -4.6352 C   0  0  0  0  0  0  0  0  0  0  0  0
   -4.3603   -6.0770   -3.6813 O   0  0  0  0  0  0  0  0  0  0  0  0
   -5.0062   -8.1581   -4.6898 C   0  0  0  0  0  0  0  0  0  0  0  0
   -4.6302   -9.2060   -3.8565 C   0  0  0  0  0  0  0  0  0  0  0  0
   -4.9224  -10.4339   -4.4510 C   0  0  0  0  0  0  0  0  0  0  0  0
   -4.5962  -11.9965   -3.7330 Cl  0  0  0  0  0  0  0  0  0  0  0  0
   -5.6145  -10.1960   -5.9882 S   0  0  0  0  0  0  0  0  0  0  0  0
   -5.5563   -8.5173   -5.8722 C   0  0  0  0  0  0  0  0  0  0  0  0
   -5.8219   -7.3543   -6.7417 C   0  0  0  0  0  0  0  0  0  0  0  0
   -6.2576   -7.4126   -8.0229 C   0  0  0  0  0  0  0  0  0  0  0  0
   -6.5944   -8.6705   -8.6374 C   0  0  0  0  0  0  0  0  0  0  0  0
   -6.8629   -9.6761   -9.1425 N   0  0  0  0  0  0  0  0  0  0  0  0
   -6.3637   -6.2604   -8.8775 C   0  0  0  0  0  0  0  0  0  0  0  0
   -6.4439   -5.3445   -9.5806 N   0  0  0  0  0  0  0  0  0  0  0  0
    4.7383    0.5982    6.9846 H   0  0  0  0  0  0  0  0  0  0  0  0
    8.1431   -3.2009    8.1737 H   0  0  0  0  0  0  0  0  0  0  0  0
    9.6682   -6.2250    6.7385 H   0  0  0  0  0  0  0  0  0  0  0  0
   10.7771   -4.8439    7.1004 H   0  0  0  0  0  0  0  0  0  0  0  0
    9.4314   -5.2576    8.2315 H   0  0  0  0  0  0  0  0  0  0  0  0
    7.9407   -3.4796    3.2087 H   0  0  0  0  0  0  0  0  0  0  0  0
    3.2832   -2.5982    4.8470 H   0  0  0  0  0  0  0  0  0  0  0  0
    2.7116   -4.2604    3.1179 H   0  0  0  0  0  0  0  0  0  0  0  0
    1.4333   -4.7166    1.0451 H   0  0  0  0  0  0  0  0  0  0  0  0
   -0.0505   -3.7737    0.6701 H   0  0  0  0  0  0  0  0  0  0  0  0
   -0.1181   -5.1049    1.8932 H   0  0  0  0  0  0  0  0  0  0  0  0
   -0.9679   -2.1576    2.3340 H   0  0  0  0  0  0  0  0  0  0  0  0
   -0.4497   -0.5831    4.1327 H   0  0  0  0  0  0  0  0  0  0  0  0
   -0.1252    1.1032    6.3863 H   0  0  0  0  0  0  0  0  0  0  0  0
   -0.9724    1.1183    8.7028 H   0  0  0  0  0  0  0  0  0  0  0  0
   -1.1228   -0.4438   10.8497 H   0  0  0  0  0  0  0  0  0  0  0  0
    0.1958    0.7169   11.2767 H   0  0  0  0  0  0  0  0  0  0  0  0
    0.4551   -1.0596   11.4619 H   0  0  0  0  0  0  0  0  0  0  0  0
    2.0580   -1.7524    9.8125 H   0  0  0  0  0  0  0  0  0  0  0  0
    2.8765   -1.7839    7.4855 H   0  0  0  0  0  0  0  0  0  0  0  0
    5.6843    5.3354    1.3324 H   0  0  0  0  0  0  0  0  0  0  0  0
    6.6415    7.2390    2.5489 H   0  0  0  0  0  0  0  0  0  0  0  0
    6.0533    9.3797    3.8512 H   0  0  0  0  0  0  0  0  0  0  0  0
    4.7264    9.3018    5.0623 H   0  0  0  0  0  0  0  0  0  0  0  0
    6.2101    8.2959    5.2900 H   0  0  0  0  0  0  0  0  0  0  0  0
    3.0042    7.6096    4.8343 H   0  0  0  0  0  0  0  0  0  0  0  0
    2.0285    5.7330    3.5875 H   0  0  0  0  0  0  0  0  0  0  0  0
    4.5285    2.2123    0.5221 H   0  0  0  0  0  0  0  0  0  0  0  0
    4.9663    1.9014   -1.8804 H   0  0  0  0  0  0  0  0  0  0  0  0
    4.7596    2.6064   -4.1575 H   0  0  0  0  0  0  0  0  0  0  0  0
    4.8414    4.3997   -4.3250 H   0  0  0  0  0  0  0  0  0  0  0  0
    3.2561    3.5444   -4.4864 H   0  0  0  0  0  0  0  0  0  0  0  0
    2.9539    5.6231   -2.7244 H   0  0  0  0  0  0  0  0  0  0  0  0
    2.5307    5.9342   -0.3194 H   0  0  0  0  0  0  0  0  0  0  0  0
   -2.3742    1.7740    2.8344 H   0  0  0  0  0  0  0  0  0  0  0  0
   -4.5227    1.2829    3.9319 H   0  0  0  0  0  0  0  0  0  0  0  0
   -5.7105    3.2843    5.9457 H   0  0  0  0  0  0  0  0  0  0  0  0
   -7.4609    3.6752    6.1899 H   0  0  0  0  0  0  0  0  0  0  0  0
   -6.4393    4.7512    5.1586 H   0  0  0  0  0  0  0  0  0  0  0  0
   -6.2326    4.8378    2.2153 H   0  0  0  0  0  0  0  0  0  0  0  0
   -4.0879    5.3486    1.1194 H   0  0  0  0  0  0  0  0  0  0  0  0
   -0.5962    5.2351   -0.7285 H   0  0  0  0  0  0  0  0  0  0  0  0
    0.3004    7.5217   -0.7321 H   0  0  0  0  0  0  0  0  0  0  0  0
   -1.3964   10.0816   -0.2295 H   0  0  0  0  0  0  0  0  0  0  0  0
   -0.9319   11.5153    0.7608 H   0  0  0  0  0  0  0  0  0  0  0  0
   -1.9273   10.2100    1.5023 H   0  0  0  0  0  0  0  0  0  0  0  0
   -1.0423    8.0707    3.3181 H   0  0  0  0  0  0  0  0  0  0  0  0
   -1.9323    5.7714    3.3435 H   0  0  0  0  0  0  0  0  0  0  0  0
    2.5513    1.1093   -3.9496 H   0  0  0  0  0  0  0  0  0  0  0  0
    4.5872   -0.2099   -3.5662 H   0  0  0  0  0  0  0  0  0  0  0  0
    4.8001   -1.6756   -0.0422 H   0  0  0  0  0  0  0  0  0  0  0  0
    5.7939   -0.6559   -1.1671 H   0  0  0  0  0  0  0  0  0  0  0  0
    6.5239   -2.1109   -0.3892 H   0  0  0  0  0  0  0  0  0  0  0  0
    2.2713   -3.1924   -1.4976 H   0  0  0  0  0  0  0  0  0  0  0  0
    0.2178   -1.8923   -1.9181 H   0  0  0  0  0  0  0  0  0  0  0  0
   -1.3650    2.7854   -3.6097 H   0  0  0  0  0  0  0  0  0  0  0  0
   -1.9421    3.7996   -5.7490 H   0  0  0  0  0  0  0  0  0  0  0  0
   -0.0121    5.1189   -9.2153 H   0  0  0  0  0  0  0  0  0  0  0  0
   -0.1800    5.0721   -7.4205 H   0  0  0  0  0  0  0  0  0  0  0  0
    1.0357    4.0083   -8.2478 H   0  0  0  0  0  0  0  0  0  0  0  0
    0.3805    0.8340   -7.8237 H   0  0  0  0  0  0  0  0  0  0  0  0
    0.9037   -0.2612   -5.6910 H   0  0  0  0  0  0  0  0  0  0  0  0
   -5.3265    0.0023    1.0058 H   0  0  0  0  0  0  0  0  0  0  0  0
   -4.6536   -1.0494    3.1239 H   0  0  0  0  0  0  0  0  0  0  0  0
   -2.5108   -4.1432    3.3434 H   0  0  0  0  0  0  0  0  0  0  0  0
   -2.9968   -2.6544    4.2268 H   0  0  0  0  0  0  0  0  0  0  0  0
   -4.2259   -3.9327    3.8674 H   0  0  0  0  0  0  0  0  0  0  0  0
   -2.8160   -4.2793    0.9369 H   0  0  0  0  0  0  0  0  0  0  0  0
   -3.4901   -3.2371   -1.1752 H   0  0  0  0  0  0  0  0  0  0  0  0
   -7.0966   -2.1878   -0.3548 H   0  0  0  0  0  0  0  0  0  0  0  0
   -9.4481   -1.5489   -0.6077 H   0  0  0  0  0  0  0  0  0  0  0  0
  -10.7148    1.3113   -1.3369 H   0  0  0  0  0  0  0  0  0  0  0  0
  -10.6753    0.8938   -3.0966 H   0  0  0  0  0  0  0  0  0  0  0  0
  -11.1510   -0.3513   -1.8923 H   0  0  0  0  0  0  0  0  0  0  0  0
   -8.2911    1.7176   -3.1725 H   0  0  0  0  0  0  0  0  0  0  0  0
   -5.9285    1.0919   -2.9050 H   0  0  0  0  0  0  0  0  0  0  0  0
   -4.2221   -1.0465   -7.1127 H   0  0  0  0  0  0  0  0  0  0  0  0
   -4.3052    0.2697   -9.1580 H   0  0  0  0  0  0  0  0  0  0  0  0
   -2.6714   -0.7653  -12.4050 H   0  0  0  0  0  0  0  0  0  0  0  0
   -2.3478    0.6740  -11.3598 H   0  0  0  0  0  0  0  0  0  0  0  0
   -4.0448    0.1686  -11.7187 H   0  0  0  0  0  0  0  0  0  0  0  0
   -1.7141   -2.5762  -11.1052 H   0  0  0  0  0  0  0  0  0  0  0  0
   -1.6598   -3.9267   -9.0726 H   0  0  0  0  0  0  0  0  0  0  0  0
   -2.5164   -5.9300   -5.9639 H   0  0  0  0  0  0  0  0  0  0  0  0
   -0.4521   -7.0062   -5.1740 H   0  0  0  0  0  0  0  0  0  0  0  0
    2.0369   -6.9723   -5.1063 H   0  0  0  0  0  0  0  0  0  0  0  0
    2.9297   -5.4377   -5.3865 H   0  0  0  0  0  0  0  0  0  0  0  0
    2.0728   -5.7069   -3.8165 H   0  0  0  0  0  0  0  0  0  0  0  0
    1.6947   -3.3210   -5.8191 H   0  0  0  0  0  0  0  0  0  0  0  0
   -0.3664   -2.2607   -6.6108 H   0  0  0  0  0  0  0  0  0  0  0  0
   -5.8370   -4.5383   -7.1787 H   0  0  0  0  0  0  0  0  0  0  0  0
   -4.1607   -9.0841   -2.8896 H   0  0  0  0  0  0  0  0  0  0  0  0
  1  2  2  3
  2  3  1  0
  3  4  2  0
  3  5  1  0
  5  6  2  0
  6  7  1  0
  7  8  1  0
  7  9  2  0
  9 10  1  0
  9 11  1  0
 11 12  2  0
 12 13  1  0
 13 14  2  3
 14 15  1  0
 15 16  3  0
 14 17  1  0
 17 18  3  0
  1 19  1  0
 19 20  2  0
 20 21  1  0
 21 22  1  0
 22 23  2  0
 23 24  1  0
 24 25  2  0
 25 26  1  0
 25 27  1  0
 27 28  2  0
 21 29  1  0
 29 30  2  0
 30 31  1  0
 31 32  2  0
 32 33  1  0
 32 34  1  0
 34 35  2  0
 20 36  1  0
 36 37  1  0
 37 38  1  0
 38 39  2  0
 39 40  1  0
 40 41  1  0
 41 42  2  0
 42 43  1  0
 43 44  2  0
 44 45  1  0
 44 46  1  0
 46 47  2  0
 40 48  1  0
 48 49  2  0
 49 50  1  0
 50 51  2  0
 51 52  1  0
 51 53  1  0
 53 54  2  0
 39 55  1  0
 55 56  1  0
 38 57  1  0
 57 58  2  0
 58 59  1  0
 59 60  1  0
 60 61  2  0
 61 62  1  0
 62 63  2  0
 63 64  1  0
 64 65  1  0
 63 66  1  0
 66 67  2  0
 59 68  1  0
 68 69  2  0
 69 70  1  0
 70 71  2  0
 71 72  1  0
 72 73  1  0
 71 74  1  0
 74 75  2  0
 58 76  1  0
 76 77  1  0
 77 78  1  0
 78 79  2  0
 79 80  1  0
 80 81  1  0
 81 82  2  0
 82 83  1  0
 83 84  2  0
 84 85  1  0
 85 86  1  0
 84 87  1  0
 87 88  2  0
 80 89  1  0
 89 90  2  0
 90 91  1  0
 91 92  2  0
 92 93  1  0
 93 94  1  0
 92 95  1  0
 95 96  2  0
 79 97  1  0
 97 98  1  0
 78 99  1  0
 99100  2  0
100101  1  0
101102  1  0
102103  2  0
103104  1  0
104105  2  0
105106  1  0
105107  1  0
107108  2  0
101109  1  0
109110  2  0
110111  1  0
111112  2  0
112113  1  0
112114  1  0
114115  2  0
100116  1  0
116117  1  0
117118  1  0
118119  2  0
119120  1  0
120121  1  0
121122  2  0
122123  1  0
123124  2  0
124125  1  0
124126  1  0
126127  2  0
120128  1  0
128129  2  0
129130  1  0
130131  2  0
131132  1  0
131133  1  0
133134  2  0
119135  1  0
135136  1  0
118137  1  0
137138  2  3
138139  1  0
139140  2  0
139141  1  0
141142  1  0
142143  2  0
143144  1  0
143145  1  0
145146  1  0
146147  1  0
147148  2  3
148149  1  0
149150  3  0
148151  1  0
151152  3  0
 13  2  1  0
 56 19  1  0
 98 57  1  0
136 99  1  0
147138  1  0
 12  5  1  0
 28 22  1  0
 35 29  1  0
 55 36  2  0
 67 60  1  0
 75 68  1  0
 97 76  2  0
108102  1  0
115109  1  0
135116  2  0
146141  2  0
 47 41  1  0
 54 48  1  0
 88 81  1  0
 96 89  1  0
127121  1  0
134128  1  0
  1153  1  0
  6154  1  0
  8155  1  0
  8156  1  0
  8157  1  0
 11158  1  0
 23159  1  0
 24160  1  0
 26161  1  0
 26162  1  0
 26163  1  0
 27164  1  0
 28165  1  0
 30166  1  0
 31167  1  0
 33168  1  0
 33169  1  0
 33170  1  0
 34171  1  0
 35172  1  0
 42173  1  0
 43174  1  0
 45175  1  0
 45176  1  0
 45177  1  0
 46178  1  0
 47179  1  0
 49180  1  0
 50181  1  0
 52182  1  0
 52183  1  0
 52184  1  0
 53185  1  0
 54186  1  0
 61187  1  0
 62188  1  0
 65189  1  0
 65190  1  0
 65191  1  0
 66192  1  0
 67193  1  0
 69194  1  0
 70195  1  0
 73196  1  0
 73197  1  0
 73198  1  0
 74199  1  0
 75200  1  0
 82201  1  0
 83202  1  0
 86203  1  0
 86204  1  0
 86205  1  0
 87206  1  0
 88207  1  0
 90208  1  0
 91209  1  0
 94210  1  0
 94211  1  0
 94212  1  0
 95213  1  0
 96214  1  0
103215  1  0
104216  1  0
106217  1  0
106218  1  0
106219  1  0
107220  1  0
108221  1  0
110222  1  0
111223  1  0
113224  1  0
113225  1  0
113226  1  0
114227  1  0
115228  1  0
122229  1  0
123230  1  0
125231  1  0
125232  1  0
125233  1  0
126234  1  0
127235  1  0
129236  1  0
130237  1  0
132238  1  0
132239  1  0
132240  1  0
133241  1  0
134242  1  0
137243  1  0
142244  1  0
M  END

