
     RDKit          3D

153166  0  0  0  0  0  0  0  0999 V2000
   -3.8602   -4.3803    4.1162 C   0  0  0  0  0  0  0  0  0  0  0  0
   -4.0957   -5.0062    2.9416 C   0  0  0  0  0  0  0  0  0  0  0  0
   -3.7246   -4.4916    1.6119 C   0  0  0  0  0  0  0  0  0  0  0  0
   -2.7901   -3.6835    1.3527 O   0  0  0  0  0  0  0  0  0  0  0  0
   -4.5774   -5.1202    0.6259 C   0  0  0  0  0  0  0  0  0  0  0  0
   -4.7214   -4.7894   -0.7185 C   0  0  0  0  0  0  0  0  0  0  0  0
   -5.7100   -5.4495   -1.4691 C   0  0  0  0  0  0  0  0  0  0  0  0
   -5.9419   -5.0559   -2.8986 C   0  0  0  0  0  0  0  0  0  0  0  0
   -6.5543   -6.3966   -0.8435 C   0  0  0  0  0  0  0  0  0  0  0  0
   -7.5541   -6.9906   -1.5470 F   0  0  0  0  0  0  0  0  0  0  0  0
   -6.3853   -6.7098    0.5144 C   0  0  0  0  0  0  0  0  0  0  0  0
   -5.3705   -6.0712    1.2451 C   0  0  0  0  0  0  0  0  0  0  0  0
   -5.0251   -6.1475    2.6961 C   0  0  0  0  0  0  0  0  0  0  0  0
   -5.3262   -7.1527    3.5562 C   0  0  0  0  0  0  0  0  0  0  0  0
   -6.1345   -8.2784    3.1690 C   0  0  0  0  0  0  0  0  0  0  0  0
   -6.7721   -9.1932    2.8603 N   0  0  0  0  0  0  0  0  0  0  0  0
   -4.7328   -7.2505    4.8683 C   0  0  0  0  0  0  0  0  0  0  0  0
   -4.2731   -7.3429    5.9272 N   0  0  0  0  0  0  0  0  0  0  0  0
   -3.2153   -3.0486    4.1978 C   0  0  0  0  0  0  0  0  0  0  0  0
   -3.7435   -1.9558    3.4982 C   0  0  0  0  0  0  0  0  0  0  0  0
   -4.9875   -2.0804    2.8768 O   0  0  0  0  0  0  0  0  0  0  0  0
   -6.0806   -1.2060    3.1483 C   0  0  0  0  0  0  0  0  0  0  0  0
   -3.0063   -0.7739    3.3992 C   0  0  0  0  0  0  0  0  0  0  0  0
   -3.4854    0.1950    2.5823 F   0  0  0  0  0  0  0  0  0  0  0  0
   -1.7663   -0.6291    4.0792 C   0  0  0  0  0  0  0  0  0  0  0  0
   -1.4210   -1.6163    5.0302 C   0  0  0  0  0  0  0  0  0  0  0  0
   -0.4165   -1.3342    5.9702 O   0  0  0  0  0  0  0  0  0  0  0  0
   -0.3817   -1.8451    7.3019 C   0  0  0  0  0  0  0  0  0  0  0  0
   -2.1047   -2.8551    5.0284 C   0  0  0  0  0  0  0  0  0  0  0  0
   -1.6548   -3.8938    5.7779 F   0  0  0  0  0  0  0  0  0  0  0  0
   -0.8420    0.5114    3.7392 C   0  0  0  0  0  0  0  0  0  0  0  0
    0.5716    0.5712    3.8442 C   0  0  0  0  0  0  0  0  0  0  0  0
    1.4148   -0.5403    4.1836 N   0  0  0  0  0  0  0  0  0  0  0  0
    1.4263   -1.7068    3.3298 C   0  0  0  0  0  0  0  0  0  0  0  0
    1.2026   -1.5918    1.9407 C   0  0  0  0  0  0  0  0  0  0  0  0
    1.3123   -2.7153    1.1104 C   0  0  0  0  0  0  0  0  0  0  0  0
    1.6203   -3.9637    1.6551 C   0  0  0  0  0  0  0  0  0  0  0  0
    1.8341   -5.3822    0.5787 S   0  0  0  0  0  0  0  0  0  0  0  0
    0.0927   -5.8900    0.6771 C   0  0  0  0  0  0  0  0  0  0  0  0
    1.8083   -4.0899    3.0376 C   0  0  0  0  0  0  0  0  0  0  0  0
    1.6944   -2.9744    3.8713 C   0  0  0  0  0  0  0  0  0  0  0  0
    2.4556   -0.3322    5.1599 C   0  0  0  0  0  0  0  0  0  0  0  0
    3.7672   -0.7747    4.9151 C   0  0  0  0  0  0  0  0  0  0  0  0
    4.7721   -0.5654    5.8685 C   0  0  0  0  0  0  0  0  0  0  0  0
    4.4715    0.0766    7.0773 C   0  0  0  0  0  0  0  0  0  0  0  0
    5.7355    0.2697    8.3465 S   0  0  0  0  0  0  0  0  0  0  0  0
    6.1963    1.9571    7.8613 C   0  0  0  0  0  0  0  0  0  0  0  0
    3.1784    0.5515    7.3077 C   0  0  0  0  0  0  0  0  0  0  0  0
    2.1818    0.3697    6.3483 C   0  0  0  0  0  0  0  0  0  0  0  0
    1.1102    1.6740    3.1605 C   0  0  0  0  0  0  0  0  0  0  0  0
    2.6383    1.8901    2.5427 S   0  0  0  0  0  0  0  0  0  0  0  0
    2.1951    2.9273    1.2794 C   0  0  0  0  0  0  0  0  0  0  0  0
    0.7779    3.0892    1.3093 C   0  0  0  0  0  0  0  0  0  0  0  0
   -0.0560    3.6538    0.2574 N   0  0  0  0  0  0  0  0  0  0  0  0
   -1.4456    3.9559    0.4956 C   0  0  0  0  0  0  0  0  0  0  0  0
   -2.4420    3.3167   -0.2640 C   0  0  0  0  0  0  0  0  0  0  0  0
   -3.7913    3.5310    0.0207 C   0  0  0  0  0  0  0  0  0  0  0  0
   -4.1604    4.3873    1.0629 C   0  0  0  0  0  0  0  0  0  0  0  0
   -5.8970    4.6330    1.4370 S   0  0  0  0  0  0  0  0  0  0  0  0
   -5.9637    3.2261    2.5935 C   0  0  0  0  0  0  0  0  0  0  0  0
   -3.1781    5.0540    1.8011 C   0  0  0  0  0  0  0  0  0  0  0  0
   -1.8223    4.8519    1.5105 C   0  0  0  0  0  0  0  0  0  0  0  0
    0.4108    3.8701   -1.0731 C   0  0  0  0  0  0  0  0  0  0  0  0
    0.5355    5.1772   -1.5649 C   0  0  0  0  0  0  0  0  0  0  0  0
    0.9989    5.3999   -2.8583 C   0  0  0  0  0  0  0  0  0  0  0  0
    1.3178    4.3193   -3.6871 C   0  0  0  0  0  0  0  0  0  0  0  0
    1.9927    4.6300   -5.2987 S   0  0  0  0  0  0  0  0  0  0  0  0
    0.4020    4.4795   -6.1605 C   0  0  0  0  0  0  0  0  0  0  0  0
    1.1536    3.0094   -3.2104 C   0  0  0  0  0  0  0  0  0  0  0  0
    0.6959    2.7851   -1.9087 C   0  0  0  0  0  0  0  0  0  0  0  0
    0.2360    2.4147    2.4270 C   0  0  0  0  0  0  0  0  0  0  0  0
   -1.2910    1.8052    2.7255 S   0  0  0  0  0  0  0  0  0  0  0  0
    3.0839    3.0479    0.1034 C   0  0  0  0  0  0  0  0  0  0  0  0
    3.5437    1.8647   -0.5046 C   0  0  0  0  0  0  0  0  0  0  0  0
    4.2622    1.9534   -1.6893 C   0  0  0  0  0  0  0  0  0  0  0  0
    4.5938    0.8861   -2.6161 C   0  0  0  0  0  0  0  0  0  0  0  0
    4.4037   -0.3484   -2.4382 O   0  0  0  0  0  0  0  0  0  0  0  0
    5.0399    1.5266   -3.8378 C   0  0  0  0  0  0  0  0  0  0  0  0
    5.0395    2.9014   -3.6504 C   0  0  0  0  0  0  0  0  0  0  0  0
    4.5425    3.1716   -2.2864 C   0  0  0  0  0  0  0  0  0  0  0  0
    4.1567    4.3678   -1.6735 C   0  0  0  0  0  0  0  0  0  0  0  0
    3.4385    4.3016   -0.4579 C   0  0  0  0  0  0  0  0  0  0  0  0
    5.2677    3.7653   -4.7253 C   0  0  0  0  0  0  0  0  0  0  0  0
    5.4640    3.2079   -6.0059 C   0  0  0  0  0  0  0  0  0  0  0  0
    5.4159    1.8069   -6.1872 C   0  0  0  0  0  0  0  0  0  0  0  0
    5.2372    0.9547   -5.0828 C   0  0  0  0  0  0  0  0  0  0  0  0
    5.4160    1.1777   -7.5221 C   0  0  0  0  0  0  0  0  0  0  0  0
    4.2455    0.8700   -8.1215 C   0  0  0  0  0  0  0  0  0  0  0  0
    2.9646    1.4610   -7.7515 C   0  0  0  0  0  0  0  0  0  0  0  0
    2.7778    2.6656   -7.4417 O   0  0  0  0  0  0  0  0  0  0  0  0
    1.9336    0.4552   -7.8879 C   0  0  0  0  0  0  0  0  0  0  0  0
    0.5998    0.5275   -7.4863 C   0  0  0  0  0  0  0  0  0  0  0  0
   -0.1962   -0.6295   -7.5780 C   0  0  0  0  0  0  0  0  0  0  0  0
   -1.4955   -0.5926   -7.2009 F   0  0  0  0  0  0  0  0  0  0  0  0
    0.3654   -1.8337   -8.0370 C   0  0  0  0  0  0  0  0  0  0  0  0
   -0.3902   -2.9595   -8.0780 F   0  0  0  0  0  0  0  0  0  0  0  0
    1.7131   -1.8829   -8.4454 C   0  0  0  0  0  0  0  0  0  0  0  0
    2.4887   -0.7103   -8.3883 C   0  0  0  0  0  0  0  0  0  0  0  0
    3.9241   -0.4662   -8.7041 C   0  0  0  0  0  0  0  0  0  0  0  0
    4.7281   -1.2153   -9.4968 C   0  0  0  0  0  0  0  0  0  0  0  0
    5.9916   -0.7182   -9.9781 C   0  0  0  0  0  0  0  0  0  0  0  0
    7.0053   -0.3164  -10.3730 N   0  0  0  0  0  0  0  0  0  0  0  0
    4.3204   -2.5115   -9.9917 C   0  0  0  0  0  0  0  0  0  0  0  0
    4.0080   -3.5617  -10.3828 N   0  0  0  0  0  0  0  0  0  0  0  0
   -4.2134   -4.7861    5.0466 H   0  0  0  0  0  0  0  0  0  0  0  0
   -4.1067   -4.0133   -1.1542 H   0  0  0  0  0  0  0  0  0  0  0  0
   -6.2395   -5.9366   -3.5034 H   0  0  0  0  0  0  0  0  0  0  0  0
   -5.0215   -4.6276   -3.3530 H   0  0  0  0  0  0  0  0  0  0  0  0
   -6.7481   -4.2941   -2.9457 H   0  0  0  0  0  0  0  0  0  0  0  0
   -7.0815   -7.3901    0.9772 H   0  0  0  0  0  0  0  0  0  0  0  0
   -5.8565   -0.1711    2.8088 H   0  0  0  0  0  0  0  0  0  0  0  0
   -6.3067   -1.2084    4.2386 H   0  0  0  0  0  0  0  0  0  0  0  0
   -6.9804   -1.5536    2.5943 H   0  0  0  0  0  0  0  0  0  0  0  0
    0.4464   -1.3673    7.8645 H   0  0  0  0  0  0  0  0  0  0  0  0
   -0.2069   -2.9444    7.3105 H   0  0  0  0  0  0  0  0  0  0  0  0
   -1.3462   -1.6406    7.8185 H   0  0  0  0  0  0  0  0  0  0  0  0
    0.9884   -0.6354    1.4850 H   0  0  0  0  0  0  0  0  0  0  0  0
    1.1767   -2.6017    0.0433 H   0  0  0  0  0  0  0  0  0  0  0  0
   -0.0558   -6.7949    0.0595 H   0  0  0  0  0  0  0  0  0  0  0  0
   -0.5678   -5.0795    0.2880 H   0  0  0  0  0  0  0  0  0  0  0  0
   -0.1834   -6.1282    1.7286 H   0  0  0  0  0  0  0  0  0  0  0  0
    2.0543   -5.0526    3.4667 H   0  0  0  0  0  0  0  0  0  0  0  0
    1.8343   -3.0842    4.9329 H   0  0  0  0  0  0  0  0  0  0  0  0
    4.0224   -1.2479    3.9827 H   0  0  0  0  0  0  0  0  0  0  0  0
    5.7784   -0.8967    5.6605 H   0  0  0  0  0  0  0  0  0  0  0  0
    6.9347    2.3493    8.5914 H   0  0  0  0  0  0  0  0  0  0  0  0
    6.6623    1.9228    6.8517 H   0  0  0  0  0  0  0  0  0  0  0  0
    5.3074    2.6347    7.8462 H   0  0  0  0  0  0  0  0  0  0  0  0
    2.9582    1.0854    8.2250 H   0  0  0  0  0  0  0  0  0  0  0  0
    1.1900    0.7681    6.5397 H   0  0  0  0  0  0  0  0  0  0  0  0
   -2.1660    2.6273   -1.0495 H   0  0  0  0  0  0  0  0  0  0  0  0
   -4.5492    3.0205   -0.5639 H   0  0  0  0  0  0  0  0  0  0  0  0
   -7.0215    3.0280    2.8777 H   0  0  0  0  0  0  0  0  0  0  0  0
   -5.3793    3.4624    3.5063 H   0  0  0  0  0  0  0  0  0  0  0  0
   -5.5442    2.3067    2.1350 H   0  0  0  0  0  0  0  0  0  0  0  0
   -3.4564    5.7340    2.5958 H   0  0  0  0  0  0  0  0  0  0  0  0
   -1.0651    5.3592    2.0936 H   0  0  0  0  0  0  0  0  0  0  0  0
    0.3039    6.0240   -0.9268 H   0  0  0  0  0  0  0  0  0  0  0  0
    1.1236    6.4124   -3.2148 H   0  0  0  0  0  0  0  0  0  0  0  0
   -0.0704    3.5082   -5.9174 H   0  0  0  0  0  0  0  0  0  0  0  0
   -0.2790    5.2989   -5.8492 H   0  0  0  0  0  0  0  0  0  0  0  0
    0.5694    4.5476   -7.2564 H   0  0  0  0  0  0  0  0  0  0  0  0
    1.4000    2.1647   -3.8353 H   0  0  0  0  0  0  0  0  0  0  0  0
    0.5752    1.7682   -1.5468 H   0  0  0  0  0  0  0  0  0  0  0  0
    3.2699    0.8969   -0.1169 H   0  0  0  0  0  0  0  0  0  0  0  0
    4.3425    5.3224   -2.1487 H   0  0  0  0  0  0  0  0  0  0  0  0
    3.0906    5.2206    0.0008 H   0  0  0  0  0  0  0  0  0  0  0  0
    5.2265    4.8387   -4.6063 H   0  0  0  0  0  0  0  0  0  0  0  0
    5.5753    3.8602   -6.8631 H   0  0  0  0  0  0  0  0  0  0  0  0
    5.1711   -0.1208   -5.2052 H   0  0  0  0  0  0  0  0  0  0  0  0
    6.2705    0.5476   -7.7289 H   0  0  0  0  0  0  0  0  0  0  0  0
    0.1894    1.4541   -7.0955 H   0  0  0  0  0  0  0  0  0  0  0  0
    2.1293   -2.8297   -8.7456 H   0  0  0  0  0  0  0  0  0  0  0  0
  1  2  2  3
  2  3  1  0
  3  4  2  0
  3  5  1  0
  5  6  2  0
  6  7  1  0
  7  8  1  0
  7  9  2  0
  9 10  1  0
  9 11  1  0
 11 12  2  0
 12 13  1  0
 13 14  2  3
 14 15  1  0
 15 16  3  0
 14 17  1  0
 17 18  3  0
  1 19  1  0
 19 20  2  0
 20 21  1  0
 21 22  1  0
 20 23  1  0
 23 24  1  0
 23 25  2  0
 25 26  1  0
 26 27  1  0
 27 28  1  0
 26 29  2  0
 29 30  1  0
 25 31  1  0
 31 32  2  0
 32 33  1  0
 33 34  1  0
 34 35  2  0
 35 36  1  0
 36 37  2  0
 37 38  1  0
 38 39  1  0
 37 40  1  0
 40 41  2  0
 33 42  1  0
 42 43  2  0
 43 44  1  0
 44 45  2  0
 45 46  1  0
 46 47  1  0
 45 48  1  0
 48 49  2  0
 32 50  1  0
 50 51  1  0
 51 52  1  0
 52 53  2  0
 53 54  1  0
 54 55  1  0
 55 56  2  0
 56 57  1  0
 57 58  2  0
 58 59  1  0
 59 60  1  0
 58 61  1  0
 61 62  2  0
 54 63  1  0
 63 64  2  0
 64 65  1  0
 65 66  2  0
 66 67  1  0
 67 68  1  0
 66 69  1  0
 69 70  2  0
 53 71  1  0
 71 72  1  0
 52 73  1  0
 73 74  2  0
 74 75  1  0
 75 76  1  0
 76 77  2  0
 76 78  1  0
 78 79  2  0
 79 80  1  0
 80 81  1  0
 81 82  2  0
 79 83  1  0
 83 84  2  0
 84 85  1  0
 85 86  2  0
 85 87  1  0
 87 88  2  3
 88 89  1  0
 89 90  2  0
 89 91  1  0
 91 92  2  0
 92 93  1  0
 93 94  1  0
 93 95  2  0
 95 96  1  0
 95 97  1  0
 97 98  2  0
 98 99  1  0
 99100  2  3
100101  1  0
101102  3  0
100103  1  0
103104  3  0
 13  2  1  0
 29 19  1  0
 72 31  1  0
 82 73  1  0
 99 88  1  0
 12  5  1  0
 41 34  1  0
 49 42  1  0
 71 50  2  0
 80 75  2  0
 98 91  1  0
 62 55  1  0
 70 63  1  0
 86 78  1  0
  1105  1  0
  6106  1  0
  8107  1  0
  8108  1  0
  8109  1  0
 11110  1  0
 22111  1  0
 22112  1  0
 22113  1  0
 28114  1  0
 28115  1  0
 28116  1  0
 35117  1  0
 36118  1  0
 39119  1  0
 39120  1  0
 39121  1  0
 40122  1  0
 41123  1  0
 43124  1  0
 44125  1  0
 47126  1  0
 47127  1  0
 47128  1  0
 48129  1  0
 49130  1  0
 56131  1  0
 57132  1  0
 60133  1  0
 60134  1  0
 60135  1  0
 61136  1  0
 62137  1  0
 64138  1  0
 65139  1  0
 68140  1  0
 68141  1  0
 68142  1  0
 69143  1  0
 70144  1  0
 74145  1  0
 81146  1  0
 82147  1  0
 83148  1  0
 84149  1  0
 86150  1  0
 87151  1  0
 92152  1  0
 97153  1  0
M  END

