
     RDKit          3D

169186  0  0  0  0  0  0  0  0999 V2000
    5.1539   -5.1036    4.0068 C   0  0  0  0  0  0  0  0  0  0  0  0
    6.0351   -4.6813    3.0752 C   0  0  0  0  0  0  0  0  0  0  0  0
    5.6836   -4.0595    1.7896 C   0  0  0  0  0  0  0  0  0  0  0  0
    4.5550   -3.6208    1.4456 O   0  0  0  0  0  0  0  0  0  0  0  0
    6.8690   -3.9948    0.9698 C   0  0  0  0  0  0  0  0  0  0  0  0
    6.9743   -3.5545   -0.3486 C   0  0  0  0  0  0  0  0  0  0  0  0
    8.2255   -3.6082   -0.9800 C   0  0  0  0  0  0  0  0  0  0  0  0
    8.3801   -3.1454   -2.3995 C   0  0  0  0  0  0  0  0  0  0  0  0
    9.3361   -4.1261   -0.2815 C   0  0  0  0  0  0  0  0  0  0  0  0
   10.5479   -4.2023   -0.8852 F   0  0  0  0  0  0  0  0  0  0  0  0
    9.2032   -4.5719    1.0440 C   0  0  0  0  0  0  0  0  0  0  0  0
    7.9528   -4.4823    1.6769 C   0  0  0  0  0  0  0  0  0  0  0  0
    7.5272   -4.8563    3.0592 C   0  0  0  0  0  0  0  0  0  0  0  0
    8.3419   -5.1016    4.1210 C   0  0  0  0  0  0  0  0  0  0  0  0
    7.8500   -5.2249    5.4685 C   0  0  0  0  0  0  0  0  0  0  0  0
    7.4676   -5.3207    6.5558 N   0  0  0  0  0  0  0  0  0  0  0  0
    9.7772   -5.1470    4.0138 C   0  0  0  0  0  0  0  0  0  0  0  0
   10.9332   -5.1845    3.9472 N   0  0  0  0  0  0  0  0  0  0  0  0
    3.7045   -4.9247    3.8707 C   0  0  0  0  0  0  0  0  0  0  0  0
    2.9102   -5.5142    2.8957 C   0  0  0  0  0  0  0  0  0  0  0  0
    1.6147   -4.9745    2.8532 C   0  0  0  0  0  0  0  0  0  0  0  0
    0.6260   -5.2807    1.9018 C   0  0  0  0  0  0  0  0  0  0  0  0
    0.8956   -6.1630    0.7532 C   0  0  0  0  0  0  0  0  0  0  0  0
    2.0416   -5.8431   -0.4349 S   0  0  0  0  0  0  0  0  0  0  0  0
    1.6262   -7.1277   -1.4332 C   0  0  0  0  0  0  0  0  0  0  0  0
    2.3578   -7.4857   -2.6893 C   0  0  0  0  0  0  0  0  0  0  0  0
    3.5711   -8.3500   -2.3748 C   0  0  0  0  0  0  0  0  0  0  0  0
    0.5745   -7.8322   -0.8476 C   0  0  0  0  0  0  0  0  0  0  0  0
   -0.1542   -9.2623   -1.5590 Cl  0  0  0  0  0  0  0  0  0  0  0  0
    0.1503   -7.2768    0.3690 C   0  0  0  0  0  0  0  0  0  0  0  0
   -1.1724   -7.9352    1.3208 Cl  0  0  0  0  0  0  0  0  0  0  0  0
   -0.5537   -4.5255    1.9460 C   0  0  0  0  0  0  0  0  0  0  0  0
   -0.7606   -3.5006    2.8728 C   0  0  0  0  0  0  0  0  0  0  0  0
    0.2059   -3.2263    3.8653 C   0  0  0  0  0  0  0  0  0  0  0  0
    0.0206   -2.1343    4.8447 C   0  0  0  0  0  0  0  0  0  0  0  0
   -1.1186   -1.9220    5.6185 C   0  0  0  0  0  0  0  0  0  0  0  0
   -1.0259   -0.7969    6.4472 C   0  0  0  0  0  0  0  0  0  0  0  0
    0.1863   -0.1284    6.3295 C   0  0  0  0  0  0  0  0  0  0  0  0
    0.5678    1.1265    7.0529 C   0  0  0  0  0  0  0  0  0  0  0  0
   -0.0381    2.3498    6.3703 C   0  0  0  0  0  0  0  0  0  0  0  0
    1.1294   -0.9086    5.1771 S   0  0  0  0  0  0  0  0  0  0  0  0
    1.3952   -3.9829    3.8174 C   0  0  0  0  0  0  0  0  0  0  0  0
    2.8059   -3.7773    4.7154 S   0  0  0  0  0  0  0  0  0  0  0  0
   -1.8489   -2.6741    2.5336 C   0  0  0  0  0  0  0  0  0  0  0  0
   -2.4690   -3.0220    1.3279 C   0  0  0  0  0  0  0  0  0  0  0  0
   -1.7031   -4.3959    0.7366 S   0  0  0  0  0  0  0  0  0  0  0  0
   -3.1938   -2.0388    0.4993 C   0  0  0  0  0  0  0  0  0  0  0  0
   -2.7288   -1.5881   -0.7557 C   0  0  0  0  0  0  0  0  0  0  0  0
   -1.9978   -2.3963   -1.7086 N   0  0  0  0  0  0  0  0  0  0  0  0
   -2.5529   -3.6517   -2.1648 C   0  0  0  0  0  0  0  0  0  0  0  0
   -3.9459   -3.8431   -2.2367 C   0  0  0  0  0  0  0  0  0  0  0  0
   -4.4697   -5.0910   -2.5886 C   0  0  0  0  0  0  0  0  0  0  0  0
   -3.6128   -6.1604   -2.8706 C   0  0  0  0  0  0  0  0  0  0  0  0
   -4.2915   -7.7708   -3.2721 S   0  0  0  0  0  0  0  0  0  0  0  0
   -4.1376   -7.5193   -5.0649 C   0  0  0  0  0  0  0  0  0  0  0  0
   -2.2282   -5.9755   -2.8197 C   0  0  0  0  0  0  0  0  0  0  0  0
   -1.6993   -4.7272   -2.4824 C   0  0  0  0  0  0  0  0  0  0  0  0
   -0.8331   -1.8580   -2.3617 C   0  0  0  0  0  0  0  0  0  0  0  0
   -0.7811   -1.7880   -3.7637 C   0  0  0  0  0  0  0  0  0  0  0  0
    0.3064   -1.1880   -4.4010 C   0  0  0  0  0  0  0  0  0  0  0  0
    1.3540   -0.6506   -3.6447 C   0  0  0  0  0  0  0  0  0  0  0  0
    2.7288    0.1570   -4.4702 S   0  0  0  0  0  0  0  0  0  0  0  0
    1.9119    1.7834   -4.4898 C   0  0  0  0  0  0  0  0  0  0  0  0
    1.3219   -0.7399   -2.2488 C   0  0  0  0  0  0  0  0  0  0  0  0
    0.2317   -1.3423   -1.6051 C   0  0  0  0  0  0  0  0  0  0  0  0
   -3.0378   -0.2342   -0.9597 C   0  0  0  0  0  0  0  0  0  0  0  0
   -2.2412    0.9646   -1.8203 S   0  0  0  0  0  0  0  0  0  0  0  0
   -2.8668    2.2627   -0.9234 C   0  0  0  0  0  0  0  0  0  0  0  0
   -3.7774    1.7567    0.0333 C   0  0  0  0  0  0  0  0  0  0  0  0
   -4.5331    2.5585    0.9803 N   0  0  0  0  0  0  0  0  0  0  0  0
   -5.5564    1.9455    1.7792 C   0  0  0  0  0  0  0  0  0  0  0  0
   -6.7256    1.4638    1.1686 C   0  0  0  0  0  0  0  0  0  0  0  0
   -7.6876    0.7911    1.9272 C   0  0  0  0  0  0  0  0  0  0  0  0
   -7.4915    0.6076    3.3022 C   0  0  0  0  0  0  0  0  0  0  0  0
   -8.7301   -0.2552    4.2739 S   0  0  0  0  0  0  0  0  0  0  0  0
   -7.9663   -1.8887    4.0321 C   0  0  0  0  0  0  0  0  0  0  0  0
   -6.3369    1.1062    3.9163 C   0  0  0  0  0  0  0  0  0  0  0  0
   -5.3722    1.7749    3.1595 C   0  0  0  0  0  0  0  0  0  0  0  0
   -4.5815    3.9910    0.8710 C   0  0  0  0  0  0  0  0  0  0  0  0
   -5.0465    4.5997   -0.3083 C   0  0  0  0  0  0  0  0  0  0  0  0
   -5.0255    5.9922   -0.4378 C   0  0  0  0  0  0  0  0  0  0  0  0
   -4.5580    6.7853    0.6165 C   0  0  0  0  0  0  0  0  0  0  0  0
   -4.5157    8.5708    0.4448 S   0  0  0  0  0  0  0  0  0  0  0  0
   -6.2056    8.7850    1.0901 C   0  0  0  0  0  0  0  0  0  0  0  0
   -4.1247    6.1847    1.8036 C   0  0  0  0  0  0  0  0  0  0  0  0
   -4.1444    4.7948    1.9338 C   0  0  0  0  0  0  0  0  0  0  0  0
   -3.7927    0.3526    0.0095 C   0  0  0  0  0  0  0  0  0  0  0  0
   -4.0494   -0.7643    1.2291 S   0  0  0  0  0  0  0  0  0  0  0  0
   -2.0934    3.5109   -0.7815 C   0  0  0  0  0  0  0  0  0  0  0  0
   -1.4172    3.7907    0.4196 C   0  0  0  0  0  0  0  0  0  0  0  0
   -0.6505    4.9657    0.5781 C   0  0  0  0  0  0  0  0  0  0  0  0
   -0.0299    5.1086    1.8623 N   0  0  0  0  0  0  0  0  0  0  0  0
   -0.5134    3.7641    2.5719 S   0  0  0  0  0  4  0  0  0  0  0  0
   -1.4270    2.9293    1.5674 N   0  0  0  0  0  0  0  0  0  0  0  0
   -0.4712    5.8684   -0.4790 C   0  0  0  0  0  0  0  0  0  0  0  0
   -1.1414    5.5991   -1.6926 C   0  0  0  0  0  0  0  0  0  0  0  0
   -1.0976    6.4312   -2.7662 N   0  0  0  0  0  0  0  0  0  0  0  0
   -2.0459    5.6081   -3.8375 S   0  0  0  0  0  0  0  0  0  0  0  0
   -2.5448    4.2460   -3.0483 N   0  0  0  0  0  0  0  0  0  0  0  0
   -1.9397    4.4154   -1.8442 C   0  0  0  0  0  0  0  0  0  0  0  0
    0.3341    7.0887   -0.2610 C   0  0  0  0  0  0  0  0  0  0  0  0
    1.2900    7.5609   -1.0830 C   0  0  0  0  0  0  0  0  0  0  0  0
    1.7625    8.9466   -1.0182 C   0  0  0  0  0  0  0  0  0  0  0  0
    1.5819    9.7480   -0.0630 O   0  0  0  0  0  0  0  0  0  0  0  0
    2.3919    9.2697   -2.2806 C   0  0  0  0  0  0  0  0  0  0  0  0
    2.8504   10.5062   -2.7325 C   0  0  0  0  0  0  0  0  0  0  0  0
    3.3274   10.6010   -4.0475 C   0  0  0  0  0  0  0  0  0  0  0  0
    3.7866   11.7890   -4.5151 F   0  0  0  0  0  0  0  0  0  0  0  0
    3.2986    9.4761   -4.8943 C   0  0  0  0  0  0  0  0  0  0  0  0
    3.7119    9.5858   -6.1808 F   0  0  0  0  0  0  0  0  0  0  0  0
    2.8147    8.2433   -4.4215 C   0  0  0  0  0  0  0  0  0  0  0  0
    2.3963    8.1453   -3.0876 C   0  0  0  0  0  0  0  0  0  0  0  0
    1.8640    6.9778   -2.3352 C   0  0  0  0  0  0  0  0  0  0  0  0
    2.2456    5.6895   -2.5268 C   0  0  0  0  0  0  0  0  0  0  0  0
    3.0553    5.2960   -3.6517 C   0  0  0  0  0  0  0  0  0  0  0  0
    3.7221    4.9735   -4.5387 N   0  0  0  0  0  0  0  0  0  0  0  0
    2.0918    4.6824   -1.5070 C   0  0  0  0  0  0  0  0  0  0  0  0
    1.9942    3.8637   -0.6976 N   0  0  0  0  0  0  0  0  0  0  0  0
    5.4746   -5.6127    4.8988 H   0  0  0  0  0  0  0  0  0  0  0  0
    6.1013   -3.1850   -0.8692 H   0  0  0  0  0  0  0  0  0  0  0  0
    8.6543   -4.0061   -3.0445 H   0  0  0  0  0  0  0  0  0  0  0  0
    7.4367   -2.7034   -2.7874 H   0  0  0  0  0  0  0  0  0  0  0  0
    9.1777   -2.3767   -2.4572 H   0  0  0  0  0  0  0  0  0  0  0  0
   10.0708   -4.9929    1.5192 H   0  0  0  0  0  0  0  0  0  0  0  0
    3.2851   -6.2591    2.2076 H   0  0  0  0  0  0  0  0  0  0  0  0
    1.6859   -8.0276   -3.3925 H   0  0  0  0  0  0  0  0  0  0  0  0
    2.6880   -6.5556   -3.1949 H   0  0  0  0  0  0  0  0  0  0  0  0
    4.2669   -7.8107   -1.6942 H   0  0  0  0  0  0  0  0  0  0  0  0
    4.1138   -8.5964   -3.3133 H   0  0  0  0  0  0  0  0  0  0  0  0
    3.2531   -9.2981   -1.8927 H   0  0  0  0  0  0  0  0  0  0  0  0
   -1.9961   -2.5547    5.5772 H   0  0  0  0  0  0  0  0  0  0  0  0
   -1.8223   -0.4801    7.1069 H   0  0  0  0  0  0  0  0  0  0  0  0
    1.6724    1.2261    7.0679 H   0  0  0  0  0  0  0  0  0  0  0  0
    0.2093    1.0743    8.1034 H   0  0  0  0  0  0  0  0  0  0  0  0
    0.3321    2.4268    5.3236 H   0  0  0  0  0  0  0  0  0  0  0  0
   -1.1452    2.2779    6.3710 H   0  0  0  0  0  0  0  0  0  0  0  0
    0.2578    3.2671    6.9211 H   0  0  0  0  0  0  0  0  0  0  0  0
   -2.0643   -1.7463    3.0453 H   0  0  0  0  0  0  0  0  0  0  0  0
   -4.6273   -3.0323   -2.0079 H   0  0  0  0  0  0  0  0  0  0  0  0
   -5.5441   -5.2290   -2.6337 H   0  0  0  0  0  0  0  0  0  0  0  0
   -4.6127   -6.5615   -5.3614 H   0  0  0  0  0  0  0  0  0  0  0  0
   -3.0665   -7.5104   -5.3458 H   0  0  0  0  0  0  0  0  0  0  0  0
   -4.6402   -8.3565   -5.5939 H   0  0  0  0  0  0  0  0  0  0  0  0
   -1.5575   -6.7996   -3.0333 H   0  0  0  0  0  0  0  0  0  0  0  0
   -0.6244   -4.6141   -2.4115 H   0  0  0  0  0  0  0  0  0  0  0  0
   -1.5997   -2.1739   -4.3614 H   0  0  0  0  0  0  0  0  0  0  0  0
    0.3209   -1.1157   -5.4816 H   0  0  0  0  0  0  0  0  0  0  0  0
    0.9340    1.7163   -5.0094 H   0  0  0  0  0  0  0  0  0  0  0  0
    2.5534    2.5032   -5.0336 H   0  0  0  0  0  0  0  0  0  0  0  0
    1.7624    2.1446   -3.4525 H   0  0  0  0  0  0  0  0  0  0  0  0
    2.1305   -0.3279   -1.6581 H   0  0  0  0  0  0  0  0  0  0  0  0
    0.2099   -1.3962   -0.5250 H   0  0  0  0  0  0  0  0  0  0  0  0
   -6.8720    1.5920    0.1020 H   0  0  0  0  0  0  0  0  0  0  0  0
   -8.5812    0.4171    1.4440 H   0  0  0  0  0  0  0  0  0  0  0  0
   -7.9941   -2.1707    2.9604 H   0  0  0  0  0  0  0  0  0  0  0  0
   -6.9161   -1.8739    4.3864 H   0  0  0  0  0  0  0  0  0  0  0  0
   -8.5311   -2.6424    4.6156 H   0  0  0  0  0  0  0  0  0  0  0  0
   -6.1787    0.9575    4.9784 H   0  0  0  0  0  0  0  0  0  0  0  0
   -4.4625    2.1249    3.6346 H   0  0  0  0  0  0  0  0  0  0  0  0
   -5.3994    3.9914   -1.1323 H   0  0  0  0  0  0  0  0  0  0  0  0
   -5.3671    6.4508   -1.3588 H   0  0  0  0  0  0  0  0  0  0  0  0
   -6.2526    8.4611    2.1508 H   0  0  0  0  0  0  0  0  0  0  0  0
   -6.4835    9.8561    1.0278 H   0  0  0  0  0  0  0  0  0  0  0  0
   -6.9254    8.1921    0.4866 H   0  0  0  0  0  0  0  0  0  0  0  0
   -3.7608    6.7939    2.6221 H   0  0  0  0  0  0  0  0  0  0  0  0
   -3.7864    4.3399    2.8487 H   0  0  0  0  0  0  0  0  0  0  0  0
    0.0848    7.6686    0.6204 H   0  0  0  0  0  0  0  0  0  0  0  0
    2.8267   11.3745   -2.0897 H   0  0  0  0  0  0  0  0  0  0  0  0
    2.7523    7.4078   -5.1022 H   0  0  0  0  0  0  0  0  0  0  0  0
  1  2  2  3
  2  3  1  0
  3  4  2  0
  3  5  1  0
  5  6  2  0
  6  7  1  0
  7  8  1  0
  7  9  2  0
  9 10  1  0
  9 11  1  0
 11 12  2  0
 12 13  1  0
 13 14  2  3
 14 15  1  0
 15 16  3  0
 14 17  1  0
 17 18  3  0
  1 19  1  0
 19 20  2  0
 20 21  1  0
 21 22  2  0
 22 23  1  0
 23 24  1  0
 24 25  1  0
 25 26  1  0
 26 27  1  0
 25 28  2  0
 28 29  1  0
 28 30  1  0
 30 31  1  0
 22 32  1  0
 32 33  2  0
 33 34  1  0
 34 35  1  0
 35 36  2  0
 36 37  1  0
 37 38  2  0
 38 39  1  0
 39 40  1  0
 38 41  1  0
 34 42  2  0
 42 43  1  0
 33 44  1  0
 44 45  2  0
 45 46  1  0
 45 47  1  0
 47 48  2  0
 48 49  1  0
 49 50  1  0
 50 51  2  0
 51 52  1  0
 52 53  2  0
 53 54  1  0
 54 55  1  0
 53 56  1  0
 56 57  2  0
 49 58  1  0
 58 59  2  0
 59 60  1  0
 60 61  2  0
 61 62  1  0
 62 63  1  0
 61 64  1  0
 64 65  2  0
 48 66  1  0
 66 67  1  0
 67 68  1  0
 68 69  2  0
 69 70  1  0
 70 71  1  0
 71 72  2  0
 72 73  1  0
 73 74  2  0
 74 75  1  0
 75 76  1  0
 74 77  1  0
 77 78  2  0
 70 79  1  0
 79 80  2  0
 80 81  1  0
 81 82  2  0
 82 83  1  0
 83 84  1  0
 82 85  1  0
 85 86  2  0
 69 87  1  0
 87 88  1  0
 68 89  1  0
 89 90  2  0
 90 91  1  0
 91 92  1  0
 92 93  2  0
 93 94  2  0
 91 95  2  0
 95 96  1  0
 96 97  2  0
 97 98  1  0
 98 99  1  0
 99100  2  0
 95101  1  0
101102  2  3
102103  1  0
103104  2  0
103105  1  0
105106  2  0
106107  1  0
107108  1  0
107109  2  0
109110  1  0
109111  1  0
111112  2  0
112113  1  0
113114  2  3
114115  1  0
115116  3  0
114117  1  0
117118  3  0
 13  2  1  0
 43 19  1  0
 88 47  1  0
100 89  1  0
113102  1  0
 12  5  1  0
 42 21  1  0
 57 50  1  0
 65 58  1  0
 87 66  2  0
 94 90  1  0
100 96  1  0
112105  1  0
 30 23  2  0
 46 32  1  0
 78 71  1  0
 86 79  1  0
 41 35  1  0
  1119  1  0
  6120  1  0
  8121  1  0
  8122  1  0
  8123  1  0
 11124  1  0
 20125  1  0
 26126  1  0
 26127  1  0
 27128  1  0
 27129  1  0
 27130  1  0
 36131  1  0
 37132  1  0
 39133  1  0
 39134  1  0
 40135  1  0
 40136  1  0
 40137  1  0
 44138  1  0
 51139  1  0
 52140  1  0
 55141  1  0
 55142  1  0
 55143  1  0
 56144  1  0
 57145  1  0
 59146  1  0
 60147  1  0
 63148  1  0
 63149  1  0
 63150  1  0
 64151  1  0
 65152  1  0
 72153  1  0
 73154  1  0
 76155  1  0
 76156  1  0
 76157  1  0
 77158  1  0
 78159  1  0
 80160  1  0
 81161  1  0
 84162  1  0
 84163  1  0
 84164  1  0
 85165  1  0
 86166  1  0
101167  1  0
106168  1  0
111169  1  0
M  END

