
     RDKit          3D

205225  0  0  0  0  0  0  0  0999 V2000
   -4.3679    5.7009    8.5637 C   0  0  0  0  0  0  0  0  0  0  0  0
   -5.1981    6.3101    7.6860 C   0  0  0  0  0  0  0  0  0  0  0  0
   -6.2629    7.2182    8.1005 C   0  0  0  0  0  0  0  0  0  0  0  0
   -6.3549    7.8022    9.2124 O   0  0  0  0  0  0  0  0  0  0  0  0
   -7.2516    7.2646    7.0401 C   0  0  0  0  0  0  0  0  0  0  0  0
   -8.4449    7.9894    6.9946 C   0  0  0  0  0  0  0  0  0  0  0  0
   -9.2466    7.8999    5.8406 C   0  0  0  0  0  0  0  0  0  0  0  0
  -10.5033    8.7141    5.7289 C   0  0  0  0  0  0  0  0  0  0  0  0
   -8.8266    7.0947    4.7560 C   0  0  0  0  0  0  0  0  0  0  0  0
   -9.5732    7.0207    3.6252 F   0  0  0  0  0  0  0  0  0  0  0  0
   -7.6243    6.3713    4.8273 C   0  0  0  0  0  0  0  0  0  0  0  0
   -6.8316    6.4767    5.9790 C   0  0  0  0  0  0  0  0  0  0  0  0
   -5.4702    5.9476    6.2631 C   0  0  0  0  0  0  0  0  0  0  0  0
   -4.5312    5.6744    5.3247 C   0  0  0  0  0  0  0  0  0  0  0  0
   -4.8652    5.1793    4.0096 C   0  0  0  0  0  0  0  0  0  0  0  0
   -5.1051    4.7751    2.9523 N   0  0  0  0  0  0  0  0  0  0  0  0
   -3.1295    5.9380    5.5553 C   0  0  0  0  0  0  0  0  0  0  0  0
   -2.0146    6.1634    5.7474 N   0  0  0  0  0  0  0  0  0  0  0  0
   -3.6284    4.4684    8.2491 C   0  0  0  0  0  0  0  0  0  0  0  0
   -4.1596    3.3767    7.5668 C   0  0  0  0  0  0  0  0  0  0  0  0
   -3.1751    2.5731    6.9816 C   0  0  0  0  0  0  0  0  0  0  0  0
   -3.4238    1.5482    6.0566 C   0  0  0  0  0  0  0  0  0  0  0  0
   -4.7777    1.0096    5.8303 C   0  0  0  0  0  0  0  0  0  0  0  0
   -5.6520    1.1443    4.3961 S   0  0  0  0  0  0  0  0  0  0  0  0
   -6.9238    0.1459    4.8705 C   0  0  0  0  0  0  0  0  0  0  0  0
   -8.0489   -0.2868    3.9719 C   0  0  0  0  0  0  0  0  0  0  0  0
   -7.7416   -1.6388    3.3371 C   0  0  0  0  0  0  0  0  0  0  0  0
   -6.6675   -0.3248    6.1567 C   0  0  0  0  0  0  0  0  0  0  0  0
   -7.7073   -1.4655    6.9999 Cl  0  0  0  0  0  0  0  0  0  0  0  0
   -5.4683    0.1644    6.6947 C   0  0  0  0  0  0  0  0  0  0  0  0
   -4.8582   -0.3022    8.2751 Cl  0  0  0  0  0  0  0  0  0  0  0  0
   -2.3426    1.1246    5.2814 C   0  0  0  0  0  0  0  0  0  0  0  0
   -1.0514    1.6334    5.4385 C   0  0  0  0  0  0  0  0  0  0  0  0
   -0.7626    2.5397    6.4868 C   0  0  0  0  0  0  0  0  0  0  0  0
    0.6221    2.9941    6.7422 C   0  0  0  0  0  0  0  0  0  0  0  0
    1.7358    2.1610    6.8286 C   0  0  0  0  0  0  0  0  0  0  0  0
    2.9239    2.8369    7.1131 C   0  0  0  0  0  0  0  0  0  0  0  0
    2.7563    4.2099    7.2348 C   0  0  0  0  0  0  0  0  0  0  0  0
    3.8215    5.1893    7.6146 C   0  0  0  0  0  0  0  0  0  0  0  0
    3.9944    5.2322    9.1271 C   0  0  0  0  0  0  0  0  0  0  0  0
    1.1316    4.5801    7.0041 S   0  0  0  0  0  0  0  0  0  0  0  0
   -1.8688    3.0155    7.2270 C   0  0  0  0  0  0  0  0  0  0  0  0
   -1.9462    4.3596    8.2456 S   0  0  0  0  0  0  0  0  0  0  0  0
   -0.2124    1.3363    4.3471 C   0  0  0  0  0  0  0  0  0  0  0  0
   -0.8504    0.6054    3.3406 C   0  0  0  0  0  0  0  0  0  0  0  0
   -2.4194    0.2701    3.8495 S   0  0  0  0  0  0  0  0  0  0  0  0
   -0.4965    0.5775    1.9086 C   0  0  0  0  0  0  0  0  0  0  0  0
    0.7260    0.8718    1.2752 C   0  0  0  0  0  0  0  0  0  0  0  0
    2.0137    0.9263    1.9142 N   0  0  0  0  0  0  0  0  0  0  0  0
    2.9035   -0.1836    1.6687 C   0  0  0  0  0  0  0  0  0  0  0  0
    4.1935    0.0273    1.1451 C   0  0  0  0  0  0  0  0  0  0  0  0
    4.9957   -1.0568    0.7792 C   0  0  0  0  0  0  0  0  0  0  0  0
    4.5146   -2.3636    0.9118 C   0  0  0  0  0  0  0  0  0  0  0  0
    5.5208   -3.7490    0.3788 S   0  0  0  0  0  0  0  0  0  0  0  0
    4.8440   -3.7551   -1.3116 C   0  0  0  0  0  0  0  0  0  0  0  0
    3.2389   -2.5826    1.4440 C   0  0  0  0  0  0  0  0  0  0  0  0
    2.4378   -1.5011    1.8160 C   0  0  0  0  0  0  0  0  0  0  0  0
    2.5114    2.1756    2.4527 C   0  0  0  0  0  0  0  0  0  0  0  0
    3.5358    2.1755    3.4189 C   0  0  0  0  0  0  0  0  0  0  0  0
    4.0143    3.3762    3.9478 C   0  0  0  0  0  0  0  0  0  0  0  0
    3.4629    4.5934    3.5384 C   0  0  0  0  0  0  0  0  0  0  0  0
    4.0537    6.1332    4.2447 S   0  0  0  0  0  0  0  0  0  0  0  0
    5.3743    6.3505    3.0118 C   0  0  0  0  0  0  0  0  0  0  0  0
    2.4325    4.6067    2.5939 C   0  0  0  0  0  0  0  0  0  0  0  0
    1.9583    3.4099    2.0541 C   0  0  0  0  0  0  0  0  0  0  0  0
    0.5772    0.8710   -0.1161 C   0  0  0  0  0  0  0  0  0  0  0  0
    1.6468    0.9627   -1.3892 S   0  0  0  0  0  0  0  0  0  0  0  0
    0.4747    0.6743   -2.5990 C   0  0  0  0  0  0  0  0  0  0  0  0
   -0.8014    0.5312   -1.9892 C   0  0  0  0  0  0  0  0  0  0  0  0
   -2.0851    0.3805   -2.6592 N   0  0  0  0  0  0  0  0  0  0  0  0
   -3.3013    0.7865   -1.9950 C   0  0  0  0  0  0  0  0  0  0  0  0
   -3.4186    2.0797   -1.4508 C   0  0  0  0  0  0  0  0  0  0  0  0
   -4.5770    2.4567   -0.7614 C   0  0  0  0  0  0  0  0  0  0  0  0
   -5.6418    1.5578   -0.6289 C   0  0  0  0  0  0  0  0  0  0  0  0
   -7.1157    2.0193    0.2821 S   0  0  0  0  0  0  0  0  0  0  0  0
   -7.9296    2.7756   -1.1600 C   0  0  0  0  0  0  0  0  0  0  0  0
   -5.5468    0.2836   -1.1946 C   0  0  0  0  0  0  0  0  0  0  0  0
   -4.3814   -0.1045   -1.8642 C   0  0  0  0  0  0  0  0  0  0  0  0
   -2.1895    0.0463   -4.0536 C   0  0  0  0  0  0  0  0  0  0  0  0
   -2.6223   -1.2303   -4.4519 C   0  0  0  0  0  0  0  0  0  0  0  0
   -2.7628   -1.5373   -5.8076 C   0  0  0  0  0  0  0  0  0  0  0  0
   -2.5083   -0.5600   -6.7767 C   0  0  0  0  0  0  0  0  0  0  0  0
   -2.7635   -0.9216   -8.5133 S   0  0  0  0  0  0  0  0  0  0  0  0
   -4.5344   -0.5012   -8.4517 C   0  0  0  0  0  0  0  0  0  0  0  0
   -2.0541    0.7039   -6.3876 C   0  0  0  0  0  0  0  0  0  0  0  0
   -1.9129    1.0148   -5.0299 C   0  0  0  0  0  0  0  0  0  0  0  0
   -0.6664    0.6188   -0.5925 C   0  0  0  0  0  0  0  0  0  0  0  0
   -1.6802    0.3367    0.7016 S   0  0  0  0  0  0  0  0  0  0  0  0
    0.9101    0.2044   -3.9222 C   0  0  0  0  0  0  0  0  0  0  0  0
    0.6689   -1.0922   -4.3718 C   0  0  0  0  0  0  0  0  0  0  0  0
    1.6119   -1.5488   -5.2987 C   0  0  0  0  0  0  0  0  0  0  0  0
    1.7186   -2.8683   -5.7732 C   0  0  0  0  0  0  0  0  0  0  0  0
    0.6696   -3.8764   -5.5353 C   0  0  0  0  0  0  0  0  0  0  0  0
    0.2326   -4.5027   -4.0393 S   0  0  0  0  0  0  0  0  0  0  0  0
   -1.0133   -5.4784   -4.6180 C   0  0  0  0  0  0  0  0  0  0  0  0
   -1.9496   -6.2578   -3.7498 C   0  0  0  0  0  0  0  0  0  0  0  0
   -3.1833   -5.4284   -3.4067 C   0  0  0  0  0  0  0  0  0  0  0  0
   -1.1091   -5.3154   -5.9974 C   0  0  0  0  0  0  0  0  0  0  0  0
   -2.3137   -6.1219   -6.9915 Cl  0  0  0  0  0  0  0  0  0  0  0  0
   -0.1614   -4.4191   -6.5100 C   0  0  0  0  0  0  0  0  0  0  0  0
   -0.0764   -3.9818   -8.2114 Cl  0  0  0  0  0  0  0  0  0  0  0  0
    2.9195   -3.2159   -6.4090 C   0  0  0  0  0  0  0  0  0  0  0  0
    3.9462   -2.2973   -6.6405 C   0  0  0  0  0  0  0  0  0  0  0  0
    3.7741   -0.9405   -6.2904 C   0  0  0  0  0  0  0  0  0  0  0  0
    4.8382    0.0503   -6.4892 C   0  0  0  0  0  0  0  0  0  0  0  0
    5.8776    0.3134   -5.6056 C   0  0  0  0  0  0  0  0  0  0  0  0
    6.7045    1.3568   -6.0307 C   0  0  0  0  0  0  0  0  0  0  0  0
    6.3062    1.9110   -7.2415 C   0  0  0  0  0  0  0  0  0  0  0  0
    6.9133    3.1123   -7.8887 C   0  0  0  0  0  0  0  0  0  0  0  0
    6.1993    4.3825   -7.4362 C   0  0  0  0  0  0  0  0  0  0  0  0
    4.9177    1.1221   -7.7791 S   0  0  0  0  0  0  0  0  0  0  0  0
    2.6024   -0.6072   -5.5891 C   0  0  0  0  0  0  0  0  0  0  0  0
    2.3050    0.7798   -4.6898 S   0  0  0  0  0  0  0  0  0  0  0  0
    5.1581   -2.9058   -7.0130 C   0  0  0  0  0  0  0  0  0  0  0  0
    5.1096   -4.3041   -7.0036 C   0  0  0  0  0  0  0  0  0  0  0  0
    3.5249   -4.7601   -6.6308 S   0  0  0  0  0  0  0  0  0  0  0  0
    6.3385   -5.1260   -6.8378 C   0  0  0  0  0  0  0  0  0  0  0  0
    6.4140   -6.2899   -6.1488 C   0  0  0  0  0  0  0  0  0  0  0  0
    5.2862   -7.1260   -5.7249 C   0  0  0  0  0  0  0  0  0  0  0  0
    4.3379   -7.5142   -6.4590 O   0  0  0  0  0  0  0  0  0  0  0  0
    5.5481   -7.6089   -4.3873 C   0  0  0  0  0  0  0  0  0  0  0  0
    4.6580   -8.2210   -3.5063 C   0  0  0  0  0  0  0  0  0  0  0  0
    5.0837   -8.4704   -2.1908 C   0  0  0  0  0  0  0  0  0  0  0  0
    4.2157   -9.0664   -1.2640 C   0  0  0  0  0  0  0  0  0  0  0  0
    4.6356   -9.2807    0.0541 C   0  0  0  0  0  0  0  0  0  0  0  0
    3.7857   -9.8445    0.9486 F   0  0  0  0  0  0  0  0  0  0  0  0
    5.9246   -8.9064    0.4527 C   0  0  0  0  0  0  0  0  0  0  0  0
    6.3290   -9.1267    1.7289 F   0  0  0  0  0  0  0  0  0  0  0  0
    6.8002   -8.3082   -0.4589 C   0  0  0  0  0  0  0  0  0  0  0  0
    6.3945   -8.0857   -1.7839 C   0  0  0  0  0  0  0  0  0  0  0  0
    7.2705   -7.4710   -2.7045 C   0  0  0  0  0  0  0  0  0  0  0  0
    6.8351   -7.2633   -4.0202 C   0  0  0  0  0  0  0  0  0  0  0  0
    7.5009   -6.5746   -5.1632 C   0  0  0  0  0  0  0  0  0  0  0  0
    8.8311   -6.4041   -5.3569 C   0  0  0  0  0  0  0  0  0  0  0  0
    9.3564   -5.9547   -6.6189 C   0  0  0  0  0  0  0  0  0  0  0  0
    9.7804   -5.6012   -7.6390 N   0  0  0  0  0  0  0  0  0  0  0  0
    9.8095   -6.8078   -4.3772 C   0  0  0  0  0  0  0  0  0  0  0  0
   10.6045   -7.1283   -3.6007 N   0  0  0  0  0  0  0  0  0  0  0  0
   -4.2795    6.0924    9.5687 H   0  0  0  0  0  0  0  0  0  0  0  0
   -8.7315    8.6289    7.8227 H   0  0  0  0  0  0  0  0  0  0  0  0
  -11.3121    8.1078    5.2671 H   0  0  0  0  0  0  0  0  0  0  0  0
  -10.8584    9.0494    6.7298 H   0  0  0  0  0  0  0  0  0  0  0  0
  -10.3142    9.6052    5.0945 H   0  0  0  0  0  0  0  0  0  0  0  0
   -7.3374    5.7594    3.9888 H   0  0  0  0  0  0  0  0  0  0  0  0
   -5.2207    3.2546    7.3854 H   0  0  0  0  0  0  0  0  0  0  0  0
   -8.1908    0.4674    3.1687 H   0  0  0  0  0  0  0  0  0  0  0  0
   -8.9920   -0.3526    4.5543 H   0  0  0  0  0  0  0  0  0  0  0  0
   -6.8452   -1.5575    2.6838 H   0  0  0  0  0  0  0  0  0  0  0  0
   -8.6058   -1.9671    2.7174 H   0  0  0  0  0  0  0  0  0  0  0  0
   -7.5562   -2.4077    4.1163 H   0  0  0  0  0  0  0  0  0  0  0  0
    1.6865    1.0859    6.7102 H   0  0  0  0  0  0  0  0  0  0  0  0
    3.8735    2.3350    7.2388 H   0  0  0  0  0  0  0  0  0  0  0  0
    3.5399    6.2031    7.2500 H   0  0  0  0  0  0  0  0  0  0  0  0
    4.7836    4.8984    7.1372 H   0  0  0  0  0  0  0  0  0  0  0  0
    4.7808    5.9719    9.3866 H   0  0  0  0  0  0  0  0  0  0  0  0
    3.0448    5.5406    9.6177 H   0  0  0  0  0  0  0  0  0  0  0  0
    4.3037    4.2344    9.5058 H   0  0  0  0  0  0  0  0  0  0  0  0
    0.7651    1.7736    4.2398 H   0  0  0  0  0  0  0  0  0  0  0  0
    4.5648    1.0303    0.9874 H   0  0  0  0  0  0  0  0  0  0  0  0
    5.9802   -0.8799    0.3643 H   0  0  0  0  0  0  0  0  0  0  0  0
    5.4128   -4.4817   -1.9271 H   0  0  0  0  0  0  0  0  0  0  0  0
    3.7772   -4.0598   -1.2867 H   0  0  0  0  0  0  0  0  0  0  0  0
    4.9377   -2.7485   -1.7681 H   0  0  0  0  0  0  0  0  0  0  0  0
    2.8543   -3.5900    1.5447 H   0  0  0  0  0  0  0  0  0  0  0  0
    1.4423   -1.6842    2.2031 H   0  0  0  0  0  0  0  0  0  0  0  0
    3.9562    1.2452    3.7743 H   0  0  0  0  0  0  0  0  0  0  0  0
    4.8064    3.3581    4.6880 H   0  0  0  0  0  0  0  0  0  0  0  0
    6.0063    7.2127    3.3099 H   0  0  0  0  0  0  0  0  0  0  0  0
    6.0091    5.4434    2.9595 H   0  0  0  0  0  0  0  0  0  0  0  0
    4.9286    6.5602    2.0168 H   0  0  0  0  0  0  0  0  0  0  0  0
    1.9916    5.5463    2.2812 H   0  0  0  0  0  0  0  0  0  0  0  0
    1.1587    3.4544    1.3282 H   0  0  0  0  0  0  0  0  0  0  0  0
   -2.6076    2.7876   -1.5456 H   0  0  0  0  0  0  0  0  0  0  0  0
   -4.6487    3.4452   -0.3298 H   0  0  0  0  0  0  0  0  0  0  0  0
   -9.0005    2.9440   -0.9339 H   0  0  0  0  0  0  0  0  0  0  0  0
   -7.8628    2.1101   -2.0458 H   0  0  0  0  0  0  0  0  0  0  0  0
   -7.4508    3.7487   -1.3873 H   0  0  0  0  0  0  0  0  0  0  0  0
   -6.3707   -0.4109   -1.1109 H   0  0  0  0  0  0  0  0  0  0  0  0
   -4.3186   -1.1108   -2.2499 H   0  0  0  0  0  0  0  0  0  0  0  0
   -2.8185   -1.9973   -3.7168 H   0  0  0  0  0  0  0  0  0  0  0  0
   -3.1094   -2.5239   -6.0975 H   0  0  0  0  0  0  0  0  0  0  0  0
   -4.6845    0.5206   -8.0380 H   0  0  0  0  0  0  0  0  0  0  0  0
   -4.9564   -0.5413   -9.4751 H   0  0  0  0  0  0  0  0  0  0  0  0
   -5.0693   -1.2441   -7.8207 H   0  0  0  0  0  0  0  0  0  0  0  0
   -1.8415    1.4596   -7.1317 H   0  0  0  0  0  0  0  0  0  0  0  0
   -1.5830    2.0031   -4.7364 H   0  0  0  0  0  0  0  0  0  0  0  0
   -0.0591   -1.7362   -3.9006 H   0  0  0  0  0  0  0  0  0  0  0  0
   -1.4291   -6.5474   -2.8103 H   0  0  0  0  0  0  0  0  0  0  0  0
   -2.2579   -7.1891   -4.2717 H   0  0  0  0  0  0  0  0  0  0  0  0
   -3.7156   -5.1284   -4.3344 H   0  0  0  0  0  0  0  0  0  0  0  0
   -2.8865   -4.5158   -2.8407 H   0  0  0  0  0  0  0  0  0  0  0  0
   -3.8712   -6.0266   -2.7708 H   0  0  0  0  0  0  0  0  0  0  0  0
    6.0240   -0.2253   -4.6796 H   0  0  0  0  0  0  0  0  0  0  0  0
    7.5513    1.7121   -5.4616 H   0  0  0  0  0  0  0  0  0  0  0  0
    6.8363    3.0196   -8.9902 H   0  0  0  0  0  0  0  0  0  0  0  0
    7.9904    3.1816   -7.6196 H   0  0  0  0  0  0  0  0  0  0  0  0
    5.1364    4.3574   -7.7663 H   0  0  0  0  0  0  0  0  0  0  0  0
    6.6926    5.2662   -7.8930 H   0  0  0  0  0  0  0  0  0  0  0  0
    6.2340    4.4827   -6.3274 H   0  0  0  0  0  0  0  0  0  0  0  0
    6.0830   -2.3581   -7.1179 H   0  0  0  0  0  0  0  0  0  0  0  0
    7.2525   -4.5685   -6.9757 H   0  0  0  0  0  0  0  0  0  0  0  0
    3.6500   -8.4643   -3.8235 H   0  0  0  0  0  0  0  0  0  0  0  0
    3.2083   -9.3528   -1.5515 H   0  0  0  0  0  0  0  0  0  0  0  0
    7.7879   -8.0078   -0.1310 H   0  0  0  0  0  0  0  0  0  0  0  0
    8.2372   -7.1270   -2.3734 H   0  0  0  0  0  0  0  0  0  0  0  0
  1  2  2  3
  2  3  1  0
  3  4  2  0
  3  5  1  0
  5  6  2  0
  6  7  1  0
  7  8  1  0
  7  9  2  0
  9 10  1  0
  9 11  1  0
 11 12  2  0
 12 13  1  0
 13 14  2  3
 14 15  1  0
 15 16  3  0
 14 17  1  0
 17 18  3  0
  1 19  1  0
 19 20  2  0
 20 21  1  0
 21 22  2  0
 22 23  1  0
 23 24  1  0
 24 25  1  0
 25 26  1  0
 26 27  1  0
 25 28  2  0
 28 29  1  0
 28 30  1  0
 30 31  1  0
 22 32  1  0
 32 33  2  0
 33 34  1  0
 34 35  1  0
 35 36  2  0
 36 37  1  0
 37 38  2  0
 38 39  1  0
 39 40  1  0
 38 41  1  0
 34 42  2  0
 42 43  1  0
 33 44  1  0
 44 45  2  0
 45 46  1  0
 45 47  1  0
 47 48  2  0
 48 49  1  0
 49 50  1  0
 50 51  2  0
 51 52  1  0
 52 53  2  0
 53 54  1  0
 54 55  1  0
 53 56  1  0
 56 57  2  0
 49 58  1  0
 58 59  2  0
 59 60  1  0
 60 61  2  0
 61 62  1  0
 62 63  1  0
 61 64  1  0
 64 65  2  0
 48 66  1  0
 66 67  1  0
 67 68  1  0
 68 69  2  0
 69 70  1  0
 70 71  1  0
 71 72  2  0
 72 73  1  0
 73 74  2  0
 74 75  1  0
 75 76  1  0
 74 77  1  0
 77 78  2  0
 70 79  1  0
 79 80  2  0
 80 81  1  0
 81 82  2  0
 82 83  1  0
 83 84  1  0
 82 85  1  0
 85 86  2  0
 69 87  1  0
 87 88  1  0
 68 89  1  0
 89 90  2  0
 90 91  1  0
 91 92  2  0
 92 93  1  0
 93 94  1  0
 94 95  1  0
 95 96  1  0
 96 97  1  0
 95 98  2  0
 98 99  1  0
 98100  1  0
100101  1  0
 92102  1  0
102103  2  0
103104  1  0
104105  1  0
105106  2  0
106107  1  0
107108  2  0
108109  1  0
109110  1  0
108111  1  0
104112  2  0
112113  1  0
103114  1  0
114115  2  0
115116  1  0
115117  1  0
117118  2  3
118119  1  0
119120  2  0
119121  1  0
121122  2  0
122123  1  0
123124  2  0
124125  1  0
125126  1  0
125127  2  0
127128  1  0
127129  1  0
129130  2  0
130131  1  0
131132  2  0
132133  1  0
133134  2  3
134135  1  0
135136  3  0
134137  1  0
137138  3  0
 13  2  1  0
 43 19  1  0
 88 47  1  0
113 89  1  0
133118  1  0
 12  5  1  0
 42 21  1  0
 57 50  1  0
 65 58  1  0
 87 66  2  0
112 91  1  0
132121  1  0
 30 23  2  0
 46 32  1  0
 78 71  1  0
 86 79  1  0
100 93  2  0
116102  1  0
130123  1  0
 41 35  1  0
111105  1  0
  1139  1  0
  6140  1  0
  8141  1  0
  8142  1  0
  8143  1  0
 11144  1  0
 20145  1  0
 26146  1  0
 26147  1  0
 27148  1  0
 27149  1  0
 27150  1  0
 36151  1  0
 37152  1  0
 39153  1  0
 39154  1  0
 40155  1  0
 40156  1  0
 40157  1  0
 44158  1  0
 51159  1  0
 52160  1  0
 55161  1  0
 55162  1  0
 55163  1  0
 56164  1  0
 57165  1  0
 59166  1  0
 60167  1  0
 63168  1  0
 63169  1  0
 63170  1  0
 64171  1  0
 65172  1  0
 72173  1  0
 73174  1  0
 76175  1  0
 76176  1  0
 76177  1  0
 77178  1  0
 78179  1  0
 80180  1  0
 81181  1  0
 84182  1  0
 84183  1  0
 84184  1  0
 85185  1  0
 86186  1  0
 90187  1  0
 96188  1  0
 96189  1  0
 97190  1  0
 97191  1  0
 97192  1  0
106193  1  0
107194  1  0
109195  1  0
109196  1  0
110197  1  0
110198  1  0
110199  1  0
114200  1  0
117201  1  0
122202  1  0
124203  1  0
129204  1  0
131205  1  0
M  END

