
     RDKit          3D

175194  0  0  0  0  0  0  0  0999 V2000
    8.0995   -0.8232   -2.6608 C   0  0  0  0  0  0  0  0  0  0  0  0
    8.8347   -1.8916   -2.2794 C   0  0  0  0  0  0  0  0  0  0  0  0
    8.2472   -3.2366   -2.1873 C   0  0  0  0  0  0  0  0  0  0  0  0
    7.4837   -3.7658   -3.0440 O   0  0  0  0  0  0  0  0  0  0  0  0
    8.5951   -3.8176   -0.9097 C   0  0  0  0  0  0  0  0  0  0  0  0
    7.9815   -4.8924   -0.2677 C   0  0  0  0  0  0  0  0  0  0  0  0
    8.2834   -5.1373    1.0876 C   0  0  0  0  0  0  0  0  0  0  0  0
    7.5663   -6.2394    1.8157 C   0  0  0  0  0  0  0  0  0  0  0  0
    9.1635   -4.2674    1.7726 C   0  0  0  0  0  0  0  0  0  0  0  0
    9.4061   -4.4390    3.1001 F   0  0  0  0  0  0  0  0  0  0  0  0
    9.7532   -3.1795    1.1101 C   0  0  0  0  0  0  0  0  0  0  0  0
    9.4703   -2.9703   -0.2519 C   0  0  0  0  0  0  0  0  0  0  0  0
    9.7918   -1.8154   -1.1380 C   0  0  0  0  0  0  0  0  0  0  0  0
   10.8365   -0.9695   -1.0267 C   0  0  0  0  0  0  0  0  0  0  0  0
   11.1526   -0.0342   -2.0784 C   0  0  0  0  0  0  0  0  0  0  0  0
   11.4067    0.7111   -2.9269 N   0  0  0  0  0  0  0  0  0  0  0  0
   11.7650   -1.0282    0.0723 C   0  0  0  0  0  0  0  0  0  0  0  0
   12.5141   -1.0637    0.9577 N   0  0  0  0  0  0  0  0  0  0  0  0
    6.6405   -0.8628   -2.4332 C   0  0  0  0  0  0  0  0  0  0  0  0
    5.6404   -0.9718   -3.3967 C   0  0  0  0  0  0  0  0  0  0  0  0
    4.4316   -1.4610   -2.8580 C   0  0  0  0  0  0  0  0  0  0  0  0
    3.2145   -1.6678   -3.5403 C   0  0  0  0  0  0  0  0  0  0  0  0
    2.8460   -0.8358   -4.7075 C   0  0  0  0  0  0  0  0  0  0  0  0
    3.3740   -1.0673   -5.9843 C   0  0  0  0  0  0  0  0  0  0  0  0
    3.0090   -0.2402   -7.0557 C   0  0  0  0  0  0  0  0  0  0  0  0
    2.1165    0.8277   -6.8563 C   0  0  0  0  0  0  0  0  0  0  0  0
    1.7369    1.6640   -7.9220 C   0  0  0  0  0  0  0  0  0  0  0  0
    0.8782    2.7467   -7.6969 C   0  0  0  0  0  0  0  0  0  0  0  0
    0.4122    3.8413   -9.0436 S   0  0  0  0  0  0  0  0  0  0  0  0
    1.9117    4.8839   -8.9532 C   0  0  0  0  0  0  0  0  0  0  0  0
    1.5581    6.3080   -8.5625 C   0  0  0  0  0  0  0  0  0  0  0  0
    0.3717    2.9868   -6.4147 C   0  0  0  0  0  0  0  0  0  0  0  0
    0.7152    2.1454   -5.3559 C   0  0  0  0  0  0  0  0  0  0  0  0
    1.5929    1.0686   -5.5643 C   0  0  0  0  0  0  0  0  0  0  0  0
    1.9566    0.2302   -4.5037 C   0  0  0  0  0  0  0  0  0  0  0  0
    2.2044   -2.3471   -2.8261 C   0  0  0  0  0  0  0  0  0  0  0  0
    2.3108   -2.6426   -1.4665 C   0  0  0  0  0  0  0  0  0  0  0  0
    3.4304   -2.2121   -0.7349 C   0  0  0  0  0  0  0  0  0  0  0  0
    3.3242   -1.8139    0.6885 C   0  0  0  0  0  0  0  0  0  0  0  0
    4.3110   -2.1606    1.6278 C   0  0  0  0  0  0  0  0  0  0  0  0
    4.4535   -1.4042    2.8054 C   0  0  0  0  0  0  0  0  0  0  0  0
    5.5202   -1.6337    3.6904 C   0  0  0  0  0  0  0  0  0  0  0  0
    5.7159   -0.7870    4.7919 C   0  0  0  0  0  0  0  0  0  0  0  0
    4.8576    0.3020    5.0075 C   0  0  0  0  0  0  0  0  0  0  0  0
    5.1374    1.4358    6.3707 S   0  0  0  0  0  0  0  0  0  0  0  0
    6.1303    2.6350    5.4026 C   0  0  0  0  0  0  0  0  0  0  0  0
    5.2412    3.6819    4.7299 C   0  0  0  0  0  0  0  0  0  0  0  0
    3.7815    0.5179    4.1476 C   0  0  0  0  0  0  0  0  0  0  0  0
    3.5629   -0.3300    3.0578 C   0  0  0  0  0  0  0  0  0  0  0  0
    2.5069   -0.0765    2.1797 C   0  0  0  0  0  0  0  0  0  0  0  0
    2.3948   -0.8111    1.0015 C   0  0  0  0  0  0  0  0  0  0  0  0
    4.5072   -1.7193   -1.4888 C   0  0  0  0  0  0  0  0  0  0  0  0
    6.0151   -1.2783   -0.9322 S   0  0  0  0  0  0  0  0  0  0  0  0
    1.1628   -3.2396   -0.9317 C   0  0  0  0  0  0  0  0  0  0  0  0
    0.1458   -3.4027   -1.8668 C   0  0  0  0  0  0  0  0  0  0  0  0
    0.6561   -2.7626   -3.3471 S   0  0  0  0  0  0  0  0  0  0  0  0
   -1.2333   -3.7827   -1.5126 C   0  0  0  0  0  0  0  0  0  0  0  0
   -2.2876   -2.9481   -1.9099 C   0  0  0  0  0  0  0  0  0  0  0  0
   -3.5305   -3.0149   -1.2662 C   0  0  0  0  0  0  0  0  0  0  0  0
   -3.7511   -3.9181   -0.2038 C   0  0  0  0  0  0  0  0  0  0  0  0
   -2.7610   -4.8691    0.0725 C   0  0  0  0  0  0  0  0  0  0  0  0
   -2.9069   -5.8384    1.0137 N   0  0  0  0  0  0  0  0  0  0  0  0
   -1.4224   -6.5579    0.9339 S   0  0  0  0  0  0  0  0  0  0  0  0
   -0.5706   -5.7178   -0.2034 N   0  0  0  0  0  0  0  0  0  0  0  0
   -1.4946   -4.7987   -0.5778 C   0  0  0  0  0  0  0  0  0  0  0  0
   -4.7745   -3.5905    0.8089 C   0  0  0  0  0  0  0  0  0  0  0  0
   -5.9190   -2.8212    0.5578 C   0  0  0  0  0  0  0  0  0  0  0  0
   -6.2878   -1.9927    1.6371 C   0  0  0  0  0  0  0  0  0  0  0  0
   -7.1704   -0.8965    1.5526 C   0  0  0  0  0  0  0  0  0  0  0  0
   -8.0183   -0.6911    0.3637 C   0  0  0  0  0  0  0  0  0  0  0  0
   -7.8673    0.3369   -0.5646 C   0  0  0  0  0  0  0  0  0  0  0  0
   -8.7157    0.1889   -1.6671 C   0  0  0  0  0  0  0  0  0  0  0  0
   -8.7686    1.0278   -2.7825 C   0  0  0  0  0  0  0  0  0  0  0  0
   -9.6582    0.7107   -3.8296 C   0  0  0  0  0  0  0  0  0  0  0  0
   -9.6669    1.5410   -5.0840 C   0  0  0  0  0  0  0  0  0  0  0  0
   -8.6251    1.0246   -6.0723 C   0  0  0  0  0  0  0  0  0  0  0  0
  -10.4711   -0.4450   -3.7400 C   0  0  0  0  0  0  0  0  0  0  0  0
  -10.4117   -1.2756   -2.6121 C   0  0  0  0  0  0  0  0  0  0  0  0
   -9.5245   -0.9358   -1.5974 C   0  0  0  0  0  0  0  0  0  0  0  0
   -9.1820   -1.7867   -0.1935 S   0  0  0  0  0  0  0  0  0  0  0  0
   -7.0806    0.0709    2.5717 C   0  0  0  0  0  0  0  0  0  0  0  0
   -6.2030   -0.0589    3.6536 C   0  0  0  0  0  0  0  0  0  0  0  0
   -5.3899   -1.2012    3.7862 C   0  0  0  0  0  0  0  0  0  0  0  0
   -4.2652   -1.2379    4.7355 C   0  0  0  0  0  0  0  0  0  0  0  0
   -3.9772   -2.4506    5.8841 S   0  0  0  0  0  0  0  0  0  0  0  0
   -2.4596   -1.8752    6.3068 C   0  0  0  0  0  0  0  0  0  0  0  0
   -1.5591   -2.4050    7.2260 C   0  0  0  0  0  0  0  0  0  0  0  0
   -0.3199   -1.7654    7.3861 C   0  0  0  0  0  0  0  0  0  0  0  0
    0.0058   -0.6289    6.6090 C   0  0  0  0  0  0  0  0  0  0  0  0
    1.3163    0.0757    6.7973 C   0  0  0  0  0  0  0  0  0  0  0  0
    1.1890    1.1957    7.8215 C   0  0  0  0  0  0  0  0  0  0  0  0
   -0.9232   -0.1196    5.6833 C   0  0  0  0  0  0  0  0  0  0  0  0
   -2.1539   -0.7557    5.5452 C   0  0  0  0  0  0  0  0  0  0  0  0
   -3.1623   -0.3915    4.6557 C   0  0  0  0  0  0  0  0  0  0  0  0
   -5.4663   -2.1545    2.7578 C   0  0  0  0  0  0  0  0  0  0  0  0
   -4.3033   -3.3029    2.4007 S   0  0  0  0  0  0  0  0  0  0  0  0
   -6.1109    1.1032    4.4353 C   0  0  0  0  0  0  0  0  0  0  0  0
   -6.8773    2.1510    3.9408 C   0  0  0  0  0  0  0  0  0  0  0  0
   -7.7150    1.6313    2.5717 S   0  0  0  0  0  0  0  0  0  0  0  0
   -6.6765    3.5585    4.2955 C   0  0  0  0  0  0  0  0  0  0  0  0
   -5.5468    4.2253    3.9842 C   0  0  0  0  0  0  0  0  0  0  0  0
   -4.4757    3.7429    3.0912 C   0  0  0  0  0  0  0  0  0  0  0  0
   -4.3014    2.5646    2.6866 O   0  0  0  0  0  0  0  0  0  0  0  0
   -3.6783    4.8771    2.6817 C   0  0  0  0  0  0  0  0  0  0  0  0
   -2.6363    4.9032    1.7553 C   0  0  0  0  0  0  0  0  0  0  0  0
   -2.0686    6.1420    1.4141 C   0  0  0  0  0  0  0  0  0  0  0  0
   -0.9398    6.2143    0.4221 C   0  0  0  0  0  0  0  0  0  0  0  0
   -2.5791    7.3255    1.9920 C   0  0  0  0  0  0  0  0  0  0  0  0
   -2.0693    8.5343    1.6437 F   0  0  0  0  0  0  0  0  0  0  0  0
   -3.6216    7.2721    2.9326 C   0  0  0  0  0  0  0  0  0  0  0  0
   -4.1524    6.0229    3.2943 C   0  0  0  0  0  0  0  0  0  0  0  0
   -5.2633    5.6722    4.2256 C   0  0  0  0  0  0  0  0  0  0  0  0
   -5.7234    6.4292    5.2558 C   0  0  0  0  0  0  0  0  0  0  0  0
   -6.5913    5.8855    6.2721 C   0  0  0  0  0  0  0  0  0  0  0  0
   -7.2768    5.4399    7.0888 N   0  0  0  0  0  0  0  0  0  0  0  0
   -5.2529    7.7649    5.5072 C   0  0  0  0  0  0  0  0  0  0  0  0
   -4.8843    8.8422    5.7242 N   0  0  0  0  0  0  0  0  0  0  0  0
    8.5296    0.1647   -2.5838 H   0  0  0  0  0  0  0  0  0  0  0  0
    7.2437   -5.4947   -0.7802 H   0  0  0  0  0  0  0  0  0  0  0  0
    6.5746   -5.8705    2.1501 H   0  0  0  0  0  0  0  0  0  0  0  0
    7.4312   -7.1162    1.1487 H   0  0  0  0  0  0  0  0  0  0  0  0
    8.1396   -6.5745    2.7057 H   0  0  0  0  0  0  0  0  0  0  0  0
   10.3542   -2.4913    1.6867 H   0  0  0  0  0  0  0  0  0  0  0  0
    5.8084   -0.8010   -4.4510 H   0  0  0  0  0  0  0  0  0  0  0  0
    4.0734   -1.8732   -6.1468 H   0  0  0  0  0  0  0  0  0  0  0  0
    3.4324   -0.4218   -8.0325 H   0  0  0  0  0  0  0  0  0  0  0  0
    2.1246    1.4889   -8.9219 H   0  0  0  0  0  0  0  0  0  0  0  0
    2.6644    4.4841   -8.2415 H   0  0  0  0  0  0  0  0  0  0  0  0
    2.3763    4.8992   -9.9616 H   0  0  0  0  0  0  0  0  0  0  0  0
    1.1679    6.3255   -7.5218 H   0  0  0  0  0  0  0  0  0  0  0  0
    0.7845    6.7076   -9.2502 H   0  0  0  0  0  0  0  0  0  0  0  0
    2.4658    6.9476   -8.6282 H   0  0  0  0  0  0  0  0  0  0  0  0
   -0.2917    3.8286   -6.2346 H   0  0  0  0  0  0  0  0  0  0  0  0
    0.3109    2.3435   -4.3709 H   0  0  0  0  0  0  0  0  0  0  0  0
    1.5634    0.4133   -3.5091 H   0  0  0  0  0  0  0  0  0  0  0  0
    5.0314   -2.9362    1.3840 H   0  0  0  0  0  0  0  0  0  0  0  0
    6.2196   -2.4448    3.5140 H   0  0  0  0  0  0  0  0  0  0  0  0
    6.5508   -0.9556    5.4585 H   0  0  0  0  0  0  0  0  0  0  0  0
    6.8110    3.1577    6.1092 H   0  0  0  0  0  0  0  0  0  0  0  0
    6.7563    2.1060    4.6529 H   0  0  0  0  0  0  0  0  0  0  0  0
    5.8729    4.4012    4.1611 H   0  0  0  0  0  0  0  0  0  0  0  0
    4.5272    3.2132    4.0225 H   0  0  0  0  0  0  0  0  0  0  0  0
    4.6788    4.2396    5.5088 H   0  0  0  0  0  0  0  0  0  0  0  0
    3.1299    1.3656    4.3171 H   0  0  0  0  0  0  0  0  0  0  0  0
    1.8261    0.7495    2.3601 H   0  0  0  0  0  0  0  0  0  0  0  0
    1.6545   -0.4988    0.2695 H   0  0  0  0  0  0  0  0  0  0  0  0
    1.0543   -3.4795    0.1165 H   0  0  0  0  0  0  0  0  0  0  0  0
   -2.1198   -2.1502   -2.6235 H   0  0  0  0  0  0  0  0  0  0  0  0
   -4.2653   -2.2590   -1.5055 H   0  0  0  0  0  0  0  0  0  0  0  0
   -6.3475   -2.7198   -0.4302 H   0  0  0  0  0  0  0  0  0  0  0  0
   -7.1447    1.1354   -0.4655 H   0  0  0  0  0  0  0  0  0  0  0  0
   -8.1192    1.8966   -2.8454 H   0  0  0  0  0  0  0  0  0  0  0  0
  -10.6716    1.5106   -5.5570 H   0  0  0  0  0  0  0  0  0  0  0  0
   -9.4486    2.6043   -4.8408 H   0  0  0  0  0  0  0  0  0  0  0  0
   -8.7924   -0.0531   -6.2867 H   0  0  0  0  0  0  0  0  0  0  0  0
   -7.6044    1.1608   -5.6556 H   0  0  0  0  0  0  0  0  0  0  0  0
   -8.6963    1.5942   -7.0238 H   0  0  0  0  0  0  0  0  0  0  0  0
  -11.1424   -0.7056   -4.5535 H   0  0  0  0  0  0  0  0  0  0  0  0
  -11.0194   -2.1694   -2.5466 H   0  0  0  0  0  0  0  0  0  0  0  0
   -1.8058   -3.2871    7.8016 H   0  0  0  0  0  0  0  0  0  0  0  0
    0.3898   -2.1556    8.1032 H   0  0  0  0  0  0  0  0  0  0  0  0
    1.6369    0.5137    5.8330 H   0  0  0  0  0  0  0  0  0  0  0  0
    2.1063   -0.6383    7.1264 H   0  0  0  0  0  0  0  0  0  0  0  0
    0.8947    0.7838    8.8076 H   0  0  0  0  0  0  0  0  0  0  0  0
    2.1571    1.7249    7.9263 H   0  0  0  0  0  0  0  0  0  0  0  0
    0.4241    1.9345    7.4886 H   0  0  0  0  0  0  0  0  0  0  0  0
   -0.6902    0.7534    5.0833 H   0  0  0  0  0  0  0  0  0  0  0  0
   -3.0761    0.4260    3.9524 H   0  0  0  0  0  0  0  0  0  0  0  0
   -5.4197    1.2209    5.2587 H   0  0  0  0  0  0  0  0  0  0  0  0
   -7.5209    4.0764    4.7212 H   0  0  0  0  0  0  0  0  0  0  0  0
   -2.2839    3.9833    1.3001 H   0  0  0  0  0  0  0  0  0  0  0  0
   -0.7027    5.2084    0.0091 H   0  0  0  0  0  0  0  0  0  0  0  0
   -1.2255    6.8788   -0.4216 H   0  0  0  0  0  0  0  0  0  0  0  0
   -0.0318    6.6168    0.9208 H   0  0  0  0  0  0  0  0  0  0  0  0
   -4.0115    8.1959    3.3216 H   0  0  0  0  0  0  0  0  0  0  0  0
  1  2  2  3
  2  3  1  0
  3  4  2  0
  3  5  1  0
  5  6  2  0
  6  7  1  0
  7  8  1  0
  7  9  2  0
  9 10  1  0
  9 11  1  0
 11 12  2  0
 12 13  1  0
 13 14  2  3
 14 15  1  0
 15 16  3  0
 14 17  1  0
 17 18  3  0
  1 19  1  0
 19 20  2  0
 20 21  1  0
 21 22  2  0
 22 23  1  0
 23 24  2  0
 24 25  1  0
 25 26  2  0
 26 27  1  0
 27 28  2  0
 28 29  1  0
 29 30  1  0
 30 31  1  0
 28 32  1  0
 32 33  2  0
 33 34  1  0
 34 35  2  0
 22 36  1  0
 36 37  2  0
 37 38  1  0
 38 39  1  0
 39 40  2  0
 40 41  1  0
 41 42  2  0
 42 43  1  0
 43 44  2  0
 44 45  1  0
 45 46  1  0
 46 47  1  0
 44 48  1  0
 48 49  2  0
 49 50  1  0
 50 51  2  0
 38 52  2  0
 52 53  1  0
 37 54  1  0
 54 55  2  0
 55 56  1  0
 55 57  1  0
 57 58  2  0
 58 59  1  0
 59 60  2  0
 60 61  1  0
 61 62  2  0
 62 63  1  0
 63 64  1  0
 64 65  2  0
 60 66  1  0
 66 67  2  0
 67 68  1  0
 68 69  2  0
 69 70  1  0
 70 71  2  0
 71 72  1  0
 72 73  2  0
 73 74  1  0
 74 75  1  0
 75 76  1  0
 74 77  2  0
 77 78  1  0
 78 79  2  0
 79 80  1  0
 69 81  1  0
 81 82  2  0
 82 83  1  0
 83 84  1  0
 84 85  1  0
 85 86  1  0
 86 87  2  0
 87 88  1  0
 88 89  2  0
 89 90  1  0
 90 91  1  0
 89 92  1  0
 92 93  2  0
 93 94  1  0
 83 95  2  0
 95 96  1  0
 82 97  1  0
 97 98  2  0
 98 99  1  0
 98100  1  0
100101  2  3
101102  1  0
102103  2  0
102104  1  0
104105  2  0
105106  1  0
106107  1  0
106108  2  0
108109  1  0
108110  1  0
110111  2  0
111112  1  0
112113  2  3
113114  1  0
114115  3  0
113116  1  0
116117  3  0
 13  2  1  0
 53 19  1  0
 65 57  1  0
 96 66  1  0
112101  1  0
 12  5  1  0
 52 21  1  0
 65 61  1  0
 95 68  1  0
111104  1  0
 35 23  1  0
 56 36  1  0
 80 70  1  0
 99 81  1  0
 34 26  1  0
 51 39  1  0
 79 72  1  0
 94 84  2  0
 49 41  1  0
 93 86  1  0
  1118  1  0
  6119  1  0
  8120  1  0
  8121  1  0
  8122  1  0
 11123  1  0
 20124  1  0
 24125  1  0
 25126  1  0
 27127  1  0
 30128  1  0
 30129  1  0
 31130  1  0
 31131  1  0
 31132  1  0
 32133  1  0
 33134  1  0
 35135  1  0
 40136  1  0
 42137  1  0
 43138  1  0
 46139  1  0
 46140  1  0
 47141  1  0
 47142  1  0
 47143  1  0
 48144  1  0
 50145  1  0
 51146  1  0
 54147  1  0
 58148  1  0
 59149  1  0
 67150  1  0
 71151  1  0
 73152  1  0
 75153  1  0
 75154  1  0
 76155  1  0
 76156  1  0
 76157  1  0
 77158  1  0
 78159  1  0
 87160  1  0
 88161  1  0
 90162  1  0
 90163  1  0
 91164  1  0
 91165  1  0
 91166  1  0
 92167  1  0
 94168  1  0
 97169  1  0
100170  1  0
105171  1  0
107172  1  0
107173  1  0
107174  1  0
110175  1  0
M  END

