
     RDKit          3D

167185  0  0  0  0  0  0  0  0999 V2000
   -8.2543    2.8127   -3.1755 C   0  0  0  0  0  0  0  0  0  0  0  0
   -9.5102    2.6304   -2.7388 C   0  0  0  0  0  0  0  0  0  0  0  0
   -9.9472    1.6029   -1.7823 C   0  0  0  0  0  0  0  0  0  0  0  0
   -9.3653    0.5161   -1.5240 O   0  0  0  0  0  0  0  0  0  0  0  0
  -11.1436    2.0759   -1.1237 C   0  0  0  0  0  0  0  0  0  0  0  0
  -11.8182    1.5063   -0.0429 C   0  0  0  0  0  0  0  0  0  0  0  0
  -12.8846    2.2178    0.5460 C   0  0  0  0  0  0  0  0  0  0  0  0
  -13.6260    1.6256    1.7099 C   0  0  0  0  0  0  0  0  0  0  0  0
  -13.2367    3.4853    0.0302 C   0  0  0  0  0  0  0  0  0  0  0  0
  -14.2334    4.2005    0.6124 F   0  0  0  0  0  0  0  0  0  0  0  0
  -12.5478    4.0345   -1.0622 C   0  0  0  0  0  0  0  0  0  0  0  0
  -11.5089    3.3001   -1.6529 C   0  0  0  0  0  0  0  0  0  0  0  0
  -10.5962    3.6508   -2.7714 C   0  0  0  0  0  0  0  0  0  0  0  0
  -10.8303    4.5371   -3.7729 C   0  0  0  0  0  0  0  0  0  0  0  0
  -12.0112    5.3555   -3.8209 C   0  0  0  0  0  0  0  0  0  0  0  0
  -12.9594    6.0181   -3.8773 N   0  0  0  0  0  0  0  0  0  0  0  0
   -9.9953    4.6027   -4.9464 C   0  0  0  0  0  0  0  0  0  0  0  0
   -9.3358    4.6581   -5.8960 N   0  0  0  0  0  0  0  0  0  0  0  0
   -7.1704    1.8667   -2.8981 C   0  0  0  0  0  0  0  0  0  0  0  0
   -7.0944    0.5598   -3.3726 C   0  0  0  0  0  0  0  0  0  0  0  0
   -6.0011   -0.1425   -2.8399 C   0  0  0  0  0  0  0  0  0  0  0  0
   -5.6621   -1.4882   -3.0957 C   0  0  0  0  0  0  0  0  0  0  0  0
   -6.3720   -2.2914   -4.1055 C   0  0  0  0  0  0  0  0  0  0  0  0
   -7.0895   -3.4340   -3.7223 C   0  0  0  0  0  0  0  0  0  0  0  0
   -7.7728   -4.1894   -4.6824 C   0  0  0  0  0  0  0  0  0  0  0  0
   -7.7312   -3.8162   -6.0360 C   0  0  0  0  0  0  0  0  0  0  0  0
   -8.4090   -4.5673   -7.0088 C   0  0  0  0  0  0  0  0  0  0  0  0
   -8.3198   -4.2098   -8.3548 C   0  0  0  0  0  0  0  0  0  0  0  0
   -7.5603   -3.1011   -8.7434 C   0  0  0  0  0  0  0  0  0  0  0  0
   -6.8931   -2.3345   -7.7824 C   0  0  0  0  0  0  0  0  0  0  0  0
   -6.9780   -2.6843   -6.4258 C   0  0  0  0  0  0  0  0  0  0  0  0
   -6.3150   -1.9225   -5.4546 C   0  0  0  0  0  0  0  0  0  0  0  0
   -4.5658   -2.0139   -2.3831 C   0  0  0  0  0  0  0  0  0  0  0  0
   -3.8371   -1.2481   -1.4653 C   0  0  0  0  0  0  0  0  0  0  0  0
   -4.1493    0.1070   -1.2468 C   0  0  0  0  0  0  0  0  0  0  0  0
   -3.3467    0.9487   -0.3456 C   0  0  0  0  0  0  0  0  0  0  0  0
   -3.3882    0.9244    1.0412 C   0  0  0  0  0  0  0  0  0  0  0  0
   -2.4736    1.7979    1.6336 C   0  0  0  0  0  0  0  0  0  0  0  0
   -1.7002    2.4937    0.7070 C   0  0  0  0  0  0  0  0  0  0  0  0
   -0.3767    3.6350    1.0893 S   0  0  0  0  0  0  0  0  0  0  0  0
    0.8922    2.3376    1.3306 C   0  0  0  0  0  0  0  0  0  0  0  0
    1.0399    2.0075    2.8061 C   0  0  0  0  0  0  0  0  0  0  0  0
   -2.1521    2.0333   -0.8455 S   0  0  0  0  0  0  0  0  0  0  0  0
   -5.2381    0.6288   -1.9512 C   0  0  0  0  0  0  0  0  0  0  0  0
   -5.8912    2.1738   -1.8484 S   0  0  0  0  0  0  0  0  0  0  0  0
   -2.7602   -1.9359   -0.9048 C   0  0  0  0  0  0  0  0  0  0  0  0
   -2.6270   -3.2280   -1.3950 C   0  0  0  0  0  0  0  0  0  0  0  0
   -3.8360   -3.5257   -2.5377 S   0  0  0  0  0  0  0  0  0  0  0  0
   -1.4031   -4.0191   -1.1812 C   0  0  0  0  0  0  0  0  0  0  0  0
   -0.5347   -4.2343   -2.2636 C   0  0  0  0  0  0  0  0  0  0  0  0
    0.8383   -4.4397   -2.0507 C   0  0  0  0  0  0  0  0  0  0  0  0
    1.3719   -4.4438   -0.7479 C   0  0  0  0  0  0  0  0  0  0  0  0
    0.4812   -4.4090    0.3393 C   0  0  0  0  0  0  0  0  0  0  0  0
    0.8853   -4.4228    1.6398 N   0  0  0  0  0  0  0  0  0  0  0  0
   -0.5516   -4.1879    2.4193 S   0  0  0  0  0  0  0  0  0  0  0  0
   -1.6845   -4.0352    1.2254 N   0  0  0  0  0  0  0  0  0  0  0  0
   -0.9084   -4.1924    0.1191 C   0  0  0  0  0  0  0  0  0  0  0  0
    2.7824   -4.0567   -0.5638 C   0  0  0  0  0  0  0  0  0  0  0  0
    3.2860   -2.8791   -1.1136 C   0  0  0  0  0  0  0  0  0  0  0  0
    4.3989   -2.3681   -0.4335 C   0  0  0  0  0  0  0  0  0  0  0  0
    4.9505   -1.0783   -0.6136 C   0  0  0  0  0  0  0  0  0  0  0  0
    4.2500   -0.0269   -1.4035 C   0  0  0  0  0  0  0  0  0  0  0  0
    2.9048    0.2733   -1.1061 C   0  0  0  0  0  0  0  0  0  0  0  0
    2.2615    1.3479   -1.7163 C   0  0  0  0  0  0  0  0  0  0  0  0
    2.9627    2.1834   -2.5891 C   0  0  0  0  0  0  0  0  0  0  0  0
    2.3568    3.3409   -3.0978 C   0  0  0  0  0  0  0  0  0  0  0  0
    3.0713    4.2004   -3.9400 C   0  0  0  0  0  0  0  0  0  0  0  0
    2.3308    5.7516   -4.4724 S   0  0  0  0  0  0  0  0  0  0  0  0
    1.4194    5.0447   -5.8909 C   0  0  0  0  0  0  0  0  0  0  0  0
    2.3223    4.9128   -7.1087 C   0  0  0  0  0  0  0  0  0  0  0  0
    4.3845    3.8843   -4.3072 C   0  0  0  0  0  0  0  0  0  0  0  0
    4.9980    2.7297   -3.8120 C   0  0  0  0  0  0  0  0  0  0  0  0
    4.3018    1.8803   -2.9326 C   0  0  0  0  0  0  0  0  0  0  0  0
    4.9344    0.7648   -2.3494 C   0  0  0  0  0  0  0  0  0  0  0  0
    6.0164   -0.7349    0.2366 C   0  0  0  0  0  0  0  0  0  0  0  0
    6.4588   -1.5615    1.2807 C   0  0  0  0  0  0  0  0  0  0  0  0
    5.8503   -2.8155    1.5048 C   0  0  0  0  0  0  0  0  0  0  0  0
    6.1119   -3.6121    2.7319 C   0  0  0  0  0  0  0  0  0  0  0  0
    6.4317   -4.9798    2.6372 C   0  0  0  0  0  0  0  0  0  0  0  0
    6.5807   -5.7608    3.7948 C   0  0  0  0  0  0  0  0  0  0  0  0
    6.8755   -7.1290    3.7021 C   0  0  0  0  0  0  0  0  0  0  0  0
    7.0266   -7.8939    4.8634 C   0  0  0  0  0  0  0  0  0  0  0  0
    6.8656   -7.2998    6.1215 C   0  0  0  0  0  0  0  0  0  0  0  0
    7.0445   -8.2811    7.6142 S   0  0  0  0  0  0  0  0  0  0  0  0
    5.3221   -8.8699    7.5827 C   0  0  0  0  0  0  0  0  0  0  0  0
    5.0136   -9.6605    8.8476 C   0  0  0  0  0  0  0  0  0  0  0  0
    6.5715   -5.9356    6.2222 C   0  0  0  0  0  0  0  0  0  0  0  0
    6.4223   -5.1613    5.0669 C   0  0  0  0  0  0  0  0  0  0  0  0
    6.1135   -3.7969    5.1559 C   0  0  0  0  0  0  0  0  0  0  0  0
    5.9447   -3.0336    3.9999 C   0  0  0  0  0  0  0  0  0  0  0  0
    4.8376   -3.1977    0.6034 C   0  0  0  0  0  0  0  0  0  0  0  0
    3.7785   -4.5039    0.7300 S   0  0  0  0  0  0  0  0  0  0  0  0
    7.4579   -0.9649    2.0713 C   0  0  0  0  0  0  0  0  0  0  0  0
    7.7473    0.3473    1.6926 C   0  0  0  0  0  0  0  0  0  0  0  0
    6.8457    0.7228    0.3169 S   0  0  0  0  0  0  0  0  0  0  0  0
    8.7827    1.1880    2.3200 C   0  0  0  0  0  0  0  0  0  0  0  0
    8.7564    2.5355    2.3757 C   0  0  0  0  0  0  0  0  0  0  0  0
    7.5550    3.3769    2.2219 C   0  0  0  0  0  0  0  0  0  0  0  0
    6.3755    2.9722    2.0511 O   0  0  0  0  0  0  0  0  0  0  0  0
    7.8978    4.7396    2.5528 C   0  0  0  0  0  0  0  0  0  0  0  0
    7.0487    5.8428    2.5788 C   0  0  0  0  0  0  0  0  0  0  0  0
    7.5544    7.0774    3.0239 C   0  0  0  0  0  0  0  0  0  0  0  0
    6.6718    8.2957    3.0480 C   0  0  0  0  0  0  0  0  0  0  0  0
    8.8992    7.1668    3.4418 C   0  0  0  0  0  0  0  0  0  0  0  0
    9.3979    8.3470    3.8914 F   0  0  0  0  0  0  0  0  0  0  0  0
    9.7301    6.0317    3.4230 C   0  0  0  0  0  0  0  0  0  0  0  0
    9.2203    4.8078    2.9504 C   0  0  0  0  0  0  0  0  0  0  0  0
    9.8587    3.4605    2.8202 C   0  0  0  0  0  0  0  0  0  0  0  0
   11.1870    3.1748    2.9026 C   0  0  0  0  0  0  0  0  0  0  0  0
   11.7261    1.8789    2.5824 C   0  0  0  0  0  0  0  0  0  0  0  0
   12.1767    0.8440    2.3253 N   0  0  0  0  0  0  0  0  0  0  0  0
   12.1786    4.1640    3.2366 C   0  0  0  0  0  0  0  0  0  0  0  0
   12.9965    4.9418    3.4935 N   0  0  0  0  0  0  0  0  0  0  0  0
   -7.9635    3.7636   -3.5893 H   0  0  0  0  0  0  0  0  0  0  0  0
  -11.5087    0.5465    0.3459 H   0  0  0  0  0  0  0  0  0  0  0  0
  -13.8862    2.4139    2.4450 H   0  0  0  0  0  0  0  0  0  0  0  0
  -13.0073    0.8653    2.2323 H   0  0  0  0  0  0  0  0  0  0  0  0
  -14.5560    1.1427    1.3457 H   0  0  0  0  0  0  0  0  0  0  0  0
  -12.8124    5.0225   -1.3983 H   0  0  0  0  0  0  0  0  0  0  0  0
   -7.8255    0.1274   -4.0451 H   0  0  0  0  0  0  0  0  0  0  0  0
   -7.1256   -3.7417   -2.6865 H   0  0  0  0  0  0  0  0  0  0  0  0
   -8.3294   -5.0630   -4.3676 H   0  0  0  0  0  0  0  0  0  0  0  0
   -9.0025   -5.4276   -6.7249 H   0  0  0  0  0  0  0  0  0  0  0  0
   -8.8403   -4.7939   -9.1058 H   0  0  0  0  0  0  0  0  0  0  0  0
   -7.4716   -2.8456   -9.7874 H   0  0  0  0  0  0  0  0  0  0  0  0
   -6.3152   -1.4777   -8.0992 H   0  0  0  0  0  0  0  0  0  0  0  0
   -5.7391   -1.0506   -5.7464 H   0  0  0  0  0  0  0  0  0  0  0  0
   -4.0560    0.2895    1.6065 H   0  0  0  0  0  0  0  0  0  0  0  0
   -2.3601    1.9170    2.7015 H   0  0  0  0  0  0  0  0  0  0  0  0
    1.8609    2.7206    0.9415 H   0  0  0  0  0  0  0  0  0  0  0  0
    0.6345    1.4118    0.7758 H   0  0  0  0  0  0  0  0  0  0  0  0
    0.0863    1.5948    3.2041 H   0  0  0  0  0  0  0  0  0  0  0  0
    1.3159    2.9174    3.3832 H   0  0  0  0  0  0  0  0  0  0  0  0
    1.8381    1.2467    2.9420 H   0  0  0  0  0  0  0  0  0  0  0  0
   -2.0519   -1.4828   -0.2289 H   0  0  0  0  0  0  0  0  0  0  0  0
   -0.8875   -4.0873   -3.2764 H   0  0  0  0  0  0  0  0  0  0  0  0
    1.4998   -4.4525   -2.9025 H   0  0  0  0  0  0  0  0  0  0  0  0
    2.7677   -2.3415   -1.8947 H   0  0  0  0  0  0  0  0  0  0  0  0
    2.3649   -0.3100   -0.3667 H   0  0  0  0  0  0  0  0  0  0  0  0
    1.2303    1.5519   -1.4728 H   0  0  0  0  0  0  0  0  0  0  0  0
    1.3399    3.5995   -2.8083 H   0  0  0  0  0  0  0  0  0  0  0  0
    0.5864    5.7375   -6.1398 H   0  0  0  0  0  0  0  0  0  0  0  0
    0.9802    4.0596   -5.6257 H   0  0  0  0  0  0  0  0  0  0  0  0
    3.1551    4.2060   -6.9058 H   0  0  0  0  0  0  0  0  0  0  0  0
    2.7398    5.9047   -7.3836 H   0  0  0  0  0  0  0  0  0  0  0  0
    1.7324    4.5273   -7.9666 H   0  0  0  0  0  0  0  0  0  0  0  0
    4.9448    4.5494   -4.9513 H   0  0  0  0  0  0  0  0  0  0  0  0
    6.0219    2.5135   -4.0956 H   0  0  0  0  0  0  0  0  0  0  0  0
    5.9669    0.5393   -2.5891 H   0  0  0  0  0  0  0  0  0  0  0  0
    6.5509   -5.4365    1.6587 H   0  0  0  0  0  0  0  0  0  0  0  0
    6.9909   -7.6074    2.7380 H   0  0  0  0  0  0  0  0  0  0  0  0
    7.2616   -8.9421    4.7827 H   0  0  0  0  0  0  0  0  0  0  0  0
    4.6237   -8.0078    7.5194 H   0  0  0  0  0  0  0  0  0  0  0  0
    5.1772   -9.5226    6.6989 H   0  0  0  0  0  0  0  0  0  0  0  0
    5.7044  -10.5287    8.9323 H   0  0  0  0  0  0  0  0  0  0  0  0
    3.9713  -10.0368    8.8039 H   0  0  0  0  0  0  0  0  0  0  0  0
    5.1239   -9.0114    9.7402 H   0  0  0  0  0  0  0  0  0  0  0  0
    6.4554   -5.4865    7.2023 H   0  0  0  0  0  0  0  0  0  0  0  0
    5.9819   -3.3248    6.1234 H   0  0  0  0  0  0  0  0  0  0  0  0
    5.6684   -1.9906    4.0955 H   0  0  0  0  0  0  0  0  0  0  0  0
    7.9454   -1.4565    2.8990 H   0  0  0  0  0  0  0  0  0  0  0  0
    9.5970    0.6473    2.7693 H   0  0  0  0  0  0  0  0  0  0  0  0
    6.0148    5.7457    2.2723 H   0  0  0  0  0  0  0  0  0  0  0  0
    5.6107    8.0331    2.8670 H   0  0  0  0  0  0  0  0  0  0  0  0
    6.9962    9.0142    2.2602 H   0  0  0  0  0  0  0  0  0  0  0  0
    6.7412    8.7956    4.0383 H   0  0  0  0  0  0  0  0  0  0  0  0
   10.7316    6.1364    3.7996 H   0  0  0  0  0  0  0  0  0  0  0  0
  1  2  2  3
  2  3  1  0
  3  4  2  0
  3  5  1  0
  5  6  2  0
  6  7  1  0
  7  8  1  0
  7  9  2  0
  9 10  1  0
  9 11  1  0
 11 12  2  0
 12 13  1  0
 13 14  2  3
 14 15  1  0
 15 16  3  0
 14 17  1  0
 17 18  3  0
  1 19  1  0
 19 20  2  0
 20 21  1  0
 21 22  2  0
 22 23  1  0
 23 24  2  0
 24 25  1  0
 25 26  2  0
 26 27  1  0
 27 28  2  0
 28 29  1  0
 29 30  2  0
 30 31  1  0
 31 32  2  0
 22 33  1  0
 33 34  2  0
 34 35  1  0
 35 36  1  0
 36 37  2  0
 37 38  1  0
 38 39  2  0
 39 40  1  0
 40 41  1  0
 41 42  1  0
 39 43  1  0
 35 44  2  0
 44 45  1  0
 34 46  1  0
 46 47  2  0
 47 48  1  0
 47 49  1  0
 49 50  2  0
 50 51  1  0
 51 52  2  0
 52 53  1  0
 53 54  2  0
 54 55  1  0
 55 56  1  0
 56 57  2  0
 52 58  1  0
 58 59  2  0
 59 60  1  0
 60 61  2  0
 61 62  1  0
 62 63  2  0
 63 64  1  0
 64 65  2  0
 65 66  1  0
 66 67  2  0
 67 68  1  0
 68 69  1  0
 69 70  1  0
 67 71  1  0
 71 72  2  0
 72 73  1  0
 73 74  2  0
 61 75  1  0
 75 76  2  0
 76 77  1  0
 77 78  1  0
 78 79  2  0
 79 80  1  0
 80 81  2  0
 81 82  1  0
 82 83  2  0
 83 84  1  0
 84 85  1  0
 85 86  1  0
 83 87  1  0
 87 88  2  0
 88 89  1  0
 89 90  2  0
 77 91  2  0
 91 92  1  0
 76 93  1  0
 93 94  2  0
 94 95  1  0
 94 96  1  0
 96 97  2  3
 97 98  1  0
 98 99  2  0
 98100  1  0
100101  2  0
101102  1  0
102103  1  0
102104  2  0
104105  1  0
104106  1  0
106107  2  0
107108  1  0
108109  2  3
109110  1  0
110111  3  0
109112  1  0
112113  3  0
 13  2  1  0
 45 19  1  0
 57 49  1  0
 92 58  1  0
108 97  1  0
 12  5  1  0
 44 21  1  0
 57 53  1  0
 91 60  1  0
107100  1  0
 32 23  1  0
 48 33  1  0
 74 62  1  0
 95 75  1  0
 31 26  1  0
 43 36  1  0
 73 65  1  0
 90 78  1  0
 88 80  1  0
  1114  1  0
  6115  1  0
  8116  1  0
  8117  1  0
  8118  1  0
 11119  1  0
 20120  1  0
 24121  1  0
 25122  1  0
 27123  1  0
 28124  1  0
 29125  1  0
 30126  1  0
 32127  1  0
 37128  1  0
 38129  1  0
 41130  1  0
 41131  1  0
 42132  1  0
 42133  1  0
 42134  1  0
 46135  1  0
 50136  1  0
 51137  1  0
 59138  1  0
 63139  1  0
 64140  1  0
 66141  1  0
 69142  1  0
 69143  1  0
 70144  1  0
 70145  1  0
 70146  1  0
 71147  1  0
 72148  1  0
 74149  1  0
 79150  1  0
 81151  1  0
 82152  1  0
 85153  1  0
 85154  1  0
 86155  1  0
 86156  1  0
 86157  1  0
 87158  1  0
 89159  1  0
 90160  1  0
 93161  1  0
 96162  1  0
101163  1  0
103164  1  0
103165  1  0
103166  1  0
106167  1  0
M  END

