
     RDKit          3D

182200  0  0  0  0  0  0  0  0999 V2000
    6.0797    2.7151   -9.3713 C   0  0  0  0  0  0  0  0  0  0  0  0
    7.2108    3.4314   -9.1764 C   0  0  0  0  0  0  0  0  0  0  0  0
    7.4544    4.3990   -8.0938 C   0  0  0  0  0  0  0  0  0  0  0  0
    6.6340    4.7493   -7.2023 O   0  0  0  0  0  0  0  0  0  0  0  0
    8.7364    5.0381   -8.3246 C   0  0  0  0  0  0  0  0  0  0  0  0
    9.3632    6.0148   -7.5573 C   0  0  0  0  0  0  0  0  0  0  0  0
   10.5800    6.5576   -8.0118 C   0  0  0  0  0  0  0  0  0  0  0  0
   11.2693    7.6160   -7.2074 C   0  0  0  0  0  0  0  0  0  0  0  0
   11.0956    6.1534   -9.2703 C   0  0  0  0  0  0  0  0  0  0  0  0
   12.2121    6.7235   -9.7781 F   0  0  0  0  0  0  0  0  0  0  0  0
   10.4378    5.1626  -10.0207 C   0  0  0  0  0  0  0  0  0  0  0  0
    9.2662    4.5798   -9.5165 C   0  0  0  0  0  0  0  0  0  0  0  0
    8.4121    3.4921  -10.0690 C   0  0  0  0  0  0  0  0  0  0  0  0
    8.8167    2.5319  -10.9465 C   0  0  0  0  0  0  0  0  0  0  0  0
   10.1158    2.5532  -11.5778 C   0  0  0  0  0  0  0  0  0  0  0  0
   11.1504    2.5648  -12.0970 N   0  0  0  0  0  0  0  0  0  0  0  0
    8.0216    1.3758  -11.2681 C   0  0  0  0  0  0  0  0  0  0  0  0
    7.4056    0.4430  -11.5568 N   0  0  0  0  0  0  0  0  0  0  0  0
    5.1211    2.3123   -8.3122 C   0  0  0  0  0  0  0  0  0  0  0  0
    5.4264    2.1354   -6.9600 C   0  0  0  0  0  0  0  0  0  0  0  0
    4.4213    1.4679   -6.2453 C   0  0  0  0  0  0  0  0  0  0  0  0
    4.4412    1.1562   -4.8750 C   0  0  0  0  0  0  0  0  0  0  0  0
    5.4508    1.7388   -3.9778 C   0  0  0  0  0  0  0  0  0  0  0  0
    6.5612    0.9849   -3.5699 C   0  0  0  0  0  0  0  0  0  0  0  0
    7.5349    1.5558   -2.7446 C   0  0  0  0  0  0  0  0  0  0  0  0
    7.4032    2.8893   -2.3199 C   0  0  0  0  0  0  0  0  0  0  0  0
    8.3833    3.4815   -1.5073 C   0  0  0  0  0  0  0  0  0  0  0  0
    8.2351    4.8074   -1.0945 C   0  0  0  0  0  0  0  0  0  0  0  0
    7.1162    5.5474   -1.4713 C   0  0  0  0  0  0  0  0  0  0  0  0
    6.1317    4.9705   -2.2745 C   0  0  0  0  0  0  0  0  0  0  0  0
    6.2737    3.6416   -2.7132 C   0  0  0  0  0  0  0  0  0  0  0  0
    5.3080    3.0615   -3.5461 C   0  0  0  0  0  0  0  0  0  0  0  0
    3.3936    0.3652   -4.3793 C   0  0  0  0  0  0  0  0  0  0  0  0
    2.3510   -0.1026   -5.1742 C   0  0  0  0  0  0  0  0  0  0  0  0
    2.2919    0.2734   -6.5387 C   0  0  0  0  0  0  0  0  0  0  0  0
    1.1284    0.0021   -7.3936 C   0  0  0  0  0  0  0  0  0  0  0  0
    0.8931   -1.1508   -8.1393 C   0  0  0  0  0  0  0  0  0  0  0  0
   -0.2321   -1.0383   -8.9776 C   0  0  0  0  0  0  0  0  0  0  0  0
   -0.8312    0.2061   -8.9175 C   0  0  0  0  0  0  0  0  0  0  0  0
   -2.3365    0.7067   -9.7587 S   0  0  0  0  0  0  0  0  0  0  0  0
   -3.3952   -0.0327   -8.4724 C   0  0  0  0  0  0  0  0  0  0  0  0
   -4.8540    0.3144   -8.7148 C   0  0  0  0  0  0  0  0  0  0  0  0
   -0.0141    1.1630   -7.8047 S   0  0  0  0  0  0  0  0  0  0  0  0
    3.3471    1.0598   -7.0436 C   0  0  0  0  0  0  0  0  0  0  0  0
    3.6328    1.5700   -8.6296 S   0  0  0  0  0  0  0  0  0  0  0  0
    1.4211   -0.8903   -4.4636 C   0  0  0  0  0  0  0  0  0  0  0  0
    1.7374   -1.0297   -3.0984 C   0  0  0  0  0  0  0  0  0  0  0  0
    3.1660   -0.1621   -2.8139 S   0  0  0  0  0  0  0  0  0  0  0  0
    0.9732   -1.7308   -2.0129 C   0  0  0  0  0  0  0  0  0  0  0  0
    1.6637   -2.1772   -0.8619 C   0  0  0  0  0  0  0  0  0  0  0  0
    3.0199   -2.1624   -0.8058 F   0  0  0  0  0  0  0  0  0  0  0  0
    0.9808   -2.6766    0.2477 C   0  0  0  0  0  0  0  0  0  0  0  0
    1.7152   -3.1204    1.3033 F   0  0  0  0  0  0  0  0  0  0  0  0
   -0.4262   -2.7377    0.2713 C   0  0  0  0  0  0  0  0  0  0  0  0
   -1.1219   -2.3705   -0.9040 C   0  0  0  0  0  0  0  0  0  0  0  0
   -2.4784   -2.4532   -0.9531 N   0  0  0  0  0  0  0  0  0  0  0  0
   -3.1904   -2.1659   -2.0726 C   0  0  0  0  0  0  0  0  0  0  0  0
   -4.6919   -2.3293   -2.0008 C   0  0  0  0  0  0  0  0  0  0  0  0
   -5.0692   -3.7898   -2.2141 C   0  0  0  0  0  0  0  0  0  0  0  0
   -2.4928   -1.8123   -3.2490 C   0  0  0  0  0  0  0  0  0  0  0  0
   -1.1438   -1.6299   -3.1768 N   0  0  0  0  0  0  0  0  0  0  0  0
   -0.4318   -1.8998   -2.0470 C   0  0  0  0  0  0  0  0  0  0  0  0
   -3.1815   -1.6367   -4.5877 C   0  0  0  0  0  0  0  0  0  0  0  0
   -2.3841   -2.2801   -5.7241 C   0  0  0  0  0  0  0  0  0  0  0  0
   -1.1242   -3.1747    1.5221 C   0  0  0  0  0  0  0  0  0  0  0  0
   -2.4010   -3.7565    1.6477 C   0  0  0  0  0  0  0  0  0  0  0  0
   -2.7981   -3.9839    2.9889 C   0  0  0  0  0  0  0  0  0  0  0  0
   -4.0725   -4.4100    3.4165 C   0  0  0  0  0  0  0  0  0  0  0  0
   -5.2351   -4.2152    2.5331 C   0  0  0  0  0  0  0  0  0  0  0  0
   -5.7492   -5.2421    1.7324 C   0  0  0  0  0  0  0  0  0  0  0  0
   -6.7523   -4.9642    0.7911 C   0  0  0  0  0  0  0  0  0  0  0  0
   -7.2462   -3.6527    0.6520 C   0  0  0  0  0  0  0  0  0  0  0  0
   -8.2012   -3.3421   -0.3354 C   0  0  0  0  0  0  0  0  0  0  0  0
   -8.6584   -2.0240   -0.4879 C   0  0  0  0  0  0  0  0  0  0  0  0
   -9.8643   -1.6261   -1.7549 S   0  0  0  0  0  0  0  0  0  0  0  0
   -8.6376   -1.2691   -3.0632 C   0  0  0  0  0  0  0  0  0  0  0  0
   -7.9543    0.0775   -2.8439 C   0  0  0  0  0  0  0  0  0  0  0  0
   -8.1923   -1.0198    0.3716 C   0  0  0  0  0  0  0  0  0  0  0  0
   -7.2448   -1.3190    1.3583 C   0  0  0  0  0  0  0  0  0  0  0  0
   -6.7617   -2.6261    1.4978 C   0  0  0  0  0  0  0  0  0  0  0  0
   -5.7657   -2.9204    2.4358 C   0  0  0  0  0  0  0  0  0  0  0  0
   -4.2657   -4.5435    4.8054 C   0  0  0  0  0  0  0  0  0  0  0  0
   -3.3164   -4.1033    5.7424 C   0  0  0  0  0  0  0  0  0  0  0  0
   -2.0665   -3.6030    5.3132 C   0  0  0  0  0  0  0  0  0  0  0  0
   -1.1453   -2.8749    6.2077 C   0  0  0  0  0  0  0  0  0  0  0  0
   -1.5493   -1.6314    6.7073 C   0  0  0  0  0  0  0  0  0  0  0  0
   -0.5864   -0.6925    7.1099 C   0  0  0  0  0  0  0  0  0  0  0  0
   -0.9626    0.6157    7.4449 C   0  0  0  0  0  0  0  0  0  0  0  0
    0.0152    1.6028    7.6194 C   0  0  0  0  0  0  0  0  0  0  0  0
    1.3729    1.2758    7.5094 C   0  0  0  0  0  0  0  0  0  0  0  0
    2.6143    2.5805    7.5310 S   0  0  0  0  0  0  0  0  0  0  0  0
    2.6175    2.8370    5.7128 C   0  0  0  0  0  0  0  0  0  0  0  0
    3.7309    2.0406    5.0405 C   0  0  0  0  0  0  0  0  0  0  0  0
    1.7566   -0.0477    7.2769 C   0  0  0  0  0  0  0  0  0  0  0  0
    0.7908   -1.0344    7.0618 C   0  0  0  0  0  0  0  0  0  0  0  0
    1.1765   -2.3314    6.6986 C   0  0  0  0  0  0  0  0  0  0  0  0
    0.2137   -3.2515    6.2685 C   0  0  0  0  0  0  0  0  0  0  0  0
   -1.8321   -3.5948    3.9209 C   0  0  0  0  0  0  0  0  0  0  0  0
   -0.5257   -2.9405    3.0867 S   0  0  0  0  0  0  0  0  0  0  0  0
   -3.7798   -4.1638    7.0703 C   0  0  0  0  0  0  0  0  0  0  0  0
   -5.0757   -4.6740    7.1608 C   0  0  0  0  0  0  0  0  0  0  0  0
   -5.6280   -5.0877    5.6185 S   0  0  0  0  0  0  0  0  0  0  0  0
   -5.7488   -5.0760    8.4009 C   0  0  0  0  0  0  0  0  0  0  0  0
   -6.1171   -4.2752    9.4281 C   0  0  0  0  0  0  0  0  0  0  0  0
   -6.4755   -4.8508   10.7277 C   0  0  0  0  0  0  0  0  0  0  0  0
   -6.5590   -6.0813   10.9894 O   0  0  0  0  0  0  0  0  0  0  0  0
   -6.6673   -3.7867   11.6768 C   0  0  0  0  0  0  0  0  0  0  0  0
   -7.0042   -3.8949   13.0326 C   0  0  0  0  0  0  0  0  0  0  0  0
   -7.2144   -2.7161   13.7752 C   0  0  0  0  0  0  0  0  0  0  0  0
   -7.6402   -2.7970   15.2135 C   0  0  0  0  0  0  0  0  0  0  0  0
   -7.0740   -1.4627   13.1419 C   0  0  0  0  0  0  0  0  0  0  0  0
   -7.3232   -0.3135   13.8399 F   0  0  0  0  0  0  0  0  0  0  0  0
   -6.6967   -1.3844   11.7907 C   0  0  0  0  0  0  0  0  0  0  0  0
   -6.5132   -2.5725   11.0405 C   0  0  0  0  0  0  0  0  0  0  0  0
   -6.2213   -2.7782    9.5828 C   0  0  0  0  0  0  0  0  0  0  0  0
   -6.3679   -1.8334    8.6153 C   0  0  0  0  0  0  0  0  0  0  0  0
   -6.3427   -2.0665    7.1961 C   0  0  0  0  0  0  0  0  0  0  0  0
   -6.3479   -2.1429    6.0375 N   0  0  0  0  0  0  0  0  0  0  0  0
   -6.7490   -0.4756    8.8939 C   0  0  0  0  0  0  0  0  0  0  0  0
   -7.0996    0.6128    9.0560 N   0  0  0  0  0  0  0  0  0  0  0  0
    5.8780    2.3028  -10.3459 H   0  0  0  0  0  0  0  0  0  0  0  0
    8.9369    6.3126   -6.6078 H   0  0  0  0  0  0  0  0  0  0  0  0
   11.1176    7.4388   -6.1221 H   0  0  0  0  0  0  0  0  0  0  0  0
   10.8480    8.6080   -7.4794 H   0  0  0  0  0  0  0  0  0  0  0  0
   12.3642    7.6267   -7.4105 H   0  0  0  0  0  0  0  0  0  0  0  0
   10.8162    4.9302  -11.0045 H   0  0  0  0  0  0  0  0  0  0  0  0
    6.3783    2.3850   -6.5154 H   0  0  0  0  0  0  0  0  0  0  0  0
    6.6780   -0.0363   -3.9061 H   0  0  0  0  0  0  0  0  0  0  0  0
    8.3872    0.9598   -2.4475 H   0  0  0  0  0  0  0  0  0  0  0  0
    9.2640    2.9193   -1.2154 H   0  0  0  0  0  0  0  0  0  0  0  0
    9.0029    5.2671   -0.4931 H   0  0  0  0  0  0  0  0  0  0  0  0
    7.0024    6.5709   -1.1410 H   0  0  0  0  0  0  0  0  0  0  0  0
    5.2721    5.5561   -2.5722 H   0  0  0  0  0  0  0  0  0  0  0  0
    4.4465    3.6380   -3.8635 H   0  0  0  0  0  0  0  0  0  0  0  0
    1.5078   -2.0345   -8.0925 H   0  0  0  0  0  0  0  0  0  0  0  0
   -0.5832   -1.8330   -9.6322 H   0  0  0  0  0  0  0  0  0  0  0  0
   -3.2720   -1.1371   -8.4965 H   0  0  0  0  0  0  0  0  0  0  0  0
   -3.1022    0.3510   -7.4726 H   0  0  0  0  0  0  0  0  0  0  0  0
   -5.1848   -0.0922   -9.6924 H   0  0  0  0  0  0  0  0  0  0  0  0
   -4.9869    1.4184   -8.7037 H   0  0  0  0  0  0  0  0  0  0  0  0
   -5.4792   -0.1248   -7.9087 H   0  0  0  0  0  0  0  0  0  0  0  0
    0.5834   -1.3574   -4.9427 H   0  0  0  0  0  0  0  0  0  0  0  0
   -5.0423   -2.0139   -0.9944 H   0  0  0  0  0  0  0  0  0  0  0  0
   -5.2149   -1.6735   -2.7192 H   0  0  0  0  0  0  0  0  0  0  0  0
   -4.8258   -4.3744   -1.3042 H   0  0  0  0  0  0  0  0  0  0  0  0
   -4.5272   -4.2284   -3.0692 H   0  0  0  0  0  0  0  0  0  0  0  0
   -6.1628   -3.8769   -2.3996 H   0  0  0  0  0  0  0  0  0  0  0  0
   -4.1742   -2.1316   -4.5977 H   0  0  0  0  0  0  0  0  0  0  0  0
   -3.3257   -0.5548   -4.7943 H   0  0  0  0  0  0  0  0  0  0  0  0
   -3.0459   -2.4566   -6.5890 H   0  0  0  0  0  0  0  0  0  0  0  0
   -1.9690   -3.2661   -5.4178 H   0  0  0  0  0  0  0  0  0  0  0  0
   -1.5520   -1.6103   -6.0343 H   0  0  0  0  0  0  0  0  0  0  0  0
   -3.0312   -4.0314    0.8174 H   0  0  0  0  0  0  0  0  0  0  0  0
   -5.3400   -6.2429    1.8005 H   0  0  0  0  0  0  0  0  0  0  0  0
   -7.1061   -5.7583    0.1497 H   0  0  0  0  0  0  0  0  0  0  0  0
   -8.5813   -4.1184   -0.9876 H   0  0  0  0  0  0  0  0  0  0  0  0
   -7.8815   -2.0821   -3.1261 H   0  0  0  0  0  0  0  0  0  0  0  0
   -9.1824   -1.2306   -4.0342 H   0  0  0  0  0  0  0  0  0  0  0  0
   -7.2049   -0.0016   -2.0313 H   0  0  0  0  0  0  0  0  0  0  0  0
   -7.4312    0.3806   -3.7716 H   0  0  0  0  0  0  0  0  0  0  0  0
   -8.7039    0.8513   -2.5855 H   0  0  0  0  0  0  0  0  0  0  0  0
   -8.5511   -0.0064    0.2724 H   0  0  0  0  0  0  0  0  0  0  0  0
   -6.8871   -0.5214    1.9984 H   0  0  0  0  0  0  0  0  0  0  0  0
   -5.3675   -2.1249    3.0663 H   0  0  0  0  0  0  0  0  0  0  0  0
   -2.5954   -1.3318    6.6432 H   0  0  0  0  0  0  0  0  0  0  0  0
   -2.0050    0.8929    7.5096 H   0  0  0  0  0  0  0  0  0  0  0  0
   -0.2882    2.6288    7.7943 H   0  0  0  0  0  0  0  0  0  0  0  0
    1.6356    2.5623    5.2646 H   0  0  0  0  0  0  0  0  0  0  0  0
    2.7918    3.9170    5.5294 H   0  0  0  0  0  0  0  0  0  0  0  0
    4.7001    2.3043    5.5139 H   0  0  0  0  0  0  0  0  0  0  0  0
    3.7786    2.2871    3.9637 H   0  0  0  0  0  0  0  0  0  0  0  0
    3.5554    0.9520    5.1463 H   0  0  0  0  0  0  0  0  0  0  0  0
    2.8122   -0.2868    7.2027 H   0  0  0  0  0  0  0  0  0  0  0  0
    2.2214   -2.6147    6.6640 H   0  0  0  0  0  0  0  0  0  0  0  0
    0.5234   -4.2146    5.8804 H   0  0  0  0  0  0  0  0  0  0  0  0
   -3.2076   -3.8820    7.9422 H   0  0  0  0  0  0  0  0  0  0  0  0
   -5.8888   -6.1426    8.5156 H   0  0  0  0  0  0  0  0  0  0  0  0
   -7.1364   -4.8655   13.4908 H   0  0  0  0  0  0  0  0  0  0  0  0
   -8.7474   -2.7913   15.2582 H   0  0  0  0  0  0  0  0  0  0  0  0
   -7.2677   -3.7399   15.6795 H   0  0  0  0  0  0  0  0  0  0  0  0
   -7.2499   -1.9334   15.7958 H   0  0  0  0  0  0  0  0  0  0  0  0
   -6.5733   -0.4053   11.3676 H   0  0  0  0  0  0  0  0  0  0  0  0
  1  2  2  3
  2  3  1  0
  3  4  2  0
  3  5  1  0
  5  6  2  0
  6  7  1  0
  7  8  1  0
  7  9  2  0
  9 10  1  0
  9 11  1  0
 11 12  2  0
 12 13  1  0
 13 14  2  3
 14 15  1  0
 15 16  3  0
 14 17  1  0
 17 18  3  0
  1 19  1  0
 19 20  2  0
 20 21  1  0
 21 22  2  0
 22 23  1  0
 23 24  2  0
 24 25  1  0
 25 26  2  0
 26 27  1  0
 27 28  2  0
 28 29  1  0
 29 30  2  0
 30 31  1  0
 31 32  2  0
 22 33  1  0
 33 34  2  0
 34 35  1  0
 35 36  1  0
 36 37  2  0
 37 38  1  0
 38 39  2  0
 39 40  1  0
 40 41  1  0
 41 42  1  0
 39 43  1  0
 35 44  2  0
 44 45  1  0
 34 46  1  0
 46 47  2  0
 47 48  1  0
 47 49  1  0
 49 50  2  0
 50 51  1  0
 50 52  1  0
 52 53  1  0
 52 54  2  0
 54 55  1  0
 55 56  2  0
 56 57  1  0
 57 58  1  0
 58 59  1  0
 57 60  2  0
 60 61  1  0
 61 62  2  0
 60 63  1  0
 63 64  1  0
 54 65  1  0
 65 66  2  0
 66 67  1  0
 67 68  2  0
 68 69  1  0
 69 70  2  0
 70 71  1  0
 71 72  2  0
 72 73  1  0
 73 74  2  0
 74 75  1  0
 75 76  1  0
 76 77  1  0
 74 78  1  0
 78 79  2  0
 79 80  1  0
 80 81  2  0
 68 82  1  0
 82 83  2  0
 83 84  1  0
 84 85  1  0
 85 86  2  0
 86 87  1  0
 87 88  2  0
 88 89  1  0
 89 90  2  0
 90 91  1  0
 91 92  1  0
 92 93  1  0
 90 94  1  0
 94 95  2  0
 95 96  1  0
 96 97  2  0
 84 98  2  0
 98 99  1  0
 83100  1  0
100101  2  0
101102  1  0
101103  1  0
103104  2  3
104105  1  0
105106  2  0
105107  1  0
107108  2  0
108109  1  0
109110  1  0
109111  2  0
111112  1  0
111113  1  0
113114  2  0
114115  1  0
115116  2  3
116117  1  0
117118  3  0
116119  1  0
119120  3  0
 13  2  1  0
 45 19  1  0
 62 49  1  0
 99 65  1  0
115104  1  0
 12  5  1  0
 44 21  1  0
 62 55  1  0
 98 67  1  0
114107  1  0
 32 23  1  0
 48 33  1  0
 81 69  1  0
102 82  1  0
 31 26  1  0
 43 36  1  0
 80 72  1  0
 97 85  1  0
 95 87  1  0
  1121  1  0
  6122  1  0
  8123  1  0
  8124  1  0
  8125  1  0
 11126  1  0
 20127  1  0
 24128  1  0
 25129  1  0
 27130  1  0
 28131  1  0
 29132  1  0
 30133  1  0
 32134  1  0
 37135  1  0
 38136  1  0
 41137  1  0
 41138  1  0
 42139  1  0
 42140  1  0
 42141  1  0
 46142  1  0
 58143  1  0
 58144  1  0
 59145  1  0
 59146  1  0
 59147  1  0
 63148  1  0
 63149  1  0
 64150  1  0
 64151  1  0
 64152  1  0
 66153  1  0
 70154  1  0
 71155  1  0
 73156  1  0
 76157  1  0
 76158  1  0
 77159  1  0
 77160  1  0
 77161  1  0
 78162  1  0
 79163  1  0
 81164  1  0
 86165  1  0
 88166  1  0
 89167  1  0
 92168  1  0
 92169  1  0
 93170  1  0
 93171  1  0
 93172  1  0
 94173  1  0
 96174  1  0
 97175  1  0
100176  1  0
103177  1  0
108178  1  0
110179  1  0
110180  1  0
110181  1  0
113182  1  0
M  END

