
     RDKit          3D

242263  0  0  0  0  0  0  0  0999 V2000
    3.8370   -3.6725   -5.9370 C   0  0  0  0  0  0  0  0  0  0  0  0
    4.9425   -3.2193   -6.5621 C   0  0  0  0  0  0  0  0  0  0  0  0
    5.7614   -4.1320   -7.3771 C   0  0  0  0  0  0  0  0  0  0  0  0
    5.3480   -5.1108   -8.0590 O   0  0  0  0  0  0  0  0  0  0  0  0
    7.1193   -3.6624   -7.2883 C   0  0  0  0  0  0  0  0  0  0  0  0
    8.3070   -4.0259   -7.9201 C   0  0  0  0  0  0  0  0  0  0  0  0
    9.3224   -3.1146   -7.6179 C   0  0  0  0  0  0  0  0  0  0  0  0
    8.6885   -1.8246   -6.6993 S   0  0  0  0  0  0  0  0  0  0  0  0
    7.1370   -2.4773   -6.6147 C   0  0  0  0  0  0  0  0  0  0  0  0
    5.7621   -1.9747   -6.3641 C   0  0  0  0  0  0  0  0  0  0  0  0
    5.3758   -0.8154   -6.9386 C   0  0  0  0  0  0  0  0  0  0  0  0
    6.2899    0.2779   -7.1422 C   0  0  0  0  0  0  0  0  0  0  0  0
    7.0095    1.1717   -7.3126 N   0  0  0  0  0  0  0  0  0  0  0  0
    4.1447   -0.7371   -7.6883 C   0  0  0  0  0  0  0  0  0  0  0  0
    3.1689   -0.7623   -8.2904 N   0  0  0  0  0  0  0  0  0  0  0  0
    3.2854   -3.3172   -4.5967 C   0  0  0  0  0  0  0  0  0  0  0  0
    3.4968   -2.1984   -3.7494 C   0  0  0  0  0  0  0  0  0  0  0  0
    3.6221   -0.8472   -4.2339 N   0  0  0  0  0  0  0  0  0  0  0  0
    4.7093    0.0049   -3.7986 C   0  0  0  0  0  0  0  0  0  0  0  0
    4.9684    1.2153   -4.4793 C   0  0  0  0  0  0  0  0  0  0  0  0
    5.8072    2.1837   -3.9200 C   0  0  0  0  0  0  0  0  0  0  0  0
    6.4022    1.9642   -2.6767 C   0  0  0  0  0  0  0  0  0  0  0  0
    7.3264    3.2666   -1.8720 S   0  0  0  0  0  0  0  0  0  0  0  0
    5.8578    3.9973   -1.0764 C   0  0  0  0  0  0  0  0  0  0  0  0
    6.2117    0.7426   -2.0227 C   0  0  0  0  0  0  0  0  0  0  0  0
    5.4158   -0.2506   -2.6038 C   0  0  0  0  0  0  0  0  0  0  0  0
    2.3946   -0.2200   -4.6946 C   0  0  0  0  0  0  0  0  0  0  0  0
    1.9351    0.9834   -4.1197 C   0  0  0  0  0  0  0  0  0  0  0  0
    0.8843    1.6938   -4.7078 C   0  0  0  0  0  0  0  0  0  0  0  0
    0.2825    1.2045   -5.8716 C   0  0  0  0  0  0  0  0  0  0  0  0
   -0.8474    2.2176   -6.8278 S   0  0  0  0  0  0  0  0  0  0  0  0
    0.4687    3.2933   -7.4905 C   0  0  0  0  0  0  0  0  0  0  0  0
    0.6164   -0.0651   -6.3420 C   0  0  0  0  0  0  0  0  0  0  0  0
    1.6380   -0.7917   -5.7326 C   0  0  0  0  0  0  0  0  0  0  0  0
    2.8772   -2.4234   -2.5076 C   0  0  0  0  0  0  0  0  0  0  0  0
    2.6121   -1.4357   -1.1837 S   0  0  0  0  0  0  0  0  0  0  0  0
    1.4949   -2.4788   -0.4395 C   0  0  0  0  0  0  0  0  0  0  0  0
    1.2443   -3.5743   -1.2950 C   0  0  0  0  0  0  0  0  0  0  0  0
    0.0211   -4.3318   -1.3055 N   0  0  0  0  0  0  0  0  0  0  0  0
    0.0545   -5.7639   -1.1726 C   0  0  0  0  0  0  0  0  0  0  0  0
    0.7863   -6.3666   -0.1313 C   0  0  0  0  0  0  0  0  0  0  0  0
    0.7028   -7.7537    0.0686 C   0  0  0  0  0  0  0  0  0  0  0  0
   -0.1009   -8.5403   -0.7646 C   0  0  0  0  0  0  0  0  0  0  0  0
   -0.2641  -10.3000   -0.4677 S   0  0  0  0  0  0  0  0  0  0  0  0
   -1.8045  -10.1137    0.4860 C   0  0  0  0  0  0  0  0  0  0  0  0
   -0.7883   -7.9539   -1.8284 C   0  0  0  0  0  0  0  0  0  0  0  0
   -0.7160   -6.5745   -2.0311 C   0  0  0  0  0  0  0  0  0  0  0  0
   -1.2112   -3.6872   -1.6976 C   0  0  0  0  0  0  0  0  0  0  0  0
   -1.2421   -2.7891   -2.7825 C   0  0  0  0  0  0  0  0  0  0  0  0
   -2.4443   -2.2005   -3.1774 C   0  0  0  0  0  0  0  0  0  0  0  0
   -3.6235   -2.4676   -2.4742 C   0  0  0  0  0  0  0  0  0  0  0  0
   -5.1331   -1.6058   -2.9227 S   0  0  0  0  0  0  0  0  0  0  0  0
   -6.0563   -3.0984   -3.4190 C   0  0  0  0  0  0  0  0  0  0  0  0
   -3.6003   -3.3390   -1.3796 C   0  0  0  0  0  0  0  0  0  0  0  0
   -2.4108   -3.9759   -1.0128 C   0  0  0  0  0  0  0  0  0  0  0  0
    2.1036   -3.5353   -2.4021 C   0  0  0  0  0  0  0  0  0  0  0  0
    2.2142   -4.4022   -3.8179 S   0  0  0  0  0  0  0  0  0  0  0  0
    0.8586   -2.1488    0.8453 C   0  0  0  0  0  0  0  0  0  0  0  0
    1.5173   -1.4659    1.8806 C   0  0  0  0  0  0  0  0  0  0  0  0
    2.7962   -1.9360    2.3616 N   0  0  0  0  0  0  0  0  0  0  0  0
    2.8209   -2.9774    3.3699 C   0  0  0  0  0  0  0  0  0  0  0  0
    3.7190   -2.8937    4.4467 C   0  0  0  0  0  0  0  0  0  0  0  0
    3.9114   -3.9849    5.2984 C   0  0  0  0  0  0  0  0  0  0  0  0
    3.2065   -5.1711    5.0805 C   0  0  0  0  0  0  0  0  0  0  0  0
    3.5536   -6.6265    6.0684 S   0  0  0  0  0  0  0  0  0  0  0  0
    4.8817   -7.2012    4.9564 C   0  0  0  0  0  0  0  0  0  0  0  0
    2.2563   -5.2410    4.0565 C   0  0  0  0  0  0  0  0  0  0  0  0
    2.0549   -4.1459    3.2060 C   0  0  0  0  0  0  0  0  0  0  0  0
    4.0497   -1.4849    1.8203 C   0  0  0  0  0  0  0  0  0  0  0  0
    4.3384   -0.1115    1.7209 C   0  0  0  0  0  0  0  0  0  0  0  0
    5.6697    0.3187    1.5650 C   0  0  0  0  0  0  0  0  0  0  0  0
    6.7165   -0.6123    1.5289 C   0  0  0  0  0  0  0  0  0  0  0  0
    8.4168   -0.0897    1.7848 S   0  0  0  0  0  0  0  0  0  0  0  0
    8.9713   -0.2451    0.0570 C   0  0  0  0  0  0  0  0  0  0  0  0
    6.4164   -1.9789    1.4976 C   0  0  0  0  0  0  0  0  0  0  0  0
    5.0919   -2.4082    1.6150 C   0  0  0  0  0  0  0  0  0  0  0  0
    0.5885   -0.9172    2.7708 C   0  0  0  0  0  0  0  0  0  0  0  0
    0.5670    0.6576    3.3286 S   0  0  0  0  0  0  0  0  0  0  0  0
   -1.1171    0.8926    3.3938 C   0  0  0  0  0  0  0  0  0  0  0  0
   -1.6889   -0.3575    3.0473 C   0  0  0  0  0  0  0  0  0  0  0  0
   -3.0604   -0.7839    3.3093 N   0  0  0  0  0  0  0  0  0  0  0  0
   -3.3603   -2.1920    3.2396 C   0  0  0  0  0  0  0  0  0  0  0  0
   -4.2222   -2.7032    2.2564 C   0  0  0  0  0  0  0  0  0  0  0  0
   -4.4519   -4.0833    2.1677 C   0  0  0  0  0  0  0  0  0  0  0  0
   -3.7963   -4.9637    3.0374 C   0  0  0  0  0  0  0  0  0  0  0  0
   -3.9891   -6.7368    2.8502 S   0  0  0  0  0  0  0  0  0  0  0  0
   -5.2763   -6.8707    4.1328 C   0  0  0  0  0  0  0  0  0  0  0  0
   -2.9360   -4.4551    4.0191 C   0  0  0  0  0  0  0  0  0  0  0  0
   -2.7320   -3.0792    4.1340 C   0  0  0  0  0  0  0  0  0  0  0  0
   -3.9799    0.0035    4.0973 C   0  0  0  0  0  0  0  0  0  0  0  0
   -3.5825    0.5786    5.3192 C   0  0  0  0  0  0  0  0  0  0  0  0
   -4.4707    1.3757    6.0437 C   0  0  0  0  0  0  0  0  0  0  0  0
   -5.7715    1.5991    5.5669 C   0  0  0  0  0  0  0  0  0  0  0  0
   -6.8753    2.7013    6.4538 S   0  0  0  0  0  0  0  0  0  0  0  0
   -7.6969    1.3549    7.3651 C   0  0  0  0  0  0  0  0  0  0  0  0
   -6.1888    0.9948    4.3759 C   0  0  0  0  0  0  0  0  0  0  0  0
   -5.2987    0.1941    3.6544 C   0  0  0  0  0  0  0  0  0  0  0  0
   -0.7211   -1.2462    2.5535 C   0  0  0  0  0  0  0  0  0  0  0  0
   -0.8092   -2.1310    1.1307 S   0  0  0  0  0  0  0  0  0  0  0  0
   -1.7278    2.2104    3.0230 C   0  0  0  0  0  0  0  0  0  0  0  0
   -1.0049    3.4046    2.7393 C   0  0  0  0  0  0  0  0  0  0  0  0
   -0.0810    4.0151    3.6556 N   0  0  0  0  0  0  0  0  0  0  0  0
   -0.4834    5.2305    4.3198 C   0  0  0  0  0  0  0  0  0  0  0  0
   -1.7281    5.3062    4.9698 C   0  0  0  0  0  0  0  0  0  0  0  0
   -2.1471    6.5057    5.5514 C   0  0  0  0  0  0  0  0  0  0  0  0
   -1.3368    7.6540    5.4774 C   0  0  0  0  0  0  0  0  0  0  0  0
   -1.7739    8.9407    6.1022 C   0  0  0  0  0  0  0  0  0  0  0  0
   -0.0893    7.5749    4.8415 C   0  0  0  0  0  0  0  0  0  0  0  0
    0.3319    6.3729    4.2673 C   0  0  0  0  0  0  0  0  0  0  0  0
    1.2935    3.6103    3.7510 C   0  0  0  0  0  0  0  0  0  0  0  0
    1.8581    3.3651    5.0102 C   0  0  0  0  0  0  0  0  0  0  0  0
    3.2194    3.0694    5.1315 C   0  0  0  0  0  0  0  0  0  0  0  0
    4.0394    3.0383    3.9949 C   0  0  0  0  0  0  0  0  0  0  0  0
    5.4976    2.7339    4.1364 C   0  0  0  0  0  0  0  0  0  0  0  0
    3.4709    3.2763    2.7300 C   0  0  0  0  0  0  0  0  0  0  0  0
    2.1042    3.5525    2.6081 C   0  0  0  0  0  0  0  0  0  0  0  0
   -1.6900    4.1971    1.8159 C   0  0  0  0  0  0  0  0  0  0  0  0
   -1.1871    5.4326    0.7934 S   0  0  0  0  0  0  0  0  0  0  0  0
   -2.6294    5.4380   -0.1138 C   0  0  0  0  0  0  0  0  0  0  0  0
   -3.5365    4.5106    0.4258 C   0  0  0  0  0  0  0  0  0  0  0  0
   -4.9236    4.4064    0.0149 N   0  0  0  0  0  0  0  0  0  0  0  0
   -5.6452    5.5982   -0.3768 C   0  0  0  0  0  0  0  0  0  0  0  0
   -5.4401    6.8178    0.2952 C   0  0  0  0  0  0  0  0  0  0  0  0
   -6.1810    7.9533   -0.0493 C   0  0  0  0  0  0  0  0  0  0  0  0
   -7.1711    7.8766   -1.0352 C   0  0  0  0  0  0  0  0  0  0  0  0
   -7.9607    9.0985   -1.3930 C   0  0  0  0  0  0  0  0  0  0  0  0
   -7.3867    6.6628   -1.7072 C   0  0  0  0  0  0  0  0  0  0  0  0
   -6.6288    5.5334   -1.3784 C   0  0  0  0  0  0  0  0  0  0  0  0
   -5.6821    3.2097    0.2682 C   0  0  0  0  0  0  0  0  0  0  0  0
   -5.3418    2.0013   -0.3560 C   0  0  0  0  0  0  0  0  0  0  0  0
   -6.1187    0.8582   -0.1375 C   0  0  0  0  0  0  0  0  0  0  0  0
   -7.2456    0.9164    0.6901 C   0  0  0  0  0  0  0  0  0  0  0  0
   -8.0863   -0.3098    0.8963 C   0  0  0  0  0  0  0  0  0  0  0  0
   -7.5867    2.1283    1.3128 C   0  0  0  0  0  0  0  0  0  0  0  0
   -6.8008    3.2607    1.1112 C   0  0  0  0  0  0  0  0  0  0  0  0
   -2.9296    3.7844    1.4568 C   0  0  0  0  0  0  0  0  0  0  0  0
   -3.2049    2.3031    2.1672 S   0  0  0  0  0  0  0  0  0  0  0  0
   -2.6932    5.8939   -1.5164 C   0  0  0  0  0  0  0  0  0  0  0  0
   -2.7096    5.0136   -2.5295 C   0  0  0  0  0  0  0  0  0  0  0  0
   -2.4381    3.5658   -2.4197 C   0  0  0  0  0  0  0  0  0  0  0  0
   -1.9827    2.9498   -1.4206 O   0  0  0  0  0  0  0  0  0  0  0  0
   -2.6993    2.9482   -3.6929 C   0  0  0  0  0  0  0  0  0  0  0  0
   -3.2304    1.6890   -3.9626 C   0  0  0  0  0  0  0  0  0  0  0  0
   -3.9426    1.6713   -5.1621 C   0  0  0  0  0  0  0  0  0  0  0  0
   -3.9833    3.2491   -5.7831 S   0  0  0  0  0  0  0  0  0  0  0  0
   -2.9802    3.9236   -4.6062 C   0  0  0  0  0  0  0  0  0  0  0  0
   -3.0034    5.2658   -3.9756 C   0  0  0  0  0  0  0  0  0  0  0  0
   -3.4354    6.3878   -4.5803 C   0  0  0  0  0  0  0  0  0  0  0  0
   -3.5654    6.4143   -6.0060 C   0  0  0  0  0  0  0  0  0  0  0  0
   -3.6924    6.4187   -7.1543 N   0  0  0  0  0  0  0  0  0  0  0  0
   -4.2408    7.3398   -3.8625 C   0  0  0  0  0  0  0  0  0  0  0  0
   -4.9609    8.0850   -3.3225 N   0  0  0  0  0  0  0  0  0  0  0  0
    3.4368   -4.6122   -6.3005 H   0  0  0  0  0  0  0  0  0  0  0  0
    8.4074   -4.8537   -8.6302 H   0  0  0  0  0  0  0  0  0  0  0  0
   10.3444   -3.2303   -7.9516 H   0  0  0  0  0  0  0  0  0  0  0  0
    4.4573    1.4386   -5.4100 H   0  0  0  0  0  0  0  0  0  0  0  0
    5.9648    3.1241   -4.4333 H   0  0  0  0  0  0  0  0  0  0  0  0
    5.2121    3.1985   -0.6568 H   0  0  0  0  0  0  0  0  0  0  0  0
    6.1868    4.6647   -0.2543 H   0  0  0  0  0  0  0  0  0  0  0  0
    5.2806    4.5879   -1.8180 H   0  0  0  0  0  0  0  0  0  0  0  0
    6.6276    0.5716   -1.0400 H   0  0  0  0  0  0  0  0  0  0  0  0
    5.2741   -1.1758   -2.0559 H   0  0  0  0  0  0  0  0  0  0  0  0
    2.4374    1.4063   -3.2583 H   0  0  0  0  0  0  0  0  0  0  0  0
    0.5934    2.6583   -4.3087 H   0  0  0  0  0  0  0  0  0  0  0  0
    1.4034    2.7268   -7.6852 H   0  0  0  0  0  0  0  0  0  0  0  0
    0.6713    4.0931   -6.7453 H   0  0  0  0  0  0  0  0  0  0  0  0
    0.1259    3.7685   -8.4371 H   0  0  0  0  0  0  0  0  0  0  0  0
    0.1221   -0.4639   -7.2171 H   0  0  0  0  0  0  0  0  0  0  0  0
    1.8978   -1.7464   -6.1528 H   0  0  0  0  0  0  0  0  0  0  0  0
    1.3947   -5.7715    0.5261 H   0  0  0  0  0  0  0  0  0  0  0  0
    1.2356   -8.2077    0.8935 H   0  0  0  0  0  0  0  0  0  0  0  0
   -2.1606  -11.1146    0.8105 H   0  0  0  0  0  0  0  0  0  0  0  0
   -2.5851   -9.6412   -0.1496 H   0  0  0  0  0  0  0  0  0  0  0  0
   -1.6183   -9.4849    1.3828 H   0  0  0  0  0  0  0  0  0  0  0  0
   -1.4074   -8.5535   -2.4774 H   0  0  0  0  0  0  0  0  0  0  0  0
   -1.2621   -6.1332   -2.8586 H   0  0  0  0  0  0  0  0  0  0  0  0
   -0.3464   -2.5485   -3.3282 H   0  0  0  0  0  0  0  0  0  0  0  0
   -2.4577   -1.5177   -4.0087 H   0  0  0  0  0  0  0  0  0  0  0  0
   -6.2349   -3.7380   -2.5185 H   0  0  0  0  0  0  0  0  0  0  0  0
   -5.5129   -3.6847   -4.1957 H   0  0  0  0  0  0  0  0  0  0  0  0
   -7.0504   -2.7848   -3.8137 H   0  0  0  0  0  0  0  0  0  0  0  0
   -4.5090   -3.5318   -0.8199 H   0  0  0  0  0  0  0  0  0  0  0  0
   -2.4068   -4.6614   -0.1756 H   0  0  0  0  0  0  0  0  0  0  0  0
    4.3064   -1.9958    4.5966 H   0  0  0  0  0  0  0  0  0  0  0  0
    4.6382   -3.9210    6.0952 H   0  0  0  0  0  0  0  0  0  0  0  0
    4.5354   -7.1971    3.8968 H   0  0  0  0  0  0  0  0  0  0  0  0
    5.1621   -8.2394    5.2361 H   0  0  0  0  0  0  0  0  0  0  0  0
    5.7724   -6.5417    5.0620 H   0  0  0  0  0  0  0  0  0  0  0  0
    1.7084   -6.1613    3.8819 H   0  0  0  0  0  0  0  0  0  0  0  0
    1.3567   -4.2465    2.3922 H   0  0  0  0  0  0  0  0  0  0  0  0
    3.5526    0.6178    1.8600 H   0  0  0  0  0  0  0  0  0  0  0  0
    5.8875    1.3800    1.5611 H   0  0  0  0  0  0  0  0  0  0  0  0
    8.4392   -1.0669   -0.4716 H   0  0  0  0  0  0  0  0  0  0  0  0
    8.8201    0.7177   -0.4722 H   0  0  0  0  0  0  0  0  0  0  0  0
   10.0630   -0.4755    0.0536 H   0  0  0  0  0  0  0  0  0  0  0  0
    7.2099   -2.7147    1.4528 H   0  0  0  0  0  0  0  0  0  0  0  0
    4.8896   -3.4719    1.6572 H   0  0  0  0  0  0  0  0  0  0  0  0
   -4.6882   -2.0380    1.5394 H   0  0  0  0  0  0  0  0  0  0  0  0
   -5.1146   -4.4662    1.4036 H   0  0  0  0  0  0  0  0  0  0  0  0
   -4.9319   -6.4112    5.0851 H   0  0  0  0  0  0  0  0  0  0  0  0
   -5.4948   -7.9437    4.3171 H   0  0  0  0  0  0  0  0  0  0  0  0
   -6.2053   -6.3672    3.7924 H   0  0  0  0  0  0  0  0  0  0  0  0
   -2.4268   -5.1291    4.6974 H   0  0  0  0  0  0  0  0  0  0  0  0
   -2.0655   -2.6996    4.8945 H   0  0  0  0  0  0  0  0  0  0  0  0
   -2.5836    0.4251    5.7002 H   0  0  0  0  0  0  0  0  0  0  0  0
   -4.1468    1.8461    6.9651 H   0  0  0  0  0  0  0  0  0  0  0  0
   -8.2450    0.6970    6.6563 H   0  0  0  0  0  0  0  0  0  0  0  0
   -6.9529    0.7543    7.9310 H   0  0  0  0  0  0  0  0  0  0  0  0
   -8.4228    1.7930    8.0804 H   0  0  0  0  0  0  0  0  0  0  0  0
   -7.1932    1.1471    4.0088 H   0  0  0  0  0  0  0  0  0  0  0  0
   -5.6243   -0.2453    2.7258 H   0  0  0  0  0  0  0  0  0  0  0  0
   -2.3766    4.4397    5.0119 H   0  0  0  0  0  0  0  0  0  0  0  0
   -3.1080    6.5461    6.0447 H   0  0  0  0  0  0  0  0  0  0  0  0
   -1.6480    9.7717    5.3722 H   0  0  0  0  0  0  0  0  0  0  0  0
   -1.1501    9.1558    6.9980 H   0  0  0  0  0  0  0  0  0  0  0  0
   -2.8387    8.9044    6.4044 H   0  0  0  0  0  0  0  0  0  0  0  0
    0.5498    8.4466    4.7831 H   0  0  0  0  0  0  0  0  0  0  0  0
    1.2849    6.3406    3.7455 H   0  0  0  0  0  0  0  0  0  0  0  0
    1.2435    3.4118    5.8995 H   0  0  0  0  0  0  0  0  0  0  0  0
    3.6354    2.8843    6.1135 H   0  0  0  0  0  0  0  0  0  0  0  0
    5.9064    3.2210    5.0506 H   0  0  0  0  0  0  0  0  0  0  0  0
    6.0748    3.1066    3.2704 H   0  0  0  0  0  0  0  0  0  0  0  0
    5.6324    1.6360    4.2325 H   0  0  0  0  0  0  0  0  0  0  0  0
    4.0901    3.2528    1.8365 H   0  0  0  0  0  0  0  0  0  0  0  0
    1.6825    3.7538    1.6268 H   0  0  0  0  0  0  0  0  0  0  0  0
   -4.7058    6.8871    1.0938 H   0  0  0  0  0  0  0  0  0  0  0  0
   -5.9927    8.8811    0.4733 H   0  0  0  0  0  0  0  0  0  0  0  0
   -7.3348    9.7925   -1.9954 H   0  0  0  0  0  0  0  0  0  0  0  0
   -8.2815    9.6226   -0.4672 H   0  0  0  0  0  0  0  0  0  0  0  0
   -8.8677    8.8334   -1.9677 H   0  0  0  0  0  0  0  0  0  0  0  0
   -8.1375    6.5839   -2.4758 H   0  0  0  0  0  0  0  0  0  0  0  0
   -6.8067    4.5976   -1.9040 H   0  0  0  0  0  0  0  0  0  0  0  0
   -4.4826    1.9477   -1.0139 H   0  0  0  0  0  0  0  0  0  0  0  0
   -5.8378   -0.0715   -0.6091 H   0  0  0  0  0  0  0  0  0  0  0  0
   -7.4587   -1.1424    1.2863 H   0  0  0  0  0  0  0  0  0  0  0  0
   -8.9112   -0.1263    1.6175 H   0  0  0  0  0  0  0  0  0  0  0  0
   -8.5271   -0.6278   -0.0754 H   0  0  0  0  0  0  0  0  0  0  0  0
   -8.4633    2.1958    1.9401 H   0  0  0  0  0  0  0  0  0  0  0  0
   -7.0825    4.1905    1.5919 H   0  0  0  0  0  0  0  0  0  0  0  0
   -2.7892    6.9570   -1.6937 H   0  0  0  0  0  0  0  0  0  0  0  0
   -3.2277    0.8840   -3.2520 H   0  0  0  0  0  0  0  0  0  0  0  0
   -4.5159    0.8350   -5.5263 H   0  0  0  0  0  0  0  0  0  0  0  0
  1  2  2  3
  2  3  1  0
  3  4  2  0
  3  5  1  0
  5  6  1  0
  6  7  2  0
  7  8  1  0
  8  9  1  0
  9 10  1  0
 10 11  2  3
 11 12  1  0
 12 13  3  0
 11 14  1  0
 14 15  3  0
  1 16  1  0
 16 17  2  0
 17 18  1  0
 18 19  1  0
 19 20  2  0
 20 21  1  0
 21 22  2  0
 22 23  1  0
 23 24  1  0
 22 25  1  0
 25 26  2  0
 18 27  1  0
 27 28  2  0
 28 29  1  0
 29 30  2  0
 30 31  1  0
 31 32  1  0
 30 33  1  0
 33 34  2  0
 17 35  1  0
 35 36  1  0
 36 37  1  0
 37 38  2  0
 38 39  1  0
 39 40  1  0
 40 41  2  0
 41 42  1  0
 42 43  2  0
 43 44  1  0
 44 45  1  0
 43 46  1  0
 46 47  2  0
 39 48  1  0
 48 49  2  0
 49 50  1  0
 50 51  2  0
 51 52  1  0
 52 53  1  0
 51 54  1  0
 54 55  2  0
 38 56  1  0
 56 57  1  0
 37 58  1  0
 58 59  2  0
 59 60  1  0
 60 61  1  0
 61 62  2  0
 62 63  1  0
 63 64  2  0
 64 65  1  0
 65 66  1  0
 64 67  1  0
 67 68  2  0
 60 69  1  0
 69 70  2  0
 70 71  1  0
 71 72  2  0
 72 73  1  0
 73 74  1  0
 72 75  1  0
 75 76  2  0
 59 77  1  0
 77 78  1  0
 78 79  1  0
 79 80  2  0
 80 81  1  0
 81 82  1  0
 82 83  2  0
 83 84  1  0
 84 85  2  0
 85 86  1  0
 86 87  1  0
 85 88  1  0
 88 89  2  0
 81 90  1  0
 90 91  2  0
 91 92  1  0
 92 93  2  0
 93 94  1  0
 94 95  1  0
 93 96  1  0
 96 97  2  0
 80 98  1  0
 98 99  1  0
 79100  1  0
100101  2  0
101102  1  0
102103  1  0
103104  2  0
104105  1  0
105106  2  0
106107  1  0
106108  1  0
108109  2  0
102110  1  0
110111  2  0
111112  1  0
112113  2  0
113114  1  0
113115  1  0
115116  2  0
101117  1  0
117118  1  0
118119  1  0
119120  2  0
120121  1  0
121122  1  0
122123  2  0
123124  1  0
124125  2  0
125126  1  0
125127  1  0
127128  2  0
121129  1  0
129130  2  0
130131  1  0
131132  2  0
132133  1  0
132134  1  0
134135  2  0
120136  1  0
136137  1  0
119138  1  0
138139  2  3
139140  1  0
140141  2  0
140142  1  0
142143  1  0
143144  2  0
144145  1  0
145146  1  0
146147  1  0
147148  2  3
148149  1  0
149150  3  0
148151  1  0
151152  3  0
 10  2  1  0
 57 16  1  0
 99 58  1  0
137100  1  0
147139  1  0
  9  5  2  0
 26 19  1  0
 34 27  1  0
 56 35  2  0
 68 61  1  0
 76 69  1  0
 98 77  2  0
109103  1  0
116110  1  0
136117  2  0
146142  2  0
 47 40  1  0
 55 48  1  0
 89 82  1  0
 97 90  1  0
128122  1  0
135129  1  0
  1153  1  0
  6154  1  0
  7155  1  0
 20156  1  0
 21157  1  0
 24158  1  0
 24159  1  0
 24160  1  0
 25161  1  0
 26162  1  0
 28163  1  0
 29164  1  0
 32165  1  0
 32166  1  0
 32167  1  0
 33168  1  0
 34169  1  0
 41170  1  0
 42171  1  0
 45172  1  0
 45173  1  0
 45174  1  0
 46175  1  0
 47176  1  0
 49177  1  0
 50178  1  0
 53179  1  0
 53180  1  0
 53181  1  0
 54182  1  0
 55183  1  0
 62184  1  0
 63185  1  0
 66186  1  0
 66187  1  0
 66188  1  0
 67189  1  0
 68190  1  0
 70191  1  0
 71192  1  0
 74193  1  0
 74194  1  0
 74195  1  0
 75196  1  0
 76197  1  0
 83198  1  0
 84199  1  0
 87200  1  0
 87201  1  0
 87202  1  0
 88203  1  0
 89204  1  0
 91205  1  0
 92206  1  0
 95207  1  0
 95208  1  0
 95209  1  0
 96210  1  0
 97211  1  0
104212  1  0
105213  1  0
107214  1  0
107215  1  0
107216  1  0
108217  1  0
109218  1  0
111219  1  0
112220  1  0
114221  1  0
114222  1  0
114223  1  0
115224  1  0
116225  1  0
123226  1  0
124227  1  0
126228  1  0
126229  1  0
126230  1  0
127231  1  0
128232  1  0
130233  1  0
131234  1  0
133235  1  0
133236  1  0
133237  1  0
134238  1  0
135239  1  0
138240  1  0
143241  1  0
144242  1  0
M  END

