
     RDKit          3D

127138  0  0  0  0  0  0  0  0999 V2000
   -2.7649    5.6908    5.6832 C   0  0  0  0  0  0  0  0  0  0  0  0
   -3.0496    5.9932    4.3967 C   0  0  0  0  0  0  0  0  0  0  0  0
   -2.8234    5.0945    3.2531 C   0  0  0  0  0  0  0  0  0  0  0  0
   -2.2327    3.9797    3.2707 O   0  0  0  0  0  0  0  0  0  0  0  0
   -3.4660    5.6489    2.0911 C   0  0  0  0  0  0  0  0  0  0  0  0
   -3.5267    5.0961    0.8153 C   0  0  0  0  0  0  0  0  0  0  0  0
   -4.2249    5.7835   -0.1935 C   0  0  0  0  0  0  0  0  0  0  0  0
   -4.2781    5.1932   -1.5797 C   0  0  0  0  0  0  0  0  0  0  0  0
   -4.8633    7.0178    0.1108 C   0  0  0  0  0  0  0  0  0  0  0  0
   -5.6021    7.7902   -0.9525 C   0  0  0  0  0  0  0  0  0  0  0  0
   -4.7902    7.5422    1.4243 C   0  0  0  0  0  0  0  0  0  0  0  0
   -4.0749    6.8458    2.4166 C   0  0  0  0  0  0  0  0  0  0  0  0
   -3.8075    7.1698    3.8572 C   0  0  0  0  0  0  0  0  0  0  0  0
   -4.0419    8.3530    4.4889 C   0  0  0  0  0  0  0  0  0  0  0  0
   -4.7470    9.4406    3.8695 C   0  0  0  0  0  0  0  0  0  0  0  0
   -5.3225   10.3212    3.3751 N   0  0  0  0  0  0  0  0  0  0  0  0
   -3.5159    8.6504    5.7989 C   0  0  0  0  0  0  0  0  0  0  0  0
   -3.0931    8.8993    6.8465 N   0  0  0  0  0  0  0  0  0  0  0  0
   -1.9654    4.5012    6.0341 C   0  0  0  0  0  0  0  0  0  0  0  0
   -0.6197    4.4480    5.6464 C   0  0  0  0  0  0  0  0  0  0  0  0
    0.0552    3.2261    5.5630 C   0  0  0  0  0  0  0  0  0  0  0  0
    1.2891    3.2300    4.9960 F   0  0  0  0  0  0  0  0  0  0  0  0
   -0.5999    2.0138    5.8896 C   0  0  0  0  0  0  0  0  0  0  0  0
   -1.8880    2.0901    6.4523 C   0  0  0  0  0  0  0  0  0  0  0  0
   -2.5769    3.3380    6.5152 C   0  0  0  0  0  0  0  0  0  0  0  0
   -3.8543    3.3106    6.9724 N   0  0  0  0  0  0  0  0  0  0  0  0
   -4.0238    1.6981    7.2877 S   0  0  0  0  0  0  0  0  0  0  0  0
   -2.5825    1.0013    6.8726 N   0  0  0  0  0  0  0  0  0  0  0  0
   -0.0994    0.7273    5.3389 C   0  0  0  0  0  0  0  0  0  0  0  0
    1.2361    0.4446    5.0268 C   0  0  0  0  0  0  0  0  0  0  0  0
    1.3840   -0.4850    3.9825 C   0  0  0  0  0  0  0  0  0  0  0  0
    2.5835   -0.7623    3.3035 C   0  0  0  0  0  0  0  0  0  0  0  0
    3.8835   -0.2469    3.7806 C   0  0  0  0  0  0  0  0  0  0  0  0
    4.4417   -0.7621    4.9630 C   0  0  0  0  0  0  0  0  0  0  0  0
    5.6758   -0.2901    5.4193 C   0  0  0  0  0  0  0  0  0  0  0  0
    6.3563    0.7014    4.7029 C   0  0  0  0  0  0  0  0  0  0  0  0
    5.8017    1.2244    3.5270 C   0  0  0  0  0  0  0  0  0  0  0  0
    6.6757    2.4886    2.6052 S   0  0  0  0  0  0  0  0  0  0  0  0
    5.8856    3.8714    3.4968 C   0  0  0  0  0  0  0  0  0  0  0  0
    6.4882    5.1916    3.0417 C   0  0  0  0  0  0  0  0  0  0  0  0
    4.5646    0.7543    3.0684 C   0  0  0  0  0  0  0  0  0  0  0  0
    2.4768   -1.4827    2.1009 C   0  0  0  0  0  0  0  0  0  0  0  0
    1.2583   -1.9820    1.6210 C   0  0  0  0  0  0  0  0  0  0  0  0
    0.0659   -1.7653    2.3408 C   0  0  0  0  0  0  0  0  0  0  0  0
   -1.2504   -2.2225    1.8346 C   0  0  0  0  0  0  0  0  0  0  0  0
   -2.2415   -1.2890    1.4842 C   0  0  0  0  0  0  0  0  0  0  0  0
   -3.5004   -1.7256    1.0597 C   0  0  0  0  0  0  0  0  0  0  0  0
   -3.7743   -3.0921    0.9653 C   0  0  0  0  0  0  0  0  0  0  0  0
   -2.7856   -4.0299    1.2850 C   0  0  0  0  0  0  0  0  0  0  0  0
   -3.1250   -5.7831    1.0948 S   0  0  0  0  0  0  0  0  0  0  0  0
   -3.5337   -6.0675    2.8586 C   0  0  0  0  0  0  0  0  0  0  0  0
   -5.0110   -5.7917    3.1244 C   0  0  0  0  0  0  0  0  0  0  0  0
   -1.5250   -3.5971    1.7219 C   0  0  0  0  0  0  0  0  0  0  0  0
    0.1678   -0.9825    3.5068 C   0  0  0  0  0  0  0  0  0  0  0  0
   -1.0767   -0.2604    4.3755 S   0  0  0  0  0  0  0  0  0  0  0  0
    1.3597   -2.5312    0.3297 C   0  0  0  0  0  0  0  0  0  0  0  0
    2.6405   -2.4167   -0.2108 C   0  0  0  0  0  0  0  0  0  0  0  0
    3.6580   -1.6865    0.9193 S   0  0  0  0  0  0  0  0  0  0  0  0
    2.9814   -2.6264   -1.6239 C   0  0  0  0  0  0  0  0  0  0  0  0
    3.8104   -1.8006   -2.3760 C   0  0  0  0  0  0  0  0  0  0  0  0
    3.8604   -2.1425   -3.7411 C   0  0  0  0  0  0  0  0  0  0  0  0
    4.6588   -1.3911   -4.7446 C   0  0  0  0  0  0  0  0  0  0  0  0
    4.9892   -1.9476   -5.8250 O   0  0  0  0  0  0  0  0  0  0  0  0
    5.0918    0.0330   -4.5127 C   0  0  0  0  0  0  0  0  0  0  0  0
    3.8999    0.9863   -4.5728 C   0  0  0  0  0  0  0  0  0  0  0  0
    3.0870   -3.2721   -4.0422 C   0  0  0  0  0  0  0  0  0  0  0  0
    2.2992   -3.7784   -2.6357 S   0  0  0  0  0  0  0  0  0  0  0  0
    2.8293   -3.8206   -5.3853 C   0  0  0  0  0  0  0  0  0  0  0  0
    2.7385   -5.1348   -5.6589 C   0  0  0  0  0  0  0  0  0  0  0  0
    2.0054   -5.6581   -6.8127 C   0  0  0  0  0  0  0  0  0  0  0  0
    1.6419   -4.9977   -7.8246 O   0  0  0  0  0  0  0  0  0  0  0  0
    1.6732   -7.0400   -6.5423 C   0  0  0  0  0  0  0  0  0  0  0  0
    0.8754   -7.9010   -7.2960 C   0  0  0  0  0  0  0  0  0  0  0  0
    0.6100   -9.1879   -6.7899 C   0  0  0  0  0  0  0  0  0  0  0  0
   -0.2595  -10.1411   -7.5588 C   0  0  0  0  0  0  0  0  0  0  0  0
    1.1210   -9.5613   -5.5238 C   0  0  0  0  0  0  0  0  0  0  0  0
    0.8294  -10.7804   -5.0012 F   0  0  0  0  0  0  0  0  0  0  0  0
    1.9170   -8.6726   -4.7824 C   0  0  0  0  0  0  0  0  0  0  0  0
    2.2128   -7.4134   -5.3227 C   0  0  0  0  0  0  0  0  0  0  0  0
    3.0363   -6.3012   -4.7786 C   0  0  0  0  0  0  0  0  0  0  0  0
    4.1267   -6.4396   -3.9845 C   0  0  0  0  0  0  0  0  0  0  0  0
    4.4254   -7.6614   -3.2890 C   0  0  0  0  0  0  0  0  0  0  0  0
    4.6735   -8.6390   -2.7156 N   0  0  0  0  0  0  0  0  0  0  0  0
    5.1554   -5.4313   -3.9244 C   0  0  0  0  0  0  0  0  0  0  0  0
    5.9898   -4.6309   -3.8814 N   0  0  0  0  0  0  0  0  0  0  0  0
   -3.1592    6.2733    6.5009 H   0  0  0  0  0  0  0  0  0  0  0  0
   -3.0354    4.1517    0.6122 H   0  0  0  0  0  0  0  0  0  0  0  0
   -3.7850    4.1979   -1.6215 H   0  0  0  0  0  0  0  0  0  0  0  0
   -3.7600    5.8662   -2.2918 H   0  0  0  0  0  0  0  0  0  0  0  0
   -5.3336    5.0587   -1.8956 H   0  0  0  0  0  0  0  0  0  0  0  0
   -4.8955    8.0793   -1.7622 H   0  0  0  0  0  0  0  0  0  0  0  0
   -6.4034    7.1652   -1.3893 H   0  0  0  0  0  0  0  0  0  0  0  0
   -6.0560    8.7264   -0.5521 H   0  0  0  0  0  0  0  0  0  0  0  0
   -5.3024    8.4613    1.6369 H   0  0  0  0  0  0  0  0  0  0  0  0
   -0.1353    5.3389    5.2648 H   0  0  0  0  0  0  0  0  0  0  0  0
    2.0678    0.9900    5.4511 H   0  0  0  0  0  0  0  0  0  0  0  0
    3.9231   -1.5319    5.5276 H   0  0  0  0  0  0  0  0  0  0  0  0
    6.1051   -0.6858    6.3302 H   0  0  0  0  0  0  0  0  0  0  0  0
    7.3122    1.0602    5.0621 H   0  0  0  0  0  0  0  0  0  0  0  0
    6.0523    3.7529    4.5919 H   0  0  0  0  0  0  0  0  0  0  0  0
    4.7938    3.8728    3.2888 H   0  0  0  0  0  0  0  0  0  0  0  0
    6.0382    6.0260    3.6195 H   0  0  0  0  0  0  0  0  0  0  0  0
    6.2932    5.3493    1.9607 H   0  0  0  0  0  0  0  0  0  0  0  0
    7.5870    5.1883    3.2224 H   0  0  0  0  0  0  0  0  0  0  0  0
    4.1370    1.1573    2.1597 H   0  0  0  0  0  0  0  0  0  0  0  0
   -2.0463   -0.2221    1.5434 H   0  0  0  0  0  0  0  0  0  0  0  0
   -4.2639   -1.0019    0.8003 H   0  0  0  0  0  0  0  0  0  0  0  0
   -4.7517   -3.4219    0.6348 H   0  0  0  0  0  0  0  0  0  0  0  0
   -2.9082   -5.4368    3.5284 H   0  0  0  0  0  0  0  0  0  0  0  0
   -3.3207   -7.1265    3.0931 H   0  0  0  0  0  0  0  0  0  0  0  0
   -5.2471   -4.7222    2.9511 H   0  0  0  0  0  0  0  0  0  0  0  0
   -5.6401   -6.4167    2.4549 H   0  0  0  0  0  0  0  0  0  0  0  0
   -5.2435   -6.0519    4.1826 H   0  0  0  0  0  0  0  0  0  0  0  0
   -0.7644   -4.3248    1.9887 H   0  0  0  0  0  0  0  0  0  0  0  0
    0.5098   -2.8925   -0.2360 H   0  0  0  0  0  0  0  0  0  0  0  0
    4.3268   -0.9529   -1.9461 H   0  0  0  0  0  0  0  0  0  0  0  0
    5.8235    0.3310   -5.2915 H   0  0  0  0  0  0  0  0  0  0  0  0
    5.6021    0.1288   -3.5307 H   0  0  0  0  0  0  0  0  0  0  0  0
    3.3701    0.8814   -5.5450 H   0  0  0  0  0  0  0  0  0  0  0  0
    4.2578    2.0317   -4.4798 H   0  0  0  0  0  0  0  0  0  0  0  0
    3.1885    0.7801   -3.7452 H   0  0  0  0  0  0  0  0  0  0  0  0
    2.5808   -3.1091   -6.1621 H   0  0  0  0  0  0  0  0  0  0  0  0
    0.4645   -7.5770   -8.2459 H   0  0  0  0  0  0  0  0  0  0  0  0
   -0.4194   -9.7898   -8.6001 H   0  0  0  0  0  0  0  0  0  0  0  0
    0.2197  -11.1430   -7.6026 H   0  0  0  0  0  0  0  0  0  0  0  0
   -1.2461  -10.2287   -7.0542 H   0  0  0  0  0  0  0  0  0  0  0  0
    2.2624   -8.9670   -3.8048 H   0  0  0  0  0  0  0  0  0  0  0  0
  1  2  2  3
  2  3  1  0
  3  4  2  0
  3  5  1  0
  5  6  2  0
  6  7  1  0
  7  8  1  0
  7  9  2  0
  9 10  1  0
  9 11  1  0
 11 12  2  0
 12 13  1  0
 13 14  2  3
 14 15  1  0
 15 16  3  0
 14 17  1  0
 17 18  3  0
  1 19  1  0
 19 20  2  0
 20 21  1  0
 21 22  1  0
 21 23  2  0
 23 24  1  0
 24 25  1  0
 25 26  2  0
 26 27  1  0
 27 28  1  0
 23 29  1  0
 29 30  2  0
 30 31  1  0
 31 32  2  0
 32 33  1  0
 33 34  2  0
 34 35  1  0
 35 36  2  0
 36 37  1  0
 37 38  1  0
 38 39  1  0
 39 40  1  0
 37 41  2  0
 32 42  1  0
 42 43  2  0
 43 44  1  0
 44 45  1  0
 45 46  2  0
 46 47  1  0
 47 48  2  0
 48 49  1  0
 49 50  1  0
 50 51  1  0
 51 52  1  0
 49 53  2  0
 44 54  2  0
 54 55  1  0
 43 56  1  0
 56 57  2  0
 57 58  1  0
 57 59  1  0
 59 60  2  0
 60 61  1  0
 61 62  1  0
 62 63  2  0
 62 64  1  0
 64 65  1  0
 61 66  2  0
 66 67  1  0
 66 68  1  0
 68 69  2  3
 69 70  1  0
 70 71  2  0
 70 72  1  0
 72 73  2  0
 73 74  1  0
 74 75  1  0
 74 76  2  0
 76 77  1  0
 76 78  1  0
 78 79  2  0
 79 80  1  0
 80 81  2  3
 81 82  1  0
 82 83  3  0
 81 84  1  0
 84 85  3  0
 13  2  1  0
 25 19  1  0
 55 29  1  0
 67 59  1  0
 80 69  1  0
 12  5  1  0
 28 24  2  0
 54 31  1  0
 79 72  1  0
 41 33  1  0
 58 42  1  0
 53 45  1  0
  1 86  1  0
  6 87  1  0
  8 88  1  0
  8 89  1  0
  8 90  1  0
 10 91  1  0
 10 92  1  0
 10 93  1  0
 11 94  1  0
 20 95  1  0
 30 96  1  0
 34 97  1  0
 35 98  1  0
 36 99  1  0
 39100  1  0
 39101  1  0
 40102  1  0
 40103  1  0
 40104  1  0
 41105  1  0
 46106  1  0
 47107  1  0
 48108  1  0
 51109  1  0
 51110  1  0
 52111  1  0
 52112  1  0
 52113  1  0
 53114  1  0
 56115  1  0
 60116  1  0
 64117  1  0
 64118  1  0
 65119  1  0
 65120  1  0
 65121  1  0
 68122  1  0
 73123  1  0
 75124  1  0
 75125  1  0
 75126  1  0
 78127  1  0
M  END

