
     RDKit          3D

206224  0  0  0  0  0  0  0  0999 V2000
    8.9524    0.8755   -1.9070 C   0  0  0  0  0  0  0  0  0  0  0  0
    9.5006   -0.3556   -1.8114 C   0  0  0  0  0  0  0  0  0  0  0  0
    9.0914   -1.3962   -0.8600 C   0  0  0  0  0  0  0  0  0  0  0  0
    8.5380   -1.2137    0.2612 O   0  0  0  0  0  0  0  0  0  0  0  0
    9.4491   -2.6859   -1.4018 C   0  0  0  0  0  0  0  0  0  0  0  0
    9.1381   -3.9435   -0.8826 C   0  0  0  0  0  0  0  0  0  0  0  0
    9.4850   -5.0918   -1.6144 C   0  0  0  0  0  0  0  0  0  0  0  0
    9.0946   -6.4446   -1.0798 C   0  0  0  0  0  0  0  0  0  0  0  0
   10.1275   -4.9477   -2.8725 C   0  0  0  0  0  0  0  0  0  0  0  0
   10.4544   -6.1559   -3.7173 C   0  0  0  0  0  0  0  0  0  0  0  0
   10.4512   -3.6572   -3.3565 C   0  0  0  0  0  0  0  0  0  0  0  0
   10.1105   -2.5226   -2.6031 C   0  0  0  0  0  0  0  0  0  0  0  0
   10.2777   -1.0609   -2.8840 C   0  0  0  0  0  0  0  0  0  0  0  0
   11.0444   -0.4841   -3.8549 C   0  0  0  0  0  0  0  0  0  0  0  0
   11.6870   -1.2447   -4.8955 C   0  0  0  0  0  0  0  0  0  0  0  0
   12.1839   -1.8470   -5.7575 N   0  0  0  0  0  0  0  0  0  0  0  0
   11.2778    0.9372   -3.9081 C   0  0  0  0  0  0  0  0  0  0  0  0
   11.4099    2.0852   -3.9500 N   0  0  0  0  0  0  0  0  0  0  0  0
    7.7371    1.2775   -1.1738 C   0  0  0  0  0  0  0  0  0  0  0  0
    6.5275    1.3420   -1.8693 C   0  0  0  0  0  0  0  0  0  0  0  0
    5.2961    1.5141   -1.1946 C   0  0  0  0  0  0  0  0  0  0  0  0
    4.1408    1.3819   -2.0322 N   0  0  0  0  0  0  0  0  0  0  0  0
    4.8216    1.1213   -3.4481 S   0  0  0  0  0  4  0  0  0  0  0  0
    6.4060    1.1011   -3.2779 N   0  0  0  0  0  0  0  0  0  0  0  0
    5.2398    1.6369    0.2036 C   0  0  0  0  0  0  0  0  0  0  0  0
    6.4613    1.6703    0.9045 C   0  0  0  0  0  0  0  0  0  0  0  0
    6.5357    1.8316    2.2505 N   0  0  0  0  0  0  0  0  0  0  0  0
    8.1734    1.7743    2.4723 S   0  0  0  0  0  0  0  0  0  0  0  0
    8.8321    1.5521    0.9726 N   0  0  0  0  0  0  0  0  0  0  0  0
    7.7063    1.5081    0.2114 C   0  0  0  0  0  0  0  0  0  0  0  0
    3.9396    1.5278    0.9000 C   0  0  0  0  0  0  0  0  0  0  0  0
    2.7372    2.1268    0.4699 C   0  0  0  0  0  0  0  0  0  0  0  0
    2.6717    3.3540   -0.2940 N   0  0  0  0  0  0  0  0  0  0  0  0
    1.4775    3.6971   -1.0175 C   0  0  0  0  0  0  0  0  0  0  0  0
    1.1972    3.1056   -2.2603 C   0  0  0  0  0  0  0  0  0  0  0  0
    0.0263    3.4347   -2.9466 C   0  0  0  0  0  0  0  0  0  0  0  0
   -0.8802    4.3494   -2.3896 C   0  0  0  0  0  0  0  0  0  0  0  0
   -2.3678    4.8055   -3.2769 S   0  0  0  0  0  0  0  0  0  0  0  0
   -1.5515    6.1538   -4.1901 C   0  0  0  0  0  0  0  0  0  0  0  0
   -0.6126    4.9261   -1.1426 C   0  0  0  0  0  0  0  0  0  0  0  0
    0.5647    4.6094   -0.4620 C   0  0  0  0  0  0  0  0  0  0  0  0
    3.6319    4.3995   -0.0531 C   0  0  0  0  0  0  0  0  0  0  0  0
    4.1924    5.1111   -1.1273 C   0  0  0  0  0  0  0  0  0  0  0  0
    5.1135    6.1399   -0.8883 C   0  0  0  0  0  0  0  0  0  0  0  0
    5.4718    6.4747    0.4253 C   0  0  0  0  0  0  0  0  0  0  0  0
    6.6601    7.7818    0.7378 S   0  0  0  0  0  0  0  0  0  0  0  0
    5.3976    9.0614    1.0274 C   0  0  0  0  0  0  0  0  0  0  0  0
    4.9155    5.7700    1.4981 C   0  0  0  0  0  0  0  0  0  0  0  0
    3.9944    4.7457    1.2627 C   0  0  0  0  0  0  0  0  0  0  0  0
    1.6303    1.4451    0.9868 C   0  0  0  0  0  0  0  0  0  0  0  0
   -0.0140    1.4889    0.6755 S   0  0  0  0  0  0  0  0  0  0  0  0
   -0.3823    0.1715    1.6850 C   0  0  0  0  0  0  0  0  0  0  0  0
    0.7903   -0.3008    2.3007 C   0  0  0  0  0  0  0  0  0  0  0  0
    0.7742   -1.1542    3.4661 N   0  0  0  0  0  0  0  0  0  0  0  0
   -0.2515   -0.9179    4.4415 C   0  0  0  0  0  0  0  0  0  0  0  0
   -0.3161    0.3178    5.1136 C   0  0  0  0  0  0  0  0  0  0  0  0
   -1.3818    0.5973    5.9707 C   0  0  0  0  0  0  0  0  0  0  0  0
   -2.4057   -0.3425    6.1434 C   0  0  0  0  0  0  0  0  0  0  0  0
   -3.8214    0.0511    7.1759 S   0  0  0  0  0  0  0  0  0  0  0  0
   -4.5750    1.1420    5.9268 C   0  0  0  0  0  0  0  0  0  0  0  0
   -2.3349   -1.5831    5.4916 C   0  0  0  0  0  0  0  0  0  0  0  0
   -1.2604   -1.8703    4.6467 C   0  0  0  0  0  0  0  0  0  0  0  0
    1.9660   -1.8262    3.9048 C   0  0  0  0  0  0  0  0  0  0  0  0
    2.8430   -1.1964    4.8071 C   0  0  0  0  0  0  0  0  0  0  0  0
    4.0205   -1.8407    5.2067 C   0  0  0  0  0  0  0  0  0  0  0  0
    4.3238   -3.1153    4.7078 C   0  0  0  0  0  0  0  0  0  0  0  0
    5.8481   -3.9226    5.1984 S   0  0  0  0  0  0  0  0  0  0  0  0
    6.8303   -3.1405    3.8698 C   0  0  0  0  0  0  0  0  0  0  0  0
    3.4305   -3.7620    3.8435 C   0  0  0  0  0  0  0  0  0  0  0  0
    2.2502   -3.1200    3.4499 C   0  0  0  0  0  0  0  0  0  0  0  0
    1.9055    0.4196    1.8405 C   0  0  0  0  0  0  0  0  0  0  0  0
    3.5697    0.2402    1.9553 S   0  0  0  0  0  0  0  0  0  0  0  0
   -1.6595   -0.5437    1.5581 C   0  0  0  0  0  0  0  0  0  0  0  0
   -1.9805   -1.2002    0.3531 C   0  0  0  0  0  0  0  0  0  0  0  0
   -1.2327   -2.3186   -0.1621 N   0  0  0  0  0  0  0  0  0  0  0  0
   -1.8780   -3.6102   -0.1819 C   0  0  0  0  0  0  0  0  0  0  0  0
   -2.5858   -4.0646    0.9453 C   0  0  0  0  0  0  0  0  0  0  0  0
   -3.1825   -5.3282    0.9408 C   0  0  0  0  0  0  0  0  0  0  0  0
   -3.0739   -6.1500   -0.1853 C   0  0  0  0  0  0  0  0  0  0  0  0
   -3.8898   -7.7441   -0.2061 S   0  0  0  0  0  0  0  0  0  0  0  0
   -5.4482   -7.0603   -0.8489 C   0  0  0  0  0  0  0  0  0  0  0  0
   -2.3576   -5.7110   -1.3056 C   0  0  0  0  0  0  0  0  0  0  0  0
   -1.7551   -4.4472   -1.3044 C   0  0  0  0  0  0  0  0  0  0  0  0
    0.1816   -2.2588   -0.4375 C   0  0  0  0  0  0  0  0  0  0  0  0
    0.7193   -1.3084   -1.3247 C   0  0  0  0  0  0  0  0  0  0  0  0
    2.0518   -1.4244   -1.7618 C   0  0  0  0  0  0  0  0  0  0  0  0
    2.8529   -2.4815   -1.3003 C   0  0  0  0  0  0  0  0  0  0  0  0
    4.4929   -2.7579   -1.9832 S   0  0  0  0  0  0  0  0  0  0  0  0
    5.3745   -2.1859   -0.4908 C   0  0  0  0  0  0  0  0  0  0  0  0
    2.3339   -3.3969   -0.3802 C   0  0  0  0  0  0  0  0  0  0  0  0
    1.0169   -3.2807    0.0550 C   0  0  0  0  0  0  0  0  0  0  0  0
   -3.3323   -1.0542    0.0486 C   0  0  0  0  0  0  0  0  0  0  0  0
   -4.2254   -1.3214   -1.3371 S   0  0  0  0  0  0  0  0  0  0  0  0
   -5.6294   -0.5734   -0.7162 C   0  0  0  0  0  0  0  0  0  0  0  0
   -5.4526   -0.3014    0.6594 C   0  0  0  0  0  0  0  0  0  0  0  0
   -6.5164   -0.4403    1.6453 N   0  0  0  0  0  0  0  0  0  0  0  0
   -7.8838   -0.5762    1.2192 C   0  0  0  0  0  0  0  0  0  0  0  0
   -8.2972   -1.7462    0.5539 C   0  0  0  0  0  0  0  0  0  0  0  0
   -9.6367   -1.9183    0.1958 C   0  0  0  0  0  0  0  0  0  0  0  0
  -10.5838   -0.9503    0.5434 C   0  0  0  0  0  0  0  0  0  0  0  0
  -12.3018   -1.1790    0.0863 S   0  0  0  0  0  0  0  0  0  0  0  0
  -12.1245   -0.3372   -1.5205 C   0  0  0  0  0  0  0  0  0  0  0  0
  -10.1898    0.1829    1.2708 C   0  0  0  0  0  0  0  0  0  0  0  0
   -8.8420    0.3747    1.5972 C   0  0  0  0  0  0  0  0  0  0  0  0
   -6.2532   -1.1193    2.8932 C   0  0  0  0  0  0  0  0  0  0  0  0
   -5.5813   -2.3584    2.8974 C   0  0  0  0  0  0  0  0  0  0  0  0
   -5.4321   -3.0835    4.0804 C   0  0  0  0  0  0  0  0  0  0  0  0
   -5.9875   -2.6032    5.2718 C   0  0  0  0  0  0  0  0  0  0  0  0
   -5.7759   -3.5241    6.7951 S   0  0  0  0  0  0  0  0  0  0  0  0
   -7.2253   -4.5913    6.5116 C   0  0  0  0  0  0  0  0  0  0  0  0
   -6.6935   -1.3911    5.2732 C   0  0  0  0  0  0  0  0  0  0  0  0
   -6.8237   -0.6523    4.0907 C   0  0  0  0  0  0  0  0  0  0  0  0
   -4.0960   -0.4490    0.9818 C   0  0  0  0  0  0  0  0  0  0  0  0
   -3.1069    0.0911    2.2250 S   0  0  0  0  0  0  0  0  0  0  0  0
   -6.6304    0.1003   -1.5868 C   0  0  0  0  0  0  0  0  0  0  0  0
   -6.2982    1.0021   -2.5426 C   0  0  0  0  0  0  0  0  0  0  0  0
   -4.9467    1.4401   -2.9314 C   0  0  0  0  0  0  0  0  0  0  0  0
   -3.9110    1.4264   -2.2127 O   0  0  0  0  0  0  0  0  0  0  0  0
   -5.0194    1.9981   -4.2691 C   0  0  0  0  0  0  0  0  0  0  0  0
   -3.9745    2.4563   -5.0636 C   0  0  0  0  0  0  0  0  0  0  0  0
   -4.2690    3.0019   -6.3277 C   0  0  0  0  0  0  0  0  0  0  0  0
   -3.1621    3.6466   -7.1184 C   0  0  0  0  0  0  0  0  0  0  0  0
   -5.6114    2.9930   -6.7989 C   0  0  0  0  0  0  0  0  0  0  0  0
   -5.9616    3.4937   -8.1767 C   0  0  0  0  0  0  0  0  0  0  0  0
   -6.6438    2.4883   -5.9751 C   0  0  0  0  0  0  0  0  0  0  0  0
   -6.3302    2.0250   -4.6903 C   0  0  0  0  0  0  0  0  0  0  0  0
   -7.2116    1.5639   -3.5858 C   0  0  0  0  0  0  0  0  0  0  0  0
   -8.5009    1.9315   -3.3928 C   0  0  0  0  0  0  0  0  0  0  0  0
   -9.0787    1.9493   -2.0779 C   0  0  0  0  0  0  0  0  0  0  0  0
   -9.5379    1.9886   -1.0181 N   0  0  0  0  0  0  0  0  0  0  0  0
   -9.2806    2.6014   -4.3997 C   0  0  0  0  0  0  0  0  0  0  0  0
   -9.9284    3.1558   -5.1902 N   0  0  0  0  0  0  0  0  0  0  0  0
    9.1404    1.4714   -2.7828 H   0  0  0  0  0  0  0  0  0  0  0  0
    8.6124   -4.0215    0.0592 H   0  0  0  0  0  0  0  0  0  0  0  0
    8.2458   -6.8567   -1.6702 H   0  0  0  0  0  0  0  0  0  0  0  0
    9.9530   -7.1463   -1.1411 H   0  0  0  0  0  0  0  0  0  0  0  0
    8.7846   -6.3867   -0.0153 H   0  0  0  0  0  0  0  0  0  0  0  0
   10.8390   -5.8641   -4.7210 H   0  0  0  0  0  0  0  0  0  0  0  0
   11.2218   -6.7764   -3.2089 H   0  0  0  0  0  0  0  0  0  0  0  0
    9.5336   -6.7526   -3.8701 H   0  0  0  0  0  0  0  0  0  0  0  0
   10.9144   -3.5632   -4.3211 H   0  0  0  0  0  0  0  0  0  0  0  0
    1.8891    2.3974   -2.6992 H   0  0  0  0  0  0  0  0  0  0  0  0
   -0.1734    2.9843   -3.9125 H   0  0  0  0  0  0  0  0  0  0  0  0
   -1.1390    6.9013   -3.4792 H   0  0  0  0  0  0  0  0  0  0  0  0
   -2.3014    6.6451   -4.8415 H   0  0  0  0  0  0  0  0  0  0  0  0
   -0.7397    5.7424   -4.8271 H   0  0  0  0  0  0  0  0  0  0  0  0
   -1.3158    5.6222   -0.7009 H   0  0  0  0  0  0  0  0  0  0  0  0
    0.7595    5.0463    0.5115 H   0  0  0  0  0  0  0  0  0  0  0  0
    3.9240    4.8620   -2.1486 H   0  0  0  0  0  0  0  0  0  0  0  0
    5.5464    6.6757   -1.7244 H   0  0  0  0  0  0  0  0  0  0  0  0
    4.5765    8.6788    1.6698 H   0  0  0  0  0  0  0  0  0  0  0  0
    5.8707    9.9194    1.5473 H   0  0  0  0  0  0  0  0  0  0  0  0
    4.9900    9.4076    0.0595 H   0  0  0  0  0  0  0  0  0  0  0  0
    5.1736    6.0341    2.5157 H   0  0  0  0  0  0  0  0  0  0  0  0
    3.5456    4.2354    2.1035 H   0  0  0  0  0  0  0  0  0  0  0  0
    0.4423    1.0701    4.9449 H   0  0  0  0  0  0  0  0  0  0  0  0
   -1.4360    1.5628    6.4623 H   0  0  0  0  0  0  0  0  0  0  0  0
   -4.0530    2.1199    5.9189 H   0  0  0  0  0  0  0  0  0  0  0  0
   -4.5192    0.6924    4.9140 H   0  0  0  0  0  0  0  0  0  0  0  0
   -5.6407    1.3079    6.1831 H   0  0  0  0  0  0  0  0  0  0  0  0
   -3.1282   -2.3063    5.6197 H   0  0  0  0  0  0  0  0  0  0  0  0
   -1.2417   -2.8056    4.1041 H   0  0  0  0  0  0  0  0  0  0  0  0
    2.6325   -0.1998    5.1735 H   0  0  0  0  0  0  0  0  0  0  0  0
    4.7048   -1.3394    5.8837 H   0  0  0  0  0  0  0  0  0  0  0  0
    7.8987   -3.3790    4.0267 H   0  0  0  0  0  0  0  0  0  0  0  0
    6.5105   -3.5221    2.8778 H   0  0  0  0  0  0  0  0  0  0  0  0
    6.7073   -2.0361    3.8924 H   0  0  0  0  0  0  0  0  0  0  0  0
    3.6555   -4.7501    3.4672 H   0  0  0  0  0  0  0  0  0  0  0  0
    1.5587   -3.6248    2.7926 H   0  0  0  0  0  0  0  0  0  0  0  0
   -2.6607   -3.4425    1.8361 H   0  0  0  0  0  0  0  0  0  0  0  0
   -3.7339   -5.6605    1.8140 H   0  0  0  0  0  0  0  0  0  0  0  0
   -6.2044   -7.8739   -0.8902 H   0  0  0  0  0  0  0  0  0  0  0  0
   -5.8158   -6.2577   -0.1719 H   0  0  0  0  0  0  0  0  0  0  0  0
   -5.2878   -6.6504   -1.8662 H   0  0  0  0  0  0  0  0  0  0  0  0
   -2.2662   -6.3529   -2.1770 H   0  0  0  0  0  0  0  0  0  0  0  0
   -1.1960   -4.1250   -2.1779 H   0  0  0  0  0  0  0  0  0  0  0  0
    0.1025   -0.5140   -1.7184 H   0  0  0  0  0  0  0  0  0  0  0  0
    2.4458   -0.7247   -2.4817 H   0  0  0  0  0  0  0  0  0  0  0  0
    6.4040   -2.5752   -0.5342 H   0  0  0  0  0  0  0  0  0  0  0  0
    5.3995   -1.0838   -0.4600 H   0  0  0  0  0  0  0  0  0  0  0  0
    4.9082   -2.5769    0.4390 H   0  0  0  0  0  0  0  0  0  0  0  0
    2.9318   -4.2331   -0.0411 H   0  0  0  0  0  0  0  0  0  0  0  0
    0.6168   -4.0492    0.7025 H   0  0  0  0  0  0  0  0  0  0  0  0
   -7.5741   -2.5146    0.3030 H   0  0  0  0  0  0  0  0  0  0  0  0
   -9.9343   -2.8083   -0.3449 H   0  0  0  0  0  0  0  0  0  0  0  0
  -13.0785   -0.4220   -2.0793 H   0  0  0  0  0  0  0  0  0  0  0  0
  -11.3156   -0.8047   -2.1170 H   0  0  0  0  0  0  0  0  0  0  0  0
  -11.9039    0.7407   -1.3660 H   0  0  0  0  0  0  0  0  0  0  0  0
  -10.9198    0.9242    1.5679 H   0  0  0  0  0  0  0  0  0  0  0  0
   -8.5405    1.2583    2.1482 H   0  0  0  0  0  0  0  0  0  0  0  0
   -5.1984   -2.7764    1.9740 H   0  0  0  0  0  0  0  0  0  0  0  0
   -4.8976   -4.0255    4.0681 H   0  0  0  0  0  0  0  0  0  0  0  0
   -7.3220   -5.3005    7.3614 H   0  0  0  0  0  0  0  0  0  0  0  0
   -7.0928   -5.1723    5.5720 H   0  0  0  0  0  0  0  0  0  0  0  0
   -8.1466   -3.9765    6.4463 H   0  0  0  0  0  0  0  0  0  0  0  0
   -7.1322   -1.0169    6.1907 H   0  0  0  0  0  0  0  0  0  0  0  0
   -7.3786    0.2787    4.1058 H   0  0  0  0  0  0  0  0  0  0  0  0
   -7.6673   -0.1829   -1.4858 H   0  0  0  0  0  0  0  0  0  0  0  0
   -2.9566    2.4056   -4.7020 H   0  0  0  0  0  0  0  0  0  0  0  0
   -2.1622    3.3418   -6.7458 H   0  0  0  0  0  0  0  0  0  0  0  0
   -3.2259    3.3690   -8.1943 H   0  0  0  0  0  0  0  0  0  0  0  0
   -3.2395    4.7513   -7.0284 H   0  0  0  0  0  0  0  0  0  0  0  0
   -7.0598    3.6174   -8.2936 H   0  0  0  0  0  0  0  0  0  0  0  0
   -5.4959    4.4812   -8.3561 H   0  0  0  0  0  0  0  0  0  0  0  0
   -5.6062    2.7652   -8.9355 H   0  0  0  0  0  0  0  0  0  0  0  0
   -7.6526    2.4450   -6.3558 H   0  0  0  0  0  0  0  0  0  0  0  0
  1  2  2  3
  2  3  1  0
  3  4  2  0
  3  5  1  0
  5  6  2  0
  6  7  1  0
  7  8  1  0
  7  9  2  0
  9 10  1  0
  9 11  1  0
 11 12  2  0
 12 13  1  0
 13 14  2  3
 14 15  1  0
 15 16  3  0
 14 17  1  0
 17 18  3  0
  1 19  1  0
 19 20  2  0
 20 21  1  0
 21 22  1  0
 22 23  2  0
 23 24  2  0
 21 25  2  0
 25 26  1  0
 26 27  2  0
 27 28  1  0
 28 29  1  0
 29 30  2  0
 25 31  1  0
 31 32  2  0
 32 33  1  0
 33 34  1  0
 34 35  2  0
 35 36  1  0
 36 37  2  0
 37 38  1  0
 38 39  1  0
 37 40  1  0
 40 41  2  0
 33 42  1  0
 42 43  2  0
 43 44  1  0
 44 45  2  0
 45 46  1  0
 46 47  1  0
 45 48  1  0
 48 49  2  0
 32 50  1  0
 50 51  1  0
 51 52  1  0
 52 53  2  0
 53 54  1  0
 54 55  1  0
 55 56  2  0
 56 57  1  0
 57 58  2  0
 58 59  1  0
 59 60  1  0
 58 61  1  0
 61 62  2  0
 54 63  1  0
 63 64  2  0
 64 65  1  0
 65 66  2  0
 66 67  1  0
 67 68  1  0
 66 69  1  0
 69 70  2  0
 53 71  1  0
 71 72  1  0
 52 73  1  0
 73 74  2  0
 74 75  1  0
 75 76  1  0
 76 77  2  0
 77 78  1  0
 78 79  2  0
 79 80  1  0
 80 81  1  0
 79 82  1  0
 82 83  2  0
 75 84  1  0
 84 85  2  0
 85 86  1  0
 86 87  2  0
 87 88  1  0
 88 89  1  0
 87 90  1  0
 90 91  2  0
 74 92  1  0
 92 93  1  0
 93 94  1  0
 94 95  2  0
 95 96  1  0
 96 97  1  0
 97 98  2  0
 98 99  1  0
 99100  2  0
100101  1  0
101102  1  0
100103  1  0
103104  2  0
 96105  1  0
105106  2  0
106107  1  0
107108  2  0
108109  1  0
109110  1  0
108111  1  0
111112  2  0
 95113  1  0
113114  1  0
 94115  1  0
115116  2  3
116117  1  0
117118  2  0
117119  1  0
119120  2  0
120121  1  0
121122  1  0
121123  2  0
123124  1  0
123125  1  0
125126  2  0
126127  1  0
127128  2  3
128129  1  0
129130  3  0
128131  1  0
131132  3  0
 13  2  1  0
 30 19  1  0
 72 31  1  0
114 73  1  0
127116  1  0
 12  5  1  0
 24 20  1  0
 30 26  1  0
 41 34  1  0
 49 42  1  0
 71 50  2  0
 83 76  1  0
 91 84  1  0
113 92  2  0
126119  1  0
 62 55  1  0
 70 63  1  0
104 97  1  0
112105  1  0
  1133  1  0
  6134  1  0
  8135  1  0
  8136  1  0
  8137  1  0
 10138  1  0
 10139  1  0
 10140  1  0
 11141  1  0
 35142  1  0
 36143  1  0
 39144  1  0
 39145  1  0
 39146  1  0
 40147  1  0
 41148  1  0
 43149  1  0
 44150  1  0
 47151  1  0
 47152  1  0
 47153  1  0
 48154  1  0
 49155  1  0
 56156  1  0
 57157  1  0
 60158  1  0
 60159  1  0
 60160  1  0
 61161  1  0
 62162  1  0
 64163  1  0
 65164  1  0
 68165  1  0
 68166  1  0
 68167  1  0
 69168  1  0
 70169  1  0
 77170  1  0
 78171  1  0
 81172  1  0
 81173  1  0
 81174  1  0
 82175  1  0
 83176  1  0
 85177  1  0
 86178  1  0
 89179  1  0
 89180  1  0
 89181  1  0
 90182  1  0
 91183  1  0
 98184  1  0
 99185  1  0
102186  1  0
102187  1  0
102188  1  0
103189  1  0
104190  1  0
106191  1  0
107192  1  0
110193  1  0
110194  1  0
110195  1  0
111196  1  0
112197  1  0
115198  1  0
120199  1  0
122200  1  0
122201  1  0
122202  1  0
124203  1  0
124204  1  0
124205  1  0
125206  1  0
M  END

