
     RDKit          3D

227245  0  0  0  0  0  0  0  0999 V2000
   -5.5996   -0.5425   -6.6366 C   0  0  0  0  0  0  0  0  0  0  0  0
   -6.6944    0.2388   -6.5178 C   0  0  0  0  0  0  0  0  0  0  0  0
   -7.4908    0.4273   -5.3034 C   0  0  0  0  0  0  0  0  0  0  0  0
   -7.6337   -0.4091   -4.3808 O   0  0  0  0  0  0  0  0  0  0  0  0
   -8.3829    1.5370   -5.4965 C   0  0  0  0  0  0  0  0  0  0  0  0
   -9.2867    2.0589   -4.5764 C   0  0  0  0  0  0  0  0  0  0  0  0
  -10.1096    3.1300   -4.9611 C   0  0  0  0  0  0  0  0  0  0  0  0
  -11.1040    3.6733   -3.9721 C   0  0  0  0  0  0  0  0  0  0  0  0
   -9.9545    3.7008   -6.2554 C   0  0  0  0  0  0  0  0  0  0  0  0
  -10.7848    4.8798   -6.6865 C   0  0  0  0  0  0  0  0  0  0  0  0
   -9.0371    3.1319   -7.1654 C   0  0  0  0  0  0  0  0  0  0  0  0
   -8.2780    2.0106   -6.7860 C   0  0  0  0  0  0  0  0  0  0  0  0
   -7.2878    1.1754   -7.5426 C   0  0  0  0  0  0  0  0  0  0  0  0
   -7.0501    1.2200   -8.8844 C   0  0  0  0  0  0  0  0  0  0  0  0
   -7.7172    2.1454   -9.7654 C   0  0  0  0  0  0  0  0  0  0  0  0
   -8.2481    2.8851  -10.4851 N   0  0  0  0  0  0  0  0  0  0  0  0
   -6.1353    0.3446   -9.5650 C   0  0  0  0  0  0  0  0  0  0  0  0
   -5.4084   -0.3513  -10.1374 N   0  0  0  0  0  0  0  0  0  0  0  0
   -4.4186   -0.4744   -5.7370 C   0  0  0  0  0  0  0  0  0  0  0  0
   -4.2390   -0.8098   -4.3729 C   0  0  0  0  0  0  0  0  0  0  0  0
   -5.2705   -1.0729   -3.4172 N   0  0  0  0  0  0  0  0  0  0  0  0
   -5.5586   -0.0156   -2.4546 C   0  0  0  0  0  0  0  0  0  0  0  0
   -5.4225    1.3356   -2.8499 C   0  0  0  0  0  0  0  0  0  0  0  0
   -5.5196    2.3726   -1.9244 C   0  0  0  0  0  0  0  0  0  0  0  0
   -5.7301    2.0872   -0.5757 C   0  0  0  0  0  0  0  0  0  0  0  0
   -5.7062    3.4095    0.6299 S   0  0  0  0  0  0  0  0  0  0  0  0
   -3.8832    3.5132    0.6633 C   0  0  0  0  0  0  0  0  0  0  0  0
   -5.9377    0.7632   -0.1743 C   0  0  0  0  0  0  0  0  0  0  0  0
   -5.8873   -0.2818   -1.1079 C   0  0  0  0  0  0  0  0  0  0  0  0
   -5.6108   -2.4593   -3.2140 C   0  0  0  0  0  0  0  0  0  0  0  0
   -5.0737   -3.1857   -2.1369 C   0  0  0  0  0  0  0  0  0  0  0  0
   -5.4263   -4.5284   -1.9473 C   0  0  0  0  0  0  0  0  0  0  0  0
   -6.2509   -5.1751   -2.8742 C   0  0  0  0  0  0  0  0  0  0  0  0
   -6.7161   -6.8873   -2.6214 S   0  0  0  0  0  0  0  0  0  0  0  0
   -8.3648   -6.4727   -1.9687 C   0  0  0  0  0  0  0  0  0  0  0  0
   -6.6937   -4.4890   -4.0063 C   0  0  0  0  0  0  0  0  0  0  0  0
   -6.3737   -3.1412   -4.1776 C   0  0  0  0  0  0  0  0  0  0  0  0
   -2.9365   -0.5424   -3.9524 C   0  0  0  0  0  0  0  0  0  0  0  0
   -2.2379   -0.4181   -2.4459 S   0  0  0  0  0  0  0  0  0  0  0  0
   -0.8101    0.3413   -2.9838 C   0  0  0  0  0  0  0  0  0  0  0  0
   -0.8978    0.5044   -4.3880 C   0  0  0  0  0  0  0  0  0  0  0  0
    0.0199    1.2243   -5.2270 N   0  0  0  0  0  0  0  0  0  0  0  0
    0.5813    0.5428   -6.3867 C   0  0  0  0  0  0  0  0  0  0  0  0
    0.5386   -0.8666   -6.4942 C   0  0  0  0  0  0  0  0  0  0  0  0
    1.0171   -1.5133   -7.6342 C   0  0  0  0  0  0  0  0  0  0  0  0
    1.5647   -0.7755   -8.6841 C   0  0  0  0  0  0  0  0  0  0  0  0
    2.1479   -1.6096  -10.1636 S   0  0  0  0  0  0  0  0  0  0  0  0
    0.5208   -1.5488  -10.9807 C   0  0  0  0  0  0  0  0  0  0  0  0
    1.6837    0.6095   -8.5671 C   0  0  0  0  0  0  0  0  0  0  0  0
    1.2019    1.2648   -7.4264 C   0  0  0  0  0  0  0  0  0  0  0  0
   -0.1088    2.6581   -5.2055 C   0  0  0  0  0  0  0  0  0  0  0  0
   -0.9058    3.3088   -6.1598 C   0  0  0  0  0  0  0  0  0  0  0  0
   -0.9932    4.6996   -6.1798 C   0  0  0  0  0  0  0  0  0  0  0  0
   -0.2965    5.4539   -5.2342 C   0  0  0  0  0  0  0  0  0  0  0  0
   -0.3993    7.2364   -5.2581 S   0  0  0  0  0  0  0  0  0  0  0  0
   -1.9301    7.2774   -4.2763 C   0  0  0  0  0  0  0  0  0  0  0  0
    0.4765    4.8142   -4.2576 C   0  0  0  0  0  0  0  0  0  0  0  0
    0.5675    3.4184   -4.2433 C   0  0  0  0  0  0  0  0  0  0  0  0
   -2.1070   -0.0104   -4.8735 C   0  0  0  0  0  0  0  0  0  0  0  0
   -2.9293    0.1335   -6.3228 S   0  0  0  0  0  0  0  0  0  0  0  0
    0.1357    0.9297   -2.0160 C   0  0  0  0  0  0  0  0  0  0  0  0
    1.5044    0.6437   -1.8652 C   0  0  0  0  0  0  0  0  0  0  0  0
    2.3340   -0.0623   -2.8079 N   0  0  0  0  0  0  0  0  0  0  0  0
    2.6931   -1.4341   -2.4842 C   0  0  0  0  0  0  0  0  0  0  0  0
    3.9656   -1.9541   -2.8049 C   0  0  0  0  0  0  0  0  0  0  0  0
    4.3675   -3.2048   -2.3320 C   0  0  0  0  0  0  0  0  0  0  0  0
    3.5230   -3.9430   -1.5007 C   0  0  0  0  0  0  0  0  0  0  0  0
    4.0862   -5.5013   -0.8170 S   0  0  0  0  0  0  0  0  0  0  0  0
    5.0061   -4.7122    0.5475 C   0  0  0  0  0  0  0  0  0  0  0  0
    2.2505   -3.4628   -1.1976 C   0  0  0  0  0  0  0  0  0  0  0  0
    1.8321   -2.2263   -1.6958 C   0  0  0  0  0  0  0  0  0  0  0  0
    3.1311    0.7227   -3.7226 C   0  0  0  0  0  0  0  0  0  0  0  0
    3.6300    1.9903   -3.3466 C   0  0  0  0  0  0  0  0  0  0  0  0
    4.3287    2.7803   -4.2636 C   0  0  0  0  0  0  0  0  0  0  0  0
    4.5648    2.3134   -5.5543 C   0  0  0  0  0  0  0  0  0  0  0  0
    5.4521    3.3420   -6.7223 S   0  0  0  0  0  0  0  0  0  0  0  0
    3.9456    4.0867   -7.4145 C   0  0  0  0  0  0  0  0  0  0  0  0
    4.1306    1.0332   -5.9216 C   0  0  0  0  0  0  0  0  0  0  0  0
    3.4071    0.2466   -5.0159 C   0  0  0  0  0  0  0  0  0  0  0  0
    1.9363    0.9060   -0.5615 C   0  0  0  0  0  0  0  0  0  0  0  0
    3.3294    0.5347    0.2640 S   0  0  0  0  0  0  0  0  0  0  0  0
    2.7426    0.9228    1.8169 C   0  0  0  0  0  0  0  0  0  0  0  0
    1.3892    1.3562    1.6754 C   0  0  0  0  0  0  0  0  0  0  0  0
    0.5043    1.7284    2.7653 N   0  0  0  0  0  0  0  0  0  0  0  0
    0.3145    3.1260    3.0641 C   0  0  0  0  0  0  0  0  0  0  0  0
   -0.3269    3.9706    2.1453 C   0  0  0  0  0  0  0  0  0  0  0  0
   -0.5727    5.3092    2.4590 C   0  0  0  0  0  0  0  0  0  0  0  0
   -0.1895    5.8178    3.7037 C   0  0  0  0  0  0  0  0  0  0  0  0
   -0.5374    7.5288    4.1277 S   0  0  0  0  0  0  0  0  0  0  0  0
   -2.2713    7.2062    4.6181 C   0  0  0  0  0  0  0  0  0  0  0  0
    0.4582    4.9917    4.6255 C   0  0  0  0  0  0  0  0  0  0  0  0
    0.7079    3.6518    4.3076 C   0  0  0  0  0  0  0  0  0  0  0  0
   -0.4425    0.7804    3.3225 C   0  0  0  0  0  0  0  0  0  0  0  0
   -1.5009    0.2688    2.5466 C   0  0  0  0  0  0  0  0  0  0  0  0
   -2.4428   -0.6016    3.1006 C   0  0  0  0  0  0  0  0  0  0  0  0
   -2.3505   -0.9782    4.4403 C   0  0  0  0  0  0  0  0  0  0  0  0
   -3.5675   -2.0934    5.1454 S   0  0  0  0  0  0  0  0  0  0  0  0
   -2.6796   -3.5914    4.6142 C   0  0  0  0  0  0  0  0  0  0  0  0
   -1.3362   -0.4476    5.2346 C   0  0  0  0  0  0  0  0  0  0  0  0
   -0.4169    0.4539    4.6893 C   0  0  0  0  0  0  0  0  0  0  0  0
    1.0093    1.3543    0.3183 C   0  0  0  0  0  0  0  0  0  0  0  0
   -0.4294    1.5076   -0.5189 S   0  0  0  0  0  0  0  0  0  0  0  0
    3.5260    0.7174    3.0740 C   0  0  0  0  0  0  0  0  0  0  0  0
    4.9173    0.4025    3.2409 C   0  0  0  0  0  0  0  0  0  0  0  0
    5.9150    0.2100    2.1260 C   0  0  0  0  0  0  0  0  0  0  0  0
    5.8364   -1.1937    1.5126 C   0  0  0  0  0  0  0  0  0  0  0  0
    5.2584    0.2507    4.6069 C   0  0  0  0  0  0  0  0  0  0  0  0
    4.2109    0.4423    5.4424 C   0  0  0  0  0  0  0  0  0  0  0  0
    2.8182    0.7550    4.6109 S   0  0  0  0  0  0  0  0  0  0  0  0
    4.5660    0.1538    6.7914 C   0  0  0  0  0  0  0  0  0  0  0  0
    5.8687   -0.2373    6.8091 C   0  0  0  0  0  0  0  0  0  0  0  0
    6.4945   -0.1607    5.4152 C   0  0  0  0  0  0  0  0  0  0  0  0
    7.6151    0.9058    5.3922 C   0  0  0  0  0  0  0  0  0  0  0  0
    7.1393    2.3330    5.6747 C   0  0  0  0  0  0  0  0  0  0  0  0
    7.0603   -1.5433    4.9856 C   0  0  0  0  0  0  0  0  0  0  0  0
    6.0183   -2.6704    4.9338 C   0  0  0  0  0  0  0  0  0  0  0  0
    6.1937   -1.0507    7.9010 C   0  0  0  0  0  0  0  0  0  0  0  0
    5.0740   -1.3521    8.6980 C   0  0  0  0  0  0  0  0  0  0  0  0
    3.7139   -0.5947    8.0140 S   0  0  0  0  0  0  0  0  0  0  0  0
    5.0996   -2.4463    9.6994 C   0  0  0  0  0  0  0  0  0  0  0  0
    4.0405   -3.2009   10.0831 C   0  0  0  0  0  0  0  0  0  0  0  0
    2.6220   -2.9361    9.8329 C   0  0  0  0  0  0  0  0  0  0  0  0
    2.0385   -1.8280    9.9552 O   0  0  0  0  0  0  0  0  0  0  0  0
    1.9433   -4.1970    9.6519 C   0  0  0  0  0  0  0  0  0  0  0  0
    0.6524   -4.4197    9.1835 C   0  0  0  0  0  0  0  0  0  0  0  0
    0.2384   -5.7420    8.9316 C   0  0  0  0  0  0  0  0  0  0  0  0
   -1.1686   -5.9505    8.4318 C   0  0  0  0  0  0  0  0  0  0  0  0
    1.1481   -6.8179    9.1526 C   0  0  0  0  0  0  0  0  0  0  0  0
    0.7782   -8.2479    8.8557 C   0  0  0  0  0  0  0  0  0  0  0  0
    2.4448   -6.5429    9.6444 C   0  0  0  0  0  0  0  0  0  0  0  0
    2.8160   -5.2249    9.9234 C   0  0  0  0  0  0  0  0  0  0  0  0
    4.1174   -4.6654   10.3737 C   0  0  0  0  0  0  0  0  0  0  0  0
    5.0736   -5.3155   11.0788 C   0  0  0  0  0  0  0  0  0  0  0  0
    4.9702   -6.7196   11.4104 C   0  0  0  0  0  0  0  0  0  0  0  0
    4.8959   -7.8424   11.6878 N   0  0  0  0  0  0  0  0  0  0  0  0
    6.2391   -4.6469   11.6021 C   0  0  0  0  0  0  0  0  0  0  0  0
    7.1942   -4.1292   11.9982 N   0  0  0  0  0  0  0  0  0  0  0  0
   -5.2749   -0.8021   -7.6208 H   0  0  0  0  0  0  0  0  0  0  0  0
   -9.3525    1.6325   -3.5841 H   0  0  0  0  0  0  0  0  0  0  0  0
  -11.2699    2.9606   -3.1315 H   0  0  0  0  0  0  0  0  0  0  0  0
  -10.7352    4.6334   -3.5552 H   0  0  0  0  0  0  0  0  0  0  0  0
  -12.0842    3.8357   -4.4620 H   0  0  0  0  0  0  0  0  0  0  0  0
  -10.3957    5.3328   -7.6217 H   0  0  0  0  0  0  0  0  0  0  0  0
  -10.7815    5.6694   -5.9016 H   0  0  0  0  0  0  0  0  0  0  0  0
  -11.8281    4.5454   -6.8672 H   0  0  0  0  0  0  0  0  0  0  0  0
   -8.9279    3.5860   -8.1316 H   0  0  0  0  0  0  0  0  0  0  0  0
   -5.2157    1.5900   -3.8809 H   0  0  0  0  0  0  0  0  0  0  0  0
   -5.3852    3.3963   -2.2513 H   0  0  0  0  0  0  0  0  0  0  0  0
   -3.5723    4.2745    1.4110 H   0  0  0  0  0  0  0  0  0  0  0  0
   -3.4474    2.5311    0.9468 H   0  0  0  0  0  0  0  0  0  0  0  0
   -3.4994    3.8168   -0.3338 H   0  0  0  0  0  0  0  0  0  0  0  0
   -6.1276    0.5450    0.8676 H   0  0  0  0  0  0  0  0  0  0  0  0
   -6.0604   -1.2814   -0.7481 H   0  0  0  0  0  0  0  0  0  0  0  0
   -4.3928   -2.7149   -1.4388 H   0  0  0  0  0  0  0  0  0  0  0  0
   -5.0468   -5.0661   -1.0891 H   0  0  0  0  0  0  0  0  0  0  0  0
   -9.0076   -6.1005   -2.7920 H   0  0  0  0  0  0  0  0  0  0  0  0
   -8.8277   -7.3830   -1.5444 H   0  0  0  0  0  0  0  0  0  0  0  0
   -8.2935   -5.7016   -1.1745 H   0  0  0  0  0  0  0  0  0  0  0  0
   -7.3068   -4.9885   -4.7442 H   0  0  0  0  0  0  0  0  0  0  0  0
   -6.7172   -2.6332   -5.0683 H   0  0  0  0  0  0  0  0  0  0  0  0
    0.1272   -1.4788   -5.6988 H   0  0  0  0  0  0  0  0  0  0  0  0
    0.9455   -2.5906   -7.7062 H   0  0  0  0  0  0  0  0  0  0  0  0
    0.5918   -2.0329  -11.9760 H   0  0  0  0  0  0  0  0  0  0  0  0
    0.1927   -0.4950  -11.1144 H   0  0  0  0  0  0  0  0  0  0  0  0
   -0.2297   -2.0988  -10.3710 H   0  0  0  0  0  0  0  0  0  0  0  0
    2.1386    1.1848   -9.3575 H   0  0  0  0  0  0  0  0  0  0  0  0
    1.3135    2.3374   -7.3699 H   0  0  0  0  0  0  0  0  0  0  0  0
   -1.4429    2.7315   -6.9064 H   0  0  0  0  0  0  0  0  0  0  0  0
   -1.5991    5.1911   -6.9262 H   0  0  0  0  0  0  0  0  0  0  0  0
   -2.1327    8.3267   -3.9641 H   0  0  0  0  0  0  0  0  0  0  0  0
   -1.8377    6.6381   -3.3737 H   0  0  0  0  0  0  0  0  0  0  0  0
   -2.7706    6.9191   -4.9091 H   0  0  0  0  0  0  0  0  0  0  0  0
    1.0077    5.3929   -3.5155 H   0  0  0  0  0  0  0  0  0  0  0  0
    1.1681    2.9425   -3.4880 H   0  0  0  0  0  0  0  0  0  0  0  0
    4.6800   -1.3846   -3.3711 H   0  0  0  0  0  0  0  0  0  0  0  0
    5.3607   -3.5775   -2.5666 H   0  0  0  0  0  0  0  0  0  0  0  0
    5.7676   -4.0048    0.1495 H   0  0  0  0  0  0  0  0  0  0  0  0
    5.5284   -5.5015    1.1322 H   0  0  0  0  0  0  0  0  0  0  0  0
    4.3054   -4.1720    1.2214 H   0  0  0  0  0  0  0  0  0  0  0  0
    1.5919   -4.0432   -0.5569 H   0  0  0  0  0  0  0  0  0  0  0  0
    0.8515   -1.8779   -1.4183 H   0  0  0  0  0  0  0  0  0  0  0  0
    3.4664    2.3828   -2.3519 H   0  0  0  0  0  0  0  0  0  0  0  0
    4.6870    3.7536   -3.9599 H   0  0  0  0  0  0  0  0  0  0  0  0
    4.2348    4.8931   -8.1122 H   0  0  0  0  0  0  0  0  0  0  0  0
    3.2966    4.5086   -6.6173 H   0  0  0  0  0  0  0  0  0  0  0  0
    3.3887    3.3250   -7.9920 H   0  0  0  0  0  0  0  0  0  0  0  0
    4.3205    0.6714   -6.9217 H   0  0  0  0  0  0  0  0  0  0  0  0
    3.0609   -0.7284   -5.3307 H   0  0  0  0  0  0  0  0  0  0  0  0
   -0.6836    3.5872    1.2044 H   0  0  0  0  0  0  0  0  0  0  0  0
   -1.0736    5.9430    1.7451 H   0  0  0  0  0  0  0  0  0  0  0  0
   -2.4214    6.1562    4.9470 H   0  0  0  0  0  0  0  0  0  0  0  0
   -2.9435    7.4207    3.7622 H   0  0  0  0  0  0  0  0  0  0  0  0
   -2.5397    7.8720    5.4587 H   0  0  0  0  0  0  0  0  0  0  0  0
    0.7640    5.3763    5.5891 H   0  0  0  0  0  0  0  0  0  0  0  0
    1.2133    3.0334    5.0339 H   0  0  0  0  0  0  0  0  0  0  0  0
   -1.6464    0.5801    1.5418 H   0  0  0  0  0  0  0  0  0  0  0  0
   -3.2553   -0.9678    2.4889 H   0  0  0  0  0  0  0  0  0  0  0  0
   -1.7189   -3.6820    5.1622 H   0  0  0  0  0  0  0  0  0  0  0  0
   -3.3113   -4.4770    4.8284 H   0  0  0  0  0  0  0  0  0  0  0  0
   -2.4772   -3.5474    3.5232 H   0  0  0  0  0  0  0  0  0  0  0  0
   -1.2739   -0.7024    6.2861 H   0  0  0  0  0  0  0  0  0  0  0  0
    0.2976    0.8953    5.3588 H   0  0  0  0  0  0  0  0  0  0  0  0
    5.7499    0.9763    1.3437 H   0  0  0  0  0  0  0  0  0  0  0  0
    6.9410    0.3786    2.4990 H   0  0  0  0  0  0  0  0  0  0  0  0
    4.7837   -1.5314    1.4030 H   0  0  0  0  0  0  0  0  0  0  0  0
    6.3143   -1.1854    0.5120 H   0  0  0  0  0  0  0  0  0  0  0  0
    6.3650   -1.9371    2.1362 H   0  0  0  0  0  0  0  0  0  0  0  0
    8.1234    0.9033    4.4031 H   0  0  0  0  0  0  0  0  0  0  0  0
    8.3881    0.6338    6.1503 H   0  0  0  0  0  0  0  0  0  0  0  0
    6.6227    2.3899    6.6568 H   0  0  0  0  0  0  0  0  0  0  0  0
    6.4462    2.6773    4.8710 H   0  0  0  0  0  0  0  0  0  0  0  0
    8.0109    3.0180    5.6960 H   0  0  0  0  0  0  0  0  0  0  0  0
    7.8611   -1.8472    5.6965 H   0  0  0  0  0  0  0  0  0  0  0  0
    7.5443   -1.4562    3.9928 H   0  0  0  0  0  0  0  0  0  0  0  0
    5.5875   -2.8690    5.9354 H   0  0  0  0  0  0  0  0  0  0  0  0
    5.1990   -2.4280    4.2308 H   0  0  0  0  0  0  0  0  0  0  0  0
    6.5063   -3.6044    4.5803 H   0  0  0  0  0  0  0  0  0  0  0  0
    7.1538   -1.5336    8.0258 H   0  0  0  0  0  0  0  0  0  0  0  0
    6.0892   -2.8256    9.8914 H   0  0  0  0  0  0  0  0  0  0  0  0
   -0.0022   -3.5824    8.9759 H   0  0  0  0  0  0  0  0  0  0  0  0
   -1.3920   -5.2467    7.6018 H   0  0  0  0  0  0  0  0  0  0  0  0
   -1.8827   -5.7503    9.2611 H   0  0  0  0  0  0  0  0  0  0  0  0
   -1.3518   -6.9798    8.0610 H   0  0  0  0  0  0  0  0  0  0  0  0
    1.5974   -8.9442    9.1298 H   0  0  0  0  0  0  0  0  0  0  0  0
   -0.1129   -8.5290    9.4472 H   0  0  0  0  0  0  0  0  0  0  0  0
    0.5739   -8.3648    7.7754 H   0  0  0  0  0  0  0  0  0  0  0  0
    3.1535   -7.3496    9.7502 H   0  0  0  0  0  0  0  0  0  0  0  0
  1  2  2  3
  2  3  1  0
  3  4  2  0
  3  5  1  0
  5  6  2  0
  6  7  1  0
  7  8  1  0
  7  9  2  0
  9 10  1  0
  9 11  1  0
 11 12  2  0
 12 13  1  0
 13 14  2  3
 14 15  1  0
 15 16  3  0
 14 17  1  0
 17 18  3  0
  1 19  1  0
 19 20  2  0
 20 21  1  0
 21 22  1  0
 22 23  2  0
 23 24  1  0
 24 25  2  0
 25 26  1  0
 26 27  1  0
 25 28  1  0
 28 29  2  0
 21 30  1  0
 30 31  2  0
 31 32  1  0
 32 33  2  0
 33 34  1  0
 34 35  1  0
 33 36  1  0
 36 37  2  0
 20 38  1  0
 38 39  1  0
 39 40  1  0
 40 41  2  0
 41 42  1  0
 42 43  1  0
 43 44  2  0
 44 45  1  0
 45 46  2  0
 46 47  1  0
 47 48  1  0
 46 49  1  0
 49 50  2  0
 42 51  1  0
 51 52  2  0
 52 53  1  0
 53 54  2  0
 54 55  1  0
 55 56  1  0
 54 57  1  0
 57 58  2  0
 41 59  1  0
 59 60  1  0
 40 61  1  0
 61 62  2  0
 62 63  1  0
 63 64  1  0
 64 65  2  0
 65 66  1  0
 66 67  2  0
 67 68  1  0
 68 69  1  0
 67 70  1  0
 70 71  2  0
 63 72  1  0
 72 73  2  0
 73 74  1  0
 74 75  2  0
 75 76  1  0
 76 77  1  0
 75 78  1  0
 78 79  2  0
 62 80  1  0
 80 81  1  0
 81 82  1  0
 82 83  2  0
 83 84  1  0
 84 85  1  0
 85 86  2  0
 86 87  1  0
 87 88  2  0
 88 89  1  0
 89 90  1  0
 88 91  1  0
 91 92  2  0
 84 93  1  0
 93 94  2  0
 94 95  1  0
 95 96  2  0
 96 97  1  0
 97 98  1  0
 96 99  1  0
 99100  2  0
 83101  1  0
101102  1  0
 82103  1  0
103104  2  0
104105  1  0
105106  1  0
104107  1  0
107108  2  0
108109  1  0
108110  1  0
110111  2  0
111112  1  0
112113  1  0
113114  1  0
112115  1  0
115116  1  0
111117  1  0
117118  2  0
118119  1  0
118120  1  0
120121  2  3
121122  1  0
122123  2  0
122124  1  0
124125  2  0
125126  1  0
126127  1  0
126128  2  0
128129  1  0
128130  1  0
130131  2  0
131132  1  0
132133  2  3
133134  1  0
134135  3  0
133136  1  0
136137  3  0
 13  2  1  0
 60 19  1  0
102 61  1  0
109103  1  0
119110  1  0
132121  1  0
 12  5  1  0
 29 22  1  0
 37 30  1  0
 59 38  2  0
 71 64  1  0
 79 72  1  0
101 80  2  0
112107  1  0
131124  1  0
 50 43  1  0
 58 51  1  0
 92 85  1  0
100 93  1  0
  1138  1  0
  6139  1  0
  8140  1  0
  8141  1  0
  8142  1  0
 10143  1  0
 10144  1  0
 10145  1  0
 11146  1  0
 23147  1  0
 24148  1  0
 27149  1  0
 27150  1  0
 27151  1  0
 28152  1  0
 29153  1  0
 31154  1  0
 32155  1  0
 35156  1  0
 35157  1  0
 35158  1  0
 36159  1  0
 37160  1  0
 44161  1  0
 45162  1  0
 48163  1  0
 48164  1  0
 48165  1  0
 49166  1  0
 50167  1  0
 52168  1  0
 53169  1  0
 56170  1  0
 56171  1  0
 56172  1  0
 57173  1  0
 58174  1  0
 65175  1  0
 66176  1  0
 69177  1  0
 69178  1  0
 69179  1  0
 70180  1  0
 71181  1  0
 73182  1  0
 74183  1  0
 77184  1  0
 77185  1  0
 77186  1  0
 78187  1  0
 79188  1  0
 86189  1  0
 87190  1  0
 90191  1  0
 90192  1  0
 90193  1  0
 91194  1  0
 92195  1  0
 94196  1  0
 95197  1  0
 98198  1  0
 98199  1  0
 98200  1  0
 99201  1  0
100202  1  0
105203  1  0
105204  1  0
106205  1  0
106206  1  0
106207  1  0
113208  1  0
113209  1  0
114210  1  0
114211  1  0
114212  1  0
115213  1  0
115214  1  0
116215  1  0
116216  1  0
116217  1  0
117218  1  0
120219  1  0
125220  1  0
127221  1  0
127222  1  0
127223  1  0
129224  1  0
129225  1  0
129226  1  0
130227  1  0
M  END

