
     RDKit          3D

200216  0  0  0  0  0  0  0  0999 V2000
   -4.3559   -3.5180   -5.5065 C   0  0  0  0  0  0  0  0  0  0  0  0
   -3.4476   -4.4044   -5.9640 C   0  0  0  0  0  0  0  0  0  0  0  0
   -3.7230   -5.2308   -7.1488 C   0  0  0  0  0  0  0  0  0  0  0  0
   -4.8044   -5.2563   -7.7943 O   0  0  0  0  0  0  0  0  0  0  0  0
   -2.5448   -6.0040   -7.4704 C   0  0  0  0  0  0  0  0  0  0  0  0
   -2.2976   -6.7926   -8.5889 C   0  0  0  0  0  0  0  0  0  0  0  0
   -1.0030   -7.3237   -8.7726 C   0  0  0  0  0  0  0  0  0  0  0  0
   -0.7231   -8.1710   -9.9885 C   0  0  0  0  0  0  0  0  0  0  0  0
    0.0191   -7.0294   -7.8264 C   0  0  0  0  0  0  0  0  0  0  0  0
    1.4280   -7.5187   -8.0293 C   0  0  0  0  0  0  0  0  0  0  0  0
   -0.2749   -6.2180   -6.7111 C   0  0  0  0  0  0  0  0  0  0  0  0
   -1.5757   -5.7432   -6.5328 C   0  0  0  0  0  0  0  0  0  0  0  0
   -2.0650   -4.7884   -5.5090 C   0  0  0  0  0  0  0  0  0  0  0  0
   -1.5759   -4.7525   -4.2514 C   0  0  0  0  0  0  0  0  0  0  0  0
   -0.7973   -5.8418   -3.7190 C   0  0  0  0  0  0  0  0  0  0  0  0
   -0.1796   -6.7186   -3.2798 N   0  0  0  0  0  0  0  0  0  0  0  0
   -1.4281   -3.5251   -3.5325 C   0  0  0  0  0  0  0  0  0  0  0  0
   -1.2565   -2.5576   -2.9212 N   0  0  0  0  0  0  0  0  0  0  0  0
   -4.1572   -2.5180   -4.4580 C   0  0  0  0  0  0  0  0  0  0  0  0
   -4.3479   -2.6624   -3.0633 C   0  0  0  0  0  0  0  0  0  0  0  0
   -4.6868   -3.9064   -2.4020 N   0  0  0  0  0  0  0  0  0  0  0  0
   -4.4521   -4.0891   -1.0014 C   0  0  0  0  0  0  0  0  0  0  0  0
   -5.5021   -3.9273   -0.0870 C   0  0  0  0  0  0  0  0  0  0  0  0
   -5.2521   -3.9866    1.2865 C   0  0  0  0  0  0  0  0  0  0  0  0
   -3.9496   -4.2205    1.7592 C   0  0  0  0  0  0  0  0  0  0  0  0
   -3.6722   -4.2855    3.2324 C   0  0  0  0  0  0  0  0  0  0  0  0
   -2.9131   -4.4386    0.8403 C   0  0  0  0  0  0  0  0  0  0  0  0
   -3.1646   -4.3781   -0.5313 C   0  0  0  0  0  0  0  0  0  0  0  0
   -5.3977   -4.9350   -3.1062 C   0  0  0  0  0  0  0  0  0  0  0  0
   -4.7897   -6.1733   -3.3437 C   0  0  0  0  0  0  0  0  0  0  0  0
   -5.4236   -7.1237   -4.1483 C   0  0  0  0  0  0  0  0  0  0  0  0
   -6.6790   -6.8527   -4.7139 C   0  0  0  0  0  0  0  0  0  0  0  0
   -7.3416   -7.8765   -5.5906 C   0  0  0  0  0  0  0  0  0  0  0  0
   -7.3076   -5.6285   -4.4367 C   0  0  0  0  0  0  0  0  0  0  0  0
   -6.6671   -4.6756   -3.6415 C   0  0  0  0  0  0  0  0  0  0  0  0
   -4.0483   -1.4505   -2.4164 C   0  0  0  0  0  0  0  0  0  0  0  0
   -3.6017   -1.0502   -0.8505 S   0  0  0  0  0  0  0  0  0  0  0  0
   -2.9444    0.4741   -1.2315 C   0  0  0  0  0  0  0  0  0  0  0  0
   -3.0978    0.6719   -2.6115 C   0  0  0  0  0  0  0  0  0  0  0  0
   -2.5622    1.8029   -3.3226 N   0  0  0  0  0  0  0  0  0  0  0  0
   -3.4009    2.9586   -3.4130 C   0  0  0  0  0  0  0  0  0  0  0  0
   -4.1801    3.1712   -4.5590 C   0  0  0  0  0  0  0  0  0  0  0  0
   -4.9348    4.3395   -4.6867 C   0  0  0  0  0  0  0  0  0  0  0  0
   -4.9026    5.3162   -3.6788 C   0  0  0  0  0  0  0  0  0  0  0  0
   -5.7121    6.5679   -3.8240 C   0  0  0  0  0  0  0  0  0  0  0  0
   -4.1318    5.0928   -2.5238 C   0  0  0  0  0  0  0  0  0  0  0  0
   -3.3837    3.9206   -2.3943 C   0  0  0  0  0  0  0  0  0  0  0  0
   -1.2728    1.7916   -3.9917 C   0  0  0  0  0  0  0  0  0  0  0  0
   -0.6743    2.9944   -4.4185 C   0  0  0  0  0  0  0  0  0  0  0  0
    0.5573    2.9863   -5.0818 C   0  0  0  0  0  0  0  0  0  0  0  0
    1.2230    1.7773   -5.3263 C   0  0  0  0  0  0  0  0  0  0  0  0
    2.5200    1.7755   -6.0784 C   0  0  0  0  0  0  0  0  0  0  0  0
    0.6369    0.5759   -4.9118 C   0  0  0  0  0  0  0  0  0  0  0  0
   -0.5937    0.5863   -4.2456 C   0  0  0  0  0  0  0  0  0  0  0  0
   -3.7128   -0.4137   -3.2335 C   0  0  0  0  0  0  0  0  0  0  0  0
   -3.7356   -0.9091   -4.8275 S   0  0  0  0  0  0  0  0  0  0  0  0
   -1.7391    0.9339   -0.5530 C   0  0  0  0  0  0  0  0  0  0  0  0
   -1.6294    1.7721    0.5683 C   0  0  0  0  0  0  0  0  0  0  0  0
   -2.7191    1.9889    1.4781 N   0  0  0  0  0  0  0  0  0  0  0  0
   -3.5598    3.1284    1.2725 C   0  0  0  0  0  0  0  0  0  0  0  0
   -4.7703    2.9966    0.5759 C   0  0  0  0  0  0  0  0  0  0  0  0
   -5.6770    4.0634    0.5347 C   0  0  0  0  0  0  0  0  0  0  0  0
   -5.3813    5.2583    1.2040 C   0  0  0  0  0  0  0  0  0  0  0  0
   -6.5927    6.5783    1.2858 S   0  0  0  0  0  0  0  0  0  0  0  0
   -6.0469    7.3610   -0.2542 C   0  0  0  0  0  0  0  0  0  0  0  0
   -4.1545    5.4065    1.8589 C   0  0  0  0  0  0  0  0  0  0  0  0
   -3.2471    4.3468    1.8979 C   0  0  0  0  0  0  0  0  0  0  0  0
   -2.9199    1.1040    2.6157 C   0  0  0  0  0  0  0  0  0  0  0  0
   -3.8897    1.3992    3.6002 C   0  0  0  0  0  0  0  0  0  0  0  0
   -4.0364    0.5791    4.7247 C   0  0  0  0  0  0  0  0  0  0  0  0
   -3.2235   -0.5475    4.8871 C   0  0  0  0  0  0  0  0  0  0  0  0
   -3.3715   -1.5783    6.3478 S   0  0  0  0  0  0  0  0  0  0  0  0
   -2.2370   -0.5447    7.3355 C   0  0  0  0  0  0  0  0  0  0  0  0
   -2.2820   -0.8692    3.9091 C   0  0  0  0  0  0  0  0  0  0  0  0
   -2.1387   -0.0655    2.7786 C   0  0  0  0  0  0  0  0  0  0  0  0
   -0.2886    1.8740    0.9566 C   0  0  0  0  0  0  0  0  0  0  0  0
    0.5189    2.6448    2.2138 S   0  0  0  0  0  0  0  0  0  0  0  0
    2.0199    1.9096    1.8623 C   0  0  0  0  0  0  0  0  0  0  0  0
    1.8604    0.9691    0.8236 C   0  0  0  0  0  0  0  0  0  0  0  0
    2.7418   -0.1637    0.6438 N   0  0  0  0  0  0  0  0  0  0  0  0
    3.3391   -0.7744    1.8043 C   0  0  0  0  0  0  0  0  0  0  0  0
    2.5805   -0.9926    2.9694 C   0  0  0  0  0  0  0  0  0  0  0  0
    3.1678   -1.5690    4.0953 C   0  0  0  0  0  0  0  0  0  0  0  0
    4.5117   -1.9594    4.0633 C   0  0  0  0  0  0  0  0  0  0  0  0
    5.2699   -2.6760    5.5196 S   0  0  0  0  0  0  0  0  0  0  0  0
    5.7991   -1.0583    6.1852 C   0  0  0  0  0  0  0  0  0  0  0  0
    5.2625   -1.7853    2.8925 C   0  0  0  0  0  0  0  0  0  0  0  0
    4.6776   -1.2055    1.7628 C   0  0  0  0  0  0  0  0  0  0  0  0
    2.6439   -0.9944   -0.5245 C   0  0  0  0  0  0  0  0  0  0  0  0
    1.8738   -2.1696   -0.4788 C   0  0  0  0  0  0  0  0  0  0  0  0
    1.7694   -2.9862   -1.6110 C   0  0  0  0  0  0  0  0  0  0  0  0
    2.4608   -2.6525   -2.7806 C   0  0  0  0  0  0  0  0  0  0  0  0
    2.3489   -3.7227   -4.2212 S   0  0  0  0  0  0  0  0  0  0  0  0
    3.5743   -4.9084   -3.5804 C   0  0  0  0  0  0  0  0  0  0  0  0
    3.2536   -1.4955   -2.8235 C   0  0  0  0  0  0  0  0  0  0  0  0
    3.3390   -0.6658   -1.6980 C   0  0  0  0  0  0  0  0  0  0  0  0
    0.5785    1.0688    0.2866 C   0  0  0  0  0  0  0  0  0  0  0  0
   -0.2311    0.2471   -0.9138 S   0  0  0  0  0  0  0  0  0  0  0  0
    3.3199    2.3246    2.4191 C   0  0  0  0  0  0  0  0  0  0  0  0
    4.3592    2.6824    1.5410 C   0  0  0  0  0  0  0  0  0  0  0  0
    4.1807    2.6359    0.1968 F   0  0  0  0  0  0  0  0  0  0  0  0
    5.6059    3.0561    2.0390 C   0  0  0  0  0  0  0  0  0  0  0  0
    5.8416    3.0908    3.4201 C   0  0  0  0  0  0  0  0  0  0  0  0
    4.8120    2.7129    4.3011 C   0  0  0  0  0  0  0  0  0  0  0  0
    3.5500    2.3538    3.8037 C   0  0  0  0  0  0  0  0  0  0  0  0
    7.2168    3.3894    3.8837 C   0  0  0  0  0  0  0  0  0  0  0  0
    7.5608    4.2296    4.8783 C   0  0  0  0  0  0  0  0  0  0  0  0
    6.6477    5.1633    5.5556 C   0  0  0  0  0  0  0  0  0  0  0  0
    5.4114    5.2885    5.3560 O   0  0  0  0  0  0  0  0  0  0  0  0
    7.4297    6.0405    6.3973 C   0  0  0  0  0  0  0  0  0  0  0  0
    6.9652    7.0846    7.1997 C   0  0  0  0  0  0  0  0  0  0  0  0
    7.8925    7.8561    7.9212 C   0  0  0  0  0  0  0  0  0  0  0  0
    7.3977    8.9880    8.7796 C   0  0  0  0  0  0  0  0  0  0  0  0
    9.2826    7.5791    7.7909 C   0  0  0  0  0  0  0  0  0  0  0  0
   10.3100    8.4006    8.5289 C   0  0  0  0  0  0  0  0  0  0  0  0
    9.7121    6.5107    6.9752 C   0  0  0  0  0  0  0  0  0  0  0  0
    8.7704    5.7358    6.2804 C   0  0  0  0  0  0  0  0  0  0  0  0
    8.9477    4.5683    5.3589 C   0  0  0  0  0  0  0  0  0  0  0  0
   10.1091    3.9038    5.0905 C   0  0  0  0  0  0  0  0  0  0  0  0
   11.3877    4.3287    5.5806 C   0  0  0  0  0  0  0  0  0  0  0  0
   12.4371    4.6616    5.9464 N   0  0  0  0  0  0  0  0  0  0  0  0
   10.1756    2.7172    4.2709 C   0  0  0  0  0  0  0  0  0  0  0  0
   10.2409    1.7915    3.5856 N   0  0  0  0  0  0  0  0  0  0  0  0
   -5.2973   -3.4269   -6.0367 H   0  0  0  0  0  0  0  0  0  0  0  0
   -3.0833   -6.9668   -9.3137 H   0  0  0  0  0  0  0  0  0  0  0  0
    0.0850   -7.7049  -10.5897 H   0  0  0  0  0  0  0  0  0  0  0  0
   -0.4031   -9.1881   -9.6730 H   0  0  0  0  0  0  0  0  0  0  0  0
   -1.6154   -8.2666  -10.6379 H   0  0  0  0  0  0  0  0  0  0  0  0
    1.4399   -8.6269   -8.1012 H   0  0  0  0  0  0  0  0  0  0  0  0
    2.0825   -7.2340   -7.1769 H   0  0  0  0  0  0  0  0  0  0  0  0
    1.8561   -7.0798   -8.9541 H   0  0  0  0  0  0  0  0  0  0  0  0
    0.5132   -5.9311   -6.0260 H   0  0  0  0  0  0  0  0  0  0  0  0
   -6.5060   -3.7159   -0.4456 H   0  0  0  0  0  0  0  0  0  0  0  0
   -6.0716   -3.8367    1.9783 H   0  0  0  0  0  0  0  0  0  0  0  0
   -4.4644   -3.7678    3.8139 H   0  0  0  0  0  0  0  0  0  0  0  0
   -2.7045   -3.7940    3.4604 H   0  0  0  0  0  0  0  0  0  0  0  0
   -3.6159   -5.3444    3.5580 H   0  0  0  0  0  0  0  0  0  0  0  0
   -1.9077   -4.6471    1.1854 H   0  0  0  0  0  0  0  0  0  0  0  0
   -2.3508   -4.5330   -1.2273 H   0  0  0  0  0  0  0  0  0  0  0  0
   -3.8076   -6.3824   -2.9396 H   0  0  0  0  0  0  0  0  0  0  0  0
   -4.9259   -8.0637   -4.3575 H   0  0  0  0  0  0  0  0  0  0  0  0
   -8.2750   -7.4791   -6.0408 H   0  0  0  0  0  0  0  0  0  0  0  0
   -6.6514   -8.1577   -6.4132 H   0  0  0  0  0  0  0  0  0  0  0  0
   -7.5851   -8.7804   -4.9920 H   0  0  0  0  0  0  0  0  0  0  0  0
   -8.2804   -5.4049   -4.8534 H   0  0  0  0  0  0  0  0  0  0  0  0
   -7.1456   -3.7196   -3.4690 H   0  0  0  0  0  0  0  0  0  0  0  0
   -4.1924    2.4363   -5.3530 H   0  0  0  0  0  0  0  0  0  0  0  0
   -5.5394    4.4891   -5.5735 H   0  0  0  0  0  0  0  0  0  0  0  0
   -5.2325    7.4139   -3.2860 H   0  0  0  0  0  0  0  0  0  0  0  0
   -5.8091    6.8567   -4.8902 H   0  0  0  0  0  0  0  0  0  0  0  0
   -6.7287    6.4010   -3.4117 H   0  0  0  0  0  0  0  0  0  0  0  0
   -4.0940    5.8282   -1.7290 H   0  0  0  0  0  0  0  0  0  0  0  0
   -2.7748    3.7707   -1.5103 H   0  0  0  0  0  0  0  0  0  0  0  0
   -1.1489    3.9507   -4.2442 H   0  0  0  0  0  0  0  0  0  0  0  0
    0.9850    3.9213   -5.4198 H   0  0  0  0  0  0  0  0  0  0  0  0
    3.0505    0.8023   -5.9711 H   0  0  0  0  0  0  0  0  0  0  0  0
    2.3188    1.9521   -7.1558 H   0  0  0  0  0  0  0  0  0  0  0  0
    3.1869    2.5769   -5.6970 H   0  0  0  0  0  0  0  0  0  0  0  0
    1.1253   -0.3725   -5.1011 H   0  0  0  0  0  0  0  0  0  0  0  0
   -1.0160   -0.3507   -3.9437 H   0  0  0  0  0  0  0  0  0  0  0  0
   -5.0218    2.0613    0.0924 H   0  0  0  0  0  0  0  0  0  0  0  0
   -6.6175    3.9459    0.0139 H   0  0  0  0  0  0  0  0  0  0  0  0
   -6.2816    6.6776   -1.0913 H   0  0  0  0  0  0  0  0  0  0  0  0
   -4.9592    7.5747   -0.2161 H   0  0  0  0  0  0  0  0  0  0  0  0
   -6.5904    8.3170   -0.3982 H   0  0  0  0  0  0  0  0  0  0  0  0
   -3.9239    6.3307    2.3821 H   0  0  0  0  0  0  0  0  0  0  0  0
   -2.3210    4.4540    2.4569 H   0  0  0  0  0  0  0  0  0  0  0  0
   -4.5264    2.2683    3.5200 H   0  0  0  0  0  0  0  0  0  0  0  0
   -4.7596    0.8372    5.4852 H   0  0  0  0  0  0  0  0  0  0  0  0
   -2.0123   -1.0623    8.2950 H   0  0  0  0  0  0  0  0  0  0  0  0
   -1.2891   -0.3648    6.7866 H   0  0  0  0  0  0  0  0  0  0  0  0
   -2.7287    0.4240    7.5639 H   0  0  0  0  0  0  0  0  0  0  0  0
   -1.6590   -1.7467    4.0216 H   0  0  0  0  0  0  0  0  0  0  0  0
   -1.3993   -0.3578    2.0442 H   0  0  0  0  0  0  0  0  0  0  0  0
    1.5327   -0.7071    3.0021 H   0  0  0  0  0  0  0  0  0  0  0  0
    2.5763   -1.7180    4.9898 H   0  0  0  0  0  0  0  0  0  0  0  0
    4.8993   -0.4582    6.4484 H   0  0  0  0  0  0  0  0  0  0  0  0
    6.4132   -0.5042    5.4414 H   0  0  0  0  0  0  0  0  0  0  0  0
    6.3947   -1.2306    7.1107 H   0  0  0  0  0  0  0  0  0  0  0  0
    6.2965   -2.1064    2.8638 H   0  0  0  0  0  0  0  0  0  0  0  0
    5.2685   -1.0733    0.8648 H   0  0  0  0  0  0  0  0  0  0  0  0
    1.3301   -2.4284    0.4236 H   0  0  0  0  0  0  0  0  0  0  0  0
    1.1610   -3.8800   -1.5740 H   0  0  0  0  0  0  0  0  0  0  0  0
    4.5363   -4.3912   -3.3715 H   0  0  0  0  0  0  0  0  0  0  0  0
    3.7480   -5.7013   -4.3426 H   0  0  0  0  0  0  0  0  0  0  0  0
    3.1921   -5.3845   -2.6519 H   0  0  0  0  0  0  0  0  0  0  0  0
    3.7998   -1.2444   -3.7216 H   0  0  0  0  0  0  0  0  0  0  0  0
    3.9615    0.2187   -1.7297 H   0  0  0  0  0  0  0  0  0  0  0  0
    6.4006    3.2992    1.3437 H   0  0  0  0  0  0  0  0  0  0  0  0
    4.9937    2.6712    5.3669 H   0  0  0  0  0  0  0  0  0  0  0  0
    2.7672    2.0627    4.4949 H   0  0  0  0  0  0  0  0  0  0  0  0
    7.9809    2.9607    3.2615 H   0  0  0  0  0  0  0  0  0  0  0  0
    5.9056    7.2926    7.2524 H   0  0  0  0  0  0  0  0  0  0  0  0
    7.8480    8.9287    9.7928 H   0  0  0  0  0  0  0  0  0  0  0  0
    7.6712    9.9591    8.3127 H   0  0  0  0  0  0  0  0  0  0  0  0
    6.2934    8.9550    8.8986 H   0  0  0  0  0  0  0  0  0  0  0  0
   11.3457    8.1420    8.2191 H   0  0  0  0  0  0  0  0  0  0  0  0
   10.1574    9.4845    8.3281 H   0  0  0  0  0  0  0  0  0  0  0  0
   10.2186    8.2203    9.6179 H   0  0  0  0  0  0  0  0  0  0  0  0
   10.7652    6.3281    6.8952 H   0  0  0  0  0  0  0  0  0  0  0  0
  1  2  2  3
  2  3  1  0
  3  4  2  0
  3  5  1  0
  5  6  2  0
  6  7  1  0
  7  8  1  0
  7  9  2  0
  9 10  1  0
  9 11  1  0
 11 12  2  0
 12 13  1  0
 13 14  2  3
 14 15  1  0
 15 16  3  0
 14 17  1  0
 17 18  3  0
  1 19  1  0
 19 20  2  0
 20 21  1  0
 21 22  1  0
 22 23  2  0
 23 24  1  0
 24 25  2  0
 25 26  1  0
 25 27  1  0
 27 28  2  0
 21 29  1  0
 29 30  2  0
 30 31  1  0
 31 32  2  0
 32 33  1  0
 32 34  1  0
 34 35  2  0
 20 36  1  0
 36 37  1  0
 37 38  1  0
 38 39  2  0
 39 40  1  0
 40 41  1  0
 41 42  2  0
 42 43  1  0
 43 44  2  0
 44 45  1  0
 44 46  1  0
 46 47  2  0
 40 48  1  0
 48 49  2  0
 49 50  1  0
 50 51  2  0
 51 52  1  0
 51 53  1  0
 53 54  2  0
 39 55  1  0
 55 56  1  0
 38 57  1  0
 57 58  2  0
 58 59  1  0
 59 60  1  0
 60 61  2  0
 61 62  1  0
 62 63  2  0
 63 64  1  0
 64 65  1  0
 63 66  1  0
 66 67  2  0
 59 68  1  0
 68 69  2  0
 69 70  1  0
 70 71  2  0
 71 72  1  0
 72 73  1  0
 71 74  1  0
 74 75  2  0
 58 76  1  0
 76 77  1  0
 77 78  1  0
 78 79  2  0
 79 80  1  0
 80 81  1  0
 81 82  2  0
 82 83  1  0
 83 84  2  0
 84 85  1  0
 85 86  1  0
 84 87  1  0
 87 88  2  0
 80 89  1  0
 89 90  2  0
 90 91  1  0
 91 92  2  0
 92 93  1  0
 93 94  1  0
 92 95  1  0
 95 96  2  0
 79 97  1  0
 97 98  1  0
 78 99  1  0
 99100  2  0
100101  1  0
100102  1  0
102103  2  0
103104  1  0
104105  2  0
103106  1  0
106107  2  3
107108  1  0
108109  2  0
108110  1  0
110111  2  0
111112  1  0
112113  1  0
112114  2  0
114115  1  0
114116  1  0
116117  2  0
117118  1  0
118119  2  3
119120  1  0
120121  3  0
119122  1  0
122123  3  0
 13  2  1  0
 56 19  1  0
 98 57  1  0
105 99  1  0
118107  1  0
 12  5  1  0
 28 22  1  0
 35 29  1  0
 55 36  2  0
 67 60  1  0
 75 68  1  0
 97 76  2  0
117110  1  0
 47 41  1  0
 54 48  1  0
 88 81  1  0
 96 89  1  0
  1124  1  0
  6125  1  0
  8126  1  0
  8127  1  0
  8128  1  0
 10129  1  0
 10130  1  0
 10131  1  0
 11132  1  0
 23133  1  0
 24134  1  0
 26135  1  0
 26136  1  0
 26137  1  0
 27138  1  0
 28139  1  0
 30140  1  0
 31141  1  0
 33142  1  0
 33143  1  0
 33144  1  0
 34145  1  0
 35146  1  0
 42147  1  0
 43148  1  0
 45149  1  0
 45150  1  0
 45151  1  0
 46152  1  0
 47153  1  0
 49154  1  0
 50155  1  0
 52156  1  0
 52157  1  0
 52158  1  0
 53159  1  0
 54160  1  0
 61161  1  0
 62162  1  0
 65163  1  0
 65164  1  0
 65165  1  0
 66166  1  0
 67167  1  0
 69168  1  0
 70169  1  0
 73170  1  0
 73171  1  0
 73172  1  0
 74173  1  0
 75174  1  0
 82175  1  0
 83176  1  0
 86177  1  0
 86178  1  0
 86179  1  0
 87180  1  0
 88181  1  0
 90182  1  0
 91183  1  0
 94184  1  0
 94185  1  0
 94186  1  0
 95187  1  0
 96188  1  0
102189  1  0
104190  1  0
105191  1  0
106192  1  0
111193  1  0
113194  1  0
113195  1  0
113196  1  0
115197  1  0
115198  1  0
115199  1  0
116200  1  0
M  END

