
     RDKit          3D

176191  0  0  0  0  0  0  0  0999 V2000
   -6.6203   -3.9982   -6.0434 C   0  0  0  0  0  0  0  0  0  0  0  0
   -6.0064   -3.8144   -7.2302 C   0  0  0  0  0  0  0  0  0  0  0  0
   -4.8418   -2.9455   -7.4608 C   0  0  0  0  0  0  0  0  0  0  0  0
   -4.3676   -2.0879   -6.6688 O   0  0  0  0  0  0  0  0  0  0  0  0
   -4.2452   -3.3010   -8.7279 C   0  0  0  0  0  0  0  0  0  0  0  0
   -3.0844   -2.7850   -9.2983 C   0  0  0  0  0  0  0  0  0  0  0  0
   -2.6274   -3.3178  -10.5155 C   0  0  0  0  0  0  0  0  0  0  0  0
   -1.3895   -2.7313  -11.1435 C   0  0  0  0  0  0  0  0  0  0  0  0
   -3.3648   -4.3580  -11.1458 C   0  0  0  0  0  0  0  0  0  0  0  0
   -2.9169   -4.9414  -12.4597 C   0  0  0  0  0  0  0  0  0  0  0  0
   -4.5264   -4.8718  -10.5254 C   0  0  0  0  0  0  0  0  0  0  0  0
   -4.9735   -4.3143   -9.3174 C   0  0  0  0  0  0  0  0  0  0  0  0
   -6.1622   -4.6380   -8.4713 C   0  0  0  0  0  0  0  0  0  0  0  0
   -7.2506   -5.3673   -8.8304 C   0  0  0  0  0  0  0  0  0  0  0  0
   -7.3476   -6.0668  -10.0845 C   0  0  0  0  0  0  0  0  0  0  0  0
   -7.4462   -6.6367  -11.0877 N   0  0  0  0  0  0  0  0  0  0  0  0
   -8.4464   -5.4095   -8.0292 C   0  0  0  0  0  0  0  0  0  0  0  0
   -9.4119   -5.4535   -7.3922 N   0  0  0  0  0  0  0  0  0  0  0  0
   -6.3411   -3.1715   -4.8548 C   0  0  0  0  0  0  0  0  0  0  0  0
   -5.7945   -3.7785   -3.7069 C   0  0  0  0  0  0  0  0  0  0  0  0
   -5.4175   -2.9576   -2.6367 C   0  0  0  0  0  0  0  0  0  0  0  0
   -4.7406   -3.3116   -1.5160 N   0  0  0  0  0  0  0  0  0  0  0  0
   -4.3516   -4.6621   -1.0911 C   0  0  0  0  0  0  0  0  0  0  0  0
   -5.3912   -5.2253   -0.1297 C   0  0  0  0  0  0  0  0  0  0  0  0
   -4.5120   -2.1467   -0.8573 C   0  0  0  0  0  0  0  0  0  0  0  0
   -5.0316   -1.0725   -1.5536 C   0  0  0  0  0  0  0  0  0  0  0  0
   -5.6145   -1.5912   -2.6877 C   0  0  0  0  0  0  0  0  0  0  0  0
   -6.2057   -0.9692   -3.7841 C   0  0  0  0  0  0  0  0  0  0  0  0
   -6.5793   -1.7732   -4.8740 C   0  0  0  0  0  0  0  0  0  0  0  0
   -4.8326    0.2450   -1.1427 C   0  0  0  0  0  0  0  0  0  0  0  0
   -4.0410    0.4615   -0.0025 C   0  0  0  0  0  0  0  0  0  0  0  0
   -3.4867   -0.6291    0.7112 C   0  0  0  0  0  0  0  0  0  0  0  0
   -3.7498   -1.9506    0.2981 C   0  0  0  0  0  0  0  0  0  0  0  0
   -2.4468   -0.4010    1.7201 C   0  0  0  0  0  0  0  0  0  0  0  0
   -1.1821    0.1227    1.4197 C   0  0  0  0  0  0  0  0  0  0  0  0
   -0.8338    0.8332    0.2219 N   0  0  0  0  0  0  0  0  0  0  0  0
    0.1457    0.2285   -0.6405 C   0  0  0  0  0  0  0  0  0  0  0  0
   -0.0978   -1.0309   -1.2079 C   0  0  0  0  0  0  0  0  0  0  0  0
    0.8783   -1.6416   -2.0015 C   0  0  0  0  0  0  0  0  0  0  0  0
    2.1049   -1.0036   -2.2234 C   0  0  0  0  0  0  0  0  0  0  0  0
    3.3744   -1.8036   -3.2068 S   0  0  0  0  0  0  0  0  0  0  0  0
    4.0851   -2.6857   -1.7841 C   0  0  0  0  0  0  0  0  0  0  0  0
    2.3537    0.2502   -1.6524 C   0  0  0  0  0  0  0  0  0  0  0  0
    1.3819    0.8610   -0.8645 C   0  0  0  0  0  0  0  0  0  0  0  0
   -1.0724    2.2558    0.1376 C   0  0  0  0  0  0  0  0  0  0  0  0
   -1.1519    3.0533    1.2983 C   0  0  0  0  0  0  0  0  0  0  0  0
   -1.2438    4.4431    1.1996 C   0  0  0  0  0  0  0  0  0  0  0  0
   -1.2612    5.0584   -0.0535 C   0  0  0  0  0  0  0  0  0  0  0  0
   -1.2774    6.8469   -0.1800 S   0  0  0  0  0  0  0  0  0  0  0  0
    0.5328    6.9973   -0.0267 C   0  0  0  0  0  0  0  0  0  0  0  0
   -1.2340    4.2763   -1.2145 C   0  0  0  0  0  0  0  0  0  0  0  0
   -1.1498    2.8831   -1.1198 C   0  0  0  0  0  0  0  0  0  0  0  0
   -0.2882   -0.0998    2.4496 C   0  0  0  0  0  0  0  0  0  0  0  0
    1.3188    0.2690    2.6524 S   0  0  0  0  0  0  0  0  0  0  0  0
    1.3993   -0.3633    4.2301 C   0  0  0  0  0  0  0  0  0  0  0  0
    0.1290   -0.8464    4.6052 C   0  0  0  0  0  0  0  0  0  0  0  0
   -0.2302   -1.2634    5.9289 N   0  0  0  0  0  0  0  0  0  0  0  0
   -0.0028   -2.6352    6.2800 C   0  0  0  0  0  0  0  0  0  0  0  0
    0.9769   -2.9696    7.2268 C   0  0  0  0  0  0  0  0  0  0  0  0
    1.1072   -4.2917    7.6646 C   0  0  0  0  0  0  0  0  0  0  0  0
    0.2564   -5.2844    7.1605 C   0  0  0  0  0  0  0  0  0  0  0  0
    0.3499   -6.9571    7.7988 S   0  0  0  0  0  0  0  0  0  0  0  0
    1.5122   -7.5153    6.5180 C   0  0  0  0  0  0  0  0  0  0  0  0
   -0.6983   -4.9597    6.1912 C   0  0  0  0  0  0  0  0  0  0  0  0
   -0.8278   -3.6393    5.7522 C   0  0  0  0  0  0  0  0  0  0  0  0
   -0.9224   -0.3589    6.8319 C   0  0  0  0  0  0  0  0  0  0  0  0
   -1.4072   -0.8057    8.0802 C   0  0  0  0  0  0  0  0  0  0  0  0
   -2.0531    0.0732    8.9528 C   0  0  0  0  0  0  0  0  0  0  0  0
   -2.2256    1.4146    8.6021 C   0  0  0  0  0  0  0  0  0  0  0  0
   -3.0286    2.5489    9.7369 S   0  0  0  0  0  0  0  0  0  0  0  0
   -4.6974    2.1850    9.1123 C   0  0  0  0  0  0  0  0  0  0  0  0
   -1.7641    1.8718    7.3680 C   0  0  0  0  0  0  0  0  0  0  0  0
   -1.1189    0.9969    6.4895 C   0  0  0  0  0  0  0  0  0  0  0  0
   -0.7868   -0.7016    3.5564 C   0  0  0  0  0  0  0  0  0  0  0  0
   -2.4068   -1.0864    3.2910 S   0  0  0  0  0  0  0  0  0  0  0  0
    2.6086   -0.1510    5.0374 C   0  0  0  0  0  0  0  0  0  0  0  0
    3.8294   -0.4325    4.3920 C   0  0  0  0  0  0  0  0  0  0  0  0
    4.9105    0.4295    4.5941 C   0  0  0  0  0  0  0  0  0  0  0  0
    5.9156    0.6483    3.7085 N   0  0  0  0  0  0  0  0  0  0  0  0
    6.2002   -0.1542    2.5081 C   0  0  0  0  0  0  0  0  0  0  0  0
    6.7773   -1.5119    2.8921 C   0  0  0  0  0  0  0  0  0  0  0  0
    6.3930    1.8846    4.0118 C   0  0  0  0  0  0  0  0  0  0  0  0
    5.7660    2.3920    5.1391 C   0  0  0  0  0  0  0  0  0  0  0  0
    4.8172    1.4596    5.5107 C   0  0  0  0  0  0  0  0  0  0  0  0
    3.6887    1.6312    6.3140 C   0  0  0  0  0  0  0  0  0  0  0  0
    2.5744    0.8073    6.0745 C   0  0  0  0  0  0  0  0  0  0  0  0
    5.8704    3.7382    5.4968 C   0  0  0  0  0  0  0  0  0  0  0  0
    6.5709    4.6007    4.6373 C   0  0  0  0  0  0  0  0  0  0  0  0
    7.1422    4.1084    3.4440 C   0  0  0  0  0  0  0  0  0  0  0  0
    7.1156    2.7304    3.1596 C   0  0  0  0  0  0  0  0  0  0  0  0
    7.4981    5.0443    2.3645 C   0  0  0  0  0  0  0  0  0  0  0  0
    6.6276    5.3402    1.3739 C   0  0  0  0  0  0  0  0  0  0  0  0
    5.2699    4.7883    1.2427 C   0  0  0  0  0  0  0  0  0  0  0  0
    4.6014    4.2148    2.1439 O   0  0  0  0  0  0  0  0  0  0  0  0
    4.8110    5.0131   -0.1101 C   0  0  0  0  0  0  0  0  0  0  0  0
    3.6396    4.5445   -0.7031 C   0  0  0  0  0  0  0  0  0  0  0  0
    3.4216    4.7968   -2.0706 C   0  0  0  0  0  0  0  0  0  0  0  0
    2.1447    4.3245   -2.7129 C   0  0  0  0  0  0  0  0  0  0  0  0
    4.3992    5.5182   -2.8135 C   0  0  0  0  0  0  0  0  0  0  0  0
    4.2003    5.8195   -4.2779 C   0  0  0  0  0  0  0  0  0  0  0  0
    5.5784    5.9645   -2.1786 C   0  0  0  0  0  0  0  0  0  0  0  0
    5.7644    5.7257   -0.8091 C   0  0  0  0  0  0  0  0  0  0  0  0
    6.8997    6.0769    0.0989 C   0  0  0  0  0  0  0  0  0  0  0  0
    7.8484    7.0257   -0.1101 C   0  0  0  0  0  0  0  0  0  0  0  0
    8.7583    7.4417    0.9228 C   0  0  0  0  0  0  0  0  0  0  0  0
    9.4900    7.7851    1.7528 N   0  0  0  0  0  0  0  0  0  0  0  0
    7.9372    7.7813   -1.3309 C   0  0  0  0  0  0  0  0  0  0  0  0
    8.0232    8.4072   -2.3023 N   0  0  0  0  0  0  0  0  0  0  0  0
   -7.2556   -4.8543   -5.8876 H   0  0  0  0  0  0  0  0  0  0  0  0
   -2.5434   -1.9919   -8.7984 H   0  0  0  0  0  0  0  0  0  0  0  0
   -1.6846   -2.0229  -11.9454 H   0  0  0  0  0  0  0  0  0  0  0  0
   -0.7495   -3.5274  -11.5794 H   0  0  0  0  0  0  0  0  0  0  0  0
   -0.7736   -2.1874  -10.3945 H   0  0  0  0  0  0  0  0  0  0  0  0
   -1.9704   -5.5061  -12.3208 H   0  0  0  0  0  0  0  0  0  0  0  0
   -3.6768   -5.6326  -12.8816 H   0  0  0  0  0  0  0  0  0  0  0  0
   -2.7586   -4.1294  -13.1999 H   0  0  0  0  0  0  0  0  0  0  0  0
   -5.0376   -5.6968  -10.9856 H   0  0  0  0  0  0  0  0  0  0  0  0
   -5.6170   -4.8470   -3.6864 H   0  0  0  0  0  0  0  0  0  0  0  0
   -3.3569   -4.6408   -0.5993 H   0  0  0  0  0  0  0  0  0  0  0  0
   -4.2553   -5.3366   -1.9682 H   0  0  0  0  0  0  0  0  0  0  0  0
   -5.1275   -6.2700    0.1428 H   0  0  0  0  0  0  0  0  0  0  0  0
   -5.4217   -4.6133    0.7948 H   0  0  0  0  0  0  0  0  0  0  0  0
   -6.3915   -5.2208   -0.6084 H   0  0  0  0  0  0  0  0  0  0  0  0
   -6.3374    0.1040   -3.8182 H   0  0  0  0  0  0  0  0  0  0  0  0
   -7.0170   -1.3087   -5.7489 H   0  0  0  0  0  0  0  0  0  0  0  0
   -5.2250    1.0761   -1.7092 H   0  0  0  0  0  0  0  0  0  0  0  0
   -3.8224    1.4772    0.3022 H   0  0  0  0  0  0  0  0  0  0  0  0
   -3.2903   -2.7874    0.8099 H   0  0  0  0  0  0  0  0  0  0  0  0
   -1.0371   -1.5365   -1.0286 H   0  0  0  0  0  0  0  0  0  0  0  0
    0.6849   -2.6152   -2.4314 H   0  0  0  0  0  0  0  0  0  0  0  0
    4.9940   -3.2295   -2.1136 H   0  0  0  0  0  0  0  0  0  0  0  0
    3.3507   -3.4171   -1.3961 H   0  0  0  0  0  0  0  0  0  0  0  0
    4.3638   -1.9691   -0.9842 H   0  0  0  0  0  0  0  0  0  0  0  0
    3.3061    0.7433   -1.8101 H   0  0  0  0  0  0  0  0  0  0  0  0
    1.6012    1.8122   -0.3965 H   0  0  0  0  0  0  0  0  0  0  0  0
   -1.0944    2.6105    2.2853 H   0  0  0  0  0  0  0  0  0  0  0  0
   -1.2716    5.0415    2.1011 H   0  0  0  0  0  0  0  0  0  0  0  0
    0.8371    6.8273    1.0269 H   0  0  0  0  0  0  0  0  0  0  0  0
    1.0477    6.2654   -0.6796 H   0  0  0  0  0  0  0  0  0  0  0  0
    0.8345    8.0195   -0.3305 H   0  0  0  0  0  0  0  0  0  0  0  0
   -1.2610    4.7462   -2.1901 H   0  0  0  0  0  0  0  0  0  0  0  0
   -1.1080    2.2944   -2.0253 H   0  0  0  0  0  0  0  0  0  0  0  0
    1.6087   -2.1986    7.6465 H   0  0  0  0  0  0  0  0  0  0  0  0
    1.8418   -4.5342    8.4203 H   0  0  0  0  0  0  0  0  0  0  0  0
    2.4301   -6.8918    6.5373 H   0  0  0  0  0  0  0  0  0  0  0  0
    1.7880   -8.5717    6.7167 H   0  0  0  0  0  0  0  0  0  0  0  0
    1.0332   -7.4539    5.5203 H   0  0  0  0  0  0  0  0  0  0  0  0
   -1.3584   -5.7227    5.7987 H   0  0  0  0  0  0  0  0  0  0  0  0
   -1.5988   -3.3935    5.0347 H   0  0  0  0  0  0  0  0  0  0  0  0
   -1.2976   -1.8364    8.3884 H   0  0  0  0  0  0  0  0  0  0  0  0
   -2.4172   -0.2890    9.9058 H   0  0  0  0  0  0  0  0  0  0  0  0
   -4.9363    1.1131    9.2667 H   0  0  0  0  0  0  0  0  0  0  0  0
   -5.4341    2.8038    9.6658 H   0  0  0  0  0  0  0  0  0  0  0  0
   -4.7634    2.4320    8.0310 H   0  0  0  0  0  0  0  0  0  0  0  0
   -1.8873    2.9137    7.0892 H   0  0  0  0  0  0  0  0  0  0  0  0
   -0.7653    1.3957    5.5482 H   0  0  0  0  0  0  0  0  0  0  0  0
    3.8381   -1.1227    3.5601 H   0  0  0  0  0  0  0  0  0  0  0  0
    5.2702   -0.2897    1.9112 H   0  0  0  0  0  0  0  0  0  0  0  0
    6.9306    0.3483    1.8455 H   0  0  0  0  0  0  0  0  0  0  0  0
    6.0460   -2.0968    3.4857 H   0  0  0  0  0  0  0  0  0  0  0  0
    7.0291   -2.0839    1.9740 H   0  0  0  0  0  0  0  0  0  0  0  0
    7.7023   -1.3725    3.4911 H   0  0  0  0  0  0  0  0  0  0  0  0
    3.6013    2.4748    6.9856 H   0  0  0  0  0  0  0  0  0  0  0  0
    1.6424    1.0539    6.5577 H   0  0  0  0  0  0  0  0  0  0  0  0
    5.3325    4.1355    6.3470 H   0  0  0  0  0  0  0  0  0  0  0  0
    6.5710    5.6662    4.8434 H   0  0  0  0  0  0  0  0  0  0  0  0
    7.5110    2.3838    2.2166 H   0  0  0  0  0  0  0  0  0  0  0  0
    8.5250    5.3581    2.3214 H   0  0  0  0  0  0  0  0  0  0  0  0
    2.9187    3.9918   -0.1147 H   0  0  0  0  0  0  0  0  0  0  0  0
    1.4517    5.1795   -2.8470 H   0  0  0  0  0  0  0  0  0  0  0  0
    1.6393    3.5544   -2.0917 H   0  0  0  0  0  0  0  0  0  0  0  0
    2.3441    3.8587   -3.6991 H   0  0  0  0  0  0  0  0  0  0  0  0
    5.0134    6.4491   -4.6867 H   0  0  0  0  0  0  0  0  0  0  0  0
    4.1910    4.8720   -4.8577 H   0  0  0  0  0  0  0  0  0  0  0  0
    3.2363    6.3517   -4.4264 H   0  0  0  0  0  0  0  0  0  0  0  0
    6.3369    6.4581   -2.7645 H   0  0  0  0  0  0  0  0  0  0  0  0
  1  2  2  3
  2  3  1  0
  3  4  2  0
  3  5  1  0
  5  6  2  0
  6  7  1  0
  7  8  1  0
  7  9  2  0
  9 10  1  0
  9 11  1  0
 11 12  2  0
 12 13  1  0
 13 14  2  3
 14 15  1  0
 15 16  3  0
 14 17  1  0
 17 18  3  0
  1 19  1  0
 19 20  2  0
 20 21  1  0
 21 22  1  0
 22 23  1  0
 23 24  1  0
 22 25  1  0
 25 26  2  0
 26 27  1  0
 27 28  1  0
 28 29  2  0
 26 30  1  0
 30 31  2  0
 31 32  1  0
 32 33  2  0
 32 34  1  0
 34 35  2  0
 35 36  1  0
 36 37  1  0
 37 38  2  0
 38 39  1  0
 39 40  2  0
 40 41  1  0
 41 42  1  0
 40 43  1  0
 43 44  2  0
 36 45  1  0
 45 46  2  0
 46 47  1  0
 47 48  2  0
 48 49  1  0
 49 50  1  0
 48 51  1  0
 51 52  2  0
 35 53  1  0
 53 54  1  0
 54 55  1  0
 55 56  2  0
 56 57  1  0
 57 58  1  0
 58 59  2  0
 59 60  1  0
 60 61  2  0
 61 62  1  0
 62 63  1  0
 61 64  1  0
 64 65  2  0
 57 66  1  0
 66 67  2  0
 67 68  1  0
 68 69  2  0
 69 70  1  0
 70 71  1  0
 69 72  1  0
 72 73  2  0
 56 74  1  0
 74 75  1  0
 55 76  1  0
 76 77  2  0
 77 78  1  0
 78 79  1  0
 79 80  1  0
 80 81  1  0
 79 82  1  0
 82 83  2  0
 83 84  1  0
 84 85  1  0
 85 86  2  0
 83 87  1  0
 87 88  2  0
 88 89  1  0
 89 90  2  0
 89 91  1  0
 91 92  2  3
 92 93  1  0
 93 94  2  0
 93 95  1  0
 95 96  2  0
 96 97  1  0
 97 98  1  0
 97 99  2  0
 99100  1  0
 99101  1  0
101102  2  0
102103  1  0
103104  2  3
104105  1  0
105106  3  0
104107  1  0
107108  3  0
 13  2  1  0
 29 19  1  0
 75 34  1  0
 86 76  1  0
103 92  1  0
 12  5  1  0
 27 21  2  0
 44 37  1  0
 52 45  1  0
 74 53  2  0
 84 78  2  0
102 95  1  0
 33 25  1  0
 65 58  1  0
 73 66  1  0
 90 82  1  0
  1109  1  0
  6110  1  0
  8111  1  0
  8112  1  0
  8113  1  0
 10114  1  0
 10115  1  0
 10116  1  0
 11117  1  0
 20118  1  0
 23119  1  0
 23120  1  0
 24121  1  0
 24122  1  0
 24123  1  0
 28124  1  0
 29125  1  0
 30126  1  0
 31127  1  0
 33128  1  0
 38129  1  0
 39130  1  0
 42131  1  0
 42132  1  0
 42133  1  0
 43134  1  0
 44135  1  0
 46136  1  0
 47137  1  0
 50138  1  0
 50139  1  0
 50140  1  0
 51141  1  0
 52142  1  0
 59143  1  0
 60144  1  0
 63145  1  0
 63146  1  0
 63147  1  0
 64148  1  0
 65149  1  0
 67150  1  0
 68151  1  0
 71152  1  0
 71153  1  0
 71154  1  0
 72155  1  0
 73156  1  0
 77157  1  0
 80158  1  0
 80159  1  0
 81160  1  0
 81161  1  0
 81162  1  0
 85163  1  0
 86164  1  0
 87165  1  0
 88166  1  0
 90167  1  0
 91168  1  0
 96169  1  0
 98170  1  0
 98171  1  0
 98172  1  0
100173  1  0
100174  1  0
100175  1  0
101176  1  0
M  END

