
     RDKit          3D

146158  0  0  0  0  0  0  0  0999 V2000
   -4.6268   -3.4250    1.4465 C   0  0  0  0  0  0  0  0  0  0  0  0
   -4.8175   -4.5246    2.2060 C   0  0  0  0  0  0  0  0  0  0  0  0
   -3.8499   -5.6163    2.3853 C   0  0  0  0  0  0  0  0  0  0  0  0
   -2.9090   -5.9061    1.6015 O   0  0  0  0  0  0  0  0  0  0  0  0
   -4.1988   -6.3443    3.5838 C   0  0  0  0  0  0  0  0  0  0  0  0
   -3.4986   -7.3815    4.2016 C   0  0  0  0  0  0  0  0  0  0  0  0
   -2.3307   -7.8811    3.6332 O   0  0  0  0  0  0  0  0  0  0  0  0
   -4.0012   -7.8992    5.4062 C   0  0  0  0  0  0  0  0  0  0  0  0
   -5.1703   -7.3619    5.9721 C   0  0  0  0  0  0  0  0  0  0  0  0
   -5.8653   -6.3241    5.3292 C   0  0  0  0  0  0  0  0  0  0  0  0
   -5.3740   -5.8321    4.1091 C   0  0  0  0  0  0  0  0  0  0  0  0
   -5.8978   -4.7622    3.2108 C   0  0  0  0  0  0  0  0  0  0  0  0
   -7.1622   -4.2721    3.1769 C   0  0  0  0  0  0  0  0  0  0  0  0
   -8.1679   -4.6562    4.1334 C   0  0  0  0  0  0  0  0  0  0  0  0
   -8.9942   -4.9595    4.8927 N   0  0  0  0  0  0  0  0  0  0  0  0
   -7.6512   -3.4682    2.0866 C   0  0  0  0  0  0  0  0  0  0  0  0
   -8.0678   -2.8280    1.2137 N   0  0  0  0  0  0  0  0  0  0  0  0
   -3.3537   -3.1589    0.7536 C   0  0  0  0  0  0  0  0  0  0  0  0
   -3.1888   -2.8002   -0.5986 C   0  0  0  0  0  0  0  0  0  0  0  0
   -4.2258   -2.1688   -1.3711 N   0  0  0  0  0  0  0  0  0  0  0  0
   -4.9657   -1.0892   -0.7758 C   0  0  0  0  0  0  0  0  0  0  0  0
   -4.3036   -0.1032   -0.0199 C   0  0  0  0  0  0  0  0  0  0  0  0
   -5.0337    0.8899    0.6353 C   0  0  0  0  0  0  0  0  0  0  0  0
   -6.4269    0.9099    0.5486 C   0  0  0  0  0  0  0  0  0  0  0  0
   -7.3613    2.1526    1.4418 S   0  0  0  0  0  0  0  0  0  0  0  0
   -7.3960    1.1950    2.9928 C   0  0  0  0  0  0  0  0  0  0  0  0
   -7.0912   -0.0469   -0.2231 C   0  0  0  0  0  0  0  0  0  0  0  0
   -6.3628   -1.0366   -0.8937 C   0  0  0  0  0  0  0  0  0  0  0  0
   -4.2395   -2.2938   -2.7993 C   0  0  0  0  0  0  0  0  0  0  0  0
   -3.9600   -1.1737   -3.5995 C   0  0  0  0  0  0  0  0  0  0  0  0
   -3.9299   -1.2972   -4.9903 C   0  0  0  0  0  0  0  0  0  0  0  0
   -4.2574   -2.5150   -5.5936 C   0  0  0  0  0  0  0  0  0  0  0  0
   -4.3096   -2.6341   -7.3774 S   0  0  0  0  0  0  0  0  0  0  0  0
   -6.0265   -2.0510   -7.5004 C   0  0  0  0  0  0  0  0  0  0  0  0
   -4.5477   -3.6317   -4.7996 C   0  0  0  0  0  0  0  0  0  0  0  0
   -4.5144   -3.5270   -3.4048 C   0  0  0  0  0  0  0  0  0  0  0  0
   -1.8287   -2.6114   -0.8850 C   0  0  0  0  0  0  0  0  0  0  0  0
   -0.9968   -1.9945   -2.1996 S   0  0  0  0  0  0  0  0  0  0  0  0
    0.4474   -1.7196   -1.3437 C   0  0  0  0  0  0  0  0  0  0  0  0
    0.2470   -2.0272    0.0133 C   0  0  0  0  0  0  0  0  0  0  0  0
    0.8627   -1.2608    1.0649 N   0  0  0  0  0  0  0  0  0  0  0  0
    1.6744   -1.8754    2.0922 C   0  0  0  0  0  0  0  0  0  0  0  0
    2.2326   -1.1043    3.1294 C   0  0  0  0  0  0  0  0  0  0  0  0
    3.1105   -1.6774    4.0550 C   0  0  0  0  0  0  0  0  0  0  0  0
    3.4569   -3.0212    3.9493 C   0  0  0  0  0  0  0  0  0  0  0  0
    4.6896   -3.7136    5.0496 S   0  0  0  0  0  0  0  0  0  0  0  0
    6.0352   -3.5407    3.8425 C   0  0  0  0  0  0  0  0  0  0  0  0
    2.8607   -3.8173    2.9661 C   0  0  0  0  0  0  0  0  0  0  0  0
    1.9574   -3.2584    2.0579 C   0  0  0  0  0  0  0  0  0  0  0  0
    0.4718    0.1218    1.1568 C   0  0  0  0  0  0  0  0  0  0  0  0
   -0.7280    0.4759    1.7918 C   0  0  0  0  0  0  0  0  0  0  0  0
   -1.1633    1.8066    1.7918 C   0  0  0  0  0  0  0  0  0  0  0  0
   -0.4123    2.7902    1.1428 C   0  0  0  0  0  0  0  0  0  0  0  0
   -0.9720    4.4938    1.1468 S   0  0  0  0  0  0  0  0  0  0  0  0
   -2.0217    4.2747   -0.3228 C   0  0  0  0  0  0  0  0  0  0  0  0
    0.7885    2.4438    0.5138 C   0  0  0  0  0  0  0  0  0  0  0  0
    1.2427    1.1224    0.5454 C   0  0  0  0  0  0  0  0  0  0  0  0
   -1.0009   -2.6231    0.1956 C   0  0  0  0  0  0  0  0  0  0  0  0
   -1.8738   -3.0061    1.5716 S   0  0  0  0  0  0  0  0  0  0  0  0
    1.6482   -1.0552   -1.9009 C   0  0  0  0  0  0  0  0  0  0  0  0
    1.5579   -0.0430   -2.8561 C   0  0  0  0  0  0  0  0  0  0  0  0
    0.4627    0.4425   -3.4620 N   0  0  0  0  0  0  0  0  0  0  0  0
    0.8896    1.4867   -4.1636 N   0  0  0  0  0  0  0  0  0  0  0  0
    0.0094    2.3473   -4.9365 C   0  0  0  0  0  0  0  0  0  0  0  0
   -0.7343    3.3008   -4.0082 C   0  0  0  0  0  0  0  0  0  0  0  0
    2.1878    1.7200   -4.0042 N   0  0  0  0  0  0  0  0  0  0  0  0
    2.6215    0.7384   -3.1957 C   0  0  0  0  0  0  0  0  0  0  0  0
    3.8804    0.5786   -2.6117 C   0  0  0  0  0  0  0  0  0  0  0  0
    4.0407   -0.4988   -1.7104 C   0  0  0  0  0  0  0  0  0  0  0  0
    2.9424   -1.3273   -1.3849 C   0  0  0  0  0  0  0  0  0  0  0  0
    3.1318   -2.3680   -0.5383 F   0  0  0  0  0  0  0  0  0  0  0  0
    5.2446   -0.7294   -1.1262 F   0  0  0  0  0  0  0  0  0  0  0  0
    4.9245    1.6035   -2.7588 C   0  0  0  0  0  0  0  0  0  0  0  0
    5.2653    2.2772   -3.9316 C   0  0  0  0  0  0  0  0  0  0  0  0
    6.1337    3.3597   -3.7157 C   0  0  0  0  0  0  0  0  0  0  0  0
    6.7314    4.4105   -5.0455 S   0  0  0  0  0  0  0  0  0  0  0  0
    8.2861    3.4835   -5.2951 C   0  0  0  0  0  0  0  0  0  0  0  0
    8.1233    2.4839   -6.4327 C   0  0  0  0  0  0  0  0  0  0  0  0
    6.4222    3.5784   -2.3692 C   0  0  0  0  0  0  0  0  0  0  0  0
    5.6843    2.3646   -1.4636 S   0  0  0  0  0  0  0  0  0  0  0  0
    7.2558    4.6759   -1.8437 C   0  0  0  0  0  0  0  0  0  0  0  0
    7.0702    5.3026   -0.6652 C   0  0  0  0  0  0  0  0  0  0  0  0
    8.1392    6.0340    0.0133 C   0  0  0  0  0  0  0  0  0  0  0  0
    9.1930    6.4554   -0.5334 O   0  0  0  0  0  0  0  0  0  0  0  0
    7.8044    6.1338    1.4269 C   0  0  0  0  0  0  0  0  0  0  0  0
    8.5512    6.6618    2.4984 C   0  0  0  0  0  0  0  0  0  0  0  0
    9.8079    7.2427    2.3290 O   0  0  0  0  0  0  0  0  0  0  0  0
    8.0070    6.5852    3.7893 C   0  0  0  0  0  0  0  0  0  0  0  0
    6.7561    5.9852    4.0066 C   0  0  0  0  0  0  0  0  0  0  0  0
    6.0267    5.4604    2.9274 C   0  0  0  0  0  0  0  0  0  0  0  0
    6.5492    5.5693    1.6268 C   0  0  0  0  0  0  0  0  0  0  0  0
    5.9644    5.1607    0.3225 C   0  0  0  0  0  0  0  0  0  0  0  0
    4.6376    5.1002    0.0295 C   0  0  0  0  0  0  0  0  0  0  0  0
    4.1493    5.2801   -1.3127 C   0  0  0  0  0  0  0  0  0  0  0  0
    3.7511    5.4240   -2.3918 N   0  0  0  0  0  0  0  0  0  0  0  0
    3.6237    4.9674    1.0436 C   0  0  0  0  0  0  0  0  0  0  0  0
    2.8079    4.8336    1.8601 N   0  0  0  0  0  0  0  0  0  0  0  0
   -5.3554   -2.6359    1.4376 H   0  0  0  0  0  0  0  0  0  0  0  0
   -1.8282   -8.6502    4.0574 H   0  0  0  0  0  0  0  0  0  0  0  0
   -3.4866   -8.7054    5.9128 H   0  0  0  0  0  0  0  0  0  0  0  0
   -5.5448   -7.7579    6.9122 H   0  0  0  0  0  0  0  0  0  0  0  0
   -6.7353   -5.9082    5.8089 H   0  0  0  0  0  0  0  0  0  0  0  0
   -3.2207   -0.1110    0.0665 H   0  0  0  0  0  0  0  0  0  0  0  0
   -4.5115    1.6341    1.2277 H   0  0  0  0  0  0  0  0  0  0  0  0
   -7.8369    0.1893    2.8165 H   0  0  0  0  0  0  0  0  0  0  0  0
   -6.3601    1.0863    3.3811 H   0  0  0  0  0  0  0  0  0  0  0  0
   -8.0086    1.7373    3.7397 H   0  0  0  0  0  0  0  0  0  0  0  0
   -8.1711   -0.0333   -0.3001 H   0  0  0  0  0  0  0  0  0  0  0  0
   -6.8857   -1.7794   -1.4824 H   0  0  0  0  0  0  0  0  0  0  0  0
   -3.7330   -0.2158   -3.1378 H   0  0  0  0  0  0  0  0  0  0  0  0
   -3.6825   -0.4464   -5.5989 H   0  0  0  0  0  0  0  0  0  0  0  0
   -6.7119   -2.7701   -7.0071 H   0  0  0  0  0  0  0  0  0  0  0  0
   -6.3088   -1.9493   -8.5684 H   0  0  0  0  0  0  0  0  0  0  0  0
   -6.1186   -1.0544   -7.0141 H   0  0  0  0  0  0  0  0  0  0  0  0
   -4.7847   -4.5808   -5.2602 H   0  0  0  0  0  0  0  0  0  0  0  0
   -4.7137   -4.4028   -2.7975 H   0  0  0  0  0  0  0  0  0  0  0  0
    2.0366   -0.0392    3.2073 H   0  0  0  0  0  0  0  0  0  0  0  0
    3.5507   -1.0700    4.8333 H   0  0  0  0  0  0  0  0  0  0  0  0
    6.9719   -3.9393    4.2939 H   0  0  0  0  0  0  0  0  0  0  0  0
    6.1704   -2.4721    3.5767 H   0  0  0  0  0  0  0  0  0  0  0  0
    5.7912   -4.1244    2.9286 H   0  0  0  0  0  0  0  0  0  0  0  0
    3.0990   -4.8683    2.8967 H   0  0  0  0  0  0  0  0  0  0  0  0
    1.5095   -3.9006    1.3095 H   0  0  0  0  0  0  0  0  0  0  0  0
   -1.3357   -0.2787    2.2805 H   0  0  0  0  0  0  0  0  0  0  0  0
   -2.0917    2.0645    2.2857 H   0  0  0  0  0  0  0  0  0  0  0  0
   -2.8148    3.5161   -0.1246 H   0  0  0  0  0  0  0  0  0  0  0  0
   -2.5048    5.2369   -0.5827 H   0  0  0  0  0  0  0  0  0  0  0  0
   -1.4036    3.9436   -1.1809 H   0  0  0  0  0  0  0  0  0  0  0  0
    1.3711    3.1966    0.0001 H   0  0  0  0  0  0  0  0  0  0  0  0
    2.1931    0.8789    0.0849 H   0  0  0  0  0  0  0  0  0  0  0  0
    0.5983    2.9368   -5.6695 H   0  0  0  0  0  0  0  0  0  0  0  0
   -0.7267    1.7227   -5.4905 H   0  0  0  0  0  0  0  0  0  0  0  0
   -0.0056    3.9351   -3.4546 H   0  0  0  0  0  0  0  0  0  0  0  0
   -1.3369    2.7167   -3.2871 H   0  0  0  0  0  0  0  0  0  0  0  0
   -1.4073    3.9549   -4.5969 H   0  0  0  0  0  0  0  0  0  0  0  0
    4.8745    2.0141   -4.9041 H   0  0  0  0  0  0  0  0  0  0  0  0
    9.0748    4.2088   -5.5519 H   0  0  0  0  0  0  0  0  0  0  0  0
    8.5866    2.9485   -4.3678 H   0  0  0  0  0  0  0  0  0  0  0  0
    7.2131    1.8657   -6.2723 H   0  0  0  0  0  0  0  0  0  0  0  0
    9.0141    1.8182   -6.4790 H   0  0  0  0  0  0  0  0  0  0  0  0
    8.0303    3.0242   -7.3969 H   0  0  0  0  0  0  0  0  0  0  0  0
    8.1362    4.9386   -2.4235 H   0  0  0  0  0  0  0  0  0  0  0  0
   10.2661    7.3090    1.4311 H   0  0  0  0  0  0  0  0  0  0  0  0
    8.5699    6.9630    4.6299 H   0  0  0  0  0  0  0  0  0  0  0  0
    6.3682    5.9113    5.0157 H   0  0  0  0  0  0  0  0  0  0  0  0
    5.0915    4.9680    3.1310 H   0  0  0  0  0  0  0  0  0  0  0  0
  1  2  2  3
  2  3  1  0
  3  4  2  0
  3  5  1  0
  5  6  2  0
  6  7  1  0
  6  8  1  0
  8  9  2  0
  9 10  1  0
 10 11  2  0
 11 12  1  0
 12 13  2  3
 13 14  1  0
 14 15  3  0
 13 16  1  0
 16 17  3  0
  1 18  1  0
 18 19  2  0
 19 20  1  0
 20 21  1  0
 21 22  2  0
 22 23  1  0
 23 24  2  0
 24 25  1  0
 25 26  1  0
 24 27  1  0
 27 28  2  0
 20 29  1  0
 29 30  2  0
 30 31  1  0
 31 32  2  0
 32 33  1  0
 33 34  1  0
 32 35  1  0
 35 36  2  0
 19 37  1  0
 37 38  1  0
 38 39  1  0
 39 40  2  0
 40 41  1  0
 41 42  1  0
 42 43  2  0
 43 44  1  0
 44 45  2  0
 45 46  1  0
 46 47  1  0
 45 48  1  0
 48 49  2  0
 41 50  1  0
 50 51  2  0
 51 52  1  0
 52 53  2  0
 53 54  1  0
 54 55  1  0
 53 56  1  0
 56 57  2  0
 40 58  1  0
 58 59  1  0
 39 60  1  0
 60 61  1  0
 61 62  2  0
 62 63  1  0
 63 64  1  0
 64 65  1  0
 63 66  1  0
 66 67  2  0
 67 68  1  0
 68 69  2  0
 69 70  1  0
 70 71  1  0
 69 72  1  0
 68 73  1  0
 73 74  2  0
 74 75  1  0
 75 76  1  0
 76 77  1  0
 77 78  1  0
 75 79  2  0
 79 80  1  0
 79 81  1  0
 81 82  2  3
 82 83  1  0
 83 84  2  0
 83 85  1  0
 85 86  2  0
 86 87  1  0
 86 88  1  0
 88 89  2  0
 89 90  1  0
 90 91  2  0
 91 92  1  0
 92 93  2  3
 93 94  1  0
 94 95  3  0
 93 96  1  0
 96 97  3  0
 12  2  1  0
 59 18  1  0
 70 60  2  0
 80 73  1  0
 92 82  1  0
 11  5  1  0
 28 21  1  0
 36 29  1  0
 58 37  2  0
 67 61  1  0
 91 85  1  0
 49 42  1  0
 57 50  1  0
  1 98  1  0
  7 99  1  0
  8100  1  0
  9101  1  0
 10102  1  0
 22103  1  0
 23104  1  0
 26105  1  0
 26106  1  0
 26107  1  0
 27108  1  0
 28109  1  0
 30110  1  0
 31111  1  0
 34112  1  0
 34113  1  0
 34114  1  0
 35115  1  0
 36116  1  0
 43117  1  0
 44118  1  0
 47119  1  0
 47120  1  0
 47121  1  0
 48122  1  0
 49123  1  0
 51124  1  0
 52125  1  0
 55126  1  0
 55127  1  0
 55128  1  0
 56129  1  0
 57130  1  0
 64131  1  0
 64132  1  0
 65133  1  0
 65134  1  0
 65135  1  0
 74136  1  0
 77137  1  0
 77138  1  0
 78139  1  0
 78140  1  0
 78141  1  0
 81142  1  0
 87143  1  0
 88144  1  0
 89145  1  0
 90146  1  0
M  END

