
     RDKit          3D

223243  0  0  0  0  0  0  0  0999 V2000
    1.2843   -1.1044    7.9027 C   0  0  0  0  0  0  0  0  0  0  0  0
    1.0896   -0.1043    8.7819 C   0  0  0  0  0  0  0  0  0  0  0  0
    0.3990    1.1611    8.5475 C   0  0  0  0  0  0  0  0  0  0  0  0
   -0.4359    1.3991    7.6336 O   0  0  0  0  0  0  0  0  0  0  0  0
    0.7985    2.0972    9.5837 C   0  0  0  0  0  0  0  0  0  0  0  0
    0.5497    3.4716    9.6683 C   0  0  0  0  0  0  0  0  0  0  0  0
   -0.2307    4.1136    8.7105 O   0  0  0  0  0  0  0  0  0  0  0  0
    1.1021    4.1807   10.7491 C   0  0  0  0  0  0  0  0  0  0  0  0
    1.9194    3.5232   11.6883 C   0  0  0  0  0  0  0  0  0  0  0  0
    2.1859    2.1503   11.5623 C   0  0  0  0  0  0  0  0  0  0  0  0
    1.5867    1.4358   10.5131 C   0  0  0  0  0  0  0  0  0  0  0  0
    1.6850   -0.0038   10.1512 C   0  0  0  0  0  0  0  0  0  0  0  0
    1.8998   -1.0301   11.0194 C   0  0  0  0  0  0  0  0  0  0  0  0
    2.1895   -0.8007   12.4122 C   0  0  0  0  0  0  0  0  0  0  0  0
    2.4080   -0.6256   13.5344 N   0  0  0  0  0  0  0  0  0  0  0  0
    1.6439   -2.4042   10.6684 C   0  0  0  0  0  0  0  0  0  0  0  0
    1.4409   -3.5127   10.3963 N   0  0  0  0  0  0  0  0  0  0  0  0
    0.6814   -1.2084    6.5639 C   0  0  0  0  0  0  0  0  0  0  0  0
    0.7481   -0.2912    5.4887 C   0  0  0  0  0  0  0  0  0  0  0  0
    1.4078    0.9909    5.5025 N   0  0  0  0  0  0  0  0  0  0  0  0
    0.8236    2.0873    4.7446 C   0  0  0  0  0  0  0  0  0  0  0  0
   -0.5779    2.2435    4.6741 C   0  0  0  0  0  0  0  0  0  0  0  0
   -1.1432    3.2179    3.8499 C   0  0  0  0  0  0  0  0  0  0  0  0
   -0.3276    4.0437    3.0676 C   0  0  0  0  0  0  0  0  0  0  0  0
   -1.0657    5.2292    1.9374 S   0  0  0  0  0  0  0  0  0  0  0  0
   -0.9471    4.1071    0.5093 C   0  0  0  0  0  0  0  0  0  0  0  0
    1.0634    3.9181    3.1464 C   0  0  0  0  0  0  0  0  0  0  0  0
    1.6357    2.9460    3.9690 C   0  0  0  0  0  0  0  0  0  0  0  0
    2.7808    1.0710    5.9410 C   0  0  0  0  0  0  0  0  0  0  0  0
    3.7133    0.1012    5.5246 C   0  0  0  0  0  0  0  0  0  0  0  0
    5.0727    0.2685    5.8005 C   0  0  0  0  0  0  0  0  0  0  0  0
    5.5155    1.4032    6.4892 C   0  0  0  0  0  0  0  0  0  0  0  0
    7.2710    1.6406    6.7728 S   0  0  0  0  0  0  0  0  0  0  0  0
    7.5184    2.5897    5.2355 C   0  0  0  0  0  0  0  0  0  0  0  0
    4.5915    2.3533    6.9381 C   0  0  0  0  0  0  0  0  0  0  0  0
    3.2284    2.1828    6.6701 C   0  0  0  0  0  0  0  0  0  0  0  0
    0.3073   -0.8839    4.3011 C   0  0  0  0  0  0  0  0  0  0  0  0
    0.4850   -0.4629    2.6906 S   0  0  0  0  0  0  0  0  0  0  0  0
    0.0183   -1.9857    2.1067 C   0  0  0  0  0  0  0  0  0  0  0  0
   -0.2576   -2.8442    3.1823 C   0  0  0  0  0  0  0  0  0  0  0  0
   -0.4031   -4.2707    3.0765 N   0  0  0  0  0  0  0  0  0  0  0  0
    0.6656   -5.0037    2.4497 C   0  0  0  0  0  0  0  0  0  0  0  0
    1.9994   -4.7686    2.8309 C   0  0  0  0  0  0  0  0  0  0  0  0
    3.0445   -5.4204    2.1729 C   0  0  0  0  0  0  0  0  0  0  0  0
    2.7683   -6.3001    1.1195 C   0  0  0  0  0  0  0  0  0  0  0  0
    4.1077   -7.0399    0.1849 S   0  0  0  0  0  0  0  0  0  0  0  0
    4.2832   -5.5989   -0.9187 C   0  0  0  0  0  0  0  0  0  0  0  0
    1.4381   -6.5756    0.7693 C   0  0  0  0  0  0  0  0  0  0  0  0
    0.3930   -5.9429    1.4467 C   0  0  0  0  0  0  0  0  0  0  0  0
   -1.4367   -4.9477    3.8255 C   0  0  0  0  0  0  0  0  0  0  0  0
   -1.1781   -6.1818    4.4466 C   0  0  0  0  0  0  0  0  0  0  0  0
   -2.1490   -6.7946    5.2434 C   0  0  0  0  0  0  0  0  0  0  0  0
   -3.3970   -6.1909    5.4235 C   0  0  0  0  0  0  0  0  0  0  0  0
   -4.6118   -6.9575    6.5041 S   0  0  0  0  0  0  0  0  0  0  0  0
   -5.3589   -7.9493    5.1729 C   0  0  0  0  0  0  0  0  0  0  0  0
   -3.6762   -4.9742    4.7919 C   0  0  0  0  0  0  0  0  0  0  0  0
   -2.6979   -4.3462    4.0125 C   0  0  0  0  0  0  0  0  0  0  0  0
   -0.0776   -2.1831    4.3984 C   0  0  0  0  0  0  0  0  0  0  0  0
    0.1246   -2.7126    5.9738 S   0  0  0  0  0  0  0  0  0  0  0  0
    0.0125   -2.3093    0.6771 C   0  0  0  0  0  0  0  0  0  0  0  0
   -1.0371   -1.9566   -0.1841 C   0  0  0  0  0  0  0  0  0  0  0  0
   -2.3920   -1.7432    0.2264 N   0  0  0  0  0  0  0  0  0  0  0  0
   -3.3454   -2.8146    0.1046 C   0  0  0  0  0  0  0  0  0  0  0  0
   -4.6468   -2.5722   -0.3700 C   0  0  0  0  0  0  0  0  0  0  0  0
   -5.5629   -3.6232   -0.4847 C   0  0  0  0  0  0  0  0  0  0  0  0
   -5.1944   -4.9204   -0.1057 C   0  0  0  0  0  0  0  0  0  0  0  0
   -6.3899   -6.2519   -0.1887 S   0  0  0  0  0  0  0  0  0  0  0  0
   -6.9549   -5.9869    1.5213 C   0  0  0  0  0  0  0  0  0  0  0  0
   -3.8957   -5.1706    0.3529 C   0  0  0  0  0  0  0  0  0  0  0  0
   -2.9767   -4.1257    0.4510 C   0  0  0  0  0  0  0  0  0  0  0  0
   -2.8126   -0.4502    0.6797 C   0  0  0  0  0  0  0  0  0  0  0  0
   -2.9440   -0.2086    2.0538 C   0  0  0  0  0  0  0  0  0  0  0  0
   -3.4991    0.9916    2.5041 C   0  0  0  0  0  0  0  0  0  0  0  0
   -3.9747    1.9351    1.5868 C   0  0  0  0  0  0  0  0  0  0  0  0
   -4.8350    3.3972    2.1646 S   0  0  0  0  0  0  0  0  0  0  0  0
   -6.4260    2.5209    2.2984 C   0  0  0  0  0  0  0  0  0  0  0  0
   -3.8225    1.7097    0.2118 C   0  0  0  0  0  0  0  0  0  0  0  0
   -3.2323    0.5249   -0.2392 C   0  0  0  0  0  0  0  0  0  0  0  0
   -0.6095   -1.8514   -1.4968 C   0  0  0  0  0  0  0  0  0  0  0  0
   -1.2842   -1.1552   -2.8599 S   0  0  0  0  0  0  0  0  0  0  0  0
    0.1573   -1.1998   -3.7628 C   0  0  0  0  0  0  0  0  0  0  0  0
    1.1780   -1.7619   -2.9791 C   0  0  0  0  0  0  0  0  0  0  0  0
    2.4513   -2.1652   -3.5073 N   0  0  0  0  0  0  0  0  0  0  0  0
    3.5878   -1.3223   -3.2601 C   0  0  0  0  0  0  0  0  0  0  0  0
    4.0232   -0.4222   -4.2468 C   0  0  0  0  0  0  0  0  0  0  0  0
    5.1967    0.3147   -4.0587 C   0  0  0  0  0  0  0  0  0  0  0  0
    5.9335    0.1700   -2.8748 C   0  0  0  0  0  0  0  0  0  0  0  0
    7.4461    1.0969   -2.6320 S   0  0  0  0  0  0  0  0  0  0  0  0
    8.5180   -0.2777   -3.1641 C   0  0  0  0  0  0  0  0  0  0  0  0
    5.4852   -0.7110   -1.8777 C   0  0  0  0  0  0  0  0  0  0  0  0
    4.3357   -1.4733   -2.0854 C   0  0  0  0  0  0  0  0  0  0  0  0
    2.5477   -3.3234   -4.3846 C   0  0  0  0  0  0  0  0  0  0  0  0
    1.4018   -4.0861   -4.7141 C   0  0  0  0  0  0  0  0  0  0  0  0
    1.4906   -5.1725   -5.5878 C   0  0  0  0  0  0  0  0  0  0  0  0
    2.7214   -5.5242   -6.1489 C   0  0  0  0  0  0  0  0  0  0  0  0
    2.8224   -6.9164   -7.2778 S   0  0  0  0  0  0  0  0  0  0  0  0
    2.3585   -5.9212   -8.7311 C   0  0  0  0  0  0  0  0  0  0  0  0
    3.8712   -4.8084   -5.8047 C   0  0  0  0  0  0  0  0  0  0  0  0
    3.7872   -3.7205   -4.9294 C   0  0  0  0  0  0  0  0  0  0  0  0
    0.7093   -2.1057   -1.7098 C   0  0  0  0  0  0  0  0  0  0  0  0
    1.4417   -2.4650   -0.2400 S   0  0  0  0  0  0  0  0  0  0  0  0
    0.3721   -0.2941   -4.8892 C   0  0  0  0  0  0  0  0  0  0  0  0
    0.5433    1.0777   -4.6964 C   0  0  0  0  0  0  0  0  0  0  0  0
    0.1902    1.8509   -5.8119 C   0  0  0  0  0  0  0  0  0  0  0  0
    0.0796    3.2586   -5.8502 C   0  0  0  0  0  0  0  0  0  0  0  0
    0.3918    4.1016   -4.6666 C   0  0  0  0  0  0  0  0  0  0  0  0
    1.6781    4.0886   -4.1062 C   0  0  0  0  0  0  0  0  0  0  0  0
    1.9813    4.8905   -2.9988 C   0  0  0  0  0  0  0  0  0  0  0  0
    1.0063    5.7356   -2.4509 C   0  0  0  0  0  0  0  0  0  0  0  0
    1.3085    6.5773   -1.3667 C   0  0  0  0  0  0  0  0  0  0  0  0
    0.3337    7.4401   -0.8558 C   0  0  0  0  0  0  0  0  0  0  0  0
   -0.9514    7.4565   -1.4040 C   0  0  0  0  0  0  0  0  0  0  0  0
   -1.2731    6.6115   -2.4710 C   0  0  0  0  0  0  0  0  0  0  0  0
   -0.3003    5.7487   -3.0042 C   0  0  0  0  0  0  0  0  0  0  0  0
   -0.6027    4.9109   -4.0890 C   0  0  0  0  0  0  0  0  0  0  0  0
   -0.5059    3.8096   -7.0110 C   0  0  0  0  0  0  0  0  0  0  0  0
   -0.9882    3.0184   -8.0600 C   0  0  0  0  0  0  0  0  0  0  0  0
   -0.8152    1.6209   -8.0403 C   0  0  0  0  0  0  0  0  0  0  0  0
   -1.2270    0.7884   -9.0916 O   0  0  0  0  0  0  0  0  0  0  0  0
   -0.7819    0.9537  -10.4392 C   0  0  0  0  0  0  0  0  0  0  0  0
    0.6783    0.5343  -10.5751 C   0  0  0  0  0  0  0  0  0  0  0  0
   -0.2486    1.0672   -6.8879 C   0  0  0  0  0  0  0  0  0  0  0  0
   -0.2232   -0.5549   -6.4479 S   0  0  0  0  0  0  0  0  0  0  0  0
   -1.7990    3.7308   -8.9568 C   0  0  0  0  0  0  0  0  0  0  0  0
   -1.8871    5.0983   -8.6734 C   0  0  0  0  0  0  0  0  0  0  0  0
   -0.9917    5.3996   -7.2723 S   0  0  0  0  0  0  0  0  0  0  0  0
   -2.9333    6.0360   -9.1298 C   0  0  0  0  0  0  0  0  0  0  0  0
   -3.8893    5.7056  -10.0186 C   0  0  0  0  0  0  0  0  0  0  0  0
   -3.6643    4.9644  -11.2632 C   0  0  0  0  0  0  0  0  0  0  0  0
   -2.5399    4.6414  -11.7378 O   0  0  0  0  0  0  0  0  0  0  0  0
   -4.9262    4.8355  -11.9571 C   0  0  0  0  0  0  0  0  0  0  0  0
   -5.1780    4.2216  -13.1851 C   0  0  0  0  0  0  0  0  0  0  0  0
   -4.1494    3.6225  -13.9128 O   0  0  0  0  0  0  0  0  0  0  0  0
   -6.4967    4.2241  -13.6718 C   0  0  0  0  0  0  0  0  0  0  0  0
   -7.5200    4.8563  -12.9428 C   0  0  0  0  0  0  0  0  0  0  0  0
   -7.2356    5.5015  -11.7315 C   0  0  0  0  0  0  0  0  0  0  0  0
   -5.9209    5.4758  -11.2289 C   0  0  0  0  0  0  0  0  0  0  0  0
   -5.3495    6.0424   -9.9684 C   0  0  0  0  0  0  0  0  0  0  0  0
   -6.0437    6.5207   -8.8951 C   0  0  0  0  0  0  0  0  0  0  0  0
   -7.4786    6.5746   -8.8600 C   0  0  0  0  0  0  0  0  0  0  0  0
   -8.6347    6.6221   -8.8095 N   0  0  0  0  0  0  0  0  0  0  0  0
   -5.4258    6.8976   -7.6499 C   0  0  0  0  0  0  0  0  0  0  0  0
   -4.9457    7.2041   -6.6403 N   0  0  0  0  0  0  0  0  0  0  0  0
    1.8813   -1.9535    8.1968 H   0  0  0  0  0  0  0  0  0  0  0  0
   -0.4317    5.1059    8.7723 H   0  0  0  0  0  0  0  0  0  0  0  0
    0.9132    5.2382   10.8581 H   0  0  0  0  0  0  0  0  0  0  0  0
    2.3587    4.0842   12.5082 H   0  0  0  0  0  0  0  0  0  0  0  0
    2.8592    1.6792   12.2642 H   0  0  0  0  0  0  0  0  0  0  0  0
   -1.2354    1.5870    5.2284 H   0  0  0  0  0  0  0  0  0  0  0  0
   -2.2153    3.3174    3.7984 H   0  0  0  0  0  0  0  0  0  0  0  0
   -1.4956    4.5477   -0.3478 H   0  0  0  0  0  0  0  0  0  0  0  0
   -1.3914    3.1192    0.7495 H   0  0  0  0  0  0  0  0  0  0  0  0
    0.1180    3.9723    0.2247 H   0  0  0  0  0  0  0  0  0  0  0  0
    1.6998    4.5546    2.5397 H   0  0  0  0  0  0  0  0  0  0  0  0
    2.7118    2.8436    3.9653 H   0  0  0  0  0  0  0  0  0  0  0  0
    3.3942   -0.7560    4.9438 H   0  0  0  0  0  0  0  0  0  0  0  0
    5.7860   -0.4661    5.4508 H   0  0  0  0  0  0  0  0  0  0  0  0
    6.9813    2.1199    4.3844 H   0  0  0  0  0  0  0  0  0  0  0  0
    7.1495    3.6282    5.3738 H   0  0  0  0  0  0  0  0  0  0  0  0
    8.6015    2.6189    4.9960 H   0  0  0  0  0  0  0  0  0  0  0  0
    4.9303    3.2358    7.4696 H   0  0  0  0  0  0  0  0  0  0  0  0
    2.5257    2.9420    6.9854 H   0  0  0  0  0  0  0  0  0  0  0  0
    2.2255   -4.0719    3.6270 H   0  0  0  0  0  0  0  0  0  0  0  0
    4.0678   -5.2224    2.4646 H   0  0  0  0  0  0  0  0  0  0  0  0
    4.8850   -4.8204   -0.4064 H   0  0  0  0  0  0  0  0  0  0  0  0
    3.2945   -5.1783   -1.1981 H   0  0  0  0  0  0  0  0  0  0  0  0
    4.8104   -5.9112   -1.8409 H   0  0  0  0  0  0  0  0  0  0  0  0
    1.2199   -7.2680   -0.0373 H   0  0  0  0  0  0  0  0  0  0  0  0
   -0.6281   -6.1640    1.1587 H   0  0  0  0  0  0  0  0  0  0  0  0
   -0.2167   -6.6681    4.3354 H   0  0  0  0  0  0  0  0  0  0  0  0
   -1.9234   -7.7350    5.7303 H   0  0  0  0  0  0  0  0  0  0  0  0
   -4.6021   -8.6296    4.7304 H   0  0  0  0  0  0  0  0  0  0  0  0
   -5.7758   -7.2887    4.3859 H   0  0  0  0  0  0  0  0  0  0  0  0
   -6.1821   -8.5597    5.5962 H   0  0  0  0  0  0  0  0  0  0  0  0
   -4.6448   -4.5064    4.9153 H   0  0  0  0  0  0  0  0  0  0  0  0
   -2.9268   -3.4017    3.5358 H   0  0  0  0  0  0  0  0  0  0  0  0
   -4.9521   -1.5797   -0.6680 H   0  0  0  0  0  0  0  0  0  0  0  0
   -6.5602   -3.4209   -0.8556 H   0  0  0  0  0  0  0  0  0  0  0  0
   -7.2706   -4.9327    1.6685 H   0  0  0  0  0  0  0  0  0  0  0  0
   -7.8191   -6.6520    1.7223 H   0  0  0  0  0  0  0  0  0  0  0  0
   -6.1379   -6.2347    2.2267 H   0  0  0  0  0  0  0  0  0  0  0  0
   -3.6030   -6.1713    0.6491 H   0  0  0  0  0  0  0  0  0  0  0  0
   -1.9867   -4.3281    0.8176 H   0  0  0  0  0  0  0  0  0  0  0  0
   -2.6378   -0.9590    2.7707 H   0  0  0  0  0  0  0  0  0  0  0  0
   -3.6094    1.1612    3.5647 H   0  0  0  0  0  0  0  0  0  0  0  0
   -7.2158    3.2249    2.6307 H   0  0  0  0  0  0  0  0  0  0  0  0
   -6.3435    1.7016    3.0447 H   0  0  0  0  0  0  0  0  0  0  0  0
   -6.7183    2.0933    1.3160 H   0  0  0  0  0  0  0  0  0  0  0  0
   -4.1805    2.4345   -0.5092 H   0  0  0  0  0  0  0  0  0  0  0  0
   -3.1721    0.3364   -1.3038 H   0  0  0  0  0  0  0  0  0  0  0  0
    3.4644   -0.3133   -5.1692 H   0  0  0  0  0  0  0  0  0  0  0  0
    5.5328    0.9952   -4.8320 H   0  0  0  0  0  0  0  0  0  0  0  0
    9.5769   -0.0010   -2.9877 H   0  0  0  0  0  0  0  0  0  0  0  0
    8.3684   -0.4898   -4.2435 H   0  0  0  0  0  0  0  0  0  0  0  0
    8.2933   -1.1887   -2.5683 H   0  0  0  0  0  0  0  0  0  0  0  0
    6.0555   -0.8350   -0.9677 H   0  0  0  0  0  0  0  0  0  0  0  0
    4.0385   -2.1997   -1.3371 H   0  0  0  0  0  0  0  0  0  0  0  0
    0.4302   -3.8513   -4.3049 H   0  0  0  0  0  0  0  0  0  0  0  0
    0.6008   -5.7374   -5.8410 H   0  0  0  0  0  0  0  0  0  0  0  0
    1.3395   -5.5038   -8.5933 H   0  0  0  0  0  0  0  0  0  0  0  0
    2.3565   -6.5679   -9.6325 H   0  0  0  0  0  0  0  0  0  0  0  0
    3.0857   -5.0956   -8.8804 H   0  0  0  0  0  0  0  0  0  0  0  0
    4.8306   -5.0878   -6.2233 H   0  0  0  0  0  0  0  0  0  0  0  0
    4.6960   -3.1863   -4.6949 H   0  0  0  0  0  0  0  0  0  0  0  0
    0.7899    1.4998   -3.7337 H   0  0  0  0  0  0  0  0  0  0  0  0
    2.4534    3.4595   -4.5339 H   0  0  0  0  0  0  0  0  0  0  0  0
    2.9860    4.8651   -2.5883 H   0  0  0  0  0  0  0  0  0  0  0  0
    2.3014    6.5798   -0.9255 H   0  0  0  0  0  0  0  0  0  0  0  0
    0.5744    8.1009   -0.0307 H   0  0  0  0  0  0  0  0  0  0  0  0
   -1.6969    8.1323   -1.0080 H   0  0  0  0  0  0  0  0  0  0  0  0
   -2.2724    6.6409   -2.8879 H   0  0  0  0  0  0  0  0  0  0  0  0
   -1.6077    4.8988   -4.4940 H   0  0  0  0  0  0  0  0  0  0  0  0
   -1.4074    0.3187  -11.1040 H   0  0  0  0  0  0  0  0  0  0  0  0
   -0.8826    2.0040  -10.7808 H   0  0  0  0  0  0  0  0  0  0  0  0
    1.3048    1.0956   -9.8448 H   0  0  0  0  0  0  0  0  0  0  0  0
    1.0381    0.7701  -11.5983 H   0  0  0  0  0  0  0  0  0  0  0  0
    0.7884   -0.5539  -10.3905 H   0  0  0  0  0  0  0  0  0  0  0  0
   -2.4247    3.2305   -9.6786 H   0  0  0  0  0  0  0  0  0  0  0  0
   -3.0915    6.8787   -8.4812 H   0  0  0  0  0  0  0  0  0  0  0  0
   -4.3308    3.2091  -14.8239 H   0  0  0  0  0  0  0  0  0  0  0  0
   -6.7348    3.7462  -14.6141 H   0  0  0  0  0  0  0  0  0  0  0  0
   -8.5324    4.8524  -13.3295 H   0  0  0  0  0  0  0  0  0  0  0  0
   -8.0422    6.0046  -11.2266 H   0  0  0  0  0  0  0  0  0  0  0  0
  1  2  2  3
  2  3  1  0
  3  4  2  0
  3  5  1  0
  5  6  2  0
  6  7  1  0
  6  8  1  0
  8  9  2  0
  9 10  1  0
 10 11  2  0
 11 12  1  0
 12 13  2  3
 13 14  1  0
 14 15  3  0
 13 16  1  0
 16 17  3  0
  1 18  1  0
 18 19  2  0
 19 20  1  0
 20 21  1  0
 21 22  2  0
 22 23  1  0
 23 24  2  0
 24 25  1  0
 25 26  1  0
 24 27  1  0
 27 28  2  0
 20 29  1  0
 29 30  2  0
 30 31  1  0
 31 32  2  0
 32 33  1  0
 33 34  1  0
 32 35  1  0
 35 36  2  0
 19 37  1  0
 37 38  1  0
 38 39  1  0
 39 40  2  0
 40 41  1  0
 41 42  1  0
 42 43  2  0
 43 44  1  0
 44 45  2  0
 45 46  1  0
 46 47  1  0
 45 48  1  0
 48 49  2  0
 41 50  1  0
 50 51  2  0
 51 52  1  0
 52 53  2  0
 53 54  1  0
 54 55  1  0
 53 56  1  0
 56 57  2  0
 40 58  1  0
 58 59  1  0
 39 60  1  0
 60 61  2  0
 61 62  1  0
 62 63  1  0
 63 64  2  0
 64 65  1  0
 65 66  2  0
 66 67  1  0
 67 68  1  0
 66 69  1  0
 69 70  2  0
 62 71  1  0
 71 72  2  0
 72 73  1  0
 73 74  2  0
 74 75  1  0
 75 76  1  0
 74 77  1  0
 77 78  2  0
 61 79  1  0
 79 80  1  0
 80 81  1  0
 81 82  2  0
 82 83  1  0
 83 84  1  0
 84 85  2  0
 85 86  1  0
 86 87  2  0
 87 88  1  0
 88 89  1  0
 87 90  1  0
 90 91  2  0
 83 92  1  0
 92 93  2  0
 93 94  1  0
 94 95  2  0
 95 96  1  0
 96 97  1  0
 95 98  1  0
 98 99  2  0
 82100  1  0
100101  1  0
 81102  1  0
102103  2  0
103104  1  0
104105  2  0
105106  1  0
106107  2  0
107108  1  0
108109  2  0
109110  1  0
110111  2  0
111112  1  0
112113  2  0
113114  1  0
114115  2  0
105116  1  0
116117  2  0
117118  1  0
118119  1  0
119120  1  0
120121  1  0
118122  2  0
122123  1  0
117124  1  0
124125  2  0
125126  1  0
125127  1  0
127128  2  3
128129  1  0
129130  2  0
129131  1  0
131132  2  0
132133  1  0
132134  1  0
134135  2  0
135136  1  0
136137  2  0
137138  1  0
138139  2  3
139140  1  0
140141  3  0
139142  1  0
142143  3  0
 12  2  1  0
 59 18  1  0
101 60  1  0
123102  1  0
138128  1  0
 11  5  1  0
 28 21  1  0
 36 29  1  0
 58 37  2  0
 70 63  1  0
 78 71  1  0
100 79  2  0
122104  1  0
137131  1  0
 49 42  1  0
 57 50  1  0
 91 84  1  0
 99 92  1  0
115106  1  0
126116  1  0
114109  1  0
  1144  1  0
  7145  1  0
  8146  1  0
  9147  1  0
 10148  1  0
 22149  1  0
 23150  1  0
 26151  1  0
 26152  1  0
 26153  1  0
 27154  1  0
 28155  1  0
 30156  1  0
 31157  1  0
 34158  1  0
 34159  1  0
 34160  1  0
 35161  1  0
 36162  1  0
 43163  1  0
 44164  1  0
 47165  1  0
 47166  1  0
 47167  1  0
 48168  1  0
 49169  1  0
 51170  1  0
 52171  1  0
 55172  1  0
 55173  1  0
 55174  1  0
 56175  1  0
 57176  1  0
 64177  1  0
 65178  1  0
 68179  1  0
 68180  1  0
 68181  1  0
 69182  1  0
 70183  1  0
 72184  1  0
 73185  1  0
 76186  1  0
 76187  1  0
 76188  1  0
 77189  1  0
 78190  1  0
 85191  1  0
 86192  1  0
 89193  1  0
 89194  1  0
 89195  1  0
 90196  1  0
 91197  1  0
 93198  1  0
 94199  1  0
 97200  1  0
 97201  1  0
 97202  1  0
 98203  1  0
 99204  1  0
103205  1  0
107206  1  0
108207  1  0
110208  1  0
111209  1  0
112210  1  0
113211  1  0
115212  1  0
120213  1  0
120214  1  0
121215  1  0
121216  1  0
121217  1  0
124218  1  0
127219  1  0
133220  1  0
134221  1  0
135222  1  0
136223  1  0
M  END

