
     RDKit          3D

160175  0  0  0  0  0  0  0  0999 V2000
    2.0836    4.8745   -7.8108 C   0  0  0  0  0  0  0  0  0  0  0  0
    0.9326    4.1852   -7.9551 C   0  0  0  0  0  0  0  0  0  0  0  0
   -0.1382    4.6305   -8.8410 C   0  0  0  0  0  0  0  0  0  0  0  0
   -0.0175    5.4523   -9.7885 O   0  0  0  0  0  0  0  0  0  0  0  0
   -1.3868    4.0494   -8.3811 C   0  0  0  0  0  0  0  0  0  0  0  0
   -2.6706    4.2385   -8.8927 C   0  0  0  0  0  0  0  0  0  0  0  0
   -3.7475    3.5528   -8.2942 C   0  0  0  0  0  0  0  0  0  0  0  0
   -5.0689    3.7106   -8.7405 O   0  0  0  0  0  0  0  0  0  0  0  0
   -5.4847    4.6805   -9.7008 C   0  0  0  0  0  0  0  0  0  0  0  0
   -3.5079    2.6613   -7.2222 C   0  0  0  0  0  0  0  0  0  0  0  0
   -4.5990    1.9632   -6.6774 O   0  0  0  0  0  0  0  0  0  0  0  0
   -4.4995    0.9942   -5.6334 C   0  0  0  0  0  0  0  0  0  0  0  0
   -2.1956    2.4937   -6.7235 C   0  0  0  0  0  0  0  0  0  0  0  0
   -1.1430    3.2206   -7.3007 C   0  0  0  0  0  0  0  0  0  0  0  0
    0.3229    3.1846   -7.0276 C   0  0  0  0  0  0  0  0  0  0  0  0
    0.9824    2.2199   -6.3412 C   0  0  0  0  0  0  0  0  0  0  0  0
    2.3315    1.8436   -6.6771 C   0  0  0  0  0  0  0  0  0  0  0  0
    3.4079    1.5134   -6.9476 N   0  0  0  0  0  0  0  0  0  0  0  0
    0.3692    1.4860   -5.2652 C   0  0  0  0  0  0  0  0  0  0  0  0
   -0.1120    0.9152   -4.3875 N   0  0  0  0  0  0  0  0  0  0  0  0
    2.8984    4.8284   -6.5850 C   0  0  0  0  0  0  0  0  0  0  0  0
    2.2918    5.0549   -5.3347 C   0  0  0  0  0  0  0  0  0  0  0  0
    3.0213    4.7673   -4.1866 C   0  0  0  0  0  0  0  0  0  0  0  0
    2.5333    4.6237   -2.8242 C   0  0  0  0  0  0  0  0  0  0  0  0
    1.3963    4.9550   -2.3957 O   0  0  0  0  0  0  0  0  0  0  0  0
    3.5574    3.8861   -2.0995 C   0  0  0  0  0  0  0  0  0  0  0  0
    4.6165    3.6424   -2.9542 C   0  0  0  0  0  0  0  0  0  0  0  0
    4.2971    4.2321   -4.2585 C   0  0  0  0  0  0  0  0  0  0  0  0
    4.9588    4.1063   -5.4814 C   0  0  0  0  0  0  0  0  0  0  0  0
    4.2604    4.4525   -6.6529 C   0  0  0  0  0  0  0  0  0  0  0  0
    5.5994    2.7049   -2.6281 C   0  0  0  0  0  0  0  0  0  0  0  0
    5.4511    1.9609   -1.4418 C   0  0  0  0  0  0  0  0  0  0  0  0
    4.3321    2.1709   -0.6014 C   0  0  0  0  0  0  0  0  0  0  0  0
    3.4209    3.2000   -0.9021 C   0  0  0  0  0  0  0  0  0  0  0  0
    4.0048    1.2035    0.4634 C   0  0  0  0  0  0  0  0  0  0  0  0
    2.7391    0.6313    0.6820 C   0  0  0  0  0  0  0  0  0  0  0  0
    1.5860    0.7997   -0.1631 N   0  0  0  0  0  0  0  0  0  0  0  0
    1.2813   -0.2391   -1.1230 C   0  0  0  0  0  0  0  0  0  0  0  0
   -0.0352   -0.7169   -1.2705 C   0  0  0  0  0  0  0  0  0  0  0  0
   -0.3222   -1.7477   -2.1672 C   0  0  0  0  0  0  0  0  0  0  0  0
    0.7041   -2.3225   -2.9274 C   0  0  0  0  0  0  0  0  0  0  0  0
    0.3415   -3.6621   -4.0672 S   0  0  0  0  0  0  0  0  0  0  0  0
    0.0814   -2.5587   -5.4906 C   0  0  0  0  0  0  0  0  0  0  0  0
    2.0171   -1.8701   -2.7748 C   0  0  0  0  0  0  0  0  0  0  0  0
    2.3064   -0.8319   -1.8826 C   0  0  0  0  0  0  0  0  0  0  0  0
    0.6012    1.8112    0.1530 C   0  0  0  0  0  0  0  0  0  0  0  0
    0.3492    2.1836    1.4855 C   0  0  0  0  0  0  0  0  0  0  0  0
   -0.5983    3.1704    1.7811 C   0  0  0  0  0  0  0  0  0  0  0  0
   -1.3085    3.7938    0.7523 C   0  0  0  0  0  0  0  0  0  0  0  0
   -2.5152    5.0612    1.1364 S   0  0  0  0  0  0  0  0  0  0  0  0
   -3.8522    3.8671    1.4461 C   0  0  0  0  0  0  0  0  0  0  0  0
   -1.0634    3.4340   -0.5773 C   0  0  0  0  0  0  0  0  0  0  0  0
   -0.1127    2.4526   -0.8760 C   0  0  0  0  0  0  0  0  0  0  0  0
    2.7906   -0.3360    1.6691 C   0  0  0  0  0  0  0  0  0  0  0  0
    1.6328   -1.3293    2.3045 S   0  0  0  0  0  0  0  0  0  0  0  0
    2.6994   -2.1389    3.3559 C   0  0  0  0  0  0  0  0  0  0  0  0
    4.0203   -1.6420    3.1744 C   0  0  0  0  0  0  0  0  0  0  0  0
    5.2309   -2.2408    3.7050 N   0  0  0  0  0  0  0  0  0  0  0  0
    6.4672   -2.1488    2.9746 C   0  0  0  0  0  0  0  0  0  0  0  0
    7.6333   -1.6883    3.6042 C   0  0  0  0  0  0  0  0  0  0  0  0
    8.8142   -1.5326    2.8703 C   0  0  0  0  0  0  0  0  0  0  0  0
    8.8442   -1.8609    1.5119 C   0  0  0  0  0  0  0  0  0  0  0  0
   10.3374   -1.5829    0.5554 S   0  0  0  0  0  0  0  0  0  0  0  0
    9.8260    0.0838    0.0342 C   0  0  0  0  0  0  0  0  0  0  0  0
    7.7019   -2.3719    0.8900 C   0  0  0  0  0  0  0  0  0  0  0  0
    6.5188   -2.5211    1.6222 C   0  0  0  0  0  0  0  0  0  0  0  0
    5.1835   -3.1983    4.7709 C   0  0  0  0  0  0  0  0  0  0  0  0
    5.3249   -2.7858    6.1023 C   0  0  0  0  0  0  0  0  0  0  0  0
    5.1624   -3.7095    7.1419 C   0  0  0  0  0  0  0  0  0  0  0  0
    4.8970   -5.0527    6.8507 C   0  0  0  0  0  0  0  0  0  0  0  0
    4.5222   -6.1970    8.1715 S   0  0  0  0  0  0  0  0  0  0  0  0
    2.7271   -5.9518    8.0077 C   0  0  0  0  0  0  0  0  0  0  0  0
    4.8452   -5.4809    5.5209 C   0  0  0  0  0  0  0  0  0  0  0  0
    4.9889   -4.5541    4.4834 C   0  0  0  0  0  0  0  0  0  0  0  0
    4.0012   -0.5915    2.2264 C   0  0  0  0  0  0  0  0  0  0  0  0
    5.1295    0.4351    1.4998 S   0  0  0  0  0  0  0  0  0  0  0  0
    2.1255   -3.0271    4.3843 C   0  0  0  0  0  0  0  0  0  0  0  0
    1.1137   -3.9062    3.9515 C   0  0  0  0  0  0  0  0  0  0  0  0
    0.0151   -4.1227    4.7777 C   0  0  0  0  0  0  0  0  0  0  0  0
   -1.3584   -4.2134    4.3031 C   0  0  0  0  0  0  0  0  0  0  0  0
   -1.7241   -4.5187    3.1356 O   0  0  0  0  0  0  0  0  0  0  0  0
   -2.2120   -3.6746    5.3473 C   0  0  0  0  0  0  0  0  0  0  0  0
   -1.4182   -3.3949    6.4445 C   0  0  0  0  0  0  0  0  0  0  0  0
   -0.0126   -3.6257    6.0777 C   0  0  0  0  0  0  0  0  0  0  0  0
    1.0820   -2.9259    6.5951 C   0  0  0  0  0  0  0  0  0  0  0  0
    2.1320   -2.5918    5.7276 C   0  0  0  0  0  0  0  0  0  0  0  0
   -1.9129   -2.6401    7.5094 C   0  0  0  0  0  0  0  0  0  0  0  0
   -3.2093   -2.1082    7.4138 C   0  0  0  0  0  0  0  0  0  0  0  0
   -3.9801   -2.2842    6.2403 C   0  0  0  0  0  0  0  0  0  0  0  0
   -3.4607   -3.0766    5.1925 C   0  0  0  0  0  0  0  0  0  0  0  0
   -5.1362   -1.3796    6.0279 C   0  0  0  0  0  0  0  0  0  0  0  0
   -6.2338   -1.6373    5.2875 C   0  0  0  0  0  0  0  0  0  0  0  0
   -6.5627   -2.9091    4.6336 C   0  0  0  0  0  0  0  0  0  0  0  0
   -6.1705   -4.0550    4.9846 O   0  0  0  0  0  0  0  0  0  0  0  0
   -7.4930   -2.6386    3.5607 C   0  0  0  0  0  0  0  0  0  0  0  0
   -7.9191   -3.5000    2.5506 C   0  0  0  0  0  0  0  0  0  0  0  0
   -8.7220   -2.9795    1.5223 C   0  0  0  0  0  0  0  0  0  0  0  0
   -9.2481   -4.0248    0.2137 Cl  0  0  0  0  0  0  0  0  0  0  0  0
   -9.0686   -1.6129    1.5194 C   0  0  0  0  0  0  0  0  0  0  0  0
   -9.8142   -1.1023    0.5060 F   0  0  0  0  0  0  0  0  0  0  0  0
   -8.6265   -0.7636    2.5474 C   0  0  0  0  0  0  0  0  0  0  0  0
   -7.8536   -1.3019    3.5909 C   0  0  0  0  0  0  0  0  0  0  0  0
   -7.2070   -0.6327    4.7550 C   0  0  0  0  0  0  0  0  0  0  0  0
   -7.5785    0.5460    5.3204 C   0  0  0  0  0  0  0  0  0  0  0  0
   -6.9976    1.0415    6.5440 C   0  0  0  0  0  0  0  0  0  0  0  0
   -6.5311    1.4483    7.5145 N   0  0  0  0  0  0  0  0  0  0  0  0
   -8.6785    1.3302    4.8145 C   0  0  0  0  0  0  0  0  0  0  0  0
   -9.5694    1.9598    4.4333 N   0  0  0  0  0  0  0  0  0  0  0  0
    2.3763    5.5784   -8.5759 H   0  0  0  0  0  0  0  0  0  0  0  0
   -2.8207    4.9087   -9.7268 H   0  0  0  0  0  0  0  0  0  0  0  0
   -5.2091    5.6987   -9.3567 H   0  0  0  0  0  0  0  0  0  0  0  0
   -6.5843    4.6238   -9.8207 H   0  0  0  0  0  0  0  0  0  0  0  0
   -5.0099    4.4668  -10.6842 H   0  0  0  0  0  0  0  0  0  0  0  0
   -4.0769    1.4578   -4.7165 H   0  0  0  0  0  0  0  0  0  0  0  0
   -3.8685    0.1432   -5.9603 H   0  0  0  0  0  0  0  0  0  0  0  0
   -5.5134    0.6123   -5.4017 H   0  0  0  0  0  0  0  0  0  0  0  0
   -2.0276    1.8236   -5.9044 H   0  0  0  0  0  0  0  0  0  0  0  0
    1.2509    5.3533   -5.2558 H   0  0  0  0  0  0  0  0  0  0  0  0
    5.9563    3.6889   -5.5400 H   0  0  0  0  0  0  0  0  0  0  0  0
    4.7319    4.3090   -7.6155 H   0  0  0  0  0  0  0  0  0  0  0  0
    6.4008    2.4762   -3.3155 H   0  0  0  0  0  0  0  0  0  0  0  0
    6.1510    1.1616   -1.2273 H   0  0  0  0  0  0  0  0  0  0  0  0
    2.5766    3.4026   -0.2636 H   0  0  0  0  0  0  0  0  0  0  0  0
   -0.8399   -0.3102   -0.6722 H   0  0  0  0  0  0  0  0  0  0  0  0
   -1.3408   -2.1038   -2.2698 H   0  0  0  0  0  0  0  0  0  0  0  0
   -0.8642   -1.9969   -5.3548 H   0  0  0  0  0  0  0  0  0  0  0  0
    0.9274   -1.8506   -5.5980 H   0  0  0  0  0  0  0  0  0  0  0  0
    0.0105   -3.1722   -6.4127 H   0  0  0  0  0  0  0  0  0  0  0  0
    2.8198   -2.3196   -3.3500 H   0  0  0  0  0  0  0  0  0  0  0  0
    3.3283   -0.4977   -1.7855 H   0  0  0  0  0  0  0  0  0  0  0  0
    0.8747    1.7071    2.3043 H   0  0  0  0  0  0  0  0  0  0  0  0
   -0.7769    3.4517    2.8129 H   0  0  0  0  0  0  0  0  0  0  0  0
   -3.5999    3.2376    2.3260 H   0  0  0  0  0  0  0  0  0  0  0  0
   -4.0114    3.2180    0.5615 H   0  0  0  0  0  0  0  0  0  0  0  0
   -4.7886    4.4192    1.6670 H   0  0  0  0  0  0  0  0  0  0  0  0
   -1.5989    3.9224   -1.3815 H   0  0  0  0  0  0  0  0  0  0  0  0
    0.0787    2.1995   -1.9085 H   0  0  0  0  0  0  0  0  0  0  0  0
    7.6169   -1.4194    4.6522 H   0  0  0  0  0  0  0  0  0  0  0  0
    9.6967   -1.1279    3.3522 H   0  0  0  0  0  0  0  0  0  0  0  0
   10.6688    0.5773   -0.4937 H   0  0  0  0  0  0  0  0  0  0  0  0
    8.9520    0.0125   -0.6510 H   0  0  0  0  0  0  0  0  0  0  0  0
    9.5579    0.7012    0.9216 H   0  0  0  0  0  0  0  0  0  0  0  0
    7.7207   -2.6403   -0.1596 H   0  0  0  0  0  0  0  0  0  0  0  0
    5.6318   -2.8959    1.1300 H   0  0  0  0  0  0  0  0  0  0  0  0
    5.5053   -1.7435    6.3330 H   0  0  0  0  0  0  0  0  0  0  0  0
    5.2115   -3.3749    8.1713 H   0  0  0  0  0  0  0  0  0  0  0  0
    2.1994   -6.5470    8.7764 H   0  0  0  0  0  0  0  0  0  0  0  0
    2.4731   -4.8828    8.1501 H   0  0  0  0  0  0  0  0  0  0  0  0
    2.3873   -6.2809    7.0032 H   0  0  0  0  0  0  0  0  0  0  0  0
    4.6440   -6.5178    5.2856 H   0  0  0  0  0  0  0  0  0  0  0  0
    4.9042   -4.8826    3.4562 H   0  0  0  0  0  0  0  0  0  0  0  0
    1.0286   -4.1591    2.8997 H   0  0  0  0  0  0  0  0  0  0  0  0
    1.0268   -2.4542    7.5697 H   0  0  0  0  0  0  0  0  0  0  0  0
    2.8349   -1.8380    6.0488 H   0  0  0  0  0  0  0  0  0  0  0  0
   -1.2829   -2.3834    8.3523 H   0  0  0  0  0  0  0  0  0  0  0  0
   -3.5696   -1.4667    8.2078 H   0  0  0  0  0  0  0  0  0  0  0  0
   -3.9344   -3.1052    4.2197 H   0  0  0  0  0  0  0  0  0  0  0  0
   -4.9871   -0.3905    6.4171 H   0  0  0  0  0  0  0  0  0  0  0  0
   -7.6031   -4.5349    2.5368 H   0  0  0  0  0  0  0  0  0  0  0  0
   -8.8532    0.2905    2.4849 H   0  0  0  0  0  0  0  0  0  0  0  0
  1  2  2  3
  2  3  1  0
  3  4  2  0
  3  5  1  0
  5  6  2  0
  6  7  1  0
  7  8  1  0
  8  9  1  0
  7 10  2  0
 10 11  1  0
 11 12  1  0
 10 13  1  0
 13 14  2  0
 14 15  1  0
 15 16  2  3
 16 17  1  0
 17 18  3  0
 16 19  1  0
 19 20  3  0
  1 21  1  0
 21 22  2  0
 22 23  1  0
 23 24  1  0
 24 25  2  0
 24 26  1  0
 26 27  2  0
 27 28  1  0
 28 29  1  0
 29 30  2  0
 27 31  1  0
 31 32  2  0
 32 33  1  0
 33 34  2  0
 33 35  1  0
 35 36  2  0
 36 37  1  0
 37 38  1  0
 38 39  2  0
 39 40  1  0
 40 41  2  0
 41 42  1  0
 42 43  1  0
 41 44  1  0
 44 45  2  0
 37 46  1  0
 46 47  2  0
 47 48  1  0
 48 49  2  0
 49 50  1  0
 50 51  1  0
 49 52  1  0
 52 53  2  0
 36 54  1  0
 54 55  1  0
 55 56  1  0
 56 57  2  0
 57 58  1  0
 58 59  1  0
 59 60  2  0
 60 61  1  0
 61 62  2  0
 62 63  1  0
 63 64  1  0
 62 65  1  0
 65 66  2  0
 58 67  1  0
 67 68  2  0
 68 69  1  0
 69 70  2  0
 70 71  1  0
 71 72  1  0
 70 73  1  0
 73 74  2  0
 57 75  1  0
 75 76  1  0
 56 77  1  0
 77 78  2  0
 78 79  1  0
 79 80  1  0
 80 81  2  0
 80 82  1  0
 82 83  2  0
 83 84  1  0
 84 85  1  0
 85 86  2  0
 83 87  1  0
 87 88  2  0
 88 89  1  0
 89 90  2  0
 89 91  1  0
 91 92  2  3
 92 93  1  0
 93 94  2  0
 93 95  1  0
 95 96  2  0
 96 97  1  0
 97 98  1  0
 97 99  2  0
 99100  1  0
 99101  1  0
101102  2  0
102103  1  0
103104  2  3
104105  1  0
105106  3  0
104107  1  0
107108  3  0
 15  2  1  0
 30 21  1  0
 76 35  1  0
 86 77  1  0
103 92  1  0
 14  5  1  0
 28 23  2  0
 45 38  1  0
 53 46  1  0
 75 54  2  0
 84 79  2  0
102 95  1  0
 34 26  1  0
 66 59  1  0
 74 67  1  0
 90 82  1  0
  1109  1  0
  6110  1  0
  9111  1  0
  9112  1  0
  9113  1  0
 12114  1  0
 12115  1  0
 12116  1  0
 13117  1  0
 22118  1  0
 29119  1  0
 30120  1  0
 31121  1  0
 32122  1  0
 34123  1  0
 39124  1  0
 40125  1  0
 43126  1  0
 43127  1  0
 43128  1  0
 44129  1  0
 45130  1  0
 47131  1  0
 48132  1  0
 51133  1  0
 51134  1  0
 51135  1  0
 52136  1  0
 53137  1  0
 60138  1  0
 61139  1  0
 64140  1  0
 64141  1  0
 64142  1  0
 65143  1  0
 66144  1  0
 68145  1  0
 69146  1  0
 72147  1  0
 72148  1  0
 72149  1  0
 73150  1  0
 74151  1  0
 78152  1  0
 85153  1  0
 86154  1  0
 87155  1  0
 88156  1  0
 90157  1  0
 91158  1  0
 96159  1  0
101160  1  0
M  END

