
     RDKit          3D

219236  0  0  0  0  0  0  0  0999 V2000
    3.1640   -4.7057   -2.1082 C   0  0  0  0  0  0  0  0  0  0  0  0
    4.1602   -4.1599   -1.3921 C   0  0  0  0  0  0  0  0  0  0  0  0
    3.9866   -3.1656   -0.3244 C   0  0  0  0  0  0  0  0  0  0  0  0
    2.8977   -2.6692    0.0711 O   0  0  0  0  0  0  0  0  0  0  0  0
    5.2689   -2.9209    0.2864 C   0  0  0  0  0  0  0  0  0  0  0  0
    5.5620   -2.0736    1.3473 C   0  0  0  0  0  0  0  0  0  0  0  0
    6.8779   -2.0445    1.8523 C   0  0  0  0  0  0  0  0  0  0  0  0
    7.2617   -1.1632    2.8708 O   0  0  0  0  0  0  0  0  0  0  0  0
    6.4086   -0.1739    3.4382 C   0  0  0  0  0  0  0  0  0  0  0  0
    7.8476   -2.9215    1.3239 C   0  0  0  0  0  0  0  0  0  0  0  0
    9.1220   -2.9227    1.9014 O   0  0  0  0  0  0  0  0  0  0  0  0
   10.1853   -3.7836    1.5139 C   0  0  0  0  0  0  0  0  0  0  0  0
    7.5168   -3.7738    0.2413 C   0  0  0  0  0  0  0  0  0  0  0  0
    6.2246   -3.7250   -0.3023 C   0  0  0  0  0  0  0  0  0  0  0  0
    5.6238   -4.4686   -1.4495 C   0  0  0  0  0  0  0  0  0  0  0  0
    6.3015   -5.0071   -2.4987 C   0  0  0  0  0  0  0  0  0  0  0  0
    5.6387   -5.5112   -3.6746 C   0  0  0  0  0  0  0  0  0  0  0  0
    5.1217   -5.9245   -4.6249 N   0  0  0  0  0  0  0  0  0  0  0  0
    7.7403   -4.9785   -2.5774 C   0  0  0  0  0  0  0  0  0  0  0  0
    8.8921   -4.9378   -2.6527 N   0  0  0  0  0  0  0  0  0  0  0  0
    1.8286   -4.0962   -2.1480 C   0  0  0  0  0  0  0  0  0  0  0  0
    1.5437   -2.8412   -2.6898 C   0  0  0  0  0  0  0  0  0  0  0  0
    2.3684   -2.1829   -3.6617 N   0  0  0  0  0  0  0  0  0  0  0  0
    2.0070   -2.3237   -5.0459 C   0  0  0  0  0  0  0  0  0  0  0  0
    1.8428   -3.6041   -5.6022 C   0  0  0  0  0  0  0  0  0  0  0  0
    1.3713   -3.7511   -6.9101 C   0  0  0  0  0  0  0  0  0  0  0  0
    1.0418   -2.6206   -7.6656 C   0  0  0  0  0  0  0  0  0  0  0  0
    0.3460   -2.8223   -9.3050 S   0  0  0  0  0  0  0  0  0  0  0  0
   -1.3622   -2.8694   -8.6788 C   0  0  0  0  0  0  0  0  0  0  0  0
    1.2298   -1.3415   -7.1279 C   0  0  0  0  0  0  0  0  0  0  0  0
    1.7122   -1.1924   -5.8220 C   0  0  0  0  0  0  0  0  0  0  0  0
    3.5382   -1.4413   -3.2771 C   0  0  0  0  0  0  0  0  0  0  0  0
    3.4934   -0.5547   -2.1879 C   0  0  0  0  0  0  0  0  0  0  0  0
    4.6331    0.1673   -1.8231 C   0  0  0  0  0  0  0  0  0  0  0  0
    5.8174    0.0358   -2.5540 C   0  0  0  0  0  0  0  0  0  0  0  0
    7.2248    1.0924   -2.1959 S   0  0  0  0  0  0  0  0  0  0  0  0
    7.8899   -0.0120   -0.9165 C   0  0  0  0  0  0  0  0  0  0  0  0
    5.8796   -0.8717   -3.6194 C   0  0  0  0  0  0  0  0  0  0  0  0
    4.7435   -1.6060   -3.9799 C   0  0  0  0  0  0  0  0  0  0  0  0
    0.2331   -2.4722   -2.4353 C   0  0  0  0  0  0  0  0  0  0  0  0
   -0.6024   -1.0463   -2.6317 S   0  0  0  0  0  0  0  0  0  0  0  0
   -1.9988   -1.5908   -1.8091 C   0  0  0  0  0  0  0  0  0  0  0  0
   -1.8111   -2.9402   -1.4241 C   0  0  0  0  0  0  0  0  0  0  0  0
   -2.8551   -3.7783   -0.8796 N   0  0  0  0  0  0  0  0  0  0  0  0
   -2.5426   -5.0030   -0.2075 C   0  0  0  0  0  0  0  0  0  0  0  0
   -2.4285   -6.1933   -0.9448 C   0  0  0  0  0  0  0  0  0  0  0  0
   -2.2095   -7.4066   -0.2885 C   0  0  0  0  0  0  0  0  0  0  0  0
   -2.1395   -7.4428    1.1088 C   0  0  0  0  0  0  0  0  0  0  0  0
   -1.9920   -9.0130    1.9564 S   0  0  0  0  0  0  0  0  0  0  0  0
   -3.7854   -9.3247    1.8981 C   0  0  0  0  0  0  0  0  0  0  0  0
   -2.2484   -6.2520    1.8452 C   0  0  0  0  0  0  0  0  0  0  0  0
   -2.4421   -5.0347    1.1877 C   0  0  0  0  0  0  0  0  0  0  0  0
   -4.2317   -3.5670   -1.2495 C   0  0  0  0  0  0  0  0  0  0  0  0
   -4.5914   -3.3479   -2.5938 C   0  0  0  0  0  0  0  0  0  0  0  0
   -5.9215   -3.0969   -2.9306 C   0  0  0  0  0  0  0  0  0  0  0  0
   -6.8970   -3.0352   -1.9335 C   0  0  0  0  0  0  0  0  0  0  0  0
   -8.5831   -2.5954   -2.3487 S   0  0  0  0  0  0  0  0  0  0  0  0
   -8.2945   -0.8191   -2.0936 C   0  0  0  0  0  0  0  0  0  0  0  0
   -6.5548   -3.3040   -0.6037 C   0  0  0  0  0  0  0  0  0  0  0  0
   -5.2340   -3.5857   -0.2682 C   0  0  0  0  0  0  0  0  0  0  0  0
   -0.5165   -3.3733   -1.7491 C   0  0  0  0  0  0  0  0  0  0  0  0
    0.4381   -4.7184   -1.3936 S   0  0  0  0  0  0  0  0  0  0  0  0
   -2.9608   -0.6564   -1.1760 C   0  0  0  0  0  0  0  0  0  0  0  0
   -3.1425    0.6942   -1.5416 C   0  0  0  0  0  0  0  0  0  0  0  0
   -2.7582    1.2543   -2.8184 N   0  0  0  0  0  0  0  0  0  0  0  0
   -2.0922    2.5288   -2.8569 C   0  0  0  0  0  0  0  0  0  0  0  0
   -2.7322    3.6372   -3.4394 C   0  0  0  0  0  0  0  0  0  0  0  0
   -2.1874    4.9152   -3.2934 C   0  0  0  0  0  0  0  0  0  0  0  0
   -0.9914    5.0925   -2.5892 C   0  0  0  0  0  0  0  0  0  0  0  0
   -0.3163    6.7359   -2.3361 S   0  0  0  0  0  0  0  0  0  0  0  0
   -1.0665    6.9117   -0.6863 C   0  0  0  0  0  0  0  0  0  0  0  0
   -0.3244    3.9825   -2.0615 C   0  0  0  0  0  0  0  0  0  0  0  0
   -0.8831    2.7106   -2.1742 C   0  0  0  0  0  0  0  0  0  0  0  0
   -3.1748    0.6301   -4.0492 C   0  0  0  0  0  0  0  0  0  0  0  0
   -2.3515    0.6775   -5.1875 C   0  0  0  0  0  0  0  0  0  0  0  0
   -2.7539    0.0775   -6.3769 C   0  0  0  0  0  0  0  0  0  0  0  0
   -3.9895   -0.5787   -6.4476 C   0  0  0  0  0  0  0  0  0  0  0  0
   -4.5197   -1.3491   -7.9820 S   0  0  0  0  0  0  0  0  0  0  0  0
   -5.5082    0.0788   -8.5087 C   0  0  0  0  0  0  0  0  0  0  0  0
   -4.8162   -0.6291   -5.3245 C   0  0  0  0  0  0  0  0  0  0  0  0
   -4.4178   -0.0284   -4.1329 C   0  0  0  0  0  0  0  0  0  0  0  0
   -3.6319    1.4492   -0.4651 C   0  0  0  0  0  0  0  0  0  0  0  0
   -3.5130    3.0766   -0.1118 S   0  0  0  0  0  0  0  0  0  0  0  0
   -3.7493    2.9210    1.5631 C   0  0  0  0  0  0  0  0  0  0  0  0
   -4.0369    1.5622    1.8411 C   0  0  0  0  0  0  0  0  0  0  0  0
   -4.4708    1.0931    3.1416 N   0  0  0  0  0  0  0  0  0  0  0  0
   -4.4135   -0.2886    3.5284 C   0  0  0  0  0  0  0  0  0  0  0  0
   -5.2947   -1.2226    2.9614 C   0  0  0  0  0  0  0  0  0  0  0  0
   -5.2353   -2.5640    3.3454 C   0  0  0  0  0  0  0  0  0  0  0  0
   -4.3273   -2.9728    4.3299 C   0  0  0  0  0  0  0  0  0  0  0  0
   -4.2170   -4.6977    4.8012 S   0  0  0  0  0  0  0  0  0  0  0  0
   -5.6909   -4.6442    5.8672 C   0  0  0  0  0  0  0  0  0  0  0  0
   -3.5012   -2.0315    4.9503 C   0  0  0  0  0  0  0  0  0  0  0  0
   -3.5461   -0.6905    4.5540 C   0  0  0  0  0  0  0  0  0  0  0  0
   -5.3208    1.9509    3.9119 C   0  0  0  0  0  0  0  0  0  0  0  0
   -4.8168    2.6467    5.0192 C   0  0  0  0  0  0  0  0  0  0  0  0
   -5.6551    3.4894    5.7578 C   0  0  0  0  0  0  0  0  0  0  0  0
   -7.0063    3.6132    5.4124 C   0  0  0  0  0  0  0  0  0  0  0  0
   -8.0921    4.6677    6.3781 S   0  0  0  0  0  0  0  0  0  0  0  0
   -7.8805    6.0997    5.2729 C   0  0  0  0  0  0  0  0  0  0  0  0
   -7.5144    2.9065    4.3191 C   0  0  0  0  0  0  0  0  0  0  0  0
   -6.6757    2.0838    3.5650 C   0  0  0  0  0  0  0  0  0  0  0  0
   -3.8870    0.7679    0.6888 C   0  0  0  0  0  0  0  0  0  0  0  0
   -3.4380   -0.8281    0.4531 S   0  0  0  0  0  0  0  0  0  0  0  0
   -2.9684    3.8206    2.4558 C   0  0  0  0  0  0  0  0  0  0  0  0
   -1.8699    3.3121    3.1998 C   0  0  0  0  0  0  0  0  0  0  0  0
   -1.7379    1.9818    3.4562 N   0  0  0  0  0  0  0  0  0  0  0  0
   -0.6568    1.4716    4.1006 C   0  0  0  0  0  0  0  0  0  0  0  0
    0.3741    2.3264    4.4851 C   0  0  0  0  0  0  0  0  0  0  0  0
    1.5124    1.8097    5.1039 O   0  0  0  0  0  0  0  0  0  0  0  0
    2.6405    2.6182    5.4353 C   0  0  0  0  0  0  0  0  0  0  0  0
    3.7640    1.7301    5.9382 C   0  0  0  0  0  0  0  0  0  0  0  0
    0.2674    3.6543    4.2188 N   0  0  0  0  0  0  0  0  0  0  0  0
   -0.8222    4.1724    3.5890 C   0  0  0  0  0  0  0  0  0  0  0  0
   -0.8361    5.5155    3.1958 C   0  0  0  0  0  0  0  0  0  0  0  0
   -2.0008    6.0526    2.6256 C   0  0  0  0  0  0  0  0  0  0  0  0
   -3.0577    5.2125    2.2583 C   0  0  0  0  0  0  0  0  0  0  0  0
   -4.0980    5.7376    1.5704 F   0  0  0  0  0  0  0  0  0  0  0  0
   -2.0487    7.3716    2.2975 F   0  0  0  0  0  0  0  0  0  0  0  0
    0.4092    6.3148    3.2201 C   0  0  0  0  0  0  0  0  0  0  0  0
    1.5115    5.9639    2.5175 C   0  0  0  0  0  0  0  0  0  0  0  0
    1.5946    4.9035    1.4965 C   0  0  0  0  0  0  0  0  0  0  0  0
    0.7461    4.0002    1.2627 O   0  0  0  0  0  0  0  0  0  0  0  0
    2.7816    5.1181    0.7054 C   0  0  0  0  0  0  0  0  0  0  0  0
    3.1757    4.4356   -0.4429 C   0  0  0  0  0  0  0  0  0  0  0  0
    4.2552    4.9366   -1.1946 C   0  0  0  0  0  0  0  0  0  0  0  0
    4.6378    4.3504   -2.4107 O   0  0  0  0  0  0  0  0  0  0  0  0
    3.8044    3.4794   -3.1691 C   0  0  0  0  0  0  0  0  0  0  0  0
    4.9544    6.0749   -0.7420 C   0  0  0  0  0  0  0  0  0  0  0  0
    6.0235    6.5483   -1.5192 O   0  0  0  0  0  0  0  0  0  0  0  0
    6.7554    7.7394   -1.2592 C   0  0  0  0  0  0  0  0  0  0  0  0
    4.5526    6.7261    0.4537 C   0  0  0  0  0  0  0  0  0  0  0  0
    3.4602    6.2212    1.1756 C   0  0  0  0  0  0  0  0  0  0  0  0
    2.7852    6.7338    2.4005 C   0  0  0  0  0  0  0  0  0  0  0  0
    3.3416    7.5178    3.3614 C   0  0  0  0  0  0  0  0  0  0  0  0
    2.6992    7.7399    4.6336 C   0  0  0  0  0  0  0  0  0  0  0  0
    2.1986    7.9234    5.6613 N   0  0  0  0  0  0  0  0  0  0  0  0
    4.6807    8.0355    3.2584 C   0  0  0  0  0  0  0  0  0  0  0  0
    5.7630    8.4405    3.1985 N   0  0  0  0  0  0  0  0  0  0  0  0
    3.3163   -5.5771   -2.7240 H   0  0  0  0  0  0  0  0  0  0  0  0
    4.7791   -1.4523    1.7666 H   0  0  0  0  0  0  0  0  0  0  0  0
    6.0500    0.5233    2.6471 H   0  0  0  0  0  0  0  0  0  0  0  0
    5.5423   -0.6596    3.9351 H   0  0  0  0  0  0  0  0  0  0  0  0
    6.9813    0.4052    4.1908 H   0  0  0  0  0  0  0  0  0  0  0  0
    9.8892   -4.8404    1.6692 H   0  0  0  0  0  0  0  0  0  0  0  0
   11.0751   -3.5628    2.1391 H   0  0  0  0  0  0  0  0  0  0  0  0
   10.4513   -3.6112    0.4507 H   0  0  0  0  0  0  0  0  0  0  0  0
    8.2404   -4.4829   -0.1354 H   0  0  0  0  0  0  0  0  0  0  0  0
    2.0671   -4.4885   -5.0205 H   0  0  0  0  0  0  0  0  0  0  0  0
    1.2349   -4.7458   -7.3169 H   0  0  0  0  0  0  0  0  0  0  0  0
   -1.4899   -3.7040   -7.9534 H   0  0  0  0  0  0  0  0  0  0  0  0
   -1.5938   -1.9105   -8.1764 H   0  0  0  0  0  0  0  0  0  0  0  0
   -2.0652   -3.0066   -9.5259 H   0  0  0  0  0  0  0  0  0  0  0  0
    0.9698   -0.4612   -7.7040 H   0  0  0  0  0  0  0  0  0  0  0  0
    1.8176   -0.1990   -5.3999 H   0  0  0  0  0  0  0  0  0  0  0  0
    2.5748   -0.4172   -1.6335 H   0  0  0  0  0  0  0  0  0  0  0  0
    4.5818    0.8615   -0.9945 H   0  0  0  0  0  0  0  0  0  0  0  0
    8.8694    0.3841   -0.5778 H   0  0  0  0  0  0  0  0  0  0  0  0
    8.0261   -1.0394   -1.3186 H   0  0  0  0  0  0  0  0  0  0  0  0
    7.1934   -0.0262   -0.0550 H   0  0  0  0  0  0  0  0  0  0  0  0
    6.7943   -0.9911   -4.1812 H   0  0  0  0  0  0  0  0  0  0  0  0
    4.8016   -2.3057   -4.8092 H   0  0  0  0  0  0  0  0  0  0  0  0
   -2.5018   -6.1739   -2.0244 H   0  0  0  0  0  0  0  0  0  0  0  0
   -2.1291   -8.3203   -0.8624 H   0  0  0  0  0  0  0  0  0  0  0  0
   -4.0143  -10.2561    2.4534 H   0  0  0  0  0  0  0  0  0  0  0  0
   -4.1159   -9.4486    0.8439 H   0  0  0  0  0  0  0  0  0  0  0  0
   -4.3402   -8.4796    2.3588 H   0  0  0  0  0  0  0  0  0  0  0  0
   -2.2063   -6.2751    2.9252 H   0  0  0  0  0  0  0  0  0  0  0  0
   -2.5555   -4.1228    1.7622 H   0  0  0  0  0  0  0  0  0  0  0  0
   -3.8396   -3.3670   -3.3738 H   0  0  0  0  0  0  0  0  0  0  0  0
   -6.1932   -2.9327   -3.9629 H   0  0  0  0  0  0  0  0  0  0  0  0
   -9.2537   -0.2716   -2.1950 H   0  0  0  0  0  0  0  0  0  0  0  0
   -7.8923   -0.6425   -1.0766 H   0  0  0  0  0  0  0  0  0  0  0  0
   -7.5698   -0.4410   -2.8423 H   0  0  0  0  0  0  0  0  0  0  0  0
   -7.3085   -3.2714    0.1731 H   0  0  0  0  0  0  0  0  0  0  0  0
   -4.9718   -3.7687    0.7655 H   0  0  0  0  0  0  0  0  0  0  0  0
   -3.6733    3.5162   -3.9556 H   0  0  0  0  0  0  0  0  0  0  0  0
   -2.7055    5.7738   -3.7014 H   0  0  0  0  0  0  0  0  0  0  0  0
   -0.8446    7.9254   -0.2931 H   0  0  0  0  0  0  0  0  0  0  0  0
   -0.6414    6.1558    0.0013 H   0  0  0  0  0  0  0  0  0  0  0  0
   -2.1676    6.7863   -0.7434 H   0  0  0  0  0  0  0  0  0  0  0  0
    0.5954    4.1191   -1.5231 H   0  0  0  0  0  0  0  0  0  0  0  0
   -0.3862    1.8718   -1.7076 H   0  0  0  0  0  0  0  0  0  0  0  0
   -1.3860    1.1655   -5.1403 H   0  0  0  0  0  0  0  0  0  0  0  0
   -2.1090    0.1316   -7.2430 H   0  0  0  0  0  0  0  0  0  0  0  0
   -6.3097    0.2795   -7.7668 H   0  0  0  0  0  0  0  0  0  0  0  0
   -4.8569    0.9700   -8.6060 H   0  0  0  0  0  0  0  0  0  0  0  0
   -5.9724   -0.1396   -9.4889 H   0  0  0  0  0  0  0  0  0  0  0  0
   -5.7795   -1.1151   -5.3841 H   0  0  0  0  0  0  0  0  0  0  0  0
   -5.0823   -0.0597   -3.2781 H   0  0  0  0  0  0  0  0  0  0  0  0
   -6.0023   -0.9128    2.2022 H   0  0  0  0  0  0  0  0  0  0  0  0
   -5.8993   -3.2820    2.8857 H   0  0  0  0  0  0  0  0  0  0  0  0
   -5.7078   -5.5557    6.5013 H   0  0  0  0  0  0  0  0  0  0  0  0
   -5.6747   -3.7477    6.5162 H   0  0  0  0  0  0  0  0  0  0  0  0
   -6.6051   -4.6371    5.2364 H   0  0  0  0  0  0  0  0  0  0  0  0
   -2.8183   -2.3360    5.7318 H   0  0  0  0  0  0  0  0  0  0  0  0
   -2.9210    0.0313    5.0558 H   0  0  0  0  0  0  0  0  0  0  0  0
   -3.7779    2.5472    5.3017 H   0  0  0  0  0  0  0  0  0  0  0  0
   -5.2551    4.0351    6.6034 H   0  0  0  0  0  0  0  0  0  0  0  0
   -8.2548    5.8481    4.2567 H   0  0  0  0  0  0  0  0  0  0  0  0
   -8.4699    6.9520    5.6700 H   0  0  0  0  0  0  0  0  0  0  0  0
   -6.8088    6.3943    5.2182 H   0  0  0  0  0  0  0  0  0  0  0  0
   -8.5607    2.9905    4.0535 H   0  0  0  0  0  0  0  0  0  0  0  0
   -7.0780    1.5493    2.7156 H   0  0  0  0  0  0  0  0  0  0  0  0
   -0.5890    0.4087    4.2949 H   0  0  0  0  0  0  0  0  0  0  0  0
    2.3653    3.3516    6.2203 H   0  0  0  0  0  0  0  0  0  0  0  0
    2.9938    3.1563    4.5229 H   0  0  0  0  0  0  0  0  0  0  0  0
    4.6430    2.3577    6.2054 H   0  0  0  0  0  0  0  0  0  0  0  0
    4.0594    1.0099    5.1465 H   0  0  0  0  0  0  0  0  0  0  0  0
    3.4293    1.1788    6.8442 H   0  0  0  0  0  0  0  0  0  0  0  0
    0.3701    7.2684    3.7234 H   0  0  0  0  0  0  0  0  0  0  0  0
    2.6428    3.5491   -0.7497 H   0  0  0  0  0  0  0  0  0  0  0  0
    3.6225    2.5384   -2.6185 H   0  0  0  0  0  0  0  0  0  0  0  0
    2.8341    3.9750   -3.3882 H   0  0  0  0  0  0  0  0  0  0  0  0
    4.3071    3.2273   -4.1271 H   0  0  0  0  0  0  0  0  0  0  0  0
    6.0731    8.6133   -1.2712 H   0  0  0  0  0  0  0  0  0  0  0  0
    7.5217    7.8798   -2.0502 H   0  0  0  0  0  0  0  0  0  0  0  0
    7.2691    7.6642   -0.2757 H   0  0  0  0  0  0  0  0  0  0  0  0
    5.0476    7.6262    0.7651 H   0  0  0  0  0  0  0  0  0  0  0  0
  1  2  2  3
  2  3  1  0
  3  4  2  0
  3  5  1  0
  5  6  2  0
  6  7  1  0
  7  8  1  0
  8  9  1  0
  7 10  2  0
 10 11  1  0
 11 12  1  0
 10 13  1  0
 13 14  2  0
 14 15  1  0
 15 16  2  3
 16 17  1  0
 17 18  3  0
 16 19  1  0
 19 20  3  0
  1 21  1  0
 21 22  2  0
 22 23  1  0
 23 24  1  0
 24 25  2  0
 25 26  1  0
 26 27  2  0
 27 28  1  0
 28 29  1  0
 27 30  1  0
 30 31  2  0
 23 32  1  0
 32 33  2  0
 33 34  1  0
 34 35  2  0
 35 36  1  0
 36 37  1  0
 35 38  1  0
 38 39  2  0
 22 40  1  0
 40 41  1  0
 41 42  1  0
 42 43  2  0
 43 44  1  0
 44 45  1  0
 45 46  2  0
 46 47  1  0
 47 48  2  0
 48 49  1  0
 49 50  1  0
 48 51  1  0
 51 52  2  0
 44 53  1  0
 53 54  2  0
 54 55  1  0
 55 56  2  0
 56 57  1  0
 57 58  1  0
 56 59  1  0
 59 60  2  0
 43 61  1  0
 61 62  1  0
 42 63  1  0
 63 64  2  0
 64 65  1  0
 65 66  1  0
 66 67  2  0
 67 68  1  0
 68 69  2  0
 69 70  1  0
 70 71  1  0
 69 72  1  0
 72 73  2  0
 65 74  1  0
 74 75  2  0
 75 76  1  0
 76 77  2  0
 77 78  1  0
 78 79  1  0
 77 80  1  0
 80 81  2  0
 64 82  1  0
 82 83  1  0
 83 84  1  0
 84 85  2  0
 85 86  1  0
 86 87  1  0
 87 88  2  0
 88 89  1  0
 89 90  2  0
 90 91  1  0
 91 92  1  0
 90 93  1  0
 93 94  2  0
 86 95  1  0
 95 96  2  0
 96 97  1  0
 97 98  2  0
 98 99  1  0
 99100  1  0
 98101  1  0
101102  2  0
 85103  1  0
103104  1  0
 84105  1  0
105106  1  0
106107  2  0
107108  1  0
108109  2  0
109110  1  0
110111  1  0
111112  1  0
109113  1  0
113114  2  0
114115  1  0
115116  2  0
116117  1  0
117118  1  0
116119  1  0
115120  1  0
120121  2  3
121122  1  0
122123  2  0
122124  1  0
124125  2  0
125126  1  0
126127  1  0
127128  1  0
126129  2  0
129130  1  0
130131  1  0
129132  1  0
132133  2  0
133134  1  0
134135  2  3
135136  1  0
136137  3  0
135138  1  0
138139  3  0
 15  2  1  0
 62 21  1  0
104 63  1  0
117105  2  0
134121  1  0
 14  5  1  0
 31 24  1  0
 39 32  1  0
 61 40  2  0
 73 66  1  0
 81 74  1  0
103 82  2  0
114106  1  0
133124  1  0
 52 45  1  0
 60 53  1  0
 94 87  1  0
102 95  1  0
  1140  1  0
  6141  1  0
  9142  1  0
  9143  1  0
  9144  1  0
 12145  1  0
 12146  1  0
 12147  1  0
 13148  1  0
 25149  1  0
 26150  1  0
 29151  1  0
 29152  1  0
 29153  1  0
 30154  1  0
 31155  1  0
 33156  1  0
 34157  1  0
 37158  1  0
 37159  1  0
 37160  1  0
 38161  1  0
 39162  1  0
 46163  1  0
 47164  1  0
 50165  1  0
 50166  1  0
 50167  1  0
 51168  1  0
 52169  1  0
 54170  1  0
 55171  1  0
 58172  1  0
 58173  1  0
 58174  1  0
 59175  1  0
 60176  1  0
 67177  1  0
 68178  1  0
 71179  1  0
 71180  1  0
 71181  1  0
 72182  1  0
 73183  1  0
 75184  1  0
 76185  1  0
 79186  1  0
 79187  1  0
 79188  1  0
 80189  1  0
 81190  1  0
 88191  1  0
 89192  1  0
 92193  1  0
 92194  1  0
 92195  1  0
 93196  1  0
 94197  1  0
 96198  1  0
 97199  1  0
100200  1  0
100201  1  0
100202  1  0
101203  1  0
102204  1  0
108205  1  0
111206  1  0
111207  1  0
112208  1  0
112209  1  0
112210  1  0
120211  1  0
125212  1  0
128213  1  0
128214  1  0
128215  1  0
131216  1  0
131217  1  0
131218  1  0
132219  1  0
M  END

