
     RDKit          3D

268291  0  0  0  0  0  0  0  0999 V2000
   -3.9302    5.2361   -7.8475 C   0  0  0  0  0  0  0  0  0  0  0  0
   -4.5924    4.1157   -8.1791 C   0  0  0  0  0  0  0  0  0  0  0  0
   -4.6789    3.6276   -9.5598 C   0  0  0  0  0  0  0  0  0  0  0  0
   -4.5173    4.3128  -10.6099 O   0  0  0  0  0  0  0  0  0  0  0  0
   -4.8424    2.1850   -9.5149 C   0  0  0  0  0  0  0  0  0  0  0  0
   -4.8667    1.2757  -10.5733 C   0  0  0  0  0  0  0  0  0  0  0  0
   -4.9681   -0.0952  -10.2791 C   0  0  0  0  0  0  0  0  0  0  0  0
   -5.0219   -1.2560  -11.6065 Cl  0  0  0  0  0  0  0  0  0  0  0  0
   -4.9970   -0.5303   -8.9353 C   0  0  0  0  0  0  0  0  0  0  0  0
   -5.0919   -2.2429   -8.5341 Cl  0  0  0  0  0  0  0  0  0  0  0  0
   -4.9620    0.4053   -7.8899 C   0  0  0  0  0  0  0  0  0  0  0  0
   -4.9138    1.7740   -8.1983 C   0  0  0  0  0  0  0  0  0  0  0  0
   -4.9267    2.9587   -7.3024 C   0  0  0  0  0  0  0  0  0  0  0  0
   -5.5990    3.0413   -6.1281 C   0  0  0  0  0  0  0  0  0  0  0  0
   -6.0973    4.2965   -5.6296 C   0  0  0  0  0  0  0  0  0  0  0  0
   -6.5192    5.2959   -5.2275 N   0  0  0  0  0  0  0  0  0  0  0  0
   -6.0823    1.8774   -5.4390 C   0  0  0  0  0  0  0  0  0  0  0  0
   -6.4800    0.9481   -4.8762 N   0  0  0  0  0  0  0  0  0  0  0  0
   -3.1386    5.3284   -6.6158 C   0  0  0  0  0  0  0  0  0  0  0  0
   -1.9331    4.6673   -6.4008 C   0  0  0  0  0  0  0  0  0  0  0  0
   -1.4322    4.8569   -5.1039 C   0  0  0  0  0  0  0  0  0  0  0  0
   -0.2273    4.3409   -4.5843 C   0  0  0  0  0  0  0  0  0  0  0  0
    0.8137    3.7380   -5.4393 C   0  0  0  0  0  0  0  0  0  0  0  0
    2.0706    4.3220   -5.6457 C   0  0  0  0  0  0  0  0  0  0  0  0
    2.7816    3.6218   -6.6075 C   0  0  0  0  0  0  0  0  0  0  0  0
    4.2362    3.8838   -7.3943 S   0  0  0  0  0  0  0  0  0  0  0  0
    4.0613    2.5349   -8.4280 C   0  0  0  0  0  0  0  0  0  0  0  0
    5.1677    2.1170   -9.8582 Si  0  0  0  0  0  4  0  0  0  0  0  0
    6.9661    2.6811   -9.7055 C   0  0  0  0  0  0  0  0  0  0  0  0
    7.1524    3.9930   -8.9514 C   0  0  0  0  0  0  0  0  0  0  0  0
    4.4142    2.8173  -11.4344 C   0  0  0  0  0  0  0  0  0  0  0  0
    4.1846    4.3211  -11.3500 C   0  0  0  0  0  0  0  0  0  0  0  0
    5.1706    0.2445  -10.0188 C   0  0  0  0  0  0  0  0  0  0  0  0
    6.0968   -0.2313  -11.1314 C   0  0  0  0  0  0  0  0  0  0  0  0
    2.8374    1.9011   -8.1669 C   0  0  0  0  0  0  0  0  0  0  0  0
    2.1585    2.5389   -7.1328 C   0  0  0  0  0  0  0  0  0  0  0  0
    0.6324    2.3666   -6.4505 S   0  0  0  0  0  0  0  0  0  0  0  0
    0.0070    4.5444   -3.2165 C   0  0  0  0  0  0  0  0  0  0  0  0
   -0.8674    5.2632   -2.3978 C   0  0  0  0  0  0  0  0  0  0  0  0
   -1.9930    5.9087   -2.9471 C   0  0  0  0  0  0  0  0  0  0  0  0
   -2.7825    6.8746   -2.1551 C   0  0  0  0  0  0  0  0  0  0  0  0
   -2.0772    8.1944   -1.3363 S   0  0  0  0  0  0  0  0  0  0  0  0
   -3.5430    8.9387   -1.0296 C   0  0  0  0  0  0  0  0  0  0  0  0
   -3.8910   10.2016   -0.5740 C   0  0  0  0  0  0  0  0  0  0  0  0
   -5.2576   10.4265   -0.7578 C   0  0  0  0  0  0  0  0  0  0  0  0
   -6.0907   12.0556   -0.5304 Si  0  0  0  0  0  4  0  0  0  0  0  0
   -6.5442   12.3127    1.2729 C   0  0  0  0  0  0  0  0  0  0  0  0
   -5.3463   12.1216    2.1939 C   0  0  0  0  0  0  0  0  0  0  0  0
   -4.9179   13.4151   -1.0951 C   0  0  0  0  0  0  0  0  0  0  0  0
   -4.4653   13.2062   -2.5359 C   0  0  0  0  0  0  0  0  0  0  0  0
   -7.6708   12.0926   -1.5535 C   0  0  0  0  0  0  0  0  0  0  0  0
   -8.1786   13.5174   -1.7586 C   0  0  0  0  0  0  0  0  0  0  0  0
   -5.9885    9.0608   -1.4745 S   0  0  0  0  0  0  0  0  0  0  0  0
   -4.5567    8.1973   -1.5409 C   0  0  0  0  0  0  0  0  0  0  0  0
   -4.1782    7.0262   -2.1843 C   0  0  0  0  0  0  0  0  0  0  0  0
   -2.2570    5.6626   -4.3086 C   0  0  0  0  0  0  0  0  0  0  0  0
   -3.5427    6.2109   -5.2427 S   0  0  0  0  0  0  0  0  0  0  0  0
   -0.5826    5.1253   -1.0245 C   0  0  0  0  0  0  0  0  0  0  0  0
    0.5082    4.2944   -0.7763 C   0  0  0  0  0  0  0  0  0  0  0  0
    1.1409    3.7753   -2.2544 S   0  0  0  0  0  0  0  0  0  0  0  0
    0.6003    3.4388    0.4049 C   0  0  0  0  0  0  0  0  0  0  0  0
   -0.1026    2.2298    0.5106 C   0  0  0  0  0  0  0  0  0  0  0  0
   -1.1634    1.8127   -0.3695 N   0  0  0  0  0  0  0  0  0  0  0  0
   -2.4066    2.5505   -0.3744 C   0  0  0  0  0  0  0  0  0  0  0  0
   -2.9457    3.0494    0.8233 C   0  0  0  0  0  0  0  0  0  0  0  0
   -4.1656    3.7355    0.8196 C   0  0  0  0  0  0  0  0  0  0  0  0
   -4.8484    3.9491   -0.3817 C   0  0  0  0  0  0  0  0  0  0  0  0
   -6.4155    4.8170   -0.3740 S   0  0  0  0  0  0  0  0  0  0  0  0
   -7.4047    3.2887   -0.3662 C   0  0  0  0  0  0  0  0  0  0  0  0
   -4.3040    3.4814   -1.5834 C   0  0  0  0  0  0  0  0  0  0  0  0
   -3.0939    2.7803   -1.5790 C   0  0  0  0  0  0  0  0  0  0  0  0
   -1.0215    0.6105   -1.1559 C   0  0  0  0  0  0  0  0  0  0  0  0
   -2.1051   -0.2725   -1.3242 C   0  0  0  0  0  0  0  0  0  0  0  0
   -1.9705   -1.4154   -2.1178 C   0  0  0  0  0  0  0  0  0  0  0  0
   -0.7601   -1.6884   -2.7623 C   0  0  0  0  0  0  0  0  0  0  0  0
   -0.6040   -3.1293   -3.8103 S   0  0  0  0  0  0  0  0  0  0  0  0
   -1.1482   -2.2551   -5.3121 C   0  0  0  0  0  0  0  0  0  0  0  0
    0.3300   -0.8324   -2.5779 C   0  0  0  0  0  0  0  0  0  0  0  0
    0.2047    0.3036   -1.7760 C   0  0  0  0  0  0  0  0  0  0  0  0
    0.4621    1.4069    1.4698 C   0  0  0  0  0  0  0  0  0  0  0  0
    0.2303   -0.1897    1.8754 S   0  0  0  0  0  0  0  0  0  0  0  0
    1.5795   -0.2636    2.9157 C   0  0  0  0  0  0  0  0  0  0  0  0
    2.2041    0.9883    2.9481 C   0  0  0  0  0  0  0  0  0  0  0  0
    3.2666    1.3433    3.8399 N   0  0  0  0  0  0  0  0  0  0  0  0
    4.5332    1.7056    3.2773 C   0  0  0  0  0  0  0  0  0  0  0  0
    5.0112    3.0157    3.4022 C   0  0  0  0  0  0  0  0  0  0  0  0
    6.2770    3.3516    2.9113 C   0  0  0  0  0  0  0  0  0  0  0  0
    7.0676    2.3793    2.2933 C   0  0  0  0  0  0  0  0  0  0  0  0
    8.7216    2.7946    1.7408 S   0  0  0  0  0  0  0  0  0  0  0  0
    9.5047    2.1750    3.2650 C   0  0  0  0  0  0  0  0  0  0  0  0
    6.5779    1.0786    2.1317 C   0  0  0  0  0  0  0  0  0  0  0  0
    5.3118    0.7417    2.6195 C   0  0  0  0  0  0  0  0  0  0  0  0
    2.9818    1.5903    5.2363 C   0  0  0  0  0  0  0  0  0  0  0  0
    4.0044    1.5004    6.1994 C   0  0  0  0  0  0  0  0  0  0  0  0
    3.7457    1.7959    7.5424 C   0  0  0  0  0  0  0  0  0  0  0  0
    2.4608    2.1828    7.9428 C   0  0  0  0  0  0  0  0  0  0  0  0
    2.1374    2.5905    9.6598 S   0  0  0  0  0  0  0  0  0  0  0  0
    2.4124    4.3742    9.4168 C   0  0  0  0  0  0  0  0  0  0  0  0
    1.4310    2.2442    7.0017 C   0  0  0  0  0  0  0  0  0  0  0  0
    1.6867    1.9516    5.6611 C   0  0  0  0  0  0  0  0  0  0  0  0
    1.5566    1.8961    2.1078 C   0  0  0  0  0  0  0  0  0  0  0  0
    1.9206    3.4221    1.4954 S   0  0  0  0  0  0  0  0  0  0  0  0
    2.1647   -1.5532    3.2903 C   0  0  0  0  0  0  0  0  0  0  0  0
    2.0099   -2.1411    4.5489 C   0  0  0  0  0  0  0  0  0  0  0  0
    1.8524   -3.5417    4.4816 C   0  0  0  0  0  0  0  0  0  0  0  0
    1.5019   -4.3901    5.5510 C   0  0  0  0  0  0  0  0  0  0  0  0
    1.8846   -4.0550    6.9393 C   0  0  0  0  0  0  0  0  0  0  0  0
    3.1980   -3.7108    7.2867 C   0  0  0  0  0  0  0  0  0  0  0  0
    3.3877   -3.8000    8.6590 C   0  0  0  0  0  0  0  0  0  0  0  0
    4.7543   -3.7955    9.6320 S   0  0  0  0  0  0  0  0  0  0  0  0
    3.9012   -4.2962   11.0187 C   0  0  0  0  0  0  0  0  0  0  0  0
    4.7112   -4.6827   12.6327 Si  0  0  0  0  0  4  0  0  0  0  0  0
    6.3129   -5.6108   12.2798 C   0  0  0  0  0  0  0  0  0  0  0  0
    6.9151   -6.2437   13.5311 C   0  0  0  0  0  0  0  0  0  0  0  0
    5.0085   -3.0490   13.5178 C   0  0  0  0  0  0  0  0  0  0  0  0
    6.4266   -2.5218   13.3151 C   0  0  0  0  0  0  0  0  0  0  0  0
    3.5732   -5.7352   13.6989 C   0  0  0  0  0  0  0  0  0  0  0  0
    3.2617   -7.0875   13.0658 C   0  0  0  0  0  0  0  0  0  0  0  0
    2.5410   -4.4530   10.7193 C   0  0  0  0  0  0  0  0  0  0  0  0
    2.3016   -4.1714    9.3803 C   0  0  0  0  0  0  0  0  0  0  0  0
    1.0082   -4.4486    8.3541 S   0  0  0  0  0  0  0  0  0  0  0  0
    0.9425   -5.6424    5.2026 C   0  0  0  0  0  0  0  0  0  0  0  0
    0.8547   -6.0766    3.8742 C   0  0  0  0  0  0  0  0  0  0  0  0
    1.4098   -5.3152    2.8334 C   0  0  0  0  0  0  0  0  0  0  0  0
    1.4360   -5.8109    1.4406 C   0  0  0  0  0  0  0  0  0  0  0  0
    0.8358   -4.9849    0.0672 S   0  0  0  0  0  0  0  0  0  0  0  0
    1.3576   -6.1639   -1.0020 C   0  0  0  0  0  0  0  0  0  0  0  0
    1.3344   -6.2975   -2.3842 C   0  0  0  0  0  0  0  0  0  0  0  0
    1.9950   -7.4715   -2.7699 C   0  0  0  0  0  0  0  0  0  0  0  0
    2.2170   -8.0754   -4.5069 Si  0  0  0  0  0  4  0  0  0  0  0  0
    1.2463   -9.6767   -4.6651 C   0  0  0  0  0  0  0  0  0  0  0  0
    1.4220  -10.3216   -6.0351 C   0  0  0  0  0  0  0  0  0  0  0  0
    1.5337   -6.8184   -5.7297 C   0  0  0  0  0  0  0  0  0  0  0  0
    2.4106   -5.5737   -5.8221 C   0  0  0  0  0  0  0  0  0  0  0  0
    4.0429   -8.3607   -4.8735 C   0  0  0  0  0  0  0  0  0  0  0  0
    4.6420   -9.4935   -4.0474 C   0  0  0  0  0  0  0  0  0  0  0  0
    2.5457   -8.3120   -1.3935 S   0  0  0  0  0  0  0  0  0  0  0  0
    1.9724   -7.1634   -0.3251 C   0  0  0  0  0  0  0  0  0  0  0  0
    2.0408   -7.0114    1.0526 C   0  0  0  0  0  0  0  0  0  0  0  0
    1.8731   -4.0355    3.1735 C   0  0  0  0  0  0  0  0  0  0  0  0
    2.1925   -2.7773    2.1300 S   0  0  0  0  0  0  0  0  0  0  0  0
    0.0571   -7.2133    3.7077 C   0  0  0  0  0  0  0  0  0  0  0  0
   -0.5098   -7.6561    4.8956 C   0  0  0  0  0  0  0  0  0  0  0  0
    0.0788   -6.7166    6.1738 S   0  0  0  0  0  0  0  0  0  0  0  0
   -1.6346   -8.6091    4.9235 C   0  0  0  0  0  0  0  0  0  0  0  0
   -2.9075   -8.2637    5.2281 C   0  0  0  0  0  0  0  0  0  0  0  0
   -3.3711   -6.9360    5.6679 C   0  0  0  0  0  0  0  0  0  0  0  0
   -2.6937   -6.0577    6.2665 O   0  0  0  0  0  0  0  0  0  0  0  0
   -4.7692   -6.7963    5.3413 C   0  0  0  0  0  0  0  0  0  0  0  0
   -5.5767   -5.6723    5.5057 C   0  0  0  0  0  0  0  0  0  0  0  0
   -6.9045   -5.7339    5.0612 C   0  0  0  0  0  0  0  0  0  0  0  0
   -7.9473   -4.3328    5.2599 Cl  0  0  0  0  0  0  0  0  0  0  0  0
   -7.3907   -6.9056    4.4527 C   0  0  0  0  0  0  0  0  0  0  0  0
   -8.6701   -6.9535    3.9979 F   0  0  0  0  0  0  0  0  0  0  0  0
   -6.5584   -8.0290    4.3016 C   0  0  0  0  0  0  0  0  0  0  0  0
   -5.2338   -7.9718    4.7752 C   0  0  0  0  0  0  0  0  0  0  0  0
   -4.1395   -8.9896    4.7776 C   0  0  0  0  0  0  0  0  0  0  0  0
   -4.2640  -10.3259    4.5655 C   0  0  0  0  0  0  0  0  0  0  0  0
   -3.1996  -11.2496    4.8730 C   0  0  0  0  0  0  0  0  0  0  0  0
   -2.3372  -11.9847    5.1118 N   0  0  0  0  0  0  0  0  0  0  0  0
   -5.4832  -10.9307    4.1042 C   0  0  0  0  0  0  0  0  0  0  0  0
   -6.4591  -11.4227    3.7135 N   0  0  0  0  0  0  0  0  0  0  0  0
   -3.6870    5.9439   -8.6246 H   0  0  0  0  0  0  0  0  0  0  0  0
   -4.8105    1.6203  -11.6009 H   0  0  0  0  0  0  0  0  0  0  0  0
   -4.9429    0.0569   -6.8658 H   0  0  0  0  0  0  0  0  0  0  0  0
   -1.4593    4.0589   -7.1578 H   0  0  0  0  0  0  0  0  0  0  0  0
    2.4090    5.2343   -5.1756 H   0  0  0  0  0  0  0  0  0  0  0  0
    7.3735    2.7896  -10.7343 H   0  0  0  0  0  0  0  0  0  0  0  0
    7.5447    1.8845   -9.1880 H   0  0  0  0  0  0  0  0  0  0  0  0
    8.1862    4.3658   -9.1184 H   0  0  0  0  0  0  0  0  0  0  0  0
    7.0214    3.8226   -7.8631 H   0  0  0  0  0  0  0  0  0  0  0  0
    6.4399    4.7658   -9.3025 H   0  0  0  0  0  0  0  0  0  0  0  0
    5.0905    2.5968  -12.2879 H   0  0  0  0  0  0  0  0  0  0  0  0
    3.4419    2.3081  -11.6139 H   0  0  0  0  0  0  0  0  0  0  0  0
    5.1481    4.8535  -11.2284 H   0  0  0  0  0  0  0  0  0  0  0  0
    3.5091    4.5651  -10.5045 H   0  0  0  0  0  0  0  0  0  0  0  0
    3.7127    4.6746  -12.2906 H   0  0  0  0  0  0  0  0  0  0  0  0
    5.4981   -0.1913   -9.0526 H   0  0  0  0  0  0  0  0  0  0  0  0
    4.1359   -0.0999  -10.2272 H   0  0  0  0  0  0  0  0  0  0  0  0
    5.7863    0.1982  -12.1064 H   0  0  0  0  0  0  0  0  0  0  0  0
    7.1460    0.0593  -10.9158 H   0  0  0  0  0  0  0  0  0  0  0  0
    6.0506   -1.3385  -11.2013 H   0  0  0  0  0  0  0  0  0  0  0  0
    2.4501    1.0616   -8.7266 H   0  0  0  0  0  0  0  0  0  0  0  0
   -3.1843   10.9409   -0.2222 H   0  0  0  0  0  0  0  0  0  0  0  0
   -6.9483   13.3387    1.3928 H   0  0  0  0  0  0  0  0  0  0  0  0
   -7.3393   11.5867    1.5455 H   0  0  0  0  0  0  0  0  0  0  0  0
   -4.5257   12.8159    1.9193 H   0  0  0  0  0  0  0  0  0  0  0  0
   -4.9813   11.0741    2.1393 H   0  0  0  0  0  0  0  0  0  0  0  0
   -5.6510   12.3339    3.2404 H   0  0  0  0  0  0  0  0  0  0  0  0
   -5.4324   14.3939   -1.0021 H   0  0  0  0  0  0  0  0  0  0  0  0
   -4.0293   13.4255   -0.4307 H   0  0  0  0  0  0  0  0  0  0  0  0
   -5.3370   13.1080   -3.2152 H   0  0  0  0  0  0  0  0  0  0  0  0
   -3.8621   14.0793   -2.8617 H   0  0  0  0  0  0  0  0  0  0  0  0
   -3.8346   12.2967   -2.6143 H   0  0  0  0  0  0  0  0  0  0  0  0
   -7.4778   11.6253   -2.5438 H   0  0  0  0  0  0  0  0  0  0  0  0
   -8.4460   11.4955   -1.0275 H   0  0  0  0  0  0  0  0  0  0  0  0
   -7.4935   14.0708   -2.4373 H   0  0  0  0  0  0  0  0  0  0  0  0
   -9.1878   13.4889   -2.2239 H   0  0  0  0  0  0  0  0  0  0  0  0
   -8.2504   14.0554   -0.7864 H   0  0  0  0  0  0  0  0  0  0  0  0
   -4.8626    6.3746   -2.7092 H   0  0  0  0  0  0  0  0  0  0  0  0
   -1.2436    5.4708   -0.2410 H   0  0  0  0  0  0  0  0  0  0  0  0
   -2.4353    2.8840    1.7678 H   0  0  0  0  0  0  0  0  0  0  0  0
   -4.5717    4.1002    1.7568 H   0  0  0  0  0  0  0  0  0  0  0  0
   -7.2984    2.7774   -1.3452 H   0  0  0  0  0  0  0  0  0  0  0  0
   -7.0827    2.6110    0.4517 H   0  0  0  0  0  0  0  0  0  0  0  0
   -8.4738    3.5492   -0.2169 H   0  0  0  0  0  0  0  0  0  0  0  0
   -4.8220    3.6509   -2.5159 H   0  0  0  0  0  0  0  0  0  0  0  0
   -2.6868    2.4207   -2.5161 H   0  0  0  0  0  0  0  0  0  0  0  0
   -3.0492   -0.0808   -0.8304 H   0  0  0  0  0  0  0  0  0  0  0  0
   -2.8137   -2.0827   -2.2399 H   0  0  0  0  0  0  0  0  0  0  0  0
   -1.0864   -2.9444   -6.1805 H   0  0  0  0  0  0  0  0  0  0  0  0
   -2.2009   -1.9252   -5.1910 H   0  0  0  0  0  0  0  0  0  0  0  0
   -0.4946   -1.3793   -5.5089 H   0  0  0  0  0  0  0  0  0  0  0  0
    1.2762   -1.0412   -3.0647 H   0  0  0  0  0  0  0  0  0  0  0  0
    1.0623    0.9508   -1.6469 H   0  0  0  0  0  0  0  0  0  0  0  0
    4.4113    3.7746    3.8921 H   0  0  0  0  0  0  0  0  0  0  0  0
    6.6424    4.3644    3.0286 H   0  0  0  0  0  0  0  0  0  0  0  0
    9.0393    2.6350    4.1625 H   0  0  0  0  0  0  0  0  0  0  0  0
    9.4003    1.0711    3.3126 H   0  0  0  0  0  0  0  0  0  0  0  0
   10.5849    2.4322    3.2506 H   0  0  0  0  0  0  0  0  0  0  0  0
    7.1855    0.3189    1.6520 H   0  0  0  0  0  0  0  0  0  0  0  0
    4.9487   -0.2749    2.5166 H   0  0  0  0  0  0  0  0  0  0  0  0
    5.0056    1.2054    5.9104 H   0  0  0  0  0  0  0  0  0  0  0  0
    4.5435    1.7274    8.2706 H   0  0  0  0  0  0  0  0  0  0  0  0
    3.4633    4.5609    9.1168 H   0  0  0  0  0  0  0  0  0  0  0  0
    2.2109    4.9051   10.3682 H   0  0  0  0  0  0  0  0  0  0  0  0
    1.7261    4.7696    8.6389 H   0  0  0  0  0  0  0  0  0  0  0  0
    0.4343    2.5483    7.3015 H   0  0  0  0  0  0  0  0  0  0  0  0
    0.8735    2.0511    4.9504 H   0  0  0  0  0  0  0  0  0  0  0  0
    1.8309   -1.5690    5.4472 H   0  0  0  0  0  0  0  0  0  0  0  0
    3.9947   -3.5317    6.5745 H   0  0  0  0  0  0  0  0  0  0  0  0
    6.1064   -6.4063   11.5303 H   0  0  0  0  0  0  0  0  0  0  0  0
    7.0453   -4.9044   11.8360 H   0  0  0  0  0  0  0  0  0  0  0  0
    7.9270   -6.6388   13.2931 H   0  0  0  0  0  0  0  0  0  0  0  0
    6.2862   -7.0898   13.8787 H   0  0  0  0  0  0  0  0  0  0  0  0
    7.0054   -5.5032   14.3520 H   0  0  0  0  0  0  0  0  0  0  0  0
    4.8141   -3.1830   14.6047 H   0  0  0  0  0  0  0  0  0  0  0  0
    4.2844   -2.3034   13.1233 H   0  0  0  0  0  0  0  0  0  0  0  0
    6.5163   -1.5219   13.7918 H   0  0  0  0  0  0  0  0  0  0  0  0
    7.1635   -3.1983   13.8000 H   0  0  0  0  0  0  0  0  0  0  0  0
    6.6598   -2.4197   12.2309 H   0  0  0  0  0  0  0  0  0  0  0  0
    2.6247   -5.1809   13.8685 H   0  0  0  0  0  0  0  0  0  0  0  0
    4.0592   -5.8993   14.6843 H   0  0  0  0  0  0  0  0  0  0  0  0
    2.7661   -6.9604   12.0824 H   0  0  0  0  0  0  0  0  0  0  0  0
    4.1873   -7.6817   12.9251 H   0  0  0  0  0  0  0  0  0  0  0  0
    2.5783   -7.6586   13.7278 H   0  0  0  0  0  0  0  0  0  0  0  0
    1.7902   -4.8175   11.4080 H   0  0  0  0  0  0  0  0  0  0  0  0
    0.8816   -5.5872   -3.0591 H   0  0  0  0  0  0  0  0  0  0  0  0
    0.1694   -9.4631   -4.4877 H   0  0  0  0  0  0  0  0  0  0  0  0
    1.5917  -10.3808   -3.8780 H   0  0  0  0  0  0  0  0  0  0  0  0
    1.0190   -9.6598   -6.8296 H   0  0  0  0  0  0  0  0  0  0  0  0
    2.4953  -10.5321   -6.2331 H   0  0  0  0  0  0  0  0  0  0  0  0
    0.8654  -11.2842   -6.0629 H   0  0  0  0  0  0  0  0  0  0  0  0
    1.4723   -7.2869   -6.7343 H   0  0  0  0  0  0  0  0  0  0  0  0
    0.5084   -6.5286   -5.4161 H   0  0  0  0  0  0  0  0  0  0  0  0
    3.4226   -5.8400   -6.1932 H   0  0  0  0  0  0  0  0  0  0  0  0
    2.4978   -5.0767   -4.8337 H   0  0  0  0  0  0  0  0  0  0  0  0
    1.9575   -4.8547   -6.5398 H   0  0  0  0  0  0  0  0  0  0  0  0
    4.1525   -8.6003   -5.9529 H   0  0  0  0  0  0  0  0  0  0  0  0
    4.6030   -7.4231   -4.6652 H   0  0  0  0  0  0  0  0  0  0  0  0
    5.6757   -9.6997   -4.3982 H   0  0  0  0  0  0  0  0  0  0  0  0
    4.0428  -10.4215   -4.1536 H   0  0  0  0  0  0  0  0  0  0  0  0
    4.6991   -9.2066   -2.9786 H   0  0  0  0  0  0  0  0  0  0  0  0
    2.5340   -7.6992    1.7232 H   0  0  0  0  0  0  0  0  0  0  0  0
   -0.2052   -7.6287    2.7443 H   0  0  0  0  0  0  0  0  0  0  0  0
   -1.4593   -9.5086    4.3546 H   0  0  0  0  0  0  0  0  0  0  0  0
   -5.1796   -4.7752    5.9604 H   0  0  0  0  0  0  0  0  0  0  0  0
   -6.9492   -8.8889    3.7907 H   0  0  0  0  0  0  0  0  0  0  0  0
  1  2  2  3
  2  3  1  0
  3  4  2  0
  3  5  1  0
  5  6  2  0
  6  7  1  0
  7  8  1  0
  7  9  2  0
  9 10  1  0
  9 11  1  0
 11 12  2  0
 12 13  1  0
 13 14  2  3
 14 15  1  0
 15 16  3  0
 14 17  1  0
 17 18  3  0
  1 19  1  0
 19 20  2  0
 20 21  1  0
 21 22  2  0
 22 23  1  0
 23 24  2  0
 24 25  1  0
 25 26  1  0
 26 27  1  0
 27 28  1  0
 28 29  1  0
 29 30  1  0
 28 31  1  0
 31 32  1  0
 28 33  1  0
 33 34  1  0
 27 35  2  0
 35 36  1  0
 36 37  1  0
 22 38  1  0
 38 39  2  0
 39 40  1  0
 40 41  1  0
 41 42  1  0
 42 43  1  0
 43 44  1  0
 44 45  2  0
 45 46  1  0
 46 47  1  0
 47 48  1  0
 46 49  1  0
 49 50  1  0
 46 51  1  0
 51 52  1  0
 45 53  1  0
 53 54  1  0
 54 55  1  0
 40 56  2  0
 56 57  1  0
 39 58  1  0
 58 59  2  0
 59 60  1  0
 59 61  1  0
 61 62  2  0
 62 63  1  0
 63 64  1  0
 64 65  2  0
 65 66  1  0
 66 67  2  0
 67 68  1  0
 68 69  1  0
 67 70  1  0
 70 71  2  0
 63 72  1  0
 72 73  2  0
 73 74  1  0
 74 75  2  0
 75 76  1  0
 76 77  1  0
 75 78  1  0
 78 79  2  0
 62 80  1  0
 80 81  1  0
 81 82  1  0
 82 83  2  0
 83 84  1  0
 84 85  1  0
 85 86  2  0
 86 87  1  0
 87 88  2  0
 88 89  1  0
 89 90  1  0
 88 91  1  0
 91 92  2  0
 84 93  1  0
 93 94  2  0
 94 95  1  0
 95 96  2  0
 96 97  1  0
 97 98  1  0
 96 99  1  0
 99100  2  0
 83101  1  0
101102  1  0
 82103  1  0
103104  2  0
104105  1  0
105106  2  0
106107  1  0
107108  2  0
108109  1  0
109110  1  0
110111  1  0
111112  1  0
112113  1  0
113114  1  0
112115  1  0
115116  1  0
112117  1  0
117118  1  0
111119  2  0
119120  1  0
120121  1  0
106122  1  0
122123  2  0
123124  1  0
124125  1  0
125126  1  0
126127  1  0
127128  1  0
128129  2  0
129130  1  0
130131  1  0
131132  1  0
130133  1  0
133134  1  0
130135  1  0
135136  1  0
129137  1  0
137138  1  0
138139  1  0
124140  2  0
140141  1  0
123142  1  0
142143  2  0
143144  1  0
143145  1  0
145146  2  3
146147  1  0
147148  2  0
147149  1  0
149150  2  0
150151  1  0
151152  1  0
151153  2  0
153154  1  0
153155  1  0
155156  2  0
156157  1  0
157158  2  3
158159  1  0
159160  3  0
158161  1  0
161162  3  0
 13  2  1  0
 57 19  1  0
102 61  1  0
141103  1  0
157146  1  0
 12  5  1  0
 56 21  1  0
 71 64  1  0
 79 72  1  0
101 80  2  0
140105  1  0
156149  1  0
 37 23  1  0
 60 38  1  0
 92 85  1  0
100 93  1  0
121107  1  0
144122  1  0
 36 25  2  0
 55 41  2  0
120109  2  0
139125  2  0
 54 43  2  0
138127  2  0
  1163  1  0
  6164  1  0
 11165  1  0
 20166  1  0
 24167  1  0
 29168  1  0
 29169  1  0
 30170  1  0
 30171  1  0
 30172  1  0
 31173  1  0
 31174  1  0
 32175  1  0
 32176  1  0
 32177  1  0
 33178  1  0
 33179  1  0
 34180  1  0
 34181  1  0
 34182  1  0
 35183  1  0
 44184  1  0
 47185  1  0
 47186  1  0
 48187  1  0
 48188  1  0
 48189  1  0
 49190  1  0
 49191  1  0
 50192  1  0
 50193  1  0
 50194  1  0
 51195  1  0
 51196  1  0
 52197  1  0
 52198  1  0
 52199  1  0
 55200  1  0
 58201  1  0
 65202  1  0
 66203  1  0
 69204  1  0
 69205  1  0
 69206  1  0
 70207  1  0
 71208  1  0
 73209  1  0
 74210  1  0
 77211  1  0
 77212  1  0
 77213  1  0
 78214  1  0
 79215  1  0
 86216  1  0
 87217  1  0
 90218  1  0
 90219  1  0
 90220  1  0
 91221  1  0
 92222  1  0
 94223  1  0
 95224  1  0
 98225  1  0
 98226  1  0
 98227  1  0
 99228  1  0
100229  1  0
104230  1  0
108231  1  0
113232  1  0
113233  1  0
114234  1  0
114235  1  0
114236  1  0
115237  1  0
115238  1  0
116239  1  0
116240  1  0
116241  1  0
117242  1  0
117243  1  0
118244  1  0
118245  1  0
118246  1  0
119247  1  0
128248  1  0
131249  1  0
131250  1  0
132251  1  0
132252  1  0
132253  1  0
133254  1  0
133255  1  0
134256  1  0
134257  1  0
134258  1  0
135259  1  0
135260  1  0
136261  1  0
136262  1  0
136263  1  0
139264  1  0
142265  1  0
145266  1  0
150267  1  0
155268  1  0
M  END

