
     RDKit          3D

196212  0  0  0  0  0  0  0  0999 V2000
    0.3693   -6.4991    2.6802 C   0  0  0  0  0  0  0  0  0  0  0  0
    1.0700   -6.0330    3.7297 C   0  0  0  0  0  0  0  0  0  0  0  0
    2.4998   -6.3453    3.8471 C   0  0  0  0  0  0  0  0  0  0  0  0
    3.0590   -7.4008    3.4438 O   0  0  0  0  0  0  0  0  0  0  0  0
    3.1985   -5.1357    4.2857 C   0  0  0  0  0  0  0  0  0  0  0  0
    4.5734   -4.8855    4.3845 C   0  0  0  0  0  0  0  0  0  0  0  0
    5.7737   -6.1399    4.0963 Cl  0  0  0  0  0  0  0  0  0  0  0  0
    4.9825   -3.6034    4.7753 C   0  0  0  0  0  0  0  0  0  0  0  0
    4.0359   -2.5823    4.9875 C   0  0  0  0  0  0  0  0  0  0  0  0
    2.6681   -2.8434    4.8617 C   0  0  0  0  0  0  0  0  0  0  0  0
    2.2614   -4.1498    4.5342 C   0  0  0  0  0  0  0  0  0  0  0  0
    0.8919   -4.6970    4.3475 C   0  0  0  0  0  0  0  0  0  0  0  0
   -0.2149   -4.3085    5.0226 C   0  0  0  0  0  0  0  0  0  0  0  0
   -1.2978   -5.2263    5.2631 C   0  0  0  0  0  0  0  0  0  0  0  0
   -2.1672   -5.9522    5.5104 N   0  0  0  0  0  0  0  0  0  0  0  0
   -0.3778   -2.9712    5.5313 C   0  0  0  0  0  0  0  0  0  0  0  0
   -0.5511   -1.8846    5.8941 N   0  0  0  0  0  0  0  0  0  0  0  0
   -0.3197   -5.5818    1.7536 C   0  0  0  0  0  0  0  0  0  0  0  0
    0.1453   -5.3185    0.4544 C   0  0  0  0  0  0  0  0  0  0  0  0
    1.0031   -6.2030   -0.2794 N   0  0  0  0  0  0  0  0  0  0  0  0
    2.4288   -6.1768   -0.0647 C   0  0  0  0  0  0  0  0  0  0  0  0
    3.1086   -4.9498    0.0560 C   0  0  0  0  0  0  0  0  0  0  0  0
    4.5018   -4.9275    0.2170 C   0  0  0  0  0  0  0  0  0  0  0  0
    5.2212   -6.1291    0.2694 C   0  0  0  0  0  0  0  0  0  0  0  0
    7.0105   -6.0892    0.4347 S   0  0  0  0  0  0  0  0  0  0  0  0
    7.3109   -6.2171   -1.3567 C   0  0  0  0  0  0  0  0  0  0  0  0
    4.5474   -7.3483    0.1819 C   0  0  0  0  0  0  0  0  0  0  0  0
    3.1638   -7.3767    0.0134 C   0  0  0  0  0  0  0  0  0  0  0  0
    0.3883   -7.2025   -1.1226 C   0  0  0  0  0  0  0  0  0  0  0  0
   -0.7927   -7.8578   -0.7210 C   0  0  0  0  0  0  0  0  0  0  0  0
   -1.3920   -8.8062   -1.5527 C   0  0  0  0  0  0  0  0  0  0  0  0
   -0.8289   -9.1076   -2.7972 C   0  0  0  0  0  0  0  0  0  0  0  0
   -1.6277  -10.2957   -3.8820 S   0  0  0  0  0  0  0  0  0  0  0  0
   -2.7420   -9.0594   -4.6196 C   0  0  0  0  0  0  0  0  0  0  0  0
    0.3473   -8.4721   -3.2011 C   0  0  0  0  0  0  0  0  0  0  0  0
    0.9564   -7.5250   -2.3694 C   0  0  0  0  0  0  0  0  0  0  0  0
   -0.4733   -4.2083   -0.0966 C   0  0  0  0  0  0  0  0  0  0  0  0
   -0.2484   -3.2844   -1.4810 S   0  0  0  0  0  0  0  0  0  0  0  0
   -1.4433   -2.1256   -1.0697 C   0  0  0  0  0  0  0  0  0  0  0  0
   -2.0346   -2.5134    0.1468 C   0  0  0  0  0  0  0  0  0  0  0  0
   -3.3430   -2.0994    0.5559 N   0  0  0  0  0  0  0  0  0  0  0  0
   -3.5453   -1.3801    1.7939 C   0  0  0  0  0  0  0  0  0  0  0  0
   -2.5793   -0.4652    2.2535 C   0  0  0  0  0  0  0  0  0  0  0  0
   -2.8158    0.2991    3.3998 C   0  0  0  0  0  0  0  0  0  0  0  0
   -4.0048    0.1352    4.1177 C   0  0  0  0  0  0  0  0  0  0  0  0
   -4.3405    1.1636    5.5477 S   0  0  0  0  0  0  0  0  0  0  0  0
   -5.3354    2.3577    4.6032 C   0  0  0  0  0  0  0  0  0  0  0  0
   -4.9481   -0.8058    3.6974 C   0  0  0  0  0  0  0  0  0  0  0  0
   -4.7230   -1.5554    2.5417 C   0  0  0  0  0  0  0  0  0  0  0  0
   -4.4543   -2.5118   -0.2727 C   0  0  0  0  0  0  0  0  0  0  0  0
   -5.4641   -1.6030   -0.6171 C   0  0  0  0  0  0  0  0  0  0  0  0
   -6.4750   -1.9732   -1.5064 C   0  0  0  0  0  0  0  0  0  0  0  0
   -6.4962   -3.2641   -2.0509 C   0  0  0  0  0  0  0  0  0  0  0  0
   -7.7629   -3.7219   -3.2341 S   0  0  0  0  0  0  0  0  0  0  0  0
   -6.7126   -3.3846   -4.6837 C   0  0  0  0  0  0  0  0  0  0  0  0
   -5.5152   -4.1886   -1.6811 C   0  0  0  0  0  0  0  0  0  0  0  0
   -4.5007   -3.8126   -0.8032 C   0  0  0  0  0  0  0  0  0  0  0  0
   -1.4278   -3.6419    0.6748 C   0  0  0  0  0  0  0  0  0  0  0  0
   -1.5723   -4.4752    2.1206 S   0  0  0  0  0  0  0  0  0  0  0  0
   -1.5259   -0.7491   -1.6307 C   0  0  0  0  0  0  0  0  0  0  0  0
   -0.4879   -0.0850   -2.3192 C   0  0  0  0  0  0  0  0  0  0  0  0
    0.5353   -0.7322   -3.1117 N   0  0  0  0  0  0  0  0  0  0  0  0
    0.1656   -1.4124   -4.3525 C   0  0  0  0  0  0  0  0  0  0  0  0
    1.1146   -1.6731   -5.3726 C   0  0  0  0  0  0  0  0  0  0  0  0
    0.7239   -2.2350   -6.5931 C   0  0  0  0  0  0  0  0  0  0  0  0
   -0.6044   -2.5980   -6.8110 C   0  0  0  0  0  0  0  0  0  0  0  0
   -1.1254   -3.2920   -8.3854 S   0  0  0  0  0  0  0  0  0  0  0  0
   -1.6334   -1.6872   -9.0932 C   0  0  0  0  0  0  0  0  0  0  0  0
   -1.5432   -2.4160   -5.8001 C   0  0  0  0  0  0  0  0  0  0  0  0
   -1.1717   -1.8139   -4.5956 C   0  0  0  0  0  0  0  0  0  0  0  0
    1.9049   -0.4077   -2.8018 C   0  0  0  0  0  0  0  0  0  0  0  0
    2.5004   -0.9105   -1.6347 C   0  0  0  0  0  0  0  0  0  0  0  0
    3.7944   -0.5246   -1.2724 C   0  0  0  0  0  0  0  0  0  0  0  0
    4.5029    0.3913   -2.0597 C   0  0  0  0  0  0  0  0  0  0  0  0
    6.1282    0.9547   -1.5515 S   0  0  0  0  0  0  0  0  0  0  0  0
    7.0113   -0.3183   -2.5092 C   0  0  0  0  0  0  0  0  0  0  0  0
    3.9112    0.9126   -3.2124 C   0  0  0  0  0  0  0  0  0  0  0  0
    2.6200    0.5175   -3.5861 C   0  0  0  0  0  0  0  0  0  0  0  0
   -0.6193    1.3097   -2.2220 C   0  0  0  0  0  0  0  0  0  0  0  0
    0.5583    2.4890   -2.0609 S   0  0  0  0  0  0  0  0  0  0  0  0
   -0.4283    3.6147   -1.2578 C   0  0  0  0  0  0  0  0  0  0  0  0
   -1.7353    3.0931   -1.1800 C   0  0  0  0  0  0  0  0  0  0  0  0
   -2.9212    3.8630   -0.8303 N   0  0  0  0  0  0  0  0  0  0  0  0
   -4.2161    3.2739   -1.0184 C   0  0  0  0  0  0  0  0  0  0  0  0
   -4.9574    2.8109    0.0749 C   0  0  0  0  0  0  0  0  0  0  0  0
   -6.2177    2.2375   -0.1257 C   0  0  0  0  0  0  0  0  0  0  0  0
   -6.7507    2.1328   -1.4204 C   0  0  0  0  0  0  0  0  0  0  0  0
   -8.3580    1.3826   -1.6841 S   0  0  0  0  0  0  0  0  0  0  0  0
   -9.2469    2.9709   -1.6277 C   0  0  0  0  0  0  0  0  0  0  0  0
   -6.0026    2.5881   -2.5136 C   0  0  0  0  0  0  0  0  0  0  0  0
   -4.7438    3.1590   -2.3113 C   0  0  0  0  0  0  0  0  0  0  0  0
   -2.9049    5.3075   -0.7959 C   0  0  0  0  0  0  0  0  0  0  0  0
   -3.5249    5.9916    0.2652 C   0  0  0  0  0  0  0  0  0  0  0  0
   -3.4840    7.3918    0.3303 C   0  0  0  0  0  0  0  0  0  0  0  0
   -2.8091    8.1191   -0.6602 C   0  0  0  0  0  0  0  0  0  0  0  0
   -2.6956    9.9086   -0.5379 S   0  0  0  0  0  0  0  0  0  0  0  0
   -4.0147   10.2529   -1.7605 C   0  0  0  0  0  0  0  0  0  0  0  0
   -2.2038    7.4446   -1.7259 C   0  0  0  0  0  0  0  0  0  0  0  0
   -2.2745    6.0521   -1.8083 C   0  0  0  0  0  0  0  0  0  0  0  0
   -1.7663    1.7679   -1.6446 C   0  0  0  0  0  0  0  0  0  0  0  0
   -2.6216    0.4421   -1.0852 S   0  0  0  0  0  0  0  0  0  0  0  0
    0.1492    4.6398   -0.3673 C   0  0  0  0  0  0  0  0  0  0  0  0
   -0.3122    4.9640    0.9072 C   0  0  0  0  0  0  0  0  0  0  0  0
    0.6137    5.6814    1.6763 C   0  0  0  0  0  0  0  0  0  0  0  0
    0.2586    6.2448    3.3510 S   0  0  0  0  0  0  0  0  0  0  0  0
    0.7746    4.7134    4.2019 C   0  0  0  0  0  0  0  0  0  0  0  0
    1.6954    5.0592    5.3629 C   0  0  0  0  0  0  0  0  0  0  0  0
    1.8219    5.8932    1.0245 C   0  0  0  0  0  0  0  0  0  0  0  0
    1.7261    5.2111   -0.5104 S   0  0  0  0  0  0  0  0  0  0  0  0
    3.0802    6.3097    1.6463 C   0  0  0  0  0  0  0  0  0  0  0  0
    3.9909    5.4198    2.0844 C   0  0  0  0  0  0  0  0  0  0  0  0
    3.8691    3.9510    2.0002 C   0  0  0  0  0  0  0  0  0  0  0  0
    2.8313    3.3011    1.7099 O   0  0  0  0  0  0  0  0  0  0  0  0
    5.1731    3.3616    2.2327 C   0  0  0  0  0  0  0  0  0  0  0  0
    5.5393    2.0098    2.2229 C   0  0  0  0  0  0  0  0  0  0  0  0
    4.3466    0.7276    2.0685 Cl  0  0  0  0  0  0  0  0  0  0  0  0
    6.8944    1.6839    2.3766 C   0  0  0  0  0  0  0  0  0  0  0  0
    7.8495    2.7020    2.5191 C   0  0  0  0  0  0  0  0  0  0  0  0
    7.4665    4.0547    2.5465 C   0  0  0  0  0  0  0  0  0  0  0  0
    6.0987    4.3733    2.4438 C   0  0  0  0  0  0  0  0  0  0  0  0
    5.3998    5.6971    2.4932 C   0  0  0  0  0  0  0  0  0  0  0  0
    5.8876    6.8505    3.0160 C   0  0  0  0  0  0  0  0  0  0  0  0
    5.0408    7.9735    3.3161 C   0  0  0  0  0  0  0  0  0  0  0  0
    4.3648    8.8768    3.5659 N   0  0  0  0  0  0  0  0  0  0  0  0
    7.2650    7.0082    3.4144 C   0  0  0  0  0  0  0  0  0  0  0  0
    8.3710    7.1468    3.7384 N   0  0  0  0  0  0  0  0  0  0  0  0
    0.7082   -7.4213    2.2274 H   0  0  0  0  0  0  0  0  0  0  0  0
    6.0326   -3.3756    4.8752 H   0  0  0  0  0  0  0  0  0  0  0  0
    4.3720   -1.5757    5.2175 H   0  0  0  0  0  0  0  0  0  0  0  0
    1.9590   -2.0350    4.9704 H   0  0  0  0  0  0  0  0  0  0  0  0
    2.5698   -4.0118   -0.0053 H   0  0  0  0  0  0  0  0  0  0  0  0
    5.0161   -3.9737    0.2851 H   0  0  0  0  0  0  0  0  0  0  0  0
    8.3433   -5.8709   -1.5772 H   0  0  0  0  0  0  0  0  0  0  0  0
    7.2066   -7.2632   -1.6895 H   0  0  0  0  0  0  0  0  0  0  0  0
    6.6046   -5.5702   -1.9182 H   0  0  0  0  0  0  0  0  0  0  0  0
    5.1027   -8.2801    0.2313 H   0  0  0  0  0  0  0  0  0  0  0  0
    2.6636   -8.3291   -0.0663 H   0  0  0  0  0  0  0  0  0  0  0  0
   -1.2546   -7.6432    0.2337 H   0  0  0  0  0  0  0  0  0  0  0  0
   -2.2995   -9.3050   -1.2287 H   0  0  0  0  0  0  0  0  0  0  0  0
   -2.1710   -8.1651   -4.9427 H   0  0  0  0  0  0  0  0  0  0  0  0
   -3.2377   -9.5077   -5.5054 H   0  0  0  0  0  0  0  0  0  0  0  0
   -3.5165   -8.7643   -3.8798 H   0  0  0  0  0  0  0  0  0  0  0  0
    0.7931   -8.7068   -4.1551 H   0  0  0  0  0  0  0  0  0  0  0  0
    1.8539   -7.0268   -2.7008 H   0  0  0  0  0  0  0  0  0  0  0  0
   -1.6571   -0.3145    1.7038 H   0  0  0  0  0  0  0  0  0  0  0  0
   -2.0778    1.0210    3.7216 H   0  0  0  0  0  0  0  0  0  0  0  0
   -4.8062    2.6613    3.6769 H   0  0  0  0  0  0  0  0  0  0  0  0
   -5.5078    3.2567    5.2230 H   0  0  0  0  0  0  0  0  0  0  0  0
   -6.3131    1.9011    4.3364 H   0  0  0  0  0  0  0  0  0  0  0  0
   -5.8656   -0.9451    4.2529 H   0  0  0  0  0  0  0  0  0  0  0  0
   -5.4740   -2.2724    2.2267 H   0  0  0  0  0  0  0  0  0  0  0  0
   -5.4474   -0.5908   -0.2239 H   0  0  0  0  0  0  0  0  0  0  0  0
   -7.2336   -1.2601   -1.7899 H   0  0  0  0  0  0  0  0  0  0  0  0
   -5.9479   -4.1857   -4.7839 H   0  0  0  0  0  0  0  0  0  0  0  0
   -6.2075   -2.3994   -4.5841 H   0  0  0  0  0  0  0  0  0  0  0  0
   -7.3430   -3.3739   -5.5935 H   0  0  0  0  0  0  0  0  0  0  0  0
   -5.5273   -5.1891   -2.0943 H   0  0  0  0  0  0  0  0  0  0  0  0
   -3.7411   -4.5444   -0.5465 H   0  0  0  0  0  0  0  0  0  0  0  0
    2.1620   -1.4274   -5.2494 H   0  0  0  0  0  0  0  0  0  0  0  0
    1.4634   -2.3734   -7.3794 H   0  0  0  0  0  0  0  0  0  0  0  0
   -2.5212   -1.8491   -9.7474 H   0  0  0  0  0  0  0  0  0  0  0  0
   -0.7992   -1.2756   -9.7034 H   0  0  0  0  0  0  0  0  0  0  0  0
   -1.9092   -0.9461   -8.3079 H   0  0  0  0  0  0  0  0  0  0  0  0
   -2.5775   -2.7031   -5.9634 H   0  0  0  0  0  0  0  0  0  0  0  0
   -1.9605   -1.6759   -3.8810 H   0  0  0  0  0  0  0  0  0  0  0  0
    1.9539   -1.5828   -0.9907 H   0  0  0  0  0  0  0  0  0  0  0  0
    4.2427   -0.9315   -0.3715 H   0  0  0  0  0  0  0  0  0  0  0  0
    6.6475   -0.3642   -3.5570 H   0  0  0  0  0  0  0  0  0  0  0  0
    6.8764   -1.3094   -2.0233 H   0  0  0  0  0  0  0  0  0  0  0  0
    8.0951   -0.0777   -2.5216 H   0  0  0  0  0  0  0  0  0  0  0  0
    4.4374    1.6410   -3.8116 H   0  0  0  0  0  0  0  0  0  0  0  0
    2.1616    0.9721   -4.4552 H   0  0  0  0  0  0  0  0  0  0  0  0
   -4.5565    2.8925    1.0790 H   0  0  0  0  0  0  0  0  0  0  0  0
   -6.7830    1.8706    0.7267 H   0  0  0  0  0  0  0  0  0  0  0  0
  -10.3233    2.7822   -1.7894 H   0  0  0  0  0  0  0  0  0  0  0  0
   -9.1044    3.4489   -0.6340 H   0  0  0  0  0  0  0  0  0  0  0  0
   -8.8788    3.6449   -2.4301 H   0  0  0  0  0  0  0  0  0  0  0  0
   -6.4083    2.5212   -3.5166 H   0  0  0  0  0  0  0  0  0  0  0  0
   -4.1839    3.5220   -3.1638 H   0  0  0  0  0  0  0  0  0  0  0  0
   -4.0209    5.4442    1.0532 H   0  0  0  0  0  0  0  0  0  0  0  0
   -3.9460    7.9031    1.1632 H   0  0  0  0  0  0  0  0  0  0  0  0
   -4.6516   11.0751   -1.3720 H   0  0  0  0  0  0  0  0  0  0  0  0
   -3.5392   10.5949   -2.7035 H   0  0  0  0  0  0  0  0  0  0  0  0
   -4.6572    9.3652   -1.9566 H   0  0  0  0  0  0  0  0  0  0  0  0
   -1.6732    8.0020   -2.4907 H   0  0  0  0  0  0  0  0  0  0  0  0
   -1.8231    5.5532   -2.6576 H   0  0  0  0  0  0  0  0  0  0  0  0
   -1.2596    4.6207    1.3071 H   0  0  0  0  0  0  0  0  0  0  0  0
    1.3082    4.0267    3.5192 H   0  0  0  0  0  0  0  0  0  0  0  0
   -0.1270    4.1902    4.5776 H   0  0  0  0  0  0  0  0  0  0  0  0
    1.1496    5.6634    6.1273 H   0  0  0  0  0  0  0  0  0  0  0  0
    2.5740    5.6351    5.0073 H   0  0  0  0  0  0  0  0  0  0  0  0
    2.0578    4.1245    5.8418 H   0  0  0  0  0  0  0  0  0  0  0  0
    3.3020    7.3556    1.6044 H   0  0  0  0  0  0  0  0  0  0  0  0
    7.2051    0.6478    2.3763 H   0  0  0  0  0  0  0  0  0  0  0  0
    8.8928    2.4449    2.6110 H   0  0  0  0  0  0  0  0  0  0  0  0
    8.2309    4.8030    2.6255 H   0  0  0  0  0  0  0  0  0  0  0  0
  1  2  2  3
  2  3  1  0
  3  4  2  0
  3  5  1  0
  5  6  2  0
  6  7  1  0
  6  8  1  0
  8  9  2  0
  9 10  1  0
 10 11  2  0
 11 12  1  0
 12 13  2  3
 13 14  1  0
 14 15  3  0
 13 16  1  0
 16 17  3  0
  1 18  1  0
 18 19  2  0
 19 20  1  0
 20 21  1  0
 21 22  2  0
 22 23  1  0
 23 24  2  0
 24 25  1  0
 25 26  1  0
 24 27  1  0
 27 28  2  0
 20 29  1  0
 29 30  2  0
 30 31  1  0
 31 32  2  0
 32 33  1  0
 33 34  1  0
 32 35  1  0
 35 36  2  0
 19 37  1  0
 37 38  1  0
 38 39  1  0
 39 40  2  0
 40 41  1  0
 41 42  1  0
 42 43  2  0
 43 44  1  0
 44 45  2  0
 45 46  1  0
 46 47  1  0
 45 48  1  0
 48 49  2  0
 41 50  1  0
 50 51  2  0
 51 52  1  0
 52 53  2  0
 53 54  1  0
 54 55  1  0
 53 56  1  0
 56 57  2  0
 40 58  1  0
 58 59  1  0
 39 60  1  0
 60 61  2  0
 61 62  1  0
 62 63  1  0
 63 64  2  0
 64 65  1  0
 65 66  2  0
 66 67  1  0
 67 68  1  0
 66 69  1  0
 69 70  2  0
 62 71  1  0
 71 72  2  0
 72 73  1  0
 73 74  2  0
 74 75  1  0
 75 76  1  0
 74 77  1  0
 77 78  2  0
 61 79  1  0
 79 80  1  0
 80 81  1  0
 81 82  2  0
 82 83  1  0
 83 84  1  0
 84 85  2  0
 85 86  1  0
 86 87  2  0
 87 88  1  0
 88 89  1  0
 87 90  1  0
 90 91  2  0
 83 92  1  0
 92 93  2  0
 93 94  1  0
 94 95  2  0
 95 96  1  0
 96 97  1  0
 95 98  1  0
 98 99  2  0
 82100  1  0
100101  1  0
 81102  1  0
102103  2  0
103104  1  0
104105  1  0
105106  1  0
106107  1  0
104108  2  0
108109  1  0
108110  1  0
110111  2  3
111112  1  0
112113  2  0
112114  1  0
114115  2  0
115116  1  0
115117  1  0
117118  2  0
118119  1  0
119120  2  0
120121  1  0
121122  2  3
122123  1  0
123124  3  0
122125  1  0
125126  3  0
 12  2  1  0
 59 18  1  0
101 60  1  0
109102  1  0
121111  1  0
 11  5  1  0
 28 21  1  0
 36 29  1  0
 58 37  2  0
 70 63  1  0
 78 71  1  0
100 79  2  0
120114  1  0
 49 42  1  0
 57 50  1  0
 91 84  1  0
 99 92  1  0
  1127  1  0
  8128  1  0
  9129  1  0
 10130  1  0
 22131  1  0
 23132  1  0
 26133  1  0
 26134  1  0
 26135  1  0
 27136  1  0
 28137  1  0
 30138  1  0
 31139  1  0
 34140  1  0
 34141  1  0
 34142  1  0
 35143  1  0
 36144  1  0
 43145  1  0
 44146  1  0
 47147  1  0
 47148  1  0
 47149  1  0
 48150  1  0
 49151  1  0
 51152  1  0
 52153  1  0
 55154  1  0
 55155  1  0
 55156  1  0
 56157  1  0
 57158  1  0
 64159  1  0
 65160  1  0
 68161  1  0
 68162  1  0
 68163  1  0
 69164  1  0
 70165  1  0
 72166  1  0
 73167  1  0
 76168  1  0
 76169  1  0
 76170  1  0
 77171  1  0
 78172  1  0
 85173  1  0
 86174  1  0
 89175  1  0
 89176  1  0
 89177  1  0
 90178  1  0
 91179  1  0
 93180  1  0
 94181  1  0
 97182  1  0
 97183  1  0
 97184  1  0
 98185  1  0
 99186  1  0
103187  1  0
106188  1  0
106189  1  0
107190  1  0
107191  1  0
107192  1  0
110193  1  0
117194  1  0
118195  1  0
119196  1  0
M  END

