
     RDKit          3D

163180  0  0  0  0  0  0  0  0999 V2000
    5.4480    5.3922    0.9412 C   0  0  0  0  0  0  0  0  0  0  0  0
    4.5022    5.6600    1.8715 C   0  0  0  0  0  0  0  0  0  0  0  0
    3.2813    4.8658    2.1002 C   0  0  0  0  0  0  0  0  0  0  0  0
    2.9343    3.8243    1.4741 O   0  0  0  0  0  0  0  0  0  0  0  0
    2.4509    5.5346    3.0744 C   0  0  0  0  0  0  0  0  0  0  0  0
    1.2243    5.1208    3.6066 C   0  0  0  0  0  0  0  0  0  0  0  0
    0.5504    3.5326    3.2653 Cl  0  0  0  0  0  0  0  0  0  0  0  0
    0.5526    5.9788    4.4789 C   0  0  0  0  0  0  0  0  0  0  0  0
    1.1043    7.2304    4.7987 C   0  0  0  0  0  0  0  0  0  0  0  0
    2.3465    7.6242    4.2754 C   0  0  0  0  0  0  0  0  0  0  0  0
    3.0415    6.7397    3.4260 C   0  0  0  0  0  0  0  0  0  0  0  0
    4.3811    6.8655    2.7613 C   0  0  0  0  0  0  0  0  0  0  0  0
    5.3451    7.7857    3.0494 C   0  0  0  0  0  0  0  0  0  0  0  0
    6.6651    7.7455    2.4758 C   0  0  0  0  0  0  0  0  0  0  0  0
    7.7283    7.7277    2.0195 N   0  0  0  0  0  0  0  0  0  0  0  0
    5.1617    8.8322    4.0177 C   0  0  0  0  0  0  0  0  0  0  0  0
    5.0202    9.6861    4.7880 N   0  0  0  0  0  0  0  0  0  0  0  0
    5.4106    4.1868    0.0880 C   0  0  0  0  0  0  0  0  0  0  0  0
    5.1248    4.3153   -1.2748 C   0  0  0  0  0  0  0  0  0  0  0  0
    4.6483    3.2135   -2.0322 C   0  0  0  0  0  0  0  0  0  0  0  0
    4.2459    3.5441   -3.3674 N   0  0  0  0  0  0  0  0  0  0  0  0
    4.5247    5.1168   -3.3800 S   0  0  0  0  0  4  0  0  0  0  0  0
    5.1000    5.5710   -1.9652 N   0  0  0  0  0  0  0  0  0  0  0  0
    4.4242    1.9563   -1.4392 C   0  0  0  0  0  0  0  0  0  0  0  0
    4.8627    1.7912   -0.1032 C   0  0  0  0  0  0  0  0  0  0  0  0
    4.6647    0.6508    0.6001 N   0  0  0  0  0  0  0  0  0  0  0  0
    5.2392    1.0831    2.0848 S   0  0  0  0  0  0  0  0  0  0  0  0
    5.6899    2.6639    1.9484 N   0  0  0  0  0  0  0  0  0  0  0  0
    5.3929    2.8959    0.6427 C   0  0  0  0  0  0  0  0  0  0  0  0
    3.3679    1.0862   -2.0030 C   0  0  0  0  0  0  0  0  0  0  0  0
    3.2707   -0.3248   -1.9739 C   0  0  0  0  0  0  0  0  0  0  0  0
    4.3843   -1.2228   -2.1140 N   0  0  0  0  0  0  0  0  0  0  0  0
    5.0575   -1.7539   -0.9583 C   0  0  0  0  0  0  0  0  0  0  0  0
    6.4579   -1.8373   -0.9485 C   0  0  0  0  0  0  0  0  0  0  0  0
    7.1217   -2.3993    0.1412 C   0  0  0  0  0  0  0  0  0  0  0  0
    6.3966   -2.9054    1.2239 C   0  0  0  0  0  0  0  0  0  0  0  0
    7.2533   -3.6546    2.6063 S   0  0  0  0  0  0  0  0  0  0  0  0
    7.2424   -5.3156    1.8570 C   0  0  0  0  0  0  0  0  0  0  0  0
    4.9961   -2.8283    1.2207 C   0  0  0  0  0  0  0  0  0  0  0  0
    4.3277   -2.2549    0.1336 C   0  0  0  0  0  0  0  0  0  0  0  0
    4.5829   -1.8492   -3.3994 C   0  0  0  0  0  0  0  0  0  0  0  0
    4.4799   -1.0930   -4.5782 C   0  0  0  0  0  0  0  0  0  0  0  0
    4.5720   -1.7122   -5.8266 C   0  0  0  0  0  0  0  0  0  0  0  0
    4.7624   -3.0941   -5.9167 C   0  0  0  0  0  0  0  0  0  0  0  0
    4.8467   -3.8867   -7.5193 S   0  0  0  0  0  0  0  0  0  0  0  0
    3.0543   -4.1860   -7.6038 C   0  0  0  0  0  0  0  0  0  0  0  0
    4.8885   -3.8543   -4.7505 C   0  0  0  0  0  0  0  0  0  0  0  0
    4.7978   -3.2369   -3.4970 C   0  0  0  0  0  0  0  0  0  0  0  0
    1.9555   -0.7353   -2.2105 C   0  0  0  0  0  0  0  0  0  0  0  0
    1.1647   -2.1936   -2.0326 S   0  0  0  0  0  0  0  0  0  0  0  0
   -0.4035   -1.5409   -2.2233 C   0  0  0  0  0  0  0  0  0  0  0  0
   -0.2908   -0.1524   -2.4797 C   0  0  0  0  0  0  0  0  0  0  0  0
   -1.3915    0.7580   -2.7087 N   0  0  0  0  0  0  0  0  0  0  0  0
   -1.3351    2.0789   -2.1349 C   0  0  0  0  0  0  0  0  0  0  0  0
   -1.3438    3.2175   -2.9590 C   0  0  0  0  0  0  0  0  0  0  0  0
   -1.1883    4.4944   -2.4057 C   0  0  0  0  0  0  0  0  0  0  0  0
   -1.0262    4.6455   -1.0273 C   0  0  0  0  0  0  0  0  0  0  0  0
   -0.7843    6.2710   -0.3221 S   0  0  0  0  0  0  0  0  0  0  0  0
    1.0204    6.2565   -0.5772 C   0  0  0  0  0  0  0  0  0  0  0  0
   -1.0329    3.5169   -0.2010 C   0  0  0  0  0  0  0  0  0  0  0  0
   -1.1801    2.2386   -0.7497 C   0  0  0  0  0  0  0  0  0  0  0  0
   -2.3733    0.4904   -3.7379 C   0  0  0  0  0  0  0  0  0  0  0  0
   -3.6748    1.0224   -3.6288 C   0  0  0  0  0  0  0  0  0  0  0  0
   -4.6223    0.7874   -4.6276 C   0  0  0  0  0  0  0  0  0  0  0  0
   -4.2876    0.0288   -5.7512 C   0  0  0  0  0  0  0  0  0  0  0  0
   -5.5097   -0.2675   -7.0297 S   0  0  0  0  0  0  0  0  0  0  0  0
   -5.0961    1.2480   -7.9481 C   0  0  0  0  0  0  0  0  0  0  0  0
   -3.0008   -0.5098   -5.8690 C   0  0  0  0  0  0  0  0  0  0  0  0
   -2.0478   -0.2812   -4.8701 C   0  0  0  0  0  0  0  0  0  0  0  0
    1.0481    0.2466   -2.4277 C   0  0  0  0  0  0  0  0  0  0  0  0
    1.8212    1.7250   -2.3336 S   0  0  0  0  0  0  0  0  0  0  0  0
   -1.5626   -2.1781   -1.5807 C   0  0  0  0  0  0  0  0  0  0  0  0
   -1.4928   -2.7869   -0.3245 C   0  0  0  0  0  0  0  0  0  0  0  0
   -2.7493   -2.9879    0.2726 C   0  0  0  0  0  0  0  0  0  0  0  0
   -2.9909   -3.4576    1.5814 C   0  0  0  0  0  0  0  0  0  0  0  0
   -1.9119   -3.9349    2.4731 C   0  0  0  0  0  0  0  0  0  0  0  0
   -1.8699   -5.1854    3.0816 C   0  0  0  0  0  0  0  0  0  0  0  0
   -0.7343   -5.3844    3.8738 C   0  0  0  0  0  0  0  0  0  0  0  0
   -0.4377   -6.8791    4.7443 Cl  0  0  0  0  0  0  0  0  0  0  0  0
    0.1405   -4.2993    3.8702 C   0  0  0  0  0  0  0  0  0  0  0  0
    1.4405   -4.1931    4.6095 C   0  0  0  0  0  0  0  0  0  0  0  0
    1.2283   -3.5639    5.9760 C   0  0  0  0  0  0  0  0  0  0  0  0
   -0.5277   -3.0812    2.9176 S   0  0  0  0  0  0  0  0  0  0  0  0
   -4.3314   -3.4567    2.0116 C   0  0  0  0  0  0  0  0  0  0  0  0
   -5.3977   -3.0985    1.1772 C   0  0  0  0  0  0  0  0  0  0  0  0
   -5.1518   -2.6557   -0.1369 C   0  0  0  0  0  0  0  0  0  0  0  0
   -6.2330   -2.2188   -1.0349 C   0  0  0  0  0  0  0  0  0  0  0  0
   -6.3058   -0.9869   -1.6827 C   0  0  0  0  0  0  0  0  0  0  0  0
   -7.3494   -0.9114   -2.6087 C   0  0  0  0  0  0  0  0  0  0  0  0
   -8.0992   -2.0811   -2.6899 C   0  0  0  0  0  0  0  0  0  0  0  0
   -9.2105   -2.3396   -3.6600 C   0  0  0  0  0  0  0  0  0  0  0  0
  -10.5382   -2.5433   -2.9428 C   0  0  0  0  0  0  0  0  0  0  0  0
   -7.4515   -3.2158   -1.6304 S   0  0  0  0  0  0  0  0  0  0  0  0
   -3.8078   -2.5878   -0.5443 C   0  0  0  0  0  0  0  0  0  0  0  0
   -3.1857   -1.9659   -1.9775 S   0  0  0  0  0  0  0  0  0  0  0  0
   -6.6342   -3.0965    1.8433 C   0  0  0  0  0  0  0  0  0  0  0  0
   -6.5058   -3.3451    3.2063 C   0  0  0  0  0  0  0  0  0  0  0  0
   -4.9012   -3.6855    3.5796 S   0  0  0  0  0  0  0  0  0  0  0  0
   -7.5727   -3.2348    4.2053 C   0  0  0  0  0  0  0  0  0  0  0  0
   -7.5928   -2.2551    5.1327 C   0  0  0  0  0  0  0  0  0  0  0  0
   -8.1761   -2.4325    6.4703 C   0  0  0  0  0  0  0  0  0  0  0  0
   -8.9836   -3.3315    6.8282 O   0  0  0  0  0  0  0  0  0  0  0  0
   -7.5897   -1.4325    7.3276 C   0  0  0  0  0  0  0  0  0  0  0  0
   -7.7860   -1.0834    8.6514 C   0  0  0  0  0  0  0  0  0  0  0  0
   -6.8551    0.3037    8.8858 S   0  0  0  0  0  0  0  0  0  0  0  0
   -6.2138    0.4407    7.3209 C   0  0  0  0  0  0  0  0  0  0  0  0
   -6.7357   -0.6309    6.6078 C   0  0  0  0  0  0  0  0  0  0  0  0
   -6.7497   -1.0161    5.1815 C   0  0  0  0  0  0  0  0  0  0  0  0
   -6.4608   -0.1835    4.1565 C   0  0  0  0  0  0  0  0  0  0  0  0
   -5.5769    0.9430    4.3184 C   0  0  0  0  0  0  0  0  0  0  0  0
   -4.8723    1.8536    4.4357 N   0  0  0  0  0  0  0  0  0  0  0  0
   -7.1917   -0.2430    2.9193 C   0  0  0  0  0  0  0  0  0  0  0  0
   -7.8029   -0.2654    1.9418 N   0  0  0  0  0  0  0  0  0  0  0  0
    6.1923    6.1203    0.6806 H   0  0  0  0  0  0  0  0  0  0  0  0
   -0.3953    5.6813    4.9132 H   0  0  0  0  0  0  0  0  0  0  0  0
    0.5653    7.8993    5.4620 H   0  0  0  0  0  0  0  0  0  0  0  0
    2.7151    8.5964    4.5308 H   0  0  0  0  0  0  0  0  0  0  0  0
    7.0324   -1.4633   -1.7864 H   0  0  0  0  0  0  0  0  0  0  0  0
    8.2032   -2.4560    0.1332 H   0  0  0  0  0  0  0  0  0  0  0  0
    6.2003   -5.6287    1.6345 H   0  0  0  0  0  0  0  0  0  0  0  0
    7.6922   -6.0357    2.5679 H   0  0  0  0  0  0  0  0  0  0  0  0
    7.8490   -5.3136    0.9283 H   0  0  0  0  0  0  0  0  0  0  0  0
    4.4291   -3.2138    2.0591 H   0  0  0  0  0  0  0  0  0  0  0  0
    3.2460   -2.2012    0.1520 H   0  0  0  0  0  0  0  0  0  0  0  0
    4.3130   -0.0220   -4.5315 H   0  0  0  0  0  0  0  0  0  0  0  0
    4.4803   -1.1128   -6.7250 H   0  0  0  0  0  0  0  0  0  0  0  0
    2.8090   -4.6479   -8.5803 H   0  0  0  0  0  0  0  0  0  0  0  0
    2.4992   -3.2239   -7.5177 H   0  0  0  0  0  0  0  0  0  0  0  0
    2.7417   -4.8760   -6.7879 H   0  0  0  0  0  0  0  0  0  0  0  0
    5.0356   -4.9257   -4.8111 H   0  0  0  0  0  0  0  0  0  0  0  0
    4.8573   -3.8560   -2.6083 H   0  0  0  0  0  0  0  0  0  0  0  0
   -1.4591    3.1162   -4.0347 H   0  0  0  0  0  0  0  0  0  0  0  0
   -1.1732    5.3609   -3.0550 H   0  0  0  0  0  0  0  0  0  0  0  0
    1.4528    5.2731   -0.3036 H   0  0  0  0  0  0  0  0  0  0  0  0
    1.4818    7.0406    0.0610 H   0  0  0  0  0  0  0  0  0  0  0  0
    1.2464    6.4863   -1.6393 H   0  0  0  0  0  0  0  0  0  0  0  0
   -0.8940    3.6268    0.8662 H   0  0  0  0  0  0  0  0  0  0  0  0
   -1.1645    1.3750   -0.1009 H   0  0  0  0  0  0  0  0  0  0  0  0
   -3.9570    1.6134   -2.7674 H   0  0  0  0  0  0  0  0  0  0  0  0
   -5.6152    1.2111   -4.5289 H   0  0  0  0  0  0  0  0  0  0  0  0
   -4.0533    1.1931   -8.3257 H   0  0  0  0  0  0  0  0  0  0  0  0
   -5.2125    2.1354   -7.2930 H   0  0  0  0  0  0  0  0  0  0  0  0
   -5.7843    1.3503   -8.8124 H   0  0  0  0  0  0  0  0  0  0  0  0
   -2.7328   -1.1007   -6.7363 H   0  0  0  0  0  0  0  0  0  0  0  0
   -1.0596   -0.6949   -4.9898 H   0  0  0  0  0  0  0  0  0  0  0  0
   -0.5534   -2.9881    0.1670 H   0  0  0  0  0  0  0  0  0  0  0  0
   -2.6393   -5.9367    2.9525 H   0  0  0  0  0  0  0  0  0  0  0  0
    2.1553   -3.5829    4.0130 H   0  0  0  0  0  0  0  0  0  0  0  0
    1.8852   -5.2055    4.7288 H   0  0  0  0  0  0  0  0  0  0  0  0
    0.8347   -2.5269    5.8669 H   0  0  0  0  0  0  0  0  0  0  0  0
    0.5142   -4.1669    6.5764 H   0  0  0  0  0  0  0  0  0  0  0  0
    2.1955   -3.5147    6.5221 H   0  0  0  0  0  0  0  0  0  0  0  0
   -5.6041   -0.1836   -1.5132 H   0  0  0  0  0  0  0  0  0  0  0  0
   -7.5289   -0.0420   -3.2274 H   0  0  0  0  0  0  0  0  0  0  0  0
   -8.9651   -3.2479   -4.2537 H   0  0  0  0  0  0  0  0  0  0  0  0
   -9.3131   -1.4817   -4.3594 H   0  0  0  0  0  0  0  0  0  0  0  0
  -10.4725   -3.4096   -2.2519 H   0  0  0  0  0  0  0  0  0  0  0  0
  -10.8070   -1.6308   -2.3681 H   0  0  0  0  0  0  0  0  0  0  0  0
  -11.3261   -2.7475   -3.6947 H   0  0  0  0  0  0  0  0  0  0  0  0
   -7.5766   -2.8247    1.3805 H   0  0  0  0  0  0  0  0  0  0  0  0
   -8.1878   -4.1161    4.3602 H   0  0  0  0  0  0  0  0  0  0  0  0
   -8.4348   -1.5734    9.3687 H   0  0  0  0  0  0  0  0  0  0  0  0
   -5.5701    1.2267    6.9618 H   0  0  0  0  0  0  0  0  0  0  0  0
  1  2  2  3
  2  3  1  0
  3  4  2  0
  3  5  1  0
  5  6  2  0
  6  7  1  0
  6  8  1  0
  8  9  2  0
  9 10  1  0
 10 11  2  0
 11 12  1  0
 12 13  2  3
 13 14  1  0
 14 15  3  0
 13 16  1  0
 16 17  3  0
  1 18  1  0
 18 19  2  0
 19 20  1  0
 20 21  1  0
 21 22  2  0
 22 23  2  0
 20 24  2  0
 24 25  1  0
 25 26  2  0
 26 27  1  0
 27 28  1  0
 28 29  2  0
 24 30  1  0
 30 31  2  0
 31 32  1  0
 32 33  1  0
 33 34  2  0
 34 35  1  0
 35 36  2  0
 36 37  1  0
 37 38  1  0
 36 39  1  0
 39 40  2  0
 32 41  1  0
 41 42  2  0
 42 43  1  0
 43 44  2  0
 44 45  1  0
 45 46  1  0
 44 47  1  0
 47 48  2  0
 31 49  1  0
 49 50  1  0
 50 51  1  0
 51 52  2  0
 52 53  1  0
 53 54  1  0
 54 55  2  0
 55 56  1  0
 56 57  2  0
 57 58  1  0
 58 59  1  0
 57 60  1  0
 60 61  2  0
 53 62  1  0
 62 63  2  0
 63 64  1  0
 64 65  2  0
 65 66  1  0
 66 67  1  0
 65 68  1  0
 68 69  2  0
 52 70  1  0
 70 71  1  0
 51 72  1  0
 72 73  2  0
 73 74  1  0
 74 75  2  0
 75 76  1  0
 76 77  2  0
 77 78  1  0
 78 79  1  0
 78 80  2  0
 80 81  1  0
 81 82  1  0
 80 83  1  0
 75 84  1  0
 84 85  2  0
 85 86  1  0
 86 87  1  0
 87 88  2  0
 88 89  1  0
 89 90  2  0
 90 91  1  0
 91 92  1  0
 90 93  1  0
 86 94  2  0
 94 95  1  0
 85 96  1  0
 96 97  2  0
 97 98  1  0
 97 99  1  0
 99100  2  3
100101  1  0
101102  2  0
101103  1  0
103104  2  0
104105  1  0
105106  1  0
106107  2  0
107108  1  0
108109  2  3
109110  1  0
110111  3  0
109112  1  0
112113  3  0
 12  2  1  0
 29 18  1  0
 71 30  1  0
 95 72  1  0
108100  1  0
 11  5  1  0
 23 19  1  0
 29 25  1  0
 40 33  1  0
 48 41  1  0
 70 49  2  0
 94 74  1  0
107103  1  0
 61 54  1  0
 69 62  1  0
 83 76  1  0
 98 84  1  0
 93 87  1  0
  1114  1  0
  8115  1  0
  9116  1  0
 10117  1  0
 34118  1  0
 35119  1  0
 38120  1  0
 38121  1  0
 38122  1  0
 39123  1  0
 40124  1  0
 42125  1  0
 43126  1  0
 46127  1  0
 46128  1  0
 46129  1  0
 47130  1  0
 48131  1  0
 55132  1  0
 56133  1  0
 59134  1  0
 59135  1  0
 59136  1  0
 60137  1  0
 61138  1  0
 63139  1  0
 64140  1  0
 67141  1  0
 67142  1  0
 67143  1  0
 68144  1  0
 69145  1  0
 73146  1  0
 77147  1  0
 81148  1  0
 81149  1  0
 82150  1  0
 82151  1  0
 82152  1  0
 88153  1  0
 89154  1  0
 91155  1  0
 91156  1  0
 92157  1  0
 92158  1  0
 92159  1  0
 96160  1  0
 99161  1  0
104162  1  0
106163  1  0
M  END

