
     RDKit          3D

168183  0  0  0  0  0  0  0  0999 V2000
   -0.6656    5.6629   -4.7361 C   0  0  0  0  0  0  0  0  0  0  0  0
   -0.6126    6.9948   -4.5413 C   0  0  0  0  0  0  0  0  0  0  0  0
   -1.2603    7.9524   -5.4414 C   0  0  0  0  0  0  0  0  0  0  0  0
   -1.5511    7.7457   -6.6531 O   0  0  0  0  0  0  0  0  0  0  0  0
   -1.6688    9.1114   -4.6532 C   0  0  0  0  0  0  0  0  0  0  0  0
   -2.4658   10.2067   -5.0222 C   0  0  0  0  0  0  0  0  0  0  0  0
   -3.0296   10.4413   -6.6714 Cl  0  0  0  0  0  0  0  0  0  0  0  0
   -2.8193   11.1388   -4.0311 C   0  0  0  0  0  0  0  0  0  0  0  0
   -2.4108   10.9531   -2.6999 C   0  0  0  0  0  0  0  0  0  0  0  0
   -1.6283    9.8384   -2.3435 C   0  0  0  0  0  0  0  0  0  0  0  0
   -1.2382    8.9369   -3.3450 C   0  0  0  0  0  0  0  0  0  0  0  0
   -0.4335    7.6983   -3.2441 C   0  0  0  0  0  0  0  0  0  0  0  0
    0.5877    7.4813   -2.3787 C   0  0  0  0  0  0  0  0  0  0  0  0
    1.6572    6.5713   -2.7037 C   0  0  0  0  0  0  0  0  0  0  0  0
    2.5337    5.8567   -2.9673 N   0  0  0  0  0  0  0  0  0  0  0  0
    0.8021    8.2946   -1.2076 C   0  0  0  0  0  0  0  0  0  0  0  0
    0.9746    8.9427   -0.2642 N   0  0  0  0  0  0  0  0  0  0  0  0
   -0.7977    4.7241   -3.6081 C   0  0  0  0  0  0  0  0  0  0  0  0
    0.3382    3.5601   -3.1710 S   0  0  0  0  0  0  0  0  0  0  0  0
   -0.4730    2.9945   -1.8031 C   0  0  0  0  0  0  0  0  0  0  0  0
   -1.6738    3.7032   -1.6818 C   0  0  0  0  0  0  0  0  0  0  0  0
   -2.6600    3.5720   -0.5896 C   0  0  0  0  0  0  0  0  0  0  0  0
   -2.3496    3.0083    0.4899 O   0  0  0  0  0  0  0  0  0  0  0  0
   -3.9873    4.1977   -0.7666 C   0  0  0  0  0  0  0  0  0  0  0  0
   -5.1210    3.9820    0.0298 C   0  0  0  0  0  0  0  0  0  0  0  0
   -5.2643    3.0823    1.2190 C   0  0  0  0  0  0  0  0  0  0  0  0
   -4.9167    3.8237    2.5038 C   0  0  0  0  0  0  0  0  0  0  0  0
   -6.3833    4.9003   -0.5957 S   0  0  0  0  0  0  0  0  0  0  0  0
   -5.5367    5.5710   -1.8814 C   0  0  0  0  0  0  0  0  0  0  0  0
   -6.1879    6.4201   -2.9359 C   0  0  0  0  0  0  0  0  0  0  0  0
   -6.6216    5.5648   -4.1241 C   0  0  0  0  0  0  0  0  0  0  0  0
   -4.2249    5.0732   -1.8480 C   0  0  0  0  0  0  0  0  0  0  0  0
   -3.1617    5.3543   -2.8396 C   0  0  0  0  0  0  0  0  0  0  0  0
   -3.3630    6.1477   -3.7926 O   0  0  0  0  0  0  0  0  0  0  0  0
   -1.8764    4.6350   -2.7177 C   0  0  0  0  0  0  0  0  0  0  0  0
    0.0382    1.9081   -0.9538 C   0  0  0  0  0  0  0  0  0  0  0  0
   -0.6060    0.6929   -0.6685 C   0  0  0  0  0  0  0  0  0  0  0  0
   -1.9531    0.3409   -1.0375 N   0  0  0  0  0  0  0  0  0  0  0  0
   -2.2388    0.2144   -2.4400 C   0  0  0  0  0  0  0  0  0  0  0  0
   -3.2650    0.9682   -3.0319 C   0  0  0  0  0  0  0  0  0  0  0  0
   -3.5290    0.8438   -4.3995 C   0  0  0  0  0  0  0  0  0  0  0  0
   -2.7781   -0.0452   -5.1800 C   0  0  0  0  0  0  0  0  0  0  0  0
   -3.1088   -0.2089   -6.9332 S   0  0  0  0  0  0  0  0  0  0  0  0
   -1.9088    1.0762   -7.4038 C   0  0  0  0  0  0  0  0  0  0  0  0
   -1.7658   -0.8093   -4.5884 C   0  0  0  0  0  0  0  0  0  0  0  0
   -1.4958   -0.6786   -3.2239 C   0  0  0  0  0  0  0  0  0  0  0  0
   -2.9132   -0.0824   -0.0249 C   0  0  0  0  0  0  0  0  0  0  0  0
   -2.6880    0.1898    1.3404 C   0  0  0  0  0  0  0  0  0  0  0  0
   -3.6105   -0.1933    2.3161 C   0  0  0  0  0  0  0  0  0  0  0  0
   -4.7785   -0.8675    1.9489 C   0  0  0  0  0  0  0  0  0  0  0  0
   -5.9852   -1.3046    3.2043 S   0  0  0  0  0  0  0  0  0  0  0  0
   -5.2859   -2.9605    3.4860 C   0  0  0  0  0  0  0  0  0  0  0  0
   -5.0135   -1.1633    0.6011 C   0  0  0  0  0  0  0  0  0  0  0  0
   -4.0877   -0.7781   -0.3747 C   0  0  0  0  0  0  0  0  0  0  0  0
    0.2418   -0.1733    0.0097 C   0  0  0  0  0  0  0  0  0  0  0  0
    0.1002   -1.7503    0.5408 S   0  0  0  0  0  0  0  0  0  0  0  0
    1.6538   -1.7832    1.2262 C   0  0  0  0  0  0  0  0  0  0  0  0
    2.2880   -0.5470    1.0344 C   0  0  0  0  0  0  0  0  0  0  0  0
    3.4714   -0.1296    1.7355 N   0  0  0  0  0  0  0  0  0  0  0  0
    4.7250   -0.7404    1.3905 C   0  0  0  0  0  0  0  0  0  0  0  0
    5.3183   -0.4750    0.1457 C   0  0  0  0  0  0  0  0  0  0  0  0
    6.5298   -1.0860   -0.2000 C   0  0  0  0  0  0  0  0  0  0  0  0
    7.1433   -1.9771    0.6890 C   0  0  0  0  0  0  0  0  0  0  0  0
    8.6550   -2.8218    0.2205 S   0  0  0  0  0  0  0  0  0  0  0  0
    9.7489   -1.5600    0.9426 C   0  0  0  0  0  0  0  0  0  0  0  0
    6.5537   -2.2419    1.9312 C   0  0  0  0  0  0  0  0  0  0  0  0
    5.3541   -1.6163    2.2849 C   0  0  0  0  0  0  0  0  0  0  0  0
    3.3773    0.8589    2.7852 C   0  0  0  0  0  0  0  0  0  0  0  0
    4.4583    1.7233    3.0549 C   0  0  0  0  0  0  0  0  0  0  0  0
    4.3327    2.7349    4.0165 C   0  0  0  0  0  0  0  0  0  0  0  0
    3.1347    2.8969    4.7153 C   0  0  0  0  0  0  0  0  0  0  0  0
    2.9698    4.2212    5.9084 S   0  0  0  0  0  0  0  0  0  0  0  0
    2.1576    5.3569    4.7349 C   0  0  0  0  0  0  0  0  0  0  0  0
    2.0733    2.0110    4.4895 C   0  0  0  0  0  0  0  0  0  0  0  0
    2.1892    1.0020    3.5287 C   0  0  0  0  0  0  0  0  0  0  0  0
    1.4604    0.3216    0.3207 C   0  0  0  0  0  0  0  0  0  0  0  0
    1.6100    1.8804   -0.2876 S   0  0  0  0  0  0  0  0  0  0  0  0
    2.1487   -2.9435    1.9671 C   0  0  0  0  0  0  0  0  0  0  0  0
    1.3230   -3.4759    3.3312 S   0  0  0  0  0  0  0  0  0  0  0  0
    1.6314   -5.1180    3.1625 C   0  0  0  0  0  0  0  0  0  0  0  0
    2.4067   -5.2858    2.0151 C   0  0  0  0  0  0  0  0  0  0  0  0
    2.7345   -6.5885    1.3984 C   0  0  0  0  0  0  0  0  0  0  0  0
    2.5165   -7.6624    2.0253 O   0  0  0  0  0  0  0  0  0  0  0  0
    3.3053   -6.6032    0.0309 C   0  0  0  0  0  0  0  0  0  0  0  0
    3.6060   -7.7430   -0.7272 C   0  0  0  0  0  0  0  0  0  0  0  0
    3.3911   -9.1875   -0.3620 C   0  0  0  0  0  0  0  0  0  0  0  0
    1.9256   -9.5827   -0.5600 C   0  0  0  0  0  0  0  0  0  0  0  0
    4.2041   -7.2393   -2.2130 S   0  0  0  0  0  0  0  0  0  0  0  0
    4.0949   -5.5884   -1.9325 C   0  0  0  0  0  0  0  0  0  0  0  0
    4.5688   -4.5472   -2.9070 C   0  0  0  0  0  0  0  0  0  0  0  0
    5.9757   -4.0870   -2.5637 C   0  0  0  0  0  0  0  0  0  0  0  0
    3.5858   -5.3962   -0.6407 C   0  0  0  0  0  0  0  0  0  0  0  0
    3.3058   -4.0895    0.0018 C   0  0  0  0  0  0  0  0  0  0  0  0
    3.5862   -3.0076   -0.5784 O   0  0  0  0  0  0  0  0  0  0  0  0
    2.6839   -4.0781    1.3451 C   0  0  0  0  0  0  0  0  0  0  0  0
    0.7084   -6.1282    3.7070 C   0  0  0  0  0  0  0  0  0  0  0  0
   -0.4726   -6.4204    3.1137 C   0  0  0  0  0  0  0  0  0  0  0  0
   -1.0255   -5.7248    1.9409 C   0  0  0  0  0  0  0  0  0  0  0  0
   -0.3886   -5.0027    1.1321 O   0  0  0  0  0  0  0  0  0  0  0  0
   -2.4433   -6.0066    1.8637 C   0  0  0  0  0  0  0  0  0  0  0  0
   -3.3912   -5.4812    0.9712 C   0  0  0  0  0  0  0  0  0  0  0  0
   -2.9688   -4.3005   -0.2612 Cl  0  0  0  0  0  0  0  0  0  0  0  0
   -4.7197   -5.9089    1.0868 C   0  0  0  0  0  0  0  0  0  0  0  0
   -5.0836   -6.8177    2.0947 C   0  0  0  0  0  0  0  0  0  0  0  0
   -4.1249   -7.3092    2.9935 C   0  0  0  0  0  0  0  0  0  0  0  0
   -2.7854   -6.9061    2.8621 C   0  0  0  0  0  0  0  0  0  0  0  0
   -1.5690   -7.2887    3.6398 C   0  0  0  0  0  0  0  0  0  0  0  0
   -1.4430   -8.3211    4.5118 C   0  0  0  0  0  0  0  0  0  0  0  0
   -2.5623   -9.1065    4.9642 C   0  0  0  0  0  0  0  0  0  0  0  0
   -3.4501   -9.7511    5.3397 N   0  0  0  0  0  0  0  0  0  0  0  0
   -0.1597   -8.7834    4.9609 C   0  0  0  0  0  0  0  0  0  0  0  0
    0.8660   -9.1889    5.3192 N   0  0  0  0  0  0  0  0  0  0  0  0
   -0.9186    5.2773   -5.7190 H   0  0  0  0  0  0  0  0  0  0  0  0
   -3.4322   11.9972   -4.2840 H   0  0  0  0  0  0  0  0  0  0  0  0
   -2.7165   11.6587   -1.9390 H   0  0  0  0  0  0  0  0  0  0  0  0
   -1.3763    9.6871   -1.3079 H   0  0  0  0  0  0  0  0  0  0  0  0
   -6.3214    2.7291    1.2793 H   0  0  0  0  0  0  0  0  0  0  0  0
   -4.6325    2.1856    1.1003 H   0  0  0  0  0  0  0  0  0  0  0  0
   -5.0282    3.1412    3.3732 H   0  0  0  0  0  0  0  0  0  0  0  0
   -5.6027    4.6873    2.6401 H   0  0  0  0  0  0  0  0  0  0  0  0
   -3.8725    4.1872    2.4662 H   0  0  0  0  0  0  0  0  0  0  0  0
   -5.5007    7.2218   -3.2752 H   0  0  0  0  0  0  0  0  0  0  0  0
   -7.0787    6.9180   -2.5033 H   0  0  0  0  0  0  0  0  0  0  0  0
   -5.7543    5.0575   -4.5874 H   0  0  0  0  0  0  0  0  0  0  0  0
   -7.3576    4.7946   -3.7898 H   0  0  0  0  0  0  0  0  0  0  0  0
   -7.1097    6.2068   -4.8848 H   0  0  0  0  0  0  0  0  0  0  0  0
   -3.8622    1.6483   -2.4355 H   0  0  0  0  0  0  0  0  0  0  0  0
   -4.3207    1.4295   -4.8495 H   0  0  0  0  0  0  0  0  0  0  0  0
   -0.8977    0.8054   -7.0357 H   0  0  0  0  0  0  0  0  0  0  0  0
   -1.8755    1.1582   -8.5059 H   0  0  0  0  0  0  0  0  0  0  0  0
   -2.2128    2.0537   -6.9719 H   0  0  0  0  0  0  0  0  0  0  0  0
   -1.1828   -1.5077   -5.1831 H   0  0  0  0  0  0  0  0  0  0  0  0
   -0.7169   -1.2797   -2.7749 H   0  0  0  0  0  0  0  0  0  0  0  0
   -1.7992    0.7183    1.6662 H   0  0  0  0  0  0  0  0  0  0  0  0
   -3.4260    0.0502    3.3549 H   0  0  0  0  0  0  0  0  0  0  0  0
   -5.7689   -3.4141    4.3772 H   0  0  0  0  0  0  0  0  0  0  0  0
   -4.1930   -2.8973    3.6695 H   0  0  0  0  0  0  0  0  0  0  0  0
   -5.4874   -3.6063    2.6071 H   0  0  0  0  0  0  0  0  0  0  0  0
   -5.9123   -1.6948    0.3149 H   0  0  0  0  0  0  0  0  0  0  0  0
   -4.2967   -1.0460   -1.4024 H   0  0  0  0  0  0  0  0  0  0  0  0
    4.8377    0.2062   -0.5500 H   0  0  0  0  0  0  0  0  0  0  0  0
    6.9768   -0.8802   -1.1630 H   0  0  0  0  0  0  0  0  0  0  0  0
    9.4843   -1.3754    2.0027 H   0  0  0  0  0  0  0  0  0  0  0  0
    9.6721   -0.6186    0.3660 H   0  0  0  0  0  0  0  0  0  0  0  0
   10.7997   -1.9229    0.8951 H   0  0  0  0  0  0  0  0  0  0  0  0
    7.0154   -2.9376    2.6156 H   0  0  0  0  0  0  0  0  0  0  0  0
    4.8979   -1.8290    3.2440 H   0  0  0  0  0  0  0  0  0  0  0  0
    5.3819    1.6400    2.4989 H   0  0  0  0  0  0  0  0  0  0  0  0
    5.1620    3.4026    4.1960 H   0  0  0  0  0  0  0  0  0  0  0  0
    2.6215    5.3031    3.7296 H   0  0  0  0  0  0  0  0  0  0  0  0
    1.0847    5.0848    4.6601 H   0  0  0  0  0  0  0  0  0  0  0  0
    2.2383    6.3928    5.1112 H   0  0  0  0  0  0  0  0  0  0  0  0
    1.1476    2.1201    5.0379 H   0  0  0  0  0  0  0  0  0  0  0  0
    1.3540    0.3375    3.3722 H   0  0  0  0  0  0  0  0  0  0  0  0
    4.0316   -9.8316   -0.9996 H   0  0  0  0  0  0  0  0  0  0  0  0
    3.6971   -9.3678    0.6887 H   0  0  0  0  0  0  0  0  0  0  0  0
    1.7767  -10.6262   -0.2191 H   0  0  0  0  0  0  0  0  0  0  0  0
    1.2551   -8.9224    0.0247 H   0  0  0  0  0  0  0  0  0  0  0  0
    1.6581   -9.5128   -1.6360 H   0  0  0  0  0  0  0  0  0  0  0  0
    4.5667   -4.9807   -3.9329 H   0  0  0  0  0  0  0  0  0  0  0  0
    3.8677   -3.6815   -2.9282 H   0  0  0  0  0  0  0  0  0  0  0  0
    6.3137   -3.3274   -3.3027 H   0  0  0  0  0  0  0  0  0  0  0  0
    6.0171   -3.6381   -1.5499 H   0  0  0  0  0  0  0  0  0  0  0  0
    6.6754   -4.9502   -2.6061 H   0  0  0  0  0  0  0  0  0  0  0  0
    0.9616   -6.5370    4.6736 H   0  0  0  0  0  0  0  0  0  0  0  0
   -5.4699   -5.5331    0.4075 H   0  0  0  0  0  0  0  0  0  0  0  0
   -6.1171   -7.1381    2.1781 H   0  0  0  0  0  0  0  0  0  0  0  0
   -4.4599   -7.9776    3.7723 H   0  0  0  0  0  0  0  0  0  0  0  0
  1  2  2  3
  2  3  1  0
  3  4  2  0
  3  5  1  0
  5  6  2  0
  6  7  1  0
  6  8  1  0
  8  9  2  0
  9 10  1  0
 10 11  2  0
 11 12  1  0
 12 13  2  3
 13 14  1  0
 14 15  3  0
 13 16  1  0
 16 17  3  0
  1 18  1  0
 18 19  1  0
 19 20  1  0
 20 21  2  0
 21 22  1  0
 22 23  2  0
 22 24  1  0
 24 25  2  0
 25 26  1  0
 26 27  1  0
 25 28  1  0
 28 29  1  0
 29 30  1  0
 30 31  1  0
 29 32  2  0
 32 33  1  0
 33 34  2  0
 33 35  1  0
 20 36  1  0
 36 37  2  0
 37 38  1  0
 38 39  1  0
 39 40  2  0
 40 41  1  0
 41 42  2  0
 42 43  1  0
 43 44  1  0
 42 45  1  0
 45 46  2  0
 38 47  1  0
 47 48  2  0
 48 49  1  0
 49 50  2  0
 50 51  1  0
 51 52  1  0
 50 53  1  0
 53 54  2  0
 37 55  1  0
 55 56  1  0
 56 57  1  0
 57 58  2  0
 58 59  1  0
 59 60  1  0
 60 61  2  0
 61 62  1  0
 62 63  2  0
 63 64  1  0
 64 65  1  0
 63 66  1  0
 66 67  2  0
 59 68  1  0
 68 69  2  0
 69 70  1  0
 70 71  2  0
 71 72  1  0
 72 73  1  0
 71 74  1  0
 74 75  2  0
 58 76  1  0
 76 77  1  0
 57 78  1  0
 78 79  1  0
 79 80  1  0
 80 81  2  0
 81 82  1  0
 82 83  2  0
 82 84  1  0
 84 85  2  0
 85 86  1  0
 86 87  1  0
 85 88  1  0
 88 89  1  0
 89 90  1  0
 90 91  1  0
 89 92  2  0
 92 93  1  0
 93 94  2  0
 93 95  1  0
 80 96  1  0
 96 97  2  3
 97 98  1  0
 98 99  2  0
 98100  1  0
100101  2  0
101102  1  0
101103  1  0
103104  2  0
104105  1  0
105106  2  0
106107  1  0
107108  2  3
108109  1  0
109110  3  0
108111  1  0
111112  3  0
 12  2  1  0
 35 18  2  0
 77 36  1  0
 95 78  2  0
107 97  1  0
 11  5  1  0
 35 21  1  0
 46 39  1  0
 54 47  1  0
 76 55  2  0
 95 81  1  0
106100  1  0
 32 24  1  0
 67 60  1  0
 75 68  1  0
 92 84  1  0
  1113  1  0
  8114  1  0
  9115  1  0
 10116  1  0
 26117  1  0
 26118  1  0
 27119  1  0
 27120  1  0
 27121  1  0
 30122  1  0
 30123  1  0
 31124  1  0
 31125  1  0
 31126  1  0
 40127  1  0
 41128  1  0
 44129  1  0
 44130  1  0
 44131  1  0
 45132  1  0
 46133  1  0
 48134  1  0
 49135  1  0
 52136  1  0
 52137  1  0
 52138  1  0
 53139  1  0
 54140  1  0
 61141  1  0
 62142  1  0
 65143  1  0
 65144  1  0
 65145  1  0
 66146  1  0
 67147  1  0
 69148  1  0
 70149  1  0
 73150  1  0
 73151  1  0
 73152  1  0
 74153  1  0
 75154  1  0
 86155  1  0
 86156  1  0
 87157  1  0
 87158  1  0
 87159  1  0
 90160  1  0
 90161  1  0
 91162  1  0
 91163  1  0
 91164  1  0
 96165  1  0
103166  1  0
104167  1  0
105168  1  0
M  END

