
     RDKit          3D

208225  0  0  0  0  0  0  0  0999 V2000
   -0.4222    3.1217    6.7192 C   0  0  0  0  0  0  0  0  0  0  0  0
   -1.0730    3.9445    5.8675 C   0  0  0  0  0  0  0  0  0  0  0  0
   -1.3985    3.6221    4.4711 C   0  0  0  0  0  0  0  0  0  0  0  0
   -1.6255    2.4714    4.0095 O   0  0  0  0  0  0  0  0  0  0  0  0
   -1.4582    4.8561    3.7147 C   0  0  0  0  0  0  0  0  0  0  0  0
   -1.5191    5.0344    2.3244 C   0  0  0  0  0  0  0  0  0  0  0  0
   -1.6204    3.6769    1.2107 Cl  0  0  0  0  0  0  0  0  0  0  0  0
   -1.4338    6.3404    1.8201 C   0  0  0  0  0  0  0  0  0  0  0  0
   -1.2680    7.4306    2.6918 C   0  0  0  0  0  0  0  0  0  0  0  0
   -1.1886    7.2291    4.0800 C   0  0  0  0  0  0  0  0  0  0  0  0
   -1.3121    5.9266    4.5886 C   0  0  0  0  0  0  0  0  0  0  0  0
   -1.2053    5.4234    5.9878 C   0  0  0  0  0  0  0  0  0  0  0  0
   -1.4064    6.1225    7.1302 C   0  0  0  0  0  0  0  0  0  0  0  0
   -1.5586    5.4663    8.4040 C   0  0  0  0  0  0  0  0  0  0  0  0
   -1.6939    4.9529    9.4345 N   0  0  0  0  0  0  0  0  0  0  0  0
   -1.6249    7.5440    7.1322 C   0  0  0  0  0  0  0  0  0  0  0  0
   -1.7833    8.6929    7.1386 N   0  0  0  0  0  0  0  0  0  0  0  0
    0.0408    1.7926    6.2743 C   0  0  0  0  0  0  0  0  0  0  0  0
    1.0113    1.7243    5.2624 C   0  0  0  0  0  0  0  0  0  0  0  0
    1.6821    2.8451    4.8872 F   0  0  0  0  0  0  0  0  0  0  0  0
    1.1647    0.5612    4.5108 C   0  0  0  0  0  0  0  0  0  0  0  0
    1.9288    0.6195    3.3870 F   0  0  0  0  0  0  0  0  0  0  0  0
    0.3967   -0.5832    4.8052 C   0  0  0  0  0  0  0  0  0  0  0  0
   -0.4494   -0.5649    5.9272 C   0  0  0  0  0  0  0  0  0  0  0  0
   -1.1808   -1.6599    6.2620 N   0  0  0  0  0  0  0  0  0  0  0  0
   -2.0830   -1.6503    7.2803 C   0  0  0  0  0  0  0  0  0  0  0  0
   -2.8370   -2.9160    7.6127 C   0  0  0  0  0  0  0  0  0  0  0  0
   -2.6775   -4.0123    6.5545 C   0  0  0  0  0  0  0  0  0  0  0  0
   -2.2678   -0.4509    8.0076 C   0  0  0  0  0  0  0  0  0  0  0  0
   -1.5521    0.6510    7.6569 N   0  0  0  0  0  0  0  0  0  0  0  0
   -0.6403    0.6292    6.6516 C   0  0  0  0  0  0  0  0  0  0  0  0
   -3.2575   -0.3231    9.1335 C   0  0  0  0  0  0  0  0  0  0  0  0
   -4.6174    0.1439    8.6168 C   0  0  0  0  0  0  0  0  0  0  0  0
    0.1892   -1.6057    3.7554 C   0  0  0  0  0  0  0  0  0  0  0  0
    1.1563   -2.0528    2.8248 C   0  0  0  0  0  0  0  0  0  0  0  0
    2.5701   -2.2273    3.0984 N   0  0  0  0  0  0  0  0  0  0  0  0
    3.3489   -3.0483    2.2141 C   0  0  0  0  0  0  0  0  0  0  0  0
    3.0727   -4.4218    2.1132 C   0  0  0  0  0  0  0  0  0  0  0  0
    3.8119   -5.2276    1.2445 C   0  0  0  0  0  0  0  0  0  0  0  0
    4.8335   -4.6675    0.4684 C   0  0  0  0  0  0  0  0  0  0  0  0
    5.7773   -5.7081   -0.6500 S   0  0  0  0  0  0  0  0  0  0  0  0
    4.6321   -5.4441   -2.0370 C   0  0  0  0  0  0  0  0  0  0  0  0
    5.1117   -3.2976    0.5617 C   0  0  0  0  0  0  0  0  0  0  0  0
    4.3721   -2.4910    1.4336 C   0  0  0  0  0  0  0  0  0  0  0  0
    3.1256   -1.9775    4.3985 C   0  0  0  0  0  0  0  0  0  0  0  0
    2.6445   -2.6590    5.5263 C   0  0  0  0  0  0  0  0  0  0  0  0
    3.1513   -2.3721    6.7950 C   0  0  0  0  0  0  0  0  0  0  0  0
    4.1615   -1.4120    6.9408 C   0  0  0  0  0  0  0  0  0  0  0  0
    4.8114   -1.0266    8.5649 S   0  0  0  0  0  0  0  0  0  0  0  0
    6.1868   -2.2144    8.4223 C   0  0  0  0  0  0  0  0  0  0  0  0
    4.6650   -0.7483    5.8128 C   0  0  0  0  0  0  0  0  0  0  0  0
    4.1578   -1.0371    4.5482 C   0  0  0  0  0  0  0  0  0  0  0  0
    0.5712   -2.2776    1.5674 C   0  0  0  0  0  0  0  0  0  0  0  0
    1.1847   -1.9882    0.0340 S   0  0  0  0  0  0  0  0  0  0  0  0
   -0.3174   -1.6971   -0.7126 C   0  0  0  0  0  0  0  0  0  0  0  0
   -1.3144   -1.8304    0.2612 C   0  0  0  0  0  0  0  0  0  0  0  0
   -2.7227   -1.8213   -0.0149 N   0  0  0  0  0  0  0  0  0  0  0  0
   -3.4531   -0.6102    0.2540 C   0  0  0  0  0  0  0  0  0  0  0  0
   -4.0400   -0.3997    1.5133 C   0  0  0  0  0  0  0  0  0  0  0  0
   -4.6750    0.8096    1.8014 C   0  0  0  0  0  0  0  0  0  0  0  0
   -4.7613    1.8047    0.8227 C   0  0  0  0  0  0  0  0  0  0  0  0
   -5.5901    3.3547    1.1912 S   0  0  0  0  0  0  0  0  0  0  0  0
   -7.2513    2.7008    0.8377 C   0  0  0  0  0  0  0  0  0  0  0  0
   -4.2075    1.5879   -0.4458 C   0  0  0  0  0  0  0  0  0  0  0  0
   -3.5395    0.3905   -0.7219 C   0  0  0  0  0  0  0  0  0  0  0  0
   -3.3915   -3.0877   -0.2641 C   0  0  0  0  0  0  0  0  0  0  0  0
   -2.6610   -4.2024   -0.7377 C   0  0  0  0  0  0  0  0  0  0  0  0
   -3.2958   -5.4188   -0.9969 C   0  0  0  0  0  0  0  0  0  0  0  0
   -4.6657   -5.5608   -0.7604 C   0  0  0  0  0  0  0  0  0  0  0  0
   -5.4941   -7.0947   -1.1719 S   0  0  0  0  0  0  0  0  0  0  0  0
   -5.2333   -7.8360    0.4696 C   0  0  0  0  0  0  0  0  0  0  0  0
   -5.3979   -4.4818   -0.2592 C   0  0  0  0  0  0  0  0  0  0  0  0
   -4.7739   -3.2477   -0.0419 C   0  0  0  0  0  0  0  0  0  0  0  0
   -0.7843   -2.1428    1.5134 C   0  0  0  0  0  0  0  0  0  0  0  0
   -1.3341   -1.6661    3.0104 S   0  0  0  0  0  0  0  0  0  0  0  0
   -0.3894   -0.7505   -1.8262 C   0  0  0  0  0  0  0  0  0  0  0  0
   -0.1810   -1.0918   -3.1667 C   0  0  0  0  0  0  0  0  0  0  0  0
   -0.7218   -2.2710   -3.7789 N   0  0  0  0  0  0  0  0  0  0  0  0
   -2.1552   -2.3769   -3.9401 C   0  0  0  0  0  0  0  0  0  0  0  0
   -2.9479   -1.2235   -4.1154 C   0  0  0  0  0  0  0  0  0  0  0  0
   -4.3295   -1.3283   -4.2622 C   0  0  0  0  0  0  0  0  0  0  0  0
   -4.9468   -2.5819   -4.2357 C   0  0  0  0  0  0  0  0  0  0  0  0
   -6.7212   -2.6933   -4.4847 S   0  0  0  0  0  0  0  0  0  0  0  0
   -7.1259   -2.3518   -2.7439 C   0  0  0  0  0  0  0  0  0  0  0  0
   -4.1687   -3.7369   -4.0726 C   0  0  0  0  0  0  0  0  0  0  0  0
   -2.7799   -3.6338   -3.9342 C   0  0  0  0  0  0  0  0  0  0  0  0
    0.1623   -3.1213   -4.5234 C   0  0  0  0  0  0  0  0  0  0  0  0
    1.2265   -3.7644   -3.8764 C   0  0  0  0  0  0  0  0  0  0  0  0
    2.1020   -4.5733   -4.6064 C   0  0  0  0  0  0  0  0  0  0  0  0
    1.9401   -4.7222   -5.9888 C   0  0  0  0  0  0  0  0  0  0  0  0
    3.1064   -5.7081   -6.9262 S   0  0  0  0  0  0  0  0  0  0  0  0
    2.1260   -7.2372   -6.8028 C   0  0  0  0  0  0  0  0  0  0  0  0
    0.8786   -4.0782   -6.6372 C   0  0  0  0  0  0  0  0  0  0  0  0
   -0.0118   -3.2890   -5.9064 C   0  0  0  0  0  0  0  0  0  0  0  0
    0.3119   -0.0088   -3.8937 C   0  0  0  0  0  0  0  0  0  0  0  0
    0.8612    0.1898   -5.4681 S   0  0  0  0  0  0  0  0  0  0  0  0
    1.3325    1.8099   -5.2179 C   0  0  0  0  0  0  0  0  0  0  0  0
    1.0448    2.2002   -3.8980 C   0  0  0  0  0  0  0  0  0  0  0  0
    1.2646    3.5290   -3.3761 N   0  0  0  0  0  0  0  0  0  0  0  0
    0.9554    4.6480   -4.2211 C   0  0  0  0  0  0  0  0  0  0  0  0
    1.9640    5.5510   -4.5904 C   0  0  0  0  0  0  0  0  0  0  0  0
    1.6854    6.5816   -5.4890 C   0  0  0  0  0  0  0  0  0  0  0  0
    0.3927    6.7284   -6.0105 C   0  0  0  0  0  0  0  0  0  0  0  0
    0.0404    8.0391   -7.1830 S   0  0  0  0  0  0  0  0  0  0  0  0
    0.4011    6.9995   -8.6363 C   0  0  0  0  0  0  0  0  0  0  0  0
   -0.6226    5.8458   -5.6197 C   0  0  0  0  0  0  0  0  0  0  0  0
   -0.3413    4.8040   -4.7340 C   0  0  0  0  0  0  0  0  0  0  0  0
    1.7446    3.7579   -2.0342 C   0  0  0  0  0  0  0  0  0  0  0  0
    1.2488    4.8355   -1.2734 C   0  0  0  0  0  0  0  0  0  0  0  0
    1.7194    5.0643    0.0201 C   0  0  0  0  0  0  0  0  0  0  0  0
    2.6859    4.2161    0.5744 C   0  0  0  0  0  0  0  0  0  0  0  0
    3.2815    4.5030    2.2400 S   0  0  0  0  0  0  0  0  0  0  0  0
    4.6791    5.5322    1.6878 C   0  0  0  0  0  0  0  0  0  0  0  0
    3.1877    3.1441   -0.1749 C   0  0  0  0  0  0  0  0  0  0  0  0
    2.7232    2.9207   -1.4746 C   0  0  0  0  0  0  0  0  0  0  0  0
    0.4809    1.1406   -3.1901 C   0  0  0  0  0  0  0  0  0  0  0  0
    0.0371    0.8862   -1.5957 S   0  0  0  0  0  0  0  0  0  0  0  0
    2.2479    2.5366   -6.1090 C   0  0  0  0  0  0  0  0  0  0  0  0
    3.5871    2.4772   -5.9469 C   0  0  0  0  0  0  0  0  0  0  0  0
    4.2816    1.7022   -4.9097 C   0  0  0  0  0  0  0  0  0  0  0  0
    3.7898    0.7579   -4.2351 O   0  0  0  0  0  0  0  0  0  0  0  0
    5.6476    2.1789   -4.8082 C   0  0  0  0  0  0  0  0  0  0  0  0
    6.6320    1.8304   -3.8730 C   0  0  0  0  0  0  0  0  0  0  0  0
    6.3424    0.6278   -2.6248 Cl  0  0  0  0  0  0  0  0  0  0  0  0
    7.8675    2.4878   -3.9334 C   0  0  0  0  0  0  0  0  0  0  0  0
    8.0921    3.4901   -4.8928 C   0  0  0  0  0  0  0  0  0  0  0  0
    7.0897    3.8364   -5.8095 C   0  0  0  0  0  0  0  0  0  0  0  0
    5.8632    3.1510   -5.7751 C   0  0  0  0  0  0  0  0  0  0  0  0
    4.6315    3.3214   -6.6075 C   0  0  0  0  0  0  0  0  0  0  0  0
    4.5437    3.9435   -7.8140 C   0  0  0  0  0  0  0  0  0  0  0  0
    3.3548    3.9009   -8.6277 C   0  0  0  0  0  0  0  0  0  0  0  0
    2.4080    3.8704   -9.2908 N   0  0  0  0  0  0  0  0  0  0  0  0
    5.6689    4.5913   -8.4391 C   0  0  0  0  0  0  0  0  0  0  0  0
    6.5637    5.1104   -8.9544 N   0  0  0  0  0  0  0  0  0  0  0  0
   -0.0823    3.4703    7.6851 H   0  0  0  0  0  0  0  0  0  0  0  0
   -1.4718    6.5108    0.7513 H   0  0  0  0  0  0  0  0  0  0  0  0
   -1.1702    8.4281    2.2838 H   0  0  0  0  0  0  0  0  0  0  0  0
   -0.9917    8.0769    4.7139 H   0  0  0  0  0  0  0  0  0  0  0  0
   -2.4618   -3.3074    8.5845 H   0  0  0  0  0  0  0  0  0  0  0  0
   -3.9163   -2.6983    7.7113 H   0  0  0  0  0  0  0  0  0  0  0  0
   -3.0438   -3.6581    5.5675 H   0  0  0  0  0  0  0  0  0  0  0  0
   -1.6110   -4.3127    6.4629 H   0  0  0  0  0  0  0  0  0  0  0  0
   -3.2639   -4.9073    6.8544 H   0  0  0  0  0  0  0  0  0  0  0  0
   -2.8818    0.4200    9.8699 H   0  0  0  0  0  0  0  0  0  0  0  0
   -3.3717   -1.2840    9.6818 H   0  0  0  0  0  0  0  0  0  0  0  0
   -4.5142    1.1066    8.0775 H   0  0  0  0  0  0  0  0  0  0  0  0
   -5.0494   -0.6113    7.9295 H   0  0  0  0  0  0  0  0  0  0  0  0
   -5.3138    0.2785    9.4690 H   0  0  0  0  0  0  0  0  0  0  0  0
    2.2779   -4.8613    2.6998 H   0  0  0  0  0  0  0  0  0  0  0  0
    3.5832   -6.2849    1.1634 H   0  0  0  0  0  0  0  0  0  0  0  0
    3.5958   -5.7063   -1.7384 H   0  0  0  0  0  0  0  0  0  0  0  0
    4.6685   -4.3789   -2.3515 H   0  0  0  0  0  0  0  0  0  0  0  0
    4.9301   -6.0829   -2.8930 H   0  0  0  0  0  0  0  0  0  0  0  0
    5.8931   -2.8555   -0.0440 H   0  0  0  0  0  0  0  0  0  0  0  0
    4.5802   -1.4319    1.4853 H   0  0  0  0  0  0  0  0  0  0  0  0
    1.8628   -3.4006    5.4186 H   0  0  0  0  0  0  0  0  0  0  0  0
    2.7544   -2.8842    7.6637 H   0  0  0  0  0  0  0  0  0  0  0  0
    6.8851   -2.0678    9.2686 H   0  0  0  0  0  0  0  0  0  0  0  0
    5.7892   -3.2470    8.4546 H   0  0  0  0  0  0  0  0  0  0  0  0
    6.7417   -2.0552    7.4747 H   0  0  0  0  0  0  0  0  0  0  0  0
    5.4542   -0.0135    5.9220 H   0  0  0  0  0  0  0  0  0  0  0  0
    4.5447   -0.5072    3.6906 H   0  0  0  0  0  0  0  0  0  0  0  0
   -4.0050   -1.1693    2.2707 H   0  0  0  0  0  0  0  0  0  0  0  0
   -5.1005    0.9706    2.7832 H   0  0  0  0  0  0  0  0  0  0  0  0
   -7.9983    3.5161    0.9421 H   0  0  0  0  0  0  0  0  0  0  0  0
   -7.2936    2.3057   -0.1964 H   0  0  0  0  0  0  0  0  0  0  0  0
   -7.5002    1.8970    1.5622 H   0  0  0  0  0  0  0  0  0  0  0  0
   -4.2748    2.3523   -1.2099 H   0  0  0  0  0  0  0  0  0  0  0  0
   -3.0989    0.2369   -1.6971 H   0  0  0  0  0  0  0  0  0  0  0  0
   -1.6002   -4.1364   -0.9325 H   0  0  0  0  0  0  0  0  0  0  0  0
   -2.7235   -6.2474   -1.3969 H   0  0  0  0  0  0  0  0  0  0  0  0
   -4.1470   -7.9436    0.6713 H   0  0  0  0  0  0  0  0  0  0  0  0
   -5.7011   -8.8418    0.4901 H   0  0  0  0  0  0  0  0  0  0  0  0
   -5.6987   -7.2039    1.2510 H   0  0  0  0  0  0  0  0  0  0  0  0
   -6.4617   -4.5828   -0.0866 H   0  0  0  0  0  0  0  0  0  0  0  0
   -5.3843   -2.4260    0.3024 H   0  0  0  0  0  0  0  0  0  0  0  0
   -2.5016   -0.2414   -4.1483 H   0  0  0  0  0  0  0  0  0  0  0  0
   -4.9221   -0.4329   -4.3999 H   0  0  0  0  0  0  0  0  0  0  0  0
   -6.8258   -3.2145   -2.1213 H   0  0  0  0  0  0  0  0  0  0  0  0
   -8.2209   -2.2140   -2.6399 H   0  0  0  0  0  0  0  0  0  0  0  0
   -6.6124   -1.4310   -2.3967 H   0  0  0  0  0  0  0  0  0  0  0  0
   -4.6389   -4.7136   -4.0642 H   0  0  0  0  0  0  0  0  0  0  0  0
   -2.1887   -4.5326   -3.8034 H   0  0  0  0  0  0  0  0  0  0  0  0
    1.3698   -3.6463   -2.8097 H   0  0  0  0  0  0  0  0  0  0  0  0
    2.9113   -5.0802   -4.1054 H   0  0  0  0  0  0  0  0  0  0  0  0
    2.6163   -8.0248   -7.4158 H   0  0  0  0  0  0  0  0  0  0  0  0
    2.0807   -7.5778   -5.7462 H   0  0  0  0  0  0  0  0  0  0  0  0
    1.0989   -7.0661   -7.1919 H   0  0  0  0  0  0  0  0  0  0  0  0
    0.7495   -4.1872   -7.7049 H   0  0  0  0  0  0  0  0  0  0  0  0
   -0.8170   -2.7791   -6.4198 H   0  0  0  0  0  0  0  0  0  0  0  0
    2.9683    5.4253   -4.2084 H   0  0  0  0  0  0  0  0  0  0  0  0
    2.4774    7.2533   -5.7953 H   0  0  0  0  0  0  0  0  0  0  0  0
    1.4539    6.6495   -8.6042 H   0  0  0  0  0  0  0  0  0  0  0  0
    0.2538    7.5996   -9.5590 H   0  0  0  0  0  0  0  0  0  0  0  0
   -0.2833    6.1267   -8.6622 H   0  0  0  0  0  0  0  0  0  0  0  0
   -1.6236    5.9594   -6.0138 H   0  0  0  0  0  0  0  0  0  0  0  0
   -1.1250    4.1168   -4.4478 H   0  0  0  0  0  0  0  0  0  0  0  0
    0.4934    5.4943   -1.6799 H   0  0  0  0  0  0  0  0  0  0  0  0
    1.3316    5.8940    0.5929 H   0  0  0  0  0  0  0  0  0  0  0  0
    4.2932    6.4517    1.1998 H   0  0  0  0  0  0  0  0  0  0  0  0
    5.2895    5.8166    2.5678 H   0  0  0  0  0  0  0  0  0  0  0  0
    5.3148    4.9627    0.9785 H   0  0  0  0  0  0  0  0  0  0  0  0
    3.9392    2.4909    0.2454 H   0  0  0  0  0  0  0  0  0  0  0  0
    3.1304    2.0939   -2.0417 H   0  0  0  0  0  0  0  0  0  0  0  0
    1.7964    3.2368   -6.7903 H   0  0  0  0  0  0  0  0  0  0  0  0
    8.6449    2.2476   -3.2236 H   0  0  0  0  0  0  0  0  0  0  0  0
    9.0397    4.0123   -4.9097 H   0  0  0  0  0  0  0  0  0  0  0  0
    7.2776    4.6472   -6.4920 H   0  0  0  0  0  0  0  0  0  0  0  0
  1  2  2  3
  2  3  1  0
  3  4  2  0
  3  5  1  0
  5  6  2  0
  6  7  1  0
  6  8  1  0
  8  9  2  0
  9 10  1  0
 10 11  2  0
 11 12  1  0
 12 13  2  3
 13 14  1  0
 14 15  3  0
 13 16  1  0
 16 17  3  0
  1 18  1  0
 18 19  2  0
 19 20  1  0
 19 21  1  0
 21 22  1  0
 21 23  2  0
 23 24  1  0
 24 25  2  0
 25 26  1  0
 26 27  1  0
 27 28  1  0
 26 29  2  0
 29 30  1  0
 30 31  2  0
 29 32  1  0
 32 33  1  0
 23 34  1  0
 34 35  2  0
 35 36  1  0
 36 37  1  0
 37 38  2  0
 38 39  1  0
 39 40  2  0
 40 41  1  0
 41 42  1  0
 40 43  1  0
 43 44  2  0
 36 45  1  0
 45 46  2  0
 46 47  1  0
 47 48  2  0
 48 49  1  0
 49 50  1  0
 48 51  1  0
 51 52  2  0
 35 53  1  0
 53 54  1  0
 54 55  1  0
 55 56  2  0
 56 57  1  0
 57 58  1  0
 58 59  2  0
 59 60  1  0
 60 61  2  0
 61 62  1  0
 62 63  1  0
 61 64  1  0
 64 65  2  0
 57 66  1  0
 66 67  2  0
 67 68  1  0
 68 69  2  0
 69 70  1  0
 70 71  1  0
 69 72  1  0
 72 73  2  0
 56 74  1  0
 74 75  1  0
 55 76  1  0
 76 77  2  0
 77 78  1  0
 78 79  1  0
 79 80  2  0
 80 81  1  0
 81 82  2  0
 82 83  1  0
 83 84  1  0
 82 85  1  0
 85 86  2  0
 78 87  1  0
 87 88  2  0
 88 89  1  0
 89 90  2  0
 90 91  1  0
 91 92  1  0
 90 93  1  0
 93 94  2  0
 77 95  1  0
 95 96  1  0
 96 97  1  0
 97 98  2  0
 98 99  1  0
 99100  1  0
100101  2  0
101102  1  0
102103  2  0
103104  1  0
104105  1  0
103106  1  0
106107  2  0
 99108  1  0
108109  2  0
109110  1  0
110111  2  0
111112  1  0
112113  1  0
111114  1  0
114115  2  0
 98116  1  0
116117  1  0
 97118  1  0
118119  2  3
119120  1  0
120121  2  0
120122  1  0
122123  2  0
123124  1  0
123125  1  0
125126  2  0
126127  1  0
127128  2  0
128129  1  0
129130  2  3
130131  1  0
131132  3  0
130133  1  0
133134  3  0
 12  2  1  0
 31 18  1  0
 75 34  1  0
117 76  1  0
129119  1  0
 11  5  1  0
 31 24  1  0
 44 37  1  0
 52 45  1  0
 74 53  2  0
 86 79  1  0
 94 87  1  0
116 95  2  0
128122  1  0
 65 58  1  0
 73 66  1  0
107100  1  0
115108  1  0
  1135  1  0
  8136  1  0
  9137  1  0
 10138  1  0
 27139  1  0
 27140  1  0
 28141  1  0
 28142  1  0
 28143  1  0
 32144  1  0
 32145  1  0
 33146  1  0
 33147  1  0
 33148  1  0
 38149  1  0
 39150  1  0
 42151  1  0
 42152  1  0
 42153  1  0
 43154  1  0
 44155  1  0
 46156  1  0
 47157  1  0
 50158  1  0
 50159  1  0
 50160  1  0
 51161  1  0
 52162  1  0
 59163  1  0
 60164  1  0
 63165  1  0
 63166  1  0
 63167  1  0
 64168  1  0
 65169  1  0
 67170  1  0
 68171  1  0
 71172  1  0
 71173  1  0
 71174  1  0
 72175  1  0
 73176  1  0
 80177  1  0
 81178  1  0
 84179  1  0
 84180  1  0
 84181  1  0
 85182  1  0
 86183  1  0
 88184  1  0
 89185  1  0
 92186  1  0
 92187  1  0
 92188  1  0
 93189  1  0
 94190  1  0
101191  1  0
102192  1  0
105193  1  0
105194  1  0
105195  1  0
106196  1  0
107197  1  0
109198  1  0
110199  1  0
113200  1  0
113201  1  0
113202  1  0
114203  1  0
115204  1  0
118205  1  0
125206  1  0
126207  1  0
127208  1  0
M  END

