
     RDKit          3D

188205  0  0  0  0  0  0  0  0999 V2000
    0.7870    6.9170   -3.1491 C   0  0  0  0  0  0  0  0  0  0  0  0
    2.1116    6.7687   -3.3403 C   0  0  0  0  0  0  0  0  0  0  0  0
    2.8229    5.4944   -3.3974 C   0  0  0  0  0  0  0  0  0  0  0  0
    2.3041    4.3665   -3.5965 O   0  0  0  0  0  0  0  0  0  0  0  0
    4.2373    5.7403   -3.2050 C   0  0  0  0  0  0  0  0  0  0  0  0
    5.2858    4.8121   -3.1007 C   0  0  0  0  0  0  0  0  0  0  0  0
    5.0175    3.0806   -3.2289 Cl  0  0  0  0  0  0  0  0  0  0  0  0
    6.5817    5.2994   -2.8736 C   0  0  0  0  0  0  0  0  0  0  0  0
    6.8081    6.6802   -2.7403 C   0  0  0  0  0  0  0  0  0  0  0  0
    5.7471    7.5917   -2.8466 C   0  0  0  0  0  0  0  0  0  0  0  0
    4.4482    7.1069   -3.0883 C   0  0  0  0  0  0  0  0  0  0  0  0
    3.1560    7.8345   -3.2699 C   0  0  0  0  0  0  0  0  0  0  0  0
    2.9817    9.1638   -3.5132 C   0  0  0  0  0  0  0  0  0  0  0  0
    1.7445    9.6918   -4.0238 C   0  0  0  0  0  0  0  0  0  0  0  0
    0.7546   10.1289   -4.4356 N   0  0  0  0  0  0  0  0  0  0  0  0
    4.0399   10.1280   -3.3780 C   0  0  0  0  0  0  0  0  0  0  0  0
    4.8776   10.9216   -3.2631 N   0  0  0  0  0  0  0  0  0  0  0  0
   -0.1456    5.7781   -3.0308 C   0  0  0  0  0  0  0  0  0  0  0  0
   -0.1082    4.9021   -1.9281 C   0  0  0  0  0  0  0  0  0  0  0  0
    0.8048    4.9752   -0.9189 N   0  0  0  0  0  0  0  0  0  0  0  0
    0.6511    3.9579   -0.0375 C   0  0  0  0  0  0  0  0  0  0  0  0
    1.5602    3.7260    1.1270 C   0  0  0  0  0  0  0  0  0  0  0  0
    2.8617    3.0644    0.6763 C   0  0  0  0  0  0  0  0  0  0  0  0
   -0.5947    2.9160   -0.4865 S   0  0  0  0  0  0  0  0  0  0  0  0
   -0.9944    3.8282   -1.8469 C   0  0  0  0  0  0  0  0  0  0  0  0
   -1.9658    3.5707   -2.8344 C   0  0  0  0  0  0  0  0  0  0  0  0
   -2.0003    4.4470   -3.9324 C   0  0  0  0  0  0  0  0  0  0  0  0
   -1.1152    5.5240   -4.0111 C   0  0  0  0  0  0  0  0  0  0  0  0
   -1.3876    6.3402   -5.4574 S   0  0  0  0  0  0  0  0  0  0  0  0
   -2.6303    5.2900   -5.9080 C   0  0  0  0  0  0  0  0  0  0  0  0
   -3.4098    5.3953   -7.1857 C   0  0  0  0  0  0  0  0  0  0  0  0
   -3.1025    4.2212   -8.1103 C   0  0  0  0  0  0  0  0  0  0  0  0
   -2.8436    4.3223   -4.9880 N   0  0  0  0  0  0  0  0  0  0  0  0
   -2.8149    2.3659   -2.7425 C   0  0  0  0  0  0  0  0  0  0  0  0
   -2.5295    1.1734   -3.4325 C   0  0  0  0  0  0  0  0  0  0  0  0
   -2.2854    1.1225   -4.8485 N   0  0  0  0  0  0  0  0  0  0  0  0
   -1.0005    1.4394   -5.4391 C   0  0  0  0  0  0  0  0  0  0  0  0
   -0.8498    1.5097   -6.8397 C   0  0  0  0  0  0  0  0  0  0  0  0
    0.3963    1.7491   -7.4169 C   0  0  0  0  0  0  0  0  0  0  0  0
    1.5236    1.9131   -6.6076 C   0  0  0  0  0  0  0  0  0  0  0  0
    3.1377    2.1384   -7.3578 S   0  0  0  0  0  0  0  0  0  0  0  0
    3.4230    0.3491   -7.5623 C   0  0  0  0  0  0  0  0  0  0  0  0
    1.3883    1.8867   -5.2166 C   0  0  0  0  0  0  0  0  0  0  0  0
    0.1351    1.6705   -4.6342 C   0  0  0  0  0  0  0  0  0  0  0  0
   -3.4038    0.6812   -5.6430 C   0  0  0  0  0  0  0  0  0  0  0  0
   -4.5979    1.4225   -5.6385 C   0  0  0  0  0  0  0  0  0  0  0  0
   -5.7688    0.8794   -6.1665 C   0  0  0  0  0  0  0  0  0  0  0  0
   -5.7658   -0.4214   -6.6793 C   0  0  0  0  0  0  0  0  0  0  0  0
   -7.3092   -1.1911   -7.1669 S   0  0  0  0  0  0  0  0  0  0  0  0
   -7.6785   -1.7626   -5.4755 C   0  0  0  0  0  0  0  0  0  0  0  0
   -4.5715   -1.1496   -6.7345 C   0  0  0  0  0  0  0  0  0  0  0  0
   -3.3914   -0.6001   -6.2204 C   0  0  0  0  0  0  0  0  0  0  0  0
   -3.0017    0.0624   -2.7317 C   0  0  0  0  0  0  0  0  0  0  0  0
   -2.5510   -1.5534   -2.7588 S   0  0  0  0  0  0  0  0  0  0  0  0
   -3.2121   -1.9286   -1.2205 C   0  0  0  0  0  0  0  0  0  0  0  0
   -3.8319   -0.7623   -0.7241 C   0  0  0  0  0  0  0  0  0  0  0  0
   -4.5098   -0.6594    0.5401 N   0  0  0  0  0  0  0  0  0  0  0  0
   -5.7532   -1.3799    0.7200 C   0  0  0  0  0  0  0  0  0  0  0  0
   -6.6238   -1.5841   -0.3738 C   0  0  0  0  0  0  0  0  0  0  0  0
   -7.7732   -2.3623   -0.2281 C   0  0  0  0  0  0  0  0  0  0  0  0
   -8.0635   -2.9609    1.0050 C   0  0  0  0  0  0  0  0  0  0  0  0
   -9.4915   -4.0371    1.1604 S   0  0  0  0  0  0  0  0  0  0  0  0
   -8.5678   -5.5226    0.6469 C   0  0  0  0  0  0  0  0  0  0  0  0
   -7.2257   -2.7413    2.1017 C   0  0  0  0  0  0  0  0  0  0  0  0
   -6.0811   -1.9455    1.9642 C   0  0  0  0  0  0  0  0  0  0  0  0
   -3.9865    0.2204    1.5592 C   0  0  0  0  0  0  0  0  0  0  0  0
   -2.5954    0.3167    1.7688 C   0  0  0  0  0  0  0  0  0  0  0  0
   -2.0846    1.1729    2.7475 C   0  0  0  0  0  0  0  0  0  0  0  0
   -2.9549    1.9445    3.5237 C   0  0  0  0  0  0  0  0  0  0  0  0
   -2.2967    3.0312    4.7915 S   0  0  0  0  0  0  0  0  0  0  0  0
   -2.1163    4.4476    3.6636 C   0  0  0  0  0  0  0  0  0  0  0  0
   -4.3373    1.8643    3.3181 C   0  0  0  0  0  0  0  0  0  0  0  0
   -4.8506    1.0076    2.3408 C   0  0  0  0  0  0  0  0  0  0  0  0
   -3.6475    0.3256   -1.5722 C   0  0  0  0  0  0  0  0  0  0  0  0
   -3.6747    1.9806   -1.3164 S   0  0  0  0  0  0  0  0  0  0  0  0
   -2.5946   -2.9441   -0.3368 C   0  0  0  0  0  0  0  0  0  0  0  0
   -1.2198   -3.1912   -0.3685 C   0  0  0  0  0  0  0  0  0  0  0  0
   -0.6826   -3.5701    0.8741 C   0  0  0  0  0  0  0  0  0  0  0  0
    0.6925   -3.6354    1.2115 C   0  0  0  0  0  0  0  0  0  0  0  0
    1.7802   -3.3583    0.2331 C   0  0  0  0  0  0  0  0  0  0  0  0
    2.8372   -4.2729    0.0815 C   0  0  0  0  0  0  0  0  0  0  0  0
    3.8566   -4.0266   -0.8409 C   0  0  0  0  0  0  0  0  0  0  0  0
    3.8068   -2.8946   -1.6532 C   0  0  0  0  0  0  0  0  0  0  0  0
    2.7426   -1.9928   -1.5343 C   0  0  0  0  0  0  0  0  0  0  0  0
    2.5699   -0.6455   -2.7006 S   0  0  0  0  0  0  0  0  0  0  0  0
    1.4828   -1.5804   -3.8435 C   0  0  0  0  0  0  0  0  0  0  0  0
    2.2576   -2.6338   -4.6282 C   0  0  0  0  0  0  0  0  0  0  0  0
    1.7694   -2.1925   -0.5503 C   0  0  0  0  0  0  0  0  0  0  0  0
    0.9947   -3.8556    2.5697 C   0  0  0  0  0  0  0  0  0  0  0  0
    0.0173   -4.0205    3.5495 C   0  0  0  0  0  0  0  0  0  0  0  0
   -1.3464   -3.9961    3.2049 C   0  0  0  0  0  0  0  0  0  0  0  0
   -2.3971   -4.1131    4.2379 C   0  0  0  0  0  0  0  0  0  0  0  0
   -3.1925   -3.0046    4.5690 C   0  0  0  0  0  0  0  0  0  0  0  0
   -4.1352   -3.1012    5.5971 C   0  0  0  0  0  0  0  0  0  0  0  0
   -4.2814   -4.2940    6.3062 C   0  0  0  0  0  0  0  0  0  0  0  0
   -3.4892   -5.4024    5.9827 C   0  0  0  0  0  0  0  0  0  0  0  0
   -3.6468   -6.9254    6.9189 S   0  0  0  0  0  0  0  0  0  0  0  0
   -2.2810   -6.5020    8.0483 C   0  0  0  0  0  0  0  0  0  0  0  0
   -2.1253   -7.5789    9.1135 C   0  0  0  0  0  0  0  0  0  0  0  0
   -2.5602   -5.3145    4.9416 C   0  0  0  0  0  0  0  0  0  0  0  0
   -1.6595   -3.7457    1.8576 C   0  0  0  0  0  0  0  0  0  0  0  0
   -3.1559   -3.3599    1.2010 S   0  0  0  0  0  0  0  0  0  0  0  0
    0.5378   -4.0225    4.8575 C   0  0  0  0  0  0  0  0  0  0  0  0
    1.9171   -3.8036    4.9122 C   0  0  0  0  0  0  0  0  0  0  0  0
    2.4836   -3.6821    3.3300 S   0  0  0  0  0  0  0  0  0  0  0  0
    2.6338   -3.5084    6.1812 C   0  0  0  0  0  0  0  0  0  0  0  0
    3.7279   -2.7265    6.3305 C   0  0  0  0  0  0  0  0  0  0  0  0
    4.4818   -2.0406    5.2715 C   0  0  0  0  0  0  0  0  0  0  0  0
    4.9141   -2.5700    4.2151 O   0  0  0  0  0  0  0  0  0  0  0  0
    4.9116   -0.7502    5.7759 C   0  0  0  0  0  0  0  0  0  0  0  0
    5.4551    0.3333    5.0739 C   0  0  0  0  0  0  0  0  0  0  0  0
    5.8161    0.2445    3.3544 Cl  0  0  0  0  0  0  0  0  0  0  0  0
    5.6720    1.5306    5.7681 C   0  0  0  0  0  0  0  0  0  0  0  0
    5.3377    1.6333    7.1315 C   0  0  0  0  0  0  0  0  0  0  0  0
    4.7983    0.5323    7.8179 C   0  0  0  0  0  0  0  0  0  0  0  0
    4.6199   -0.6772    7.1247 C   0  0  0  0  0  0  0  0  0  0  0  0
    4.0243   -1.9605    7.5760 C   0  0  0  0  0  0  0  0  0  0  0  0
    3.9971   -2.4394    8.8442 C   0  0  0  0  0  0  0  0  0  0  0  0
    4.4660   -1.6675    9.9678 C   0  0  0  0  0  0  0  0  0  0  0  0
    4.8346   -1.0494   10.8758 N   0  0  0  0  0  0  0  0  0  0  0  0
    3.5858   -3.7902    9.1398 C   0  0  0  0  0  0  0  0  0  0  0  0
    3.2587   -4.8736    9.3849 N   0  0  0  0  0  0  0  0  0  0  0  0
    0.3559    7.8894   -2.9903 H   0  0  0  0  0  0  0  0  0  0  0  0
    7.4134    4.6109   -2.7930 H   0  0  0  0  0  0  0  0  0  0  0  0
    7.8165    7.0443   -2.5665 H   0  0  0  0  0  0  0  0  0  0  0  0
    5.9644    8.6384   -2.7170 H   0  0  0  0  0  0  0  0  0  0  0  0
    1.0602    3.0668    1.8708 H   0  0  0  0  0  0  0  0  0  0  0  0
    1.7877    4.6982    1.6176 H   0  0  0  0  0  0  0  0  0  0  0  0
    2.6509    2.1085    0.1511 H   0  0  0  0  0  0  0  0  0  0  0  0
    3.4235    3.7430    0.0058 H   0  0  0  0  0  0  0  0  0  0  0  0
    3.4946    2.8476    1.5651 H   0  0  0  0  0  0  0  0  0  0  0  0
   -4.4939    5.3985   -6.9478 H   0  0  0  0  0  0  0  0  0  0  0  0
   -3.1618    6.3438   -7.7035 H   0  0  0  0  0  0  0  0  0  0  0  0
   -2.0450    4.2710   -8.4436 H   0  0  0  0  0  0  0  0  0  0  0  0
   -3.2644    3.2653   -7.5780 H   0  0  0  0  0  0  0  0  0  0  0  0
   -3.7668    4.2640   -8.9971 H   0  0  0  0  0  0  0  0  0  0  0  0
   -1.6907    1.3540   -7.4995 H   0  0  0  0  0  0  0  0  0  0  0  0
    0.4948    1.7911   -8.4923 H   0  0  0  0  0  0  0  0  0  0  0  0
    2.5707   -0.1258   -8.0962 H   0  0  0  0  0  0  0  0  0  0  0  0
    4.3486    0.1967   -8.1559 H   0  0  0  0  0  0  0  0  0  0  0  0
    3.5486   -0.1310   -6.5683 H   0  0  0  0  0  0  0  0  0  0  0  0
    2.2567    2.0086   -4.5798 H   0  0  0  0  0  0  0  0  0  0  0  0
    0.0767    1.6108   -3.5563 H   0  0  0  0  0  0  0  0  0  0  0  0
   -4.6300    2.3976   -5.1705 H   0  0  0  0  0  0  0  0  0  0  0  0
   -6.6873    1.4557   -6.1139 H   0  0  0  0  0  0  0  0  0  0  0  0
   -8.6085   -2.3642   -5.4824 H   0  0  0  0  0  0  0  0  0  0  0  0
   -7.8172   -0.8888   -4.8009 H   0  0  0  0  0  0  0  0  0  0  0  0
   -6.8537   -2.4007   -5.0911 H   0  0  0  0  0  0  0  0  0  0  0  0
   -4.5668   -2.1581   -7.1275 H   0  0  0  0  0  0  0  0  0  0  0  0
   -2.4916   -1.2028   -6.2056 H   0  0  0  0  0  0  0  0  0  0  0  0
   -6.4073   -1.1450   -1.3382 H   0  0  0  0  0  0  0  0  0  0  0  0
   -8.4209   -2.5212   -1.0807 H   0  0  0  0  0  0  0  0  0  0  0  0
   -8.2090   -5.4076   -0.3968 H   0  0  0  0  0  0  0  0  0  0  0  0
   -7.7038   -5.6918    1.3251 H   0  0  0  0  0  0  0  0  0  0  0  0
   -9.2382   -6.4058    0.7028 H   0  0  0  0  0  0  0  0  0  0  0  0
   -7.4440   -3.2079    3.0567 H   0  0  0  0  0  0  0  0  0  0  0  0
   -5.4302   -1.8069    2.8208 H   0  0  0  0  0  0  0  0  0  0  0  0
   -1.9078   -0.2795    1.1790 H   0  0  0  0  0  0  0  0  0  0  0  0
   -1.0155    1.2330    2.9009 H   0  0  0  0  0  0  0  0  0  0  0  0
   -3.1056    4.7292    3.2406 H   0  0  0  0  0  0  0  0  0  0  0  0
   -1.7055    5.3092    4.2258 H   0  0  0  0  0  0  0  0  0  0  0  0
   -1.4149    4.1903    2.8464 H   0  0  0  0  0  0  0  0  0  0  0  0
   -5.0143    2.4630    3.9125 H   0  0  0  0  0  0  0  0  0  0  0  0
   -5.9202    0.9643    2.1866 H   0  0  0  0  0  0  0  0  0  0  0  0
   -0.6189   -2.9539   -1.2283 H   0  0  0  0  0  0  0  0  0  0  0  0
    2.8681   -5.1743    0.6824 H   0  0  0  0  0  0  0  0  0  0  0  0
    4.6670   -4.7330   -0.9453 H   0  0  0  0  0  0  0  0  0  0  0  0
    4.5759   -2.7365   -2.3973 H   0  0  0  0  0  0  0  0  0  0  0  0
    1.0403   -0.8697   -4.5665 H   0  0  0  0  0  0  0  0  0  0  0  0
    0.6483   -2.0554   -3.2856 H   0  0  0  0  0  0  0  0  0  0  0  0
    3.1823   -2.1969   -5.0544 H   0  0  0  0  0  0  0  0  0  0  0  0
    1.6265   -3.0183   -5.4532 H   0  0  0  0  0  0  0  0  0  0  0  0
    2.5122   -3.4926   -3.9735 H   0  0  0  0  0  0  0  0  0  0  0  0
    0.9814   -1.4523   -0.4291 H   0  0  0  0  0  0  0  0  0  0  0  0
   -3.0672   -2.0627    4.0460 H   0  0  0  0  0  0  0  0  0  0  0  0
   -4.7415   -2.2380    5.8575 H   0  0  0  0  0  0  0  0  0  0  0  0
   -4.9979   -4.3526    7.1111 H   0  0  0  0  0  0  0  0  0  0  0  0
   -1.3317   -6.4306    7.4775 H   0  0  0  0  0  0  0  0  0  0  0  0
   -2.4853   -5.5297    8.5402 H   0  0  0  0  0  0  0  0  0  0  0  0
   -1.2683   -7.3269    9.7738 H   0  0  0  0  0  0  0  0  0  0  0  0
   -1.9263   -8.5624    8.6368 H   0  0  0  0  0  0  0  0  0  0  0  0
   -3.0453   -7.6459    9.7308 H   0  0  0  0  0  0  0  0  0  0  0  0
   -1.9423   -6.1703    4.6978 H   0  0  0  0  0  0  0  0  0  0  0  0
   -0.0775   -4.0802    5.7459 H   0  0  0  0  0  0  0  0  0  0  0  0
    2.0649   -3.7575    7.0682 H   0  0  0  0  0  0  0  0  0  0  0  0
    6.0683    2.3954    5.2533 H   0  0  0  0  0  0  0  0  0  0  0  0
    5.4774    2.5728    7.6499 H   0  0  0  0  0  0  0  0  0  0  0  0
    4.4992    0.6529    8.8461 H   0  0  0  0  0  0  0  0  0  0  0  0
  1  2  2  3
  2  3  1  0
  3  4  2  0
  3  5  1  0
  5  6  2  0
  6  7  1  0
  6  8  1  0
  8  9  2  0
  9 10  1  0
 10 11  2  0
 11 12  1  0
 12 13  2  3
 13 14  1  0
 14 15  3  0
 13 16  1  0
 16 17  3  0
  1 18  1  0
 18 19  2  0
 19 20  1  0
 20 21  2  0
 21 22  1  0
 22 23  1  0
 21 24  1  0
 24 25  1  0
 25 26  2  0
 26 27  1  0
 27 28  2  0
 28 29  1  0
 29 30  1  0
 30 31  1  0
 31 32  1  0
 30 33  2  0
 26 34  1  0
 34 35  2  0
 35 36  1  0
 36 37  1  0
 37 38  2  0
 38 39  1  0
 39 40  2  0
 40 41  1  0
 41 42  1  0
 40 43  1  0
 43 44  2  0
 36 45  1  0
 45 46  2  0
 46 47  1  0
 47 48  2  0
 48 49  1  0
 49 50  1  0
 48 51  1  0
 51 52  2  0
 35 53  1  0
 53 54  1  0
 54 55  1  0
 55 56  2  0
 56 57  1  0
 57 58  1  0
 58 59  2  0
 59 60  1  0
 60 61  2  0
 61 62  1  0
 62 63  1  0
 61 64  1  0
 64 65  2  0
 57 66  1  0
 66 67  2  0
 67 68  1  0
 68 69  2  0
 69 70  1  0
 70 71  1  0
 69 72  1  0
 72 73  2  0
 56 74  1  0
 74 75  1  0
 55 76  1  0
 76 77  2  0
 77 78  1  0
 78 79  2  0
 79 80  1  0
 80 81  2  0
 81 82  1  0
 82 83  2  0
 83 84  1  0
 84 85  1  0
 85 86  1  0
 86 87  1  0
 84 88  2  0
 79 89  1  0
 89 90  2  0
 90 91  1  0
 91 92  1  0
 92 93  2  0
 93 94  1  0
 94 95  2  0
 95 96  1  0
 96 97  1  0
 97 98  1  0
 98 99  1  0
 96100  2  0
 91101  2  0
101102  1  0
 90103  1  0
103104  2  0
104105  1  0
104106  1  0
106107  2  3
107108  1  0
108109  2  0
108110  1  0
110111  2  0
111112  1  0
111113  1  0
113114  2  0
114115  1  0
115116  2  0
116117  1  0
117118  2  3
118119  1  0
119120  3  0
118121  1  0
121122  3  0
 12  2  1  0
 28 18  1  0
 75 34  1  0
102 76  1  0
117107  1  0
 11  5  1  0
 25 19  1  0
 33 27  1  0
 44 37  1  0
 52 45  1  0
 74 53  2  0
101 78  1  0
116110  1  0
 65 58  1  0
 73 66  1  0
 88 80  1  0
105 89  1  0
100 92  1  0
  1123  1  0
  8124  1  0
  9125  1  0
 10126  1  0
 22127  1  0
 22128  1  0
 23129  1  0
 23130  1  0
 23131  1  0
 31132  1  0
 31133  1  0
 32134  1  0
 32135  1  0
 32136  1  0
 38137  1  0
 39138  1  0
 42139  1  0
 42140  1  0
 42141  1  0
 43142  1  0
 44143  1  0
 46144  1  0
 47145  1  0
 50146  1  0
 50147  1  0
 50148  1  0
 51149  1  0
 52150  1  0
 59151  1  0
 60152  1  0
 63153  1  0
 63154  1  0
 63155  1  0
 64156  1  0
 65157  1  0
 67158  1  0
 68159  1  0
 71160  1  0
 71161  1  0
 71162  1  0
 72163  1  0
 73164  1  0
 77165  1  0
 81166  1  0
 82167  1  0
 83168  1  0
 86169  1  0
 86170  1  0
 87171  1  0
 87172  1  0
 87173  1  0
 88174  1  0
 93175  1  0
 94176  1  0
 95177  1  0
 98178  1  0
 98179  1  0
 99180  1  0
 99181  1  0
 99182  1  0
100183  1  0
103184  1  0
106185  1  0
113186  1  0
114187  1  0
115188  1  0
M  END

