
     RDKit          3D

120130  0  0  0  0  0  0  0  0999 V2000
    6.7889   -1.6453    2.9325 C   0  0  0  0  0  0  0  0  0  0  0  0
    6.3072   -2.8905    3.1206 C   0  0  0  0  0  0  0  0  0  0  0  0
    7.1620   -4.0675    3.1722 C   0  0  0  0  0  0  0  0  0  0  0  0
    8.3927   -4.0794    3.4429 O   0  0  0  0  0  0  0  0  0  0  0  0
    6.3792   -5.2096    2.7419 C   0  0  0  0  0  0  0  0  0  0  0  0
    6.8311   -6.5126    2.5322 C   0  0  0  0  0  0  0  0  0  0  0  0
    5.9237   -7.4656    2.0638 C   0  0  0  0  0  0  0  0  0  0  0  0
    4.5904   -7.1108    1.8075 C   0  0  0  0  0  0  0  0  0  0  0  0
    4.1367   -5.7835    2.0115 C   0  0  0  0  0  0  0  0  0  0  0  0
    2.8113   -5.4244    1.7355 O   0  0  0  0  0  0  0  0  0  0  0  0
    1.8237   -6.2996    1.1986 C   0  0  0  0  0  0  0  0  0  0  0  0
    5.0622   -4.8264    2.4899 C   0  0  0  0  0  0  0  0  0  0  0  0
    4.9209   -3.3746    2.8417 C   0  0  0  0  0  0  0  0  0  0  0  0
    3.8004   -2.7352    3.2547 C   0  0  0  0  0  0  0  0  0  0  0  0
    3.8663   -1.6902    4.2444 C   0  0  0  0  0  0  0  0  0  0  0  0
    3.9150   -0.8467    5.0337 N   0  0  0  0  0  0  0  0  0  0  0  0
    2.5143   -2.9092    2.6375 C   0  0  0  0  0  0  0  0  0  0  0  0
    1.4720   -3.0040    2.1353 N   0  0  0  0  0  0  0  0  0  0  0  0
    5.9829   -0.5780    2.2998 C   0  0  0  0  0  0  0  0  0  0  0  0
    5.3858   -0.7705    1.0386 C   0  0  0  0  0  0  0  0  0  0  0  0
    5.6980   -1.8528    0.2731 N   0  0  0  0  0  0  0  0  0  0  0  0
    5.1003   -2.0727   -0.9277 C   0  0  0  0  0  0  0  0  0  0  0  0
    4.1376   -1.1745   -1.3892 C   0  0  0  0  0  0  0  0  0  0  0  0
    3.5334   -1.3780   -2.6336 O   0  0  0  0  0  0  0  0  0  0  0  0
    2.7921   -0.3666   -3.3170 C   0  0  0  0  0  0  0  0  0  0  0  0
    3.7486    0.6283   -3.9653 C   0  0  0  0  0  0  0  0  0  0  0  0
    3.8024   -0.1073   -0.6175 N   0  0  0  0  0  0  0  0  0  0  0  0
    4.4031    0.1274    0.5810 C   0  0  0  0  0  0  0  0  0  0  0  0
    4.0064    1.2047    1.3925 C   0  0  0  0  0  0  0  0  0  0  0  0
    4.7158    1.4727    2.5724 C   0  0  0  0  0  0  0  0  0  0  0  0
    5.7212    0.6015    3.0066 C   0  0  0  0  0  0  0  0  0  0  0  0
    2.6910    1.8416    1.1711 C   0  0  0  0  0  0  0  0  0  0  0  0
    1.5994    1.4835    1.9816 C   0  0  0  0  0  0  0  0  0  0  0  0
    1.7027    0.7177    3.1008 N   0  0  0  0  0  0  0  0  0  0  0  0
    0.4951    0.4750    3.6638 C   0  0  0  0  0  0  0  0  0  0  0  0
    0.3355   -0.4001    4.8728 C   0  0  0  0  0  0  0  0  0  0  0  0
   -1.0181   -0.2287    5.5581 C   0  0  0  0  0  0  0  0  0  0  0  0
   -0.7573    1.1654    2.7568 S   0  0  0  0  0  0  0  0  0  0  0  0
    0.2950    1.8244    1.6202 C   0  0  0  0  0  0  0  0  0  0  0  0
   -0.0035    2.5481    0.4529 C   0  0  0  0  0  0  0  0  0  0  0  0
    1.0925    2.9527   -0.3321 C   0  0  0  0  0  0  0  0  0  0  0  0
    2.3994    2.6026    0.0290 C   0  0  0  0  0  0  0  0  0  0  0  0
    3.4505    3.1465   -1.1604 S   0  0  0  0  0  0  0  0  0  0  0  0
    2.1937    3.7877   -2.0983 C   0  0  0  0  0  0  0  0  0  0  0  0
    2.3890    4.4969   -3.4054 C   0  0  0  0  0  0  0  0  0  0  0  0
    1.3881    4.0209   -4.4547 C   0  0  0  0  0  0  0  0  0  0  0  0
    0.9811    3.6076   -1.5192 N   0  0  0  0  0  0  0  0  0  0  0  0
   -1.3946    2.7444    0.0049 C   0  0  0  0  0  0  0  0  0  0  0  0
   -1.9858    3.9419   -0.3772 C   0  0  0  0  0  0  0  0  0  0  0  0
   -1.2613    5.1422   -0.2798 O   0  0  0  0  0  0  0  0  0  0  0  0
   -1.7744    6.4568   -0.4935 C   0  0  0  0  0  0  0  0  0  0  0  0
   -1.6771    6.8296   -1.9694 C   0  0  0  0  0  0  0  0  0  0  0  0
   -3.3350    3.7955   -0.8032 C   0  0  0  0  0  0  0  0  0  0  0  0
   -4.0553    4.8913   -1.3076 O   0  0  0  0  0  0  0  0  0  0  0  0
   -5.4141    4.9252   -1.7293 C   0  0  0  0  0  0  0  0  0  0  0  0
   -6.3160    5.2918   -0.5585 C   0  0  0  0  0  0  0  0  0  0  0  0
   -3.7868    2.4623   -0.7200 C   0  0  0  0  0  0  0  0  0  0  0  0
   -2.5267    1.5221   -0.1221 S   0  0  0  0  0  0  0  0  0  0  0  0
   -5.1528    1.9269   -0.8699 C   0  0  0  0  0  0  0  0  0  0  0  0
   -5.4370    0.8398   -1.6163 C   0  0  0  0  0  0  0  0  0  0  0  0
   -4.4797    0.1211   -2.4613 C   0  0  0  0  0  0  0  0  0  0  0  0
   -3.3901    0.5700   -2.9064 O   0  0  0  0  0  0  0  0  0  0  0  0
   -5.0262   -1.1802   -2.7673 C   0  0  0  0  0  0  0  0  0  0  0  0
   -4.4016   -2.2225   -3.4514 C   0  0  0  0  0  0  0  0  0  0  0  0
   -5.0963   -3.4334   -3.6114 C   0  0  0  0  0  0  0  0  0  0  0  0
   -4.5070   -4.5066   -4.2958 C   0  0  0  0  0  0  0  0  0  0  0  0
   -5.2048   -5.7082   -4.4451 C   0  0  0  0  0  0  0  0  0  0  0  0
   -6.4946   -5.8475   -3.9229 C   0  0  0  0  0  0  0  0  0  0  0  0
   -7.1669   -7.0136   -4.0859 F   0  0  0  0  0  0  0  0  0  0  0  0
   -7.0945   -4.7899   -3.2361 C   0  0  0  0  0  0  0  0  0  0  0  0
   -6.4080   -3.5735   -3.0729 C   0  0  0  0  0  0  0  0  0  0  0  0
   -7.0043   -2.5023   -2.3746 C   0  0  0  0  0  0  0  0  0  0  0  0
   -6.2996   -1.2931   -2.2315 C   0  0  0  0  0  0  0  0  0  0  0  0
   -6.6747   -0.0058   -1.5685 C   0  0  0  0  0  0  0  0  0  0  0  0
   -7.9086    0.3621   -1.1281 C   0  0  0  0  0  0  0  0  0  0  0  0
   -9.0310   -0.5396   -1.0890 C   0  0  0  0  0  0  0  0  0  0  0  0
   -9.9484   -1.2476   -1.0487 N   0  0  0  0  0  0  0  0  0  0  0  0
   -8.2296    1.7101   -0.7449 C   0  0  0  0  0  0  0  0  0  0  0  0
   -8.5050    2.7901   -0.4350 N   0  0  0  0  0  0  0  0  0  0  0  0
    7.8313   -1.4376    3.1317 H   0  0  0  0  0  0  0  0  0  0  0  0
    7.8662   -6.7796    2.7175 H   0  0  0  0  0  0  0  0  0  0  0  0
    6.2512   -8.4847    1.8936 H   0  0  0  0  0  0  0  0  0  0  0  0
    3.9187   -7.8784    1.4471 H   0  0  0  0  0  0  0  0  0  0  0  0
    1.6641   -7.1641    1.8791 H   0  0  0  0  0  0  0  0  0  0  0  0
    0.8681   -5.7474    1.0948 H   0  0  0  0  0  0  0  0  0  0  0  0
    2.1315   -6.6429    0.1860 H   0  0  0  0  0  0  0  0  0  0  0  0
    5.3756   -2.9366   -1.5221 H   0  0  0  0  0  0  0  0  0  0  0  0
    2.1012    0.1547   -2.6191 H   0  0  0  0  0  0  0  0  0  0  0  0
    2.1811   -0.8473   -4.1103 H   0  0  0  0  0  0  0  0  0  0  0  0
    3.1742    1.4058   -4.5085 H   0  0  0  0  0  0  0  0  0  0  0  0
    4.4050    0.1045   -4.6908 H   0  0  0  0  0  0  0  0  0  0  0  0
    4.3816    1.1140   -3.1966 H   0  0  0  0  0  0  0  0  0  0  0  0
    4.4218    2.3004    3.2092 H   0  0  0  0  0  0  0  0  0  0  0  0
    6.2021    0.7833    3.9596 H   0  0  0  0  0  0  0  0  0  0  0  0
    0.4545   -1.4610    4.5631 H   0  0  0  0  0  0  0  0  0  0  0  0
    1.1365   -0.1526    5.6017 H   0  0  0  0  0  0  0  0  0  0  0  0
   -1.1807    0.8329    5.8467 H   0  0  0  0  0  0  0  0  0  0  0  0
   -1.8392   -0.5574    4.8837 H   0  0  0  0  0  0  0  0  0  0  0  0
   -1.0500   -0.8533    6.4736 H   0  0  0  0  0  0  0  0  0  0  0  0
    3.4201    4.3019   -3.7748 H   0  0  0  0  0  0  0  0  0  0  0  0
    2.2764    5.5880   -3.2488 H   0  0  0  0  0  0  0  0  0  0  0  0
    1.6783    4.4192   -5.4486 H   0  0  0  0  0  0  0  0  0  0  0  0
    1.3721    2.9151   -4.5120 H   0  0  0  0  0  0  0  0  0  0  0  0
    0.3678    4.3860   -4.2021 H   0  0  0  0  0  0  0  0  0  0  0  0
   -1.1541    7.1723    0.0906 H   0  0  0  0  0  0  0  0  0  0  0  0
   -2.8133    6.5536   -0.1148 H   0  0  0  0  0  0  0  0  0  0  0  0
   -2.2831    7.7345   -2.1778 H   0  0  0  0  0  0  0  0  0  0  0  0
   -2.0287    5.9944   -2.6091 H   0  0  0  0  0  0  0  0  0  0  0  0
   -0.6194    7.0310   -2.2170 H   0  0  0  0  0  0  0  0  0  0  0  0
   -5.7294    3.9814   -2.2161 H   0  0  0  0  0  0  0  0  0  0  0  0
   -5.5105    5.7217   -2.4939 H   0  0  0  0  0  0  0  0  0  0  0  0
   -7.3810    5.2987   -0.8775 H   0  0  0  0  0  0  0  0  0  0  0  0
   -6.1945    4.5712    0.2770 H   0  0  0  0  0  0  0  0  0  0  0  0
   -6.0484    6.3025   -0.1849 H   0  0  0  0  0  0  0  0  0  0  0  0
   -5.8886    2.3519   -0.2103 H   0  0  0  0  0  0  0  0  0  0  0  0
   -3.4018   -2.0962   -3.8446 H   0  0  0  0  0  0  0  0  0  0  0  0
   -3.5085   -4.4197   -4.7071 H   0  0  0  0  0  0  0  0  0  0  0  0
   -4.7463   -6.5301   -4.9798 H   0  0  0  0  0  0  0  0  0  0  0  0
   -8.0951   -4.9127   -2.8416 H   0  0  0  0  0  0  0  0  0  0  0  0
   -7.9782   -2.6428   -1.9488 H   0  0  0  0  0  0  0  0  0  0  0  0
  1  2  2  3
  2  3  1  0
  3  4  2  0
  3  5  1  0
  5  6  2  0
  6  7  1  0
  7  8  2  0
  8  9  1  0
  9 10  1  0
 10 11  1  0
  9 12  2  0
 12 13  1  0
 13 14  2  3
 14 15  1  0
 15 16  3  0
 14 17  1  0
 17 18  3  0
  1 19  1  0
 19 20  1  0
 20 21  2  0
 21 22  1  0
 22 23  2  0
 23 24  1  0
 24 25  1  0
 25 26  1  0
 23 27  1  0
 27 28  2  0
 28 29  1  0
 29 30  2  0
 30 31  1  0
 29 32  1  0
 32 33  2  0
 33 34  1  0
 34 35  2  0
 35 36  1  0
 36 37  1  0
 35 38  1  0
 38 39  1  0
 39 40  2  0
 40 41  1  0
 41 42  2  0
 42 43  1  0
 43 44  1  0
 44 45  1  0
 45 46  1  0
 44 47  2  0
 40 48  1  0
 48 49  2  0
 49 50  1  0
 50 51  1  0
 51 52  1  0
 49 53  1  0
 53 54  1  0
 54 55  1  0
 55 56  1  0
 53 57  2  0
 57 58  1  0
 57 59  1  0
 59 60  2  3
 60 61  1  0
 61 62  2  0
 61 63  1  0
 63 64  2  0
 64 65  1  0
 65 66  2  0
 66 67  1  0
 67 68  2  0
 68 69  1  0
 68 70  1  0
 70 71  2  0
 71 72  1  0
 72 73  2  0
 73 74  1  0
 74 75  2  3
 75 76  1  0
 76 77  3  0
 75 78  1  0
 78 79  3  0
 13  2  1  0
 31 19  2  0
 42 32  1  0
 58 48  1  0
 74 60  1  0
 12  5  1  0
 28 20  1  0
 39 33  1  0
 47 41  1  0
 73 63  1  0
 71 65  1  0
  1 80  1  0
  6 81  1  0
  7 82  1  0
  8 83  1  0
 11 84  1  0
 11 85  1  0
 11 86  1  0
 22 87  1  0
 25 88  1  0
 25 89  1  0
 26 90  1  0
 26 91  1  0
 26 92  1  0
 30 93  1  0
 31 94  1  0
 36 95  1  0
 36 96  1  0
 37 97  1  0
 37 98  1  0
 37 99  1  0
 45100  1  0
 45101  1  0
 46102  1  0
 46103  1  0
 46104  1  0
 51105  1  0
 51106  1  0
 52107  1  0
 52108  1  0
 52109  1  0
 55110  1  0
 55111  1  0
 56112  1  0
 56113  1  0
 56114  1  0
 59115  1  0
 64116  1  0
 66117  1  0
 67118  1  0
 70119  1  0
 72120  1  0
M  END

