
     RDKit          3D

223241  0  0  0  0  0  0  0  0999 V2000
   -4.7561    5.4789   -1.9710 C   0  0  0  0  0  0  0  0  0  0  0  0
   -5.9963    5.8964   -1.6580 C   0  0  0  0  0  0  0  0  0  0  0  0
   -6.8193    5.3761   -0.5612 C   0  0  0  0  0  0  0  0  0  0  0  0
   -6.6440    4.2973    0.0683 O   0  0  0  0  0  0  0  0  0  0  0  0
   -7.8147    6.3746   -0.2349 C   0  0  0  0  0  0  0  0  0  0  0  0
   -8.6982    6.3721    0.8378 C   0  0  0  0  0  0  0  0  0  0  0  0
   -9.4686    7.5233    1.0825 C   0  0  0  0  0  0  0  0  0  0  0  0
  -10.3585    7.5060    2.1709 O   0  0  0  0  0  0  0  0  0  0  0  0
  -11.1493    8.6192    2.5721 C   0  0  0  0  0  0  0  0  0  0  0  0
   -9.3137    8.6598    0.2463 C   0  0  0  0  0  0  0  0  0  0  0  0
   -8.4147    8.6370   -0.8318 C   0  0  0  0  0  0  0  0  0  0  0  0
   -7.6772    7.4646   -1.0788 C   0  0  0  0  0  0  0  0  0  0  0  0
   -6.6189    7.1845   -2.0861 C   0  0  0  0  0  0  0  0  0  0  0  0
   -6.4168    7.8358   -3.2608 C   0  0  0  0  0  0  0  0  0  0  0  0
   -5.5285    7.3335   -4.2726 C   0  0  0  0  0  0  0  0  0  0  0  0
   -4.8147    6.9375   -5.0931 N   0  0  0  0  0  0  0  0  0  0  0  0
   -7.1969    8.9788   -3.6489 C   0  0  0  0  0  0  0  0  0  0  0  0
   -7.8152    9.9000   -3.9817 N   0  0  0  0  0  0  0  0  0  0  0  0
   -4.1176    4.2594   -1.4530 C   0  0  0  0  0  0  0  0  0  0  0  0
   -2.7952    4.2145   -1.0072 C   0  0  0  0  0  0  0  0  0  0  0  0
   -2.0276    5.3580   -0.6086 N   0  0  0  0  0  0  0  0  0  0  0  0
   -1.3776    6.1972   -1.5697 C   0  0  0  0  0  0  0  0  0  0  0  0
   -1.4848    7.5919   -1.4635 C   0  0  0  0  0  0  0  0  0  0  0  0
   -0.8105    8.4197   -2.3612 C   0  0  0  0  0  0  0  0  0  0  0  0
    0.0002    7.8617   -3.3547 C   0  0  0  0  0  0  0  0  0  0  0  0
    0.9226    8.9287   -4.4675 S   0  0  0  0  0  0  0  0  0  0  0  0
    2.2934    9.1715   -3.2903 C   0  0  0  0  0  0  0  0  0  0  0  0
    0.1098    6.4675   -3.4705 C   0  0  0  0  0  0  0  0  0  0  0  0
   -0.5861    5.6378   -2.5904 C   0  0  0  0  0  0  0  0  0  0  0  0
   -1.7869    5.5500    0.7916 C   0  0  0  0  0  0  0  0  0  0  0  0
   -2.8264    5.9681    1.6308 C   0  0  0  0  0  0  0  0  0  0  0  0
   -2.6064    6.1096    3.0005 C   0  0  0  0  0  0  0  0  0  0  0  0
   -1.3531    5.7887    3.5431 C   0  0  0  0  0  0  0  0  0  0  0  0
   -1.0569    6.0118    5.2981 S   0  0  0  0  0  0  0  0  0  0  0  0
   -0.4043    7.6988    5.0855 C   0  0  0  0  0  0  0  0  0  0  0  0
   -0.3220    5.3360    2.7116 C   0  0  0  0  0  0  0  0  0  0  0  0
   -0.5365    5.2133    1.3387 C   0  0  0  0  0  0  0  0  0  0  0  0
   -2.3578    2.9121   -0.8556 C   0  0  0  0  0  0  0  0  0  0  0  0
   -0.8650    2.2351   -0.5651 S   0  0  0  0  0  0  0  0  0  0  0  0
   -1.3647    0.6355   -0.8662 C   0  0  0  0  0  0  0  0  0  0  0  0
   -2.7501    0.6503   -1.1414 C   0  0  0  0  0  0  0  0  0  0  0  0
   -3.5738   -0.5131   -1.2272 N   0  0  0  0  0  0  0  0  0  0  0  0
   -4.2594   -0.9151   -0.0247 C   0  0  0  0  0  0  0  0  0  0  0  0
   -3.5415   -1.1070    1.1691 C   0  0  0  0  0  0  0  0  0  0  0  0
   -4.2085   -1.4146    2.3563 C   0  0  0  0  0  0  0  0  0  0  0  0
   -5.6048   -1.5077    2.3714 C   0  0  0  0  0  0  0  0  0  0  0  0
   -6.4647   -1.8694    3.9028 S   0  0  0  0  0  0  0  0  0  0  0  0
   -6.5989   -0.1171    4.3826 C   0  0  0  0  0  0  0  0  0  0  0  0
   -6.3307   -1.3157    1.1900 C   0  0  0  0  0  0  0  0  0  0  0  0
   -5.6618   -1.0231   -0.0023 C   0  0  0  0  0  0  0  0  0  0  0  0
   -3.9050   -1.0890   -2.5106 C   0  0  0  0  0  0  0  0  0  0  0  0
   -4.2484   -2.4456   -2.6059 C   0  0  0  0  0  0  0  0  0  0  0  0
   -4.6118   -3.0047   -3.8336 C   0  0  0  0  0  0  0  0  0  0  0  0
   -4.6394   -2.2100   -4.9842 C   0  0  0  0  0  0  0  0  0  0  0  0
   -5.1487   -2.9153   -6.5526 S   0  0  0  0  0  0  0  0  0  0  0  0
   -6.9108   -2.5415   -6.2896 C   0  0  0  0  0  0  0  0  0  0  0  0
   -4.2657   -0.8639   -4.9092 C   0  0  0  0  0  0  0  0  0  0  0  0
   -3.8975   -0.3044   -3.6837 C   0  0  0  0  0  0  0  0  0  0  0  0
   -3.2544    1.9496   -1.1573 C   0  0  0  0  0  0  0  0  0  0  0  0
   -4.7011    2.6616   -1.6480 S   0  0  0  0  0  0  0  0  0  0  0  0
   -0.4250   -0.5054   -0.9807 C   0  0  0  0  0  0  0  0  0  0  0  0
    0.9572   -0.3883   -1.2256 C   0  0  0  0  0  0  0  0  0  0  0  0
    1.6310    0.8072   -1.6371 N   0  0  0  0  0  0  0  0  0  0  0  0
    2.2393    1.7171   -0.6904 C   0  0  0  0  0  0  0  0  0  0  0  0
    2.5764    3.0309   -1.0820 C   0  0  0  0  0  0  0  0  0  0  0  0
    3.1362    3.9260   -0.1687 C   0  0  0  0  0  0  0  0  0  0  0  0
    3.3722    3.5198    1.1511 C   0  0  0  0  0  0  0  0  0  0  0  0
    4.1316    4.6536    2.3152 S   0  0  0  0  0  0  0  0  0  0  0  0
    5.8256    4.1250    1.8967 C   0  0  0  0  0  0  0  0  0  0  0  0
    3.0246    2.2311    1.5595 C   0  0  0  0  0  0  0  0  0  0  0  0
    2.4631    1.3308    0.6475 C   0  0  0  0  0  0  0  0  0  0  0  0
    1.7661    1.0281   -3.0489 C   0  0  0  0  0  0  0  0  0  0  0  0
    3.0006    0.8075   -3.6766 C   0  0  0  0  0  0  0  0  0  0  0  0
    3.1464    1.0577   -5.0440 C   0  0  0  0  0  0  0  0  0  0  0  0
    2.0607    1.5348   -5.7899 C   0  0  0  0  0  0  0  0  0  0  0  0
    2.2732    1.9468   -7.5223 S   0  0  0  0  0  0  0  0  0  0  0  0
    2.7598    3.6686   -7.1678 C   0  0  0  0  0  0  0  0  0  0  0  0
    0.8196    1.7295   -5.1692 C   0  0  0  0  0  0  0  0  0  0  0  0
    0.6730    1.4784   -3.8050 C   0  0  0  0  0  0  0  0  0  0  0  0
    1.5680   -1.6316   -1.2655 C   0  0  0  0  0  0  0  0  0  0  0  0
    3.1379   -2.1302   -1.4766 S   0  0  0  0  0  0  0  0  0  0  0  0
    2.8083   -3.8037   -1.3327 C   0  0  0  0  0  0  0  0  0  0  0  0
    1.4094   -3.9506   -1.1204 C   0  0  0  0  0  0  0  0  0  0  0  0
    0.6686   -5.1782   -1.0977 N   0  0  0  0  0  0  0  0  0  0  0  0
    0.1170   -5.6956    0.1479 C   0  0  0  0  0  0  0  0  0  0  0  0
    0.0701   -4.8975    1.3139 C   0  0  0  0  0  0  0  0  0  0  0  0
   -0.3634   -5.4371    2.5292 C   0  0  0  0  0  0  0  0  0  0  0  0
   -0.7497   -6.7770    2.6053 C   0  0  0  0  0  0  0  0  0  0  0  0
   -1.2683   -7.4725    4.1777 S   0  0  0  0  0  0  0  0  0  0  0  0
   -3.0079   -6.9935    3.9476 C   0  0  0  0  0  0  0  0  0  0  0  0
   -0.7082   -7.5839    1.4624 C   0  0  0  0  0  0  0  0  0  0  0  0
   -0.2789   -7.0474    0.2442 C   0  0  0  0  0  0  0  0  0  0  0  0
    0.2944   -5.7526   -2.3679 C   0  0  0  0  0  0  0  0  0  0  0  0
   -1.0601   -5.9984   -2.6625 C   0  0  0  0  0  0  0  0  0  0  0  0
   -1.4251   -6.5564   -3.8899 C   0  0  0  0  0  0  0  0  0  0  0  0
   -0.4404   -6.8773   -4.8350 C   0  0  0  0  0  0  0  0  0  0  0  0
   -0.9068   -7.6123   -6.4051 S   0  0  0  0  0  0  0  0  0  0  0  0
   -0.8381   -9.3188   -5.7711 C   0  0  0  0  0  0  0  0  0  0  0  0
    0.9063   -6.6216   -4.5563 C   0  0  0  0  0  0  0  0  0  0  0  0
    1.2716   -6.0567   -3.3349 C   0  0  0  0  0  0  0  0  0  0  0  0
    0.7670   -2.7032   -1.0958 C   0  0  0  0  0  0  0  0  0  0  0  0
   -0.8196   -2.1720   -0.8945 S   0  0  0  0  0  0  0  0  0  0  0  0
    3.9514   -4.7740   -1.3129 C   0  0  0  0  0  0  0  0  0  0  0  0
    4.1981   -5.7899   -0.3551 C   0  0  0  0  0  0  0  0  0  0  0  0
    3.1022   -6.7068    0.1277 C   0  0  0  0  0  0  0  0  0  0  0  0
    3.5449   -8.1207    0.4840 C   0  0  0  0  0  0  0  0  0  0  0  0
    5.5852   -5.9187   -0.0287 C   0  0  0  0  0  0  0  0  0  0  0  0
    6.3978   -5.1732   -0.8556 C   0  0  0  0  0  0  0  0  0  0  0  0
    5.4609   -4.2413   -1.8617 S   0  0  0  0  0  0  0  0  0  0  0  0
    7.5428   -4.7122   -0.1264 C   0  0  0  0  0  0  0  0  0  0  0  0
    7.4515   -5.1685    1.1614 C   0  0  0  0  0  0  0  0  0  0  0  0
    6.2724   -6.1235    1.3441 C   0  0  0  0  0  0  0  0  0  0  0  0
    6.7606   -7.6016    1.4733 C   0  0  0  0  0  0  0  0  0  0  0  0
    8.0889   -7.7803    2.2165 C   0  0  0  0  0  0  0  0  0  0  0  0
    5.3249   -5.6558    2.4994 C   0  0  0  0  0  0  0  0  0  0  0  0
    5.7209   -6.0431    3.9270 C   0  0  0  0  0  0  0  0  0  0  0  0
    8.0943   -4.3331    2.0867 C   0  0  0  0  0  0  0  0  0  0  0  0
    8.5449   -3.1452    1.5115 C   0  0  0  0  0  0  0  0  0  0  0  0
    8.2480   -3.1888   -0.1455 S   0  0  0  0  0  0  0  0  0  0  0  0
    9.0665   -1.9530    2.2038 C   0  0  0  0  0  0  0  0  0  0  0  0
    8.5361   -1.3874    3.3150 C   0  0  0  0  0  0  0  0  0  0  0  0
    7.2437   -1.7360    3.9398 C   0  0  0  0  0  0  0  0  0  0  0  0
    6.4862   -2.6860    3.6247 O   0  0  0  0  0  0  0  0  0  0  0  0
    6.8771   -0.6901    4.8685 C   0  0  0  0  0  0  0  0  0  0  0  0
    5.7120   -0.5864    5.6238 C   0  0  0  0  0  0  0  0  0  0  0  0
    5.4837    0.5906    6.3657 C   0  0  0  0  0  0  0  0  0  0  0  0
    4.3366    0.7767    7.1489 O   0  0  0  0  0  0  0  0  0  0  0  0
    3.4539   -0.2759    7.5454 C   0  0  0  0  0  0  0  0  0  0  0  0
    6.4283    1.6307    6.3064 C   0  0  0  0  0  0  0  0  0  0  0  0
    7.6037    1.5000    5.5441 C   0  0  0  0  0  0  0  0  0  0  0  0
    7.8368    0.3092    4.8429 C   0  0  0  0  0  0  0  0  0  0  0  0
    8.9735   -0.1124    3.9671 C   0  0  0  0  0  0  0  0  0  0  0  0
   10.2074    0.4666    3.8960 C   0  0  0  0  0  0  0  0  0  0  0  0
   11.3069   -0.1575    3.2119 C   0  0  0  0  0  0  0  0  0  0  0  0
   12.2056   -0.6352    2.6650 N   0  0  0  0  0  0  0  0  0  0  0  0
   10.5400    1.6777    4.5983 C   0  0  0  0  0  0  0  0  0  0  0  0
   10.7964    2.6711    5.1403 N   0  0  0  0  0  0  0  0  0  0  0  0
   -4.1209    6.1107   -2.5720 H   0  0  0  0  0  0  0  0  0  0  0  0
   -8.7746    5.5134    1.4899 H   0  0  0  0  0  0  0  0  0  0  0  0
  -11.7636    8.3234    3.4496 H   0  0  0  0  0  0  0  0  0  0  0  0
  -10.4865    9.4640    2.8581 H   0  0  0  0  0  0  0  0  0  0  0  0
  -11.8253    8.9168    1.7479 H   0  0  0  0  0  0  0  0  0  0  0  0
   -9.8732    9.5642    0.4351 H   0  0  0  0  0  0  0  0  0  0  0  0
   -8.2770    9.5375   -1.4092 H   0  0  0  0  0  0  0  0  0  0  0  0
   -2.0993    8.0312   -0.6863 H   0  0  0  0  0  0  0  0  0  0  0  0
   -0.9040    9.4955   -2.2709 H   0  0  0  0  0  0  0  0  0  0  0  0
    3.0953    9.7620   -3.7827 H   0  0  0  0  0  0  0  0  0  0  0  0
    1.9267    9.7298   -2.4029 H   0  0  0  0  0  0  0  0  0  0  0  0
    2.7091    8.1942   -2.9632 H   0  0  0  0  0  0  0  0  0  0  0  0
    0.7423    6.0338   -4.2340 H   0  0  0  0  0  0  0  0  0  0  0  0
   -0.4838    4.5610   -2.6818 H   0  0  0  0  0  0  0  0  0  0  0  0
   -3.7993    6.2009    1.2096 H   0  0  0  0  0  0  0  0  0  0  0  0
   -3.4120    6.4504    3.6424 H   0  0  0  0  0  0  0  0  0  0  0  0
   -1.1935    8.3666    4.6845 H   0  0  0  0  0  0  0  0  0  0  0  0
   -0.0674    8.0876    6.0692 H   0  0  0  0  0  0  0  0  0  0  0  0
    0.4624    7.6882    4.3933 H   0  0  0  0  0  0  0  0  0  0  0  0
    0.6389    5.0695    3.1345 H   0  0  0  0  0  0  0  0  0  0  0  0
    0.2577    4.8533    0.6990 H   0  0  0  0  0  0  0  0  0  0  0  0
   -2.4629   -1.0101    1.1899 H   0  0  0  0  0  0  0  0  0  0  0  0
   -3.6417   -1.5642    3.2708 H   0  0  0  0  0  0  0  0  0  0  0  0
   -7.0853   -0.0500    5.3805 H   0  0  0  0  0  0  0  0  0  0  0  0
   -5.5888    0.3396    4.4433 H   0  0  0  0  0  0  0  0  0  0  0  0
   -7.2158    0.4337    3.6413 H   0  0  0  0  0  0  0  0  0  0  0  0
   -7.4151   -1.3765    1.1977 H   0  0  0  0  0  0  0  0  0  0  0  0
   -6.2341   -0.8494   -0.9071 H   0  0  0  0  0  0  0  0  0  0  0  0
   -4.2391   -3.0790   -1.7256 H   0  0  0  0  0  0  0  0  0  0  0  0
   -4.8753   -4.0540   -3.8909 H   0  0  0  0  0  0  0  0  0  0  0  0
   -7.2688   -3.0467   -5.3698 H   0  0  0  0  0  0  0  0  0  0  0  0
   -7.0604   -1.4452   -6.2004 H   0  0  0  0  0  0  0  0  0  0  0  0
   -7.4969   -2.9143   -7.1551 H   0  0  0  0  0  0  0  0  0  0  0  0
   -4.2854   -0.2455   -5.7993 H   0  0  0  0  0  0  0  0  0  0  0  0
   -3.6179    0.7356   -3.6573 H   0  0  0  0  0  0  0  0  0  0  0  0
    2.3985    3.3733   -2.0940 H   0  0  0  0  0  0  0  0  0  0  0  0
    3.3888    4.9281   -0.4848 H   0  0  0  0  0  0  0  0  0  0  0  0
    6.0635    4.4044    0.8486 H   0  0  0  0  0  0  0  0  0  0  0  0
    5.9261    3.0266    2.0215 H   0  0  0  0  0  0  0  0  0  0  0  0
    6.5420    4.6278    2.5803 H   0  0  0  0  0  0  0  0  0  0  0  0
    3.1978    1.9201    2.5848 H   0  0  0  0  0  0  0  0  0  0  0  0
    2.2090    0.3357    0.9870 H   0  0  0  0  0  0  0  0  0  0  0  0
    3.8468    0.4588   -3.0978 H   0  0  0  0  0  0  0  0  0  0  0  0
    4.1073    0.8988   -5.5224 H   0  0  0  0  0  0  0  0  0  0  0  0
    2.9926    4.1839   -8.1252 H   0  0  0  0  0  0  0  0  0  0  0  0
    1.9247    4.2038   -6.6652 H   0  0  0  0  0  0  0  0  0  0  0  0
    3.6619    3.6902   -6.5180 H   0  0  0  0  0  0  0  0  0  0  0  0
   -0.0299    2.0751   -5.7419 H   0  0  0  0  0  0  0  0  0  0  0  0
   -0.2822    1.6490   -3.3315 H   0  0  0  0  0  0  0  0  0  0  0  0
    0.3916   -3.8665    1.3047 H   0  0  0  0  0  0  0  0  0  0  0  0
   -0.3847   -4.8148    3.4163 H   0  0  0  0  0  0  0  0  0  0  0  0
   -3.0861   -5.8911    3.8468 H   0  0  0  0  0  0  0  0  0  0  0  0
   -3.5891   -7.3180    4.8372 H   0  0  0  0  0  0  0  0  0  0  0  0
   -3.4206   -7.4857    3.0417 H   0  0  0  0  0  0  0  0  0  0  0  0
   -0.9894   -8.6277    1.5263 H   0  0  0  0  0  0  0  0  0  0  0  0
   -0.2136   -7.7076   -0.6112 H   0  0  0  0  0  0  0  0  0  0  0  0
   -1.8296   -5.7553   -1.9399 H   0  0  0  0  0  0  0  0  0  0  0  0
   -2.4681   -6.7589   -4.1023 H   0  0  0  0  0  0  0  0  0  0  0  0
   -1.6023   -9.4532   -4.9777 H   0  0  0  0  0  0  0  0  0  0  0  0
   -1.0486  -10.0243   -6.6031 H   0  0  0  0  0  0  0  0  0  0  0  0
    0.1693   -9.5367   -5.3554 H   0  0  0  0  0  0  0  0  0  0  0  0
    1.6691   -6.8661   -5.2824 H   0  0  0  0  0  0  0  0  0  0  0  0
    2.3174   -5.8930   -3.1319 H   0  0  0  0  0  0  0  0  0  0  0  0
    2.5685   -6.2452    0.9781 H   0  0  0  0  0  0  0  0  0  0  0  0
    2.4081   -6.8454   -0.7198 H   0  0  0  0  0  0  0  0  0  0  0  0
    4.3411   -8.4769   -0.1983 H   0  0  0  0  0  0  0  0  0  0  0  0
    2.6775   -8.8083    0.4008 H   0  0  0  0  0  0  0  0  0  0  0  0
    3.8713   -8.1687    1.5377 H   0  0  0  0  0  0  0  0  0  0  0  0
    6.8861   -8.0617    0.4657 H   0  0  0  0  0  0  0  0  0  0  0  0
    6.0074   -8.2101    2.0017 H   0  0  0  0  0  0  0  0  0  0  0  0
    8.2852   -8.8622    2.3829 H   0  0  0  0  0  0  0  0  0  0  0  0
    8.9297   -7.3729    1.6191 H   0  0  0  0  0  0  0  0  0  0  0  0
    8.0705   -7.2701    3.1990 H   0  0  0  0  0  0  0  0  0  0  0  0
    4.3233   -6.0791    2.3660 H   0  0  0  0  0  0  0  0  0  0  0  0
    5.1879   -4.5572    2.4420 H   0  0  0  0  0  0  0  0  0  0  0  0
    6.6848   -5.6098    4.2328 H   0  0  0  0  0  0  0  0  0  0  0  0
    4.9499   -5.6624    4.6338 H   0  0  0  0  0  0  0  0  0  0  0  0
    5.7641   -7.1484    4.0432 H   0  0  0  0  0  0  0  0  0  0  0  0
    8.1649   -4.5268    3.1463 H   0  0  0  0  0  0  0  0  0  0  0  0
    9.8185   -1.4199    1.6513 H   0  0  0  0  0  0  0  0  0  0  0  0
    4.9929   -1.3960    5.6161 H   0  0  0  0  0  0  0  0  0  0  0  0
    2.6397    0.1619    8.1620 H   0  0  0  0  0  0  0  0  0  0  0  0
    2.9890   -0.7344    6.6445 H   0  0  0  0  0  0  0  0  0  0  0  0
    4.0011   -1.0482    8.1275 H   0  0  0  0  0  0  0  0  0  0  0  0
    6.2499    2.5457    6.8603 H   0  0  0  0  0  0  0  0  0  0  0  0
    8.2700    2.3438    5.4945 H   0  0  0  0  0  0  0  0  0  0  0  0
  1  2  2  3
  2  3  1  0
  3  4  2  0
  3  5  1  0
  5  6  2  0
  6  7  1  0
  7  8  1  0
  8  9  1  0
  7 10  2  0
 10 11  1  0
 11 12  2  0
 12 13  1  0
 13 14  2  3
 14 15  1  0
 15 16  3  0
 14 17  1  0
 17 18  3  0
  1 19  1  0
 19 20  2  0
 20 21  1  0
 21 22  1  0
 22 23  2  0
 23 24  1  0
 24 25  2  0
 25 26  1  0
 26 27  1  0
 25 28  1  0
 28 29  2  0
 21 30  1  0
 30 31  2  0
 31 32  1  0
 32 33  2  0
 33 34  1  0
 34 35  1  0
 33 36  1  0
 36 37  2  0
 20 38  1  0
 38 39  1  0
 39 40  1  0
 40 41  2  0
 41 42  1  0
 42 43  1  0
 43 44  2  0
 44 45  1  0
 45 46  2  0
 46 47  1  0
 47 48  1  0
 46 49  1  0
 49 50  2  0
 42 51  1  0
 51 52  2  0
 52 53  1  0
 53 54  2  0
 54 55  1  0
 55 56  1  0
 54 57  1  0
 57 58  2  0
 41 59  1  0
 59 60  1  0
 40 61  1  0
 61 62  2  0
 62 63  1  0
 63 64  1  0
 64 65  2  0
 65 66  1  0
 66 67  2  0
 67 68  1  0
 68 69  1  0
 67 70  1  0
 70 71  2  0
 63 72  1  0
 72 73  2  0
 73 74  1  0
 74 75  2  0
 75 76  1  0
 76 77  1  0
 75 78  1  0
 78 79  2  0
 62 80  1  0
 80 81  1  0
 81 82  1  0
 82 83  2  0
 83 84  1  0
 84 85  1  0
 85 86  2  0
 86 87  1  0
 87 88  2  0
 88 89  1  0
 89 90  1  0
 88 91  1  0
 91 92  2  0
 84 93  1  0
 93 94  2  0
 94 95  1  0
 95 96  2  0
 96 97  1  0
 97 98  1  0
 96 99  1  0
 99100  2  0
 83101  1  0
101102  1  0
 82103  1  0
103104  2  0
104105  1  0
105106  1  0
104107  1  0
107108  2  0
108109  1  0
108110  1  0
110111  2  0
111112  1  0
112113  1  0
113114  1  0
112115  1  0
115116  1  0
111117  1  0
117118  2  0
118119  1  0
118120  1  0
120121  2  3
121122  1  0
122123  2  0
122124  1  0
124125  2  0
125126  1  0
126127  1  0
127128  1  0
126129  2  0
129130  1  0
130131  2  0
131132  1  0
132133  2  3
133134  1  0
134135  3  0
133136  1  0
136137  3  0
 13  2  1  0
 60 19  1  0
102 61  1  0
109103  1  0
119110  1  0
132121  1  0
 12  5  1  0
 29 22  1  0
 37 30  1  0
 59 38  2  0
 71 64  1  0
 79 72  1  0
101 80  2  0
112107  1  0
131124  1  0
 50 43  1  0
 58 51  1  0
 92 85  1  0
100 93  1  0
  1138  1  0
  6139  1  0
  9140  1  0
  9141  1  0
  9142  1  0
 10143  1  0
 11144  1  0
 23145  1  0
 24146  1  0
 27147  1  0
 27148  1  0
 27149  1  0
 28150  1  0
 29151  1  0
 31152  1  0
 32153  1  0
 35154  1  0
 35155  1  0
 35156  1  0
 36157  1  0
 37158  1  0
 44159  1  0
 45160  1  0
 48161  1  0
 48162  1  0
 48163  1  0
 49164  1  0
 50165  1  0
 52166  1  0
 53167  1  0
 56168  1  0
 56169  1  0
 56170  1  0
 57171  1  0
 58172  1  0
 65173  1  0
 66174  1  0
 69175  1  0
 69176  1  0
 69177  1  0
 70178  1  0
 71179  1  0
 73180  1  0
 74181  1  0
 77182  1  0
 77183  1  0
 77184  1  0
 78185  1  0
 79186  1  0
 86187  1  0
 87188  1  0
 90189  1  0
 90190  1  0
 90191  1  0
 91192  1  0
 92193  1  0
 94194  1  0
 95195  1  0
 98196  1  0
 98197  1  0
 98198  1  0
 99199  1  0
100200  1  0
105201  1  0
105202  1  0
106203  1  0
106204  1  0
106205  1  0
113206  1  0
113207  1  0
114208  1  0
114209  1  0
114210  1  0
115211  1  0
115212  1  0
116213  1  0
116214  1  0
116215  1  0
117216  1  0
120217  1  0
125218  1  0
128219  1  0
128220  1  0
128221  1  0
129222  1  0
130223  1  0
M  END

