
     RDKit          3D

216233  0  0  0  0  0  0  0  0999 V2000
   -6.4442   -1.0890    4.6345 C   0  0  0  0  0  0  0  0  0  0  0  0
   -6.4113   -2.4367    4.6163 C   0  0  0  0  0  0  0  0  0  0  0  0
   -7.3571   -3.2010    3.7937 C   0  0  0  0  0  0  0  0  0  0  0  0
   -8.5647   -2.8983    3.5832 O   0  0  0  0  0  0  0  0  0  0  0  0
   -6.6415   -4.3009    3.1828 C   0  0  0  0  0  0  0  0  0  0  0  0
   -7.0383   -5.1431    2.1395 C   0  0  0  0  0  0  0  0  0  0  0  0
   -6.1039   -6.0526    1.6054 C   0  0  0  0  0  0  0  0  0  0  0  0
   -6.5127   -6.8991    0.5590 O   0  0  0  0  0  0  0  0  0  0  0  0
   -5.6597   -7.8403   -0.0877 C   0  0  0  0  0  0  0  0  0  0  0  0
   -4.7861   -6.0827    2.1210 C   0  0  0  0  0  0  0  0  0  0  0  0
   -4.4092   -5.2230    3.1653 C   0  0  0  0  0  0  0  0  0  0  0  0
   -5.3594   -4.3423    3.6902 C   0  0  0  0  0  0  0  0  0  0  0  0
   -5.2110   -3.3137    4.7452 C   0  0  0  0  0  0  0  0  0  0  0  0
   -4.5279   -3.5068    5.8989 C   0  0  0  0  0  0  0  0  0  0  0  0
   -4.8183   -2.7423    7.0872 C   0  0  0  0  0  0  0  0  0  0  0  0
   -5.0171   -2.1095    8.0339 N   0  0  0  0  0  0  0  0  0  0  0  0
   -3.6364   -4.6243    6.0659 C   0  0  0  0  0  0  0  0  0  0  0  0
   -2.9369   -5.5368    6.2072 N   0  0  0  0  0  0  0  0  0  0  0  0
   -5.2403   -0.2407    4.4948 C   0  0  0  0  0  0  0  0  0  0  0  0
   -4.9417    0.6012    3.3955 C   0  0  0  0  0  0  0  0  0  0  0  0
   -5.8112    0.8997    2.2731 N   0  0  0  0  0  0  0  0  0  0  0  0
   -6.7978   -0.0241    1.7849 C   0  0  0  0  0  0  0  0  0  0  0  0
   -8.1610    0.2973    1.8717 C   0  0  0  0  0  0  0  0  0  0  0  0
   -9.1248   -0.5597    1.3288 C   0  0  0  0  0  0  0  0  0  0  0  0
   -8.7326   -1.7275    0.6644 C   0  0  0  0  0  0  0  0  0  0  0  0
   -9.9695   -2.8390   -0.0123 S   0  0  0  0  0  0  0  0  0  0  0  0
  -10.1101   -1.9379   -1.5878 C   0  0  0  0  0  0  0  0  0  0  0  0
   -7.3722   -2.0358    0.5468 C   0  0  0  0  0  0  0  0  0  0  0  0
   -6.4100   -1.1927    1.1178 C   0  0  0  0  0  0  0  0  0  0  0  0
   -5.6596    2.1410    1.5709 C   0  0  0  0  0  0  0  0  0  0  0  0
   -5.7546    3.3643    2.2567 C   0  0  0  0  0  0  0  0  0  0  0  0
   -5.4657    4.5632    1.6031 C   0  0  0  0  0  0  0  0  0  0  0  0
   -5.0634    4.5447    0.2618 C   0  0  0  0  0  0  0  0  0  0  0  0
   -4.5516    6.0659   -0.5373 S   0  0  0  0  0  0  0  0  0  0  0  0
   -2.8246    5.8834    0.0087 C   0  0  0  0  0  0  0  0  0  0  0  0
   -4.9994    3.3337   -0.4370 C   0  0  0  0  0  0  0  0  0  0  0  0
   -5.2958    2.1350    0.2152 C   0  0  0  0  0  0  0  0  0  0  0  0
   -3.6485    1.1331    3.5289 C   0  0  0  0  0  0  0  0  0  0  0  0
   -2.5881    1.8880    2.4707 S   0  0  0  0  0  0  0  0  0  0  0  0
   -1.2215    1.7706    3.4803 C   0  0  0  0  0  0  0  0  0  0  0  0
   -1.6212    1.1508    4.6817 C   0  0  0  0  0  0  0  0  0  0  0  0
   -0.7549    0.9966    5.8248 N   0  0  0  0  0  0  0  0  0  0  0  0
   -0.0020    2.1457    6.2688 C   0  0  0  0  0  0  0  0  0  0  0  0
    1.3256    2.0086    6.7076 C   0  0  0  0  0  0  0  0  0  0  0  0
    2.0384    3.1243    7.1626 C   0  0  0  0  0  0  0  0  0  0  0  0
    1.4291    4.3862    7.1847 C   0  0  0  0  0  0  0  0  0  0  0  0
    2.3400    5.8202    7.7587 S   0  0  0  0  0  0  0  0  0  0  0  0
    2.9858    6.2213    6.1082 C   0  0  0  0  0  0  0  0  0  0  0  0
    0.1063    4.5287    6.7520 C   0  0  0  0  0  0  0  0  0  0  0  0
   -0.6067    3.4176    6.2985 C   0  0  0  0  0  0  0  0  0  0  0  0
   -0.8022   -0.1903    6.6512 C   0  0  0  0  0  0  0  0  0  0  0  0
   -0.8112   -0.0795    8.0567 C   0  0  0  0  0  0  0  0  0  0  0  0
   -0.7914   -1.2218    8.8585 C   0  0  0  0  0  0  0  0  0  0  0  0
   -0.7805   -2.4936    8.2727 C   0  0  0  0  0  0  0  0  0  0  0  0
   -0.6499   -3.9543    9.3133 S   0  0  0  0  0  0  0  0  0  0  0  0
   -2.4241   -4.0364    9.7006 C   0  0  0  0  0  0  0  0  0  0  0  0
   -0.7957   -2.6175    6.8757 C   0  0  0  0  0  0  0  0  0  0  0  0
   -0.8055   -1.4734    6.0712 C   0  0  0  0  0  0  0  0  0  0  0  0
   -2.9705    0.7930    4.6519 C   0  0  0  0  0  0  0  0  0  0  0  0
   -3.9289   -0.2206    5.5737 S   0  0  0  0  0  0  0  0  0  0  0  0
    0.0658    1.4507    2.8395 C   0  0  0  0  0  0  0  0  0  0  0  0
    1.0777    2.3961    2.6648 C   0  0  0  0  0  0  0  0  0  0  0  0
    1.0141    3.5871    3.3122 F   0  0  0  0  0  0  0  0  0  0  0  0
    2.1466    2.1338    1.7887 C   0  0  0  0  0  0  0  0  0  0  0  0
    3.1647    3.0145    1.7706 F   0  0  0  0  0  0  0  0  0  0  0  0
    2.1635    0.9640    0.9830 C   0  0  0  0  0  0  0  0  0  0  0  0
    1.2586   -0.0737    1.3484 C   0  0  0  0  0  0  0  0  0  0  0  0
    1.3467   -1.3330    0.8322 N   0  0  0  0  0  0  0  0  0  0  0  0
    0.4543   -2.3207    1.1118 C   0  0  0  0  0  0  0  0  0  0  0  0
    0.6838   -3.6912    0.5305 C   0  0  0  0  0  0  0  0  0  0  0  0
    1.3605   -4.5940    1.5618 C   0  0  0  0  0  0  0  0  0  0  0  0
   -0.6228   -2.0270    1.9740 C   0  0  0  0  0  0  0  0  0  0  0  0
   -0.6967   -0.7860    2.5121 N   0  0  0  0  0  0  0  0  0  0  0  0
    0.2146    0.1854    2.2545 C   0  0  0  0  0  0  0  0  0  0  0  0
   -1.7841   -2.9509    2.2165 C   0  0  0  0  0  0  0  0  0  0  0  0
   -2.8914   -2.6250    1.2305 C   0  0  0  0  0  0  0  0  0  0  0  0
    2.9932    0.8583   -0.2840 C   0  0  0  0  0  0  0  0  0  0  0  0
    3.6667    1.8780   -1.0308 C   0  0  0  0  0  0  0  0  0  0  0  0
    3.7199    3.2776   -0.7173 N   0  0  0  0  0  0  0  0  0  0  0  0
    4.9588    3.8346   -0.1941 C   0  0  0  0  0  0  0  0  0  0  0  0
    6.0866    3.0157    0.0396 C   0  0  0  0  0  0  0  0  0  0  0  0
    7.2935    3.5721    0.4711 C   0  0  0  0  0  0  0  0  0  0  0  0
    7.3927    4.9447    0.7042 C   0  0  0  0  0  0  0  0  0  0  0  0
    8.9679    5.6464    1.2053 S   0  0  0  0  0  0  0  0  0  0  0  0
    8.5995    5.5484    2.9865 C   0  0  0  0  0  0  0  0  0  0  0  0
    6.2733    5.7643    0.5185 C   0  0  0  0  0  0  0  0  0  0  0  0
    5.0621    5.2130    0.0907 C   0  0  0  0  0  0  0  0  0  0  0  0
    2.7716    4.1113   -1.4206 C   0  0  0  0  0  0  0  0  0  0  0  0
    1.3926    3.9709   -1.1914 C   0  0  0  0  0  0  0  0  0  0  0  0
    0.4726    4.7215   -1.9280 C   0  0  0  0  0  0  0  0  0  0  0  0
    0.9180    5.6126   -2.9137 C   0  0  0  0  0  0  0  0  0  0  0  0
   -0.2688    6.5686   -3.8674 S   0  0  0  0  0  0  0  0  0  0  0  0
   -0.1359    8.0267   -2.7843 C   0  0  0  0  0  0  0  0  0  0  0  0
    2.2861    5.7400   -3.1717 C   0  0  0  0  0  0  0  0  0  0  0  0
    3.2099    4.9969   -2.4318 C   0  0  0  0  0  0  0  0  0  0  0  0
    4.1261    1.4153   -2.2708 C   0  0  0  0  0  0  0  0  0  0  0  0
    4.7101    2.1908   -3.6422 S   0  0  0  0  0  0  0  0  0  0  0  0
    4.5656    0.8135   -4.6216 C   0  0  0  0  0  0  0  0  0  0  0  0
    3.9838   -0.2347   -3.8964 C   0  0  0  0  0  0  0  0  0  0  0  0
    3.1766   -1.2516   -4.5235 N   0  0  0  0  0  0  0  0  0  0  0  0
    2.1087   -0.7926   -5.3722 C   0  0  0  0  0  0  0  0  0  0  0  0
    1.1652    0.1326   -4.8856 C   0  0  0  0  0  0  0  0  0  0  0  0
    0.1306    0.5867   -5.7065 C   0  0  0  0  0  0  0  0  0  0  0  0
    0.0315    0.1290   -7.0248 C   0  0  0  0  0  0  0  0  0  0  0  0
   -1.3189    0.6926   -8.0631 S   0  0  0  0  0  0  0  0  0  0  0  0
   -0.4268    2.1641   -8.6541 C   0  0  0  0  0  0  0  0  0  0  0  0
    0.9734   -0.7832   -7.5228 C   0  0  0  0  0  0  0  0  0  0  0  0
    2.0031   -1.2495   -6.6942 C   0  0  0  0  0  0  0  0  0  0  0  0
    3.2643   -2.6433   -4.1255 C   0  0  0  0  0  0  0  0  0  0  0  0
    4.4368   -3.1510   -3.5372 C   0  0  0  0  0  0  0  0  0  0  0  0
    4.5139   -4.4951   -3.1502 C   0  0  0  0  0  0  0  0  0  0  0  0
    3.4220   -5.3433   -3.3360 C   0  0  0  0  0  0  0  0  0  0  0  0
    3.5065   -7.0593   -2.8244 S   0  0  0  0  0  0  0  0  0  0  0  0
    2.8881   -6.7046   -1.1502 C   0  0  0  0  0  0  0  0  0  0  0  0
    2.2474   -4.8522   -3.9122 C   0  0  0  0  0  0  0  0  0  0  0  0
    2.1655   -3.5124   -4.2992 C   0  0  0  0  0  0  0  0  0  0  0  0
    3.8161    0.1313   -2.5739 C   0  0  0  0  0  0  0  0  0  0  0  0
    2.9865   -0.5301   -1.2971 S   0  0  0  0  0  0  0  0  0  0  0  0
    4.9098    0.7247   -6.0497 C   0  0  0  0  0  0  0  0  0  0  0  0
    5.6856   -0.2786   -6.4961 C   0  0  0  0  0  0  0  0  0  0  0  0
    5.4114   -1.0222   -7.7236 C   0  0  0  0  0  0  0  0  0  0  0  0
    4.7652   -0.5997   -8.7201 O   0  0  0  0  0  0  0  0  0  0  0  0
    5.9353   -2.3709   -7.5610 C   0  0  0  0  0  0  0  0  0  0  0  0
    5.8219   -3.4685   -8.4164 C   0  0  0  0  0  0  0  0  0  0  0  0
    6.4370   -4.6735   -8.0441 C   0  0  0  0  0  0  0  0  0  0  0  0
    6.3880   -5.7730   -8.9082 O   0  0  0  0  0  0  0  0  0  0  0  0
    7.5603   -6.2556   -9.5587 C   0  0  0  0  0  0  0  0  0  0  0  0
    7.0902   -4.7808   -6.7991 C   0  0  0  0  0  0  0  0  0  0  0  0
    7.1448   -3.6837   -5.9276 C   0  0  0  0  0  0  0  0  0  0  0  0
    6.5893   -2.4632   -6.3378 C   0  0  0  0  0  0  0  0  0  0  0  0
    6.5700   -1.1403   -5.6653 C   0  0  0  0  0  0  0  0  0  0  0  0
    7.4439   -0.6908   -4.7268 C   0  0  0  0  0  0  0  0  0  0  0  0
    8.3435   -1.5602   -4.0254 C   0  0  0  0  0  0  0  0  0  0  0  0
    9.0805   -2.2429   -3.4518 N   0  0  0  0  0  0  0  0  0  0  0  0
    7.6624    0.7228   -4.5305 C   0  0  0  0  0  0  0  0  0  0  0  0
    7.8528    1.8625   -4.3871 N   0  0  0  0  0  0  0  0  0  0  0  0
   -7.3809   -0.6124    4.3766 H   0  0  0  0  0  0  0  0  0  0  0  0
   -8.0427   -5.0840    1.7336 H   0  0  0  0  0  0  0  0  0  0  0  0
   -6.2392   -8.3792   -0.8656 H   0  0  0  0  0  0  0  0  0  0  0  0
   -4.8045   -7.3163   -0.5766 H   0  0  0  0  0  0  0  0  0  0  0  0
   -5.2830   -8.5796    0.6477 H   0  0  0  0  0  0  0  0  0  0  0  0
   -4.0371   -6.7517    1.7146 H   0  0  0  0  0  0  0  0  0  0  0  0
   -3.3853   -5.2211    3.5096 H   0  0  0  0  0  0  0  0  0  0  0  0
   -8.4731    1.2101    2.3589 H   0  0  0  0  0  0  0  0  0  0  0  0
  -10.1750   -0.3117    1.4198 H   0  0  0  0  0  0  0  0  0  0  0  0
   -9.1322   -1.9248   -2.1135 H   0  0  0  0  0  0  0  0  0  0  0  0
  -10.8552   -2.4468   -2.2317 H   0  0  0  0  0  0  0  0  0  0  0  0
  -10.4479   -0.8969   -1.4062 H   0  0  0  0  0  0  0  0  0  0  0  0
   -7.0582   -2.9328    0.0239 H   0  0  0  0  0  0  0  0  0  0  0  0
   -5.3676   -1.4248    0.9952 H   0  0  0  0  0  0  0  0  0  0  0  0
   -6.0306    3.3775    3.3047 H   0  0  0  0  0  0  0  0  0  0  0  0
   -5.5246    5.4988    2.1444 H   0  0  0  0  0  0  0  0  0  0  0  0
   -2.4245    4.8980   -0.3084 H   0  0  0  0  0  0  0  0  0  0  0  0
   -2.7646    5.9627    1.1147 H   0  0  0  0  0  0  0  0  0  0  0  0
   -2.2087    6.6851   -0.4405 H   0  0  0  0  0  0  0  0  0  0  0  0
   -4.6888    3.3170   -1.4744 H   0  0  0  0  0  0  0  0  0  0  0  0
   -5.1960    1.1948   -0.3195 H   0  0  0  0  0  0  0  0  0  0  0  0
    1.8072    1.0373    6.6958 H   0  0  0  0  0  0  0  0  0  0  0  0
    3.0610    3.0068    7.5007 H   0  0  0  0  0  0  0  0  0  0  0  0
    3.6971    5.4351    5.7820 H   0  0  0  0  0  0  0  0  0  0  0  0
    2.1563    6.2940    5.3771 H   0  0  0  0  0  0  0  0  0  0  0  0
    3.5107    7.1965    6.1511 H   0  0  0  0  0  0  0  0  0  0  0  0
   -0.3736    5.4984    6.7700 H   0  0  0  0  0  0  0  0  0  0  0  0
   -1.6366    3.5446    5.9847 H   0  0  0  0  0  0  0  0  0  0  0  0
   -0.8218    0.8941    8.5286 H   0  0  0  0  0  0  0  0  0  0  0  0
   -0.7746   -1.1174    9.9374 H   0  0  0  0  0  0  0  0  0  0  0  0
   -2.9994   -4.2667    8.7830 H   0  0  0  0  0  0  0  0  0  0  0  0
   -2.7721   -3.0738   10.1326 H   0  0  0  0  0  0  0  0  0  0  0  0
   -2.5919   -4.8447   10.4408 H   0  0  0  0  0  0  0  0  0  0  0  0
   -0.7668   -3.5996    6.4173 H   0  0  0  0  0  0  0  0  0  0  0  0
   -0.7941   -1.5853    4.9963 H   0  0  0  0  0  0  0  0  0  0  0  0
    1.3375   -3.6170   -0.3655 H   0  0  0  0  0  0  0  0  0  0  0  0
   -0.2731   -4.1458    0.1899 H   0  0  0  0  0  0  0  0  0  0  0  0
    0.7036   -4.7450    2.4382 H   0  0  0  0  0  0  0  0  0  0  0  0
    1.5755   -5.5815    1.1168 H   0  0  0  0  0  0  0  0  0  0  0  0
    2.3247   -4.1453    1.8895 H   0  0  0  0  0  0  0  0  0  0  0  0
   -1.4984   -4.0180    2.1370 H   0  0  0  0  0  0  0  0  0  0  0  0
   -2.1558   -2.7981    3.2489 H   0  0  0  0  0  0  0  0  0  0  0  0
   -3.1270   -1.5390    1.2724 H   0  0  0  0  0  0  0  0  0  0  0  0
   -2.5703   -2.8762    0.1987 H   0  0  0  0  0  0  0  0  0  0  0  0
   -3.8044   -3.2002    1.4765 H   0  0  0  0  0  0  0  0  0  0  0  0
    6.0481    1.9488   -0.1285 H   0  0  0  0  0  0  0  0  0  0  0  0
    8.1509    2.9290    0.6113 H   0  0  0  0  0  0  0  0  0  0  0  0
    8.1809    4.5533    3.2635 H   0  0  0  0  0  0  0  0  0  0  0  0
    9.5443    5.6999    3.5485 H   0  0  0  0  0  0  0  0  0  0  0  0
    7.8731    6.3484    3.2582 H   0  0  0  0  0  0  0  0  0  0  0  0
    6.3307    6.8245    0.7211 H   0  0  0  0  0  0  0  0  0  0  0  0
    4.2122    5.8756   -0.0359 H   0  0  0  0  0  0  0  0  0  0  0  0
    1.0321    3.2695   -0.4540 H   0  0  0  0  0  0  0  0  0  0  0  0
   -0.5845    4.5970   -1.7480 H   0  0  0  0  0  0  0  0  0  0  0  0
   -0.7183    8.8620   -3.2246 H   0  0  0  0  0  0  0  0  0  0  0  0
   -0.5405    7.7913   -1.7778 H   0  0  0  0  0  0  0  0  0  0  0  0
    0.9253    8.3436   -2.6901 H   0  0  0  0  0  0  0  0  0  0  0  0
    2.6343    6.4084   -3.9524 H   0  0  0  0  0  0  0  0  0  0  0  0
    4.2645    5.0968   -2.6608 H   0  0  0  0  0  0  0  0  0  0  0  0
    1.2302    0.4950   -3.8670 H   0  0  0  0  0  0  0  0  0  0  0  0
   -0.5968    1.2913   -5.3162 H   0  0  0  0  0  0  0  0  0  0  0  0
    0.4616    1.8693   -9.2501 H   0  0  0  0  0  0  0  0  0  0  0  0
   -1.1081    2.7642   -9.2885 H   0  0  0  0  0  0  0  0  0  0  0  0
   -0.1031    2.7912   -7.7976 H   0  0  0  0  0  0  0  0  0  0  0  0
    0.9049   -1.1364   -8.5435 H   0  0  0  0  0  0  0  0  0  0  0  0
    2.7289   -1.9484   -7.0871 H   0  0  0  0  0  0  0  0  0  0  0  0
    5.3002   -2.5163   -3.3818 H   0  0  0  0  0  0  0  0  0  0  0  0
    5.4294   -4.8755   -2.7120 H   0  0  0  0  0  0  0  0  0  0  0  0
    2.0028   -6.0374   -1.1977 H   0  0  0  0  0  0  0  0  0  0  0  0
    3.6866   -6.2180   -0.5514 H   0  0  0  0  0  0  0  0  0  0  0  0
    2.5882   -7.6495   -0.6548 H   0  0  0  0  0  0  0  0  0  0  0  0
    1.3945   -5.5029   -4.0445 H   0  0  0  0  0  0  0  0  0  0  0  0
    1.2327   -3.1597   -4.7183 H   0  0  0  0  0  0  0  0  0  0  0  0
    4.2895    1.2723   -6.7459 H   0  0  0  0  0  0  0  0  0  0  0  0
    5.3044   -3.3793   -9.3668 H   0  0  0  0  0  0  0  0  0  0  0  0
    8.3696   -6.4342   -8.8256 H   0  0  0  0  0  0  0  0  0  0  0  0
    7.3258   -7.2128  -10.0681 H   0  0  0  0  0  0  0  0  0  0  0  0
    7.8786   -5.5170  -10.3313 H   0  0  0  0  0  0  0  0  0  0  0  0
    7.5385   -5.7202   -6.4991 H   0  0  0  0  0  0  0  0  0  0  0  0
    7.6041   -3.8076   -4.9557 H   0  0  0  0  0  0  0  0  0  0  0  0
  1  2  2  3
  2  3  1  0
  3  4  2  0
  3  5  1  0
  5  6  2  0
  6  7  1  0
  7  8  1  0
  8  9  1  0
  7 10  2  0
 10 11  1  0
 11 12  2  0
 12 13  1  0
 13 14  2  3
 14 15  1  0
 15 16  3  0
 14 17  1  0
 17 18  3  0
  1 19  1  0
 19 20  2  0
 20 21  1  0
 21 22  1  0
 22 23  2  0
 23 24  1  0
 24 25  2  0
 25 26  1  0
 26 27  1  0
 25 28  1  0
 28 29  2  0
 21 30  1  0
 30 31  2  0
 31 32  1  0
 32 33  2  0
 33 34  1  0
 34 35  1  0
 33 36  1  0
 36 37  2  0
 20 38  1  0
 38 39  1  0
 39 40  1  0
 40 41  2  0
 41 42  1  0
 42 43  1  0
 43 44  2  0
 44 45  1  0
 45 46  2  0
 46 47  1  0
 47 48  1  0
 46 49  1  0
 49 50  2  0
 42 51  1  0
 51 52  2  0
 52 53  1  0
 53 54  2  0
 54 55  1  0
 55 56  1  0
 54 57  1  0
 57 58  2  0
 41 59  1  0
 59 60  1  0
 40 61  1  0
 61 62  2  0
 62 63  1  0
 62 64  1  0
 64 65  1  0
 64 66  2  0
 66 67  1  0
 67 68  2  0
 68 69  1  0
 69 70  1  0
 70 71  1  0
 69 72  2  0
 72 73  1  0
 73 74  2  0
 72 75  1  0
 75 76  1  0
 66 77  1  0
 77 78  2  0
 78 79  1  0
 79 80  1  0
 80 81  2  0
 81 82  1  0
 82 83  2  0
 83 84  1  0
 84 85  1  0
 83 86  1  0
 86 87  2  0
 79 88  1  0
 88 89  2  0
 89 90  1  0
 90 91  2  0
 91 92  1  0
 92 93  1  0
 91 94  1  0
 94 95  2  0
 78 96  1  0
 96 97  1  0
 97 98  1  0
 98 99  2  0
 99100  1  0
100101  1  0
101102  2  0
102103  1  0
103104  2  0
104105  1  0
105106  1  0
104107  1  0
107108  2  0
100109  1  0
109110  2  0
110111  1  0
111112  2  0
112113  1  0
113114  1  0
112115  1  0
115116  2  0
 99117  1  0
117118  1  0
 98119  1  0
119120  2  3
120121  1  0
121122  2  0
121123  1  0
123124  2  0
124125  1  0
125126  1  0
126127  1  0
125128  2  0
128129  1  0
129130  2  0
130131  1  0
131132  2  3
132133  1  0
133134  3  0
132135  1  0
135136  3  0
 13  2  1  0
 60 19  1  0
 74 61  1  0
118 77  1  0
131120  1  0
 12  5  1  0
 29 22  1  0
 37 30  1  0
 59 38  2  0
 74 67  1  0
 87 80  1  0
 95 88  1  0
117 96  2  0
130123  1  0
 50 43  1  0
 58 51  1  0
108101  1  0
116109  1  0
  1137  1  0
  6138  1  0
  9139  1  0
  9140  1  0
  9141  1  0
 10142  1  0
 11143  1  0
 23144  1  0
 24145  1  0
 27146  1  0
 27147  1  0
 27148  1  0
 28149  1  0
 29150  1  0
 31151  1  0
 32152  1  0
 35153  1  0
 35154  1  0
 35155  1  0
 36156  1  0
 37157  1  0
 44158  1  0
 45159  1  0
 48160  1  0
 48161  1  0
 48162  1  0
 49163  1  0
 50164  1  0
 52165  1  0
 53166  1  0
 56167  1  0
 56168  1  0
 56169  1  0
 57170  1  0
 58171  1  0
 70172  1  0
 70173  1  0
 71174  1  0
 71175  1  0
 71176  1  0
 75177  1  0
 75178  1  0
 76179  1  0
 76180  1  0
 76181  1  0
 81182  1  0
 82183  1  0
 85184  1  0
 85185  1  0
 85186  1  0
 86187  1  0
 87188  1  0
 89189  1  0
 90190  1  0
 93191  1  0
 93192  1  0
 93193  1  0
 94194  1  0
 95195  1  0
102196  1  0
103197  1  0
106198  1  0
106199  1  0
106200  1  0
107201  1  0
108202  1  0
110203  1  0
111204  1  0
114205  1  0
114206  1  0
114207  1  0
115208  1  0
116209  1  0
119210  1  0
124211  1  0
127212  1  0
127213  1  0
127214  1  0
128215  1  0
129216  1  0
M  END

