
     RDKit          3D

208225  0  0  0  0  0  0  0  0999 V2000
    2.6234   -0.3344    7.1637 C   0  0  0  0  0  0  0  0  0  0  0  0
    3.8529   -0.6196    7.6421 C   0  0  0  0  0  0  0  0  0  0  0  0
    4.0305   -1.3010    8.9286 C   0  0  0  0  0  0  0  0  0  0  0  0
    3.1489   -1.4726    9.8114 O   0  0  0  0  0  0  0  0  0  0  0  0
    5.3757   -1.8132    8.9703 C   0  0  0  0  0  0  0  0  0  0  0  0
    6.0250   -2.4901   10.0020 C   0  0  0  0  0  0  0  0  0  0  0  0
    7.3728   -2.8215    9.8498 C   0  0  0  0  0  0  0  0  0  0  0  0
    8.0405   -3.4156   10.9342 O   0  0  0  0  0  0  0  0  0  0  0  0
    9.4606   -3.5594   11.0309 C   0  0  0  0  0  0  0  0  0  0  0  0
    8.0309   -2.5217    8.6346 C   0  0  0  0  0  0  0  0  0  0  0  0
    7.3589   -1.8501    7.6032 C   0  0  0  0  0  0  0  0  0  0  0  0
    6.0291   -1.4604    7.8013 C   0  0  0  0  0  0  0  0  0  0  0  0
    5.2032   -0.5027    7.0185 C   0  0  0  0  0  0  0  0  0  0  0  0
    5.7382    0.7126    6.7910 C   0  0  0  0  0  0  0  0  0  0  0  0
    7.0225    0.8682    6.1527 C   0  0  0  0  0  0  0  0  0  0  0  0
    8.0557    1.0063    5.6497 N   0  0  0  0  0  0  0  0  0  0  0  0
    5.2691    1.8714    7.5234 C   0  0  0  0  0  0  0  0  0  0  0  0
    4.8870    2.7807    8.1303 N   0  0  0  0  0  0  0  0  0  0  0  0
    2.1228   -0.2224    5.7643 C   0  0  0  0  0  0  0  0  0  0  0  0
    2.7621   -0.2749    4.4940 C   0  0  0  0  0  0  0  0  0  0  0  0
    4.0940    0.1736    4.1925 N   0  0  0  0  0  0  0  0  0  0  0  0
    4.1817    1.5799    3.8339 C   0  0  0  0  0  0  0  0  0  0  0  0
    4.4607    1.9813    2.5156 C   0  0  0  0  0  0  0  0  0  0  0  0
    4.5336    3.3387    2.1831 C   0  0  0  0  0  0  0  0  0  0  0  0
    4.3322    4.3115    3.1681 C   0  0  0  0  0  0  0  0  0  0  0  0
    4.5465    6.0498    2.7717 S   0  0  0  0  0  0  0  0  0  0  0  0
    2.7600    6.3992    2.6742 C   0  0  0  0  0  0  0  0  0  0  0  0
    3.9852    3.9238    4.4606 C   0  0  0  0  0  0  0  0  0  0  0  0
    3.8542    2.5707    4.7774 C   0  0  0  0  0  0  0  0  0  0  0  0
    5.0641   -0.7986    3.7056 C   0  0  0  0  0  0  0  0  0  0  0  0
    4.7739   -2.1809    3.7127 C   0  0  0  0  0  0  0  0  0  0  0  0
    5.6706   -3.1003    3.1774 C   0  0  0  0  0  0  0  0  0  0  0  0
    6.8765   -2.6681    2.6179 C   0  0  0  0  0  0  0  0  0  0  0  0
    8.0059   -3.8505    1.8776 S   0  0  0  0  0  0  0  0  0  0  0  0
    7.1772   -3.8115    0.2541 C   0  0  0  0  0  0  0  0  0  0  0  0
    7.2066   -1.3128    2.6555 C   0  0  0  0  0  0  0  0  0  0  0  0
    6.3204   -0.3883    3.2100 C   0  0  0  0  0  0  0  0  0  0  0  0
    1.8210   -0.3855    3.4639 C   0  0  0  0  0  0  0  0  0  0  0  0
    1.9234   -0.1654    1.8202 S   0  0  0  0  0  0  0  0  0  0  0  0
    0.2528    0.0479    1.5358 C   0  0  0  0  0  0  0  0  0  0  0  0
   -0.4000   -0.0926    2.7924 C   0  0  0  0  0  0  0  0  0  0  0  0
   -1.7594    0.2602    3.1033 N   0  0  0  0  0  0  0  0  0  0  0  0
   -2.1470    1.6572    3.0476 C   0  0  0  0  0  0  0  0  0  0  0  0
   -3.5064    2.0229    2.9916 C   0  0  0  0  0  0  0  0  0  0  0  0
   -3.8878    3.3691    3.0768 C   0  0  0  0  0  0  0  0  0  0  0  0
   -2.9163    4.3669    3.1807 C   0  0  0  0  0  0  0  0  0  0  0  0
   -3.3991    6.0838    3.3535 S   0  0  0  0  0  0  0  0  0  0  0  0
   -3.2851    6.4234    1.5687 C   0  0  0  0  0  0  0  0  0  0  0  0
   -1.5640    4.0176    3.2012 C   0  0  0  0  0  0  0  0  0  0  0  0
   -1.1820    2.6794    3.1227 C   0  0  0  0  0  0  0  0  0  0  0  0
   -2.4959   -0.6861    3.9298 C   0  0  0  0  0  0  0  0  0  0  0  0
   -3.2728   -0.2620    5.0288 C   0  0  0  0  0  0  0  0  0  0  0  0
   -3.9586   -1.1851    5.8153 C   0  0  0  0  0  0  0  0  0  0  0  0
   -3.8740   -2.5495    5.5320 C   0  0  0  0  0  0  0  0  0  0  0  0
   -4.8086   -3.7300    6.5070 S   0  0  0  0  0  0  0  0  0  0  0  0
   -6.2672   -3.6413    5.4130 C   0  0  0  0  0  0  0  0  0  0  0  0
   -3.0376   -2.9920    4.5068 C   0  0  0  0  0  0  0  0  0  0  0  0
   -2.3391   -2.0722    3.7292 C   0  0  0  0  0  0  0  0  0  0  0  0
    0.5223   -0.3396    3.8224 C   0  0  0  0  0  0  0  0  0  0  0  0
    0.4362   -0.2341    5.4864 S   0  0  0  0  0  0  0  0  0  0  0  0
   -0.1942    0.6081    0.2243 C   0  0  0  0  0  0  0  0  0  0  0  0
   -1.4412    0.6093   -0.4638 C   0  0  0  0  0  0  0  0  0  0  0  0
   -2.6551   -0.0634   -0.0658 N   0  0  0  0  0  0  0  0  0  0  0  0
   -3.9111    0.6325   -0.2948 C   0  0  0  0  0  0  0  0  0  0  0  0
   -5.0294   -0.0302   -0.8527 C   0  0  0  0  0  0  0  0  0  0  0  0
   -6.2071    0.6682   -1.1224 C   0  0  0  0  0  0  0  0  0  0  0  0
   -6.2919    2.0413   -0.8724 C   0  0  0  0  0  0  0  0  0  0  0  0
   -7.8000    2.9333   -1.2450 S   0  0  0  0  0  0  0  0  0  0  0  0
   -7.2000    3.5002   -2.8683 C   0  0  0  0  0  0  0  0  0  0  0  0
   -5.1870    2.7154   -0.3427 C   0  0  0  0  0  0  0  0  0  0  0  0
   -4.0007    2.0208   -0.0755 C   0  0  0  0  0  0  0  0  0  0  0  0
   -2.6598   -1.5068    0.0499 C   0  0  0  0  0  0  0  0  0  0  0  0
   -3.5568   -2.1317    0.9292 C   0  0  0  0  0  0  0  0  0  0  0  0
   -3.6760   -3.5229    0.9437 C   0  0  0  0  0  0  0  0  0  0  0  0
   -2.9513   -4.2956    0.0390 C   0  0  0  0  0  0  0  0  0  0  0  0
   -3.2207   -6.0734   -0.0281 S   0  0  0  0  0  0  0  0  0  0  0  0
   -4.7414   -5.9347   -1.0260 C   0  0  0  0  0  0  0  0  0  0  0  0
   -2.0393   -3.6910   -0.8273 C   0  0  0  0  0  0  0  0  0  0  0  0
   -1.8969   -2.3005   -0.8206 C   0  0  0  0  0  0  0  0  0  0  0  0
   -1.3124    1.1922   -1.7373 C   0  0  0  0  0  0  0  0  0  0  0  0
   -2.3107    1.2705   -3.0939 S   0  0  0  0  0  0  0  0  0  0  0  0
   -1.0847    1.8581   -4.1318 C   0  0  0  0  0  0  0  0  0  0  0  0
    0.1183    1.9311   -3.4216 C   0  0  0  0  0  0  0  0  0  0  0  0
    1.4015    2.2270   -3.9930 N   0  0  0  0  0  0  0  0  0  0  0  0
    2.3217    1.1620   -4.3378 C   0  0  0  0  0  0  0  0  0  0  0  0
    3.4515    1.4444   -5.1305 C   0  0  0  0  0  0  0  0  0  0  0  0
    4.4684    0.4947   -5.2812 C   0  0  0  0  0  0  0  0  0  0  0  0
    4.3833   -0.7335   -4.6282 C   0  0  0  0  0  0  0  0  0  0  0  0
    5.7741   -1.8679   -4.6434 S   0  0  0  0  0  0  0  0  0  0  0  0
    5.3089   -2.6445   -6.2200 C   0  0  0  0  0  0  0  0  0  0  0  0
    3.2250   -1.0644   -3.9151 C   0  0  0  0  0  0  0  0  0  0  0  0
    2.1991   -0.1253   -3.7770 C   0  0  0  0  0  0  0  0  0  0  0  0
    1.8999    3.5415   -3.7057 C   0  0  0  0  0  0  0  0  0  0  0  0
    3.0018    3.7091   -2.8539 C   0  0  0  0  0  0  0  0  0  0  0  0
    3.3683    4.9838   -2.4120 C   0  0  0  0  0  0  0  0  0  0  0  0
    2.6302    6.1031   -2.8172 C   0  0  0  0  0  0  0  0  0  0  0  0
    3.0076    7.7061   -2.1219 S   0  0  0  0  0  0  0  0  0  0  0  0
    1.8109    7.5063   -0.7657 C   0  0  0  0  0  0  0  0  0  0  0  0
    1.5710    5.9502   -3.7187 C   0  0  0  0  0  0  0  0  0  0  0  0
    1.2051    4.6754   -4.1574 C   0  0  0  0  0  0  0  0  0  0  0  0
   -0.0709    1.5825   -2.0851 C   0  0  0  0  0  0  0  0  0  0  0  0
    0.9691    1.3097   -0.8183 S   0  0  0  0  0  0  0  0  0  0  0  0
   -1.2639    2.0776   -5.5701 C   0  0  0  0  0  0  0  0  0  0  0  0
   -0.8325    1.1239   -6.4797 C   0  0  0  0  0  0  0  0  0  0  0  0
   -0.0966    0.0237   -6.2567 N   0  0  0  0  0  0  0  0  0  0  0  0
   -0.0070   -0.5615   -7.4507 N   0  0  0  0  0  0  0  0  0  0  0  0
    0.8421   -1.7213   -7.6986 C   0  0  0  0  0  0  0  0  0  0  0  0
    2.2015   -1.2736   -8.2382 C   0  0  0  0  0  0  0  0  0  0  0  0
   -0.6386    0.1062   -8.4139 N   0  0  0  0  0  0  0  0  0  0  0  0
   -1.1601    1.1768   -7.7969 C   0  0  0  0  0  0  0  0  0  0  0  0
   -1.9325    2.2027   -8.3304 C   0  0  0  0  0  0  0  0  0  0  0  0
   -2.2397    3.2869   -7.4789 C   0  0  0  0  0  0  0  0  0  0  0  0
   -1.9585    3.1987   -6.0845 C   0  0  0  0  0  0  0  0  0  0  0  0
   -2.5011    4.4747   -4.9926 Cl  0  0  0  0  0  0  0  0  0  0  0  0
   -2.8565    4.7811   -8.1664 Cl  0  0  0  0  0  0  0  0  0  0  0  0
   -2.5707    2.0060   -9.6430 C   0  0  0  0  0  0  0  0  0  0  0  0
   -3.6424    1.1924   -9.7470 C   0  0  0  0  0  0  0  0  0  0  0  0
   -3.6720    0.1026  -10.7230 C   0  0  0  0  0  0  0  0  0  0  0  0
   -3.1062    0.0989  -11.8491 O   0  0  0  0  0  0  0  0  0  0  0  0
   -4.3133   -1.0459  -10.1049 C   0  0  0  0  0  0  0  0  0  0  0  0
   -4.4487   -2.3434  -10.6012 C   0  0  0  0  0  0  0  0  0  0  0  0
   -5.0092   -3.3299   -9.7739 C   0  0  0  0  0  0  0  0  0  0  0  0
   -5.1153   -4.6419  -10.2709 O   0  0  0  0  0  0  0  0  0  0  0  0
   -5.4182   -5.7781   -9.4785 C   0  0  0  0  0  0  0  0  0  0  0  0
   -5.4334   -2.9904   -8.4674 C   0  0  0  0  0  0  0  0  0  0  0  0
   -5.2716   -1.6815   -7.9789 C   0  0  0  0  0  0  0  0  0  0  0  0
   -4.7139   -0.7102   -8.8218 C   0  0  0  0  0  0  0  0  0  0  0  0
   -4.4643    0.7306   -8.5976 C   0  0  0  0  0  0  0  0  0  0  0  0
   -5.1848    1.5386   -7.8004 C   0  0  0  0  0  0  0  0  0  0  0  0
   -5.8868    1.0565   -6.6414 C   0  0  0  0  0  0  0  0  0  0  0  0
   -6.4464    0.6932   -5.6924 N   0  0  0  0  0  0  0  0  0  0  0  0
   -5.5147    2.8759   -8.2153 C   0  0  0  0  0  0  0  0  0  0  0  0
   -5.8284    3.9372   -8.5660 N   0  0  0  0  0  0  0  0  0  0  0  0
    1.8106   -0.4269    7.8721 H   0  0  0  0  0  0  0  0  0  0  0  0
    5.5035   -2.7120   10.9285 H   0  0  0  0  0  0  0  0  0  0  0  0
    9.8265   -4.2549   10.2497 H   0  0  0  0  0  0  0  0  0  0  0  0
    9.7158   -3.9745   12.0255 H   0  0  0  0  0  0  0  0  0  0  0  0
    9.9555   -2.5727   10.9206 H   0  0  0  0  0  0  0  0  0  0  0  0
    9.0794   -2.7785    8.4915 H   0  0  0  0  0  0  0  0  0  0  0  0
    7.8812   -1.6057    6.6907 H   0  0  0  0  0  0  0  0  0  0  0  0
    4.6163    1.2438    1.7353 H   0  0  0  0  0  0  0  0  0  0  0  0
    4.7615    3.6243    1.1675 H   0  0  0  0  0  0  0  0  0  0  0  0
    2.2462    5.6505    2.0346 H   0  0  0  0  0  0  0  0  0  0  0  0
    2.6075    7.4179    2.2609 H   0  0  0  0  0  0  0  0  0  0  0  0
    2.3225    6.3709    3.6970 H   0  0  0  0  0  0  0  0  0  0  0  0
    3.7940    4.6703    5.2200 H   0  0  0  0  0  0  0  0  0  0  0  0
    3.4872    2.2919    5.7510 H   0  0  0  0  0  0  0  0  0  0  0  0
    3.8406   -2.5549    4.1153 H   0  0  0  0  0  0  0  0  0  0  0  0
    5.4238   -4.1564    3.1743 H   0  0  0  0  0  0  0  0  0  0  0  0
    6.1155   -4.1178    0.3590 H   0  0  0  0  0  0  0  0  0  0  0  0
    7.6901   -4.5141   -0.4326 H   0  0  0  0  0  0  0  0  0  0  0  0
    7.2253   -2.7854   -0.1671 H   0  0  0  0  0  0  0  0  0  0  0  0
    8.1508   -0.9720    2.2482 H   0  0  0  0  0  0  0  0  0  0  0  0
    6.6173    0.6510    3.2282 H   0  0  0  0  0  0  0  0  0  0  0  0
   -4.2713    1.2607    2.9019 H   0  0  0  0  0  0  0  0  0  0  0  0
   -4.9354    3.6265    3.0525 H   0  0  0  0  0  0  0  0  0  0  0  0
   -2.2503    6.2297    1.2108 H   0  0  0  0  0  0  0  0  0  0  0  0
   -3.5300    7.4904    1.3877 H   0  0  0  0  0  0  0  0  0  0  0  0
   -4.0006    5.7845    1.0147 H   0  0  0  0  0  0  0  0  0  0  0  0
   -0.8028    4.7849    3.2872 H   0  0  0  0  0  0  0  0  0  0  0  0
   -0.1241    2.4514    3.1875 H   0  0  0  0  0  0  0  0  0  0  0  0
   -3.3254    0.7839    5.3058 H   0  0  0  0  0  0  0  0  0  0  0  0
   -4.5634   -0.8366    6.6449 H   0  0  0  0  0  0  0  0  0  0  0  0
   -5.9941   -3.9629    4.3836 H   0  0  0  0  0  0  0  0  0  0  0  0
   -7.0619   -4.3134    5.8007 H   0  0  0  0  0  0  0  0  0  0  0  0
   -6.6574   -2.5985    5.3804 H   0  0  0  0  0  0  0  0  0  0  0  0
   -2.9455   -4.0524    4.3006 H   0  0  0  0  0  0  0  0  0  0  0  0
   -1.6894   -2.4405    2.9430 H   0  0  0  0  0  0  0  0  0  0  0  0
   -4.9840   -1.0789   -1.1147 H   0  0  0  0  0  0  0  0  0  0  0  0
   -7.0551    0.1431   -1.5438 H   0  0  0  0  0  0  0  0  0  0  0  0
   -8.0109    4.0538   -3.3848 H   0  0  0  0  0  0  0  0  0  0  0  0
   -6.3358    4.1824   -2.7307 H   0  0  0  0  0  0  0  0  0  0  0  0
   -6.8938    2.6362   -3.4912 H   0  0  0  0  0  0  0  0  0  0  0  0
   -5.2300    3.7806   -0.1737 H   0  0  0  0  0  0  0  0  0  0  0  0
   -3.1493    2.5746    0.3001 H   0  0  0  0  0  0  0  0  0  0  0  0
   -4.1679   -1.5388    1.5945 H   0  0  0  0  0  0  0  0  0  0  0  0
   -4.3750   -3.9906    1.6312 H   0  0  0  0  0  0  0  0  0  0  0  0
   -5.0868   -6.9472   -1.3138 H   0  0  0  0  0  0  0  0  0  0  0  0
   -5.5352   -5.4486   -0.4202 H   0  0  0  0  0  0  0  0  0  0  0  0
   -4.5697   -5.3372   -1.9490 H   0  0  0  0  0  0  0  0  0  0  0  0
   -1.4842   -4.2895   -1.5395 H   0  0  0  0  0  0  0  0  0  0  0  0
   -1.2341   -1.8492   -1.5499 H   0  0  0  0  0  0  0  0  0  0  0  0
    3.5632    2.4146   -5.6022 H   0  0  0  0  0  0  0  0  0  0  0  0
    5.3547    0.7439   -5.8533 H   0  0  0  0  0  0  0  0  0  0  0  0
    6.0246   -3.4626   -6.4499 H   0  0  0  0  0  0  0  0  0  0  0  0
    5.3447   -1.8904   -7.0366 H   0  0  0  0  0  0  0  0  0  0  0  0
    4.2833   -3.0685   -6.1431 H   0  0  0  0  0  0  0  0  0  0  0  0
    3.1559   -2.0088   -3.4019 H   0  0  0  0  0  0  0  0  0  0  0  0
    1.3427   -0.3969   -3.1792 H   0  0  0  0  0  0  0  0  0  0  0  0
    3.5416    2.8540   -2.4794 H   0  0  0  0  0  0  0  0  0  0  0  0
    4.1838    5.0915   -1.7075 H   0  0  0  0  0  0  0  0  0  0  0  0
    1.9758    8.3019   -0.0139 H   0  0  0  0  0  0  0  0  0  0  0  0
    1.9229    6.5176   -0.2796 H   0  0  0  0  0  0  0  0  0  0  0  0
    0.7832    7.5967   -1.1692 H   0  0  0  0  0  0  0  0  0  0  0  0
    0.9988    6.8128   -4.0329 H   0  0  0  0  0  0  0  0  0  0  0  0
    0.3594    4.5666   -4.8200 H   0  0  0  0  0  0  0  0  0  0  0  0
    0.9891   -2.2785   -6.7486 H   0  0  0  0  0  0  0  0  0  0  0  0
    0.3497   -2.4136   -8.4228 H   0  0  0  0  0  0  0  0  0  0  0  0
    2.1124   -1.0035   -9.3058 H   0  0  0  0  0  0  0  0  0  0  0  0
    2.9301   -2.0985   -8.1371 H   0  0  0  0  0  0  0  0  0  0  0  0
    2.5797   -0.4011   -7.6649 H   0  0  0  0  0  0  0  0  0  0  0  0
   -1.9277    2.1181  -10.5137 H   0  0  0  0  0  0  0  0  0  0  0  0
   -4.0957   -2.5814  -11.5873 H   0  0  0  0  0  0  0  0  0  0  0  0
   -6.4100   -5.6634   -8.9989 H   0  0  0  0  0  0  0  0  0  0  0  0
   -4.6302   -5.9155   -8.7139 H   0  0  0  0  0  0  0  0  0  0  0  0
   -5.4454   -6.6737  -10.1214 H   0  0  0  0  0  0  0  0  0  0  0  0
   -5.8499   -3.7329   -7.8046 H   0  0  0  0  0  0  0  0  0  0  0  0
   -5.5718   -1.4553   -6.9705 H   0  0  0  0  0  0  0  0  0  0  0  0
  1  2  2  3
  2  3  1  0
  3  4  2  0
  3  5  1  0
  5  6  2  0
  6  7  1  0
  7  8  1  0
  8  9  1  0
  7 10  2  0
 10 11  1  0
 11 12  2  0
 12 13  1  0
 13 14  2  3
 14 15  1  0
 15 16  3  0
 14 17  1  0
 17 18  3  0
  1 19  1  0
 19 20  2  0
 20 21  1  0
 21 22  1  0
 22 23  2  0
 23 24  1  0
 24 25  2  0
 25 26  1  0
 26 27  1  0
 25 28  1  0
 28 29  2  0
 21 30  1  0
 30 31  2  0
 31 32  1  0
 32 33  2  0
 33 34  1  0
 34 35  1  0
 33 36  1  0
 36 37  2  0
 20 38  1  0
 38 39  1  0
 39 40  1  0
 40 41  2  0
 41 42  1  0
 42 43  1  0
 43 44  2  0
 44 45  1  0
 45 46  2  0
 46 47  1  0
 47 48  1  0
 46 49  1  0
 49 50  2  0
 42 51  1  0
 51 52  2  0
 52 53  1  0
 53 54  2  0
 54 55  1  0
 55 56  1  0
 54 57  1  0
 57 58  2  0
 41 59  1  0
 59 60  1  0
 40 61  1  0
 61 62  2  0
 62 63  1  0
 63 64  1  0
 64 65  2  0
 65 66  1  0
 66 67  2  0
 67 68  1  0
 68 69  1  0
 67 70  1  0
 70 71  2  0
 63 72  1  0
 72 73  2  0
 73 74  1  0
 74 75  2  0
 75 76  1  0
 76 77  1  0
 75 78  1  0
 78 79  2  0
 62 80  1  0
 80 81  1  0
 81 82  1  0
 82 83  2  0
 83 84  1  0
 84 85  1  0
 85 86  2  0
 86 87  1  0
 87 88  2  0
 88 89  1  0
 89 90  1  0
 88 91  1  0
 91 92  2  0
 84 93  1  0
 93 94  2  0
 94 95  1  0
 95 96  2  0
 96 97  1  0
 97 98  1  0
 96 99  1  0
 99100  2  0
 83101  1  0
101102  1  0
 82103  1  0
103104  1  0
104105  2  0
105106  1  0
106107  1  0
107108  1  0
106109  1  0
109110  2  0
110111  1  0
111112  2  0
112113  1  0
113114  1  0
112115  1  0
111116  1  0
116117  2  3
117118  1  0
118119  2  0
118120  1  0
120121  2  0
121122  1  0
122123  1  0
123124  1  0
122125  2  0
125126  1  0
126127  2  0
127128  1  0
128129  2  3
129130  1  0
130131  3  0
129132  1  0
132133  3  0
 13  2  1  0
 60 19  1  0
102 61  1  0
113103  2  0
128117  1  0
 12  5  1  0
 29 22  1  0
 37 30  1  0
 59 38  2  0
 71 64  1  0
 79 72  1  0
101 80  2  0
110104  1  0
127120  1  0
 50 43  1  0
 58 51  1  0
 92 85  1  0
100 93  1  0
  1134  1  0
  6135  1  0
  9136  1  0
  9137  1  0
  9138  1  0
 10139  1  0
 11140  1  0
 23141  1  0
 24142  1  0
 27143  1  0
 27144  1  0
 27145  1  0
 28146  1  0
 29147  1  0
 31148  1  0
 32149  1  0
 35150  1  0
 35151  1  0
 35152  1  0
 36153  1  0
 37154  1  0
 44155  1  0
 45156  1  0
 48157  1  0
 48158  1  0
 48159  1  0
 49160  1  0
 50161  1  0
 52162  1  0
 53163  1  0
 56164  1  0
 56165  1  0
 56166  1  0
 57167  1  0
 58168  1  0
 65169  1  0
 66170  1  0
 69171  1  0
 69172  1  0
 69173  1  0
 70174  1  0
 71175  1  0
 73176  1  0
 74177  1  0
 77178  1  0
 77179  1  0
 77180  1  0
 78181  1  0
 79182  1  0
 86183  1  0
 87184  1  0
 90185  1  0
 90186  1  0
 90187  1  0
 91188  1  0
 92189  1  0
 94190  1  0
 95191  1  0
 98192  1  0
 98193  1  0
 98194  1  0
 99195  1  0
100196  1  0
107197  1  0
107198  1  0
108199  1  0
108200  1  0
108201  1  0
116202  1  0
121203  1  0
124204  1  0
124205  1  0
124206  1  0
125207  1  0
126208  1  0
M  END

