
     RDKit          3D

216234  0  0  0  0  0  0  0  0999 V2000
    5.9643    7.0495   -0.2088 C   0  0  0  0  0  0  0  0  0  0  0  0
    6.9627    7.9494   -0.2866 C   0  0  0  0  0  0  0  0  0  0  0  0
    7.3774    8.9293    0.7180 C   0  0  0  0  0  0  0  0  0  0  0  0
    7.0101    8.9811    1.9185 O   0  0  0  0  0  0  0  0  0  0  0  0
    8.2210    9.9113    0.0608 C   0  0  0  0  0  0  0  0  0  0  0  0
    8.9247   10.9623    0.6438 C   0  0  0  0  0  0  0  0  0  0  0  0
    9.7587   11.7567   -0.1748 C   0  0  0  0  0  0  0  0  0  0  0  0
   10.5616   12.7846    0.3456 O   0  0  0  0  0  0  0  0  0  0  0  0
   10.7377   13.0350    1.7345 C   0  0  0  0  0  0  0  0  0  0  0  0
    9.8135   11.5043   -1.5593 C   0  0  0  0  0  0  0  0  0  0  0  0
    9.1081   10.4319   -2.1233 C   0  0  0  0  0  0  0  0  0  0  0  0
    8.3162    9.6217   -1.2890 C   0  0  0  0  0  0  0  0  0  0  0  0
    7.6447    8.3276   -1.5561 C   0  0  0  0  0  0  0  0  0  0  0  0
    7.7877    7.5315   -2.6393 C   0  0  0  0  0  0  0  0  0  0  0  0
    8.3128    8.0002   -3.8956 C   0  0  0  0  0  0  0  0  0  0  0  0
    8.7237    8.3541   -4.9150 N   0  0  0  0  0  0  0  0  0  0  0  0
    7.7748    6.0965   -2.4722 C   0  0  0  0  0  0  0  0  0  0  0  0
    7.8412    4.9457   -2.3215 N   0  0  0  0  0  0  0  0  0  0  0  0
    5.2347    6.6133    0.9978 C   0  0  0  0  0  0  0  0  0  0  0  0
    3.8731    6.2709    0.8447 C   0  0  0  0  0  0  0  0  0  0  0  0
    3.2264    5.5774    1.8705 C   0  0  0  0  0  0  0  0  0  0  0  0
    2.0433    4.9182    1.7866 N   0  0  0  0  0  0  0  0  0  0  0  0
    1.1210    4.8891    0.6468 C   0  0  0  0  0  0  0  0  0  0  0  0
    1.5705    3.8725   -0.3940 C   0  0  0  0  0  0  0  0  0  0  0  0
    2.0108    4.1158    2.8798 C   0  0  0  0  0  0  0  0  0  0  0  0
    3.1216    4.3114    3.6777 C   0  0  0  0  0  0  0  0  0  0  0  0
    3.8985    5.2420    3.0301 C   0  0  0  0  0  0  0  0  0  0  0  0
    5.2382    5.5860    3.2289 C   0  0  0  0  0  0  0  0  0  0  0  0
    5.9068    6.2774    2.1999 C   0  0  0  0  0  0  0  0  0  0  0  0
    3.4305    3.4591    4.7416 C   0  0  0  0  0  0  0  0  0  0  0  0
    2.6028    2.3432    4.9546 C   0  0  0  0  0  0  0  0  0  0  0  0
    1.5107    2.0853    4.0909 C   0  0  0  0  0  0  0  0  0  0  0  0
    1.1775    3.0106    3.0751 C   0  0  0  0  0  0  0  0  0  0  0  0
    1.0477    0.6959    3.9454 C   0  0  0  0  0  0  0  0  0  0  0  0
   -0.2817    0.2571    3.7959 C   0  0  0  0  0  0  0  0  0  0  0  0
   -1.4289    0.9119    4.3526 N   0  0  0  0  0  0  0  0  0  0  0  0
   -1.9959    0.3723    5.5603 C   0  0  0  0  0  0  0  0  0  0  0  0
   -3.3653    0.0611    5.6256 C   0  0  0  0  0  0  0  0  0  0  0  0
   -3.8982   -0.5351    6.7751 C   0  0  0  0  0  0  0  0  0  0  0  0
   -3.0709   -0.8177    7.8677 C   0  0  0  0  0  0  0  0  0  0  0  0
   -3.7535   -1.5799    9.3434 S   0  0  0  0  0  0  0  0  0  0  0  0
   -3.3894   -3.2711    8.7876 C   0  0  0  0  0  0  0  0  0  0  0  0
   -1.7087   -0.5066    7.8091 C   0  0  0  0  0  0  0  0  0  0  0  0
   -1.1713    0.0773    6.6581 C   0  0  0  0  0  0  0  0  0  0  0  0
   -2.0946    1.9684    3.6403 C   0  0  0  0  0  0  0  0  0  0  0  0
   -2.2502    1.8993    2.2440 C   0  0  0  0  0  0  0  0  0  0  0  0
   -2.9018    2.9257    1.5614 C   0  0  0  0  0  0  0  0  0  0  0  0
   -3.4019    4.0312    2.2542 C   0  0  0  0  0  0  0  0  0  0  0  0
   -4.2021    5.3584    1.3517 S   0  0  0  0  0  0  0  0  0  0  0  0
   -5.8312    4.5588    1.3402 C   0  0  0  0  0  0  0  0  0  0  0  0
   -3.2561    4.1042    3.6412 C   0  0  0  0  0  0  0  0  0  0  0  0
   -2.6084    3.0794    4.3351 C   0  0  0  0  0  0  0  0  0  0  0  0
   -0.3316   -1.0122    3.2214 C   0  0  0  0  0  0  0  0  0  0  0  0
   -1.5560   -1.9404    2.5680 S   0  0  0  0  0  0  0  0  0  0  0  0
   -0.5228   -3.0879    1.8180 C   0  0  0  0  0  0  0  0  0  0  0  0
    0.8127   -2.7073    2.0993 C   0  0  0  0  0  0  0  0  0  0  0  0
    1.9931   -3.4501    1.7343 N   0  0  0  0  0  0  0  0  0  0  0  0
    3.0698   -2.6920    1.1396 C   0  0  0  0  0  0  0  0  0  0  0  0
    4.2869   -2.5178    1.8276 C   0  0  0  0  0  0  0  0  0  0  0  0
    5.2218   -1.5768    1.3826 C   0  0  0  0  0  0  0  0  0  0  0  0
    4.9702   -0.8204    0.2355 C   0  0  0  0  0  0  0  0  0  0  0  0
    6.0923    0.4963   -0.2444 S   0  0  0  0  0  0  0  0  0  0  0  0
    5.0865    1.8044    0.5334 C   0  0  0  0  0  0  0  0  0  0  0  0
    3.7954   -1.0331   -0.4907 C   0  0  0  0  0  0  0  0  0  0  0  0
    2.8490   -1.9532   -0.0342 C   0  0  0  0  0  0  0  0  0  0  0  0
    2.2510   -4.7361    2.3697 C   0  0  0  0  0  0  0  0  0  0  0  0
    1.4751   -5.1813    3.4628 C   0  0  0  0  0  0  0  0  0  0  0  0
    1.8025   -6.3534    4.1466 C   0  0  0  0  0  0  0  0  0  0  0  0
    2.9202   -7.0967    3.7667 C   0  0  0  0  0  0  0  0  0  0  0  0
    3.3443   -8.5995    4.6540 S   0  0  0  0  0  0  0  0  0  0  0  0
    4.3180   -7.7299    5.9222 C   0  0  0  0  0  0  0  0  0  0  0  0
    3.6790   -6.6941    2.6635 C   0  0  0  0  0  0  0  0  0  0  0  0
    3.3372   -5.5318    1.9605 C   0  0  0  0  0  0  0  0  0  0  0  0
    0.8650   -1.5513    2.8855 C   0  0  0  0  0  0  0  0  0  0  0  0
    2.0898   -0.4969    3.3212 S   0  0  0  0  0  0  0  0  0  0  0  0
   -0.9742   -3.8112    0.6126 C   0  0  0  0  0  0  0  0  0  0  0  0
   -2.3281   -4.1799    0.4708 C   0  0  0  0  0  0  0  0  0  0  0  0
   -3.0001   -5.0562    1.3943 N   0  0  0  0  0  0  0  0  0  0  0  0
   -4.3924   -4.8809    1.6934 C   0  0  0  0  0  0  0  0  0  0  0  0
   -4.8648   -3.6635    2.2171 C   0  0  0  0  0  0  0  0  0  0  0  0
   -6.2228   -3.4940    2.5031 C   0  0  0  0  0  0  0  0  0  0  0  0
   -7.1318   -4.5283    2.2390 C   0  0  0  0  0  0  0  0  0  0  0  0
   -8.8782   -4.3221    2.5841 S   0  0  0  0  0  0  0  0  0  0  0  0
   -9.2652   -3.7790    0.8869 C   0  0  0  0  0  0  0  0  0  0  0  0
   -6.6654   -5.7443    1.7342 C   0  0  0  0  0  0  0  0  0  0  0  0
   -5.3117   -5.9205    1.4538 C   0  0  0  0  0  0  0  0  0  0  0  0
   -2.3796   -6.3298    1.6238 C   0  0  0  0  0  0  0  0  0  0  0  0
   -1.8942   -6.6615    2.8970 C   0  0  0  0  0  0  0  0  0  0  0  0
   -1.2239   -7.8721    3.0933 C   0  0  0  0  0  0  0  0  0  0  0  0
   -1.0676   -8.7742    2.0312 C   0  0  0  0  0  0  0  0  0  0  0  0
   -0.1511  -10.2942    2.2745 S   0  0  0  0  0  0  0  0  0  0  0  0
    1.3938   -9.5944    1.6050 C   0  0  0  0  0  0  0  0  0  0  0  0
   -1.5830   -8.4601    0.7720 C   0  0  0  0  0  0  0  0  0  0  0  0
   -2.2300   -7.2393    0.5635 C   0  0  0  0  0  0  0  0  0  0  0  0
   -2.8138   -3.8843   -0.8067 C   0  0  0  0  0  0  0  0  0  0  0  0
   -4.3594   -3.6239   -1.4073 S   0  0  0  0  0  0  0  0  0  0  0  0
   -3.8256   -2.8601   -2.8395 C   0  0  0  0  0  0  0  0  0  0  0  0
   -2.4220   -2.8067   -2.8390 C   0  0  0  0  0  0  0  0  0  0  0  0
   -1.6301   -2.2682   -3.9183 N   0  0  0  0  0  0  0  0  0  0  0  0
   -1.3564   -3.0697   -5.0971 C   0  0  0  0  0  0  0  0  0  0  0  0
   -1.9800   -4.3215   -5.2887 C   0  0  0  0  0  0  0  0  0  0  0  0
   -1.7153   -5.0874   -6.4211 C   0  0  0  0  0  0  0  0  0  0  0  0
   -0.8171   -4.6254   -7.3847 C   0  0  0  0  0  0  0  0  0  0  0  0
   -0.4651   -5.6080   -8.8396 S   0  0  0  0  0  0  0  0  0  0  0  0
   -1.8450   -4.9165   -9.7936 C   0  0  0  0  0  0  0  0  0  0  0  0
   -0.1738   -3.3956   -7.2095 C   0  0  0  0  0  0  0  0  0  0  0  0
   -0.4342   -2.6264   -6.0735 C   0  0  0  0  0  0  0  0  0  0  0  0
   -1.2812   -0.8672   -3.8956 C   0  0  0  0  0  0  0  0  0  0  0  0
   -0.3286   -0.3839   -2.9854 C   0  0  0  0  0  0  0  0  0  0  0  0
    0.0494    0.9602   -2.9970 C   0  0  0  0  0  0  0  0  0  0  0  0
   -0.5142    1.8352   -3.9296 C   0  0  0  0  0  0  0  0  0  0  0  0
   -0.0424    3.5675   -3.9351 S   0  0  0  0  0  0  0  0  0  0  0  0
    1.3862    3.3034   -5.0304 C   0  0  0  0  0  0  0  0  0  0  0  0
   -1.4533    1.3583   -4.8575 C   0  0  0  0  0  0  0  0  0  0  0  0
   -1.8335    0.0142   -4.8416 C   0  0  0  0  0  0  0  0  0  0  0  0
   -1.8992   -3.3940   -1.6845 C   0  0  0  0  0  0  0  0  0  0  0  0
   -0.4313   -3.2742   -0.9054 S   0  0  0  0  0  0  0  0  0  0  0  0
   -4.6913   -2.0427   -3.6949 C   0  0  0  0  0  0  0  0  0  0  0  0
   -4.8628   -0.7189   -3.4836 C   0  0  0  0  0  0  0  0  0  0  0  0
   -4.1373    0.0792   -2.4888 C   0  0  0  0  0  0  0  0  0  0  0  0
   -3.5269   -0.3523   -1.4728 O   0  0  0  0  0  0  0  0  0  0  0  0
   -4.2128    1.4656   -2.8742 C   0  0  0  0  0  0  0  0  0  0  0  0
   -3.4542    2.5235   -2.3818 C   0  0  0  0  0  0  0  0  0  0  0  0
   -3.5734    3.7864   -2.9790 C   0  0  0  0  0  0  0  0  0  0  0  0
   -2.8234    4.8475   -2.4496 O   0  0  0  0  0  0  0  0  0  0  0  0
   -2.8041    6.1694   -2.9779 C   0  0  0  0  0  0  0  0  0  0  0  0
   -4.4246    3.9435   -4.0971 C   0  0  0  0  0  0  0  0  0  0  0  0
   -5.1341    2.8469   -4.6163 C   0  0  0  0  0  0  0  0  0  0  0  0
   -5.0340    1.6023   -3.9757 C   0  0  0  0  0  0  0  0  0  0  0  0
   -5.5864    0.2653   -4.3503 C   0  0  0  0  0  0  0  0  0  0  0  0
   -6.6555    0.0234   -5.1467 C   0  0  0  0  0  0  0  0  0  0  0  0
   -7.4120    1.0828   -5.7667 C   0  0  0  0  0  0  0  0  0  0  0  0
   -8.0314    1.9242   -6.2644 N   0  0  0  0  0  0  0  0  0  0  0  0
   -7.1880   -1.3040   -5.3437 C   0  0  0  0  0  0  0  0  0  0  0  0
   -7.6101   -2.3620   -5.5198 N   0  0  0  0  0  0  0  0  0  0  0  0
    5.6209    6.6071   -1.1369 H   0  0  0  0  0  0  0  0  0  0  0  0
    8.8540   11.1325    1.7118 H   0  0  0  0  0  0  0  0  0  0  0  0
   11.4856   13.8467    1.8754 H   0  0  0  0  0  0  0  0  0  0  0  0
    9.7761   13.3594    2.1836 H   0  0  0  0  0  0  0  0  0  0  0  0
   11.1161   12.1197    2.2377 H   0  0  0  0  0  0  0  0  0  0  0  0
   10.4304   12.1270   -2.1940 H   0  0  0  0  0  0  0  0  0  0  0  0
    9.1947   10.2647   -3.1787 H   0  0  0  0  0  0  0  0  0  0  0  0
    3.3630    6.4502   -0.0934 H   0  0  0  0  0  0  0  0  0  0  0  0
    0.0990    4.6370    0.9897 H   0  0  0  0  0  0  0  0  0  0  0  0
    1.0551    5.8911    0.1827 H   0  0  0  0  0  0  0  0  0  0  0  0
    0.7207    3.6269   -1.0610 H   0  0  0  0  0  0  0  0  0  0  0  0
    1.9207    2.9370    0.0898 H   0  0  0  0  0  0  0  0  0  0  0  0
    2.3881    4.2994   -1.0081 H   0  0  0  0  0  0  0  0  0  0  0  0
    5.7843    5.2511    4.0981 H   0  0  0  0  0  0  0  0  0  0  0  0
    6.9694    6.4529    2.2943 H   0  0  0  0  0  0  0  0  0  0  0  0
    4.3275    3.5915    5.3279 H   0  0  0  0  0  0  0  0  0  0  0  0
    2.8820    1.6146    5.7091 H   0  0  0  0  0  0  0  0  0  0  0  0
    0.4213    2.7645    2.3475 H   0  0  0  0  0  0  0  0  0  0  0  0
   -4.0139    0.2627    4.7817 H   0  0  0  0  0  0  0  0  0  0  0  0
   -4.9546   -0.7803    6.8089 H   0  0  0  0  0  0  0  0  0  0  0  0
   -2.2974   -3.3873    8.6093 H   0  0  0  0  0  0  0  0  0  0  0  0
   -3.9500   -3.4934    7.8520 H   0  0  0  0  0  0  0  0  0  0  0  0
   -3.7032   -3.9875    9.5756 H   0  0  0  0  0  0  0  0  0  0  0  0
   -1.0649   -0.7185    8.6525 H   0  0  0  0  0  0  0  0  0  0  0  0
   -0.1173    0.3059    6.6274 H   0  0  0  0  0  0  0  0  0  0  0  0
   -1.8866    1.0449    1.6910 H   0  0  0  0  0  0  0  0  0  0  0  0
   -3.0306    2.8646    0.4959 H   0  0  0  0  0  0  0  0  0  0  0  0
   -5.7651    3.5755    0.8386 H   0  0  0  0  0  0  0  0  0  0  0  0
   -6.1988    4.4294    2.3755 H   0  0  0  0  0  0  0  0  0  0  0  0
   -6.5461    5.1985    0.7822 H   0  0  0  0  0  0  0  0  0  0  0  0
   -3.6394    4.9594    4.1829 H   0  0  0  0  0  0  0  0  0  0  0  0
   -2.4996    3.1486    5.4053 H   0  0  0  0  0  0  0  0  0  0  0  0
    4.4727   -3.0473    2.7555 H   0  0  0  0  0  0  0  0  0  0  0  0
    6.1302   -1.4155    1.9463 H   0  0  0  0  0  0  0  0  0  0  0  0
    5.5512    2.7943    0.3462 H   0  0  0  0  0  0  0  0  0  0  0  0
    5.0172    1.6377    1.6285 H   0  0  0  0  0  0  0  0  0  0  0  0
    4.0690    1.8036    0.0950 H   0  0  0  0  0  0  0  0  0  0  0  0
    3.5896   -0.4507   -1.3846 H   0  0  0  0  0  0  0  0  0  0  0  0
    1.9215   -2.0353   -0.5730 H   0  0  0  0  0  0  0  0  0  0  0  0
    0.6281   -4.6105    3.8197 H   0  0  0  0  0  0  0  0  0  0  0  0
    1.1920   -6.6747    4.9827 H   0  0  0  0  0  0  0  0  0  0  0  0
    3.6553   -7.0565    6.5068 H   0  0  0  0  0  0  0  0  0  0  0  0
    5.1208   -7.1428    5.4420 H   0  0  0  0  0  0  0  0  0  0  0  0
    4.7748   -8.4765    6.6073 H   0  0  0  0  0  0  0  0  0  0  0  0
    4.5361   -7.2782    2.3554 H   0  0  0  0  0  0  0  0  0  0  0  0
    3.9540   -5.2393    1.1202 H   0  0  0  0  0  0  0  0  0  0  0  0
   -4.1753   -2.8614    2.4349 H   0  0  0  0  0  0  0  0  0  0  0  0
   -6.5683   -2.5589    2.9301 H   0  0  0  0  0  0  0  0  0  0  0  0
  -10.3686   -3.6988    0.7746 H   0  0  0  0  0  0  0  0  0  0  0  0
   -8.8818   -4.5141    0.1400 H   0  0  0  0  0  0  0  0  0  0  0  0
   -8.8100   -2.7809    0.6936 H   0  0  0  0  0  0  0  0  0  0  0  0
   -7.3583   -6.5531    1.5324 H   0  0  0  0  0  0  0  0  0  0  0  0
   -4.9808   -6.8583    1.0247 H   0  0  0  0  0  0  0  0  0  0  0  0
   -1.9958   -5.9567    3.7153 H   0  0  0  0  0  0  0  0  0  0  0  0
   -0.8192   -8.1023    4.0689 H   0  0  0  0  0  0  0  0  0  0  0  0
    2.2505  -10.2521    1.8630 H   0  0  0  0  0  0  0  0  0  0  0  0
    1.3163   -9.5052    0.5028 H   0  0  0  0  0  0  0  0  0  0  0  0
    1.5664   -8.5865    2.0271 H   0  0  0  0  0  0  0  0  0  0  0  0
   -1.4630   -9.1497   -0.0513 H   0  0  0  0  0  0  0  0  0  0  0  0
   -2.5974   -6.9903   -0.4243 H   0  0  0  0  0  0  0  0  0  0  0  0
   -2.6765   -4.7172   -4.5640 H   0  0  0  0  0  0  0  0  0  0  0  0
   -2.1986   -6.0461   -6.5531 H   0  0  0  0  0  0  0  0  0  0  0  0
   -1.7819   -5.2850  -10.8382 H   0  0  0  0  0  0  0  0  0  0  0  0
   -2.8085   -5.2390   -9.3539 H   0  0  0  0  0  0  0  0  0  0  0  0
   -1.7910   -3.8093   -9.8008 H   0  0  0  0  0  0  0  0  0  0  0  0
    0.5303   -3.0418   -7.9485 H   0  0  0  0  0  0  0  0  0  0  0  0
    0.0966   -1.6926   -5.9567 H   0  0  0  0  0  0  0  0  0  0  0  0
    0.1561   -1.0484   -2.2944 H   0  0  0  0  0  0  0  0  0  0  0  0
    0.7887    1.3153   -2.2902 H   0  0  0  0  0  0  0  0  0  0  0  0
    1.0475    2.8963   -6.0066 H   0  0  0  0  0  0  0  0  0  0  0  0
    1.8962    4.2744   -5.1977 H   0  0  0  0  0  0  0  0  0  0  0  0
    2.1011    2.5964   -4.5574 H   0  0  0  0  0  0  0  0  0  0  0  0
   -1.8948    2.0360   -5.5709 H   0  0  0  0  0  0  0  0  0  0  0  0
   -2.5581   -0.3420   -5.5614 H   0  0  0  0  0  0  0  0  0  0  0  0
   -5.1293   -2.5391   -4.5446 H   0  0  0  0  0  0  0  0  0  0  0  0
   -2.7262    2.3568   -1.6019 H   0  0  0  0  0  0  0  0  0  0  0  0
   -3.8263    6.6054   -2.9611 H   0  0  0  0  0  0  0  0  0  0  0  0
   -2.4101    6.1564   -4.0162 H   0  0  0  0  0  0  0  0  0  0  0  0
   -2.1383    6.8003   -2.3520 H   0  0  0  0  0  0  0  0  0  0  0  0
   -4.5201    4.9019   -4.5874 H   0  0  0  0  0  0  0  0  0  0  0  0
   -5.7059    2.9812   -5.5176 H   0  0  0  0  0  0  0  0  0  0  0  0
  1  2  2  3
  2  3  1  0
  3  4  2  0
  3  5  1  0
  5  6  2  0
  6  7  1  0
  7  8  1  0
  8  9  1  0
  7 10  2  0
 10 11  1  0
 11 12  2  0
 12 13  1  0
 13 14  2  3
 14 15  1  0
 15 16  3  0
 14 17  1  0
 17 18  3  0
  1 19  1  0
 19 20  2  0
 20 21  1  0
 21 22  1  0
 22 23  1  0
 23 24  1  0
 22 25  1  0
 25 26  2  0
 26 27  1  0
 27 28  1  0
 28 29  2  0
 26 30  1  0
 30 31  2  0
 31 32  1  0
 32 33  2  0
 32 34  1  0
 34 35  2  0
 35 36  1  0
 36 37  1  0
 37 38  2  0
 38 39  1  0
 39 40  2  0
 40 41  1  0
 41 42  1  0
 40 43  1  0
 43 44  2  0
 36 45  1  0
 45 46  2  0
 46 47  1  0
 47 48  2  0
 48 49  1  0
 49 50  1  0
 48 51  1  0
 51 52  2  0
 35 53  1  0
 53 54  1  0
 54 55  1  0
 55 56  2  0
 56 57  1  0
 57 58  1  0
 58 59  2  0
 59 60  1  0
 60 61  2  0
 61 62  1  0
 62 63  1  0
 61 64  1  0
 64 65  2  0
 57 66  1  0
 66 67  2  0
 67 68  1  0
 68 69  2  0
 69 70  1  0
 70 71  1  0
 69 72  1  0
 72 73  2  0
 56 74  1  0
 74 75  1  0
 55 76  1  0
 76 77  2  0
 77 78  1  0
 78 79  1  0
 79 80  2  0
 80 81  1  0
 81 82  2  0
 82 83  1  0
 83 84  1  0
 82 85  1  0
 85 86  2  0
 78 87  1  0
 87 88  2  0
 88 89  1  0
 89 90  2  0
 90 91  1  0
 91 92  1  0
 90 93  1  0
 93 94  2  0
 77 95  1  0
 95 96  1  0
 96 97  1  0
 97 98  2  0
 98 99  1  0
 99100  1  0
100101  2  0
101102  1  0
102103  2  0
103104  1  0
104105  1  0
103106  1  0
106107  2  0
 99108  1  0
108109  2  0
109110  1  0
110111  2  0
111112  1  0
112113  1  0
111114  1  0
114115  2  0
 98116  1  0
116117  1  0
 97118  1  0
118119  2  3
119120  1  0
120121  2  0
120122  1  0
122123  2  0
123124  1  0
124125  1  0
125126  1  0
124127  2  0
127128  1  0
128129  2  0
129130  1  0
130131  2  3
131132  1  0
132133  3  0
131134  1  0
134135  3  0
 13  2  1  0
 29 19  1  0
 75 34  1  0
117 76  1  0
130119  1  0
 12  5  1  0
 27 21  2  0
 44 37  1  0
 52 45  1  0
 74 53  2  0
 86 79  1  0
 94 87  1  0
116 95  2  0
129122  1  0
 33 25  1  0
 65 58  1  0
 73 66  1  0
107100  1  0
115108  1  0
  1136  1  0
  6137  1  0
  9138  1  0
  9139  1  0
  9140  1  0
 10141  1  0
 11142  1  0
 20143  1  0
 23144  1  0
 23145  1  0
 24146  1  0
 24147  1  0
 24148  1  0
 28149  1  0
 29150  1  0
 30151  1  0
 31152  1  0
 33153  1  0
 38154  1  0
 39155  1  0
 42156  1  0
 42157  1  0
 42158  1  0
 43159  1  0
 44160  1  0
 46161  1  0
 47162  1  0
 50163  1  0
 50164  1  0
 50165  1  0
 51166  1  0
 52167  1  0
 59168  1  0
 60169  1  0
 63170  1  0
 63171  1  0
 63172  1  0
 64173  1  0
 65174  1  0
 67175  1  0
 68176  1  0
 71177  1  0
 71178  1  0
 71179  1  0
 72180  1  0
 73181  1  0
 80182  1  0
 81183  1  0
 84184  1  0
 84185  1  0
 84186  1  0
 85187  1  0
 86188  1  0
 88189  1  0
 89190  1  0
 92191  1  0
 92192  1  0
 92193  1  0
 93194  1  0
 94195  1  0
101196  1  0
102197  1  0
105198  1  0
105199  1  0
105200  1  0
106201  1  0
107202  1  0
109203  1  0
110204  1  0
113205  1  0
113206  1  0
113207  1  0
114208  1  0
115209  1  0
118210  1  0
123211  1  0
126212  1  0
126213  1  0
126214  1  0
127215  1  0
128216  1  0
M  END

