
     RDKit          3D

218236  0  0  0  0  0  0  0  0999 V2000
   -7.6297   -1.8598   -0.4875 C   0  0  0  0  0  0  0  0  0  0  0  0
   -7.4491   -2.7159   -1.5133 C   0  0  0  0  0  0  0  0  0  0  0  0
   -6.1437   -3.1669   -2.0262 C   0  0  0  0  0  0  0  0  0  0  0  0
   -5.0201   -2.9889   -1.4861 O   0  0  0  0  0  0  0  0  0  0  0  0
   -6.3343   -3.7606   -3.3287 C   0  0  0  0  0  0  0  0  0  0  0  0
   -5.3533   -4.2108   -4.2192 C   0  0  0  0  0  0  0  0  0  0  0  0
   -4.0052   -4.1905   -3.8266 O   0  0  0  0  0  0  0  0  0  0  0  0
   -2.9174   -4.5612   -4.6635 C   0  0  0  0  0  0  0  0  0  0  0  0
   -5.7697   -4.6444   -5.4927 C   0  0  0  0  0  0  0  0  0  0  0  0
   -7.1250   -4.5696   -5.8552 C   0  0  0  0  0  0  0  0  0  0  0  0
   -8.0844   -4.0996   -4.9478 C   0  0  0  0  0  0  0  0  0  0  0  0
   -7.6777   -3.7247   -3.6590 C   0  0  0  0  0  0  0  0  0  0  0  0
   -8.4647   -3.1641   -2.5176 C   0  0  0  0  0  0  0  0  0  0  0  0
   -9.8098   -3.2313   -2.3490 C   0  0  0  0  0  0  0  0  0  0  0  0
  -10.6839   -3.8417   -3.3185 C   0  0  0  0  0  0  0  0  0  0  0  0
  -11.3988   -4.3363   -4.0805 N   0  0  0  0  0  0  0  0  0  0  0  0
  -10.4653   -2.8003   -1.1406 C   0  0  0  0  0  0  0  0  0  0  0  0
  -11.0006   -2.4505   -0.1771 N   0  0  0  0  0  0  0  0  0  0  0  0
   -6.5252   -1.4094    0.3667 C   0  0  0  0  0  0  0  0  0  0  0  0
   -5.8719   -0.1733    0.2432 C   0  0  0  0  0  0  0  0  0  0  0  0
   -6.2566    0.8693   -0.6708 N   0  0  0  0  0  0  0  0  0  0  0  0
   -5.8785    0.7440   -2.0531 C   0  0  0  0  0  0  0  0  0  0  0  0
   -4.6258    1.2118   -2.4829 C   0  0  0  0  0  0  0  0  0  0  0  0
   -4.2514    1.0847   -3.8211 C   0  0  0  0  0  0  0  0  0  0  0  0
   -5.1243    0.5022   -4.7464 C   0  0  0  0  0  0  0  0  0  0  0  0
   -4.6352    0.3292   -6.4606 S   0  0  0  0  0  0  0  0  0  0  0  0
   -3.9994   -1.3530   -6.2204 C   0  0  0  0  0  0  0  0  0  0  0  0
   -6.3821    0.0495   -4.3249 C   0  0  0  0  0  0  0  0  0  0  0  0
   -6.7620    0.1803   -2.9866 C   0  0  0  0  0  0  0  0  0  0  0  0
   -6.8390    2.1028   -0.1857 C   0  0  0  0  0  0  0  0  0  0  0  0
   -7.6436    2.8959   -1.0306 C   0  0  0  0  0  0  0  0  0  0  0  0
   -8.1948    4.0934   -0.5681 C   0  0  0  0  0  0  0  0  0  0  0  0
   -7.9437    4.5291    0.7373 C   0  0  0  0  0  0  0  0  0  0  0  0
   -8.6446    6.0696    1.3303 S   0  0  0  0  0  0  0  0  0  0  0  0
   -7.2203    7.0656    0.7831 C   0  0  0  0  0  0  0  0  0  0  0  0
   -7.1532    3.7498    1.5871 C   0  0  0  0  0  0  0  0  0  0  0  0
   -6.6109    2.5441    1.1353 C   0  0  0  0  0  0  0  0  0  0  0  0
   -4.6797   -0.1709    0.9609 C   0  0  0  0  0  0  0  0  0  0  0  0
   -3.3150    0.7910    0.8927 S   0  0  0  0  0  0  0  0  0  0  0  0
   -2.3240   -0.2978    1.7515 C   0  0  0  0  0  0  0  0  0  0  0  0
   -3.0892   -1.4332    2.0896 C   0  0  0  0  0  0  0  0  0  0  0  0
   -2.5401   -2.6862    2.5291 N   0  0  0  0  0  0  0  0  0  0  0  0
   -2.8459   -3.1355    3.8645 C   0  0  0  0  0  0  0  0  0  0  0  0
   -3.1755   -4.4803    4.1045 C   0  0  0  0  0  0  0  0  0  0  0  0
   -3.4402   -4.9198    5.4050 C   0  0  0  0  0  0  0  0  0  0  0  0
   -3.3916   -4.0209    6.4769 C   0  0  0  0  0  0  0  0  0  0  0  0
   -3.6779   -4.5987    8.1529 S   0  0  0  0  0  0  0  0  0  0  0  0
   -5.4627   -4.2553    8.1131 C   0  0  0  0  0  0  0  0  0  0  0  0
   -3.0816   -2.6760    6.2427 C   0  0  0  0  0  0  0  0  0  0  0  0
   -2.8185   -2.2324    4.9431 C   0  0  0  0  0  0  0  0  0  0  0  0
   -1.6494   -3.4266    1.6582 C   0  0  0  0  0  0  0  0  0  0  0  0
   -1.7564   -3.3094    0.2582 C   0  0  0  0  0  0  0  0  0  0  0  0
   -0.8097   -3.9032   -0.5796 C   0  0  0  0  0  0  0  0  0  0  0  0
    0.2563   -4.6255   -0.0337 C   0  0  0  0  0  0  0  0  0  0  0  0
    1.5120   -5.3257   -1.1041 S   0  0  0  0  0  0  0  0  0  0  0  0
    0.6696   -6.9347   -1.2351 C   0  0  0  0  0  0  0  0  0  0  0  0
    0.3562   -4.7747    1.3525 C   0  0  0  0  0  0  0  0  0  0  0  0
   -0.5898   -4.1875    2.1944 C   0  0  0  0  0  0  0  0  0  0  0  0
   -4.4019   -1.3136    1.6415 C   0  0  0  0  0  0  0  0  0  0  0  0
   -5.6202   -2.4389    1.3835 S   0  0  0  0  0  0  0  0  0  0  0  0
   -0.8518   -0.1941    1.8389 C   0  0  0  0  0  0  0  0  0  0  0  0
   -0.0163    0.4667    0.9178 C   0  0  0  0  0  0  0  0  0  0  0  0
   -0.4352    1.4947    0.0041 N   0  0  0  0  0  0  0  0  0  0  0  0
   -0.7539    2.8117    0.5250 C   0  0  0  0  0  0  0  0  0  0  0  0
   -1.6332    3.6710   -0.1708 C   0  0  0  0  0  0  0  0  0  0  0  0
   -1.9340    4.9400    0.3335 C   0  0  0  0  0  0  0  0  0  0  0  0
   -1.3806    5.3635    1.5476 C   0  0  0  0  0  0  0  0  0  0  0  0
   -1.7578    6.9941    2.1923 S   0  0  0  0  0  0  0  0  0  0  0  0
   -0.2983    7.7647    1.4247 C   0  0  0  0  0  0  0  0  0  0  0  0
   -0.5368    4.5120    2.2619 C   0  0  0  0  0  0  0  0  0  0  0  0
   -0.2211    3.2485    1.7537 C   0  0  0  0  0  0  0  0  0  0  0  0
   -0.3876    1.2286   -1.4156 C   0  0  0  0  0  0  0  0  0  0  0  0
    0.1143    2.1937   -2.3093 C   0  0  0  0  0  0  0  0  0  0  0  0
    0.0457    1.9866   -3.6880 C   0  0  0  0  0  0  0  0  0  0  0  0
   -0.4937    0.7998   -4.1951 C   0  0  0  0  0  0  0  0  0  0  0  0
   -0.7345    0.6139   -5.9653 S   0  0  0  0  0  0  0  0  0  0  0  0
    0.9081   -0.1070   -6.2574 C   0  0  0  0  0  0  0  0  0  0  0  0
   -0.9272   -0.2013   -3.3113 C   0  0  0  0  0  0  0  0  0  0  0  0
   -0.8731    0.0100   -1.9312 C   0  0  0  0  0  0  0  0  0  0  0  0
    1.3186    0.2020    1.1728 C   0  0  0  0  0  0  0  0  0  0  0  0
    2.7430    0.7465    0.4905 S   0  0  0  0  0  0  0  0  0  0  0  0
    3.7211   -0.0852    1.6114 C   0  0  0  0  0  0  0  0  0  0  0  0
    2.9200   -0.7707    2.5338 C   0  0  0  0  0  0  0  0  0  0  0  0
    3.4133   -1.4139    3.7156 N   0  0  0  0  0  0  0  0  0  0  0  0
    3.8734   -0.5794    4.7980 C   0  0  0  0  0  0  0  0  0  0  0  0
    3.1125    0.5267    5.2126 C   0  0  0  0  0  0  0  0  0  0  0  0
    3.5785    1.3665    6.2293 C   0  0  0  0  0  0  0  0  0  0  0  0
    4.8144    1.1172    6.8337 C   0  0  0  0  0  0  0  0  0  0  0  0
    5.4209    2.2059    8.1261 S   0  0  0  0  0  0  0  0  0  0  0  0
    6.2447    3.3355    6.9609 C   0  0  0  0  0  0  0  0  0  0  0  0
    5.5779    0.0134    6.4296 C   0  0  0  0  0  0  0  0  0  0  0  0
    5.1102   -0.8319    5.4191 C   0  0  0  0  0  0  0  0  0  0  0  0
    3.4837   -2.8548    3.7856 C   0  0  0  0  0  0  0  0  0  0  0  0
    3.7249   -3.6224    2.6307 C   0  0  0  0  0  0  0  0  0  0  0  0
    3.8281   -5.0125    2.7080 C   0  0  0  0  0  0  0  0  0  0  0  0
    3.6748   -5.6596    3.9380 C   0  0  0  0  0  0  0  0  0  0  0  0
    3.8405   -7.4452    4.0451 S   0  0  0  0  0  0  0  0  0  0  0  0
    2.0780   -7.7622    3.7212 C   0  0  0  0  0  0  0  0  0  0  0  0
    3.4230   -4.9100    5.0927 C   0  0  0  0  0  0  0  0  0  0  0  0
    3.3256   -3.5183    5.0187 C   0  0  0  0  0  0  0  0  0  0  0  0
    1.5718   -0.5862    2.2461 C   0  0  0  0  0  0  0  0  0  0  0  0
    0.1278   -1.0227    2.9734 S   0  0  0  0  0  0  0  0  0  0  0  0
    5.1820   -0.0880    1.5201 C   0  0  0  0  0  0  0  0  0  0  0  0
    6.1122    1.0498    2.3403 S   0  0  0  0  0  0  0  0  0  0  0  0
    7.3269    1.2036    1.1787 C   0  0  0  0  0  0  0  0  0  0  0  0
    7.0295    0.3398    0.1262 C   0  0  0  0  0  0  0  0  0  0  0  0
    7.7196    0.3093   -1.1832 C   0  0  0  0  0  0  0  0  0  0  0  0
    8.8619    0.8217   -1.3161 O   0  0  0  0  0  0  0  0  0  0  0  0
    7.0334   -0.3464   -2.3255 C   0  0  0  0  0  0  0  0  0  0  0  0
    7.4050   -0.2645   -3.6728 C   0  0  0  0  0  0  0  0  0  0  0  0
    8.5378    0.5214   -4.2665 C   0  0  0  0  0  0  0  0  0  0  0  0
    8.2075    2.0122   -4.3110 C   0  0  0  0  0  0  0  0  0  0  0  0
    6.2362   -1.0616   -4.5849 S   0  0  0  0  0  0  0  0  0  0  0  0
    5.2709   -1.5599   -3.3017 C   0  0  0  0  0  0  0  0  0  0  0  0
    3.9518   -2.2645   -3.4619 C   0  0  0  0  0  0  0  0  0  0  0  0
    2.7829   -1.3015   -3.2665 C   0  0  0  0  0  0  0  0  0  0  0  0
    5.8444   -1.0766   -2.1217 C   0  0  0  0  0  0  0  0  0  0  0  0
    5.2728   -1.2122   -0.7652 C   0  0  0  0  0  0  0  0  0  0  0  0
    4.3351   -2.0181   -0.5333 O   0  0  0  0  0  0  0  0  0  0  0  0
    5.8418   -0.3860    0.3230 C   0  0  0  0  0  0  0  0  0  0  0  0
    8.2441    2.3495    1.0721 C   0  0  0  0  0  0  0  0  0  0  0  0
    7.8347    3.5848    0.7064 C   0  0  0  0  0  0  0  0  0  0  0  0
    6.4473    3.9762    0.4058 C   0  0  0  0  0  0  0  0  0  0  0  0
    5.4047    3.3100    0.6426 O   0  0  0  0  0  0  0  0  0  0  0  0
    6.4566    5.2543   -0.2707 C   0  0  0  0  0  0  0  0  0  0  0  0
    5.3619    5.9667   -0.7768 C   0  0  0  0  0  0  0  0  0  0  0  0
    4.0592    5.4883   -0.5426 O   0  0  0  0  0  0  0  0  0  0  0  0
    2.8651    6.1422   -0.9614 C   0  0  0  0  0  0  0  0  0  0  0  0
    5.6222    7.1495   -1.4966 C   0  0  0  0  0  0  0  0  0  0  0  0
    6.9460    7.5766   -1.6932 C   0  0  0  0  0  0  0  0  0  0  0  0
    8.0208    6.8551   -1.1546 C   0  0  0  0  0  0  0  0  0  0  0  0
    7.7634    5.6901   -0.4146 C   0  0  0  0  0  0  0  0  0  0  0  0
    8.6947    4.7348    0.2667 C   0  0  0  0  0  0  0  0  0  0  0  0
   10.0097    4.9425    0.5603 C   0  0  0  0  0  0  0  0  0  0  0  0
   10.7277    6.1195    0.1467 C   0  0  0  0  0  0  0  0  0  0  0  0
   11.3267    7.0560   -0.1777 N   0  0  0  0  0  0  0  0  0  0  0  0
   10.7717    4.0479    1.3978 C   0  0  0  0  0  0  0  0  0  0  0  0
   11.3947    3.3359    2.0648 N   0  0  0  0  0  0  0  0  0  0  0  0
   -8.5699   -1.3529   -0.3560 H   0  0  0  0  0  0  0  0  0  0  0  0
   -3.0147   -5.6258   -4.9665 H   0  0  0  0  0  0  0  0  0  0  0  0
   -2.8873   -3.9108   -5.5618 H   0  0  0  0  0  0  0  0  0  0  0  0
   -1.9676   -4.4299   -4.1044 H   0  0  0  0  0  0  0  0  0  0  0  0
   -5.0578   -4.9993   -6.2217 H   0  0  0  0  0  0  0  0  0  0  0  0
   -7.4318   -4.8594   -6.8512 H   0  0  0  0  0  0  0  0  0  0  0  0
   -9.1053   -4.0056   -5.2824 H   0  0  0  0  0  0  0  0  0  0  0  0
   -3.9418    1.6713   -1.7839 H   0  0  0  0  0  0  0  0  0  0  0  0
   -3.2826    1.4393   -4.1404 H   0  0  0  0  0  0  0  0  0  0  0  0
   -4.8125   -2.0015   -5.8374 H   0  0  0  0  0  0  0  0  0  0  0  0
   -3.6427   -1.7632   -7.1851 H   0  0  0  0  0  0  0  0  0  0  0  0
   -3.1578   -1.3417   -5.4983 H   0  0  0  0  0  0  0  0  0  0  0  0
   -7.0655   -0.4042   -5.0317 H   0  0  0  0  0  0  0  0  0  0  0  0
   -7.7449   -0.1508   -2.6800 H   0  0  0  0  0  0  0  0  0  0  0  0
   -7.8519    2.5876   -2.0454 H   0  0  0  0  0  0  0  0  0  0  0  0
   -8.8173    4.6843   -1.2274 H   0  0  0  0  0  0  0  0  0  0  0  0
   -7.1082    6.9954   -0.3206 H   0  0  0  0  0  0  0  0  0  0  0  0
   -6.2890    6.7112    1.2759 H   0  0  0  0  0  0  0  0  0  0  0  0
   -7.3905    8.1270    1.0603 H   0  0  0  0  0  0  0  0  0  0  0  0
   -6.9539    4.0807    2.5987 H   0  0  0  0  0  0  0  0  0  0  0  0
   -5.9961    1.9785    1.8206 H   0  0  0  0  0  0  0  0  0  0  0  0
   -3.2208   -5.1858    3.2840 H   0  0  0  0  0  0  0  0  0  0  0  0
   -3.6780   -5.9623    5.5791 H   0  0  0  0  0  0  0  0  0  0  0  0
   -5.6382   -3.1747    7.9443 H   0  0  0  0  0  0  0  0  0  0  0  0
   -5.9467   -4.8446    7.3094 H   0  0  0  0  0  0  0  0  0  0  0  0
   -5.9042   -4.5447    9.0861 H   0  0  0  0  0  0  0  0  0  0  0  0
   -3.0368   -1.9731    7.0656 H   0  0  0  0  0  0  0  0  0  0  0  0
   -2.5656   -1.1898    4.7839 H   0  0  0  0  0  0  0  0  0  0  0  0
   -2.5576   -2.7368   -0.1869 H   0  0  0  0  0  0  0  0  0  0  0  0
   -0.8916   -3.7779   -1.6513 H   0  0  0  0  0  0  0  0  0  0  0  0
    1.2808   -7.6121   -1.8688 H   0  0  0  0  0  0  0  0  0  0  0  0
    0.5567   -7.3900   -0.2288 H   0  0  0  0  0  0  0  0  0  0  0  0
   -0.3276   -6.8033   -1.7048 H   0  0  0  0  0  0  0  0  0  0  0  0
    1.1805   -5.3266    1.7794 H   0  0  0  0  0  0  0  0  0  0  0  0
   -0.4617   -4.2811    3.2660 H   0  0  0  0  0  0  0  0  0  0  0  0
   -2.0911    3.3591   -1.1006 H   0  0  0  0  0  0  0  0  0  0  0  0
   -2.5993    5.5930   -0.2164 H   0  0  0  0  0  0  0  0  0  0  0  0
    0.6308    7.2795    1.7927 H   0  0  0  0  0  0  0  0  0  0  0  0
   -0.2693    8.8393    1.6986 H   0  0  0  0  0  0  0  0  0  0  0  0
   -0.3544    7.6752    0.3208 H   0  0  0  0  0  0  0  0  0  0  0  0
   -0.1123    4.8284    3.2070 H   0  0  0  0  0  0  0  0  0  0  0  0
    0.4499    2.6228    2.3260 H   0  0  0  0  0  0  0  0  0  0  0  0
    0.5266    3.1223   -1.9354 H   0  0  0  0  0  0  0  0  0  0  0  0
    0.3853    2.7635   -4.3635 H   0  0  0  0  0  0  0  0  0  0  0  0
    1.6964    0.6198   -5.9711 H   0  0  0  0  0  0  0  0  0  0  0  0
    1.0163   -0.3464   -7.3348 H   0  0  0  0  0  0  0  0  0  0  0  0
    1.0156   -1.0443   -5.6747 H   0  0  0  0  0  0  0  0  0  0  0  0
   -1.3402   -1.1262   -3.6957 H   0  0  0  0  0  0  0  0  0  0  0  0
   -1.2480   -0.7549   -1.2619 H   0  0  0  0  0  0  0  0  0  0  0  0
    2.1567    0.7410    4.7511 H   0  0  0  0  0  0  0  0  0  0  0  0
    2.9797    2.2154    6.5384 H   0  0  0  0  0  0  0  0  0  0  0  0
    6.7906    4.1091    7.5397 H   0  0  0  0  0  0  0  0  0  0  0  0
    6.9733    2.7819    6.3318 H   0  0  0  0  0  0  0  0  0  0  0  0
    5.4943    3.8355    6.3154 H   0  0  0  0  0  0  0  0  0  0  0  0
    6.5326   -0.1863    6.8936 H   0  0  0  0  0  0  0  0  0  0  0  0
    5.7191   -1.6670    5.0987 H   0  0  0  0  0  0  0  0  0  0  0  0
    3.8520   -3.1454    1.6703 H   0  0  0  0  0  0  0  0  0  0  0  0
    4.0291   -5.5845    1.8098 H   0  0  0  0  0  0  0  0  0  0  0  0
    1.8791   -8.8454    3.8458 H   0  0  0  0  0  0  0  0  0  0  0  0
    1.4430   -7.1941    4.4331 H   0  0  0  0  0  0  0  0  0  0  0  0
    1.8318   -7.4725    2.6807 H   0  0  0  0  0  0  0  0  0  0  0  0
    3.3181   -5.4055    6.0506 H   0  0  0  0  0  0  0  0  0  0  0  0
    3.1241   -2.9585    5.9233 H   0  0  0  0  0  0  0  0  0  0  0  0
    9.4690    0.3555   -3.6891 H   0  0  0  0  0  0  0  0  0  0  0  0
    8.7205    0.1684   -5.3042 H   0  0  0  0  0  0  0  0  0  0  0  0
    8.0319    2.4109   -3.2893 H   0  0  0  0  0  0  0  0  0  0  0  0
    7.3014    2.1904   -4.9286 H   0  0  0  0  0  0  0  0  0  0  0  0
    9.0591    2.5678   -4.7577 H   0  0  0  0  0  0  0  0  0  0  0  0
    3.8781   -3.1059   -2.7414 H   0  0  0  0  0  0  0  0  0  0  0  0
    3.8900   -2.7003   -4.4786 H   0  0  0  0  0  0  0  0  0  0  0  0
    2.8146   -0.8296   -2.2641 H   0  0  0  0  0  0  0  0  0  0  0  0
    2.8193   -0.4995   -4.0346 H   0  0  0  0  0  0  0  0  0  0  0  0
    1.8248   -1.8543   -3.3613 H   0  0  0  0  0  0  0  0  0  0  0  0
    9.2879    2.0895    1.0588 H   0  0  0  0  0  0  0  0  0  0  0  0
    2.8147    6.1487   -2.0722 H   0  0  0  0  0  0  0  0  0  0  0  0
    2.8290    7.1828   -0.5731 H   0  0  0  0  0  0  0  0  0  0  0  0
    1.9898    5.5813   -0.5680 H   0  0  0  0  0  0  0  0  0  0  0  0
    4.8184    7.7358   -1.9179 H   0  0  0  0  0  0  0  0  0  0  0  0
    7.1399    8.4692   -2.2747 H   0  0  0  0  0  0  0  0  0  0  0  0
    9.0190    7.2030   -1.3587 H   0  0  0  0  0  0  0  0  0  0  0  0
  1  2  2  3
  2  3  1  0
  3  4  2  0
  3  5  1  0
  5  6  2  0
  6  7  1  0
  7  8  1  0
  6  9  1  0
  9 10  2  0
 10 11  1  0
 11 12  2  0
 12 13  1  0
 13 14  2  3
 14 15  1  0
 15 16  3  0
 14 17  1  0
 17 18  3  0
  1 19  1  0
 19 20  2  0
 20 21  1  0
 21 22  1  0
 22 23  2  0
 23 24  1  0
 24 25  2  0
 25 26  1  0
 26 27  1  0
 25 28  1  0
 28 29  2  0
 21 30  1  0
 30 31  2  0
 31 32  1  0
 32 33  2  0
 33 34  1  0
 34 35  1  0
 33 36  1  0
 36 37  2  0
 20 38  1  0
 38 39  1  0
 39 40  1  0
 40 41  2  0
 41 42  1  0
 42 43  1  0
 43 44  2  0
 44 45  1  0
 45 46  2  0
 46 47  1  0
 47 48  1  0
 46 49  1  0
 49 50  2  0
 42 51  1  0
 51 52  2  0
 52 53  1  0
 53 54  2  0
 54 55  1  0
 55 56  1  0
 54 57  1  0
 57 58  2  0
 41 59  1  0
 59 60  1  0
 40 61  1  0
 61 62  2  0
 62 63  1  0
 63 64  1  0
 64 65  2  0
 65 66  1  0
 66 67  2  0
 67 68  1  0
 68 69  1  0
 67 70  1  0
 70 71  2  0
 63 72  1  0
 72 73  2  0
 73 74  1  0
 74 75  2  0
 75 76  1  0
 76 77  1  0
 75 78  1  0
 78 79  2  0
 62 80  1  0
 80 81  1  0
 81 82  1  0
 82 83  2  0
 83 84  1  0
 84 85  1  0
 85 86  2  0
 86 87  1  0
 87 88  2  0
 88 89  1  0
 89 90  1  0
 88 91  1  0
 91 92  2  0
 84 93  1  0
 93 94  2  0
 94 95  1  0
 95 96  2  0
 96 97  1  0
 97 98  1  0
 96 99  1  0
 99100  2  0
 83101  1  0
101102  1  0
 82103  1  0
103104  1  0
104105  1  0
105106  2  0
106107  1  0
107108  2  0
107109  1  0
109110  2  0
110111  1  0
111112  1  0
110113  1  0
113114  1  0
114115  1  0
115116  1  0
114117  2  0
117118  1  0
118119  2  0
118120  1  0
105121  1  0
121122  2  3
122123  1  0
123124  2  0
123125  1  0
125126  2  0
126127  1  0
127128  1  0
126129  1  0
129130  2  0
130131  1  0
131132  2  0
132133  1  0
133134  2  3
134135  1  0
135136  3  0
134137  1  0
137138  3  0
 13  2  1  0
 60 19  1  0
102 61  1  0
120103  2  0
133122  1  0
 12  5  1  0
 29 22  1  0
 37 30  1  0
 59 38  2  0
 71 64  1  0
 79 72  1  0
101 80  2  0
120106  1  0
132125  1  0
 50 43  1  0
 58 51  1  0
 92 85  1  0
100 93  1  0
117109  1  0
  1139  1  0
  8140  1  0
  8141  1  0
  8142  1  0
  9143  1  0
 10144  1  0
 11145  1  0
 23146  1  0
 24147  1  0
 27148  1  0
 27149  1  0
 27150  1  0
 28151  1  0
 29152  1  0
 31153  1  0
 32154  1  0
 35155  1  0
 35156  1  0
 35157  1  0
 36158  1  0
 37159  1  0
 44160  1  0
 45161  1  0
 48162  1  0
 48163  1  0
 48164  1  0
 49165  1  0
 50166  1  0
 52167  1  0
 53168  1  0
 56169  1  0
 56170  1  0
 56171  1  0
 57172  1  0
 58173  1  0
 65174  1  0
 66175  1  0
 69176  1  0
 69177  1  0
 69178  1  0
 70179  1  0
 71180  1  0
 73181  1  0
 74182  1  0
 77183  1  0
 77184  1  0
 77185  1  0
 78186  1  0
 79187  1  0
 86188  1  0
 87189  1  0
 90190  1  0
 90191  1  0
 90192  1  0
 91193  1  0
 92194  1  0
 94195  1  0
 95196  1  0
 98197  1  0
 98198  1  0
 98199  1  0
 99200  1  0
100201  1  0
111202  1  0
111203  1  0
112204  1  0
112205  1  0
112206  1  0
115207  1  0
115208  1  0
116209  1  0
116210  1  0
116211  1  0
121212  1  0
128213  1  0
128214  1  0
128215  1  0
129216  1  0
130217  1  0
131218  1  0
M  END

