
     RDKit          3D

197218  0  0  0  0  0  0  0  0999 V2000
   -7.9097    5.4856   -1.6433 C   0  0  0  0  0  0  0  0  0  0  0  0
   -8.6723    4.5220   -1.1054 C   0  0  0  0  0  0  0  0  0  0  0  0
   -9.4926    3.6358   -1.9332 C   0  0  0  0  0  0  0  0  0  0  0  0
   -9.9970    3.9450   -3.0483 O   0  0  0  0  0  0  0  0  0  0  0  0
   -9.6513    2.3602   -1.2732 C   0  0  0  0  0  0  0  0  0  0  0  0
  -10.3636    1.2371   -1.7492 C   0  0  0  0  0  0  0  0  0  0  0  0
  -10.3757    0.1702   -0.8721 C   0  0  0  0  0  0  0  0  0  0  0  0
   -9.7473    0.2096    0.4137 C   0  0  0  0  0  0  0  0  0  0  0  0
   -9.0439    1.3084    0.8817 C   0  0  0  0  0  0  0  0  0  0  0  0
   -8.9757    2.4014   -0.0305 C   0  0  0  0  0  0  0  0  0  0  0  0
   -8.2906    3.7206    0.1050 C   0  0  0  0  0  0  0  0  0  0  0  0
   -7.4023    4.0875    1.0688 C   0  0  0  0  0  0  0  0  0  0  0  0
   -6.8283    5.4073    1.1338 C   0  0  0  0  0  0  0  0  0  0  0  0
   -6.3609    6.4642    1.1964 N   0  0  0  0  0  0  0  0  0  0  0  0
   -6.9228    3.1736    2.0716 C   0  0  0  0  0  0  0  0  0  0  0  0
   -6.5217    2.4501    2.8849 N   0  0  0  0  0  0  0  0  0  0  0  0
  -10.2255   -1.1790    0.7101 C   0  0  0  0  0  0  0  0  0  0  0  0
  -11.4237   -1.3043    1.6944 C   0  0  0  0  0  0  0  0  0  0  0  0
  -11.9509   -2.7087    1.5260 C   0  0  0  0  0  0  0  0  0  0  0  0
  -12.5280   -2.7584    0.3199 C   0  0  0  0  0  0  0  0  0  0  0  0
  -12.3739   -1.3830   -0.2840 C   0  0  0  0  0  0  0  0  0  0  0  0
  -12.5375   -0.5543    0.9795 C   0  0  0  0  0  0  0  0  0  0  0  0
  -10.8609   -1.2263   -0.6123 C   0  0  0  0  0  0  0  0  0  0  0  0
   -6.6815    5.1611   -2.4155 C   0  0  0  0  0  0  0  0  0  0  0  0
   -5.5331    5.9562   -2.2178 C   0  0  0  0  0  0  0  0  0  0  0  0
   -4.3200    5.5785   -2.8093 C   0  0  0  0  0  0  0  0  0  0  0  0
   -2.9350    6.1496   -2.5524 C   0  0  0  0  0  0  0  0  0  0  0  0
   -2.6315    6.3418   -1.0397 C   0  0  0  0  0  0  0  0  0  0  0  0
   -2.7486    5.0666   -0.1953 C   0  0  0  0  0  0  0  0  0  0  0  0
   -2.6963    7.4497   -3.3688 C   0  0  0  0  0  0  0  0  0  0  0  0
   -3.6558    8.6027   -3.0437 C   0  0  0  0  0  0  0  0  0  0  0  0
   -2.0880    5.0449   -3.1660 C   0  0  0  0  0  0  0  0  0  0  0  0
   -2.8686    4.1226   -3.8356 C   0  0  0  0  0  0  0  0  0  0  0  0
   -4.2562    4.4470   -3.6026 C   0  0  0  0  0  0  0  0  0  0  0  0
   -5.3802    3.6643   -3.8564 C   0  0  0  0  0  0  0  0  0  0  0  0
   -6.5943    4.0235   -3.2567 C   0  0  0  0  0  0  0  0  0  0  0  0
   -2.3273    2.9661   -4.3889 C   0  0  0  0  0  0  0  0  0  0  0  0
   -0.9641    2.7109   -4.2006 C   0  0  0  0  0  0  0  0  0  0  0  0
   -0.1532    3.6076   -3.4588 C   0  0  0  0  0  0  0  0  0  0  0  0
   -0.7174    4.8187   -2.9989 C   0  0  0  0  0  0  0  0  0  0  0  0
    1.1721    3.1913   -2.9385 C   0  0  0  0  0  0  0  0  0  0  0  0
    2.0025    2.1429   -3.3980 C   0  0  0  0  0  0  0  0  0  0  0  0
    1.8826    1.4800   -4.6672 N   0  0  0  0  0  0  0  0  0  0  0  0
    2.0230    2.2511   -5.8804 C   0  0  0  0  0  0  0  0  0  0  0  0
    1.3156    1.8928   -7.0400 C   0  0  0  0  0  0  0  0  0  0  0  0
    1.4514    2.6438   -8.2135 C   0  0  0  0  0  0  0  0  0  0  0  0
    2.2876    3.7645   -8.2358 C   0  0  0  0  0  0  0  0  0  0  0  0
    2.4701    4.7218   -9.7408 S   0  0  0  0  0  0  0  0  0  0  0  0
    3.9356    3.7927  -10.2908 C   0  0  0  0  0  0  0  0  0  0  0  0
    2.9857    4.1382   -7.0834 C   0  0  0  0  0  0  0  0  0  0  0  0
    2.8606    3.3824   -5.9146 C   0  0  0  0  0  0  0  0  0  0  0  0
    1.7679    0.0404   -4.6883 C   0  0  0  0  0  0  0  0  0  0  0  0
    0.9152   -0.6141   -3.7786 C   0  0  0  0  0  0  0  0  0  0  0  0
    0.8519   -2.0077   -3.7448 C   0  0  0  0  0  0  0  0  0  0  0  0
    1.6482   -2.7675   -4.6066 C   0  0  0  0  0  0  0  0  0  0  0  0
    1.5948   -4.5595   -4.5305 S   0  0  0  0  0  0  0  0  0  0  0  0
    2.8924   -4.6610   -3.2572 C   0  0  0  0  0  0  0  0  0  0  0  0
    2.4928   -2.1286   -5.5225 C   0  0  0  0  0  0  0  0  0  0  0  0
    2.5496   -0.7315   -5.5651 C   0  0  0  0  0  0  0  0  0  0  0  0
    3.0009    1.8401   -2.4756 C   0  0  0  0  0  0  0  0  0  0  0  0
    4.1241    0.6057   -2.3216 S   0  0  0  0  0  0  0  0  0  0  0  0
    4.6133    1.0573   -0.7459 C   0  0  0  0  0  0  0  0  0  0  0  0
    3.8649    2.1841   -0.3524 C   0  0  0  0  0  0  0  0  0  0  0  0
    3.8151    2.7254    0.9780 N   0  0  0  0  0  0  0  0  0  0  0  0
    2.7479    2.2967    1.8589 C   0  0  0  0  0  0  0  0  0  0  0  0
    2.4169    0.9350    1.9778 C   0  0  0  0  0  0  0  0  0  0  0  0
    1.3682    0.5236    2.8014 C   0  0  0  0  0  0  0  0  0  0  0  0
    0.6164    1.4694    3.5043 C   0  0  0  0  0  0  0  0  0  0  0  0
   -0.7799    0.9438    4.4986 S   0  0  0  0  0  0  0  0  0  0  0  0
   -1.9333    0.9322    3.0908 C   0  0  0  0  0  0  0  0  0  0  0  0
    0.9278    2.8290    3.3902 C   0  0  0  0  0  0  0  0  0  0  0  0
    1.9840    3.2428    2.5689 C   0  0  0  0  0  0  0  0  0  0  0  0
    4.6522    3.8587    1.3076 C   0  0  0  0  0  0  0  0  0  0  0  0
    5.0475    4.7799    0.3151 C   0  0  0  0  0  0  0  0  0  0  0  0
    5.8456    5.8784    0.6427 C   0  0  0  0  0  0  0  0  0  0  0  0
    6.2602    6.0751    1.9623 C   0  0  0  0  0  0  0  0  0  0  0  0
    7.2769    7.4921    2.3727 S   0  0  0  0  0  0  0  0  0  0  0  0
    5.8506    8.5907    2.6357 C   0  0  0  0  0  0  0  0  0  0  0  0
    5.8926    5.1591    2.9527 C   0  0  0  0  0  0  0  0  0  0  0  0
    5.0973    4.0542    2.6272 C   0  0  0  0  0  0  0  0  0  0  0  0
    2.9881    2.5834   -1.3496 C   0  0  0  0  0  0  0  0  0  0  0  0
    1.7350    3.6841   -1.4039 S   0  0  0  0  0  0  0  0  0  0  0  0
    5.3195    0.1613    0.1864 C   0  0  0  0  0  0  0  0  0  0  0  0
    4.9276   -1.1930    0.2453 C   0  0  0  0  0  0  0  0  0  0  0  0
    5.2897   -1.9420    1.3663 C   0  0  0  0  0  0  0  0  0  0  0  0
    4.7885   -3.1441    1.7416 N   0  0  0  0  0  0  0  0  0  0  0  0
    3.7831   -3.9422    1.0313 C   0  0  0  0  0  0  0  0  0  0  0  0
    2.3792   -3.4309    1.3378 C   0  0  0  0  0  0  0  0  0  0  0  0
    5.2349   -3.3297    3.0081 C   0  0  0  0  0  0  0  0  0  0  0  0
    6.0379   -2.2814    3.4132 C   0  0  0  0  0  0  0  0  0  0  0  0
    6.0693   -1.3910    2.3636 C   0  0  0  0  0  0  0  0  0  0  0  0
    6.5560   -0.0865    2.2870 C   0  0  0  0  0  0  0  0  0  0  0  0
    6.1764    0.6918    1.1807 C   0  0  0  0  0  0  0  0  0  0  0  0
    6.4982   -2.1678    4.7238 C   0  0  0  0  0  0  0  0  0  0  0  0
    6.1248   -3.1629    5.6427 C   0  0  0  0  0  0  0  0  0  0  0  0
    5.3088   -4.2511    5.2425 C   0  0  0  0  0  0  0  0  0  0  0  0
    4.8446   -4.3251    3.9084 C   0  0  0  0  0  0  0  0  0  0  0  0
    4.8235   -5.2057    6.2626 C   0  0  0  0  0  0  0  0  0  0  0  0
    4.5933   -6.5142    6.0441 C   0  0  0  0  0  0  0  0  0  0  0  0
    3.5980   -7.2662    6.8078 C   0  0  0  0  0  0  0  0  0  0  0  0
    3.0747   -6.9050    7.8970 O   0  0  0  0  0  0  0  0  0  0  0  0
    3.2291   -8.4446    6.0496 C   0  0  0  0  0  0  0  0  0  0  0  0
    2.1961   -9.3641    6.3437 C   0  0  0  0  0  0  0  0  0  0  0  0
    2.0322  -10.3469    5.3855 C   0  0  0  0  0  0  0  0  0  0  0  0
    2.8276  -10.4215    4.1965 C   0  0  0  0  0  0  0  0  0  0  0  0
    3.8212   -9.5079    3.8896 C   0  0  0  0  0  0  0  0  0  0  0  0
    4.0228   -8.5009    4.8741 C   0  0  0  0  0  0  0  0  0  0  0  0
    4.9954   -7.3730    4.8901 C   0  0  0  0  0  0  0  0  0  0  0  0
    6.1922   -7.3385    4.2501 C   0  0  0  0  0  0  0  0  0  0  0  0
    6.5610   -8.2979    3.2411 C   0  0  0  0  0  0  0  0  0  0  0  0
    6.8778   -9.0648    2.4324 N   0  0  0  0  0  0  0  0  0  0  0  0
    7.2497   -6.4473    4.6555 C   0  0  0  0  0  0  0  0  0  0  0  0
    8.1064   -5.7377    4.9717 N   0  0  0  0  0  0  0  0  0  0  0  0
    2.0730  -11.6382    3.7458 C   0  0  0  0  0  0  0  0  0  0  0  0
    1.0495  -11.4655    2.5831 C   0  0  0  0  0  0  0  0  0  0  0  0
    0.4841  -10.0640    2.5964 C   0  0  0  0  0  0  0  0  0  0  0  0
   -0.2687   -9.9723    3.6958 C   0  0  0  0  0  0  0  0  0  0  0  0
   -0.1917  -11.3150    4.3872 C   0  0  0  0  0  0  0  0  0  0  0  0
   -0.1352  -12.2100    3.1653 C   0  0  0  0  0  0  0  0  0  0  0  0
    1.2425  -11.5474    4.9530 C   0  0  0  0  0  0  0  0  0  0  0  0
   -7.8440    6.3974   -1.0671 H   0  0  0  0  0  0  0  0  0  0  0  0
  -10.8670    1.2093   -2.7071 H   0  0  0  0  0  0  0  0  0  0  0  0
   -8.6178    1.2992    1.8693 H   0  0  0  0  0  0  0  0  0  0  0  0
   -9.4021   -1.9108    0.8583 H   0  0  0  0  0  0  0  0  0  0  0  0
  -11.2250   -0.9944    2.7417 H   0  0  0  0  0  0  0  0  0  0  0  0
  -11.9482   -3.5072    2.2601 H   0  0  0  0  0  0  0  0  0  0  0  0
  -13.0694   -3.6004   -0.0942 H   0  0  0  0  0  0  0  0  0  0  0  0
  -13.0765   -1.1446   -1.1111 H   0  0  0  0  0  0  0  0  0  0  0  0
  -13.5351   -0.6800    1.4660 H   0  0  0  0  0  0  0  0  0  0  0  0
  -12.3425    0.5332    0.8408 H   0  0  0  0  0  0  0  0  0  0  0  0
  -10.4374   -1.9843   -1.3076 H   0  0  0  0  0  0  0  0  0  0  0  0
   -5.5617    6.8100   -1.5546 H   0  0  0  0  0  0  0  0  0  0  0  0
   -3.3307    7.0867   -0.6064 H   0  0  0  0  0  0  0  0  0  0  0  0
   -1.6050    6.7526   -0.9149 H   0  0  0  0  0  0  0  0  0  0  0  0
   -3.7850    4.6726   -0.2159 H   0  0  0  0  0  0  0  0  0  0  0  0
   -2.4868    5.3028    0.8555 H   0  0  0  0  0  0  0  0  0  0  0  0
   -2.0477    4.2843   -0.5531 H   0  0  0  0  0  0  0  0  0  0  0  0
   -2.7899    7.2267   -4.4543 H   0  0  0  0  0  0  0  0  0  0  0  0
   -1.6563    7.8043   -3.1946 H   0  0  0  0  0  0  0  0  0  0  0  0
   -3.6029    8.8876   -1.9739 H   0  0  0  0  0  0  0  0  0  0  0  0
   -4.6988    8.3356   -3.3121 H   0  0  0  0  0  0  0  0  0  0  0  0
   -3.3778    9.4863   -3.6543 H   0  0  0  0  0  0  0  0  0  0  0  0
   -5.3067    2.7536   -4.4369 H   0  0  0  0  0  0  0  0  0  0  0  0
   -7.4464    3.3898   -3.4406 H   0  0  0  0  0  0  0  0  0  0  0  0
   -2.9543    2.2419   -4.8909 H   0  0  0  0  0  0  0  0  0  0  0  0
   -0.5846    1.7673   -4.5537 H   0  0  0  0  0  0  0  0  0  0  0  0
   -0.1313    5.5276   -2.4252 H   0  0  0  0  0  0  0  0  0  0  0  0
    0.6466    1.0406   -7.0276 H   0  0  0  0  0  0  0  0  0  0  0  0
    0.9038    2.3574   -9.1024 H   0  0  0  0  0  0  0  0  0  0  0  0
    4.7642    3.9253   -9.5617 H   0  0  0  0  0  0  0  0  0  0  0  0
    4.2589    4.1765  -11.2813 H   0  0  0  0  0  0  0  0  0  0  0  0
    3.6854    2.7137  -10.3863 H   0  0  0  0  0  0  0  0  0  0  0  0
    3.6375    5.0026   -7.0943 H   0  0  0  0  0  0  0  0  0  0  0  0
    3.4277    3.6762   -5.0417 H   0  0  0  0  0  0  0  0  0  0  0  0
    0.3060   -0.0417   -3.0871 H   0  0  0  0  0  0  0  0  0  0  0  0
    0.1957   -2.4975   -3.0342 H   0  0  0  0  0  0  0  0  0  0  0  0
    2.5797   -4.1077   -2.3461 H   0  0  0  0  0  0  0  0  0  0  0  0
    3.8399   -4.2367   -3.6473 H   0  0  0  0  0  0  0  0  0  0  0  0
    3.0574   -5.7244   -2.9904 H   0  0  0  0  0  0  0  0  0  0  0  0
    3.1121   -2.7121   -6.1883 H   0  0  0  0  0  0  0  0  0  0  0  0
    3.2333   -0.2525   -6.2549 H   0  0  0  0  0  0  0  0  0  0  0  0
    2.9611    0.1831    1.4365 H   0  0  0  0  0  0  0  0  0  0  0  0
    1.1263   -0.5296    2.8764 H   0  0  0  0  0  0  0  0  0  0  0  0
   -2.9467    0.6580    3.4527 H   0  0  0  0  0  0  0  0  0  0  0  0
   -1.6069    0.1860    2.3377 H   0  0  0  0  0  0  0  0  0  0  0  0
   -1.9785    1.9375    2.6212 H   0  0  0  0  0  0  0  0  0  0  0  0
    0.3406    3.5691    3.9186 H   0  0  0  0  0  0  0  0  0  0  0  0
    2.1928    4.3010    2.4738 H   0  0  0  0  0  0  0  0  0  0  0  0
    4.7276    4.6638   -0.7101 H   0  0  0  0  0  0  0  0  0  0  0  0
    6.1325    6.5807   -0.1309 H   0  0  0  0  0  0  0  0  0  0  0  0
    5.2226    8.6315    1.7196 H   0  0  0  0  0  0  0  0  0  0  0  0
    5.2458    8.2275    3.4917 H   0  0  0  0  0  0  0  0  0  0  0  0
    6.2208    9.6113    2.8603 H   0  0  0  0  0  0  0  0  0  0  0  0
    6.2236    5.2969    3.9740 H   0  0  0  0  0  0  0  0  0  0  0  0
    4.8296    3.3462    3.4022 H   0  0  0  0  0  0  0  0  0  0  0  0
    4.2296   -1.5944   -0.4751 H   0  0  0  0  0  0  0  0  0  0  0  0
    3.8647   -5.0101    1.3264 H   0  0  0  0  0  0  0  0  0  0  0  0
    3.9655   -3.8971   -0.0630 H   0  0  0  0  0  0  0  0  0  0  0  0
    1.6250   -4.0790    0.8484 H   0  0  0  0  0  0  0  0  0  0  0  0
    2.2561   -2.3950    0.9567 H   0  0  0  0  0  0  0  0  0  0  0  0
    2.1971   -3.4315    2.4344 H   0  0  0  0  0  0  0  0  0  0  0  0
    7.1403    0.3442    3.0913 H   0  0  0  0  0  0  0  0  0  0  0  0
    6.4855    1.7296    1.1382 H   0  0  0  0  0  0  0  0  0  0  0  0
    7.0955   -1.3207    5.0366 H   0  0  0  0  0  0  0  0  0  0  0  0
    6.4524   -3.0807    6.6721 H   0  0  0  0  0  0  0  0  0  0  0  0
    4.1506   -5.0965    3.6078 H   0  0  0  0  0  0  0  0  0  0  0  0
    4.4881   -4.7692    7.1964 H   0  0  0  0  0  0  0  0  0  0  0  0
    1.5748   -9.2976    7.2282 H   0  0  0  0  0  0  0  0  0  0  0  0
    4.3535   -9.5647    2.9554 H   0  0  0  0  0  0  0  0  0  0  0  0
    2.6918  -12.5618    3.6978 H   0  0  0  0  0  0  0  0  0  0  0  0
    1.3969  -11.8207    1.5910 H   0  0  0  0  0  0  0  0  0  0  0  0
    0.5896   -9.3035    1.8335 H   0  0  0  0  0  0  0  0  0  0  0  0
   -0.8813   -9.1221    3.9767 H   0  0  0  0  0  0  0  0  0  0  0  0
   -1.0228  -11.5242    5.0964 H   0  0  0  0  0  0  0  0  0  0  0  0
    0.0811  -13.2802    3.4036 H   0  0  0  0  0  0  0  0  0  0  0  0
   -1.0534  -12.1515    2.5291 H   0  0  0  0  0  0  0  0  0  0  0  0
    1.3432  -12.4231    5.6314 H   0  0  0  0  0  0  0  0  0  0  0  0
  1  2  2  3
  2  3  1  0
  3  4  2  0
  3  5  1  0
  5  6  2  0
  6  7  1  0
  7  8  2  0
  8  9  1  0
  9 10  2  0
 10 11  1  0
 11 12  2  3
 12 13  1  0
 13 14  3  0
 12 15  1  0
 15 16  3  0
  8 17  1  0
 17 18  1  0
 18 19  1  0
 19 20  2  0
 20 21  1  0
 21 22  1  0
 21 23  1  0
  1 24  1  0
 24 25  2  0
 25 26  1  0
 26 27  1  0
 27 28  1  0
 28 29  1  0
 27 30  1  0
 30 31  1  0
 27 32  1  0
 32 33  2  0
 33 34  1  0
 34 35  1  0
 35 36  2  0
 33 37  1  0
 37 38  2  0
 38 39  1  0
 39 40  2  0
 39 41  1  0
 41 42  2  0
 42 43  1  0
 43 44  1  0
 44 45  2  0
 45 46  1  0
 46 47  2  0
 47 48  1  0
 48 49  1  0
 47 50  1  0
 50 51  2  0
 43 52  1  0
 52 53  2  0
 53 54  1  0
 54 55  2  0
 55 56  1  0
 56 57  1  0
 55 58  1  0
 58 59  2  0
 42 60  1  0
 60 61  1  0
 61 62  1  0
 62 63  2  0
 63 64  1  0
 64 65  1  0
 65 66  2  0
 66 67  1  0
 67 68  2  0
 68 69  1  0
 69 70  1  0
 68 71  1  0
 71 72  2  0
 64 73  1  0
 73 74  2  0
 74 75  1  0
 75 76  2  0
 76 77  1  0
 77 78  1  0
 76 79  1  0
 79 80  2  0
 63 81  1  0
 81 82  1  0
 62 83  1  0
 83 84  2  0
 84 85  1  0
 85 86  1  0
 86 87  1  0
 87 88  1  0
 86 89  1  0
 89 90  2  0
 90 91  1  0
 91 92  1  0
 92 93  2  0
 90 94  1  0
 94 95  2  0
 95 96  1  0
 96 97  2  0
 96 98  1  0
 98 99  2  3
 99100  1  0
100101  2  0
100102  1  0
102103  2  0
103104  1  0
104105  2  0
105106  1  0
106107  2  0
107108  1  0
108109  2  3
109110  1  0
110111  3  0
109112  1  0
112113  3  0
105114  1  0
114115  1  0
115116  1  0
116117  2  0
117118  1  0
118119  1  0
118120  1  0
 11  2  1  0
 23 17  1  0
 36 24  1  0
 82 41  1  0
 93 83  1  0
108 99  1  0
120114  1  0
 10  5  1  0
 22 18  1  0
 34 26  2  0
 51 44  1  0
 59 52  1  0
 81 60  2  0
 91 85  2  0
107102  1  0
119115  1  0
 23  7  1  0
 40 32  1  0
 72 65  1  0
 80 73  1  0
 97 89  1  0
120104  1  0
  1121  1  0
  6122  1  0
  9123  1  0
 17124  1  0
 18125  1  0
 19126  1  0
 20127  1  0
 21128  1  0
 22129  1  0
 22130  1  0
 23131  1  0
 25132  1  0
 28133  1  0
 28134  1  0
 29135  1  0
 29136  1  0
 29137  1  0
 30138  1  0
 30139  1  0
 31140  1  0
 31141  1  0
 31142  1  0
 35143  1  0
 36144  1  0
 37145  1  0
 38146  1  0
 40147  1  0
 45148  1  0
 46149  1  0
 49150  1  0
 49151  1  0
 49152  1  0
 50153  1  0
 51154  1  0
 53155  1  0
 54156  1  0
 57157  1  0
 57158  1  0
 57159  1  0
 58160  1  0
 59161  1  0
 66162  1  0
 67163  1  0
 70164  1  0
 70165  1  0
 70166  1  0
 71167  1  0
 72168  1  0
 74169  1  0
 75170  1  0
 78171  1  0
 78172  1  0
 78173  1  0
 79174  1  0
 80175  1  0
 84176  1  0
 87177  1  0
 87178  1  0
 88179  1  0
 88180  1  0
 88181  1  0
 92182  1  0
 93183  1  0
 94184  1  0
 95185  1  0
 97186  1  0
 98187  1  0
103188  1  0
106189  1  0
114190  1  0
115191  1  0
116192  1  0
117193  1  0
118194  1  0
119195  1  0
119196  1  0
120197  1  0
M  END

