
     RDKit          3D

205223  0  0  0  0  0  0  0  0999 V2000
    6.5070    1.9976   -0.9497 C   0  0  0  0  0  0  0  0  0  0  0  0
    6.7066    0.6519   -0.8973 C   0  0  0  0  0  0  0  0  0  0  0  0
    6.0838   -0.5346   -1.4564 C   0  0  0  0  0  0  0  0  0  0  0  0
    5.8578   -0.6679   -2.6995 O   0  0  0  0  0  0  0  0  0  0  0  0
    5.7471   -1.5496   -0.5113 C   0  0  0  0  0  0  0  0  0  0  0  0
    5.0391   -2.7271   -0.7132 C   0  0  0  0  0  0  0  0  0  0  0  0
    4.6511   -3.5338    0.3329 C   0  0  0  0  0  0  0  0  0  0  0  0
    5.0201   -3.1352    1.6019 C   0  0  0  0  0  0  0  0  0  0  0  0
    5.7591   -1.9482    1.7713 C   0  0  0  0  0  0  0  0  0  0  0  0
    6.1280   -1.1337    0.7195 C   0  0  0  0  0  0  0  0  0  0  0  0
    6.7324    0.1990    0.6412 C   0  0  0  0  0  0  0  0  0  0  0  0
    7.2618    0.8930    1.5541 C   0  0  0  0  0  0  0  0  0  0  0  0
    7.9935    2.1490    1.5904 C   0  0  0  0  0  0  0  0  0  0  0  0
    8.5584    3.1289    1.6059 N   0  0  0  0  0  0  0  0  0  0  0  0
    6.5058    0.8033    2.8945 C   0  0  0  0  0  0  0  0  0  0  0  0
    5.8818    0.7384    3.9588 N   0  0  0  0  0  0  0  0  0  0  0  0
    4.3740   -4.3054    2.2422 C   0  0  0  0  0  0  0  0  0  0  0  0
    5.2801   -5.3984    2.6731 C   0  0  0  0  0  0  0  0  0  0  0  0
    4.3691   -6.5878    2.8360 C   0  0  0  0  0  0  0  0  0  0  0  0
    3.9966   -7.0023    1.5947 C   0  0  0  0  0  0  0  0  0  0  0  0
    4.6187   -6.0401    0.6451 C   0  0  0  0  0  0  0  0  0  0  0  0
    5.9396   -5.7949    1.3686 C   0  0  0  0  0  0  0  0  0  0  0  0
    3.9535   -4.7351    0.8540 C   0  0  0  0  0  0  0  0  0  0  0  0
    5.2964    2.5273   -1.6781 C   0  0  0  0  0  0  0  0  0  0  0  0
    4.5940    2.1844   -2.7184 C   0  0  0  0  0  0  0  0  0  0  0  0
    5.1551    2.1758   -4.0619 N   0  0  0  0  0  0  0  0  0  0  0  0
    4.5928    3.3248   -4.8065 C   0  0  0  0  0  0  0  0  0  0  0  0
    4.1377    3.4134   -5.9989 C   0  0  0  0  0  0  0  0  0  0  0  0
    3.4692    4.5088   -6.6194 C   0  0  0  0  0  0  0  0  0  0  0  0
    3.3054    5.6382   -5.7698 C   0  0  0  0  0  0  0  0  0  0  0  0
    2.4055    7.0834   -6.3250 S   0  0  0  0  0  0  0  0  0  0  0  0
    2.1088    8.2548   -4.9771 C   0  0  0  0  0  0  0  0  0  0  0  0
    3.7870    5.5738   -4.5012 C   0  0  0  0  0  0  0  0  0  0  0  0
    4.4146    4.4917   -3.9717 C   0  0  0  0  0  0  0  0  0  0  0  0
    6.1625    1.5036   -4.6653 C   0  0  0  0  0  0  0  0  0  0  0  0
    7.4376    1.4834   -4.1647 C   0  0  0  0  0  0  0  0  0  0  0  0
    8.5278    0.7230   -4.6811 C   0  0  0  0  0  0  0  0  0  0  0  0
    8.2545   -0.0825   -5.8219 C   0  0  0  0  0  0  0  0  0  0  0  0
    9.5580   -1.0734   -6.4514 S   0  0  0  0  0  0  0  0  0  0  0  0
   11.0823   -1.0454   -5.5396 C   0  0  0  0  0  0  0  0  0  0  0  0
    7.0022   -0.0507   -6.3056 C   0  0  0  0  0  0  0  0  0  0  0  0
    5.9560    0.6755   -5.8011 C   0  0  0  0  0  0  0  0  0  0  0  0
    3.1850    2.3582   -2.5599 C   0  0  0  0  0  0  0  0  0  0  0  0
    1.7969    1.4549   -3.2509 S   0  0  0  0  0  0  0  0  0  0  0  0
    0.6348    1.8274   -2.0657 C   0  0  0  0  0  0  0  0  0  0  0  0
    1.3213    2.6907   -1.2036 C   0  0  0  0  0  0  0  0  0  0  0  0
    0.6449    3.5214   -0.2492 N   0  0  0  0  0  0  0  0  0  0  0  0
   -0.6378    4.1061   -0.7143 C   0  0  0  0  0  0  0  0  0  0  0  0
   -1.7691    4.2051   -0.0370 C   0  0  0  0  0  0  0  0  0  0  0  0
   -2.9320    4.7539   -0.5715 C   0  0  0  0  0  0  0  0  0  0  0  0
   -2.8531    5.2052   -1.9082 C   0  0  0  0  0  0  0  0  0  0  0  0
   -4.2739    6.0113   -2.6972 S   0  0  0  0  0  0  0  0  0  0  0  0
   -5.5945    6.1186   -1.4786 C   0  0  0  0  0  0  0  0  0  0  0  0
   -1.6906    5.0901   -2.5937 C   0  0  0  0  0  0  0  0  0  0  0  0
   -0.5231    4.5458   -2.0604 C   0  0  0  0  0  0  0  0  0  0  0  0
    1.1419    4.0617    0.9028 C   0  0  0  0  0  0  0  0  0  0  0  0
    2.2180    4.8981    0.8888 C   0  0  0  0  0  0  0  0  0  0  0  0
    2.8302    5.3968    2.0469 C   0  0  0  0  0  0  0  0  0  0  0  0
    2.2531    4.9979    3.2773 C   0  0  0  0  0  0  0  0  0  0  0  0
    2.9555    5.6034    4.7947 S   0  0  0  0  0  0  0  0  0  0  0  0
    4.2604    6.8281    4.3932 C   0  0  0  0  0  0  0  0  0  0  0  0
    1.1956    4.1880    3.3344 C   0  0  0  0  0  0  0  0  0  0  0  0
    0.6325    3.7081    2.1401 C   0  0  0  0  0  0  0  0  0  0  0  0
    2.6415    2.8602   -1.5541 C   0  0  0  0  0  0  0  0  0  0  0  0
    4.0821    3.1889   -0.5392 S   0  0  0  0  0  0  0  0  0  0  0  0
   -0.5085    1.0044   -1.4768 C   0  0  0  0  0  0  0  0  0  0  0  0
   -1.1229   -0.1290   -1.8142 C   0  0  0  0  0  0  0  0  0  0  0  0
   -1.2803   -0.5920   -3.1866 N   0  0  0  0  0  0  0  0  0  0  0  0
   -1.2020    0.2019   -4.3684 C   0  0  0  0  0  0  0  0  0  0  0  0
   -0.4074   -0.1644   -5.4244 C   0  0  0  0  0  0  0  0  0  0  0  0
   -0.4247    0.5091   -6.5932 C   0  0  0  0  0  0  0  0  0  0  0  0
   -1.2422    1.6019   -6.7753 C   0  0  0  0  0  0  0  0  0  0  0  0
   -1.3075    2.6482   -8.2043 S   0  0  0  0  0  0  0  0  0  0  0  0
   -0.9925    4.3343   -7.6008 C   0  0  0  0  0  0  0  0  0  0  0  0
   -2.0748    1.9666   -5.6784 C   0  0  0  0  0  0  0  0  0  0  0  0
   -2.0343    1.2777   -4.5223 C   0  0  0  0  0  0  0  0  0  0  0  0
   -1.7790   -1.9412   -3.4656 C   0  0  0  0  0  0  0  0  0  0  0  0
   -2.8215   -1.9684   -4.3588 C   0  0  0  0  0  0  0  0  0  0  0  0
   -3.4171   -3.1640   -4.6535 C   0  0  0  0  0  0  0  0  0  0  0  0
   -2.9731   -4.3838   -4.0555 C   0  0  0  0  0  0  0  0  0  0  0  0
   -3.8609   -5.8631   -4.4806 S   0  0  0  0  0  0  0  0  0  0  0  0
   -5.2941   -6.1407   -3.3610 C   0  0  0  0  0  0  0  0  0  0  0  0
   -1.9419   -4.3423   -3.1756 C   0  0  0  0  0  0  0  0  0  0  0  0
   -1.3455   -3.0579   -2.9000 C   0  0  0  0  0  0  0  0  0  0  0  0
   -1.8295   -0.7963   -0.7634 C   0  0  0  0  0  0  0  0  0  0  0  0
   -2.6036   -2.2848   -0.4237 S   0  0  0  0  0  0  0  0  0  0  0  0
   -2.9466   -2.1364    1.2199 C   0  0  0  0  0  0  0  0  0  0  0  0
   -2.4387   -0.8902    1.5113 C   0  0  0  0  0  0  0  0  0  0  0  0
   -2.5218   -0.1930    2.7534 N   0  0  0  0  0  0  0  0  0  0  0  0
   -1.5914   -0.2357    3.7592 C   0  0  0  0  0  0  0  0  0  0  0  0
   -1.2230    1.0132    4.3694 C   0  0  0  0  0  0  0  0  0  0  0  0
   -0.3560    1.0933    5.3918 C   0  0  0  0  0  0  0  0  0  0  0  0
    0.2599   -0.0563    5.9293 C   0  0  0  0  0  0  0  0  0  0  0  0
    1.3701    0.0783    7.3027 S   0  0  0  0  0  0  0  0  0  0  0  0
    1.5190    1.7835    7.8435 C   0  0  0  0  0  0  0  0  0  0  0  0
   -0.0683   -1.2636    5.3549 C   0  0  0  0  0  0  0  0  0  0  0  0
   -0.9727   -1.3432    4.3028 C   0  0  0  0  0  0  0  0  0  0  0  0
   -3.6789    0.6855    2.9601 C   0  0  0  0  0  0  0  0  0  0  0  0
   -4.1094    1.5055    1.9532 C   0  0  0  0  0  0  0  0  0  0  0  0
   -5.1292    2.4139    2.2267 C   0  0  0  0  0  0  0  0  0  0  0  0
   -5.7030    2.5100    3.4792 C   0  0  0  0  0  0  0  0  0  0  0  0
   -6.9770    3.7743    3.7173 S   0  0  0  0  0  0  0  0  0  0  0  0
   -6.0725    5.2787    4.1993 C   0  0  0  0  0  0  0  0  0  0  0  0
   -5.2567    1.6878    4.4773 C   0  0  0  0  0  0  0  0  0  0  0  0
   -4.2338    0.7572    4.2566 C   0  0  0  0  0  0  0  0  0  0  0  0
   -1.8470   -0.2182    0.4343 C   0  0  0  0  0  0  0  0  0  0  0  0
   -0.8965    1.1731    0.1658 S   0  0  0  0  0  0  0  0  0  0  0  0
   -3.4998   -3.1040    2.1631 C   0  0  0  0  0  0  0  0  0  0  0  0
   -4.7775   -2.7254    3.3881 Se  0  0  0  0  0  2  0  0  0  0  0  0
   -5.0899   -4.5772    3.8470 C   0  0  0  0  0  0  0  0  0  0  0  0
   -4.1632   -5.2096    3.0027 C   0  0  0  0  0  0  0  0  0  0  0  0
   -3.9504   -6.6167    2.9478 C   0  0  0  0  0  0  0  0  0  0  0  0
   -2.9806   -7.0460    2.0760 C   0  0  0  0  0  0  0  0  0  0  0  0
   -2.5431   -8.4715    1.8390 C   0  0  0  0  0  0  0  0  0  0  0  0
   -1.3772   -8.8574    2.6882 C   0  0  0  0  0  0  0  0  0  0  0  0
   -2.4196   -5.5936    1.4011 S   0  0  0  0  0  0  0  0  0  0  0  0
   -3.4482   -4.4765    2.2352 C   0  0  0  0  0  0  0  0  0  0  0  0
   -6.1688   -4.9257    4.7169 C   0  0  0  0  0  0  0  0  0  0  0  0
   -6.2591   -4.5615    6.0279 C   0  0  0  0  0  0  0  0  0  0  0  0
   -5.3358   -3.9150    6.5935 C   0  0  0  0  0  0  0  0  0  0  0  0
   -4.3088   -3.1818    7.2370 N   0  0  0  0  0  0  0  0  0  0  0  0
   -7.6178   -4.7633    6.6561 C   0  0  0  0  0  0  0  0  0  0  0  0
   -7.7885   -4.6051    7.8694 O   0  0  0  0  0  0  0  0  0  0  0  0
   -8.6602   -5.0858    5.8540 O   0  0  0  0  0  0  0  0  0  0  0  0
  -10.0340   -5.2874    6.1883 C   0  0  0  0  0  0  0  0  0  0  0  0
  -10.8276   -5.2516    4.8624 C   0  0  0  0  0  0  0  0  0  0  0  0
    7.1665    2.6400   -0.5424 H   0  0  0  0  0  0  0  0  0  0  0  0
    4.8038   -3.0502   -1.7213 H   0  0  0  0  0  0  0  0  0  0  0  0
    6.0933   -1.6621    2.7376 H   0  0  0  0  0  0  0  0  0  0  0  0
    3.5042   -4.0746    2.9493 H   0  0  0  0  0  0  0  0  0  0  0  0
    5.9243   -5.2550    3.4908 H   0  0  0  0  0  0  0  0  0  0  0  0
    4.0736   -7.0951    3.7285 H   0  0  0  0  0  0  0  0  0  0  0  0
    3.3760   -7.8308    1.2949 H   0  0  0  0  0  0  0  0  0  0  0  0
    4.7291   -6.2986   -0.3891 H   0  0  0  0  0  0  0  0  0  0  0  0
    6.5093   -4.9366    0.8910 H   0  0  0  0  0  0  0  0  0  0  0  0
    6.5054   -6.7282    1.4833 H   0  0  0  0  0  0  0  0  0  0  0  0
    2.8277   -4.6479    0.6371 H   0  0  0  0  0  0  0  0  0  0  0  0
    4.2484    2.5257   -6.6583 H   0  0  0  0  0  0  0  0  0  0  0  0
    3.1486    4.4772   -7.6273 H   0  0  0  0  0  0  0  0  0  0  0  0
    1.8795    7.5670   -4.0733 H   0  0  0  0  0  0  0  0  0  0  0  0
    3.0056    8.8068   -4.7350 H   0  0  0  0  0  0  0  0  0  0  0  0
    1.2373    8.9111   -5.1016 H   0  0  0  0  0  0  0  0  0  0  0  0
    3.6761    6.4834   -3.8732 H   0  0  0  0  0  0  0  0  0  0  0  0
    4.7812    4.5007   -2.9677 H   0  0  0  0  0  0  0  0  0  0  0  0
    7.7044    2.0861   -3.3037 H   0  0  0  0  0  0  0  0  0  0  0  0
    9.5184    0.7004   -4.2359 H   0  0  0  0  0  0  0  0  0  0  0  0
   10.9781   -0.5680   -4.4916 H   0  0  0  0  0  0  0  0  0  0  0  0
   11.4232   -2.1178   -5.2349 H   0  0  0  0  0  0  0  0  0  0  0  0
   11.9495   -0.5344   -5.9752 H   0  0  0  0  0  0  0  0  0  0  0  0
    6.8100   -0.6367   -7.2425 H   0  0  0  0  0  0  0  0  0  0  0  0
    4.9995    0.5991   -6.2316 H   0  0  0  0  0  0  0  0  0  0  0  0
   -1.8564    3.8273    0.9798 H   0  0  0  0  0  0  0  0  0  0  0  0
   -3.8479    4.8599   -0.1092 H   0  0  0  0  0  0  0  0  0  0  0  0
   -6.3095    6.8697   -1.8930 H   0  0  0  0  0  0  0  0  0  0  0  0
   -5.2378    6.3252   -0.4606 H   0  0  0  0  0  0  0  0  0  0  0  0
   -6.0978    5.1100   -1.4469 H   0  0  0  0  0  0  0  0  0  0  0  0
   -1.6054    5.4252   -3.5874 H   0  0  0  0  0  0  0  0  0  0  0  0
    0.3663    4.4343   -2.6577 H   0  0  0  0  0  0  0  0  0  0  0  0
    2.5878    5.3023   -0.0612 H   0  0  0  0  0  0  0  0  0  0  0  0
    3.6501    6.0301    1.9756 H   0  0  0  0  0  0  0  0  0  0  0  0
    4.7463    6.6471    3.4335 H   0  0  0  0  0  0  0  0  0  0  0  0
    5.0704    6.8289    5.1628 H   0  0  0  0  0  0  0  0  0  0  0  0
    3.8011    7.8348    4.3332 H   0  0  0  0  0  0  0  0  0  0  0  0
    0.7838    3.9285    4.3419 H   0  0  0  0  0  0  0  0  0  0  0  0
   -0.2154    3.0074    2.3019 H   0  0  0  0  0  0  0  0  0  0  0  0
    0.2216   -1.0457   -5.3224 H   0  0  0  0  0  0  0  0  0  0  0  0
    0.2217    0.1921   -7.4146 H   0  0  0  0  0  0  0  0  0  0  0  0
   -2.0022    4.8182   -7.3575 H   0  0  0  0  0  0  0  0  0  0  0  0
   -0.4710    4.9681   -8.3587 H   0  0  0  0  0  0  0  0  0  0  0  0
   -0.4930    4.3913   -6.6421 H   0  0  0  0  0  0  0  0  0  0  0  0
   -2.6949    2.7888   -5.9314 H   0  0  0  0  0  0  0  0  0  0  0  0
   -2.6713    1.5764   -3.7149 H   0  0  0  0  0  0  0  0  0  0  0  0
   -3.1958   -1.0462   -4.8193 H   0  0  0  0  0  0  0  0  0  0  0  0
   -4.2686   -3.2439   -5.3522 H   0  0  0  0  0  0  0  0  0  0  0  0
   -4.9023   -6.2785   -2.3737 H   0  0  0  0  0  0  0  0  0  0  0  0
   -5.8494   -5.1610   -3.3776 H   0  0  0  0  0  0  0  0  0  0  0  0
   -5.9011   -6.9503   -3.8160 H   0  0  0  0  0  0  0  0  0  0  0  0
   -1.5575   -5.1841   -2.7142 H   0  0  0  0  0  0  0  0  0  0  0  0
   -0.5418   -3.1108   -2.2062 H   0  0  0  0  0  0  0  0  0  0  0  0
   -1.6078    1.9396    4.0216 H   0  0  0  0  0  0  0  0  0  0  0  0
   -0.0585    2.0283    5.8640 H   0  0  0  0  0  0  0  0  0  0  0  0
    2.4580    1.9539    8.3534 H   0  0  0  0  0  0  0  0  0  0  0  0
    0.6835    2.0341    8.5702 H   0  0  0  0  0  0  0  0  0  0  0  0
    1.3911    2.5290    7.0294 H   0  0  0  0  0  0  0  0  0  0  0  0
    0.4203   -2.1048    5.8239 H   0  0  0  0  0  0  0  0  0  0  0  0
   -1.1657   -2.3186    3.8827 H   0  0  0  0  0  0  0  0  0  0  0  0
   -3.6855    1.4112    0.9744 H   0  0  0  0  0  0  0  0  0  0  0  0
   -5.4227    3.0244    1.3804 H   0  0  0  0  0  0  0  0  0  0  0  0
   -5.1649    5.0494    4.7691 H   0  0  0  0  0  0  0  0  0  0  0  0
   -5.7802    5.8964    3.3215 H   0  0  0  0  0  0  0  0  0  0  0  0
   -6.8067    5.8571    4.8067 H   0  0  0  0  0  0  0  0  0  0  0  0
   -5.7119    1.7871    5.4268 H   0  0  0  0  0  0  0  0  0  0  0  0
   -3.8356    0.0992    5.0024 H   0  0  0  0  0  0  0  0  0  0  0  0
   -4.5271   -7.3688    3.4893 H   0  0  0  0  0  0  0  0  0  0  0  0
   -2.2674   -8.5046    0.7683 H   0  0  0  0  0  0  0  0  0  0  0  0
   -3.4517   -9.0928    1.9100 H   0  0  0  0  0  0  0  0  0  0  0  0
   -1.7092   -9.3024    3.6541 H   0  0  0  0  0  0  0  0  0  0  0  0
   -0.8634   -9.7357    2.1276 H   0  0  0  0  0  0  0  0  0  0  0  0
   -0.6851   -8.0634    2.7730 H   0  0  0  0  0  0  0  0  0  0  0  0
   -6.9842   -5.4647    4.3172 H   0  0  0  0  0  0  0  0  0  0  0  0
  -10.0944   -6.3291    6.6051 H   0  0  0  0  0  0  0  0  0  0  0  0
  -10.3142   -4.5425    6.8858 H   0  0  0  0  0  0  0  0  0  0  0  0
  -10.1361   -5.1690    4.0116 H   0  0  0  0  0  0  0  0  0  0  0  0
  -11.4295   -6.2040    4.8077 H   0  0  0  0  0  0  0  0  0  0  0  0
  -11.5297   -4.4099    4.9444 H   0  0  0  0  0  0  0  0  0  0  0  0
  1  2  2  3
  2  3  1  0
  3  4  2  0
  3  5  1  0
  5  6  2  0
  6  7  1  0
  7  8  2  0
  8  9  1  0
  9 10  2  0
 10 11  1  0
 11 12  2  3
 12 13  1  0
 13 14  3  0
 12 15  1  0
 15 16  3  0
  8 17  1  0
 17 18  1  0
 18 19  1  0
 19 20  2  0
 20 21  1  0
 21 22  1  0
 21 23  1  0
  1 24  1  0
 24 25  2  0
 25 26  1  0
 26 27  1  0
 27 28  2  0
 28 29  1  0
 29 30  2  0
 30 31  1  0
 31 32  1  0
 30 33  1  0
 33 34  2  0
 26 35  1  0
 35 36  2  0
 36 37  1  0
 37 38  2  0
 38 39  1  0
 39 40  1  0
 38 41  1  0
 41 42  2  0
 25 43  1  0
 43 44  1  0
 44 45  1  0
 45 46  2  0
 46 47  1  0
 47 48  1  0
 48 49  2  0
 49 50  1  0
 50 51  2  0
 51 52  1  0
 52 53  1  0
 51 54  1  0
 54 55  2  0
 47 56  1  0
 56 57  2  0
 57 58  1  0
 58 59  2  0
 59 60  1  0
 60 61  1  0
 59 62  1  0
 62 63  2  0
 46 64  1  0
 64 65  1  0
 45 66  1  0
 66 67  2  0
 67 68  1  0
 68 69  1  0
 69 70  2  0
 70 71  1  0
 71 72  2  0
 72 73  1  0
 73 74  1  0
 72 75  1  0
 75 76  2  0
 68 77  1  0
 77 78  2  0
 78 79  1  0
 79 80  2  0
 80 81  1  0
 81 82  1  0
 80 83  1  0
 83 84  2  0
 67 85  1  0
 85 86  1  0
 86 87  1  0
 87 88  2  0
 88 89  1  0
 89 90  1  0
 90 91  2  0
 91 92  1  0
 92 93  2  0
 93 94  1  0
 94 95  1  0
 93 96  1  0
 96 97  2  0
 89 98  1  0
 98 99  2  0
 99100  1  0
100101  2  0
101102  1  0
102103  1  0
101104  1  0
104105  2  0
 88106  1  0
106107  1  0
 87108  1  0
108109  1  0
109110  1  0
110111  2  0
111112  1  0
112113  2  0
113114  1  0
114115  1  0
113116  1  0
116117  1  0
110118  1  0
118119  2  3
119120  1  0
120121  3  0
119122  1  0
122123  2  0
122124  1  0
124125  1  0
125126  1  0
 11  2  1  0
 23 17  1  0
 65 24  1  0
107 66  1  0
117108  2  0
 10  5  1  0
 22 18  1  0
 34 27  1  0
 42 35  1  0
 64 43  2  0
 76 69  1  0
 84 77  1  0
106 85  2  0
117111  1  0
 23  7  1  0
 55 48  1  0
 63 56  1  0
 97 90  1  0
105 98  1  0
  1127  1  0
  6128  1  0
  9129  1  0
 17130  1  0
 18131  1  0
 19132  1  0
 20133  1  0
 21134  1  0
 22135  1  0
 22136  1  0
 23137  1  0
 28138  1  0
 29139  1  0
 32140  1  0
 32141  1  0
 32142  1  0
 33143  1  0
 34144  1  0
 36145  1  0
 37146  1  0
 40147  1  0
 40148  1  0
 40149  1  0
 41150  1  0
 42151  1  0
 49152  1  0
 50153  1  0
 53154  1  0
 53155  1  0
 53156  1  0
 54157  1  0
 55158  1  0
 57159  1  0
 58160  1  0
 61161  1  0
 61162  1  0
 61163  1  0
 62164  1  0
 63165  1  0
 70166  1  0
 71167  1  0
 74168  1  0
 74169  1  0
 74170  1  0
 75171  1  0
 76172  1  0
 78173  1  0
 79174  1  0
 82175  1  0
 82176  1  0
 82177  1  0
 83178  1  0
 84179  1  0
 91180  1  0
 92181  1  0
 95182  1  0
 95183  1  0
 95184  1  0
 96185  1  0
 97186  1  0
 99187  1  0
100188  1  0
103189  1  0
103190  1  0
103191  1  0
104192  1  0
105193  1  0
112194  1  0
114195  1  0
114196  1  0
115197  1  0
115198  1  0
115199  1  0
118200  1  0
125201  1  0
125202  1  0
126203  1  0
126204  1  0
126205  1  0
M  END

