
     RDKit          3D

221244  0  0  0  0  0  0  0  0999 V2000
    3.6395   -3.9608    5.0910 C   0  0  0  0  0  0  0  0  0  0  0  0
    3.8356   -4.3808    3.8218 C   0  0  0  0  0  0  0  0  0  0  0  0
    2.9100   -4.1460    2.7016 C   0  0  0  0  0  0  0  0  0  0  0  0
    1.7525   -3.6566    2.7739 O   0  0  0  0  0  0  0  0  0  0  0  0
    3.5753   -4.4761    1.4613 C   0  0  0  0  0  0  0  0  0  0  0  0
    3.0693   -4.2968    0.1511 C   0  0  0  0  0  0  0  0  0  0  0  0
    3.9812   -4.5870   -0.8460 C   0  0  0  0  0  0  0  0  0  0  0  0
    5.3177   -5.0231   -0.5792 C   0  0  0  0  0  0  0  0  0  0  0  0
    5.8203   -5.1946    0.6974 C   0  0  0  0  0  0  0  0  0  0  0  0
    4.8878   -4.9320    1.7466 C   0  0  0  0  0  0  0  0  0  0  0  0
    5.0834   -4.9706    3.2272 C   0  0  0  0  0  0  0  0  0  0  0  0
    6.1263   -5.5516    3.8900 C   0  0  0  0  0  0  0  0  0  0  0  0
    7.1810   -6.2573    3.2110 C   0  0  0  0  0  0  0  0  0  0  0  0
    8.0333   -6.8354    2.6811 N   0  0  0  0  0  0  0  0  0  0  0  0
    6.2216   -5.5929    5.3232 C   0  0  0  0  0  0  0  0  0  0  0  0
    6.3236   -5.6268    6.4752 N   0  0  0  0  0  0  0  0  0  0  0  0
    5.6194   -5.0617   -2.0454 C   0  0  0  0  0  0  0  0  0  0  0  0
    6.4953   -3.9024   -2.6067 C   0  0  0  0  0  0  0  0  0  0  0  0
    6.3303   -3.9490   -4.1072 C   0  0  0  0  0  0  0  0  0  0  0  0
    5.0788   -3.5561   -4.3659 C   0  0  0  0  0  0  0  0  0  0  0  0
    4.4408   -3.2488   -3.0331 C   0  0  0  0  0  0  0  0  0  0  0  0
    5.6552   -2.6677   -2.3237 C   0  0  0  0  0  0  0  0  0  0  0  0
    4.2472   -4.6220   -2.3206 C   0  0  0  0  0  0  0  0  0  0  0  0
    2.4316   -3.2480    5.5159 C   0  0  0  0  0  0  0  0  0  0  0  0
    2.3686   -1.8709    5.7553 C   0  0  0  0  0  0  0  0  0  0  0  0
    3.5134   -1.0339    5.9707 N   0  0  0  0  0  0  0  0  0  0  0  0
    4.0821   -0.9374    7.2995 C   0  0  0  0  0  0  0  0  0  0  0  0
    5.4688   -0.7577    7.4876 C   0  0  0  0  0  0  0  0  0  0  0  0
    6.0180   -0.7554    8.7730 C   0  0  0  0  0  0  0  0  0  0  0  0
    5.1949   -0.9314    9.8910 C   0  0  0  0  0  0  0  0  0  0  0  0
    5.9073   -1.0012   11.5343 S   0  0  0  0  0  0  0  0  0  0  0  0
    6.0973   -2.8152   11.4868 C   0  0  0  0  0  0  0  0  0  0  0  0
    3.8163   -1.0698    9.7219 C   0  0  0  0  0  0  0  0  0  0  0  0
    3.2650   -1.0796    8.4410 C   0  0  0  0  0  0  0  0  0  0  0  0
    4.1261   -0.4046    4.8363 C   0  0  0  0  0  0  0  0  0  0  0  0
    3.7024    0.8634    4.4225 C   0  0  0  0  0  0  0  0  0  0  0  0
    4.3070    1.4853    3.3233 C   0  0  0  0  0  0  0  0  0  0  0  0
    5.3413    0.8384    2.6358 C   0  0  0  0  0  0  0  0  0  0  0  0
    6.1279    1.6296    1.2306 S   0  0  0  0  0  0  0  0  0  0  0  0
    4.9866    0.8889    0.0199 C   0  0  0  0  0  0  0  0  0  0  0  0
    5.7649   -0.4289    3.0443 C   0  0  0  0  0  0  0  0  0  0  0  0
    5.1611   -1.0495    4.1392 C   0  0  0  0  0  0  0  0  0  0  0  0
    1.0631   -1.4743    6.0126 C   0  0  0  0  0  0  0  0  0  0  0  0
    0.3108   -0.0059    6.2683 S   0  0  0  0  0  0  0  0  0  0  0  0
   -1.2777   -0.6525    6.3971 C   0  0  0  0  0  0  0  0  0  0  0  0
   -1.1625   -2.0639    6.3099 C   0  0  0  0  0  0  0  0  0  0  0  0
   -2.1849   -2.9949    6.6977 N   0  0  0  0  0  0  0  0  0  0  0  0
   -2.5833   -4.0329    5.7723 C   0  0  0  0  0  0  0  0  0  0  0  0
   -2.6924   -3.7569    4.3969 C   0  0  0  0  0  0  0  0  0  0  0  0
   -3.1381   -4.7454    3.5122 C   0  0  0  0  0  0  0  0  0  0  0  0
   -3.4937   -6.0043    3.9900 C   0  0  0  0  0  0  0  0  0  0  0  0
   -4.1254   -7.2568    2.8684 S   0  0  0  0  0  0  0  0  0  0  0  0
   -2.4848   -7.6858    2.2086 C   0  0  0  0  0  0  0  0  0  0  0  0
   -3.3479   -6.3049    5.3495 C   0  0  0  0  0  0  0  0  0  0  0  0
   -2.9035   -5.3197    6.2372 C   0  0  0  0  0  0  0  0  0  0  0  0
   -2.7147   -2.9360    8.0412 C   0  0  0  0  0  0  0  0  0  0  0  0
   -4.0654   -3.2371    8.2937 C   0  0  0  0  0  0  0  0  0  0  0  0
   -4.5640   -3.2421    9.6025 C   0  0  0  0  0  0  0  0  0  0  0  0
   -3.7281   -2.9188   10.6731 C   0  0  0  0  0  0  0  0  0  0  0  0
   -4.3512   -2.9995   12.3570 S   0  0  0  0  0  0  0  0  0  0  0  0
   -5.0089   -1.3023   12.3448 C   0  0  0  0  0  0  0  0  0  0  0  0
   -2.3907   -2.5817   10.4348 C   0  0  0  0  0  0  0  0  0  0  0  0
   -1.8858   -2.5908    9.1316 C   0  0  0  0  0  0  0  0  0  0  0  0
    0.1454   -2.4670    6.0476 C   0  0  0  0  0  0  0  0  0  0  0  0
    0.8853   -3.9404    5.7199 S   0  0  0  0  0  0  0  0  0  0  0  0
   -2.4760    0.1431    5.9746 C   0  0  0  0  0  0  0  0  0  0  0  0
   -2.2793    1.4855    5.5721 C   0  0  0  0  0  0  0  0  0  0  0  0
   -3.0614    2.0113    4.5373 C   0  0  0  0  0  0  0  0  0  0  0  0
   -2.7222    3.1888    3.6287 C   0  0  0  0  0  0  0  0  0  0  0  0
   -1.1879    3.2458    3.2975 C   0  0  0  0  0  0  0  0  0  0  0  0
   -0.6570    4.6022    2.7930 C   0  0  0  0  0  0  0  0  0  0  0  0
   -3.2934    4.4986    4.2407 C   0  0  0  0  0  0  0  0  0  0  0  0
   -2.7292    4.8261    5.6296 C   0  0  0  0  0  0  0  0  0  0  0  0
   -3.5522    2.7811    2.4117 C   0  0  0  0  0  0  0  0  0  0  0  0
   -4.4403    1.7596    2.7193 C   0  0  0  0  0  0  0  0  0  0  0  0
   -4.1321    1.2841    4.0474 C   0  0  0  0  0  0  0  0  0  0  0  0
   -4.4994    0.0635    4.6064 C   0  0  0  0  0  0  0  0  0  0  0  0
   -3.6711   -0.5030    5.5813 C   0  0  0  0  0  0  0  0  0  0  0  0
   -5.1377    1.0676    1.7297 C   0  0  0  0  0  0  0  0  0  0  0  0
   -4.8390    1.3214    0.3883 C   0  0  0  0  0  0  0  0  0  0  0  0
   -3.8377    2.2551    0.0450 C   0  0  0  0  0  0  0  0  0  0  0  0
   -3.2791    3.0680    1.0622 C   0  0  0  0  0  0  0  0  0  0  0  0
   -3.2085    2.2065   -1.3032 C   0  0  0  0  0  0  0  0  0  0  0  0
   -1.9385    2.6968   -1.6225 C   0  0  0  0  0  0  0  0  0  0  0  0
   -1.5076    2.3423   -2.9087 C   0  0  0  0  0  0  0  0  0  0  0  0
   -0.2688    2.6725   -3.4895 C   0  0  0  0  0  0  0  0  0  0  0  0
    0.7609    3.4529   -2.7729 C   0  0  0  0  0  0  0  0  0  0  0  0
    2.0162    2.8729   -2.5149 C   0  0  0  0  0  0  0  0  0  0  0  0
    3.0009    3.6074   -1.8537 C   0  0  0  0  0  0  0  0  0  0  0  0
    2.7582    4.9290   -1.4695 C   0  0  0  0  0  0  0  0  0  0  0  0
    4.0532    5.8636   -0.6521 S   0  0  0  0  0  0  0  0  0  0  0  0
    4.7489    6.5756   -2.1889 C   0  0  0  0  0  0  0  0  0  0  0  0
    5.6153    5.5607   -2.9349 C   0  0  0  0  0  0  0  0  0  0  0  0
    1.5081    5.5078   -1.7185 C   0  0  0  0  0  0  0  0  0  0  0  0
    1.2535    6.7858   -1.3389 F   0  0  0  0  0  0  0  0  0  0  0  0
    0.5131    4.7732   -2.3730 C   0  0  0  0  0  0  0  0  0  0  0  0
   -0.0535    2.2387   -4.8043 C   0  0  0  0  0  0  0  0  0  0  0  0
   -0.9763    1.4593   -5.5054 C   0  0  0  0  0  0  0  0  0  0  0  0
   -2.1765    1.0516   -4.8899 C   0  0  0  0  0  0  0  0  0  0  0  0
   -3.0927    0.0850   -5.5257 C   0  0  0  0  0  0  0  0  0  0  0  0
   -4.2365    0.5193   -6.2056 C   0  0  0  0  0  0  0  0  0  0  0  0
   -5.1303   -0.4160   -6.7384 C   0  0  0  0  0  0  0  0  0  0  0  0
   -4.8850   -1.7891   -6.5930 C   0  0  0  0  0  0  0  0  0  0  0  0
   -6.0655   -2.9794   -7.2309 S   0  0  0  0  0  0  0  0  0  0  0  0
   -7.0226   -3.0317   -5.6773 C   0  0  0  0  0  0  0  0  0  0  0  0
   -8.1885   -3.9964   -5.8106 C   0  0  0  0  0  0  0  0  0  0  0  0
   -3.7279   -2.2225   -5.9307 C   0  0  0  0  0  0  0  0  0  0  0  0
   -2.8393   -1.2893   -5.3911 C   0  0  0  0  0  0  0  0  0  0  0  0
   -3.4708   -3.5464   -5.7932 F   0  0  0  0  0  0  0  0  0  0  0  0
   -2.4285    1.5493   -3.5989 C   0  0  0  0  0  0  0  0  0  0  0  0
   -3.7679    1.2948   -2.6180 S   0  0  0  0  0  0  0  0  0  0  0  0
   -0.6374    1.2783   -6.8593 C   0  0  0  0  0  0  0  0  0  0  0  0
    0.5347    1.9593   -7.2062 C   0  0  0  0  0  0  0  0  0  0  0  0
    1.1654    2.7221   -5.8451 S   0  0  0  0  0  0  0  0  0  0  0  0
    0.8752    2.4161   -8.5595 C   0  0  0  0  0  0  0  0  0  0  0  0
    0.3335    3.5440   -9.0802 C   0  0  0  0  0  0  0  0  0  0  0  0
   -0.7320    4.3356   -8.4356 C   0  0  0  0  0  0  0  0  0  0  0  0
   -1.4612    3.9750   -7.4729 O   0  0  0  0  0  0  0  0  0  0  0  0
   -0.8291    5.6124   -9.0866 C   0  0  0  0  0  0  0  0  0  0  0  0
   -1.6469    6.6949   -8.6959 C   0  0  0  0  0  0  0  0  0  0  0  0
   -1.4449    7.8412   -9.4359 C   0  0  0  0  0  0  0  0  0  0  0  0
   -0.4770    7.9358  -10.4856 C   0  0  0  0  0  0  0  0  0  0  0  0
    0.3329    6.8778  -10.8682 C   0  0  0  0  0  0  0  0  0  0  0  0
    0.1093    5.6678  -10.1500 C   0  0  0  0  0  0  0  0  0  0  0  0
    0.8077    4.3454  -10.2578 C   0  0  0  0  0  0  0  0  0  0  0  0
    1.5934    3.9274  -11.2881 C   0  0  0  0  0  0  0  0  0  0  0  0
    2.2131    2.6302  -11.3324 C   0  0  0  0  0  0  0  0  0  0  0  0
    2.7300    1.5948  -11.3767 N   0  0  0  0  0  0  0  0  0  0  0  0
    1.8354    4.7378  -12.4540 C   0  0  0  0  0  0  0  0  0  0  0  0
    2.0344    5.3756  -13.3991 N   0  0  0  0  0  0  0  0  0  0  0  0
   -0.8346    9.3779  -10.7080 C   0  0  0  0  0  0  0  0  0  0  0  0
    0.1449   10.4724  -10.1867 C   0  0  0  0  0  0  0  0  0  0  0  0
    0.8757    9.9679   -8.9610 C   0  0  0  0  0  0  0  0  0  0  0  0
   -0.0315    9.8746   -7.9890 C   0  0  0  0  0  0  0  0  0  0  0  0
   -1.3511   10.3147   -8.5830 C   0  0  0  0  0  0  0  0  0  0  0  0
   -0.8427   11.4041   -9.5079 C   0  0  0  0  0  0  0  0  0  0  0  0
   -1.8329    9.2731   -9.6369 C   0  0  0  0  0  0  0  0  0  0  0  0
    4.4455   -3.9545    5.8042 H   0  0  0  0  0  0  0  0  0  0  0  0
    2.0775   -3.9232   -0.0557 H   0  0  0  0  0  0  0  0  0  0  0  0
    6.8510   -5.4496    0.8412 H   0  0  0  0  0  0  0  0  0  0  0  0
    5.8682   -6.0786   -2.4225 H   0  0  0  0  0  0  0  0  0  0  0  0
    7.5443   -3.8726   -2.2466 H   0  0  0  0  0  0  0  0  0  0  0  0
    7.0987   -4.1498   -4.8487 H   0  0  0  0  0  0  0  0  0  0  0  0
    4.6615   -3.3822   -5.3521 H   0  0  0  0  0  0  0  0  0  0  0  0
    3.5457   -2.5972   -3.0735 H   0  0  0  0  0  0  0  0  0  0  0  0
    6.0466   -1.7416   -2.8092 H   0  0  0  0  0  0  0  0  0  0  0  0
    5.4989   -2.4590   -1.2417 H   0  0  0  0  0  0  0  0  0  0  0  0
    3.6238   -5.3621   -2.8726 H   0  0  0  0  0  0  0  0  0  0  0  0
    6.1330   -0.6451    6.6414 H   0  0  0  0  0  0  0  0  0  0  0  0
    7.0859   -0.6431    8.8953 H   0  0  0  0  0  0  0  0  0  0  0  0
    6.7942   -3.0984   10.6737 H   0  0  0  0  0  0  0  0  0  0  0  0
    5.1093   -3.3008   11.3300 H   0  0  0  0  0  0  0  0  0  0  0  0
    6.5190   -3.1594   12.4562 H   0  0  0  0  0  0  0  0  0  0  0  0
    3.1719   -1.1953   10.5824 H   0  0  0  0  0  0  0  0  0  0  0  0
    2.1967   -1.2062    8.3583 H   0  0  0  0  0  0  0  0  0  0  0  0
    2.9024    1.3690    4.9506 H   0  0  0  0  0  0  0  0  0  0  0  0
    3.9720    2.4675    3.0116 H   0  0  0  0  0  0  0  0  0  0  0  0
    4.9818   -0.2175    0.1139 H   0  0  0  0  0  0  0  0  0  0  0  0
    5.3261    1.1628   -1.0024 H   0  0  0  0  0  0  0  0  0  0  0  0
    3.9689    1.2936    0.1850 H   0  0  0  0  0  0  0  0  0  0  0  0
    6.5617   -0.9346    2.5160 H   0  0  0  0  0  0  0  0  0  0  0  0
    5.5112   -2.0233    4.4528 H   0  0  0  0  0  0  0  0  0  0  0  0
   -2.4512   -2.7750    4.0099 H   0  0  0  0  0  0  0  0  0  0  0  0
   -3.2539   -4.5025    2.4616 H   0  0  0  0  0  0  0  0  0  0  0  0
   -2.5693   -8.6177    1.6090 H   0  0  0  0  0  0  0  0  0  0  0  0
   -2.1354   -6.8677    1.5469 H   0  0  0  0  0  0  0  0  0  0  0  0
   -1.7569   -7.8475    3.0283 H   0  0  0  0  0  0  0  0  0  0  0  0
   -3.6223   -7.2770    5.7302 H   0  0  0  0  0  0  0  0  0  0  0  0
   -2.7899   -5.5724    7.2828 H   0  0  0  0  0  0  0  0  0  0  0  0
   -4.7299   -3.4884    7.4799 H   0  0  0  0  0  0  0  0  0  0  0  0
   -5.5976   -3.5043    9.7772 H   0  0  0  0  0  0  0  0  0  0  0  0
   -4.1855   -0.5751   12.1791 H   0  0  0  0  0  0  0  0  0  0  0  0
   -5.4840   -1.0921   13.3257 H   0  0  0  0  0  0  0  0  0  0  0  0
   -5.7747   -1.1969   11.5487 H   0  0  0  0  0  0  0  0  0  0  0  0
   -1.7337   -2.3308   11.2609 H   0  0  0  0  0  0  0  0  0  0  0  0
   -0.8401   -2.3564    8.9750 H   0  0  0  0  0  0  0  0  0  0  0  0
   -1.4208    2.0357    5.9258 H   0  0  0  0  0  0  0  0  0  0  0  0
   -0.9403    2.4651    2.5447 H   0  0  0  0  0  0  0  0  0  0  0  0
   -0.5731    3.0039    4.1822 H   0  0  0  0  0  0  0  0  0  0  0  0
   -0.5993    5.3341    3.6261 H   0  0  0  0  0  0  0  0  0  0  0  0
    0.3665    4.4688    2.3875 H   0  0  0  0  0  0  0  0  0  0  0  0
   -1.2865    5.0439    2.0031 H   0  0  0  0  0  0  0  0  0  0  0  0
   -3.1142    5.3530    3.5588 H   0  0  0  0  0  0  0  0  0  0  0  0
   -4.3979    4.4178    4.3448 H   0  0  0  0  0  0  0  0  0  0  0  0
   -3.0866    5.8313    5.9440 H   0  0  0  0  0  0  0  0  0  0  0  0
   -3.0925    4.0896    6.3777 H   0  0  0  0  0  0  0  0  0  0  0  0
   -1.6236    4.8255    5.6384 H   0  0  0  0  0  0  0  0  0  0  0  0
   -5.3258   -0.5057    4.2034 H   0  0  0  0  0  0  0  0  0  0  0  0
   -3.9181   -1.4963    5.9085 H   0  0  0  0  0  0  0  0  0  0  0  0
   -5.8010    0.2535    1.9836 H   0  0  0  0  0  0  0  0  0  0  0  0
   -5.3006    0.7015   -0.3682 H   0  0  0  0  0  0  0  0  0  0  0  0
   -2.5446    3.8088    0.8084 H   0  0  0  0  0  0  0  0  0  0  0  0
   -1.3137    3.2402   -0.9343 H   0  0  0  0  0  0  0  0  0  0  0  0
    2.2241    1.8582   -2.8207 H   0  0  0  0  0  0  0  0  0  0  0  0
    3.9627    3.1509   -1.6590 H   0  0  0  0  0  0  0  0  0  0  0  0
    5.3825    7.4429   -1.9057 H   0  0  0  0  0  0  0  0  0  0  0  0
    3.9352    6.9422   -2.8517 H   0  0  0  0  0  0  0  0  0  0  0  0
    4.9876    4.7428   -3.3504 H   0  0  0  0  0  0  0  0  0  0  0  0
    6.1311    6.0663   -3.7788 H   0  0  0  0  0  0  0  0  0  0  0  0
    6.3792    5.1340   -2.2503 H   0  0  0  0  0  0  0  0  0  0  0  0
   -0.4438    5.2346   -2.5791 H   0  0  0  0  0  0  0  0  0  0  0  0
   -4.4411    1.5773   -6.3138 H   0  0  0  0  0  0  0  0  0  0  0  0
   -6.0179   -0.0738   -7.2512 H   0  0  0  0  0  0  0  0  0  0  0  0
   -6.3632   -3.3611   -4.8435 H   0  0  0  0  0  0  0  0  0  0  0  0
   -7.4136   -2.0162   -5.4477 H   0  0  0  0  0  0  0  0  0  0  0  0
   -7.8215   -5.0179   -6.0478 H   0  0  0  0  0  0  0  0  0  0  0  0
   -8.7516   -4.0345   -4.8537 H   0  0  0  0  0  0  0  0  0  0  0  0
   -8.8746   -3.6555   -6.6152 H   0  0  0  0  0  0  0  0  0  0  0  0
   -1.9604   -1.6336   -4.8620 H   0  0  0  0  0  0  0  0  0  0  0  0
   -1.2796    0.8019   -7.5854 H   0  0  0  0  0  0  0  0  0  0  0  0
    1.7313    1.9420   -9.0038 H   0  0  0  0  0  0  0  0  0  0  0  0
   -2.3430    6.6451   -7.8720 H   0  0  0  0  0  0  0  0  0  0  0  0
    1.0871    7.0214  -11.6182 H   0  0  0  0  0  0  0  0  0  0  0  0
   -1.2731    9.5745  -11.7097 H   0  0  0  0  0  0  0  0  0  0  0  0
    0.7888   10.9391  -10.9585 H   0  0  0  0  0  0  0  0  0  0  0  0
    1.9432    9.8046   -8.8491 H   0  0  0  0  0  0  0  0  0  0  0  0
    0.1726    9.6219   -6.9562 H   0  0  0  0  0  0  0  0  0  0  0  0
   -2.1147   10.6295   -7.8449 H   0  0  0  0  0  0  0  0  0  0  0  0
   -1.6237   11.8100  -10.1907 H   0  0  0  0  0  0  0  0  0  0  0  0
   -0.3522   12.2499   -8.9617 H   0  0  0  0  0  0  0  0  0  0  0  0
   -2.8810    9.4104   -9.9878 H   0  0  0  0  0  0  0  0  0  0  0  0
  1  2  2  3
  2  3  1  0
  3  4  2  0
  3  5  1  0
  5  6  2  0
  6  7  1  0
  7  8  2  0
  8  9  1  0
  9 10  2  0
 10 11  1  0
 11 12  2  3
 12 13  1  0
 13 14  3  0
 12 15  1  0
 15 16  3  0
  8 17  1  0
 17 18  1  0
 18 19  1  0
 19 20  2  0
 20 21  1  0
 21 22  1  0
 21 23  1  0
  1 24  1  0
 24 25  2  0
 25 26  1  0
 26 27  1  0
 27 28  2  0
 28 29  1  0
 29 30  2  0
 30 31  1  0
 31 32  1  0
 30 33  1  0
 33 34  2  0
 26 35  1  0
 35 36  2  0
 36 37  1  0
 37 38  2  0
 38 39  1  0
 39 40  1  0
 38 41  1  0
 41 42  2  0
 25 43  1  0
 43 44  1  0
 44 45  1  0
 45 46  2  0
 46 47  1  0
 47 48  1  0
 48 49  2  0
 49 50  1  0
 50 51  2  0
 51 52  1  0
 52 53  1  0
 51 54  1  0
 54 55  2  0
 47 56  1  0
 56 57  2  0
 57 58  1  0
 58 59  2  0
 59 60  1  0
 60 61  1  0
 59 62  1  0
 62 63  2  0
 46 64  1  0
 64 65  1  0
 45 66  1  0
 66 67  2  0
 67 68  1  0
 68 69  1  0
 69 70  1  0
 70 71  1  0
 69 72  1  0
 72 73  1  0
 69 74  1  0
 74 75  2  0
 75 76  1  0
 76 77  1  0
 77 78  2  0
 75 79  1  0
 79 80  2  0
 80 81  1  0
 81 82  2  0
 81 83  1  0
 83 84  2  0
 84 85  1  0
 85 86  2  0
 86 87  1  0
 87 88  2  0
 88 89  1  0
 89 90  2  0
 90 91  1  0
 91 92  1  0
 92 93  1  0
 90 94  1  0
 94 95  1  0
 94 96  2  0
 86 97  1  0
 97 98  2  0
 98 99  1  0
 99100  1  0
100101  2  0
101102  1  0
102103  2  0
103104  1  0
104105  1  0
105106  1  0
103107  1  0
107108  2  0
107109  1  0
 99110  2  0
110111  1  0
 98112  1  0
112113  2  0
113114  1  0
113115  1  0
115116  2  3
116117  1  0
117118  2  0
117119  1  0
119120  2  0
120121  1  0
121122  2  0
122123  1  0
123124  2  0
124125  1  0
125126  2  3
126127  1  0
127128  3  0
126129  1  0
129130  3  0
122131  1  0
131132  1  0
132133  1  0
133134  2  0
134135  1  0
135136  1  0
135137  1  0
 11  2  1  0
 23 17  1  0
 65 24  1  0
 78 66  1  0
111 83  1  0
125116  1  0
137131  1  0
 10  5  1  0
 22 18  1  0
 34 27  1  0
 42 35  1  0
 64 43  2  0
 76 68  2  0
110 85  1  0
124119  1  0
136132  1  0
 23  7  1  0
 55 48  1  0
 63 56  1  0
 82 74  1  0
 96 87  1  0
114 97  1  0
137121  1  0
108100  1  0
  1138  1  0
  6139  1  0
  9140  1  0
 17141  1  0
 18142  1  0
 19143  1  0
 20144  1  0
 21145  1  0
 22146  1  0
 22147  1  0
 23148  1  0
 28149  1  0
 29150  1  0
 32151  1  0
 32152  1  0
 32153  1  0
 33154  1  0
 34155  1  0
 36156  1  0
 37157  1  0
 40158  1  0
 40159  1  0
 40160  1  0
 41161  1  0
 42162  1  0
 49163  1  0
 50164  1  0
 53165  1  0
 53166  1  0
 53167  1  0
 54168  1  0
 55169  1  0
 57170  1  0
 58171  1  0
 61172  1  0
 61173  1  0
 61174  1  0
 62175  1  0
 63176  1  0
 67177  1  0
 70178  1  0
 70179  1  0
 71180  1  0
 71181  1  0
 71182  1  0
 72183  1  0
 72184  1  0
 73185  1  0
 73186  1  0
 73187  1  0
 77188  1  0
 78189  1  0
 79190  1  0
 80191  1  0
 82192  1  0
 84193  1  0
 88194  1  0
 89195  1  0
 92196  1  0
 92197  1  0
 93198  1  0
 93199  1  0
 93200  1  0
 96201  1  0
101202  1  0
102203  1  0
105204  1  0
105205  1  0
106206  1  0
106207  1  0
106208  1  0
108209  1  0
112210  1  0
115211  1  0
120212  1  0
123213  1  0
131214  1  0
132215  1  0
133216  1  0
134217  1  0
135218  1  0
136219  1  0
136220  1  0
137221  1  0
M  END

