
     RDKit          3D

233256  0  0  0  0  0  0  0  0999 V2000
    5.6471   -5.1314   -3.7406 C   0  0  0  0  0  0  0  0  0  0  0  0
    5.4833   -4.8877   -5.0550 C   0  0  0  0  0  0  0  0  0  0  0  0
    5.4810   -5.9466   -6.0628 C   0  0  0  0  0  0  0  0  0  0  0  0
    6.0654   -7.0578   -5.9693 O   0  0  0  0  0  0  0  0  0  0  0  0
    4.5697   -5.5590   -7.1316 C   0  0  0  0  0  0  0  0  0  0  0  0
    4.0905   -6.3588   -8.1984 C   0  0  0  0  0  0  0  0  0  0  0  0
    3.0839   -5.7598   -8.9415 C   0  0  0  0  0  0  0  0  0  0  0  0
    2.5619   -4.4617   -8.6436 C   0  0  0  0  0  0  0  0  0  0  0  0
    3.0293   -3.6696   -7.6120 C   0  0  0  0  0  0  0  0  0  0  0  0
    4.0784   -4.2573   -6.8545 C   0  0  0  0  0  0  0  0  0  0  0  0
    4.7596   -3.7305   -5.6503 C   0  0  0  0  0  0  0  0  0  0  0  0
    4.9750   -2.4272   -5.3521 C   0  0  0  0  0  0  0  0  0  0  0  0
    4.3454   -1.3541   -6.0765 C   0  0  0  0  0  0  0  0  0  0  0  0
    3.8482   -0.4814   -6.6521 N   0  0  0  0  0  0  0  0  0  0  0  0
    5.9756   -2.0310   -4.3934 C   0  0  0  0  0  0  0  0  0  0  0  0
    6.7846   -1.7003   -3.6338 N   0  0  0  0  0  0  0  0  0  0  0  0
    1.5793   -4.5750   -9.7654 C   0  0  0  0  0  0  0  0  0  0  0  0
    1.8886   -3.7335  -11.0381 C   0  0  0  0  0  0  0  0  0  0  0  0
    1.0157   -4.3004  -12.1302 C   0  0  0  0  0  0  0  0  0  0  0  0
    1.5123   -5.5111  -12.4213 C   0  0  0  0  0  0  0  0  0  0  0  0
    2.7023   -5.7147  -11.5167 C   0  0  0  0  0  0  0  0  0  0  0  0
    3.2259   -4.2879  -11.4964 C   0  0  0  0  0  0  0  0  0  0  0  0
    2.1205   -5.8991  -10.0839 C   0  0  0  0  0  0  0  0  0  0  0  0
    4.8262   -4.4311   -2.7361 C   0  0  0  0  0  0  0  0  0  0  0  0
    3.4281   -4.2842   -2.8030 C   0  0  0  0  0  0  0  0  0  0  0  0
    2.5481   -5.1166   -3.5945 N   0  0  0  0  0  0  0  0  0  0  0  0
    1.3051   -4.5762   -4.0950 C   0  0  0  0  0  0  0  0  0  0  0  0
    0.0965   -5.2753   -3.9092 C   0  0  0  0  0  0  0  0  0  0  0  0
   -1.1142   -4.7241   -4.3345 C   0  0  0  0  0  0  0  0  0  0  0  0
   -1.1330   -3.4723   -4.9587 C   0  0  0  0  0  0  0  0  0  0  0  0
   -2.6831   -2.7682   -5.5136 S   0  0  0  0  0  0  0  0  0  0  0  0
   -2.6077   -3.5978   -7.1319 C   0  0  0  0  0  0  0  0  0  0  0  0
    0.0589   -2.7646   -5.1374 C   0  0  0  0  0  0  0  0  0  0  0  0
    1.2690   -3.3087   -4.6993 C   0  0  0  0  0  0  0  0  0  0  0  0
    2.7879   -6.5418   -3.6599 C   0  0  0  0  0  0  0  0  0  0  0  0
    3.2774   -7.2397   -2.5386 C   0  0  0  0  0  0  0  0  0  0  0  0
    3.4938   -8.6169   -2.6005 C   0  0  0  0  0  0  0  0  0  0  0  0
    3.2022   -9.3201   -3.7734 C   0  0  0  0  0  0  0  0  0  0  0  0
    3.4575  -11.0925   -3.8418 S   0  0  0  0  0  0  0  0  0  0  0  0
    1.7993  -11.4752   -3.1948 C   0  0  0  0  0  0  0  0  0  0  0  0
    2.7081   -8.6393   -4.8901 C   0  0  0  0  0  0  0  0  0  0  0  0
    2.5006   -7.2582   -4.8344 C   0  0  0  0  0  0  0  0  0  0  0  0
    2.9837   -3.4042   -1.8254 C   0  0  0  0  0  0  0  0  0  0  0  0
    1.4938   -2.8356   -1.3789 S   0  0  0  0  0  0  0  0  0  0  0  0
    2.0527   -1.9028   -0.0653 C   0  0  0  0  0  0  0  0  0  0  0  0
    3.4538   -2.1117    0.0613 C   0  0  0  0  0  0  0  0  0  0  0  0
    4.1693   -2.0707    1.3042 N   0  0  0  0  0  0  0  0  0  0  0  0
    5.2885   -1.1568    1.4689 C   0  0  0  0  0  0  0  0  0  0  0  0
    5.6816   -0.2846    0.4269 C   0  0  0  0  0  0  0  0  0  0  0  0
    6.7700    0.5783    0.5913 C   0  0  0  0  0  0  0  0  0  0  0  0
    7.4987    0.5735    1.7832 C   0  0  0  0  0  0  0  0  0  0  0  0
    8.9372    1.6289    1.9600 S   0  0  0  0  0  0  0  0  0  0  0  0
   10.0879    0.3661    1.3353 C   0  0  0  0  0  0  0  0  0  0  0  0
    7.1138   -0.2681    2.8298 C   0  0  0  0  0  0  0  0  0  0  0  0
    6.0245   -1.1292    2.6718 C   0  0  0  0  0  0  0  0  0  0  0  0
    4.1098   -3.3186    2.0356 C   0  0  0  0  0  0  0  0  0  0  0  0
    5.2515   -4.1369    2.1447 C   0  0  0  0  0  0  0  0  0  0  0  0
    5.1425   -5.4562    2.5953 C   0  0  0  0  0  0  0  0  0  0  0  0
    3.8892   -5.9846    2.9216 C   0  0  0  0  0  0  0  0  0  0  0  0
    3.7173   -7.7255    3.2954 S   0  0  0  0  0  0  0  0  0  0  0  0
    3.4982   -8.1841    1.5424 C   0  0  0  0  0  0  0  0  0  0  0  0
    2.7555   -5.1730    2.8588 C   0  0  0  0  0  0  0  0  0  0  0  0
    2.8627   -3.8602    2.3996 C   0  0  0  0  0  0  0  0  0  0  0  0
    3.9219   -2.9280   -0.9777 C   0  0  0  0  0  0  0  0  0  0  0  0
    5.4214   -3.5772   -1.3844 S   0  0  0  0  0  0  0  0  0  0  0  0
    1.1599   -0.8607    0.5062 C   0  0  0  0  0  0  0  0  0  0  0  0
    1.2357   -0.0293    1.6590 C   0  0  0  0  0  0  0  0  0  0  0  0
    2.2057   -0.0908    2.7207 N   0  0  0  0  0  0  0  0  0  0  0  0
    2.9849    1.1162    2.9247 C   0  0  0  0  0  0  0  0  0  0  0  0
    3.0723    1.7239    4.1931 C   0  0  0  0  0  0  0  0  0  0  0  0
    3.7765    2.9169    4.3644 C   0  0  0  0  0  0  0  0  0  0  0  0
    4.4065    3.5211    3.2748 C   0  0  0  0  0  0  0  0  0  0  0  0
    5.2923    5.0635    3.5027 S   0  0  0  0  0  0  0  0  0  0  0  0
    6.8887    4.2473    3.8036 C   0  0  0  0  0  0  0  0  0  0  0  0
    4.2952    2.9530    2.0028 C   0  0  0  0  0  0  0  0  0  0  0  0
    3.5880    1.7584    1.8280 C   0  0  0  0  0  0  0  0  0  0  0  0
    2.0139   -1.0366    3.8084 C   0  0  0  0  0  0  0  0  0  0  0  0
    0.7657   -1.6580    4.0297 C   0  0  0  0  0  0  0  0  0  0  0  0
    0.5719   -2.4959    5.1351 C   0  0  0  0  0  0  0  0  0  0  0  0
    1.6213   -2.7335    6.0283 C   0  0  0  0  0  0  0  0  0  0  0  0
    1.3394   -3.6914    7.5187 S   0  0  0  0  0  0  0  0  0  0  0  0
    1.8704   -5.2643    6.7770 C   0  0  0  0  0  0  0  0  0  0  0  0
    2.8682   -2.1510    5.8046 C   0  0  0  0  0  0  0  0  0  0  0  0
    3.0658   -1.3173    4.7006 C   0  0  0  0  0  0  0  0  0  0  0  0
    0.1522    0.8561    1.7112 C   0  0  0  0  0  0  0  0  0  0  0  0
   -0.4270    1.9439    2.8494 S   0  0  0  0  0  0  0  0  0  0  0  0
   -1.8523    2.3036    1.9763 C   0  0  0  0  0  0  0  0  0  0  0  0
   -1.8549    1.5771    0.7782 C   0  0  0  0  0  0  0  0  0  0  0  0
   -2.9134    1.5796   -0.1968 N   0  0  0  0  0  0  0  0  0  0  0  0
   -2.5777    1.6387   -1.6039 C   0  0  0  0  0  0  0  0  0  0  0  0
   -3.1901    0.7693   -2.5283 C   0  0  0  0  0  0  0  0  0  0  0  0
   -2.7748    0.7441   -3.8619 C   0  0  0  0  0  0  0  0  0  0  0  0
   -1.7502    1.5903   -4.2946 C   0  0  0  0  0  0  0  0  0  0  0  0
   -1.1558    1.4879   -5.9831 S   0  0  0  0  0  0  0  0  0  0  0  0
   -2.3309    2.7304   -6.6073 C   0  0  0  0  0  0  0  0  0  0  0  0
   -1.1521    2.4763   -3.3937 C   0  0  0  0  0  0  0  0  0  0  0  0
   -1.5638    2.5048   -2.0569 C   0  0  0  0  0  0  0  0  0  0  0  0
   -4.2230    1.1417    0.2029 C   0  0  0  0  0  0  0  0  0  0  0  0
   -5.3529    1.9076   -0.1216 C   0  0  0  0  0  0  0  0  0  0  0  0
   -6.6354    1.3766    0.0578 C   0  0  0  0  0  0  0  0  0  0  0  0
   -6.7936    0.0723    0.5416 C   0  0  0  0  0  0  0  0  0  0  0  0
   -8.4135   -0.7040    0.5435 S   0  0  0  0  0  0  0  0  0  0  0  0
   -8.7837   -0.2692    2.2671 C   0  0  0  0  0  0  0  0  0  0  0  0
   -5.6691   -0.6709    0.9203 C   0  0  0  0  0  0  0  0  0  0  0  0
   -4.3887   -0.1352    0.7604 C   0  0  0  0  0  0  0  0  0  0  0  0
   -0.7245    0.7774    0.6866 C   0  0  0  0  0  0  0  0  0  0  0  0
   -0.2494   -0.4164   -0.3551 S   0  0  0  0  0  0  0  0  0  0  0  0
   -2.9126    3.2287    2.4098 C   0  0  0  0  0  0  0  0  0  0  0  0
   -3.6538    2.9809    3.5838 C   0  0  0  0  0  0  0  0  0  0  0  0
   -3.3459    1.8719    4.3831 O   0  0  0  0  0  0  0  0  0  0  0  0
   -2.4512    1.9653    5.4900 C   0  0  0  0  0  0  0  0  0  0  0  0
   -3.2104    1.9041    6.8066 C   0  0  0  0  0  0  0  0  0  0  0  0
   -4.7350    3.8112    3.9433 C   0  0  0  0  0  0  0  0  0  0  0  0
   -5.4477    3.4640    5.1031 O   0  0  0  0  0  0  0  0  0  0  0  0
   -6.8638    3.3231    5.2064 C   0  0  0  0  0  0  0  0  0  0  0  0
   -7.4377    2.5311    4.0375 C   0  0  0  0  0  0  0  0  0  0  0  0
   -5.0313    4.9675    3.1732 C   0  0  0  0  0  0  0  0  0  0  0  0
   -4.3006    5.2047    1.9990 C   0  0  0  0  0  0  0  0  0  0  0  0
   -3.2427    4.3355    1.6177 C   0  0  0  0  0  0  0  0  0  0  0  0
   -2.5836    4.6446    0.4705 N   0  0  0  0  0  0  0  0  0  0  0  0
   -3.4035    6.0012    0.0074 S   0  0  0  0  0  0  0  0  0  0  0  0
   -4.5530    6.2504    1.1662 N   0  0  0  0  0  0  0  0  0  0  0  0
   -6.0805    5.9193    3.5857 C   0  0  0  0  0  0  0  0  0  0  0  0
   -5.8797    7.2277    3.8282 C   0  0  0  0  0  0  0  0  0  0  0  0
   -6.9734    8.1925    3.8269 C   0  0  0  0  0  0  0  0  0  0  0  0
   -8.2001    7.9175    3.9353 O   0  0  0  0  0  0  0  0  0  0  0  0
   -6.4259    9.5179    3.6631 C   0  0  0  0  0  0  0  0  0  0  0  0
   -7.1430   10.7356    3.6686 C   0  0  0  0  0  0  0  0  0  0  0  0
   -6.3390   11.8575    3.6101 C   0  0  0  0  0  0  0  0  0  0  0  0
   -4.9123   11.7926    3.5214 C   0  0  0  0  0  0  0  0  0  0  0  0
   -4.2029   10.6041    3.4944 C   0  0  0  0  0  0  0  0  0  0  0  0
   -5.0090    9.4320    3.5884 C   0  0  0  0  0  0  0  0  0  0  0  0
   -4.6030    8.0108    3.7959 C   0  0  0  0  0  0  0  0  0  0  0  0
   -3.3967    7.5939    4.2449 C   0  0  0  0  0  0  0  0  0  0  0  0
   -3.2695    6.4564    5.1205 C   0  0  0  0  0  0  0  0  0  0  0  0
   -3.1598    5.5667    5.8504 N   0  0  0  0  0  0  0  0  0  0  0  0
   -2.1830    8.3390    4.0304 C   0  0  0  0  0  0  0  0  0  0  0  0
   -1.1964    8.9199    3.8636 N   0  0  0  0  0  0  0  0  0  0  0  0
   -4.8263   13.2909    3.5771 C   0  0  0  0  0  0  0  0  0  0  0  0
   -4.3462   13.9374    4.9141 C   0  0  0  0  0  0  0  0  0  0  0  0
   -4.7337   13.0560    6.0810 C   0  0  0  0  0  0  0  0  0  0  0  0
   -6.0627   13.1057    6.1697 C   0  0  0  0  0  0  0  0  0  0  0  0
   -6.5365   14.0206    5.0612 C   0  0  0  0  0  0  0  0  0  0  0  0
   -5.3973   15.0223    5.0764 C   0  0  0  0  0  0  0  0  0  0  0  0
   -6.2872   13.3541    3.6740 C   0  0  0  0  0  0  0  0  0  0  0  0
    6.1561   -6.0313   -3.4205 H   0  0  0  0  0  0  0  0  0  0  0  0
    4.4454   -7.3617   -8.3932 H   0  0  0  0  0  0  0  0  0  0  0  0
    2.5818   -2.7135   -7.3944 H   0  0  0  0  0  0  0  0  0  0  0  0
    0.5168   -4.5738   -9.4328 H   0  0  0  0  0  0  0  0  0  0  0  0
    1.8353   -2.6309  -10.9125 H   0  0  0  0  0  0  0  0  0  0  0  0
    0.2075   -3.8000  -12.6529 H   0  0  0  0  0  0  0  0  0  0  0  0
    1.1692   -6.1647  -13.2164 H   0  0  0  0  0  0  0  0  0  0  0  0
    3.4210   -6.4924  -11.8486 H   0  0  0  0  0  0  0  0  0  0  0  0
    4.0594   -4.1192  -10.7793 H   0  0  0  0  0  0  0  0  0  0  0  0
    3.5396   -3.9138  -12.5007 H   0  0  0  0  0  0  0  0  0  0  0  0
    1.4002   -6.7362   -9.9591 H   0  0  0  0  0  0  0  0  0  0  0  0
    0.0897   -6.2400   -3.4185 H   0  0  0  0  0  0  0  0  0  0  0  0
   -2.0361   -5.2700   -4.1755 H   0  0  0  0  0  0  0  0  0  0  0  0
   -1.7033   -3.2721   -7.6879 H   0  0  0  0  0  0  0  0  0  0  0  0
   -2.5893   -4.7003   -6.9952 H   0  0  0  0  0  0  0  0  0  0  0  0
   -3.5096   -3.3253   -7.7169 H   0  0  0  0  0  0  0  0  0  0  0  0
    0.0504   -1.7882   -5.6059 H   0  0  0  0  0  0  0  0  0  0  0  0
    2.1739   -2.7347   -4.8138 H   0  0  0  0  0  0  0  0  0  0  0  0
    3.4839   -6.7190   -1.6127 H   0  0  0  0  0  0  0  0  0  0  0  0
    3.8738   -9.1393   -1.7294 H   0  0  0  0  0  0  0  0  0  0  0  0
    1.6643  -12.5757   -3.1687 H   0  0  0  0  0  0  0  0  0  0  0  0
    1.6915  -11.0737   -2.1643 H   0  0  0  0  0  0  0  0  0  0  0  0
    1.0215  -11.0340   -3.8541 H   0  0  0  0  0  0  0  0  0  0  0  0
    2.4791   -9.1804   -5.8001 H   0  0  0  0  0  0  0  0  0  0  0  0
    2.1181   -6.7459   -5.7075 H   0  0  0  0  0  0  0  0  0  0  0  0
    5.1438   -0.2566   -0.5111 H   0  0  0  0  0  0  0  0  0  0  0  0
    7.0551    1.2368   -0.2177 H   0  0  0  0  0  0  0  0  0  0  0  0
    9.7943    0.0564    0.3100 H   0  0  0  0  0  0  0  0  0  0  0  0
   10.0847   -0.5153    2.0115 H   0  0  0  0  0  0  0  0  0  0  0  0
   11.1114    0.7931    1.3015 H   0  0  0  0  0  0  0  0  0  0  0  0
    7.6742   -0.2775    3.7543 H   0  0  0  0  0  0  0  0  0  0  0  0
    5.7767   -1.7867    3.4922 H   0  0  0  0  0  0  0  0  0  0  0  0
    6.2176   -3.7768    1.8127 H   0  0  0  0  0  0  0  0  0  0  0  0
    6.0230   -6.0852    2.6251 H   0  0  0  0  0  0  0  0  0  0  0  0
    3.3331   -9.2793    1.4679 H   0  0  0  0  0  0  0  0  0  0  0  0
    2.6174   -7.6569    1.1141 H   0  0  0  0  0  0  0  0  0  0  0  0
    4.4086   -7.9186    0.9610 H   0  0  0  0  0  0  0  0  0  0  0  0
    1.7788   -5.5760    3.1003 H   0  0  0  0  0  0  0  0  0  0  0  0
    1.9570   -3.2900    2.2683 H   0  0  0  0  0  0  0  0  0  0  0  0
    2.5575    1.3063    5.0487 H   0  0  0  0  0  0  0  0  0  0  0  0
    3.8284    3.3735    5.3444 H   0  0  0  0  0  0  0  0  0  0  0  0
    7.6563    5.0150    4.0355 H   0  0  0  0  0  0  0  0  0  0  0  0
    6.8095    3.5416    4.6579 H   0  0  0  0  0  0  0  0  0  0  0  0
    7.1959    3.6969    2.8929 H   0  0  0  0  0  0  0  0  0  0  0  0
    4.7714    3.4246    1.1494 H   0  0  0  0  0  0  0  0  0  0  0  0
    3.4936    1.3459    0.8315 H   0  0  0  0  0  0  0  0  0  0  0  0
   -0.0730   -1.4792    3.3721 H   0  0  0  0  0  0  0  0  0  0  0  0
   -0.4033   -2.9372    5.3057 H   0  0  0  0  0  0  0  0  0  0  0  0
    1.2246   -5.5151    5.9097 H   0  0  0  0  0  0  0  0  0  0  0  0
    2.9298   -5.1940    6.4513 H   0  0  0  0  0  0  0  0  0  0  0  0
    1.7787   -6.0653    7.5413 H   0  0  0  0  0  0  0  0  0  0  0  0
    3.6818   -2.3240    6.4958 H   0  0  0  0  0  0  0  0  0  0  0  0
    4.0294   -0.8488    4.5760 H   0  0  0  0  0  0  0  0  0  0  0  0
   -3.9542    0.0726   -2.2095 H   0  0  0  0  0  0  0  0  0  0  0  0
   -3.2388    0.0554   -4.5556 H   0  0  0  0  0  0  0  0  0  0  0  0
   -2.2067    3.6850   -6.0551 H   0  0  0  0  0  0  0  0  0  0  0  0
   -2.1307    2.9104   -7.6853 H   0  0  0  0  0  0  0  0  0  0  0  0
   -3.3715    2.3590   -6.4910 H   0  0  0  0  0  0  0  0  0  0  0  0
   -0.3569    3.1351   -3.7222 H   0  0  0  0  0  0  0  0  0  0  0  0
   -1.0755    3.1805   -1.3690 H   0  0  0  0  0  0  0  0  0  0  0  0
   -5.2331    2.8943   -0.5485 H   0  0  0  0  0  0  0  0  0  0  0  0
   -7.4998    1.9575   -0.2397 H   0  0  0  0  0  0  0  0  0  0  0  0
   -7.9548   -0.5862    2.9352 H   0  0  0  0  0  0  0  0  0  0  0  0
   -8.9413    0.8255    2.3431 H   0  0  0  0  0  0  0  0  0  0  0  0
   -9.7134   -0.7884    2.5769 H   0  0  0  0  0  0  0  0  0  0  0  0
   -5.7840   -1.6814    1.2901 H   0  0  0  0  0  0  0  0  0  0  0  0
   -3.5260   -0.7451    0.9959 H   0  0  0  0  0  0  0  0  0  0  0  0
   -1.8591    2.9057    5.4431 H   0  0  0  0  0  0  0  0  0  0  0  0
   -1.7455    1.1110    5.4433 H   0  0  0  0  0  0  0  0  0  0  0  0
   -3.8799    1.0177    6.8203 H   0  0  0  0  0  0  0  0  0  0  0  0
   -3.8105    2.8253    6.9512 H   0  0  0  0  0  0  0  0  0  0  0  0
   -2.4886    1.8229    7.6462 H   0  0  0  0  0  0  0  0  0  0  0  0
   -7.0805    2.7685    6.1434 H   0  0  0  0  0  0  0  0  0  0  0  0
   -7.3562    4.3075    5.3074 H   0  0  0  0  0  0  0  0  0  0  0  0
   -8.5196    2.3515    4.2092 H   0  0  0  0  0  0  0  0  0  0  0  0
   -6.9119    1.5559    3.9495 H   0  0  0  0  0  0  0  0  0  0  0  0
   -7.3203    3.0925    3.0867 H   0  0  0  0  0  0  0  0  0  0  0  0
   -7.1017    5.5695    3.5196 H   0  0  0  0  0  0  0  0  0  0  0  0
   -8.2189   10.7927    3.7733 H   0  0  0  0  0  0  0  0  0  0  0  0
   -3.1266   10.6149    3.4486 H   0  0  0  0  0  0  0  0  0  0  0  0
   -4.4198   13.7573    2.6540 H   0  0  0  0  0  0  0  0  0  0  0  0
   -3.2917   14.2902    4.9161 H   0  0  0  0  0  0  0  0  0  0  0  0
   -4.0663   12.5381    6.7627 H   0  0  0  0  0  0  0  0  0  0  0  0
   -6.6668   12.6277    6.9320 H   0  0  0  0  0  0  0  0  0  0  0  0
   -7.5502   14.4452    5.2104 H   0  0  0  0  0  0  0  0  0  0  0  0
   -5.3109   15.5827    6.0398 H   0  0  0  0  0  0  0  0  0  0  0  0
   -5.4318   15.7445    4.2270 H   0  0  0  0  0  0  0  0  0  0  0  0
   -6.7742   13.8618    2.8116 H   0  0  0  0  0  0  0  0  0  0  0  0
  1  2  2  3
  2  3  1  0
  3  4  2  0
  3  5  1  0
  5  6  2  0
  6  7  1  0
  7  8  2  0
  8  9  1  0
  9 10  2  0
 10 11  1  0
 11 12  2  3
 12 13  1  0
 13 14  3  0
 12 15  1  0
 15 16  3  0
  8 17  1  0
 17 18  1  0
 18 19  1  0
 19 20  2  0
 20 21  1  0
 21 22  1  0
 21 23  1  0
  1 24  1  0
 24 25  2  0
 25 26  1  0
 26 27  1  0
 27 28  2  0
 28 29  1  0
 29 30  2  0
 30 31  1  0
 31 32  1  0
 30 33  1  0
 33 34  2  0
 26 35  1  0
 35 36  2  0
 36 37  1  0
 37 38  2  0
 38 39  1  0
 39 40  1  0
 38 41  1  0
 41 42  2  0
 25 43  1  0
 43 44  1  0
 44 45  1  0
 45 46  2  0
 46 47  1  0
 47 48  1  0
 48 49  2  0
 49 50  1  0
 50 51  2  0
 51 52  1  0
 52 53  1  0
 51 54  1  0
 54 55  2  0
 47 56  1  0
 56 57  2  0
 57 58  1  0
 58 59  2  0
 59 60  1  0
 60 61  1  0
 59 62  1  0
 62 63  2  0
 46 64  1  0
 64 65  1  0
 45 66  1  0
 66 67  2  0
 67 68  1  0
 68 69  1  0
 69 70  2  0
 70 71  1  0
 71 72  2  0
 72 73  1  0
 73 74  1  0
 72 75  1  0
 75 76  2  0
 68 77  1  0
 77 78  2  0
 78 79  1  0
 79 80  2  0
 80 81  1  0
 81 82  1  0
 80 83  1  0
 83 84  2  0
 67 85  1  0
 85 86  1  0
 86 87  1  0
 87 88  2  0
 88 89  1  0
 89 90  1  0
 90 91  2  0
 91 92  1  0
 92 93  2  0
 93 94  1  0
 94 95  1  0
 93 96  1  0
 96 97  2  0
 89 98  1  0
 98 99  2  0
 99100  1  0
100101  2  0
101102  1  0
102103  1  0
101104  1  0
104105  2  0
 88106  1  0
106107  1  0
 87108  1  0
108109  2  0
109110  1  0
110111  1  0
111112  1  0
109113  1  0
113114  1  0
114115  1  0
115116  1  0
113117  2  0
117118  1  0
118119  1  0
119120  2  0
120121  1  0
121122  1  0
117123  1  0
123124  2  3
124125  1  0
125126  2  0
125127  1  0
127128  2  0
128129  1  0
129130  2  0
130131  1  0
131132  2  0
132133  1  0
133134  2  3
134135  1  0
135136  3  0
134137  1  0
137138  3  0
130139  1  0
139140  1  0
140141  1  0
141142  2  0
142143  1  0
143144  1  0
143145  1  0
 11  2  1  0
 23 17  1  0
 65 24  1  0
107 66  1  0
119108  1  0
133124  1  0
145139  1  0
 10  5  1  0
 22 18  1  0
 34 27  1  0
 42 35  1  0
 64 43  2  0
 76 69  1  0
 84 77  1  0
106 85  2  0
122118  2  0
132127  1  0
144140  1  0
 23  7  1  0
 55 48  1  0
 63 56  1  0
 97 90  1  0
105 98  1  0
145129  1  0
  1146  1  0
  6147  1  0
  9148  1  0
 17149  1  0
 18150  1  0
 19151  1  0
 20152  1  0
 21153  1  0
 22154  1  0
 22155  1  0
 23156  1  0
 28157  1  0
 29158  1  0
 32159  1  0
 32160  1  0
 32161  1  0
 33162  1  0
 34163  1  0
 36164  1  0
 37165  1  0
 40166  1  0
 40167  1  0
 40168  1  0
 41169  1  0
 42170  1  0
 49171  1  0
 50172  1  0
 53173  1  0
 53174  1  0
 53175  1  0
 54176  1  0
 55177  1  0
 57178  1  0
 58179  1  0
 61180  1  0
 61181  1  0
 61182  1  0
 62183  1  0
 63184  1  0
 70185  1  0
 71186  1  0
 74187  1  0
 74188  1  0
 74189  1  0
 75190  1  0
 76191  1  0
 78192  1  0
 79193  1  0
 82194  1  0
 82195  1  0
 82196  1  0
 83197  1  0
 84198  1  0
 91199  1  0
 92200  1  0
 95201  1  0
 95202  1  0
 95203  1  0
 96204  1  0
 97205  1  0
 99206  1  0
100207  1  0
103208  1  0
103209  1  0
103210  1  0
104211  1  0
105212  1  0
111213  1  0
111214  1  0
112215  1  0
112216  1  0
112217  1  0
115218  1  0
115219  1  0
116220  1  0
116221  1  0
116222  1  0
123223  1  0
128224  1  0
131225  1  0
139226  1  0
140227  1  0
141228  1  0
142229  1  0
143230  1  0
144231  1  0
144232  1  0
145233  1  0
M  END

