
     RDKit          3D

142159  0  0  0  0  0  0  0  0999 V2000
    1.7874   -5.4014   -0.6725 C   0  0  0  0  0  0  0  0  0  0  0  0
    1.5302   -5.2960    0.6511 C   0  0  0  0  0  0  0  0  0  0  0  0
    0.4103   -4.5248    1.2183 C   0  0  0  0  0  0  0  0  0  0  0  0
   -0.6185   -4.1384    0.6066 O   0  0  0  0  0  0  0  0  0  0  0  0
    0.6518   -4.3026    2.6200 C   0  0  0  0  0  0  0  0  0  0  0  0
   -0.1389   -3.5246    3.4968 C   0  0  0  0  0  0  0  0  0  0  0  0
    0.3291   -3.4900    4.7939 C   0  0  0  0  0  0  0  0  0  0  0  0
    1.5011   -4.1932    5.2178 C   0  0  0  0  0  0  0  0  0  0  0  0
    2.2850   -4.9517    4.3607 C   0  0  0  0  0  0  0  0  0  0  0  0
    1.8378   -4.9805    3.0043 C   0  0  0  0  0  0  0  0  0  0  0  0
    2.4210   -5.6650    1.8033 C   0  0  0  0  0  0  0  0  0  0  0  0
    3.5183   -6.4726    1.7705 C   0  0  0  0  0  0  0  0  0  0  0  0
    3.9014   -7.2191    0.6039 C   0  0  0  0  0  0  0  0  0  0  0  0
    4.2272   -7.8358   -0.3226 N   0  0  0  0  0  0  0  0  0  0  0  0
    4.3890   -6.6574    2.9015 C   0  0  0  0  0  0  0  0  0  0  0  0
    5.1097   -6.8045    3.7982 N   0  0  0  0  0  0  0  0  0  0  0  0
    1.2977   -3.7143    6.6249 C   0  0  0  0  0  0  0  0  0  0  0  0
    0.7241   -4.7189    7.6704 C   0  0  0  0  0  0  0  0  0  0  0  0
   -0.1932   -5.7104    6.9885 C   0  0  0  0  0  0  0  0  0  0  0  0
   -1.2702   -5.0268    6.5969 C   0  0  0  0  0  0  0  0  0  0  0  0
   -1.0463   -3.5935    7.0198 C   0  0  0  0  0  0  0  0  0  0  0  0
   -0.3208   -3.8381    8.3296 C   0  0  0  0  0  0  0  0  0  0  0  0
    0.1115   -2.9722    6.1848 C   0  0  0  0  0  0  0  0  0  0  0  0
    0.9370   -4.7241   -1.6664 C   0  0  0  0  0  0  0  0  0  0  0  0
   -0.2252   -5.3279   -2.1790 C   0  0  0  0  0  0  0  0  0  0  0  0
   -0.5712   -6.6815   -2.0597 C   0  0  0  0  0  0  0  0  0  0  0  0
   -1.8332   -6.9571   -2.5818 C   0  0  0  0  0  0  0  0  0  0  0  0
   -2.4806   -8.3054   -2.6283 C   0  0  0  0  0  0  0  0  0  0  0  0
   -2.1844   -8.9989   -3.9528 C   0  0  0  0  0  0  0  0  0  0  0  0
   -2.5202   -5.5395   -3.1838 S   0  0  0  0  0  0  0  0  0  0  0  0
   -1.2179   -4.5512   -2.7891 C   0  0  0  0  0  0  0  0  0  0  0  0
   -1.1213   -3.1515   -2.9035 C   0  0  0  0  0  0  0  0  0  0  0  0
    0.0963   -2.5613   -2.4688 C   0  0  0  0  0  0  0  0  0  0  0  0
    1.0944   -3.3482   -1.8891 C   0  0  0  0  0  0  0  0  0  0  0  0
    2.3554   -2.3656   -1.3579 S   0  0  0  0  0  0  0  0  0  0  0  0
    1.6645   -0.9167   -1.8803 C   0  0  0  0  0  0  0  0  0  0  0  0
    2.2425    0.4655   -1.7410 C   0  0  0  0  0  0  0  0  0  0  0  0
    3.6958    0.4625   -1.2732 C   0  0  0  0  0  0  0  0  0  0  0  0
    0.4152   -1.1859   -2.4305 C   0  0  0  0  0  0  0  0  0  0  0  0
   -2.3274   -2.3183   -3.1226 C   0  0  0  0  0  0  0  0  0  0  0  0
   -2.2986   -1.2453   -4.0185 C   0  0  0  0  0  0  0  0  0  0  0  0
   -1.4406   -1.0469   -5.0331 N   0  0  0  0  0  0  0  0  0  0  0  0
   -1.5414    0.2467   -5.3240 N   0  0  0  0  0  0  0  0  0  0  0  0
   -0.7900    0.8958   -6.3890 C   0  0  0  0  0  0  0  0  0  0  0  0
   -1.6477    0.9907   -7.6442 C   0  0  0  0  0  0  0  0  0  0  0  0
   -2.3785    0.8958   -4.5199 N   0  0  0  0  0  0  0  0  0  0  0  0
   -2.8842   -0.0481   -3.7074 C   0  0  0  0  0  0  0  0  0  0  0  0
   -3.5823    0.1351   -2.5079 C   0  0  0  0  0  0  0  0  0  0  0  0
   -3.9403   -1.0342   -1.8014 C   0  0  0  0  0  0  0  0  0  0  0  0
   -3.2883   -2.2515   -2.0848 C   0  0  0  0  0  0  0  0  0  0  0  0
   -3.4031   -3.2662   -1.1904 F   0  0  0  0  0  0  0  0  0  0  0  0
   -4.6904   -0.9363   -0.6734 F   0  0  0  0  0  0  0  0  0  0  0  0
   -3.3990    1.4024   -1.7636 C   0  0  0  0  0  0  0  0  0  0  0  0
   -3.8286    2.6493   -2.2610 C   0  0  0  0  0  0  0  0  0  0  0  0
   -4.6640    2.8591   -3.3691 C   0  0  0  0  0  0  0  0  0  0  0  0
   -4.8619    4.2110   -3.6442 C   0  0  0  0  0  0  0  0  0  0  0  0
   -5.7483    4.7554   -4.7207 C   0  0  0  0  0  0  0  0  0  0  0  0
   -7.1818    4.8823   -4.2202 C   0  0  0  0  0  0  0  0  0  0  0  0
   -4.0239    5.1484   -2.5154 S   0  0  0  0  0  0  0  0  0  0  0  0
   -3.3903    3.8408   -1.6672 C   0  0  0  0  0  0  0  0  0  0  0  0
   -2.5112    3.8624   -0.5734 C   0  0  0  0  0  0  0  0  0  0  0  0
   -2.1198    2.6199   -0.0400 C   0  0  0  0  0  0  0  0  0  0  0  0
   -2.5497    1.4318   -0.6337 C   0  0  0  0  0  0  0  0  0  0  0  0
   -1.8112    0.1407    0.1644 S   0  0  0  0  0  0  0  0  0  0  0  0
   -0.9785    1.0723    1.2902 C   0  0  0  0  0  0  0  0  0  0  0  0
   -0.1092    0.5218    2.3804 C   0  0  0  0  0  0  0  0  0  0  0  0
    1.2062   -0.0100    1.8242 C   0  0  0  0  0  0  0  0  0  0  0  0
   -1.2371    2.4188    1.0418 C   0  0  0  0  0  0  0  0  0  0  0  0
   -1.9139    5.1179   -0.0869 C   0  0  0  0  0  0  0  0  0  0  0  0
   -0.6267    5.4350   -0.3351 C   0  0  0  0  0  0  0  0  0  0  0  0
    0.3010    4.6153   -1.1290 C   0  0  0  0  0  0  0  0  0  0  0  0
   -0.0145    3.7397   -1.9808 O   0  0  0  0  0  0  0  0  0  0  0  0
    1.6537    4.9633   -0.7633 C   0  0  0  0  0  0  0  0  0  0  0  0
    2.8346    4.3046   -1.1716 C   0  0  0  0  0  0  0  0  0  0  0  0
    3.9740    4.7555   -0.5347 C   0  0  0  0  0  0  0  0  0  0  0  0
    3.9594    5.7999    0.4449 C   0  0  0  0  0  0  0  0  0  0  0  0
    2.8057    6.4577    0.8392 C   0  0  0  0  0  0  0  0  0  0  0  0
    1.6214    6.0189    0.1834 C   0  0  0  0  0  0  0  0  0  0  0  0
    0.2039    6.4453    0.3863 C   0  0  0  0  0  0  0  0  0  0  0  0
   -0.2265    7.6067    0.9439 C   0  0  0  0  0  0  0  0  0  0  0  0
   -1.6026    8.0269    0.8800 C   0  0  0  0  0  0  0  0  0  0  0  0
   -2.7059    8.3705    0.8302 N   0  0  0  0  0  0  0  0  0  0  0  0
    0.6733    8.5635    1.5373 C   0  0  0  0  0  0  0  0  0  0  0  0
    1.3866    9.3389    2.0193 N   0  0  0  0  0  0  0  0  0  0  0  0
    5.4361    5.6432    0.6591 C   0  0  0  0  0  0  0  0  0  0  0  0
    5.9104    4.9256    1.9581 C   0  0  0  0  0  0  0  0  0  0  0  0
    4.8823    3.9072    2.3916 C   0  0  0  0  0  0  0  0  0  0  0  0
    4.8986    2.9360    1.4786 C   0  0  0  0  0  0  0  0  0  0  0  0
    5.9360    3.3274    0.4514 C   0  0  0  0  0  0  0  0  0  0  0  0
    6.9469    3.9846    1.3726 C   0  0  0  0  0  0  0  0  0  0  0  0
    5.4524    4.5762   -0.3481 C   0  0  0  0  0  0  0  0  0  0  0  0
    2.7055   -5.8131   -1.0407 H   0  0  0  0  0  0  0  0  0  0  0  0
   -1.0352   -3.0065    3.1853 H   0  0  0  0  0  0  0  0  0  0  0  0
    3.1495   -5.4637    4.7406 H   0  0  0  0  0  0  0  0  0  0  0  0
    2.1164   -3.0615    7.0022 H   0  0  0  0  0  0  0  0  0  0  0  0
    1.4739   -5.1697    8.3563 H   0  0  0  0  0  0  0  0  0  0  0  0
   -0.0553   -6.7815    6.8985 H   0  0  0  0  0  0  0  0  0  0  0  0
   -2.1611   -5.4459    6.1389 H   0  0  0  0  0  0  0  0  0  0  0  0
   -1.9645   -2.9749    7.0897 H   0  0  0  0  0  0  0  0  0  0  0  0
   -0.9434   -4.3769    9.0843 H   0  0  0  0  0  0  0  0  0  0  0  0
    0.0987   -2.9079    8.7871 H   0  0  0  0  0  0  0  0  0  0  0  0
    0.2164   -1.8687    6.2726 H   0  0  0  0  0  0  0  0  0  0  0  0
    0.0672   -7.4329   -1.6113 H   0  0  0  0  0  0  0  0  0  0  0  0
   -3.5786   -8.1888   -2.5108 H   0  0  0  0  0  0  0  0  0  0  0  0
   -2.1075   -8.9335   -1.7918 H   0  0  0  0  0  0  0  0  0  0  0  0
   -2.4947   -8.3588   -4.8062 H   0  0  0  0  0  0  0  0  0  0  0  0
   -2.7478   -9.9547   -4.0052 H   0  0  0  0  0  0  0  0  0  0  0  0
   -1.0983   -9.2246   -4.0368 H   0  0  0  0  0  0  0  0  0  0  0  0
    2.1872    0.9738   -2.7275 H   0  0  0  0  0  0  0  0  0  0  0  0
    1.6255    1.0500   -1.0257 H   0  0  0  0  0  0  0  0  0  0  0  0
    4.0836    1.5044   -1.2489 H   0  0  0  0  0  0  0  0  0  0  0  0
    4.3265   -0.1250   -1.9745 H   0  0  0  0  0  0  0  0  0  0  0  0
    3.7745    0.0345   -0.2494 H   0  0  0  0  0  0  0  0  0  0  0  0
   -0.2309   -0.3899   -2.7585 H   0  0  0  0  0  0  0  0  0  0  0  0
   -0.4857    1.9151   -6.0700 H   0  0  0  0  0  0  0  0  0  0  0  0
    0.1286    0.3094   -6.6150 H   0  0  0  0  0  0  0  0  0  0  0  0
   -1.9737   -0.0210   -7.9618 H   0  0  0  0  0  0  0  0  0  0  0  0
   -1.0620    1.4507   -8.4673 H   0  0  0  0  0  0  0  0  0  0  0  0
   -2.5453    1.6159   -7.4459 H   0  0  0  0  0  0  0  0  0  0  0  0
   -5.1127    2.0640   -3.9483 H   0  0  0  0  0  0  0  0  0  0  0  0
   -5.7225    4.0816   -5.6049 H   0  0  0  0  0  0  0  0  0  0  0  0
   -5.3782    5.7549   -5.0373 H   0  0  0  0  0  0  0  0  0  0  0  0
   -7.8278    5.2709   -5.0365 H   0  0  0  0  0  0  0  0  0  0  0  0
   -7.5699    3.8889   -3.9015 H   0  0  0  0  0  0  0  0  0  0  0  0
   -7.2308    5.5874   -3.3612 H   0  0  0  0  0  0  0  0  0  0  0  0
   -0.6503   -0.3049    2.8895 H   0  0  0  0  0  0  0  0  0  0  0  0
    0.1006    1.3102    3.1348 H   0  0  0  0  0  0  0  0  0  0  0  0
    1.7989    0.8213    1.3853 H   0  0  0  0  0  0  0  0  0  0  0  0
    1.7954   -0.4725    2.6428 H   0  0  0  0  0  0  0  0  0  0  0  0
    1.0176   -0.7844    1.0492 H   0  0  0  0  0  0  0  0  0  0  0  0
   -0.7958    3.2188    1.6207 H   0  0  0  0  0  0  0  0  0  0  0  0
   -2.5031    5.6798    0.6177 H   0  0  0  0  0  0  0  0  0  0  0  0
    2.8435    3.4950   -1.8882 H   0  0  0  0  0  0  0  0  0  0  0  0
    2.8350    7.1919    1.6251 H   0  0  0  0  0  0  0  0  0  0  0  0
    6.0346    6.5365    0.3691 H   0  0  0  0  0  0  0  0  0  0  0  0
    6.2762    5.5969    2.7634 H   0  0  0  0  0  0  0  0  0  0  0  0
    4.2930    3.9115    3.3035 H   0  0  0  0  0  0  0  0  0  0  0  0
    4.3286    2.0141    1.5198 H   0  0  0  0  0  0  0  0  0  0  0  0
    6.3242    2.4914   -0.1649 H   0  0  0  0  0  0  0  0  0  0  0  0
    7.7708    4.5083    0.8316 H   0  0  0  0  0  0  0  0  0  0  0  0
    7.3847    3.2843    2.1232 H   0  0  0  0  0  0  0  0  0  0  0  0
    6.0542    4.8199   -1.2502 H   0  0  0  0  0  0  0  0  0  0  0  0
  1  2  2  3
  2  3  1  0
  3  4  2  0
  3  5  1  0
  5  6  2  0
  6  7  1  0
  7  8  2  0
  8  9  1  0
  9 10  2  0
 10 11  1  0
 11 12  2  3
 12 13  1  0
 13 14  3  0
 12 15  1  0
 15 16  3  0
  8 17  1  0
 17 18  1  0
 18 19  1  0
 19 20  2  0
 20 21  1  0
 21 22  1  0
 21 23  1  0
  1 24  1  0
 24 25  2  0
 25 26  1  0
 26 27  2  0
 27 28  1  0
 28 29  1  0
 27 30  1  0
 30 31  1  0
 31 32  2  0
 32 33  1  0
 33 34  2  0
 34 35  1  0
 35 36  1  0
 36 37  1  0
 37 38  1  0
 36 39  2  0
 32 40  1  0
 40 41  1  0
 41 42  2  0
 42 43  1  0
 43 44  1  0
 44 45  1  0
 43 46  1  0
 46 47  2  0
 47 48  1  0
 48 49  2  0
 49 50  1  0
 50 51  1  0
 49 52  1  0
 48 53  1  0
 53 54  2  0
 54 55  1  0
 55 56  2  0
 56 57  1  0
 57 58  1  0
 56 59  1  0
 59 60  1  0
 60 61  2  0
 61 62  1  0
 62 63  2  0
 63 64  1  0
 64 65  1  0
 65 66  1  0
 66 67  1  0
 65 68  2  0
 61 69  1  0
 69 70  2  3
 70 71  1  0
 71 72  2  0
 71 73  1  0
 73 74  2  0
 74 75  1  0
 75 76  2  0
 76 77  1  0
 77 78  2  0
 78 79  1  0
 79 80  2  3
 80 81  1  0
 81 82  3  0
 80 83  1  0
 83 84  3  0
 76 85  1  0
 85 86  1  0
 86 87  1  0
 87 88  2  0
 88 89  1  0
 89 90  1  0
 89 91  1  0
 11  2  1  0
 23 17  1  0
 34 24  1  0
 50 40  2  0
 63 53  1  0
 79 70  1  0
 91 85  1  0
 10  5  1  0
 22 18  1  0
 31 25  1  0
 39 33  1  0
 47 41  1  0
 60 54  1  0
 68 62  1  0
 78 73  1  0
 90 86  1  0
 23  7  1  0
 91 75  1  0
  1 92  1  0
  6 93  1  0
  9 94  1  0
 17 95  1  0
 18 96  1  0
 19 97  1  0
 20 98  1  0
 21 99  1  0
 22100  1  0
 22101  1  0
 23102  1  0
 26103  1  0
 28104  1  0
 28105  1  0
 29106  1  0
 29107  1  0
 29108  1  0
 37109  1  0
 37110  1  0
 38111  1  0
 38112  1  0
 38113  1  0
 39114  1  0
 44115  1  0
 44116  1  0
 45117  1  0
 45118  1  0
 45119  1  0
 55120  1  0
 57121  1  0
 57122  1  0
 58123  1  0
 58124  1  0
 58125  1  0
 66126  1  0
 66127  1  0
 67128  1  0
 67129  1  0
 67130  1  0
 68131  1  0
 69132  1  0
 74133  1  0
 77134  1  0
 85135  1  0
 86136  1  0
 87137  1  0
 88138  1  0
 89139  1  0
 90140  1  0
 90141  1  0
 91142  1  0
M  END

