
     RDKit          3D

119131  0  0  0  0  0  0  0  0999 V2000
    0.8868   -3.3166   -3.8908 C   0  0  0  0  0  0  0  0  0  0  0  0
    2.0299   -2.6398   -3.6600 C   0  0  0  0  0  0  0  0  0  0  0  0
    2.6288   -2.4171   -2.3352 C   0  0  0  0  0  0  0  0  0  0  0  0
    2.0967   -2.6639   -1.2184 O   0  0  0  0  0  0  0  0  0  0  0  0
    3.9719   -1.9210   -2.5070 C   0  0  0  0  0  0  0  0  0  0  0  0
    4.9225   -1.6806   -1.4882 C   0  0  0  0  0  0  0  0  0  0  0  0
    6.1454   -1.2486   -1.9577 C   0  0  0  0  0  0  0  0  0  0  0  0
    6.4303   -1.0625   -3.3505 C   0  0  0  0  0  0  0  0  0  0  0  0
    5.5095   -1.3164   -4.3553 C   0  0  0  0  0  0  0  0  0  0  0  0
    4.2320   -1.7505   -3.8935 C   0  0  0  0  0  0  0  0  0  0  0  0
    3.0032   -2.1058   -4.6670 C   0  0  0  0  0  0  0  0  0  0  0  0
    2.7293   -1.7565   -5.9518 C   0  0  0  0  0  0  0  0  0  0  0  0
    3.6784   -1.0769   -6.7936 C   0  0  0  0  0  0  0  0  0  0  0  0
    4.4261   -0.5204   -7.4830 N   0  0  0  0  0  0  0  0  0  0  0  0
    1.4166   -1.8886   -6.5275 C   0  0  0  0  0  0  0  0  0  0  0  0
    0.3631   -1.9815   -6.9981 N   0  0  0  0  0  0  0  0  0  0  0  0
    7.8281   -0.6304   -3.0230 C   0  0  0  0  0  0  0  0  0  0  0  0
    8.9632   -1.6573   -3.3129 C   0  0  0  0  0  0  0  0  0  0  0  0
   10.1706   -1.1671   -2.5502 C   0  0  0  0  0  0  0  0  0  0  0  0
    9.9020   -1.3560   -1.2526 C   0  0  0  0  0  0  0  0  0  0  0  0
    8.5215   -1.9645   -1.1849 C   0  0  0  0  0  0  0  0  0  0  0  0
    8.5904   -2.8350   -2.4298 C   0  0  0  0  0  0  0  0  0  0  0  0
    7.5372   -0.8300   -1.5981 C   0  0  0  0  0  0  0  0  0  0  0  0
   -0.0880   -3.5751   -2.8167 C   0  0  0  0  0  0  0  0  0  0  0  0
    0.0916   -4.6475   -1.9254 C   0  0  0  0  0  0  0  0  0  0  0  0
    1.0829   -5.5513   -2.1346 F   0  0  0  0  0  0  0  0  0  0  0  0
   -0.6835   -4.7333   -0.7599 C   0  0  0  0  0  0  0  0  0  0  0  0
   -0.4328   -5.7196    0.1407 F   0  0  0  0  0  0  0  0  0  0  0  0
   -1.6669   -3.7661   -0.4918 C   0  0  0  0  0  0  0  0  0  0  0  0
   -1.9130   -2.7517   -1.4346 C   0  0  0  0  0  0  0  0  0  0  0  0
   -2.8600   -1.8052   -1.2014 N   0  0  0  0  0  0  0  0  0  0  0  0
   -3.0968   -0.7836   -2.0649 C   0  0  0  0  0  0  0  0  0  0  0  0
   -4.1977    0.1840   -1.7146 C   0  0  0  0  0  0  0  0  0  0  0  0
   -5.5419   -0.3020   -2.2525 C   0  0  0  0  0  0  0  0  0  0  0  0
   -2.3389   -0.7146   -3.2576 C   0  0  0  0  0  0  0  0  0  0  0  0
   -1.3650   -1.6421   -3.4678 N   0  0  0  0  0  0  0  0  0  0  0  0
   -1.1301   -2.6596   -2.5964 C   0  0  0  0  0  0  0  0  0  0  0  0
   -2.5203    0.3751   -4.2820 C   0  0  0  0  0  0  0  0  0  0  0  0
   -1.6007    1.5573   -3.9860 C   0  0  0  0  0  0  0  0  0  0  0  0
   -2.2942   -3.6675    0.8437 C   0  0  0  0  0  0  0  0  0  0  0  0
   -3.6843   -3.8222    0.9710 C   0  0  0  0  0  0  0  0  0  0  0  0
   -4.4093   -4.3486   -0.0513 F   0  0  0  0  0  0  0  0  0  0  0  0
   -4.3491   -3.3213    2.0968 C   0  0  0  0  0  0  0  0  0  0  0  0
   -5.7059   -3.3760    2.1443 F   0  0  0  0  0  0  0  0  0  0  0  0
   -3.6318   -2.6770    3.1187 C   0  0  0  0  0  0  0  0  0  0  0  0
   -2.2261   -2.6204    3.0449 C   0  0  0  0  0  0  0  0  0  0  0  0
   -1.5012   -1.9920    4.0084 N   0  0  0  0  0  0  0  0  0  0  0  0
   -0.1560   -1.8204    3.9132 C   0  0  0  0  0  0  0  0  0  0  0  0
    0.5550   -1.1399    5.0552 C   0  0  0  0  0  0  0  0  0  0  0  0
    1.0304   -2.1626    6.0812 C   0  0  0  0  0  0  0  0  0  0  0  0
    0.5126   -2.3097    2.7662 C   0  0  0  0  0  0  0  0  0  0  0  0
   -0.2183   -2.9203    1.7963 N   0  0  0  0  0  0  0  0  0  0  0  0
   -1.5604   -3.1074    1.9050 C   0  0  0  0  0  0  0  0  0  0  0  0
    1.9827   -2.1010    2.5154 C   0  0  0  0  0  0  0  0  0  0  0  0
    2.2209   -0.7886    1.7692 C   0  0  0  0  0  0  0  0  0  0  0  0
   -4.3514   -1.8118    4.0681 C   0  0  0  0  0  0  0  0  0  0  0  0
   -4.1900   -1.7678    5.4498 C   0  0  0  0  0  0  0  0  0  0  0  0
   -4.7143   -0.6614    6.0464 N   0  0  0  0  0  0  0  0  0  0  0  0
   -5.2653    0.1829    5.1482 C   0  0  0  0  0  0  0  0  0  0  0  0
   -5.1699   -0.4272    3.5861 S   0  0  0  0  0  0  0  0  0  0  0  0
   -5.7906    1.5105    5.4923 C   0  0  0  0  0  0  0  0  0  0  0  0
   -5.2780    2.6492    4.9858 C   0  0  0  0  0  0  0  0  0  0  0  0
   -4.1509    2.7434    4.0480 C   0  0  0  0  0  0  0  0  0  0  0  0
   -3.2489    1.8832    3.8696 O   0  0  0  0  0  0  0  0  0  0  0  0
   -4.1935    4.0414    3.4129 C   0  0  0  0  0  0  0  0  0  0  0  0
   -3.4055    4.5046    2.3603 C   0  0  0  0  0  0  0  0  0  0  0  0
   -3.6702    5.7800    1.8333 C   0  0  0  0  0  0  0  0  0  0  0  0
   -2.9019    6.2875    0.7749 C   0  0  0  0  0  0  0  0  0  0  0  0
   -3.1801    7.5509    0.2427 C   0  0  0  0  0  0  0  0  0  0  0  0
   -2.4301    8.0296   -0.7822 F   0  0  0  0  0  0  0  0  0  0  0  0
   -4.2329    8.3160    0.7608 C   0  0  0  0  0  0  0  0  0  0  0  0
   -4.5026    9.5371    0.2372 F   0  0  0  0  0  0  0  0  0  0  0  0
   -5.0115    7.8208    1.8126 C   0  0  0  0  0  0  0  0  0  0  0  0
   -4.7409    6.5570    2.3610 C   0  0  0  0  0  0  0  0  0  0  0  0
   -5.5240    6.0521    3.4212 C   0  0  0  0  0  0  0  0  0  0  0  0
   -5.2158    4.7923    3.9609 C   0  0  0  0  0  0  0  0  0  0  0  0
   -5.8600    4.0244    5.0675 C   0  0  0  0  0  0  0  0  0  0  0  0
   -6.6027    4.5349    6.0831 C   0  0  0  0  0  0  0  0  0  0  0  0
   -6.9439    3.7626    7.2481 C   0  0  0  0  0  0  0  0  0  0  0  0
   -7.2176    3.1536    8.1946 N   0  0  0  0  0  0  0  0  0  0  0  0
   -6.9672    5.9254    6.1491 C   0  0  0  0  0  0  0  0  0  0  0  0
   -7.2629    7.0429    6.2176 N   0  0  0  0  0  0  0  0  0  0  0  0
    0.5888   -3.5871   -4.8885 H   0  0  0  0  0  0  0  0  0  0  0  0
    4.7184   -1.8328   -0.4359 H   0  0  0  0  0  0  0  0  0  0  0  0
    5.7912   -1.2147   -5.3891 H   0  0  0  0  0  0  0  0  0  0  0  0
    8.0460    0.4261   -3.3037 H   0  0  0  0  0  0  0  0  0  0  0  0
    9.1400   -1.8914   -4.3824 H   0  0  0  0  0  0  0  0  0  0  0  0
   11.1184   -0.8395   -2.9611 H   0  0  0  0  0  0  0  0  0  0  0  0
   10.5931   -1.2024   -0.4298 H   0  0  0  0  0  0  0  0  0  0  0  0
    8.2805   -2.4933   -0.2376 H   0  0  0  0  0  0  0  0  0  0  0  0
    9.3853   -3.6189   -2.3817 H   0  0  0  0  0  0  0  0  0  0  0  0
    7.6284   -3.3256   -2.7001 H   0  0  0  0  0  0  0  0  0  0  0  0
    7.5794    0.0959   -0.9815 H   0  0  0  0  0  0  0  0  0  0  0  0
   -3.9832    1.2052   -2.0905 H   0  0  0  0  0  0  0  0  0  0  0  0
   -4.2684    0.2631   -0.6064 H   0  0  0  0  0  0  0  0  0  0  0  0
   -6.3556    0.3213   -1.8289 H   0  0  0  0  0  0  0  0  0  0  0  0
   -5.5727   -0.2171   -3.3567 H   0  0  0  0  0  0  0  0  0  0  0  0
   -5.7179   -1.3584   -1.9616 H   0  0  0  0  0  0  0  0  0  0  0  0
   -2.2751   -0.0242   -5.2903 H   0  0  0  0  0  0  0  0  0  0  0  0
   -3.5759    0.7190   -4.3244 H   0  0  0  0  0  0  0  0  0  0  0  0
   -0.5439    1.2633   -4.1554 H   0  0  0  0  0  0  0  0  0  0  0  0
   -1.7186    1.8967   -2.9350 H   0  0  0  0  0  0  0  0  0  0  0  0
   -1.8475    2.3991   -4.6670 H   0  0  0  0  0  0  0  0  0  0  0  0
   -0.1443   -0.4341    5.5541 H   0  0  0  0  0  0  0  0  0  0  0  0
    1.4136   -0.5356    4.6974 H   0  0  0  0  0  0  0  0  0  0  0  0
    1.5656   -1.6442    6.9043 H   0  0  0  0  0  0  0  0  0  0  0  0
    1.7244   -2.8959    5.6161 H   0  0  0  0  0  0  0  0  0  0  0  0
    0.1631   -2.7101    6.5104 H   0  0  0  0  0  0  0  0  0  0  0  0
    2.3732   -2.9365    1.8955 H   0  0  0  0  0  0  0  0  0  0  0  0
    2.5639   -2.1069    3.4591 H   0  0  0  0  0  0  0  0  0  0  0  0
    1.8156    0.0683    2.3466 H   0  0  0  0  0  0  0  0  0  0  0  0
    1.7294   -0.8161    0.7743 H   0  0  0  0  0  0  0  0  0  0  0  0
    3.3100   -0.6336    1.6256 H   0  0  0  0  0  0  0  0  0  0  0  0
   -3.6434   -2.5186    6.0081 H   0  0  0  0  0  0  0  0  0  0  0  0
   -6.6681    1.5267    6.1135 H   0  0  0  0  0  0  0  0  0  0  0  0
   -2.6158    3.8832    1.9560 H   0  0  0  0  0  0  0  0  0  0  0  0
   -2.0881    5.7048    0.3578 H   0  0  0  0  0  0  0  0  0  0  0  0
   -5.8224    8.4262    2.1979 H   0  0  0  0  0  0  0  0  0  0  0  0
   -6.3675    6.6224    3.7777 H   0  0  0  0  0  0  0  0  0  0  0  0
  1  2  2  3
  2  3  1  0
  3  4  2  0
  3  5  1  0
  5  6  2  0
  6  7  1  0
  7  8  2  0
  8  9  1  0
  9 10  2  0
 10 11  1  0
 11 12  2  3
 12 13  1  0
 13 14  3  0
 12 15  1  0
 15 16  3  0
  8 17  1  0
 17 18  1  0
 18 19  1  0
 19 20  2  0
 20 21  1  0
 21 22  1  0
 21 23  1  0
  1 24  1  0
 24 25  2  0
 25 26  1  0
 25 27  1  0
 27 28  1  0
 27 29  2  0
 29 30  1  0
 30 31  2  0
 31 32  1  0
 32 33  1  0
 33 34  1  0
 32 35  2  0
 35 36  1  0
 36 37  2  0
 35 38  1  0
 38 39  1  0
 29 40  1  0
 40 41  2  0
 41 42  1  0
 41 43  1  0
 43 44  1  0
 43 45  2  0
 45 46  1  0
 46 47  2  0
 47 48  1  0
 48 49  1  0
 49 50  1  0
 48 51  2  0
 51 52  1  0
 52 53  2  0
 51 54  1  0
 54 55  1  0
 45 56  1  0
 56 57  2  0
 57 58  1  0
 58 59  2  0
 59 60  1  0
 59 61  1  0
 61 62  2  3
 62 63  1  0
 63 64  2  0
 63 65  1  0
 65 66  2  0
 66 67  1  0
 67 68  2  0
 68 69  1  0
 69 70  1  0
 69 71  2  0
 71 72  1  0
 71 73  1  0
 73 74  2  0
 74 75  1  0
 75 76  2  0
 76 77  1  0
 77 78  2  3
 78 79  1  0
 79 80  3  0
 78 81  1  0
 81 82  3  0
 11  2  1  0
 23 17  1  0
 37 24  1  0
 53 40  1  0
 60 56  1  0
 77 62  1  0
 10  5  1  0
 22 18  1  0
 37 30  1  0
 53 46  1  0
 76 65  1  0
 23  7  1  0
 74 67  1  0
  1 83  1  0
  6 84  1  0
  9 85  1  0
 17 86  1  0
 18 87  1  0
 19 88  1  0
 20 89  1  0
 21 90  1  0
 22 91  1  0
 22 92  1  0
 23 93  1  0
 33 94  1  0
 33 95  1  0
 34 96  1  0
 34 97  1  0
 34 98  1  0
 38 99  1  0
 38100  1  0
 39101  1  0
 39102  1  0
 39103  1  0
 49104  1  0
 49105  1  0
 50106  1  0
 50107  1  0
 50108  1  0
 54109  1  0
 54110  1  0
 55111  1  0
 55112  1  0
 55113  1  0
 57114  1  0
 61115  1  0
 66116  1  0
 68117  1  0
 73118  1  0
 75119  1  0
M  END

