
     RDKit          3D

234255  0  0  0  0  0  0  0  0999 V2000
    5.7162    5.5237   -1.8167 C   0  0  0  0  0  0  0  0  0  0  0  0
    6.3503    6.0323   -0.7414 C   0  0  0  0  0  0  0  0  0  0  0  0
    5.8112    6.0818    0.6225 C   0  0  0  0  0  0  0  0  0  0  0  0
    4.6010    6.2359    0.9420 O   0  0  0  0  0  0  0  0  0  0  0  0
    6.9175    6.0042    1.5541 C   0  0  0  0  0  0  0  0  0  0  0  0
    6.8454    5.7708    2.9470 C   0  0  0  0  0  0  0  0  0  0  0  0
    8.0822    5.6278    3.5526 C   0  0  0  0  0  0  0  0  0  0  0  0
    9.3173    5.6772    2.8264 C   0  0  0  0  0  0  0  0  0  0  0  0
    9.3926    5.8864    1.4563 C   0  0  0  0  0  0  0  0  0  0  0  0
    8.1332    6.0713    0.8217 C   0  0  0  0  0  0  0  0  0  0  0  0
    7.8202    6.2466   -0.6229 C   0  0  0  0  0  0  0  0  0  0  0  0
    8.6366    6.7332   -1.5883 C   0  0  0  0  0  0  0  0  0  0  0  0
    8.1151    7.1976   -2.8429 C   0  0  0  0  0  0  0  0  0  0  0  0
    7.6869    7.5979   -3.8424 N   0  0  0  0  0  0  0  0  0  0  0  0
   10.0296    7.0193   -1.3477 C   0  0  0  0  0  0  0  0  0  0  0  0
   11.1469    7.2674   -1.1700 N   0  0  0  0  0  0  0  0  0  0  0  0
   10.0859    5.3890    4.0798 C   0  0  0  0  0  0  0  0  0  0  0  0
   10.6645    3.9561    4.2680 C   0  0  0  0  0  0  0  0  0  0  0  0
    9.7759    2.9438    3.5790 C   0  0  0  0  0  0  0  0  0  0  0  0
    8.6341    2.9106    4.2679 C   0  0  0  0  0  0  0  0  0  0  0  0
    8.7800    3.9035    5.4008 C   0  0  0  0  0  0  0  0  0  0  0  0
   10.2541    3.7022    5.7066 C   0  0  0  0  0  0  0  0  0  0  0  0
    8.8239    5.3510    4.8267 C   0  0  0  0  0  0  0  0  0  0  0  0
    4.3779    4.9070   -1.7508 C   0  0  0  0  0  0  0  0  0  0  0  0
    3.9562    3.9757   -0.7792 C   0  0  0  0  0  0  0  0  0  0  0  0
    4.8935    3.1361   -0.0696 N   0  0  0  0  0  0  0  0  0  0  0  0
    4.7071    2.7601    1.3209 C   0  0  0  0  0  0  0  0  0  0  0  0
    5.4518    1.7018    1.8892 C   0  0  0  0  0  0  0  0  0  0  0  0
    5.2611    1.3248    3.2198 C   0  0  0  0  0  0  0  0  0  0  0  0
    4.3439    2.0080    4.0205 C   0  0  0  0  0  0  0  0  0  0  0  0
    4.1319    1.5445    5.7382 S   0  0  0  0  0  0  0  0  0  0  0  0
    2.8506    0.3054    5.3660 C   0  0  0  0  0  0  0  0  0  0  0  0
    3.5966    3.0549    3.4741 C   0  0  0  0  0  0  0  0  0  0  0  0
    3.7778    3.4336    2.1422 C   0  0  0  0  0  0  0  0  0  0  0  0
    5.8024    2.3856   -0.8989 C   0  0  0  0  0  0  0  0  0  0  0  0
    5.3071    1.4087   -1.7785 C   0  0  0  0  0  0  0  0  0  0  0  0
    6.1833    0.6612   -2.5685 C   0  0  0  0  0  0  0  0  0  0  0  0
    7.5629    0.8759   -2.4784 C   0  0  0  0  0  0  0  0  0  0  0  0
    8.6833   -0.1417   -3.4341 S   0  0  0  0  0  0  0  0  0  0  0  0
    8.8476   -1.3965   -2.1236 C   0  0  0  0  0  0  0  0  0  0  0  0
    8.0601    1.8636   -1.6151 C   0  0  0  0  0  0  0  0  0  0  0  0
    7.1813    2.6066   -0.8197 C   0  0  0  0  0  0  0  0  0  0  0  0
    2.6725    3.5217   -1.0711 C   0  0  0  0  0  0  0  0  0  0  0  0
    1.7959    2.2596   -0.4427 S   0  0  0  0  0  0  0  0  0  0  0  0
    0.7431    2.1389   -1.7675 C   0  0  0  0  0  0  0  0  0  0  0  0
    1.1187    3.0620   -2.7616 C   0  0  0  0  0  0  0  0  0  0  0  0
    0.9308    2.7949   -4.1645 N   0  0  0  0  0  0  0  0  0  0  0  0
    0.3446    3.7637   -5.0674 C   0  0  0  0  0  0  0  0  0  0  0  0
   -0.0192    3.3784   -6.3734 C   0  0  0  0  0  0  0  0  0  0  0  0
   -0.5407    4.3090   -7.2723 C   0  0  0  0  0  0  0  0  0  0  0  0
   -0.7092    5.6426   -6.8921 C   0  0  0  0  0  0  0  0  0  0  0  0
   -1.3573    6.8329   -8.0610 S   0  0  0  0  0  0  0  0  0  0  0  0
    0.2921    7.3008   -8.6829 C   0  0  0  0  0  0  0  0  0  0  0  0
   -0.3785    6.0375   -5.5951 C   0  0  0  0  0  0  0  0  0  0  0  0
    0.1450    5.1092   -4.6853 C   0  0  0  0  0  0  0  0  0  0  0  0
    1.7334    1.7297   -4.7112 C   0  0  0  0  0  0  0  0  0  0  0  0
    2.9929    2.0191   -5.2644 C   0  0  0  0  0  0  0  0  0  0  0  0
    3.8155    0.9873   -5.7277 C   0  0  0  0  0  0  0  0  0  0  0  0
    3.3767   -0.3394   -5.6666 C   0  0  0  0  0  0  0  0  0  0  0  0
    4.4291   -1.6670   -6.2512 S   0  0  0  0  0  0  0  0  0  0  0  0
    3.9967   -1.4119   -8.0037 C   0  0  0  0  0  0  0  0  0  0  0  0
    2.1130   -0.6317   -5.1465 C   0  0  0  0  0  0  0  0  0  0  0  0
    1.2935    0.3993   -4.6663 C   0  0  0  0  0  0  0  0  0  0  0  0
    2.1785    3.8628   -2.2948 C   0  0  0  0  0  0  0  0  0  0  0  0
    3.2660    4.8974   -3.0465 S   0  0  0  0  0  0  0  0  0  0  0  0
   -0.2674    1.0781   -1.8245 C   0  0  0  0  0  0  0  0  0  0  0  0
   -1.6320    1.2117   -2.1771 C   0  0  0  0  0  0  0  0  0  0  0  0
   -2.2264    2.3561   -2.8138 N   0  0  0  0  0  0  0  0  0  0  0  0
   -2.2149    3.6597   -2.1854 C   0  0  0  0  0  0  0  0  0  0  0  0
   -2.4751    4.8224   -2.9444 C   0  0  0  0  0  0  0  0  0  0  0  0
   -2.5271    6.0766   -2.3309 C   0  0  0  0  0  0  0  0  0  0  0  0
   -2.3390    6.1881   -0.9514 C   0  0  0  0  0  0  0  0  0  0  0  0
   -2.4535    7.7898   -0.1554 S   0  0  0  0  0  0  0  0  0  0  0  0
   -4.2663    7.6988    0.0149 C   0  0  0  0  0  0  0  0  0  0  0  0
   -2.0889    5.0476   -0.1882 C   0  0  0  0  0  0  0  0  0  0  0  0
   -2.0216    3.7902   -0.7975 C   0  0  0  0  0  0  0  0  0  0  0  0
   -3.1381    2.0896   -3.8982 C   0  0  0  0  0  0  0  0  0  0  0  0
   -2.7196    1.3520   -5.0195 C   0  0  0  0  0  0  0  0  0  0  0  0
   -3.6209    1.0493   -6.0462 C   0  0  0  0  0  0  0  0  0  0  0  0
   -4.9535    1.4712   -5.9578 C   0  0  0  0  0  0  0  0  0  0  0  0
   -6.1035    1.1137   -7.2841 S   0  0  0  0  0  0  0  0  0  0  0  0
   -6.6679   -0.4576   -6.5563 C   0  0  0  0  0  0  0  0  0  0  0  0
   -5.3837    2.1962   -4.8415 C   0  0  0  0  0  0  0  0  0  0  0  0
   -4.4806    2.5033   -3.8178 C   0  0  0  0  0  0  0  0  0  0  0  0
   -2.4080    0.2146   -1.5784 C   0  0  0  0  0  0  0  0  0  0  0  0
   -4.0361    0.1454   -1.1773 S   0  0  0  0  0  0  0  0  0  0  0  0
   -3.8262   -1.0307    0.0400 C   0  0  0  0  0  0  0  0  0  0  0  0
   -2.4683   -1.3777    0.1197 C   0  0  0  0  0  0  0  0  0  0  0  0
   -1.8601   -2.1043    1.2053 N   0  0  0  0  0  0  0  0  0  0  0  0
   -1.0770   -3.2860    0.8910 C   0  0  0  0  0  0  0  0  0  0  0  0
    0.0905   -3.6044    1.6168 C   0  0  0  0  0  0  0  0  0  0  0  0
    0.8412   -4.7413    1.2980 C   0  0  0  0  0  0  0  0  0  0  0  0
    0.4616   -5.5578    0.2308 C   0  0  0  0  0  0  0  0  0  0  0  0
    1.4193   -7.0249   -0.1613 S   0  0  0  0  0  0  0  0  0  0  0  0
    2.6178   -6.1271   -1.1983 C   0  0  0  0  0  0  0  0  0  0  0  0
   -0.6773   -5.2383   -0.5155 C   0  0  0  0  0  0  0  0  0  0  0  0
   -1.4443   -4.1148   -0.1896 C   0  0  0  0  0  0  0  0  0  0  0  0
   -1.7438   -1.4531    2.4944 C   0  0  0  0  0  0  0  0  0  0  0  0
   -1.5163   -0.0650    2.5777 C   0  0  0  0  0  0  0  0  0  0  0  0
   -1.3360    0.5578    3.8126 C   0  0  0  0  0  0  0  0  0  0  0  0
   -1.3651   -0.1983    4.9904 C   0  0  0  0  0  0  0  0  0  0  0  0
   -1.1511    0.6126    6.5792 S   0  0  0  0  0  0  0  0  0  0  0  0
   -2.9330    0.9022    6.8425 C   0  0  0  0  0  0  0  0  0  0  0  0
   -1.5618   -1.5832    4.9206 C   0  0  0  0  0  0  0  0  0  0  0  0
   -1.7823   -2.2032    3.6826 C   0  0  0  0  0  0  0  0  0  0  0  0
   -1.7193   -0.6755   -0.8185 C   0  0  0  0  0  0  0  0  0  0  0  0
   -0.0989   -0.3075   -0.8397 S   0  0  0  0  0  0  0  0  0  0  0  0
   -4.9176   -1.6462    0.7909 C   0  0  0  0  0  0  0  0  0  0  0  0
   -5.3847   -1.2774    2.0672 C   0  0  0  0  0  0  0  0  0  0  0  0
   -5.1912    0.1076    2.6374 C   0  0  0  0  0  0  0  0  0  0  0  0
   -6.1067    1.1075    1.9368 C   0  0  0  0  0  0  0  0  0  0  0  0
   -6.3601   -2.1831    2.5215 C   0  0  0  0  0  0  0  0  0  0  0  0
   -6.7462   -3.0667    1.5521 C   0  0  0  0  0  0  0  0  0  0  0  0
   -5.7498   -3.0050    0.2209 S   0  0  0  0  0  0  0  0  0  0  0  0
   -7.4756   -4.1474    2.1333 C   0  0  0  0  0  0  0  0  0  0  0  0
   -7.4219   -4.0205    3.4903 C   0  0  0  0  0  0  0  0  0  0  0  0
   -6.7830   -2.6860    3.9128 C   0  0  0  0  0  0  0  0  0  0  0  0
   -5.5701   -3.0044    4.8441 C   0  0  0  0  0  0  0  0  0  0  0  0
   -4.8615   -1.8045    5.4708 C   0  0  0  0  0  0  0  0  0  0  0  0
   -7.8570   -1.7464    4.5109 C   0  0  0  0  0  0  0  0  0  0  0  0
   -8.4441   -2.2360    5.8335 C   0  0  0  0  0  0  0  0  0  0  0  0
   -7.4967   -5.2613    4.1550 C   0  0  0  0  0  0  0  0  0  0  0  0
   -7.6243   -6.3317    3.2557 C   0  0  0  0  0  0  0  0  0  0  0  0
   -7.5731   -5.7469    1.6726 S   0  0  0  0  0  0  0  0  0  0  0  0
   -7.2968   -7.7348    3.5343 C   0  0  0  0  0  0  0  0  0  0  0  0
   -6.0604   -8.1779    3.2472 C   0  0  0  0  0  0  0  0  0  0  0  0
   -4.6742   -7.2317    3.2484 S   0  0  0  0  0  0  0  0  0  0  0  0
   -3.7199   -8.3482    2.4159 C   0  0  0  0  0  0  0  0  0  0  0  0
   -2.4383   -8.0982    2.0741 C   0  0  0  0  0  0  0  0  0  0  0  0
   -1.9161   -8.5176    0.8046 C   0  0  0  0  0  0  0  0  0  0  0  0
   -1.5272   -8.7919   -0.2558 N   0  0  0  0  0  0  0  0  0  0  0  0
   -1.7392   -7.0107    2.7087 C   0  0  0  0  0  0  0  0  0  0  0  0
   -1.1731   -6.1527    3.2380 N   0  0  0  0  0  0  0  0  0  0  0  0
   -4.4537   -9.4767    2.1388 N   0  0  0  0  0  0  0  0  0  0  0  0
   -3.9467  -10.6997    1.4807 C   0  0  0  0  0  0  0  0  0  0  0  0
   -4.1424  -10.6880   -0.0252 C   0  0  0  0  0  0  0  0  0  0  0  0
   -5.3041  -10.1453   -0.6133 C   0  0  0  0  0  0  0  0  0  0  0  0
   -5.4979  -10.2324   -1.9957 C   0  0  0  0  0  0  0  0  0  0  0  0
   -4.5535  -10.8655   -2.8010 C   0  0  0  0  0  0  0  0  0  0  0  0
   -3.4002  -11.4120   -2.2273 C   0  0  0  0  0  0  0  0  0  0  0  0
   -3.1928  -11.3226   -0.8511 C   0  0  0  0  0  0  0  0  0  0  0  0
   -5.7326   -9.3912    2.6403 C   0  0  0  0  0  0  0  0  0  0  0  0
   -6.5766  -10.3178    2.4856 O   0  0  0  0  0  0  0  0  0  0  0  0
    6.2303    5.4316   -2.7610 H   0  0  0  0  0  0  0  0  0  0  0  0
    5.9138    5.6698    3.4884 H   0  0  0  0  0  0  0  0  0  0  0  0
   10.3365    5.8474    0.9368 H   0  0  0  0  0  0  0  0  0  0  0  0
   10.7593    6.2187    4.3965 H   0  0  0  0  0  0  0  0  0  0  0  0
   11.7424    3.8451    4.0463 H   0  0  0  0  0  0  0  0  0  0  0  0
   10.0384    2.2782    2.7638 H   0  0  0  0  0  0  0  0  0  0  0  0
    7.8048    2.2435    4.0909 H   0  0  0  0  0  0  0  0  0  0  0  0
    8.0862    3.7453    6.2555 H   0  0  0  0  0  0  0  0  0  0  0  0
   10.6678    4.4474    6.4302 H   0  0  0  0  0  0  0  0  0  0  0  0
   10.4974    2.6672    6.0595 H   0  0  0  0  0  0  0  0  0  0  0  0
    8.7325    6.1610    5.5813 H   0  0  0  0  0  0  0  0  0  0  0  0
    6.1495    1.1198    1.3005 H   0  0  0  0  0  0  0  0  0  0  0  0
    5.8329    0.5016    3.6283 H   0  0  0  0  0  0  0  0  0  0  0  0
    2.4842   -0.1352    6.3126 H   0  0  0  0  0  0  0  0  0  0  0  0
    1.9986    0.7799    4.8390 H   0  0  0  0  0  0  0  0  0  0  0  0
    3.2752   -0.5027    4.7351 H   0  0  0  0  0  0  0  0  0  0  0  0
    2.8751    3.5833    4.0880 H   0  0  0  0  0  0  0  0  0  0  0  0
    3.1841    4.2437    1.7567 H   0  0  0  0  0  0  0  0  0  0  0  0
    4.2437    1.2153   -1.8427 H   0  0  0  0  0  0  0  0  0  0  0  0
    5.7883   -0.1001   -3.2284 H   0  0  0  0  0  0  0  0  0  0  0  0
    7.8567   -1.6738   -1.7049 H   0  0  0  0  0  0  0  0  0  0  0  0
    9.4879   -0.9956   -1.3127 H   0  0  0  0  0  0  0  0  0  0  0  0
    9.3243   -2.3056   -2.5419 H   0  0  0  0  0  0  0  0  0  0  0  0
    9.1218    2.0364   -1.5407 H   0  0  0  0  0  0  0  0  0  0  0  0
    7.5770    3.3480   -0.1359 H   0  0  0  0  0  0  0  0  0  0  0  0
    0.1061    2.3564   -6.7018 H   0  0  0  0  0  0  0  0  0  0  0  0
   -0.7939    3.9977   -8.2773 H   0  0  0  0  0  0  0  0  0  0  0  0
    0.1918    8.1165   -9.4246 H   0  0  0  0  0  0  0  0  0  0  0  0
    0.7783    6.4346   -9.1822 H   0  0  0  0  0  0  0  0  0  0  0  0
    0.9291    7.6522   -7.8463 H   0  0  0  0  0  0  0  0  0  0  0  0
   -0.5139    7.0667   -5.2900 H   0  0  0  0  0  0  0  0  0  0  0  0
    0.3765    5.4497   -3.6872 H   0  0  0  0  0  0  0  0  0  0  0  0
    3.3345    3.0389   -5.3274 H   0  0  0  0  0  0  0  0  0  0  0  0
    4.7890    1.2257   -6.1279 H   0  0  0  0  0  0  0  0  0  0  0  0
    4.4397   -0.4575   -8.3604 H   0  0  0  0  0  0  0  0  0  0  0  0
    2.8933   -1.3804   -8.1430 H   0  0  0  0  0  0  0  0  0  0  0  0
    4.4156   -2.2419   -8.6079 H   0  0  0  0  0  0  0  0  0  0  0  0
    1.7677   -1.6552   -5.0904 H   0  0  0  0  0  0  0  0  0  0  0  0
    0.3254    0.1494   -4.2620 H   0  0  0  0  0  0  0  0  0  0  0  0
   -2.6580    4.7562   -4.0046 H   0  0  0  0  0  0  0  0  0  0  0  0
   -2.7302    6.9551   -2.9275 H   0  0  0  0  0  0  0  0  0  0  0  0
   -4.7406    7.8559   -0.9777 H   0  0  0  0  0  0  0  0  0  0  0  0
   -4.5799    6.7165    0.4292 H   0  0  0  0  0  0  0  0  0  0  0  0
   -4.6046    8.4999    0.7048 H   0  0  0  0  0  0  0  0  0  0  0  0
   -1.9521    5.1288    0.8814 H   0  0  0  0  0  0  0  0  0  0  0  0
   -1.8587    2.9213   -0.1735 H   0  0  0  0  0  0  0  0  0  0  0  0
   -1.6972    1.0137   -5.0994 H   0  0  0  0  0  0  0  0  0  0  0  0
   -3.2864    0.4884   -6.9019 H   0  0  0  0  0  0  0  0  0  0  0  0
   -7.2470   -0.2508   -5.6309 H   0  0  0  0  0  0  0  0  0  0  0  0
   -5.7971   -1.1032   -6.3212 H   0  0  0  0  0  0  0  0  0  0  0  0
   -7.3186   -0.9797   -7.2870 H   0  0  0  0  0  0  0  0  0  0  0  0
   -6.4117    2.5124   -4.7565 H   0  0  0  0  0  0  0  0  0  0  0  0
   -4.8356    3.0422   -2.9522 H   0  0  0  0  0  0  0  0  0  0  0  0
    0.4431   -2.9809    2.4271 H   0  0  0  0  0  0  0  0  0  0  0  0
    1.7145   -4.9912    1.8885 H   0  0  0  0  0  0  0  0  0  0  0  0
    3.2883   -6.8602   -1.6911 H   0  0  0  0  0  0  0  0  0  0  0  0
    2.0953   -5.5394   -1.9812 H   0  0  0  0  0  0  0  0  0  0  0  0
    3.2284   -5.4459   -0.5675 H   0  0  0  0  0  0  0  0  0  0  0  0
   -0.9765   -5.8627   -1.3443 H   0  0  0  0  0  0  0  0  0  0  0  0
   -2.3167   -3.8874   -0.7806 H   0  0  0  0  0  0  0  0  0  0  0  0
   -1.4720    0.5483    1.6871 H   0  0  0  0  0  0  0  0  0  0  0  0
   -1.1772    1.6282    3.8505 H   0  0  0  0  0  0  0  0  0  0  0  0
   -3.3650    0.0187    7.3594 H   0  0  0  0  0  0  0  0  0  0  0  0
   -3.4772    1.0561    5.8788 H   0  0  0  0  0  0  0  0  0  0  0  0
   -3.0730    1.7954    7.4899 H   0  0  0  0  0  0  0  0  0  0  0  0
   -1.5851   -2.1739    5.8272 H   0  0  0  0  0  0  0  0  0  0  0  0
   -1.9652   -3.2698    3.6515 H   0  0  0  0  0  0  0  0  0  0  0  0
   -5.4319    0.1429    3.7116 H   0  0  0  0  0  0  0  0  0  0  0  0
   -4.1376    0.4212    2.5113 H   0  0  0  0  0  0  0  0  0  0  0  0
   -5.9146    1.1241    0.8474 H   0  0  0  0  0  0  0  0  0  0  0  0
   -5.9229    2.1186    2.3447 H   0  0  0  0  0  0  0  0  0  0  0  0
   -7.1668    0.8314    2.1132 H   0  0  0  0  0  0  0  0  0  0  0  0
   -4.8163   -3.6064    4.2816 H   0  0  0  0  0  0  0  0  0  0  0  0
   -5.9122   -3.6329    5.6905 H   0  0  0  0  0  0  0  0  0  0  0  0
   -5.5686   -1.0751    5.9135 H   0  0  0  0  0  0  0  0  0  0  0  0
   -4.1900   -2.1569    6.2849 H   0  0  0  0  0  0  0  0  0  0  0  0
   -4.2148   -1.3064    4.7258 H   0  0  0  0  0  0  0  0  0  0  0  0
   -8.6923   -1.6421    3.7859 H   0  0  0  0  0  0  0  0  0  0  0  0
   -7.4454   -0.7227    4.6498 H   0  0  0  0  0  0  0  0  0  0  0  0
   -7.6603   -2.3045    6.6165 H   0  0  0  0  0  0  0  0  0  0  0  0
   -8.9244   -3.2259    5.7076 H   0  0  0  0  0  0  0  0  0  0  0  0
   -9.2129   -1.5140    6.1849 H   0  0  0  0  0  0  0  0  0  0  0  0
   -7.3045   -5.3990    5.2110 H   0  0  0  0  0  0  0  0  0  0  0  0
   -8.1288   -8.4330    3.4988 H   0  0  0  0  0  0  0  0  0  0  0  0
   -4.4705  -11.5899    1.8931 H   0  0  0  0  0  0  0  0  0  0  0  0
   -2.8804  -10.8361    1.7436 H   0  0  0  0  0  0  0  0  0  0  0  0
   -6.0720   -9.6713   -0.0099 H   0  0  0  0  0  0  0  0  0  0  0  0
   -6.4030   -9.8226   -2.4307 H   0  0  0  0  0  0  0  0  0  0  0  0
   -4.7197  -10.9601   -3.8560 H   0  0  0  0  0  0  0  0  0  0  0  0
   -2.6740  -11.9208   -2.8490 H   0  0  0  0  0  0  0  0  0  0  0  0
   -2.3018  -11.7642   -0.4135 H   0  0  0  0  0  0  0  0  0  0  0  0
  1  2  2  3
  2  3  1  0
  3  4  2  0
  3  5  1  0
  5  6  2  0
  6  7  1  0
  7  8  2  0
  8  9  1  0
  9 10  2  0
 10 11  1  0
 11 12  2  3
 12 13  1  0
 13 14  3  0
 12 15  1  0
 15 16  3  0
  8 17  1  0
 17 18  1  0
 18 19  1  0
 19 20  2  0
 20 21  1  0
 21 22  1  0
 21 23  1  0
  1 24  1  0
 24 25  2  0
 25 26  1  0
 26 27  1  0
 27 28  2  0
 28 29  1  0
 29 30  2  0
 30 31  1  0
 31 32  1  0
 30 33  1  0
 33 34  2  0
 26 35  1  0
 35 36  2  0
 36 37  1  0
 37 38  2  0
 38 39  1  0
 39 40  1  0
 38 41  1  0
 41 42  2  0
 25 43  1  0
 43 44  1  0
 44 45  1  0
 45 46  2  0
 46 47  1  0
 47 48  1  0
 48 49  2  0
 49 50  1  0
 50 51  2  0
 51 52  1  0
 52 53  1  0
 51 54  1  0
 54 55  2  0
 47 56  1  0
 56 57  2  0
 57 58  1  0
 58 59  2  0
 59 60  1  0
 60 61  1  0
 59 62  1  0
 62 63  2  0
 46 64  1  0
 64 65  1  0
 45 66  1  0
 66 67  2  0
 67 68  1  0
 68 69  1  0
 69 70  2  0
 70 71  1  0
 71 72  2  0
 72 73  1  0
 73 74  1  0
 72 75  1  0
 75 76  2  0
 68 77  1  0
 77 78  2  0
 78 79  1  0
 79 80  2  0
 80 81  1  0
 81 82  1  0
 80 83  1  0
 83 84  2  0
 67 85  1  0
 85 86  1  0
 86 87  1  0
 87 88  2  0
 88 89  1  0
 89 90  1  0
 90 91  2  0
 91 92  1  0
 92 93  2  0
 93 94  1  0
 94 95  1  0
 93 96  1  0
 96 97  2  0
 89 98  1  0
 98 99  2  0
 99100  1  0
100101  2  0
101102  1  0
102103  1  0
101104  1  0
104105  2  0
 88106  1  0
106107  1  0
 87108  1  0
108109  2  0
109110  1  0
110111  1  0
109112  1  0
112113  2  0
113114  1  0
113115  1  0
115116  2  0
116117  1  0
117118  1  0
118119  1  0
117120  1  0
120121  1  0
116122  1  0
122123  2  0
123124  1  0
123125  1  0
125126  2  3
126127  1  0
127128  1  0
128129  2  3
129130  1  0
130131  3  0
129132  1  0
132133  3  0
128134  1  0
134135  1  0
135136  1  0
136137  2  0
137138  1  0
138139  2  0
139140  1  0
140141  2  0
134142  1  0
142143  2  0
 11  2  1  0
 23 17  1  0
 65 24  1  0
107 66  1  0
114108  1  0
124115  1  0
142126  1  0
 10  5  1  0
 22 18  1  0
 34 27  1  0
 42 35  1  0
 64 43  2  0
 76 69  1  0
 84 77  1  0
106 85  2  0
117112  1  0
141136  1  0
 23  7  1  0
 55 48  1  0
 63 56  1  0
 97 90  1  0
105 98  1  0
  1144  1  0
  6145  1  0
  9146  1  0
 17147  1  0
 18148  1  0
 19149  1  0
 20150  1  0
 21151  1  0
 22152  1  0
 22153  1  0
 23154  1  0
 28155  1  0
 29156  1  0
 32157  1  0
 32158  1  0
 32159  1  0
 33160  1  0
 34161  1  0
 36162  1  0
 37163  1  0
 40164  1  0
 40165  1  0
 40166  1  0
 41167  1  0
 42168  1  0
 49169  1  0
 50170  1  0
 53171  1  0
 53172  1  0
 53173  1  0
 54174  1  0
 55175  1  0
 57176  1  0
 58177  1  0
 61178  1  0
 61179  1  0
 61180  1  0
 62181  1  0
 63182  1  0
 70183  1  0
 71184  1  0
 74185  1  0
 74186  1  0
 74187  1  0
 75188  1  0
 76189  1  0
 78190  1  0
 79191  1  0
 82192  1  0
 82193  1  0
 82194  1  0
 83195  1  0
 84196  1  0
 91197  1  0
 92198  1  0
 95199  1  0
 95200  1  0
 95201  1  0
 96202  1  0
 97203  1  0
 99204  1  0
100205  1  0
103206  1  0
103207  1  0
103208  1  0
104209  1  0
105210  1  0
110211  1  0
110212  1  0
111213  1  0
111214  1  0
111215  1  0
118216  1  0
118217  1  0
119218  1  0
119219  1  0
119220  1  0
120221  1  0
120222  1  0
121223  1  0
121224  1  0
121225  1  0
122226  1  0
125227  1  0
135228  1  0
135229  1  0
137230  1  0
138231  1  0
139232  1  0
140233  1  0
141234  1  0
M  END

