
     RDKit          3D

241265  0  0  0  0  0  0  0  0999 V2000
   -1.2657    2.0830    6.9374 C   0  0  0  0  0  0  0  0  0  0  0  0
   -1.4016    3.2991    6.3722 C   0  0  0  0  0  0  0  0  0  0  0  0
   -1.0437    3.6750    5.0022 C   0  0  0  0  0  0  0  0  0  0  0  0
   -1.1261    2.9359    3.9879 O   0  0  0  0  0  0  0  0  0  0  0  0
   -0.7354    5.0886    4.9865 C   0  0  0  0  0  0  0  0  0  0  0  0
   -0.1183    5.8132    3.9410 C   0  0  0  0  0  0  0  0  0  0  0  0
    0.1791    7.1249    4.2712 C   0  0  0  0  0  0  0  0  0  0  0  0
   -0.1117    7.6935    5.5536 C   0  0  0  0  0  0  0  0  0  0  0  0
   -0.7088    6.9853    6.5831 C   0  0  0  0  0  0  0  0  0  0  0  0
   -1.0209    5.6338    6.2592 C   0  0  0  0  0  0  0  0  0  0  0  0
   -1.6089    4.5700    7.1141 C   0  0  0  0  0  0  0  0  0  0  0  0
   -2.4529    4.7483    8.1600 C   0  0  0  0  0  0  0  0  0  0  0  0
   -3.3352    3.6914    8.5988 C   0  0  0  0  0  0  0  0  0  0  0  0
   -4.0813    2.8765    8.9150 N   0  0  0  0  0  0  0  0  0  0  0  0
   -2.7424    6.0506    8.7011 C   0  0  0  0  0  0  0  0  0  0  0  0
   -3.0018    7.0912    9.1430 N   0  0  0  0  0  0  0  0  0  0  0  0
    0.4830    9.0024    5.1301 C   0  0  0  0  0  0  0  0  0  0  0  0
   -0.4897   10.1721    4.7870 C   0  0  0  0  0  0  0  0  0  0  0  0
   -1.7782    9.6250    4.2222 C   0  0  0  0  0  0  0  0  0  0  0  0
   -1.4848    9.1040    3.0301 C   0  0  0  0  0  0  0  0  0  0  0  0
   -0.0008    9.3111    2.8259 C   0  0  0  0  0  0  0  0  0  0  0  0
    0.1484   10.6645    3.5009 C   0  0  0  0  0  0  0  0  0  0  0  0
    0.7974    8.4187    3.8204 C   0  0  0  0  0  0  0  0  0  0  0  0
   -0.7586    0.8728    6.2538 C   0  0  0  0  0  0  0  0  0  0  0  0
    0.3315    0.7646    5.3541 C   0  0  0  0  0  0  0  0  0  0  0  0
    1.3405    1.7862    5.1568 N   0  0  0  0  0  0  0  0  0  0  0  0
    1.8562    2.4835    6.3131 C   0  0  0  0  0  0  0  0  0  0  0  0
    2.1875    3.8502    6.2366 C   0  0  0  0  0  0  0  0  0  0  0  0
    2.7373    4.5089    7.3396 C   0  0  0  0  0  0  0  0  0  0  0  0
    2.9531    3.8122    8.5333 C   0  0  0  0  0  0  0  0  0  0  0  0
    3.7111    4.6400    9.9332 S   0  0  0  0  0  0  0  0  0  0  0  0
    5.3925    4.0993    9.4842 C   0  0  0  0  0  0  0  0  0  0  0  0
    2.5977    2.4662    8.6324 C   0  0  0  0  0  0  0  0  0  0  0  0
    2.0635    1.7995    7.5261 C   0  0  0  0  0  0  0  0  0  0  0  0
    2.0186    1.8927    3.8768 C   0  0  0  0  0  0  0  0  0  0  0  0
    1.3358    1.6122    2.6735 C   0  0  0  0  0  0  0  0  0  0  0  0
    2.0057    1.6465    1.4487 C   0  0  0  0  0  0  0  0  0  0  0  0
    3.3669    1.9711    1.4012 C   0  0  0  0  0  0  0  0  0  0  0  0
    4.2405    1.9766   -0.1651 S   0  0  0  0  0  0  0  0  0  0  0  0
    3.9427    3.7466   -0.4565 C   0  0  0  0  0  0  0  0  0  0  0  0
    4.0554    2.2654    2.5804 C   0  0  0  0  0  0  0  0  0  0  0  0
    3.3915    2.2222    3.8064 C   0  0  0  0  0  0  0  0  0  0  0  0
    0.5594   -0.5732    5.0327 C   0  0  0  0  0  0  0  0  0  0  0  0
    1.7505   -1.3715    4.1699 S   0  0  0  0  0  0  0  0  0  0  0  0
    1.2648   -2.9342    4.6404 C   0  0  0  0  0  0  0  0  0  0  0  0
    0.1898   -2.8175    5.5526 C   0  0  0  0  0  0  0  0  0  0  0  0
   -0.0096   -3.7584    6.6171 N   0  0  0  0  0  0  0  0  0  0  0  0
   -1.2485   -4.4868    6.7974 C   0  0  0  0  0  0  0  0  0  0  0  0
   -2.3361   -4.3083    5.9173 C   0  0  0  0  0  0  0  0  0  0  0  0
   -3.5141   -5.0462    6.0797 C   0  0  0  0  0  0  0  0  0  0  0  0
   -3.6257   -5.9783    7.1131 C   0  0  0  0  0  0  0  0  0  0  0  0
   -5.1472   -6.9045    7.3330 S   0  0  0  0  0  0  0  0  0  0  0  0
   -4.6284   -8.2756    6.2529 C   0  0  0  0  0  0  0  0  0  0  0  0
   -2.5516   -6.1758    7.9890 C   0  0  0  0  0  0  0  0  0  0  0  0
   -1.3710   -5.4448    7.8291 C   0  0  0  0  0  0  0  0  0  0  0  0
    0.9716   -3.6911    7.6614 C   0  0  0  0  0  0  0  0  0  0  0  0
    0.7580   -2.8378    8.7581 C   0  0  0  0  0  0  0  0  0  0  0  0
    1.8128   -2.5140    9.6113 C   0  0  0  0  0  0  0  0  0  0  0  0
    3.0888   -3.0417    9.3781 C   0  0  0  0  0  0  0  0  0  0  0  0
    4.4764   -2.5001   10.3779 S   0  0  0  0  0  0  0  0  0  0  0  0
    4.8684   -1.0926    9.2883 C   0  0  0  0  0  0  0  0  0  0  0  0
    3.2886   -3.9564    8.3398 C   0  0  0  0  0  0  0  0  0  0  0  0
    2.2352   -4.2745    7.4770 C   0  0  0  0  0  0  0  0  0  0  0  0
   -0.2005   -1.4858    5.6872 C   0  0  0  0  0  0  0  0  0  0  0  0
   -1.2633   -0.6880    6.7089 S   0  0  0  0  0  0  0  0  0  0  0  0
    1.6399   -4.1554    3.8771 C   0  0  0  0  0  0  0  0  0  0  0  0
    2.6867   -4.0838    2.9333 C   0  0  0  0  0  0  0  0  0  0  0  0
    2.6705   -4.9366    1.8315 C   0  0  0  0  0  0  0  0  0  0  0  0
    3.5226   -4.6062    0.2454 Si  0  0  0  0  0  4  0  0  0  0  0  0
    5.1508   -5.5249    0.0675 C   0  0  0  0  0  0  0  0  0  0  0  0
    4.9443   -7.0308   -0.0342 C   0  0  0  0  0  0  0  0  0  0  0  0
    3.6386   -2.7892   -0.2283 C   0  0  0  0  0  0  0  0  0  0  0  0
    4.8848   -2.1244    0.3477 C   0  0  0  0  0  0  0  0  0  0  0  0
    2.1588   -5.4419   -0.6314 C   0  0  0  0  0  0  0  0  0  0  0  0
    1.3318   -6.1404    0.2475 C   0  0  0  0  0  0  0  0  0  0  0  0
    1.6352   -5.8593    1.6671 C   0  0  0  0  0  0  0  0  0  0  0  0
    0.7496   -6.1047    2.7192 C   0  0  0  0  0  0  0  0  0  0  0  0
    0.7567   -5.2538    3.8243 C   0  0  0  0  0  0  0  0  0  0  0  0
    0.1227   -6.6699   -0.2125 C   0  0  0  0  0  0  0  0  0  0  0  0
   -0.3281   -6.3166   -1.4869 C   0  0  0  0  0  0  0  0  0  0  0  0
    0.4207   -5.4424   -2.3060 C   0  0  0  0  0  0  0  0  0  0  0  0
    1.7349   -5.1179   -1.9138 C   0  0  0  0  0  0  0  0  0  0  0  0
   -0.2857   -4.7131   -3.3932 C   0  0  0  0  0  0  0  0  0  0  0  0
    0.2368   -4.0578   -4.5337 C   0  0  0  0  0  0  0  0  0  0  0  0
    1.6229   -3.7479   -4.7400 N   0  0  0  0  0  0  0  0  0  0  0  0
    2.0033   -2.3797   -4.4897 C   0  0  0  0  0  0  0  0  0  0  0  0
    1.8331   -1.8213   -3.2066 C   0  0  0  0  0  0  0  0  0  0  0  0
    2.1744   -0.4941   -2.9586 C   0  0  0  0  0  0  0  0  0  0  0  0
    2.6235    0.3189   -4.0035 C   0  0  0  0  0  0  0  0  0  0  0  0
    3.0418    2.0327   -3.6850 S   0  0  0  0  0  0  0  0  0  0  0  0
    1.3124    2.5880   -3.7828 C   0  0  0  0  0  0  0  0  0  0  0  0
    2.7266   -0.2048   -5.3007 C   0  0  0  0  0  0  0  0  0  0  0  0
    2.4262   -1.5500   -5.5417 C   0  0  0  0  0  0  0  0  0  0  0  0
    2.5730   -4.7513   -5.1936 C   0  0  0  0  0  0  0  0  0  0  0  0
    2.1801   -6.1027   -5.3365 C   0  0  0  0  0  0  0  0  0  0  0  0
    3.0962   -7.0766   -5.7430 C   0  0  0  0  0  0  0  0  0  0  0  0
    4.4140   -6.7190   -6.0423 C   0  0  0  0  0  0  0  0  0  0  0  0
    5.5674   -7.9514   -6.6510 S   0  0  0  0  0  0  0  0  0  0  0  0
    6.3038   -8.2610   -5.0144 C   0  0  0  0  0  0  0  0  0  0  0  0
    4.8241   -5.3902   -5.9003 C   0  0  0  0  0  0  0  0  0  0  0  0
    3.9201   -4.4190   -5.4586 C   0  0  0  0  0  0  0  0  0  0  0  0
   -0.7662   -3.3917   -5.2406 C   0  0  0  0  0  0  0  0  0  0  0  0
   -0.7599   -2.4201   -6.6021 S   0  0  0  0  0  0  0  0  0  0  0  0
   -2.3829   -1.9361   -6.4223 C   0  0  0  0  0  0  0  0  0  0  0  0
   -2.9393   -2.5424   -5.2766 C   0  0  0  0  0  0  0  0  0  0  0  0
   -4.2044   -2.1614   -4.6783 N   0  0  0  0  0  0  0  0  0  0  0  0
   -4.7515   -0.8464   -4.8917 C   0  0  0  0  0  0  0  0  0  0  0  0
   -3.9473    0.2928   -4.7167 C   0  0  0  0  0  0  0  0  0  0  0  0
   -4.4262    1.5573   -5.0806 C   0  0  0  0  0  0  0  0  0  0  0  0
   -5.7212    1.6937   -5.5961 C   0  0  0  0  0  0  0  0  0  0  0  0
   -6.2905    3.2887   -6.1856 S   0  0  0  0  0  0  0  0  0  0  0  0
   -6.8597    3.8407   -4.5505 C   0  0  0  0  0  0  0  0  0  0  0  0
   -6.5558    0.5719   -5.6956 C   0  0  0  0  0  0  0  0  0  0  0  0
   -6.0685   -0.6933   -5.3515 C   0  0  0  0  0  0  0  0  0  0  0  0
   -4.8173   -2.9894   -3.6757 C   0  0  0  0  0  0  0  0  0  0  0  0
   -4.9237   -2.5231   -2.3574 C   0  0  0  0  0  0  0  0  0  0  0  0
   -5.4100   -3.3631   -1.3501 C   0  0  0  0  0  0  0  0  0  0  0  0
   -5.8145   -4.6691   -1.6641 C   0  0  0  0  0  0  0  0  0  0  0  0
   -6.3724   -5.7632   -0.3575 S   0  0  0  0  0  0  0  0  0  0  0  0
   -8.0936   -5.1785   -0.4182 C   0  0  0  0  0  0  0  0  0  0  0  0
   -5.7306   -5.1278   -2.9832 C   0  0  0  0  0  0  0  0  0  0  0  0
   -5.2324   -4.2931   -3.9892 C   0  0  0  0  0  0  0  0  0  0  0  0
   -1.9982   -3.3861   -4.6717 C   0  0  0  0  0  0  0  0  0  0  0  0
   -1.9417   -4.3072   -3.2756 S   0  0  0  0  0  0  0  0  0  0  0  0
   -3.1245   -1.1272   -7.4017 C   0  0  0  0  0  0  0  0  0  0  0  0
   -2.7569    0.0963   -7.8289 C   0  0  0  0  0  0  0  0  0  0  0  0
   -1.6814    0.9221   -7.2576 C   0  0  0  0  0  0  0  0  0  0  0  0
   -0.7391    0.5266   -6.5211 O   0  0  0  0  0  0  0  0  0  0  0  0
   -1.9306    2.3056   -7.5980 C   0  0  0  0  0  0  0  0  0  0  0  0
   -1.1917    3.4307   -7.1735 C   0  0  0  0  0  0  0  0  0  0  0  0
   -1.7210    4.6380   -7.5806 C   0  0  0  0  0  0  0  0  0  0  0  0
   -2.9150    4.7448   -8.3612 C   0  0  0  0  0  0  0  0  0  0  0  0
   -3.6442    3.6450   -8.7857 C   0  0  0  0  0  0  0  0  0  0  0  0
   -3.1001    2.3879   -8.3949 C   0  0  0  0  0  0  0  0  0  0  0  0
   -3.5976    1.0089   -8.6651 C   0  0  0  0  0  0  0  0  0  0  0  0
   -4.4818    0.6274   -9.6229 C   0  0  0  0  0  0  0  0  0  0  0  0
   -4.6648   -0.7520   -9.9972 C   0  0  0  0  0  0  0  0  0  0  0  0
   -4.8119   -1.8570  -10.3034 N   0  0  0  0  0  0  0  0  0  0  0  0
   -5.2106    1.5702  -10.4268 C   0  0  0  0  0  0  0  0  0  0  0  0
   -5.8098    2.3196  -11.0786 N   0  0  0  0  0  0  0  0  0  0  0  0
   -2.7984    6.2409   -8.3618 C   0  0  0  0  0  0  0  0  0  0  0  0
   -2.3122    6.8978   -9.6903 C   0  0  0  0  0  0  0  0  0  0  0  0
   -1.8941    8.3023   -9.3277 C   0  0  0  0  0  0  0  0  0  0  0  0
   -0.7746    8.1954   -8.6051 C   0  0  0  0  0  0  0  0  0  0  0  0
   -0.4717    6.7211   -8.5008 C   0  0  0  0  0  0  0  0  0  0  0  0
   -0.9300    6.2937   -9.8870 C   0  0  0  0  0  0  0  0  0  0  0  0
   -1.5705    6.1278   -7.5675 C   0  0  0  0  0  0  0  0  0  0  0  0
   -1.4934    1.9629    7.9884 H   0  0  0  0  0  0  0  0  0  0  0  0
    0.1412    5.3760    2.9832 H   0  0  0  0  0  0  0  0  0  0  0  0
   -0.8639    7.4259    7.5557 H   0  0  0  0  0  0  0  0  0  0  0  0
    1.3799    9.2997    5.7157 H   0  0  0  0  0  0  0  0  0  0  0  0
   -0.6149   10.9356    5.5827 H   0  0  0  0  0  0  0  0  0  0  0  0
   -2.7687    9.7058    4.6545 H   0  0  0  0  0  0  0  0  0  0  0  0
   -2.1964    8.6917    2.3224 H   0  0  0  0  0  0  0  0  0  0  0  0
    0.3359    9.2666    1.7681 H   0  0  0  0  0  0  0  0  0  0  0  0
    1.2092   10.9883    3.6221 H   0  0  0  0  0  0  0  0  0  0  0  0
   -0.4315   11.4754    3.0036 H   0  0  0  0  0  0  0  0  0  0  0  0
    1.8883    8.3522    3.6141 H   0  0  0  0  0  0  0  0  0  0  0  0
    2.0354    4.3997    5.3171 H   0  0  0  0  0  0  0  0  0  0  0  0
    3.0057    5.5544    7.2615 H   0  0  0  0  0  0  0  0  0  0  0  0
    5.7197    4.6245    8.5633 H   0  0  0  0  0  0  0  0  0  0  0  0
    6.0809    4.3545   10.3140 H   0  0  0  0  0  0  0  0  0  0  0  0
    5.4134    2.9998    9.3274 H   0  0  0  0  0  0  0  0  0  0  0  0
    2.7627    1.9223    9.5549 H   0  0  0  0  0  0  0  0  0  0  0  0
    1.8309    0.7439    7.6128 H   0  0  0  0  0  0  0  0  0  0  0  0
    0.2930    1.3232    2.6811 H   0  0  0  0  0  0  0  0  0  0  0  0
    1.4695    1.4117    0.5379 H   0  0  0  0  0  0  0  0  0  0  0  0
    4.4843    4.0622   -1.3696 H   0  0  0  0  0  0  0  0  0  0  0  0
    2.8581    3.9266   -0.5988 H   0  0  0  0  0  0  0  0  0  0  0  0
    4.3149    4.3432    0.4013 H   0  0  0  0  0  0  0  0  0  0  0  0
    5.1092    2.5163    2.5473 H   0  0  0  0  0  0  0  0  0  0  0  0
    3.9619    2.4131    4.7053 H   0  0  0  0  0  0  0  0  0  0  0  0
   -2.2790   -3.6004    5.0994 H   0  0  0  0  0  0  0  0  0  0  0  0
   -4.3371   -4.8881    5.3939 H   0  0  0  0  0  0  0  0  0  0  0  0
   -5.4249   -9.0482    6.2350 H   0  0  0  0  0  0  0  0  0  0  0  0
   -4.4676   -7.9040    5.2188 H   0  0  0  0  0  0  0  0  0  0  0  0
   -3.6949   -8.7362    6.6364 H   0  0  0  0  0  0  0  0  0  0  0  0
   -2.6300   -6.8984    8.7896 H   0  0  0  0  0  0  0  0  0  0  0  0
   -0.5522   -5.6339    8.5103 H   0  0  0  0  0  0  0  0  0  0  0  0
   -0.2123   -2.3802    8.9098 H   0  0  0  0  0  0  0  0  0  0  0  0
    1.6522   -1.8083   10.4171 H   0  0  0  0  0  0  0  0  0  0  0  0
    5.7215   -0.5258    9.7073 H   0  0  0  0  0  0  0  0  0  0  0  0
    3.9954   -0.4139    9.2120 H   0  0  0  0  0  0  0  0  0  0  0  0
    5.1421   -1.4548    8.2785 H   0  0  0  0  0  0  0  0  0  0  0  0
    4.2719   -4.3762    8.1642 H   0  0  0  0  0  0  0  0  0  0  0  0
    2.4140   -4.9255    6.6347 H   0  0  0  0  0  0  0  0  0  0  0  0
    3.3908   -3.2611    2.9466 H   0  0  0  0  0  0  0  0  0  0  0  0
    5.7937   -5.2891    0.9437 H   0  0  0  0  0  0  0  0  0  0  0  0
    5.6683   -5.1640   -0.8488 H   0  0  0  0  0  0  0  0  0  0  0  0
    4.3802   -7.4077    0.8455 H   0  0  0  0  0  0  0  0  0  0  0  0
    5.9298   -7.5453   -0.0632 H   0  0  0  0  0  0  0  0  0  0  0  0
    4.3855   -7.2835   -0.9622 H   0  0  0  0  0  0  0  0  0  0  0  0
    3.7004   -2.7275   -1.3328 H   0  0  0  0  0  0  0  0  0  0  0  0
    2.7265   -2.2581    0.1164 H   0  0  0  0  0  0  0  0  0  0  0  0
    4.9150   -1.0677    0.0166 H   0  0  0  0  0  0  0  0  0  0  0  0
    4.8768   -2.1467    1.4535 H   0  0  0  0  0  0  0  0  0  0  0  0
    5.7969   -2.6287   -0.0254 H   0  0  0  0  0  0  0  0  0  0  0  0
   -0.0554   -6.8243    2.6210 H   0  0  0  0  0  0  0  0  0  0  0  0
   -0.0350   -5.3627    4.5425 H   0  0  0  0  0  0  0  0  0  0  0  0
   -0.5340   -7.2303    0.4392 H   0  0  0  0  0  0  0  0  0  0  0  0
   -1.3217   -6.6238   -1.7830 H   0  0  0  0  0  0  0  0  0  0  0  0
    2.3714   -4.4827   -2.5020 H   0  0  0  0  0  0  0  0  0  0  0  0
    1.4127   -2.4032   -2.4039 H   0  0  0  0  0  0  0  0  0  0  0  0
    2.0711   -0.0901   -1.9548 H   0  0  0  0  0  0  0  0  0  0  0  0
    1.2722    3.6856   -3.6438 H   0  0  0  0  0  0  0  0  0  0  0  0
    0.8861    2.3325   -4.7723 H   0  0  0  0  0  0  0  0  0  0  0  0
    0.7072    2.1089   -2.9842 H   0  0  0  0  0  0  0  0  0  0  0  0
    3.0496    0.4303   -6.1152 H   0  0  0  0  0  0  0  0  0  0  0  0
    2.5124   -1.9474   -6.5464 H   0  0  0  0  0  0  0  0  0  0  0  0
    1.1676   -6.4144   -5.1251 H   0  0  0  0  0  0  0  0  0  0  0  0
    2.7728   -8.1011   -5.8480 H   0  0  0  0  0  0  0  0  0  0  0  0
    5.5514   -8.7157   -4.3376 H   0  0  0  0  0  0  0  0  0  0  0  0
    7.1637   -8.9553   -5.1278 H   0  0  0  0  0  0  0  0  0  0  0  0
    6.6785   -7.3104   -4.5821 H   0  0  0  0  0  0  0  0  0  0  0  0
    5.8459   -5.1070   -6.1252 H   0  0  0  0  0  0  0  0  0  0  0  0
    4.2860   -3.4097   -5.3297 H   0  0  0  0  0  0  0  0  0  0  0  0
   -2.9388    0.1994   -4.3387 H   0  0  0  0  0  0  0  0  0  0  0  0
   -3.7827    2.4237   -4.9835 H   0  0  0  0  0  0  0  0  0  0  0  0
   -7.5850    3.1096   -4.1303 H   0  0  0  0  0  0  0  0  0  0  0  0
   -7.3595    4.8264   -4.6601 H   0  0  0  0  0  0  0  0  0  0  0  0
   -5.9915    3.9461   -3.8666 H   0  0  0  0  0  0  0  0  0  0  0  0
   -7.5692    0.6767   -6.0704 H   0  0  0  0  0  0  0  0  0  0  0  0
   -6.7080   -1.5566   -5.4673 H   0  0  0  0  0  0  0  0  0  0  0  0
   -4.5843   -1.5277   -2.0980 H   0  0  0  0  0  0  0  0  0  0  0  0
   -5.4647   -3.0032   -0.3305 H   0  0  0  0  0  0  0  0  0  0  0  0
   -8.6573   -5.6416    0.4160 H   0  0  0  0  0  0  0  0  0  0  0  0
   -8.5624   -5.4770   -1.3813 H   0  0  0  0  0  0  0  0  0  0  0  0
   -8.1288   -4.0769   -0.3051 H   0  0  0  0  0  0  0  0  0  0  0  0
   -6.0292   -6.1382   -3.2318 H   0  0  0  0  0  0  0  0  0  0  0  0
   -5.1439   -4.6664   -5.0028 H   0  0  0  0  0  0  0  0  0  0  0  0
   -4.1031   -1.5002   -7.6534 H   0  0  0  0  0  0  0  0  0  0  0  0
   -0.2963    3.3596   -6.5723 H   0  0  0  0  0  0  0  0  0  0  0  0
   -4.5553    3.7771   -9.3421 H   0  0  0  0  0  0  0  0  0  0  0  0
   -3.6383    6.7587   -7.8431 H   0  0  0  0  0  0  0  0  0  0  0  0
   -3.0089    6.8165  -10.5518 H   0  0  0  0  0  0  0  0  0  0  0  0
   -2.3441    9.2280   -9.6630 H   0  0  0  0  0  0  0  0  0  0  0  0
   -0.1633    9.0195   -8.2594 H   0  0  0  0  0  0  0  0  0  0  0  0
    0.5750    6.4651   -8.2325 H   0  0  0  0  0  0  0  0  0  0  0  0
   -0.9391    5.1948  -10.0388 H   0  0  0  0  0  0  0  0  0  0  0  0
   -0.3493    6.7700  -10.7164 H   0  0  0  0  0  0  0  0  0  0  0  0
   -1.6309    6.5771   -6.5487 H   0  0  0  0  0  0  0  0  0  0  0  0
  1  2  2  3
  2  3  1  0
  3  4  2  0
  3  5  1  0
  5  6  2  0
  6  7  1  0
  7  8  2  0
  8  9  1  0
  9 10  2  0
 10 11  1  0
 11 12  2  3
 12 13  1  0
 13 14  3  0
 12 15  1  0
 15 16  3  0
  8 17  1  0
 17 18  1  0
 18 19  1  0
 19 20  2  0
 20 21  1  0
 21 22  1  0
 21 23  1  0
  1 24  1  0
 24 25  2  0
 25 26  1  0
 26 27  1  0
 27 28  2  0
 28 29  1  0
 29 30  2  0
 30 31  1  0
 31 32  1  0
 30 33  1  0
 33 34  2  0
 26 35  1  0
 35 36  2  0
 36 37  1  0
 37 38  2  0
 38 39  1  0
 39 40  1  0
 38 41  1  0
 41 42  2  0
 25 43  1  0
 43 44  1  0
 44 45  1  0
 45 46  2  0
 46 47  1  0
 47 48  1  0
 48 49  2  0
 49 50  1  0
 50 51  2  0
 51 52  1  0
 52 53  1  0
 51 54  1  0
 54 55  2  0
 47 56  1  0
 56 57  2  0
 57 58  1  0
 58 59  2  0
 59 60  1  0
 60 61  1  0
 59 62  1  0
 62 63  2  0
 46 64  1  0
 64 65  1  0
 45 66  1  0
 66 67  2  0
 67 68  1  0
 68 69  1  0
 69 70  1  0
 70 71  1  0
 69 72  1  0
 72 73  1  0
 69 74  1  0
 74 75  2  0
 75 76  1  0
 76 77  1  0
 77 78  2  0
 75 79  1  0
 79 80  2  0
 80 81  1  0
 81 82  2  0
 81 83  1  0
 83 84  2  0
 84 85  1  0
 85 86  1  0
 86 87  2  0
 87 88  1  0
 88 89  2  0
 89 90  1  0
 90 91  1  0
 89 92  1  0
 92 93  2  0
 85 94  1  0
 94 95  2  0
 95 96  1  0
 96 97  2  0
 97 98  1  0
 98 99  1  0
 97100  1  0
100101  2  0
 84102  1  0
102103  1  0
103104  1  0
104105  2  0
105106  1  0
106107  1  0
107108  2  0
108109  1  0
109110  2  0
110111  1  0
111112  1  0
110113  1  0
113114  2  0
106115  1  0
115116  2  0
116117  1  0
117118  2  0
118119  1  0
119120  1  0
118121  1  0
121122  2  0
105123  1  0
123124  1  0
104125  1  0
125126  2  3
126127  1  0
127128  2  0
127129  1  0
129130  2  0
130131  1  0
131132  2  0
132133  1  0
133134  2  0
134135  1  0
135136  2  3
136137  1  0
137138  3  0
136139  1  0
139140  3  0
132141  1  0
141142  1  0
142143  1  0
143144  2  0
144145  1  0
145146  1  0
145147  1  0
 11  2  1  0
 23 17  1  0
 65 24  1  0
 78 66  1  0
124 83  1  0
135126  1  0
147141  1  0
 10  5  1  0
 22 18  1  0
 34 27  1  0
 42 35  1  0
 64 43  2  0
 76 68  2  0
 93 86  1  0
101 94  1  0
123102  2  0
134129  1  0
146142  1  0
 23  7  1  0
 55 48  1  0
 63 56  1  0
 82 74  1  0
114107  1  0
122115  1  0
147131  1  0
  1148  1  0
  6149  1  0
  9150  1  0
 17151  1  0
 18152  1  0
 19153  1  0
 20154  1  0
 21155  1  0
 22156  1  0
 22157  1  0
 23158  1  0
 28159  1  0
 29160  1  0
 32161  1  0
 32162  1  0
 32163  1  0
 33164  1  0
 34165  1  0
 36166  1  0
 37167  1  0
 40168  1  0
 40169  1  0
 40170  1  0
 41171  1  0
 42172  1  0
 49173  1  0
 50174  1  0
 53175  1  0
 53176  1  0
 53177  1  0
 54178  1  0
 55179  1  0
 57180  1  0
 58181  1  0
 61182  1  0
 61183  1  0
 61184  1  0
 62185  1  0
 63186  1  0
 67187  1  0
 70188  1  0
 70189  1  0
 71190  1  0
 71191  1  0
 71192  1  0
 72193  1  0
 72194  1  0
 73195  1  0
 73196  1  0
 73197  1  0
 77198  1  0
 78199  1  0
 79200  1  0
 80201  1  0
 82202  1  0
 87203  1  0
 88204  1  0
 91205  1  0
 91206  1  0
 91207  1  0
 92208  1  0
 93209  1  0
 95210  1  0
 96211  1  0
 99212  1  0
 99213  1  0
 99214  1  0
100215  1  0
101216  1  0
108217  1  0
109218  1  0
112219  1  0
112220  1  0
112221  1  0
113222  1  0
114223  1  0
116224  1  0
117225  1  0
120226  1  0
120227  1  0
120228  1  0
121229  1  0
122230  1  0
125231  1  0
130232  1  0
133233  1  0
141234  1  0
142235  1  0
143236  1  0
144237  1  0
145238  1  0
146239  1  0
146240  1  0
147241  1  0
M  END

