
     RDKit          3D

173190  0  0  0  0  0  0  0  0999 V2000
   -0.6647    5.1993    3.8719 C   0  0  0  0  0  0  0  0  0  0  0  0
   -1.6826    4.9162    4.7119 C   0  0  0  0  0  0  0  0  0  0  0  0
   -3.0547    4.7590    4.2412 C   0  0  0  0  0  0  0  0  0  0  0  0
   -3.5959    5.4150    3.3133 O   0  0  0  0  0  0  0  0  0  0  0  0
   -3.7188    3.7753    5.0676 C   0  0  0  0  0  0  0  0  0  0  0  0
   -5.0136    3.2279    4.8880 C   0  0  0  0  0  0  0  0  0  0  0  0
   -5.3524    2.2750    5.8313 C   0  0  0  0  0  0  0  0  0  0  0  0
   -4.4744    1.8824    6.8956 C   0  0  0  0  0  0  0  0  0  0  0  0
   -3.2039    2.4027    7.0663 C   0  0  0  0  0  0  0  0  0  0  0  0
   -2.8445    3.3996    6.1174 C   0  0  0  0  0  0  0  0  0  0  0  0
   -1.6084    4.2251    6.0360 C   0  0  0  0  0  0  0  0  0  0  0  0
   -0.8818    4.6336    7.1046 C   0  0  0  0  0  0  0  0  0  0  0  0
   -0.2383    5.9214    7.1405 C   0  0  0  0  0  0  0  0  0  0  0  0
    0.2787    6.9591    7.1810 N   0  0  0  0  0  0  0  0  0  0  0  0
   -0.8822    3.9240    8.3579 C   0  0  0  0  0  0  0  0  0  0  0  0
   -0.8641    3.3601    9.3683 N   0  0  0  0  0  0  0  0  0  0  0  0
   -5.4990    0.9187    7.4082 C   0  0  0  0  0  0  0  0  0  0  0  0
   -5.2181   -0.5888    7.1361 C   0  0  0  0  0  0  0  0  0  0  0  0
   -6.5254   -1.3032    7.3703 C   0  0  0  0  0  0  0  0  0  0  0  0
   -7.3342   -0.9510    6.3584 C   0  0  0  0  0  0  0  0  0  0  0  0
   -6.5468   -0.0102    5.4871 C   0  0  0  0  0  0  0  0  0  0  0  0
   -5.1805   -0.6635    5.6158 C   0  0  0  0  0  0  0  0  0  0  0  0
   -6.3882    1.3039    6.3091 C   0  0  0  0  0  0  0  0  0  0  0  0
    0.7502    5.1457    4.2627 C   0  0  0  0  0  0  0  0  0  0  0  0
    1.6802    4.3236    3.7651 C   0  0  0  0  0  0  0  0  0  0  0  0
    1.5481    3.2944    2.7101 C   0  0  0  0  0  0  0  0  0  0  0  0
    1.3664    3.5763    1.3367 C   0  0  0  0  0  0  0  0  0  0  0  0
    0.2114    4.2521    0.8005 N   0  0  0  0  0  0  0  0  0  0  0  0
   -1.0526    3.5301    0.7762 C   0  0  0  0  0  0  0  0  0  0  0  0
   -1.0838    2.1281    0.5999 C   0  0  0  0  0  0  0  0  0  0  0  0
   -2.2960    1.4429    0.5035 C   0  0  0  0  0  0  0  0  0  0  0  0
   -3.5044    2.1309    0.6464 C   0  0  0  0  0  0  0  0  0  0  0  0
   -5.0571    1.2437    0.4987 S   0  0  0  0  0  0  0  0  0  0  0  0
   -4.9494    0.4938    2.1531 C   0  0  0  0  0  0  0  0  0  0  0  0
   -3.4917    3.5150    0.8373 C   0  0  0  0  0  0  0  0  0  0  0  0
   -2.2799    4.2140    0.8793 C   0  0  0  0  0  0  0  0  0  0  0  0
    0.4359    5.4048   -0.0518 C   0  0  0  0  0  0  0  0  0  0  0  0
    1.5326    6.2579    0.1890 C   0  0  0  0  0  0  0  0  0  0  0  0
    1.8360    7.2987   -0.6895 C   0  0  0  0  0  0  0  0  0  0  0  0
    1.0254    7.5367   -1.8081 C   0  0  0  0  0  0  0  0  0  0  0  0
    1.3921    8.8902   -2.9291 S   0  0  0  0  0  0  0  0  0  0  0  0
    2.1511    7.8261   -4.2021 C   0  0  0  0  0  0  0  0  0  0  0  0
   -0.0903    6.7237   -2.0399 C   0  0  0  0  0  0  0  0  0  0  0  0
   -0.3754    5.6576   -1.1822 C   0  0  0  0  0  0  0  0  0  0  0  0
    2.1130    2.7123    0.5358 C   0  0  0  0  0  0  0  0  0  0  0  0
    2.1410    2.4107   -1.1097 S   0  0  0  0  0  0  0  0  0  0  0  0
    3.0226    0.9528   -0.9829 C   0  0  0  0  0  0  0  0  0  0  0  0
    3.2720    0.7025    0.3835 C   0  0  0  0  0  0  0  0  0  0  0  0
    3.7038   -0.5517    0.9287 N   0  0  0  0  0  0  0  0  0  0  0  0
    2.7060   -1.5187    1.3732 C   0  0  0  0  0  0  0  0  0  0  0  0
    1.3424   -1.3450    1.0442 C   0  0  0  0  0  0  0  0  0  0  0  0
    0.3608   -2.1888    1.5705 C   0  0  0  0  0  0  0  0  0  0  0  0
    0.7231   -3.2516    2.4019 C   0  0  0  0  0  0  0  0  0  0  0  0
   -0.5451   -4.2773    3.1491 S   0  0  0  0  0  0  0  0  0  0  0  0
   -0.6215   -5.4623    1.7675 C   0  0  0  0  0  0  0  0  0  0  0  0
    2.0724   -3.4844    2.6833 C   0  0  0  0  0  0  0  0  0  0  0  0
    3.0586   -2.6398    2.1546 C   0  0  0  0  0  0  0  0  0  0  0  0
    5.0834   -0.6130    1.3367 C   0  0  0  0  0  0  0  0  0  0  0  0
    6.1011   -0.5478    0.3708 C   0  0  0  0  0  0  0  0  0  0  0  0
    7.4428   -0.5675    0.7559 C   0  0  0  0  0  0  0  0  0  0  0  0
    7.7823   -0.6498    2.1100 C   0  0  0  0  0  0  0  0  0  0  0  0
    9.5050   -0.7060    2.5990 S   0  0  0  0  0  0  0  0  0  0  0  0
    9.6227   -2.5140    2.4089 C   0  0  0  0  0  0  0  0  0  0  0  0
    6.7754   -0.6677    3.0797 C   0  0  0  0  0  0  0  0  0  0  0  0
    5.4320   -0.6348    2.6986 C   0  0  0  0  0  0  0  0  0  0  0  0
    2.7613    1.7201    1.1828 C   0  0  0  0  0  0  0  0  0  0  0  0
    2.5444    1.9048    2.8262 S   0  0  0  0  0  0  0  0  0  0  0  0
    3.2518    0.0754   -2.1454 C   0  0  0  0  0  0  0  0  0  0  0  0
    3.6669   -1.2588   -2.1645 C   0  0  0  0  0  0  0  0  0  0  0  0
    3.5858   -1.8475   -3.4439 C   0  0  0  0  0  0  0  0  0  0  0  0
    3.8877   -3.2737   -3.7181 C   0  0  0  0  0  0  0  0  0  0  0  0
    4.8530   -3.6059   -4.6864 C   0  0  0  0  0  0  0  0  0  0  0  0
    5.5827   -2.5642   -5.2957 O   0  0  0  0  0  0  0  0  0  0  0  0
    6.6707   -2.7300   -6.1984 C   0  0  0  0  0  0  0  0  0  0  0  0
    6.1663   -2.9840   -7.6165 C   0  0  0  0  0  0  0  0  0  0  0  0
    5.0890   -4.9616   -4.9898 C   0  0  0  0  0  0  0  0  0  0  0  0
    4.3765   -5.9633   -4.3375 C   0  0  0  0  0  0  0  0  0  0  0  0
    3.4453   -5.6356   -3.3548 C   0  0  0  0  0  0  0  0  0  0  0  0
    3.2178   -4.2912   -3.0102 C   0  0  0  0  0  0  0  0  0  0  0  0
    2.3359   -3.9352   -1.9773 O   0  0  0  0  0  0  0  0  0  0  0  0
    1.9172   -4.7962   -0.9226 C   0  0  0  0  0  0  0  0  0  0  0  0
    3.1105   -5.2413   -0.0802 C   0  0  0  0  0  0  0  0  0  0  0  0
    3.0853   -0.9804   -4.4185 C   0  0  0  0  0  0  0  0  0  0  0  0
    2.7873    0.5028   -3.7001 S   0  0  0  0  0  0  0  0  0  0  0  0
    2.3862   -1.3886   -5.6476 C   0  0  0  0  0  0  0  0  0  0  0  0
    1.0879   -1.7657   -5.6201 C   0  0  0  0  0  0  0  0  0  0  0  0
    0.2627   -1.8452   -4.4024 C   0  0  0  0  0  0  0  0  0  0  0  0
    0.6758   -1.8677   -3.2134 O   0  0  0  0  0  0  0  0  0  0  0  0
   -1.1257   -1.8053   -4.7759 C   0  0  0  0  0  0  0  0  0  0  0  0
   -2.2206   -1.7283   -3.8912 C   0  0  0  0  0  0  0  0  0  0  0  0
   -3.4358   -1.5867   -4.5243 C   0  0  0  0  0  0  0  0  0  0  0  0
   -3.5769   -1.5132   -5.9469 C   0  0  0  0  0  0  0  0  0  0  0  0
   -2.5015   -1.5910   -6.8197 C   0  0  0  0  0  0  0  0  0  0  0  0
   -1.2339   -1.7614   -6.1893 C   0  0  0  0  0  0  0  0  0  0  0  0
    0.1412   -1.8443   -6.7790 C   0  0  0  0  0  0  0  0  0  0  0  0
    0.4639   -2.0659   -8.0803 C   0  0  0  0  0  0  0  0  0  0  0  0
    1.8088   -2.3320   -8.5109 C   0  0  0  0  0  0  0  0  0  0  0  0
    2.8904   -2.5516   -8.8659 N   0  0  0  0  0  0  0  0  0  0  0  0
   -0.5224   -2.1164   -9.1297 C   0  0  0  0  0  0  0  0  0  0  0  0
   -1.3025   -2.1565   -9.9871 N   0  0  0  0  0  0  0  0  0  0  0  0
   -5.0625   -1.3473   -5.8030 C   0  0  0  0  0  0  0  0  0  0  0  0
   -5.9740   -2.5627   -6.1488 C   0  0  0  0  0  0  0  0  0  0  0  0
   -5.2355   -3.8553   -5.8782 C   0  0  0  0  0  0  0  0  0  0  0  0
   -5.0899   -3.9402   -4.5536 C   0  0  0  0  0  0  0  0  0  0  0  0
   -5.7361   -2.7041   -3.9682 C   0  0  0  0  0  0  0  0  0  0  0  0
   -6.8928   -2.5541   -4.9401 C   0  0  0  0  0  0  0  0  0  0  0  0
   -4.9176   -1.4345   -4.3467 C   0  0  0  0  0  0  0  0  0  0  0  0
   -0.8801    5.5252    2.8677 H   0  0  0  0  0  0  0  0  0  0  0  0
   -5.6662    3.5009    4.0710 H   0  0  0  0  0  0  0  0  0  0  0  0
   -2.5578    2.0448    7.8505 H   0  0  0  0  0  0  0  0  0  0  0  0
   -5.8854    1.1679    8.4209 H   0  0  0  0  0  0  0  0  0  0  0  0
   -4.3444   -1.0210    7.6651 H   0  0  0  0  0  0  0  0  0  0  0  0
   -6.7510   -2.0341    8.1389 H   0  0  0  0  0  0  0  0  0  0  0  0
   -8.3245   -1.3500    6.1722 H   0  0  0  0  0  0  0  0  0  0  0  0
   -6.9416    0.1122    4.4574 H   0  0  0  0  0  0  0  0  0  0  0  0
   -4.3545   -0.0836    5.1502 H   0  0  0  0  0  0  0  0  0  0  0  0
   -5.1493   -1.7087    5.2202 H   0  0  0  0  0  0  0  0  0  0  0  0
   -7.3366    1.7851    6.6372 H   0  0  0  0  0  0  0  0  0  0  0  0
    1.0895    5.8402    5.0088 H   0  0  0  0  0  0  0  0  0  0  0  0
    2.6550    4.3677    4.2347 H   0  0  0  0  0  0  0  0  0  0  0  0
   -0.1809    1.5540    0.5003 H   0  0  0  0  0  0  0  0  0  0  0  0
   -2.2961    0.3736    0.3366 H   0  0  0  0  0  0  0  0  0  0  0  0
   -5.8433   -0.1412    2.3235 H   0  0  0  0  0  0  0  0  0  0  0  0
   -4.9070    1.2785    2.9309 H   0  0  0  0  0  0  0  0  0  0  0  0
   -4.0483   -0.1481    2.2250 H   0  0  0  0  0  0  0  0  0  0  0  0
   -4.4242    4.0584    0.9253 H   0  0  0  0  0  0  0  0  0  0  0  0
   -2.2991    5.2892    0.9960 H   0  0  0  0  0  0  0  0  0  0  0  0
    2.1605    6.1081    1.0607 H   0  0  0  0  0  0  0  0  0  0  0  0
    2.6873    7.9360   -0.4915 H   0  0  0  0  0  0  0  0  0  0  0  0
    3.0791    7.3511   -3.8195 H   0  0  0  0  0  0  0  0  0  0  0  0
    2.4035    8.4464   -5.0891 H   0  0  0  0  0  0  0  0  0  0  0  0
    1.4318    7.0418   -4.5245 H   0  0  0  0  0  0  0  0  0  0  0  0
   -0.7194    6.8992   -2.9015 H   0  0  0  0  0  0  0  0  0  0  0  0
   -1.2029    5.0086   -1.4371 H   0  0  0  0  0  0  0  0  0  0  0  0
    1.0182   -0.5405    0.4012 H   0  0  0  0  0  0  0  0  0  0  0  0
   -0.6821   -2.0102    1.3404 H   0  0  0  0  0  0  0  0  0  0  0  0
   -1.4508   -6.1771    1.9564 H   0  0  0  0  0  0  0  0  0  0  0  0
    0.3355   -6.0226    1.6939 H   0  0  0  0  0  0  0  0  0  0  0  0
   -0.8298   -4.9329    0.8154 H   0  0  0  0  0  0  0  0  0  0  0  0
    2.3630   -4.3247    3.2990 H   0  0  0  0  0  0  0  0  0  0  0  0
    4.0914   -2.8664    2.3766 H   0  0  0  0  0  0  0  0  0  0  0  0
    5.8612   -0.4716   -0.6788 H   0  0  0  0  0  0  0  0  0  0  0  0
    8.2203   -0.5341    0.0023 H   0  0  0  0  0  0  0  0  0  0  0  0
    9.4344   -2.7967    1.3521 H   0  0  0  0  0  0  0  0  0  0  0  0
   10.6451   -2.8465    2.6906 H   0  0  0  0  0  0  0  0  0  0  0  0
    8.8825   -3.0143    3.0678 H   0  0  0  0  0  0  0  0  0  0  0  0
    7.0346   -0.7107    4.1306 H   0  0  0  0  0  0  0  0  0  0  0  0
    4.6659   -0.6220    3.4590 H   0  0  0  0  0  0  0  0  0  0  0  0
    3.9607   -1.8171   -1.2893 H   0  0  0  0  0  0  0  0  0  0  0  0
    7.3417   -3.5480   -5.8613 H   0  0  0  0  0  0  0  0  0  0  0  0
    7.2710   -1.7944   -6.2035 H   0  0  0  0  0  0  0  0  0  0  0  0
    7.0291   -3.2195   -8.2723 H   0  0  0  0  0  0  0  0  0  0  0  0
    5.6459   -2.0771   -7.9968 H   0  0  0  0  0  0  0  0  0  0  0  0
    5.4562   -3.8359   -7.6363 H   0  0  0  0  0  0  0  0  0  0  0  0
    5.8163   -5.2546   -5.7296 H   0  0  0  0  0  0  0  0  0  0  0  0
    4.5603   -6.9985   -4.5829 H   0  0  0  0  0  0  0  0  0  0  0  0
    2.9121   -6.4352   -2.8654 H   0  0  0  0  0  0  0  0  0  0  0  0
    1.2261   -4.2271   -0.2784 H   0  0  0  0  0  0  0  0  0  0  0  0
    1.3654   -5.6747   -1.3205 H   0  0  0  0  0  0  0  0  0  0  0  0
    3.7119   -6.0052   -0.6233 H   0  0  0  0  0  0  0  0  0  0  0  0
    3.7610   -4.3722    0.1424 H   0  0  0  0  0  0  0  0  0  0  0  0
    2.7574   -5.6913    0.8682 H   0  0  0  0  0  0  0  0  0  0  0  0
    2.8801   -1.1525   -6.5740 H   0  0  0  0  0  0  0  0  0  0  0  0
   -2.1241   -1.7359   -2.8156 H   0  0  0  0  0  0  0  0  0  0  0  0
   -2.6502   -1.4897   -7.8805 H   0  0  0  0  0  0  0  0  0  0  0  0
   -5.4418   -0.3628   -6.1551 H   0  0  0  0  0  0  0  0  0  0  0  0
   -6.4824   -2.5147   -7.1339 H   0  0  0  0  0  0  0  0  0  0  0  0
   -4.9430   -4.6105   -6.5965 H   0  0  0  0  0  0  0  0  0  0  0  0
   -4.6543   -4.7737   -4.0129 H   0  0  0  0  0  0  0  0  0  0  0  0
   -6.0248   -2.7865   -2.8990 H   0  0  0  0  0  0  0  0  0  0  0  0
   -7.4619   -1.6025   -4.8119 H   0  0  0  0  0  0  0  0  0  0  0  0
   -7.6053   -3.4157   -4.9155 H   0  0  0  0  0  0  0  0  0  0  0  0
   -5.2111   -0.5066   -3.8084 H   0  0  0  0  0  0  0  0  0  0  0  0
  1  2  2  3
  2  3  1  0
  3  4  2  0
  3  5  1  0
  5  6  2  0
  6  7  1  0
  7  8  2  0
  8  9  1  0
  9 10  2  0
 10 11  1  0
 11 12  2  3
 12 13  1  0
 13 14  3  0
 12 15  1  0
 15 16  3  0
  8 17  1  0
 17 18  1  0
 18 19  1  0
 19 20  2  0
 20 21  1  0
 21 22  1  0
 21 23  1  0
  1 24  1  0
 24 25  2  3
 25 26  1  0
 26 27  2  0
 27 28  1  0
 28 29  1  0
 29 30  2  0
 30 31  1  0
 31 32  2  0
 32 33  1  0
 33 34  1  0
 32 35  1  0
 35 36  2  0
 28 37  1  0
 37 38  2  0
 38 39  1  0
 39 40  2  0
 40 41  1  0
 41 42  1  0
 40 43  1  0
 43 44  2  0
 27 45  1  0
 45 46  1  0
 46 47  1  0
 47 48  2  0
 48 49  1  0
 49 50  1  0
 50 51  2  0
 51 52  1  0
 52 53  2  0
 53 54  1  0
 54 55  1  0
 53 56  1  0
 56 57  2  0
 49 58  1  0
 58 59  2  0
 59 60  1  0
 60 61  2  0
 61 62  1  0
 62 63  1  0
 61 64  1  0
 64 65  2  0
 48 66  1  0
 66 67  1  0
 47 68  1  0
 68 69  2  0
 69 70  1  0
 70 71  1  0
 71 72  2  0
 72 73  1  0
 73 74  1  0
 74 75  1  0
 72 76  1  0
 76 77  2  0
 77 78  1  0
 78 79  2  0
 79 80  1  0
 80 81  1  0
 81 82  1  0
 70 83  2  0
 83 84  1  0
 83 85  1  0
 85 86  2  3
 86 87  1  0
 87 88  2  0
 87 89  1  0
 89 90  2  0
 90 91  1  0
 91 92  2  0
 92 93  1  0
 93 94  2  0
 94 95  1  0
 95 96  2  3
 96 97  1  0
 97 98  3  0
 96 99  1  0
 99100  3  0
 92101  1  0
101102  1  0
102103  1  0
103104  2  0
104105  1  0
105106  1  0
105107  1  0
 11  2  1  0
 23 17  1  0
 67 26  1  0
 84 68  1  0
 95 86  1  0
107101  1  0
 10  5  1  0
 22 18  1  0
 36 29  1  0
 44 37  1  0
 66 45  2  0
 79 71  1  0
 94 89  1  0
106102  1  0
 23  7  1  0
 57 50  1  0
 65 58  1  0
107 91  1  0
  1108  1  0
  6109  1  0
  9110  1  0
 17111  1  0
 18112  1  0
 19113  1  0
 20114  1  0
 21115  1  0
 22116  1  0
 22117  1  0
 23118  1  0
 24119  1  0
 25120  1  0
 30121  1  0
 31122  1  0
 34123  1  0
 34124  1  0
 34125  1  0
 35126  1  0
 36127  1  0
 38128  1  0
 39129  1  0
 42130  1  0
 42131  1  0
 42132  1  0
 43133  1  0
 44134  1  0
 51135  1  0
 52136  1  0
 55137  1  0
 55138  1  0
 55139  1  0
 56140  1  0
 57141  1  0
 59142  1  0
 60143  1  0
 63144  1  0
 63145  1  0
 63146  1  0
 64147  1  0
 65148  1  0
 69149  1  0
 74150  1  0
 74151  1  0
 75152  1  0
 75153  1  0
 75154  1  0
 76155  1  0
 77156  1  0
 78157  1  0
 81158  1  0
 81159  1  0
 82160  1  0
 82161  1  0
 82162  1  0
 85163  1  0
 90164  1  0
 93165  1  0
101166  1  0
102167  1  0
103168  1  0
104169  1  0
105170  1  0
106171  1  0
106172  1  0
107173  1  0
M  END

