
     RDKit          3D

161177  0  0  0  0  0  0  0  0999 V2000
    2.8244   -1.3093   -4.2875 C   0  0  0  0  0  0  0  0  0  0  0  0
    3.7753   -2.1454   -4.7596 C   0  0  0  0  0  0  0  0  0  0  0  0
    4.5453   -3.1651   -4.0319 C   0  0  0  0  0  0  0  0  0  0  0  0
    4.1599   -3.8272   -3.0357 O   0  0  0  0  0  0  0  0  0  0  0  0
    5.7683   -3.4301   -4.7656 C   0  0  0  0  0  0  0  0  0  0  0  0
    6.8455   -4.2555   -4.3616 C   0  0  0  0  0  0  0  0  0  0  0  0
    7.9123   -4.2563   -5.2436 C   0  0  0  0  0  0  0  0  0  0  0  0
    7.9289   -3.4758   -6.4448 C   0  0  0  0  0  0  0  0  0  0  0  0
    6.8821   -2.6641   -6.8431 C   0  0  0  0  0  0  0  0  0  0  0  0
    5.7575   -2.6835   -5.9707 C   0  0  0  0  0  0  0  0  0  0  0  0
    4.4492   -1.9850   -6.0925 C   0  0  0  0  0  0  0  0  0  0  0  0
    3.8911   -1.5261   -7.2485 C   0  0  0  0  0  0  0  0  0  0  0  0
    2.5117   -1.1206   -7.3439 C   0  0  0  0  0  0  0  0  0  0  0  0
    1.4060   -0.7904   -7.4277 N   0  0  0  0  0  0  0  0  0  0  0  0
    4.5949   -1.5283   -8.5051 C   0  0  0  0  0  0  0  0  0  0  0  0
    5.1455   -1.5320   -9.5234 N   0  0  0  0  0  0  0  0  0  0  0  0
    9.3124   -3.9515   -6.7588 C   0  0  0  0  0  0  0  0  0  0  0  0
   10.4690   -2.9386   -6.5096 C   0  0  0  0  0  0  0  0  0  0  0  0
   11.7385   -3.7559   -6.5223 C   0  0  0  0  0  0  0  0  0  0  0  0
   11.7246   -4.4968   -5.4069 C   0  0  0  0  0  0  0  0  0  0  0  0
   10.4460   -4.1526   -4.6810 C   0  0  0  0  0  0  0  0  0  0  0  0
   10.3788   -2.6719   -5.0165 C   0  0  0  0  0  0  0  0  0  0  0  0
    9.2945   -4.7590   -5.5346 C   0  0  0  0  0  0  0  0  0  0  0  0
    2.2317   -1.1852   -2.9266 C   0  0  0  0  0  0  0  0  0  0  0  0
    1.2029   -0.2646   -2.6115 C   0  0  0  0  0  0  0  0  0  0  0  0
    0.7554    0.8135   -3.4657 N   0  0  0  0  0  0  0  0  0  0  0  0
   -0.6341    1.1917   -3.4585 C   0  0  0  0  0  0  0  0  0  0  0  0
   -1.0058    2.5176   -3.1813 C   0  0  0  0  0  0  0  0  0  0  0  0
   -2.3532    2.8631   -3.0597 C   0  0  0  0  0  0  0  0  0  0  0  0
   -3.3450    1.8914   -3.2296 C   0  0  0  0  0  0  0  0  0  0  0  0
   -5.0738    2.3266   -3.0331 S   0  0  0  0  0  0  0  0  0  0  0  0
   -5.2713    2.8183   -4.7766 C   0  0  0  0  0  0  0  0  0  0  0  0
   -2.9833    0.5704   -3.5237 C   0  0  0  0  0  0  0  0  0  0  0  0
   -1.6328    0.2203   -3.6325 C   0  0  0  0  0  0  0  0  0  0  0  0
    1.7182    1.6657   -4.1202 C   0  0  0  0  0  0  0  0  0  0  0  0
    2.9393    1.9781   -3.4939 C   0  0  0  0  0  0  0  0  0  0  0  0
    3.9347    2.6662   -4.1910 C   0  0  0  0  0  0  0  0  0  0  0  0
    3.7229    3.0476   -5.5200 C   0  0  0  0  0  0  0  0  0  0  0  0
    5.0470    3.8264   -6.4426 S   0  0  0  0  0  0  0  0  0  0  0  0
    5.6896    2.2417   -7.0728 C   0  0  0  0  0  0  0  0  0  0  0  0
    2.4910    2.7883   -6.1332 C   0  0  0  0  0  0  0  0  0  0  0  0
    1.4927    2.1035   -5.4358 C   0  0  0  0  0  0  0  0  0  0  0  0
    0.8131   -0.3707   -1.2784 C   0  0  0  0  0  0  0  0  0  0  0  0
   -0.2552    0.4923   -0.3323 S   0  0  0  0  0  0  0  0  0  0  0  0
    0.1701   -0.2989    1.1009 C   0  0  0  0  0  0  0  0  0  0  0  0
    1.1779   -1.2459    0.8443 C   0  0  0  0  0  0  0  0  0  0  0  0
    1.9642   -1.8815    1.8647 N   0  0  0  0  0  0  0  0  0  0  0  0
    2.6477   -1.0847    2.8499 C   0  0  0  0  0  0  0  0  0  0  0  0
    3.2789    0.1176    2.4865 C   0  0  0  0  0  0  0  0  0  0  0  0
    3.9273    0.8963    3.4498 C   0  0  0  0  0  0  0  0  0  0  0  0
    3.9780    0.4657    4.7805 C   0  0  0  0  0  0  0  0  0  0  0  0
    4.8102    1.4595    6.0167 S   0  0  0  0  0  0  0  0  0  0  0  0
    6.4581    0.8145    5.5984 C   0  0  0  0  0  0  0  0  0  0  0  0
    3.3742   -0.7420    5.1453 C   0  0  0  0  0  0  0  0  0  0  0  0
    2.7114   -1.5141    4.1859 C   0  0  0  0  0  0  0  0  0  0  0  0
    2.2658   -3.2800    1.7746 C   0  0  0  0  0  0  0  0  0  0  0  0
    3.5618   -3.7024    1.4417 C   0  0  0  0  0  0  0  0  0  0  0  0
    3.8834   -5.0618    1.4493 C   0  0  0  0  0  0  0  0  0  0  0  0
    2.9260   -6.0057    1.8382 C   0  0  0  0  0  0  0  0  0  0  0  0
    3.3578   -7.7431    1.9226 S   0  0  0  0  0  0  0  0  0  0  0  0
    4.0026   -7.6284    3.6241 C   0  0  0  0  0  0  0  0  0  0  0  0
    1.6335   -5.5869    2.1794 C   0  0  0  0  0  0  0  0  0  0  0  0
    1.3003   -4.2295    2.1419 C   0  0  0  0  0  0  0  0  0  0  0  0
    1.4980   -1.2599   -0.5194 C   0  0  0  0  0  0  0  0  0  0  0  0
    2.6511   -2.0077   -1.4831 S   0  0  0  0  0  0  0  0  0  0  0  0
   -0.5916   -0.0754    2.3377 C   0  0  0  0  0  0  0  0  0  0  0  0
   -1.8278   -0.7380    2.4932 C   0  0  0  0  0  0  0  0  0  0  0  0
   -2.0685   -1.8772    1.7111 O   0  0  0  0  0  0  0  0  0  0  0  0
   -2.6103   -3.0938    2.2202 C   0  0  0  0  0  0  0  0  0  0  0  0
   -2.5425   -4.1620    1.1387 C   0  0  0  0  0  0  0  0  0  0  0  0
   -2.8276   -0.1868    3.3354 C   0  0  0  0  0  0  0  0  0  0  0  0
   -4.1230   -0.7059    3.3368 O   0  0  0  0  0  0  0  0  0  0  0  0
   -5.0115   -0.4987    2.2422 C   0  0  0  0  0  0  0  0  0  0  0  0
   -6.3939   -1.0098    2.6116 C   0  0  0  0  0  0  0  0  0  0  0  0
   -2.5660    0.9800    4.0884 C   0  0  0  0  0  0  0  0  0  0  0  0
   -1.2931    1.5595    4.0216 C   0  0  0  0  0  0  0  0  0  0  0  0
   -0.3158    1.0481    3.1265 C   0  0  0  0  0  0  0  0  0  0  0  0
    0.8353    1.7596    3.0207 N   0  0  0  0  0  0  0  0  0  0  0  0
    0.5498    2.9725    4.1007 S   0  0  0  0  0  0  0  0  0  0  0  0
   -0.9668    2.6959    4.6929 N   0  0  0  0  0  0  0  0  0  0  0  0
   -3.6903    1.7991    4.5709 C   0  0  0  0  0  0  0  0  0  0  0  0
   -4.7117    1.4429    5.4406 C   0  0  0  0  0  0  0  0  0  0  0  0
   -5.0393    0.2423    6.1992 C   0  0  0  0  0  0  0  0  0  0  0  0
   -4.2663   -0.7301    6.4089 O   0  0  0  0  0  0  0  0  0  0  0  0
   -6.4107    0.2879    6.6109 N   0  0  0  0  0  0  0  0  0  0  0  0
   -7.2107   -0.8676    6.9946 C   0  0  0  0  0  0  0  0  0  0  0  0
   -6.9225    1.4923    6.0324 C   0  0  0  0  0  0  0  0  0  0  0  0
   -8.1356    1.8405    6.0696 O   0  0  0  0  0  0  0  0  0  0  0  0
   -5.8552    2.2074    5.3454 C   0  0  0  0  0  0  0  0  0  0  0  0
   -5.8263    3.2107    4.3882 C   0  0  0  0  0  0  0  0  0  0  0  0
   -4.3103    3.0828    3.6596 S   0  0  0  0  0  0  0  0  0  0  0  0
   -6.9859    3.8367    3.7401 C   0  0  0  0  0  0  0  0  0  0  0  0
   -7.8544    4.6431    4.3703 C   0  0  0  0  0  0  0  0  0  0  0  0
   -7.6766    5.2063    5.7294 C   0  0  0  0  0  0  0  0  0  0  0  0
   -6.8041    4.8790    6.5772 O   0  0  0  0  0  0  0  0  0  0  0  0
   -8.6447    6.2680    5.8852 C   0  0  0  0  0  0  0  0  0  0  0  0
   -8.9145    7.2179    6.8660 C   0  0  0  0  0  0  0  0  0  0  0  0
   -9.9422    8.0771    6.4592 C   0  0  0  0  0  0  0  0  0  0  0  0
  -10.4730    7.6375    4.9019 S   0  0  0  0  0  0  0  0  0  0  0  0
   -9.3931    6.3588    4.7625 C   0  0  0  0  0  0  0  0  0  0  0  0
   -9.0210    5.3555    3.7545 C   0  0  0  0  0  0  0  0  0  0  0  0
   -9.6815    5.0982    2.6009 C   0  0  0  0  0  0  0  0  0  0  0  0
   -9.3705    3.9712    1.7596 C   0  0  0  0  0  0  0  0  0  0  0  0
   -9.1293    3.0659    1.0789 N   0  0  0  0  0  0  0  0  0  0  0  0
  -10.7973    5.9087    2.1878 C   0  0  0  0  0  0  0  0  0  0  0  0
  -11.6948    6.5550    1.8510 N   0  0  0  0  0  0  0  0  0  0  0  0
    2.4646   -0.5707   -4.9714 H   0  0  0  0  0  0  0  0  0  0  0  0
    6.8519   -4.8202   -3.4402 H   0  0  0  0  0  0  0  0  0  0  0  0
    6.9686   -2.0437   -7.7196 H   0  0  0  0  0  0  0  0  0  0  0  0
    9.3796   -4.5412   -7.7002 H   0  0  0  0  0  0  0  0  0  0  0  0
   10.4775   -2.0443   -7.1641 H   0  0  0  0  0  0  0  0  0  0  0  0
   12.5499   -3.7035   -7.2424 H   0  0  0  0  0  0  0  0  0  0  0  0
   12.5232   -5.1479   -5.0649 H   0  0  0  0  0  0  0  0  0  0  0  0
   10.4308   -4.4026   -3.5995 H   0  0  0  0  0  0  0  0  0  0  0  0
    9.4380   -2.1713   -4.6985 H   0  0  0  0  0  0  0  0  0  0  0  0
   11.2439   -2.0885   -4.6163 H   0  0  0  0  0  0  0  0  0  0  0  0
    9.3408   -5.8565   -5.7023 H   0  0  0  0  0  0  0  0  0  0  0  0
   -0.2493    3.2750   -3.0164 H   0  0  0  0  0  0  0  0  0  0  0  0
   -2.6267    3.8838   -2.8223 H   0  0  0  0  0  0  0  0  0  0  0  0
   -4.5562    3.6295   -5.0339 H   0  0  0  0  0  0  0  0  0  0  0  0
   -5.1022    1.9428   -5.4413 H   0  0  0  0  0  0  0  0  0  0  0  0
   -6.3049    3.1919   -4.9325 H   0  0  0  0  0  0  0  0  0  0  0  0
   -3.7451   -0.1870   -3.6534 H   0  0  0  0  0  0  0  0  0  0  0  0
   -1.3624   -0.8075   -3.8395 H   0  0  0  0  0  0  0  0  0  0  0  0
    3.1301    1.6627   -2.4761 H   0  0  0  0  0  0  0  0  0  0  0  0
    4.8824    2.8705   -3.7048 H   0  0  0  0  0  0  0  0  0  0  0  0
    4.9691    1.8075   -7.8013 H   0  0  0  0  0  0  0  0  0  0  0  0
    6.6544    2.4206   -7.5870 H   0  0  0  0  0  0  0  0  0  0  0  0
    5.8566    1.5261   -6.2408 H   0  0  0  0  0  0  0  0  0  0  0  0
    2.3220    3.0818   -7.1595 H   0  0  0  0  0  0  0  0  0  0  0  0
    0.5645    1.8652   -5.9367 H   0  0  0  0  0  0  0  0  0  0  0  0
    3.2620    0.4583    1.4595 H   0  0  0  0  0  0  0  0  0  0  0  0
    4.3977    1.8279    3.1583 H   0  0  0  0  0  0  0  0  0  0  0  0
    7.1973    1.2161    6.3184 H   0  0  0  0  0  0  0  0  0  0  0  0
    6.4684   -0.2946    5.6585 H   0  0  0  0  0  0  0  0  0  0  0  0
    6.7430    1.1383    4.5775 H   0  0  0  0  0  0  0  0  0  0  0  0
    3.4093   -1.0782    6.1762 H   0  0  0  0  0  0  0  0  0  0  0  0
    2.2337   -2.4364    4.4922 H   0  0  0  0  0  0  0  0  0  0  0  0
    4.3195   -2.9743    1.1726 H   0  0  0  0  0  0  0  0  0  0  0  0
    4.8842   -5.3778    1.1811 H   0  0  0  0  0  0  0  0  0  0  0  0
    4.1966   -8.6490    4.0075 H   0  0  0  0  0  0  0  0  0  0  0  0
    3.2601   -7.1367    4.2861 H   0  0  0  0  0  0  0  0  0  0  0  0
    4.9473   -7.0467    3.6292 H   0  0  0  0  0  0  0  0  0  0  0  0
    0.8969   -6.3105    2.5040 H   0  0  0  0  0  0  0  0  0  0  0  0
    0.3118   -3.9123    2.4417 H   0  0  0  0  0  0  0  0  0  0  0  0
   -2.0198   -3.4263    3.1019 H   0  0  0  0  0  0  0  0  0  0  0  0
   -3.6704   -2.9676    2.5178 H   0  0  0  0  0  0  0  0  0  0  0  0
   -3.1604   -3.8572    0.2669 H   0  0  0  0  0  0  0  0  0  0  0  0
   -1.4945   -4.3034    0.8001 H   0  0  0  0  0  0  0  0  0  0  0  0
   -2.9259   -5.1263    1.5319 H   0  0  0  0  0  0  0  0  0  0  0  0
   -4.6435   -1.0307    1.3372 H   0  0  0  0  0  0  0  0  0  0  0  0
   -5.0774    0.5881    2.0137 H   0  0  0  0  0  0  0  0  0  0  0  0
   -6.3590   -2.1003    2.8138 H   0  0  0  0  0  0  0  0  0  0  0  0
   -6.7630   -0.4826    3.5155 H   0  0  0  0  0  0  0  0  0  0  0  0
   -7.0998   -0.8175    1.7777 H   0  0  0  0  0  0  0  0  0  0  0  0
   -8.1513   -0.5353    7.4804 H   0  0  0  0  0  0  0  0  0  0  0  0
   -7.4556   -1.4647    6.0915 H   0  0  0  0  0  0  0  0  0  0  0  0
   -6.6436   -1.4989    7.7103 H   0  0  0  0  0  0  0  0  0  0  0  0
   -7.0545    3.6883    2.6738 H   0  0  0  0  0  0  0  0  0  0  0  0
   -8.3905    7.2911    7.8099 H   0  0  0  0  0  0  0  0  0  0  0  0
  -10.3249    8.9025    7.0421 H   0  0  0  0  0  0  0  0  0  0  0  0
  1  2  2  3
  2  3  1  0
  3  4  2  0
  3  5  1  0
  5  6  2  0
  6  7  1  0
  7  8  2  0
  8  9  1  0
  9 10  2  0
 10 11  1  0
 11 12  2  3
 12 13  1  0
 13 14  3  0
 12 15  1  0
 15 16  3  0
  8 17  1  0
 17 18  1  0
 18 19  1  0
 19 20  2  0
 20 21  1  0
 21 22  1  0
 21 23  1  0
  1 24  1  0
 24 25  2  0
 25 26  1  0
 26 27  1  0
 27 28  2  0
 28 29  1  0
 29 30  2  0
 30 31  1  0
 31 32  1  0
 30 33  1  0
 33 34  2  0
 26 35  1  0
 35 36  2  0
 36 37  1  0
 37 38  2  0
 38 39  1  0
 39 40  1  0
 38 41  1  0
 41 42  2  0
 25 43  1  0
 43 44  1  0
 44 45  1  0
 45 46  2  0
 46 47  1  0
 47 48  1  0
 48 49  2  0
 49 50  1  0
 50 51  2  0
 51 52  1  0
 52 53  1  0
 51 54  1  0
 54 55  2  0
 47 56  1  0
 56 57  2  0
 57 58  1  0
 58 59  2  0
 59 60  1  0
 60 61  1  0
 59 62  1  0
 62 63  2  0
 46 64  1  0
 64 65  1  0
 45 66  1  0
 66 67  2  0
 67 68  1  0
 68 69  1  0
 69 70  1  0
 67 71  1  0
 71 72  1  0
 72 73  1  0
 73 74  1  0
 71 75  2  0
 75 76  1  0
 76 77  1  0
 77 78  2  0
 78 79  1  0
 79 80  1  0
 75 81  1  0
 81 82  2  0
 82 83  1  0
 83 84  2  0
 83 85  1  0
 85 86  1  0
 85 87  1  0
 87 88  2  0
 87 89  1  0
 89 90  2  0
 90 91  1  0
 90 92  1  0
 92 93  2  3
 93 94  1  0
 94 95  2  0
 94 96  1  0
 96 97  1  0
 97 98  2  0
 98 99  1  0
 99100  1  0
100101  1  0
101102  2  3
102103  1  0
103104  3  0
102105  1  0
105106  3  0
 11  2  1  0
 23 17  1  0
 65 24  1  0
 77 66  1  0
 91 81  1  0
101 93  1  0
 10  5  1  0
 22 18  1  0
 34 27  1  0
 42 35  1  0
 64 43  2  0
 80 76  2  0
 89 82  1  0
100 96  2  0
 23  7  1  0
 55 48  1  0
 63 56  1  0
  1107  1  0
  6108  1  0
  9109  1  0
 17110  1  0
 18111  1  0
 19112  1  0
 20113  1  0
 21114  1  0
 22115  1  0
 22116  1  0
 23117  1  0
 28118  1  0
 29119  1  0
 32120  1  0
 32121  1  0
 32122  1  0
 33123  1  0
 34124  1  0
 36125  1  0
 37126  1  0
 40127  1  0
 40128  1  0
 40129  1  0
 41130  1  0
 42131  1  0
 49132  1  0
 50133  1  0
 53134  1  0
 53135  1  0
 53136  1  0
 54137  1  0
 55138  1  0
 57139  1  0
 58140  1  0
 61141  1  0
 61142  1  0
 61143  1  0
 62144  1  0
 63145  1  0
 69146  1  0
 69147  1  0
 70148  1  0
 70149  1  0
 70150  1  0
 73151  1  0
 73152  1  0
 74153  1  0
 74154  1  0
 74155  1  0
 86156  1  0
 86157  1  0
 86158  1  0
 92159  1  0
 97160  1  0
 98161  1  0
M  END

