
     RDKit          3D

218240  0  0  0  0  0  0  0  0999 V2000
    4.7694    7.3120   -2.3724 C   0  0  0  0  0  0  0  0  0  0  0  0
    4.5795    7.2956   -1.0326 C   0  0  0  0  0  0  0  0  0  0  0  0
    3.7561    6.3063   -0.3136 C   0  0  0  0  0  0  0  0  0  0  0  0
    2.8551    5.5731   -0.7987 O   0  0  0  0  0  0  0  0  0  0  0  0
    4.1515    6.2877    1.0683 C   0  0  0  0  0  0  0  0  0  0  0  0
    3.6914    5.3850    2.0540 C   0  0  0  0  0  0  0  0  0  0  0  0
    4.2862    5.5560    3.2884 C   0  0  0  0  0  0  0  0  0  0  0  0
    5.2651    6.5642    3.5506 C   0  0  0  0  0  0  0  0  0  0  0  0
    5.7224    7.4531    2.5803 C   0  0  0  0  0  0  0  0  0  0  0  0
    5.1354    7.2822    1.2931 C   0  0  0  0  0  0  0  0  0  0  0  0
    5.3879    8.0103    0.0091 C   0  0  0  0  0  0  0  0  0  0  0  0
    6.0669    9.1729   -0.1567 C   0  0  0  0  0  0  0  0  0  0  0  0
    5.9975    9.9300   -1.3801 C   0  0  0  0  0  0  0  0  0  0  0  0
    5.9410   10.5579   -2.3480 N   0  0  0  0  0  0  0  0  0  0  0  0
    6.8396    9.7852    0.8873 C   0  0  0  0  0  0  0  0  0  0  0  0
    7.4705   10.2930    1.7151 N   0  0  0  0  0  0  0  0  0  0  0  0
    5.3544    6.1188    4.9825 C   0  0  0  0  0  0  0  0  0  0  0  0
    4.6542    6.9942    6.0649 C   0  0  0  0  0  0  0  0  0  0  0  0
    3.4370    7.6757    5.4767 C   0  0  0  0  0  0  0  0  0  0  0  0
    2.5426    6.7179    5.2346 C   0  0  0  0  0  0  0  0  0  0  0  0
    3.1822    5.4162    5.6569 C   0  0  0  0  0  0  0  0  0  0  0  0
    3.9551    5.9123    6.8663 C   0  0  0  0  0  0  0  0  0  0  0  0
    4.3664    5.0709    4.7036 C   0  0  0  0  0  0  0  0  0  0  0  0
    4.0279    6.4065   -3.2678 C   0  0  0  0  0  0  0  0  0  0  0  0
    4.6527    5.2656   -3.7841 C   0  0  0  0  0  0  0  0  0  0  0  0
    6.0039    5.1330   -3.7209 F   0  0  0  0  0  0  0  0  0  0  0  0
    3.8763    4.1892   -4.2245 C   0  0  0  0  0  0  0  0  0  0  0  0
    2.4729    4.2177   -4.0846 C   0  0  0  0  0  0  0  0  0  0  0  0
    1.8654    5.4710   -3.8072 C   0  0  0  0  0  0  0  0  0  0  0  0
    0.5217    5.6351   -3.7897 F   0  0  0  0  0  0  0  0  0  0  0  0
    2.6477    6.5568   -3.4121 C   0  0  0  0  0  0  0  0  0  0  0  0
    1.6750    2.9519   -4.0276 C   0  0  0  0  0  0  0  0  0  0  0  0
    2.1403    1.6431   -3.7136 C   0  0  0  0  0  0  0  0  0  0  0  0
    3.5086    1.2491   -3.5140 N   0  0  0  0  0  0  0  0  0  0  0  0
    4.0056    1.1812   -2.1600 C   0  0  0  0  0  0  0  0  0  0  0  0
    4.0733    2.3343   -1.3624 C   0  0  0  0  0  0  0  0  0  0  0  0
    4.6464    2.2783   -0.0883 C   0  0  0  0  0  0  0  0  0  0  0  0
    5.1441    1.0701    0.4092 C   0  0  0  0  0  0  0  0  0  0  0  0
    5.9656    1.0246    2.0007 S   0  0  0  0  0  0  0  0  0  0  0  0
    7.6297    1.2062    1.2750 C   0  0  0  0  0  0  0  0  0  0  0  0
    5.0332   -0.0947   -0.3580 C   0  0  0  0  0  0  0  0  0  0  0  0
    4.4679   -0.0411   -1.6304 C   0  0  0  0  0  0  0  0  0  0  0  0
    4.2105    0.5504   -4.5753 C   0  0  0  0  0  0  0  0  0  0  0  0
    5.6171    0.4887   -4.5665 C   0  0  0  0  0  0  0  0  0  0  0  0
    6.3013   -0.2771   -5.5146 C   0  0  0  0  0  0  0  0  0  0  0  0
    5.5928   -0.9786   -6.4965 C   0  0  0  0  0  0  0  0  0  0  0  0
    6.4588   -2.0584   -7.6322 S   0  0  0  0  0  0  0  0  0  0  0  0
    6.2950   -3.5084   -6.5401 C   0  0  0  0  0  0  0  0  0  0  0  0
    4.2036   -0.8657   -6.5635 C   0  0  0  0  0  0  0  0  0  0  0  0
    3.5126   -0.1120   -5.6101 C   0  0  0  0  0  0  0  0  0  0  0  0
    1.0881    0.7681   -3.4485 C   0  0  0  0  0  0  0  0  0  0  0  0
    1.0220   -0.7213   -2.6941 S   0  0  0  0  0  0  0  0  0  0  0  0
   -0.6627   -0.6877   -2.4447 C   0  0  0  0  0  0  0  0  0  0  0  0
   -1.1647    0.5423   -2.9199 C   0  0  0  0  0  0  0  0  0  0  0  0
   -2.3764    1.1516   -2.4444 N   0  0  0  0  0  0  0  0  0  0  0  0
   -2.4841    1.5671   -1.0533 C   0  0  0  0  0  0  0  0  0  0  0  0
   -3.6933    2.0944   -0.5499 C   0  0  0  0  0  0  0  0  0  0  0  0
   -3.7763    2.5719    0.7613 C   0  0  0  0  0  0  0  0  0  0  0  0
   -2.6781    2.4548    1.6211 C   0  0  0  0  0  0  0  0  0  0  0  0
   -2.7939    3.0153    3.3210 S   0  0  0  0  0  0  0  0  0  0  0  0
   -2.1602    4.6753    2.9382 C   0  0  0  0  0  0  0  0  0  0  0  0
   -1.4875    1.8902    1.1565 C   0  0  0  0  0  0  0  0  0  0  0  0
   -1.3821    1.4724   -0.1707 C   0  0  0  0  0  0  0  0  0  0  0  0
   -3.3010    1.6137   -3.4426 C   0  0  0  0  0  0  0  0  0  0  0  0
   -3.4342    2.9900   -3.6998 C   0  0  0  0  0  0  0  0  0  0  0  0
   -4.2121    3.4314   -4.7720 C   0  0  0  0  0  0  0  0  0  0  0  0
   -4.8795    2.5039   -5.5835 C   0  0  0  0  0  0  0  0  0  0  0  0
   -5.8231    3.0720   -7.0032 S   0  0  0  0  0  0  0  0  0  0  0  0
   -4.4325    2.8307   -8.1538 C   0  0  0  0  0  0  0  0  0  0  0  0
   -4.7939    1.1356   -5.2963 C   0  0  0  0  0  0  0  0  0  0  0  0
   -3.9889    0.6926   -4.2467 C   0  0  0  0  0  0  0  0  0  0  0  0
   -0.1522    1.3005   -3.5042 C   0  0  0  0  0  0  0  0  0  0  0  0
   -0.0271    2.9154   -3.8892 S   0  0  0  0  0  0  0  0  0  0  0  0
   -1.4236   -1.6489   -1.6254 C   0  0  0  0  0  0  0  0  0  0  0  0
   -0.9168   -2.5081   -0.6276 C   0  0  0  0  0  0  0  0  0  0  0  0
    0.4643   -2.8127   -0.3933 N   0  0  0  0  0  0  0  0  0  0  0  0
    0.8874   -4.0897   -0.9124 C   0  0  0  0  0  0  0  0  0  0  0  0
    1.0404   -4.2684   -2.2961 C   0  0  0  0  0  0  0  0  0  0  0  0
    1.2431   -5.5440   -2.8253 C   0  0  0  0  0  0  0  0  0  0  0  0
    1.2494   -6.6585   -1.9824 C   0  0  0  0  0  0  0  0  0  0  0  0
    1.3188   -8.3056   -2.6945 S   0  0  0  0  0  0  0  0  0  0  0  0
   -0.4894   -8.4291   -2.9064 C   0  0  0  0  0  0  0  0  0  0  0  0
    1.1340   -6.4895   -0.5993 C   0  0  0  0  0  0  0  0  0  0  0  0
    0.9691   -5.2084   -0.0615 C   0  0  0  0  0  0  0  0  0  0  0  0
    1.1919   -2.1735    0.6892 C   0  0  0  0  0  0  0  0  0  0  0  0
    2.5584   -2.4581    0.8991 C   0  0  0  0  0  0  0  0  0  0  0  0
    3.2497   -1.8952    1.9766 C   0  0  0  0  0  0  0  0  0  0  0  0
    2.5906   -1.0375    2.8629 C   0  0  0  0  0  0  0  0  0  0  0  0
    3.4759   -0.3266    4.2549 S   0  0  0  0  0  0  0  0  0  0  0  0
    3.2292   -1.7789    5.3199 C   0  0  0  0  0  0  0  0  0  0  0  0
    1.2458   -0.7222    2.6532 C   0  0  0  0  0  0  0  0  0  0  0  0
    0.5543   -1.2689    1.5675 C   0  0  0  0  0  0  0  0  0  0  0  0
   -1.9471   -3.1047    0.0920 C   0  0  0  0  0  0  0  0  0  0  0  0
   -2.0054   -4.0730    1.4564 S   0  0  0  0  0  0  0  0  0  0  0  0
   -3.7089   -4.1289    1.4935 C   0  0  0  0  0  0  0  0  0  0  0  0
   -4.2167   -3.3522    0.4450 C   0  0  0  0  0  0  0  0  0  0  0  0
   -5.6028   -3.3253    0.0763 N   0  0  0  0  0  0  0  0  0  0  0  0
   -6.2408   -4.5904   -0.1750 C   0  0  0  0  0  0  0  0  0  0  0  0
   -5.6272   -5.5241   -1.0298 C   0  0  0  0  0  0  0  0  0  0  0  0
   -6.1429   -6.8170   -1.1454 C   0  0  0  0  0  0  0  0  0  0  0  0
   -7.2649   -7.1932   -0.3993 C   0  0  0  0  0  0  0  0  0  0  0  0
   -7.8383   -8.8918   -0.4508 S   0  0  0  0  0  0  0  0  0  0  0  0
   -6.6339   -9.4512    0.7953 C   0  0  0  0  0  0  0  0  0  0  0  0
   -7.9012   -6.2579    0.4278 C   0  0  0  0  0  0  0  0  0  0  0  0
   -7.4000   -4.9553    0.5248 C   0  0  0  0  0  0  0  0  0  0  0  0
   -6.3247   -2.0847   -0.0269 C   0  0  0  0  0  0  0  0  0  0  0  0
   -6.1202   -1.0659    0.9183 C   0  0  0  0  0  0  0  0  0  0  0  0
   -6.8574    0.1215    0.8427 C   0  0  0  0  0  0  0  0  0  0  0  0
   -7.7793    0.3111   -0.1955 C   0  0  0  0  0  0  0  0  0  0  0  0
   -8.7307    1.8338   -0.2778 S   0  0  0  0  0  0  0  0  0  0  0  0
  -10.1792    1.1296    0.5717 C   0  0  0  0  0  0  0  0  0  0  0  0
   -7.9556   -0.6828   -1.1610 C   0  0  0  0  0  0  0  0  0  0  0  0
   -7.2336   -1.8793   -1.0739 C   0  0  0  0  0  0  0  0  0  0  0  0
   -3.2016   -2.7916   -0.3114 C   0  0  0  0  0  0  0  0  0  0  0  0
   -3.1313   -1.7304   -1.5974 S   0  0  0  0  0  0  0  0  0  0  0  0
   -4.4862   -4.4779    2.6896 C   0  0  0  0  0  0  0  0  0  0  0  0
   -4.0838   -5.4193    3.5581 C   0  0  0  0  0  0  0  0  0  0  0  0
   -3.1707   -6.5143    3.2186 C   0  0  0  0  0  0  0  0  0  0  0  0
   -3.0942   -7.0903    2.0995 O   0  0  0  0  0  0  0  0  0  0  0  0
   -2.3283   -6.7997    4.3583 C   0  0  0  0  0  0  0  0  0  0  0  0
   -1.1608   -7.6007    4.3751 C   0  0  0  0  0  0  0  0  0  0  0  0
   -0.3560   -7.3893    5.4782 C   0  0  0  0  0  0  0  0  0  0  0  0
   -0.6666   -6.4334    6.4994 C   0  0  0  0  0  0  0  0  0  0  0  0
   -1.8344   -5.6877    6.5196 C   0  0  0  0  0  0  0  0  0  0  0  0
   -2.6942   -5.9224    5.4130 C   0  0  0  0  0  0  0  0  0  0  0  0
   -3.9178   -5.1751    5.0165 C   0  0  0  0  0  0  0  0  0  0  0  0
   -4.7893   -4.5517    5.8460 C   0  0  0  0  0  0  0  0  0  0  0  0
   -6.0481   -4.0301    5.3717 C   0  0  0  0  0  0  0  0  0  0  0  0
   -7.0569   -3.6036    4.9936 N   0  0  0  0  0  0  0  0  0  0  0  0
   -4.5751   -4.4671    7.2693 C   0  0  0  0  0  0  0  0  0  0  0  0
   -4.4093   -4.3992    8.4128 N   0  0  0  0  0  0  0  0  0  0  0  0
    0.6897   -6.6232    7.1055 C   0  0  0  0  0  0  0  0  0  0  0  0
    1.7677   -5.5315    6.8114 C   0  0  0  0  0  0  0  0  0  0  0  0
    1.5533   -4.9382    5.4363 C   0  0  0  0  0  0  0  0  0  0  0  0
    1.8610   -5.8871    4.5494 C   0  0  0  0  0  0  0  0  0  0  0  0
    2.2421   -7.1098    5.3571 C   0  0  0  0  0  0  0  0  0  0  0  0
    2.9587   -6.4239    6.5087 C   0  0  0  0  0  0  0  0  0  0  0  0
    0.9811   -7.6564    6.1025 C   0  0  0  0  0  0  0  0  0  0  0  0
    5.5806    7.8737   -2.8107 H   0  0  0  0  0  0  0  0  0  0  0  0
    2.9468    4.6238    1.8641 H   0  0  0  0  0  0  0  0  0  0  0  0
    6.4682    8.1880    2.8288 H   0  0  0  0  0  0  0  0  0  0  0  0
    6.3533    5.7212    5.2699 H   0  0  0  0  0  0  0  0  0  0  0  0
    5.3276    7.6620    6.6469 H   0  0  0  0  0  0  0  0  0  0  0  0
    3.2732    8.7449    5.3529 H   0  0  0  0  0  0  0  0  0  0  0  0
    1.5292    6.8694    4.8761 H   0  0  0  0  0  0  0  0  0  0  0  0
    2.4689    4.5861    5.8449 H   0  0  0  0  0  0  0  0  0  0  0  0
    3.3056    6.3153    7.6800 H   0  0  0  0  0  0  0  0  0  0  0  0
    4.6537    5.1483    7.2847 H   0  0  0  0  0  0  0  0  0  0  0  0
    4.7611    4.0357    4.8034 H   0  0  0  0  0  0  0  0  0  0  0  0
    4.3877    3.3020   -4.5618 H   0  0  0  0  0  0  0  0  0  0  0  0
    2.1623    7.4597   -3.0662 H   0  0  0  0  0  0  0  0  0  0  0  0
    3.7114    3.2799   -1.7292 H   0  0  0  0  0  0  0  0  0  0  0  0
    4.7212    3.1820    0.4996 H   0  0  0  0  0  0  0  0  0  0  0  0
    8.3821    1.2875    2.0860 H   0  0  0  0  0  0  0  0  0  0  0  0
    7.6759    2.1247    0.6484 H   0  0  0  0  0  0  0  0  0  0  0  0
    7.8646    0.3169    0.6520 H   0  0  0  0  0  0  0  0  0  0  0  0
    5.4135   -1.0364    0.0157 H   0  0  0  0  0  0  0  0  0  0  0  0
    4.4003   -0.9491   -2.2205 H   0  0  0  0  0  0  0  0  0  0  0  0
    6.1824    1.0122   -3.8053 H   0  0  0  0  0  0  0  0  0  0  0  0
    7.3771   -0.3608   -5.4587 H   0  0  0  0  0  0  0  0  0  0  0  0
    6.8118   -4.3755   -6.9974 H   0  0  0  0  0  0  0  0  0  0  0  0
    6.7542   -3.3012   -5.5511 H   0  0  0  0  0  0  0  0  0  0  0  0
    5.2232   -3.7619   -6.4047 H   0  0  0  0  0  0  0  0  0  0  0  0
    3.6492   -1.3865   -7.3316 H   0  0  0  0  0  0  0  0  0  0  0  0
    2.4314   -0.0849   -5.6660 H   0  0  0  0  0  0  0  0  0  0  0  0
   -4.5716    2.1604   -1.1785 H   0  0  0  0  0  0  0  0  0  0  0  0
   -4.6992    3.0268    1.1101 H   0  0  0  0  0  0  0  0  0  0  0  0
   -2.8555    5.1934    2.2496 H   0  0  0  0  0  0  0  0  0  0  0  0
   -1.1505    4.6076    2.4790 H   0  0  0  0  0  0  0  0  0  0  0  0
   -2.0832    5.2556    3.8802 H   0  0  0  0  0  0  0  0  0  0  0  0
   -0.6323    1.7992    1.8191 H   0  0  0  0  0  0  0  0  0  0  0  0
   -0.4229    1.0930   -0.4942 H   0  0  0  0  0  0  0  0  0  0  0  0
   -2.8956    3.7145   -3.1003 H   0  0  0  0  0  0  0  0  0  0  0  0
   -4.2725    4.4880   -4.9973 H   0  0  0  0  0  0  0  0  0  0  0  0
   -3.5073    3.3067   -7.7641 H   0  0  0  0  0  0  0  0  0  0  0  0
   -4.2526    1.7457   -8.3027 H   0  0  0  0  0  0  0  0  0  0  0  0
   -4.6825    3.2891   -9.1309 H   0  0  0  0  0  0  0  0  0  0  0  0
   -5.3153    0.4188   -5.9159 H   0  0  0  0  0  0  0  0  0  0  0  0
   -3.8985   -0.3665   -4.0654 H   0  0  0  0  0  0  0  0  0  0  0  0
    0.9592   -3.4401   -2.9788 H   0  0  0  0  0  0  0  0  0  0  0  0
    1.3354   -5.6682   -3.8980 H   0  0  0  0  0  0  0  0  0  0  0  0
   -0.9193   -7.4592   -3.2327 H   0  0  0  0  0  0  0  0  0  0  0  0
   -0.7156   -9.1884   -3.6794 H   0  0  0  0  0  0  0  0  0  0  0  0
   -0.9619   -8.7320   -1.9487 H   0  0  0  0  0  0  0  0  0  0  0  0
    1.1278   -7.3477    0.0570 H   0  0  0  0  0  0  0  0  0  0  0  0
    0.8343   -5.0971    1.0080 H   0  0  0  0  0  0  0  0  0  0  0  0
    3.0912   -3.1263    0.2337 H   0  0  0  0  0  0  0  0  0  0  0  0
    4.2940   -2.1280    2.1237 H   0  0  0  0  0  0  0  0  0  0  0  0
    3.8594   -1.6909    6.2264 H   0  0  0  0  0  0  0  0  0  0  0  0
    2.1626   -1.8304    5.6233 H   0  0  0  0  0  0  0  0  0  0  0  0
    3.5130   -2.7050    4.7810 H   0  0  0  0  0  0  0  0  0  0  0  0
    0.7304   -0.0525    3.3274 H   0  0  0  0  0  0  0  0  0  0  0  0
   -0.4900   -1.0179    1.4425 H   0  0  0  0  0  0  0  0  0  0  0  0
   -4.7279   -5.2603   -1.5708 H   0  0  0  0  0  0  0  0  0  0  0  0
   -5.6417   -7.5394   -1.7770 H   0  0  0  0  0  0  0  0  0  0  0  0
   -6.7854   -8.9016    1.7469 H   0  0  0  0  0  0  0  0  0  0  0  0
   -6.7729  -10.5372    0.9763 H   0  0  0  0  0  0  0  0  0  0  0  0
   -5.6007   -9.2798    0.4290 H   0  0  0  0  0  0  0  0  0  0  0  0
   -8.7556   -6.5489    1.0218 H   0  0  0  0  0  0  0  0  0  0  0  0
   -7.8665   -4.2493    1.1984 H   0  0  0  0  0  0  0  0  0  0  0  0
   -5.4187   -1.2037    1.7357 H   0  0  0  0  0  0  0  0  0  0  0  0
   -6.7102    0.8894    1.5920 H   0  0  0  0  0  0  0  0  0  0  0  0
  -10.9034    1.9417    0.7737 H   0  0  0  0  0  0  0  0  0  0  0  0
  -10.6623    0.3684   -0.0753 H   0  0  0  0  0  0  0  0  0  0  0  0
   -9.8786    0.6667    1.5332 H   0  0  0  0  0  0  0  0  0  0  0  0
   -8.6615   -0.5394   -1.9698 H   0  0  0  0  0  0  0  0  0  0  0  0
   -7.3868   -2.6431   -1.8254 H   0  0  0  0  0  0  0  0  0  0  0  0
   -5.1687   -3.7106    3.0139 H   0  0  0  0  0  0  0  0  0  0  0  0
   -0.8532   -8.2207    3.5457 H   0  0  0  0  0  0  0  0  0  0  0  0
   -1.9859   -4.9095    7.2528 H   0  0  0  0  0  0  0  0  0  0  0  0
    0.6695   -6.9918    8.1557 H   0  0  0  0  0  0  0  0  0  0  0  0
    1.9240   -4.7849    7.6201 H   0  0  0  0  0  0  0  0  0  0  0  0
    1.2207   -3.9354    5.1905 H   0  0  0  0  0  0  0  0  0  0  0  0
    1.8403   -5.7864    3.4701 H   0  0  0  0  0  0  0  0  0  0  0  0
    2.8329   -7.8716    4.8046 H   0  0  0  0  0  0  0  0  0  0  0  0
    3.8651   -5.8531    6.1869 H   0  0  0  0  0  0  0  0  0  0  0  0
    3.2234   -7.1136    7.3473 H   0  0  0  0  0  0  0  0  0  0  0  0
    1.0893   -8.6756    6.5360 H   0  0  0  0  0  0  0  0  0  0  0  0
  1  2  2  3
  2  3  1  0
  3  4  2  0
  3  5  1  0
  5  6  2  0
  6  7  1  0
  7  8  2  0
  8  9  1  0
  9 10  2  0
 10 11  1  0
 11 12  2  3
 12 13  1  0
 13 14  3  0
 12 15  1  0
 15 16  3  0
  8 17  1  0
 17 18  1  0
 18 19  1  0
 19 20  2  0
 20 21  1  0
 21 22  1  0
 21 23  1  0
  1 24  1  0
 24 25  2  0
 25 26  1  0
 25 27  1  0
 27 28  2  0
 28 29  1  0
 29 30  1  0
 29 31  2  0
 28 32  1  0
 32 33  2  0
 33 34  1  0
 34 35  1  0
 35 36  2  0
 36 37  1  0
 37 38  2  0
 38 39  1  0
 39 40  1  0
 38 41  1  0
 41 42  2  0
 34 43  1  0
 43 44  2  0
 44 45  1  0
 45 46  2  0
 46 47  1  0
 47 48  1  0
 46 49  1  0
 49 50  2  0
 33 51  1  0
 51 52  1  0
 52 53  1  0
 53 54  2  0
 54 55  1  0
 55 56  1  0
 56 57  2  0
 57 58  1  0
 58 59  2  0
 59 60  1  0
 60 61  1  0
 59 62  1  0
 62 63  2  0
 55 64  1  0
 64 65  2  0
 65 66  1  0
 66 67  2  0
 67 68  1  0
 68 69  1  0
 67 70  1  0
 70 71  2  0
 54 72  1  0
 72 73  1  0
 53 74  1  0
 74 75  2  0
 75 76  1  0
 76 77  1  0
 77 78  2  0
 78 79  1  0
 79 80  2  0
 80 81  1  0
 81 82  1  0
 80 83  1  0
 83 84  2  0
 76 85  1  0
 85 86  2  0
 86 87  1  0
 87 88  2  0
 88 89  1  0
 89 90  1  0
 88 91  1  0
 91 92  2  0
 75 93  1  0
 93 94  1  0
 94 95  1  0
 95 96  2  0
 96 97  1  0
 97 98  1  0
 98 99  2  0
 99100  1  0
100101  2  0
101102  1  0
102103  1  0
101104  1  0
104105  2  0
 97106  1  0
106107  2  0
107108  1  0
108109  2  0
109110  1  0
110111  1  0
109112  1  0
112113  2  0
 96114  1  0
114115  1  0
 95116  1  0
116117  2  3
117118  1  0
118119  2  0
118120  1  0
120121  2  0
121122  1  0
122123  2  0
123124  1  0
124125  2  0
125126  1  0
126127  2  3
127128  1  0
128129  3  0
127130  1  0
130131  3  0
123132  1  0
132133  1  0
133134  1  0
134135  2  0
135136  1  0
136137  1  0
136138  1  0
 11  2  1  0
 23 17  1  0
 31 24  1  0
 73 32  1  0
115 74  1  0
126117  1  0
138132  1  0
 10  5  1  0
 22 18  1  0
 42 35  1  0
 50 43  1  0
 72 51  2  0
 84 77  1  0
 92 85  1  0
114 93  2  0
125120  1  0
137133  1  0
 23  7  1  0
 63 56  1  0
 71 64  1  0
105 98  1  0
113106  1  0
138122  1  0
  1139  1  0
  6140  1  0
  9141  1  0
 17142  1  0
 18143  1  0
 19144  1  0
 20145  1  0
 21146  1  0
 22147  1  0
 22148  1  0
 23149  1  0
 27150  1  0
 31151  1  0
 36152  1  0
 37153  1  0
 40154  1  0
 40155  1  0
 40156  1  0
 41157  1  0
 42158  1  0
 44159  1  0
 45160  1  0
 48161  1  0
 48162  1  0
 48163  1  0
 49164  1  0
 50165  1  0
 57166  1  0
 58167  1  0
 61168  1  0
 61169  1  0
 61170  1  0
 62171  1  0
 63172  1  0
 65173  1  0
 66174  1  0
 69175  1  0
 69176  1  0
 69177  1  0
 70178  1  0
 71179  1  0
 78180  1  0
 79181  1  0
 82182  1  0
 82183  1  0
 82184  1  0
 83185  1  0
 84186  1  0
 86187  1  0
 87188  1  0
 90189  1  0
 90190  1  0
 90191  1  0
 91192  1  0
 92193  1  0
 99194  1  0
100195  1  0
103196  1  0
103197  1  0
103198  1  0
104199  1  0
105200  1  0
107201  1  0
108202  1  0
111203  1  0
111204  1  0
111205  1  0
112206  1  0
113207  1  0
116208  1  0
121209  1  0
124210  1  0
132211  1  0
133212  1  0
134213  1  0
135214  1  0
136215  1  0
137216  1  0
137217  1  0
138218  1  0
M  END

