
     RDKit          3D

210232  0  0  0  0  0  0  0  0999 V2000
    2.4098    7.4182    4.7930 C   0  0  0  0  0  0  0  0  0  0  0  0
    2.8812    7.1464    6.0262 C   0  0  0  0  0  0  0  0  0  0  0  0
    3.6741    6.0488    6.4543 C   0  0  0  0  0  0  0  0  0  0  0  0
    3.7465    4.8796    5.9873 O   0  0  0  0  0  0  0  0  0  0  0  0
    4.4451    6.4561    7.6415 C   0  0  0  0  0  0  0  0  0  0  0  0
    5.5308    5.7800    8.1915 C   0  0  0  0  0  0  0  0  0  0  0  0
    6.3609    6.3580    9.0742 C   0  0  0  0  0  0  0  0  0  0  0  0
    6.1382    7.6857    9.4873 C   0  0  0  0  0  0  0  0  0  0  0  0
    5.0114    8.3051    8.9057 C   0  0  0  0  0  0  0  0  0  0  0  0
    4.1536    7.7733    8.0023 C   0  0  0  0  0  0  0  0  0  0  0  0
    3.1517    8.2260    6.9894 C   0  0  0  0  0  0  0  0  0  0  0  0
    2.9766    9.6276    6.7309 C   0  0  0  0  0  0  0  0  0  0  0  0
    2.6580    9.9343    5.6367 C   0  0  0  0  0  0  0  0  0  0  0  0
    2.2527   10.3468    4.2605 N   0  0  0  0  0  0  0  0  0  0  0  0
    3.1110   10.4304    7.8393 C   0  0  0  0  0  0  0  0  0  0  0  0
    3.2314   11.2309    8.9638 N   0  0  0  0  0  0  0  0  0  0  0  0
    7.3370    7.6784   10.2779 C   0  0  0  0  0  0  0  0  0  0  0  0
    7.2462    7.5926   11.7389 C   0  0  0  0  0  0  0  0  0  0  0  0
    8.6591    7.1034   12.1213 C   0  0  0  0  0  0  0  0  0  0  0  0
    8.6691    5.7821   11.9996 C   0  0  0  0  0  0  0  0  0  0  0  0
    7.4744    5.4398   11.1534 C   0  0  0  0  0  0  0  0  0  0  0  0
    6.4758    6.2987   11.9616 C   0  0  0  0  0  0  0  0  0  0  0  0
    7.5814    6.2034    9.8947 C   0  0  0  0  0  0  0  0  0  0  0  0
    2.7649    6.4188    3.7140 C   0  0  0  0  0  0  0  0  0  0  0  0
    3.6548    5.4002    3.6970 C   0  0  0  0  0  0  0  0  0  0  0  0
    3.4644    4.3717    2.8363 C   0  0  0  0  0  0  0  0  0  0  0  0
    3.9875    3.0362    2.9286 C   0  0  0  0  0  0  0  0  0  0  0  0
    5.1305    2.7062    3.7348 C   0  0  0  0  0  0  0  0  0  0  0  0
    5.6343    1.5695    4.2101 C   0  0  0  0  0  0  0  0  0  0  0  0
    6.7568    1.5143    4.9417 C   0  0  0  0  0  0  0  0  0  0  0  0
    7.4814    2.5691    5.2742 C   0  0  0  0  0  0  0  0  0  0  0  0
    8.9087    3.0431    6.1815 S   0  0  0  0  0  0  0  0  0  0  0  0
   10.3056    3.5874    5.2044 C   0  0  0  0  0  0  0  0  0  0  0  0
    9.9231    4.8616    4.4131 C   0  0  0  0  0  0  0  0  0  0  0  0
    6.3745    3.9580    4.3737 Se  0  0  0  0  0  2  0  0  0  0  0  0
    3.3634    2.0199    2.2096 C   0  0  0  0  0  0  0  0  0  0  0  0
    2.3253    2.1547    1.4157 C   0  0  0  0  0  0  0  0  0  0  0  0
    1.8094    3.4713    1.3101 C   0  0  0  0  0  0  0  0  0  0  0  0
    0.8519    3.8276    0.3251 C   0  0  0  0  0  0  0  0  0  0  0  0
   -0.0299    4.7346    0.0213 C   0  0  0  0  0  0  0  0  0  0  0  0
   -0.6555    4.8623   -1.1362 C   0  0  0  0  0  0  0  0  0  0  0  0
   -0.4680    4.0414   -2.1956 C   0  0  0  0  0  0  0  0  0  0  0  0
   -1.0643    3.8927   -3.8348 S   0  0  0  0  0  0  0  0  0  0  0  0
   -0.0168    4.7931   -5.0049 C   0  0  0  0  0  0  0  0  0  0  0  0
    1.4128    4.2775   -5.0313 C   0  0  0  0  0  0  0  0  0  0  0  0
    0.8634    2.8161   -1.4352 Se  0  0  0  0  0  2  0  0  0  0  0  0
    2.3972    4.4845    2.0312 C   0  0  0  0  0  0  0  0  0  0  0  0
    1.6524    6.0003    2.4746 S   0  0  0  0  0  0  0  0  0  0  0  0
    1.6701    1.0816    0.9617 C   0  0  0  0  0  0  0  0  0  0  0  0
    2.1691   -0.1794    1.3871 C   0  0  0  0  0  0  0  0  0  0  0  0
    3.4677    0.2546    2.3298 S   0  0  0  0  0  0  0  0  0  0  0  0
    1.2894   -1.3758    1.1114 C   0  0  0  0  0  0  0  0  0  0  0  0
    1.4043   -2.5102    0.3941 C   0  0  0  0  0  0  0  0  0  0  0  0
    2.7678   -2.9844    0.1127 N   0  0  0  0  0  0  0  0  0  0  0  0
    3.4147   -3.4872    1.2873 C   0  0  0  0  0  0  0  0  0  0  0  0
    4.6651   -3.1664    1.6273 C   0  0  0  0  0  0  0  0  0  0  0  0
    5.2823   -3.6886    2.8058 C   0  0  0  0  0  0  0  0  0  0  0  0
    4.5487   -4.5425    3.5977 C   0  0  0  0  0  0  0  0  0  0  0  0
    5.3854   -5.2010    5.0652 S   0  0  0  0  0  0  0  0  0  0  0  0
    5.0093   -4.0508    6.4052 C   0  0  0  0  0  0  0  0  0  0  0  0
    3.2853   -4.8930    3.2973 C   0  0  0  0  0  0  0  0  0  0  0  0
    2.7171   -4.3449    2.1018 C   0  0  0  0  0  0  0  0  0  0  0  0
    3.3297   -3.1255   -1.1486 C   0  0  0  0  0  0  0  0  0  0  0  0
    2.7864   -3.8550   -2.1736 C   0  0  0  0  0  0  0  0  0  0  0  0
    3.2637   -3.8921   -3.4915 C   0  0  0  0  0  0  0  0  0  0  0  0
    4.3709   -3.1258   -3.7279 C   0  0  0  0  0  0  0  0  0  0  0  0
    4.9766   -3.0034   -5.4367 S   0  0  0  0  0  0  0  0  0  0  0  0
    4.0321   -1.5645   -6.1428 C   0  0  0  0  0  0  0  0  0  0  0  0
    4.9638   -2.3975   -2.7520 C   0  0  0  0  0  0  0  0  0  0  0  0
    4.4618   -2.3792   -1.4658 C   0  0  0  0  0  0  0  0  0  0  0  0
    0.2367   -3.1652    0.1129 C   0  0  0  0  0  0  0  0  0  0  0  0
   -0.3183   -4.3993   -1.0531 S   0  0  0  0  0  0  0  0  0  0  0  0
   -1.9956   -4.2102   -0.8825 C   0  0  0  0  0  0  0  0  0  0  0  0
   -2.1355   -3.2551    0.0700 C   0  0  0  0  0  0  0  0  0  0  0  0
   -3.3222   -2.8903    0.7587 N   0  0  0  0  0  0  0  0  0  0  0  0
   -4.0225   -3.8670    1.5095 C   0  0  0  0  0  0  0  0  0  0  0  0
   -3.3163   -4.7805    2.2978 C   0  0  0  0  0  0  0  0  0  0  0  0
   -3.9432   -5.6812    3.1077 C   0  0  0  0  0  0  0  0  0  0  0  0
   -5.2871   -5.7440    3.2015 C   0  0  0  0  0  0  0  0  0  0  0  0
   -6.0614   -6.9790    4.2359 S   0  0  0  0  0  0  0  0  0  0  0  0
   -6.3127   -6.3928    5.9167 C   0  0  0  0  0  0  0  0  0  0  0  0
   -6.0029   -4.8517    2.4408 C   0  0  0  0  0  0  0  0  0  0  0  0
   -5.4149   -3.8964    1.5821 C   0  0  0  0  0  0  0  0  0  0  0  0
   -3.7693   -1.5626    0.7654 C   0  0  0  0  0  0  0  0  0  0  0  0
   -4.2676   -1.0482    1.9922 C   0  0  0  0  0  0  0  0  0  0  0  0
   -4.6605    0.2588    2.0696 C   0  0  0  0  0  0  0  0  0  0  0  0
   -4.5685    1.0573    0.9470 C   0  0  0  0  0  0  0  0  0  0  0  0
   -5.1427    2.7865    1.0249 S   0  0  0  0  0  0  0  0  0  0  0  0
   -6.1676    2.9952   -0.5115 C   0  0  0  0  0  0  0  0  0  0  0  0
   -4.0929    0.5534   -0.2175 C   0  0  0  0  0  0  0  0  0  0  0  0
   -3.6816   -0.7575   -0.3330 C   0  0  0  0  0  0  0  0  0  0  0  0
   -0.9046   -2.7581    0.5189 C   0  0  0  0  0  0  0  0  0  0  0  0
   -0.4536   -1.3001    1.3850 S   0  0  0  0  0  0  0  0  0  0  0  0
   -3.0103   -4.4441   -2.0120 C   0  0  0  0  0  0  0  0  0  0  0  0
   -2.5843   -4.7505   -3.2857 C   0  0  0  0  0  0  0  0  0  0  0  0
   -3.3837   -4.4033   -4.3144 C   0  0  0  0  0  0  0  0  0  0  0  0
   -2.9582   -4.3196   -5.6757 C   0  0  0  0  0  0  0  0  0  0  0  0
   -1.8735   -5.1231   -6.2019 C   0  0  0  0  0  0  0  0  0  0  0  0
   -1.1802   -5.2235   -7.3010 C   0  0  0  0  0  0  0  0  0  0  0  0
   -0.2976   -6.1962   -7.5696 C   0  0  0  0  0  0  0  0  0  0  0  0
   -0.0289   -7.1680   -6.7416 C   0  0  0  0  0  0  0  0  0  0  0  0
    0.9135   -8.6635   -6.5585 S   0  0  0  0  0  0  0  0  0  0  0  0
   -0.0537  -10.0201   -7.2764 C   0  0  0  0  0  0  0  0  0  0  0  0
   -1.4208  -10.1313   -6.7024 C   0  0  0  0  0  0  0  0  0  0  0  0
   -1.2618   -6.6618   -5.2156 Se  0  0  0  0  0  2  0  0  0  0  0  0
   -3.7427   -3.6192   -6.5724 C   0  0  0  0  0  0  0  0  0  0  0  0
   -4.9091   -2.9988   -6.3087 C   0  0  0  0  0  0  0  0  0  0  0  0
   -5.3439   -3.1189   -4.9598 C   0  0  0  0  0  0  0  0  0  0  0  0
   -6.6320   -2.6127   -4.5561 C   0  0  0  0  0  0  0  0  0  0  0  0
   -7.3147   -2.5496   -3.3824 C   0  0  0  0  0  0  0  0  0  0  0  0
   -8.5463   -2.0287   -3.3327 C   0  0  0  0  0  0  0  0  0  0  0  0
   -9.2377   -1.5270   -4.3365 C   0  0  0  0  0  0  0  0  0  0  0  0
  -10.7840   -0.7209   -4.6388 S   0  0  0  0  0  0  0  0  0  0  0  0
  -11.5846   -0.3133   -3.0783 C   0  0  0  0  0  0  0  0  0  0  0  0
  -11.9862   -1.5652   -2.3403 C   0  0  0  0  0  0  0  0  0  0  0  0
   -7.8985   -1.8328   -5.7288 Se  0  0  0  0  0  2  0  0  0  0  0  0
   -4.5656   -3.7876   -4.0530 C   0  0  0  0  0  0  0  0  0  0  0  0
   -4.5236   -3.7202   -2.2881 S   0  0  0  0  0  0  0  0  0  0  0  0
   -5.4067   -2.1720   -7.2487 C   0  0  0  0  0  0  0  0  0  0  0  0
   -4.6980   -2.0056   -8.4224 C   0  0  0  0  0  0  0  0  0  0  0  0
   -3.3363   -3.0528   -8.1543 S   0  0  0  0  0  0  0  0  0  0  0  0
   -4.9472   -1.1791   -9.5882 C   0  0  0  0  0  0  0  0  0  0  0  0
   -4.0997   -0.2082  -10.0520 C   0  0  0  0  0  0  0  0  0  0  0  0
   -4.5273    0.5015  -11.3031 C   0  0  0  0  0  0  0  0  0  0  0  0
   -5.6012    0.3163  -11.9127 O   0  0  0  0  0  0  0  0  0  0  0  0
   -3.4242    1.4419  -11.6292 C   0  0  0  0  0  0  0  0  0  0  0  0
   -3.1410    2.3315  -12.6223 C   0  0  0  0  0  0  0  0  0  0  0  0
   -1.9446    2.9830  -12.5680 C   0  0  0  0  0  0  0  0  0  0  0  0
   -1.2435    2.3578  -11.1480 S   0  0  0  0  0  0  0  0  0  0  0  0
   -2.4604    1.2916  -10.6772 C   0  0  0  0  0  0  0  0  0  0  0  0
   -2.9500    0.2025   -9.6339 C   0  0  0  0  0  0  0  0  0  0  0  0
   -2.1410    0.3842   -8.5461 C   0  0  0  0  0  0  0  0  0  0  0  0
   -0.9376    0.8509   -8.4006 C   0  0  0  0  0  0  0  0  0  0  0  0
    0.1996    1.3107   -8.2717 N   0  0  0  0  0  0  0  0  0  0  0  0
   -2.8389    0.1190   -7.2667 C   0  0  0  0  0  0  0  0  0  0  0  0
   -3.4060   -0.1128   -6.1958 N   0  0  0  0  0  0  0  0  0  0  0  0
    1.7751    8.1817    4.5452 H   0  0  0  0  0  0  0  0  0  0  0  0
    5.7253    4.7443    7.8525 H   0  0  0  0  0  0  0  0  0  0  0  0
    4.8687    9.3136    9.2239 H   0  0  0  0  0  0  0  0  0  0  0  0
    8.1977    8.3225    9.9011 H   0  0  0  0  0  0  0  0  0  0  0  0
    6.9610    8.4320   12.3398 H   0  0  0  0  0  0  0  0  0  0  0  0
    9.4255    7.8001   12.3946 H   0  0  0  0  0  0  0  0  0  0  0  0
    9.3926    5.1161   12.4273 H   0  0  0  0  0  0  0  0  0  0  0  0
    7.2277    4.4005   11.0904 H   0  0  0  0  0  0  0  0  0  0  0  0
    6.4779    5.9875   13.0441 H   0  0  0  0  0  0  0  0  0  0  0  0
    5.4634    6.2805   11.5544 H   0  0  0  0  0  0  0  0  0  0  0  0
    8.4982    6.0422    9.2695 H   0  0  0  0  0  0  0  0  0  0  0  0
    4.6185    5.5210    4.2613 H   0  0  0  0  0  0  0  0  0  0  0  0
    5.0378    0.6101    4.0214 H   0  0  0  0  0  0  0  0  0  0  0  0
    7.1458    0.5060    5.2980 H   0  0  0  0  0  0  0  0  0  0  0  0
   10.8647    2.8581    4.6484 H   0  0  0  0  0  0  0  0  0  0  0  0
   11.0316    4.0698    5.9734 H   0  0  0  0  0  0  0  0  0  0  0  0
   10.8411    5.2370    3.9359 H   0  0  0  0  0  0  0  0  0  0  0  0
    9.2021    4.5872    3.6796 H   0  0  0  0  0  0  0  0  0  0  0  0
    9.5427    5.5532    5.2116 H   0  0  0  0  0  0  0  0  0  0  0  0
   -0.2732    5.5047    0.8463 H   0  0  0  0  0  0  0  0  0  0  0  0
   -1.4383    5.6952   -1.3367 H   0  0  0  0  0  0  0  0  0  0  0  0
    0.0219    5.8780   -4.8437 H   0  0  0  0  0  0  0  0  0  0  0  0
   -0.3968    4.6297   -6.0650 H   0  0  0  0  0  0  0  0  0  0  0  0
    1.4239    3.1853   -4.9314 H   0  0  0  0  0  0  0  0  0  0  0  0
    1.9905    4.7934   -4.1868 H   0  0  0  0  0  0  0  0  0  0  0  0
    1.9351    4.5634   -5.9356 H   0  0  0  0  0  0  0  0  0  0  0  0
    0.7895    1.0596    0.2698 H   0  0  0  0  0  0  0  0  0  0  0  0
    5.3042   -2.4993    1.0946 H   0  0  0  0  0  0  0  0  0  0  0  0
    6.2772   -3.4254    3.0681 H   0  0  0  0  0  0  0  0  0  0  0  0
    5.7765   -3.9557    7.1891 H   0  0  0  0  0  0  0  0  0  0  0  0
    4.0531   -4.3382    6.9089 H   0  0  0  0  0  0  0  0  0  0  0  0
    4.8383   -3.0574    5.9521 H   0  0  0  0  0  0  0  0  0  0  0  0
    2.6692   -5.5710    3.8935 H   0  0  0  0  0  0  0  0  0  0  0  0
    1.7139   -4.6223    1.9123 H   0  0  0  0  0  0  0  0  0  0  0  0
    1.9420   -4.4992   -1.9887 H   0  0  0  0  0  0  0  0  0  0  0  0
    2.7907   -4.4894   -4.2665 H   0  0  0  0  0  0  0  0  0  0  0  0
    3.0807   -1.4378   -5.6535 H   0  0  0  0  0  0  0  0  0  0  0  0
    4.6603   -0.6368   -6.0495 H   0  0  0  0  0  0  0  0  0  0  0  0
    3.8749   -1.7700   -7.1951 H   0  0  0  0  0  0  0  0  0  0  0  0
    5.8668   -1.8061   -2.9557 H   0  0  0  0  0  0  0  0  0  0  0  0
    4.9420   -1.7579   -0.7542 H   0  0  0  0  0  0  0  0  0  0  0  0
   -2.2185   -4.7683    2.2531 H   0  0  0  0  0  0  0  0  0  0  0  0
   -3.3244   -6.3818    3.7029 H   0  0  0  0  0  0  0  0  0  0  0  0
   -5.4603   -5.7281    6.2349 H   0  0  0  0  0  0  0  0  0  0  0  0
   -7.2745   -5.8917    6.0978 H   0  0  0  0  0  0  0  0  0  0  0  0
   -6.2345   -7.2633    6.5882 H   0  0  0  0  0  0  0  0  0  0  0  0
   -7.0545   -4.8510    2.5129 H   0  0  0  0  0  0  0  0  0  0  0  0
   -5.9561   -3.1735    1.0151 H   0  0  0  0  0  0  0  0  0  0  0  0
   -4.3392   -1.6915    2.8468 H   0  0  0  0  0  0  0  0  0  0  0  0
   -5.0455    0.6346    3.0250 H   0  0  0  0  0  0  0  0  0  0  0  0
   -5.5279    3.3937   -1.3277 H   0  0  0  0  0  0  0  0  0  0  0  0
   -7.0179    3.6147   -0.2617 H   0  0  0  0  0  0  0  0  0  0  0  0
   -6.4493    1.9521   -0.8459 H   0  0  0  0  0  0  0  0  0  0  0  0
   -4.0085    1.1549   -1.1172 H   0  0  0  0  0  0  0  0  0  0  0  0
   -3.2852   -1.2286   -1.2392 H   0  0  0  0  0  0  0  0  0  0  0  0
   -1.6231   -5.2707   -3.3769 H   0  0  0  0  0  0  0  0  0  0  0  0
   -1.3278   -4.4184   -8.1189 H   0  0  0  0  0  0  0  0  0  0  0  0
    0.2806   -6.2093   -8.5550 H   0  0  0  0  0  0  0  0  0  0  0  0
    0.5365  -10.9730   -7.1824 H   0  0  0  0  0  0  0  0  0  0  0  0
   -0.1750   -9.9744   -8.4023 H   0  0  0  0  0  0  0  0  0  0  0  0
   -1.8434  -11.1552   -6.8361 H   0  0  0  0  0  0  0  0  0  0  0  0
   -2.1578   -9.5103   -7.3655 H   0  0  0  0  0  0  0  0  0  0  0  0
   -1.5842   -9.7332   -5.6865 H   0  0  0  0  0  0  0  0  0  0  0  0
   -6.8074   -2.9633   -2.4753 H   0  0  0  0  0  0  0  0  0  0  0  0
   -9.1120   -2.0491   -2.3222 H   0  0  0  0  0  0  0  0  0  0  0  0
  -12.4263    0.4204   -3.2177 H   0  0  0  0  0  0  0  0  0  0  0  0
  -10.8803    0.2244   -2.3740 H   0  0  0  0  0  0  0  0  0  0  0  0
  -13.0782   -1.6724   -2.3819 H   0  0  0  0  0  0  0  0  0  0  0  0
  -11.5386   -2.4658   -2.7612 H   0  0  0  0  0  0  0  0  0  0  0  0
  -11.7123   -1.4335   -1.2211 H   0  0  0  0  0  0  0  0  0  0  0  0
   -6.3438   -1.6074   -7.1677 H   0  0  0  0  0  0  0  0  0  0  0  0
   -5.8691   -1.3286  -10.0702 H   0  0  0  0  0  0  0  0  0  0  0  0
   -3.8288    2.5669  -13.4731 H   0  0  0  0  0  0  0  0  0  0  0  0
   -1.5448    3.7188  -13.2948 H   0  0  0  0  0  0  0  0  0  0  0  0
  1  2  2  3
  2  3  1  0
  3  4  2  0
  3  5  1  0
  5  6  2  0
  6  7  1  0
  7  8  2  0
  8  9  1  0
  9 10  2  0
 10 11  1  0
 11 12  2  3
 12 13  1  0
 13 14  3  0
 12 15  1  0
 15 16  3  0
  8 17  1  0
 17 18  1  0
 18 19  1  0
 19 20  2  0
 20 21  1  0
 21 22  1  0
 21 23  1  0
  1 24  1  0
 24 25  2  0
 25 26  1  0
 26 27  2  0
 27 28  1  0
 28 29  2  0
 29 30  1  0
 30 31  2  0
 31 32  1  0
 32 33  1  0
 33 34  1  0
 31 35  1  0
 27 36  1  0
 36 37  2  0
 37 38  1  0
 38 39  1  0
 39 40  2  0
 40 41  1  0
 41 42  2  0
 42 43  1  0
 43 44  1  0
 44 45  1  0
 42 46  1  0
 38 47  2  0
 47 48  1  0
 37 49  1  0
 49 50  2  0
 50 51  1  0
 50 52  1  0
 52 53  2  0
 53 54  1  0
 54 55  1  0
 55 56  2  0
 56 57  1  0
 57 58  2  0
 58 59  1  0
 59 60  1  0
 58 61  1  0
 61 62  2  0
 54 63  1  0
 63 64  2  0
 64 65  1  0
 65 66  2  0
 66 67  1  0
 67 68  1  0
 66 69  1  0
 69 70  2  0
 53 71  1  0
 71 72  1  0
 72 73  1  0
 73 74  2  0
 74 75  1  0
 75 76  1  0
 76 77  2  0
 77 78  1  0
 78 79  2  0
 79 80  1  0
 80 81  1  0
 79 82  1  0
 82 83  2  0
 75 84  1  0
 84 85  2  0
 85 86  1  0
 86 87  2  0
 87 88  1  0
 88 89  1  0
 87 90  1  0
 90 91  2  0
 74 92  1  0
 92 93  1  0
 73 94  1  0
 94 95  2  0
 95 96  1  0
 96 97  2  0
 97 98  1  0
 98 99  2  0
 99100  1  0
100101  2  0
101102  1  0
102103  1  0
103104  1  0
101105  1  0
 97106  1  0
106107  2  0
107108  1  0
108109  1  0
109110  2  0
110111  1  0
111112  2  0
112113  1  0
113114  1  0
114115  1  0
112116  1  0
108117  2  0
117118  1  0
107119  1  0
119120  2  0
120121  1  0
120122  1  0
122123  2  3
123124  1  0
124125  2  0
124126  1  0
126127  1  0
127128  2  0
128129  1  0
129130  1  0
130131  1  0
131132  2  3
132133  1  0
133134  3  0
132135  1  0
135136  3  0
 11  2  1  0
 23 17  1  0
 48 24  1  0
 93 52  1  0
118 94  1  0
131123  1  0
 10  5  1  0
 22 18  1  0
 47 26  1  0
 62 55  1  0
 70 63  1  0
 92 71  2  0
117 96  1  0
130126  2  0
 23  7  1  0
 35 28  1  0
 51 36  1  0
 83 76  1  0
 91 84  1  0
105 98  1  0
121106  1  0
 46 39  1  0
116109  1  0
  1137  1  0
  6138  1  0
  9139  1  0
 17140  1  0
 18141  1  0
 19142  1  0
 20143  1  0
 21144  1  0
 22145  1  0
 22146  1  0
 23147  1  0
 25148  1  0
 29149  1  0
 30150  1  0
 33151  1  0
 33152  1  0
 34153  1  0
 34154  1  0
 34155  1  0
 40156  1  0
 41157  1  0
 44158  1  0
 44159  1  0
 45160  1  0
 45161  1  0
 45162  1  0
 49163  1  0
 56164  1  0
 57165  1  0
 60166  1  0
 60167  1  0
 60168  1  0
 61169  1  0
 62170  1  0
 64171  1  0
 65172  1  0
 68173  1  0
 68174  1  0
 68175  1  0
 69176  1  0
 70177  1  0
 77178  1  0
 78179  1  0
 81180  1  0
 81181  1  0
 81182  1  0
 82183  1  0
 83184  1  0
 85185  1  0
 86186  1  0
 89187  1  0
 89188  1  0
 89189  1  0
 90190  1  0
 91191  1  0
 95192  1  0
 99193  1  0
100194  1  0
103195  1  0
103196  1  0
104197  1  0
104198  1  0
104199  1  0
110200  1  0
111201  1  0
114202  1  0
114203  1  0
115204  1  0
115205  1  0
115206  1  0
119207  1  0
122208  1  0
127209  1  0
128210  1  0
M  END

