
     RDKit          3D

237260  0  0  0  0  0  0  0  0999 V2000
   -5.2142    4.9637    2.3519 C   0  0  0  0  0  0  0  0  0  0  0  0
   -4.0242    5.5248    2.0321 C   0  0  0  0  0  0  0  0  0  0  0  0
   -2.8030    4.7801    1.6723 C   0  0  0  0  0  0  0  0  0  0  0  0
   -2.4755    3.6470    2.1048 O   0  0  0  0  0  0  0  0  0  0  0  0
   -2.0053    5.5754    0.7664 C   0  0  0  0  0  0  0  0  0  0  0  0
   -0.8742    5.1487    0.0335 C   0  0  0  0  0  0  0  0  0  0  0  0
   -0.4733    6.0453   -0.9345 C   0  0  0  0  0  0  0  0  0  0  0  0
   -1.1475    7.2858   -1.1782 C   0  0  0  0  0  0  0  0  0  0  0  0
   -2.2401    7.7205   -0.4476 C   0  0  0  0  0  0  0  0  0  0  0  0
   -2.6448    6.8231    0.5795 C   0  0  0  0  0  0  0  0  0  0  0  0
   -3.8327    6.8996    1.4820 C   0  0  0  0  0  0  0  0  0  0  0  0
   -4.4999    8.0178    1.8589 C   0  0  0  0  0  0  0  0  0  0  0  0
   -5.5354    7.9964    2.8587 C   0  0  0  0  0  0  0  0  0  0  0  0
   -6.3651    7.9776    3.6662 N   0  0  0  0  0  0  0  0  0  0  0  0
   -4.1584    9.3243    1.3589 C   0  0  0  0  0  0  0  0  0  0  0  0
   -3.8837   10.3783    0.9624 N   0  0  0  0  0  0  0  0  0  0  0  0
   -0.2554    7.5562   -2.3510 C   0  0  0  0  0  0  0  0  0  0  0  0
   -0.8700    7.3237   -3.7665 C   0  0  0  0  0  0  0  0  0  0  0  0
    0.2929    7.2835   -4.7310 C   0  0  0  0  0  0  0  0  0  0  0  0
    0.9521    6.1459   -4.4859 C   0  0  0  0  0  0  0  0  0  0  0  0
    0.2028    5.4566   -3.3651 C   0  0  0  0  0  0  0  0  0  0  0  0
   -1.2132    5.8442   -3.7571 C   0  0  0  0  0  0  0  0  0  0  0  0
    0.4550    6.3010   -2.0803 C   0  0  0  0  0  0  0  0  0  0  0  0
   -5.4706    3.5484    2.0612 C   0  0  0  0  0  0  0  0  0  0  0  0
   -4.9590    2.4369    2.7673 C   0  0  0  0  0  0  0  0  0  0  0  0
   -4.9151    2.3151    4.2112 N   0  0  0  0  0  0  0  0  0  0  0  0
   -5.1242    3.4594    5.0642 C   0  0  0  0  0  0  0  0  0  0  0  0
   -6.3119    3.5709    5.8100 C   0  0  0  0  0  0  0  0  0  0  0  0
   -6.4549    4.5780    6.7655 C   0  0  0  0  0  0  0  0  0  0  0  0
   -5.4234    5.5014    6.9668 C   0  0  0  0  0  0  0  0  0  0  0  0
   -5.5582    6.7416    8.2578 S   0  0  0  0  0  0  0  0  0  0  0  0
   -6.7048    7.7930    7.3088 C   0  0  0  0  0  0  0  0  0  0  0  0
   -4.2559    5.4219    6.1961 C   0  0  0  0  0  0  0  0  0  0  0  0
   -4.0974    4.3888    5.2639 C   0  0  0  0  0  0  0  0  0  0  0  0
   -5.1281    1.0322    4.8353 C   0  0  0  0  0  0  0  0  0  0  0  0
   -4.3743    0.6709    5.9607 C   0  0  0  0  0  0  0  0  0  0  0  0
   -4.7072   -0.4694    6.6965 C   0  0  0  0  0  0  0  0  0  0  0  0
   -5.7751   -1.2763    6.2970 C   0  0  0  0  0  0  0  0  0  0  0  0
   -6.1725   -2.7648    7.2166 S   0  0  0  0  0  0  0  0  0  0  0  0
   -7.5237   -1.9996    8.1710 C   0  0  0  0  0  0  0  0  0  0  0  0
   -6.5174   -0.9404    5.1631 C   0  0  0  0  0  0  0  0  0  0  0  0
   -6.2132    0.2238    4.4491 C   0  0  0  0  0  0  0  0  0  0  0  0
   -4.7206    1.3672    1.8831 C   0  0  0  0  0  0  0  0  0  0  0  0
   -3.8071   -0.0454    1.9347 S   0  0  0  0  0  0  0  0  0  0  0  0
   -4.0155   -0.4321    0.2775 C   0  0  0  0  0  0  0  0  0  0  0  0
   -4.8068    0.5718   -0.3094 C   0  0  0  0  0  0  0  0  0  0  0  0
   -5.5682    0.3904   -1.5177 N   0  0  0  0  0  0  0  0  0  0  0  0
   -5.5707    1.4710   -2.4778 C   0  0  0  0  0  0  0  0  0  0  0  0
   -6.7804    2.0903   -2.8582 C   0  0  0  0  0  0  0  0  0  0  0  0
   -6.7711    3.1773   -3.7395 C   0  0  0  0  0  0  0  0  0  0  0  0
   -5.5606    3.6701   -4.2353 C   0  0  0  0  0  0  0  0  0  0  0  0
   -5.5495    5.0635   -5.3690 S   0  0  0  0  0  0  0  0  0  0  0  0
   -5.3816    6.3021   -4.0426 C   0  0  0  0  0  0  0  0  0  0  0  0
   -4.3555    3.0719   -3.8544 C   0  0  0  0  0  0  0  0  0  0  0  0
   -4.3625    1.9922   -2.9699 C   0  0  0  0  0  0  0  0  0  0  0  0
   -6.6380   -0.5994   -1.5131 C   0  0  0  0  0  0  0  0  0  0  0  0
   -7.1927   -1.0691   -0.2982 C   0  0  0  0  0  0  0  0  0  0  0  0
   -8.3105   -1.9123   -0.2950 C   0  0  0  0  0  0  0  0  0  0  0  0
   -8.8976   -2.2969   -1.5012 C   0  0  0  0  0  0  0  0  0  0  0  0
  -10.3735   -3.3164   -1.4847 S   0  0  0  0  0  0  0  0  0  0  0  0
  -11.4910   -1.8796   -1.3422 C   0  0  0  0  0  0  0  0  0  0  0  0
   -8.3270   -1.8919   -2.7127 C   0  0  0  0  0  0  0  0  0  0  0  0
   -7.1956   -1.0593   -2.7228 C   0  0  0  0  0  0  0  0  0  0  0  0
   -5.1359    1.5627    0.6112 C   0  0  0  0  0  0  0  0  0  0  0  0
   -5.7535    3.0991    0.4454 S   0  0  0  0  0  0  0  0  0  0  0  0
   -2.9814   -1.1607   -0.4739 C   0  0  0  0  0  0  0  0  0  0  0  0
   -2.4056   -2.4012   -0.1513 C   0  0  0  0  0  0  0  0  0  0  0  0
   -3.0817   -3.4703    0.5345 N   0  0  0  0  0  0  0  0  0  0  0  0
   -2.9790   -3.5296    1.9656 C   0  0  0  0  0  0  0  0  0  0  0  0
   -1.7728   -3.9221    2.5748 C   0  0  0  0  0  0  0  0  0  0  0  0
   -1.7344   -4.2429    3.9325 C   0  0  0  0  0  0  0  0  0  0  0  0
   -2.8914   -4.1326    4.7045 C   0  0  0  0  0  0  0  0  0  0  0  0
   -2.8729   -4.6759    6.4217 S   0  0  0  0  0  0  0  0  0  0  0  0
   -1.9945   -3.1961    7.0281 C   0  0  0  0  0  0  0  0  0  0  0  0
   -4.0869   -3.6933    4.1153 C   0  0  0  0  0  0  0  0  0  0  0  0
   -4.1287   -3.3937    2.7508 C   0  0  0  0  0  0  0  0  0  0  0  0
   -3.3872   -4.6808   -0.2171 C   0  0  0  0  0  0  0  0  0  0  0  0
   -3.4660   -5.9408    0.4117 C   0  0  0  0  0  0  0  0  0  0  0  0
   -3.5530   -7.1123   -0.3487 C   0  0  0  0  0  0  0  0  0  0  0  0
   -3.5725   -7.0502   -1.7448 C   0  0  0  0  0  0  0  0  0  0  0  0
   -3.5294   -8.5553   -2.7224 S   0  0  0  0  0  0  0  0  0  0  0  0
   -1.7097   -8.6665   -2.7203 C   0  0  0  0  0  0  0  0  0  0  0  0
   -3.5944   -5.8032   -2.3771 C   0  0  0  0  0  0  0  0  0  0  0  0
   -3.5178   -4.6326   -1.6248 C   0  0  0  0  0  0  0  0  0  0  0  0
   -1.1896   -2.5806   -0.8110 C   0  0  0  0  0  0  0  0  0  0  0  0
    0.0782   -3.6492   -0.6027 S   0  0  0  0  0  0  0  0  0  0  0  0
    1.1879   -2.7611   -1.5470 C   0  0  0  0  0  0  0  0  0  0  0  0
    0.5290   -1.6168   -2.0348 C   0  0  0  0  0  0  0  0  0  0  0  0
    1.1450   -0.5797   -2.8146 N   0  0  0  0  0  0  0  0  0  0  0  0
    0.6006   -0.2797   -4.1113 C   0  0  0  0  0  0  0  0  0  0  0  0
    0.2907   -1.3169   -5.0053 C   0  0  0  0  0  0  0  0  0  0  0  0
   -0.2290   -1.0265   -6.2751 C   0  0  0  0  0  0  0  0  0  0  0  0
   -0.4579    0.3032   -6.6533 C   0  0  0  0  0  0  0  0  0  0  0  0
   -1.1402    0.6782   -8.2655 S   0  0  0  0  0  0  0  0  0  0  0  0
    0.4921    0.8780   -9.0497 C   0  0  0  0  0  0  0  0  0  0  0  0
   -0.1771    1.3389   -5.7546 C   0  0  0  0  0  0  0  0  0  0  0  0
    0.3580    1.0520   -4.4918 C   0  0  0  0  0  0  0  0  0  0  0  0
    2.2221    0.2139   -2.2888 C   0  0  0  0  0  0  0  0  0  0  0  0
    3.3372    0.4975   -3.0907 C   0  0  0  0  0  0  0  0  0  0  0  0
    4.3417    1.3486   -2.6268 C   0  0  0  0  0  0  0  0  0  0  0  0
    4.2322    1.9410   -1.3630 C   0  0  0  0  0  0  0  0  0  0  0  0
    5.5041    3.0677   -0.7903 S   0  0  0  0  0  0  0  0  0  0  0  0
    4.7543    4.5145   -1.6062 C   0  0  0  0  0  0  0  0  0  0  0  0
    3.1345    1.6356   -0.5455 C   0  0  0  0  0  0  0  0  0  0  0  0
    2.1325    0.7682   -1.0030 C   0  0  0  0  0  0  0  0  0  0  0  0
   -0.7911   -1.5620   -1.6036 C   0  0  0  0  0  0  0  0  0  0  0  0
   -1.9233   -0.3491   -1.5363 S   0  0  0  0  0  0  0  0  0  0  0  0
    2.6267   -2.8392   -1.3011 C   0  0  0  0  0  0  0  0  0  0  0  0
    3.1826   -2.6812   -0.0411 C   0  0  0  0  0  0  0  0  0  0  0  0
    4.5794   -2.7247   -0.0472 C   0  0  0  0  0  0  0  0  0  0  0  0
    5.4134   -2.5443    1.0764 C   0  0  0  0  0  0  0  0  0  0  0  0
    4.8670   -2.3834    2.4404 C   0  0  0  0  0  0  0  0  0  0  0  0
    5.2154   -1.3842    3.3464 C   0  0  0  0  0  0  0  0  0  0  0  0
    4.5792   -1.5202    4.5898 C   0  0  0  0  0  0  0  0  0  0  0  0
    4.8454   -0.3785    5.8954 Cl  0  0  0  0  0  0  0  0  0  0  0  0
    3.7710   -2.6515    4.6822 C   0  0  0  0  0  0  0  0  0  0  0  0
    2.9675   -3.1010    5.8734 C   0  0  0  0  0  0  0  0  0  0  0  0
    3.4024   -4.4976    6.3308 C   0  0  0  0  0  0  0  0  0  0  0  0
    3.8167   -3.4548    3.1981 S   0  0  0  0  0  0  0  0  0  0  0  0
    6.7964   -2.5652    0.8392 C   0  0  0  0  0  0  0  0  0  0  0  0
    7.3415   -2.7836   -0.4302 C   0  0  0  0  0  0  0  0  0  0  0  0
    6.5062   -2.9806   -1.5545 C   0  0  0  0  0  0  0  0  0  0  0  0
    7.0589   -3.2499   -2.8955 C   0  0  0  0  0  0  0  0  0  0  0  0
    6.9275   -4.7152   -3.7144 S   0  0  0  0  0  0  0  0  0  0  0  0
    7.9264   -4.2781   -4.9986 C   0  0  0  0  0  0  0  0  0  0  0  0
    8.2592   -5.1644   -6.1586 C   0  0  0  0  0  0  0  0  0  0  0  0
    7.3398   -4.8772   -7.3359 C   0  0  0  0  0  0  0  0  0  0  0  0
    8.3523   -2.9669   -4.8095 C   0  0  0  0  0  0  0  0  0  0  0  0
    7.8750   -2.3943   -3.6228 C   0  0  0  0  0  0  0  0  0  0  0  0
    9.4034   -2.1002   -5.9165 Cl  0  0  0  0  0  0  0  0  0  0  0  0
    5.1166   -2.9325   -1.3260 C   0  0  0  0  0  0  0  0  0  0  0  0
    3.8523   -3.0363   -2.4443 S   0  0  0  0  0  0  0  0  0  0  0  0
    8.7436   -2.7664   -0.4340 C   0  0  0  0  0  0  0  0  0  0  0  0
    9.2739   -2.5085    0.8284 C   0  0  0  0  0  0  0  0  0  0  0  0
    8.0360   -2.3626    1.9551 S   0  0  0  0  0  0  0  0  0  0  0  0
   10.6906   -2.2696    1.1197 C   0  0  0  0  0  0  0  0  0  0  0  0
   11.1738   -1.0379    1.3480 C   0  0  0  0  0  0  0  0  0  0  0  0
   10.4527    0.2215    1.1103 C   0  0  0  0  0  0  0  0  0  0  0  0
    9.2111    0.3677    0.9732 O   0  0  0  0  0  0  0  0  0  0  0  0
   11.4311    1.2789    0.9644 C   0  0  0  0  0  0  0  0  0  0  0  0
   11.2224    2.6084    0.6007 C   0  0  0  0  0  0  0  0  0  0  0  0
    9.9697    3.0979    0.4194 F   0  0  0  0  0  0  0  0  0  0  0  0
   12.3411    3.4335    0.4079 C   0  0  0  0  0  0  0  0  0  0  0  0
   13.6362    2.9130    0.5617 C   0  0  0  0  0  0  0  0  0  0  0  0
   13.8264    1.5710    0.9265 C   0  0  0  0  0  0  0  0  0  0  0  0
   12.7035    0.7631    1.1610 C   0  0  0  0  0  0  0  0  0  0  0  0
   12.6063   -0.6732    1.5354 C   0  0  0  0  0  0  0  0  0  0  0  0
   13.5517   -1.4120    2.1672 C   0  0  0  0  0  0  0  0  0  0  0  0
   13.2407   -2.6817    2.7788 C   0  0  0  0  0  0  0  0  0  0  0  0
   12.9862   -3.6907    3.2910 N   0  0  0  0  0  0  0  0  0  0  0  0
   14.8855   -0.9308    2.4025 C   0  0  0  0  0  0  0  0  0  0  0  0
   15.9665   -0.5570    2.5843 N   0  0  0  0  0  0  0  0  0  0  0  0
   -6.0972    5.5736    2.4066 H   0  0  0  0  0  0  0  0  0  0  0  0
   -0.4151    4.1870    0.1637 H   0  0  0  0  0  0  0  0  0  0  0  0
   -2.7557    8.6313   -0.7081 H   0  0  0  0  0  0  0  0  0  0  0  0
    0.3627    8.4724   -2.2440 H   0  0  0  0  0  0  0  0  0  0  0  0
   -1.6905    8.0076   -4.0604 H   0  0  0  0  0  0  0  0  0  0  0  0
    0.5058    7.9686   -5.5487 H   0  0  0  0  0  0  0  0  0  0  0  0
    1.7811    5.7484   -5.0678 H   0  0  0  0  0  0  0  0  0  0  0  0
    0.4003    4.3705   -3.2698 H   0  0  0  0  0  0  0  0  0  0  0  0
   -1.5263    5.4550   -4.7564 H   0  0  0  0  0  0  0  0  0  0  0  0
   -1.9873    5.5575   -3.0161 H   0  0  0  0  0  0  0  0  0  0  0  0
    1.5212    6.4316   -1.7862 H   0  0  0  0  0  0  0  0  0  0  0  0
   -7.1138    2.8583    5.6696 H   0  0  0  0  0  0  0  0  0  0  0  0
   -7.3612    4.6307    7.3560 H   0  0  0  0  0  0  0  0  0  0  0  0
   -6.9507    8.6875    7.9250 H   0  0  0  0  0  0  0  0  0  0  0  0
   -7.6452    7.2367    7.1051 H   0  0  0  0  0  0  0  0  0  0  0  0
   -6.2370    8.1231    6.3624 H   0  0  0  0  0  0  0  0  0  0  0  0
   -3.4499    6.1290    6.3581 H   0  0  0  0  0  0  0  0  0  0  0  0
   -3.1721    4.3091    4.7120 H   0  0  0  0  0  0  0  0  0  0  0  0
   -3.5411    1.2781    6.2726 H   0  0  0  0  0  0  0  0  0  0  0  0
   -4.1440   -0.7167    7.5842 H   0  0  0  0  0  0  0  0  0  0  0  0
   -7.2504   -0.9803    8.5224 H   0  0  0  0  0  0  0  0  0  0  0  0
   -8.4242   -1.9317    7.5203 H   0  0  0  0  0  0  0  0  0  0  0  0
   -7.7529   -2.6464    9.0422 H   0  0  0  0  0  0  0  0  0  0  0  0
   -7.3545   -1.5559    4.8448 H   0  0  0  0  0  0  0  0  0  0  0  0
   -6.8395    0.5095    3.6122 H   0  0  0  0  0  0  0  0  0  0  0  0
   -7.7264    1.7474   -2.4581 H   0  0  0  0  0  0  0  0  0  0  0  0
   -7.7062    3.6433   -4.0205 H   0  0  0  0  0  0  0  0  0  0  0  0
   -4.4175    6.1679   -3.5226 H   0  0  0  0  0  0  0  0  0  0  0  0
   -5.3935    7.3118   -4.5047 H   0  0  0  0  0  0  0  0  0  0  0  0
   -6.2228    6.2298   -3.3356 H   0  0  0  0  0  0  0  0  0  0  0  0
   -3.4143    3.4486   -4.2303 H   0  0  0  0  0  0  0  0  0  0  0  0
   -3.4263    1.5611   -2.6749 H   0  0  0  0  0  0  0  0  0  0  0  0
   -6.8066   -0.7516    0.6635 H   0  0  0  0  0  0  0  0  0  0  0  0
   -8.7478   -2.2299    0.6406 H   0  0  0  0  0  0  0  0  0  0  0  0
  -11.4896   -1.3054   -2.2957 H   0  0  0  0  0  0  0  0  0  0  0  0
  -11.1778   -1.2140   -0.5053 H   0  0  0  0  0  0  0  0  0  0  0  0
  -12.5215   -2.2429   -1.1358 H   0  0  0  0  0  0  0  0  0  0  0  0
   -8.7732   -2.1964   -3.6518 H   0  0  0  0  0  0  0  0  0  0  0  0
   -6.7828   -0.7418   -3.6719 H   0  0  0  0  0  0  0  0  0  0  0  0
   -0.8804   -4.0623    1.9822 H   0  0  0  0  0  0  0  0  0  0  0  0
   -0.8129   -4.6078    4.3695 H   0  0  0  0  0  0  0  0  0  0  0  0
   -0.9743   -3.1470    6.6017 H   0  0  0  0  0  0  0  0  0  0  0  0
   -1.9299   -3.2464    8.1347 H   0  0  0  0  0  0  0  0  0  0  0  0
   -2.5686   -2.2965    6.7425 H   0  0  0  0  0  0  0  0  0  0  0  0
   -4.9968   -3.6432    4.6985 H   0  0  0  0  0  0  0  0  0  0  0  0
   -5.0666   -3.1102    2.2902 H   0  0  0  0  0  0  0  0  0  0  0  0
   -3.4069   -6.0373    1.4881 H   0  0  0  0  0  0  0  0  0  0  0  0
   -3.5545   -8.0706    0.1467 H   0  0  0  0  0  0  0  0  0  0  0  0
   -1.2617   -7.6719   -2.9366 H   0  0  0  0  0  0  0  0  0  0  0  0
   -1.3850   -9.3764   -3.5071 H   0  0  0  0  0  0  0  0  0  0  0  0
   -1.3593   -9.0490   -1.7358 H   0  0  0  0  0  0  0  0  0  0  0  0
   -3.6218   -5.7415   -3.4583 H   0  0  0  0  0  0  0  0  0  0  0  0
   -3.5134   -3.6845   -2.1482 H   0  0  0  0  0  0  0  0  0  0  0  0
    0.4668   -2.3456   -4.7281 H   0  0  0  0  0  0  0  0  0  0  0  0
   -0.4414   -1.8366   -6.9586 H   0  0  0  0  0  0  0  0  0  0  0  0
    0.3424    1.1490  -10.1159 H   0  0  0  0  0  0  0  0  0  0  0  0
    1.0522   -0.0795   -9.0045 H   0  0  0  0  0  0  0  0  0  0  0  0
    1.0635    1.6850   -8.5491 H   0  0  0  0  0  0  0  0  0  0  0  0
   -0.3605    2.3666   -6.0349 H   0  0  0  0  0  0  0  0  0  0  0  0
    0.5682    1.8663   -3.8075 H   0  0  0  0  0  0  0  0  0  0  0  0
    3.4161    0.0576   -4.0773 H   0  0  0  0  0  0  0  0  0  0  0  0
    5.1858    1.5632   -3.2596 H   0  0  0  0  0  0  0  0  0  0  0  0
    5.3641    5.4124   -1.3648 H   0  0  0  0  0  0  0  0  0  0  0  0
    3.7234    4.6784   -1.2287 H   0  0  0  0  0  0  0  0  0  0  0  0
    4.7424    4.3807   -2.6997 H   0  0  0  0  0  0  0  0  0  0  0  0
    3.0441    2.0910    0.4349 H   0  0  0  0  0  0  0  0  0  0  0  0
    1.2736    0.5701   -0.3724 H   0  0  0  0  0  0  0  0  0  0  0  0
    2.5779   -2.5085    0.8410 H   0  0  0  0  0  0  0  0  0  0  0  0
    5.9011   -0.5744    3.1170 H   0  0  0  0  0  0  0  0  0  0  0  0
    3.0878   -2.3877    6.7187 H   0  0  0  0  0  0  0  0  0  0  0  0
    1.8950   -3.1188    5.5898 H   0  0  0  0  0  0  0  0  0  0  0  0
    2.7848   -4.8252    7.1996 H   0  0  0  0  0  0  0  0  0  0  0  0
    3.2844   -5.2232    5.4904 H   0  0  0  0  0  0  0  0  0  0  0  0
    4.4780   -4.4700    6.6308 H   0  0  0  0  0  0  0  0  0  0  0  0
    9.3194   -5.0092   -6.4610 H   0  0  0  0  0  0  0  0  0  0  0  0
    8.1306   -6.2249   -5.8491 H   0  0  0  0  0  0  0  0  0  0  0  0
    7.4179   -3.8141   -7.6453 H   0  0  0  0  0  0  0  0  0  0  0  0
    6.2837   -5.0973   -7.0686 H   0  0  0  0  0  0  0  0  0  0  0  0
    7.6337   -5.5119   -8.1990 H   0  0  0  0  0  0  0  0  0  0  0  0
    8.1128   -1.3881   -3.3155 H   0  0  0  0  0  0  0  0  0  0  0  0
    9.3682   -2.9065   -1.3119 H   0  0  0  0  0  0  0  0  0  0  0  0
   11.3552   -3.1137    1.0470 H   0  0  0  0  0  0  0  0  0  0  0  0
   12.2008    4.4694    0.1188 H   0  0  0  0  0  0  0  0  0  0  0  0
   14.4943    3.5395    0.3716 H   0  0  0  0  0  0  0  0  0  0  0  0
   14.8311    1.1840    0.9745 H   0  0  0  0  0  0  0  0  0  0  0  0
  1  2  2  3
  2  3  1  0
  3  4  2  0
  3  5  1  0
  5  6  2  0
  6  7  1  0
  7  8  2  0
  8  9  1  0
  9 10  2  0
 10 11  1  0
 11 12  2  3
 12 13  1  0
 13 14  3  0
 12 15  1  0
 15 16  3  0
  8 17  1  0
 17 18  1  0
 18 19  1  0
 19 20  2  0
 20 21  1  0
 21 22  1  0
 21 23  1  0
  1 24  1  0
 24 25  2  0
 25 26  1  0
 26 27  1  0
 27 28  2  0
 28 29  1  0
 29 30  2  0
 30 31  1  0
 31 32  1  0
 30 33  1  0
 33 34  2  0
 26 35  1  0
 35 36  2  0
 36 37  1  0
 37 38  2  0
 38 39  1  0
 39 40  1  0
 38 41  1  0
 41 42  2  0
 25 43  1  0
 43 44  1  0
 44 45  1  0
 45 46  2  0
 46 47  1  0
 47 48  1  0
 48 49  2  0
 49 50  1  0
 50 51  2  0
 51 52  1  0
 52 53  1  0
 51 54  1  0
 54 55  2  0
 47 56  1  0
 56 57  2  0
 57 58  1  0
 58 59  2  0
 59 60  1  0
 60 61  1  0
 59 62  1  0
 62 63  2  0
 46 64  1  0
 64 65  1  0
 45 66  1  0
 66 67  2  0
 67 68  1  0
 68 69  1  0
 69 70  2  0
 70 71  1  0
 71 72  2  0
 72 73  1  0
 73 74  1  0
 72 75  1  0
 75 76  2  0
 68 77  1  0
 77 78  2  0
 78 79  1  0
 79 80  2  0
 80 81  1  0
 81 82  1  0
 80 83  1  0
 83 84  2  0
 67 85  1  0
 85 86  1  0
 86 87  1  0
 87 88  2  0
 88 89  1  0
 89 90  1  0
 90 91  2  0
 91 92  1  0
 92 93  2  0
 93 94  1  0
 94 95  1  0
 93 96  1  0
 96 97  2  0
 89 98  1  0
 98 99  2  0
 99100  1  0
100101  2  0
101102  1  0
102103  1  0
101104  1  0
104105  2  0
 88106  1  0
106107  1  0
 87108  1  0
108109  2  0
109110  1  0
110111  2  0
111112  1  0
112113  2  0
113114  1  0
114115  1  0
114116  2  0
116117  1  0
117118  1  0
116119  1  0
111120  1  0
120121  2  0
121122  1  0
122123  1  0
123124  1  0
124125  1  0
125126  1  0
126127  1  0
125128  2  0
128129  1  0
128130  1  0
122131  2  0
131132  1  0
121133  1  0
133134  2  0
134135  1  0
134136  1  0
136137  2  3
137138  1  0
138139  2  0
138140  1  0
140141  2  0
141142  1  0
141143  1  0
143144  2  0
144145  1  0
145146  2  0
146147  1  0
147148  2  3
148149  1  0
149150  3  0
148151  1  0
151152  3  0
 11  2  1  0
 23 17  1  0
 65 24  1  0
107 66  1  0
132108  1  0
147137  1  0
 10  5  1  0
 22 18  1  0
 34 27  1  0
 42 35  1  0
 64 43  2  0
 76 69  1  0
 84 77  1  0
106 85  2  0
131110  1  0
146140  1  0
 23  7  1  0
 55 48  1  0
 63 56  1  0
 97 90  1  0
105 98  1  0
119112  1  0
135120  1  0
129123  2  0
  1153  1  0
  6154  1  0
  9155  1  0
 17156  1  0
 18157  1  0
 19158  1  0
 20159  1  0
 21160  1  0
 22161  1  0
 22162  1  0
 23163  1  0
 28164  1  0
 29165  1  0
 32166  1  0
 32167  1  0
 32168  1  0
 33169  1  0
 34170  1  0
 36171  1  0
 37172  1  0
 40173  1  0
 40174  1  0
 40175  1  0
 41176  1  0
 42177  1  0
 49178  1  0
 50179  1  0
 53180  1  0
 53181  1  0
 53182  1  0
 54183  1  0
 55184  1  0
 57185  1  0
 58186  1  0
 61187  1  0
 61188  1  0
 61189  1  0
 62190  1  0
 63191  1  0
 70192  1  0
 71193  1  0
 74194  1  0
 74195  1  0
 74196  1  0
 75197  1  0
 76198  1  0
 78199  1  0
 79200  1  0
 82201  1  0
 82202  1  0
 82203  1  0
 83204  1  0
 84205  1  0
 91206  1  0
 92207  1  0
 95208  1  0
 95209  1  0
 95210  1  0
 96211  1  0
 97212  1  0
 99213  1  0
100214  1  0
103215  1  0
103216  1  0
103217  1  0
104218  1  0
105219  1  0
109220  1  0
113221  1  0
117222  1  0
117223  1  0
118224  1  0
118225  1  0
118226  1  0
126227  1  0
126228  1  0
127229  1  0
127230  1  0
127231  1  0
129232  1  0
133233  1  0
136234  1  0
143235  1  0
144236  1  0
145237  1  0
M  END

