
     RDKit          3D

261288  0  0  0  0  0  0  0  0999 V2000
   -5.4116    4.5505   -3.5445 C   0  0  0  0  0  0  0  0  0  0  0  0
   -4.9465    5.5260   -2.7387 C   0  0  0  0  0  0  0  0  0  0  0  0
   -3.8609    5.3700   -1.7660 C   0  0  0  0  0  0  0  0  0  0  0  0
   -2.9609    4.4883   -1.7749 O   0  0  0  0  0  0  0  0  0  0  0  0
   -3.9360    6.4499   -0.8106 C   0  0  0  0  0  0  0  0  0  0  0  0
   -3.1828    6.5820    0.3778 C   0  0  0  0  0  0  0  0  0  0  0  0
   -3.5593    7.6584    1.1587 C   0  0  0  0  0  0  0  0  0  0  0  0
   -4.6303    8.5444    0.8100 C   0  0  0  0  0  0  0  0  0  0  0  0
   -5.3745    8.4135   -0.3563 C   0  0  0  0  0  0  0  0  0  0  0  0
   -4.9727    7.3354   -1.1957 C   0  0  0  0  0  0  0  0  0  0  0  0
   -5.5567    6.8664   -2.4905 C   0  0  0  0  0  0  0  0  0  0  0  0
   -6.2690    7.6131   -3.3680 C   0  0  0  0  0  0  0  0  0  0  0  0
   -6.6380    8.9798   -3.0934 C   0  0  0  0  0  0  0  0  0  0  0  0
   -6.9285   10.0801   -2.8991 N   0  0  0  0  0  0  0  0  0  0  0  0
   -6.5763    7.1536   -4.6996 C   0  0  0  0  0  0  0  0  0  0  0  0
   -6.8246    6.7930   -5.7697 N   0  0  0  0  0  0  0  0  0  0  0  0
   -4.4347    9.3050    2.0909 C   0  0  0  0  0  0  0  0  0  0  0  0
   -5.4782    9.0610    3.2195 C   0  0  0  0  0  0  0  0  0  0  0  0
   -4.8532    9.5915    4.4912 C   0  0  0  0  0  0  0  0  0  0  0  0
   -3.8563    8.7548    4.8033 C   0  0  0  0  0  0  0  0  0  0  0  0
   -3.8412    7.6904    3.7358 C   0  0  0  0  0  0  0  0  0  0  0  0
   -5.3388    7.5746    3.5046 C   0  0  0  0  0  0  0  0  0  0  0  0
   -3.3384    8.3973    2.4426 C   0  0  0  0  0  0  0  0  0  0  0  0
   -4.8907    3.1817   -3.4753 C   0  0  0  0  0  0  0  0  0  0  0  0
   -4.1947    2.5053   -4.4870 C   0  0  0  0  0  0  0  0  0  0  0  0
   -4.2092    2.8943   -5.8682 N   0  0  0  0  0  0  0  0  0  0  0  0
   -3.0064    3.4432   -6.4412 C   0  0  0  0  0  0  0  0  0  0  0  0
   -2.4712    2.9059   -7.6231 C   0  0  0  0  0  0  0  0  0  0  0  0
   -1.3293    3.4685   -8.2005 C   0  0  0  0  0  0  0  0  0  0  0  0
   -0.7135    4.5756   -7.6046 C   0  0  0  0  0  0  0  0  0  0  0  0
    0.7691    5.2745   -8.3356 S   0  0  0  0  0  0  0  0  0  0  0  0
   -0.1494    6.4359   -9.3941 C   0  0  0  0  0  0  0  0  0  0  0  0
   -1.2288    5.1030   -6.4135 C   0  0  0  0  0  0  0  0  0  0  0  0
   -2.3715    4.5437   -5.8346 C   0  0  0  0  0  0  0  0  0  0  0  0
   -5.3766    2.6092   -6.6831 C   0  0  0  0  0  0  0  0  0  0  0  0
   -5.5994    3.2966   -7.8955 C   0  0  0  0  0  0  0  0  0  0  0  0
   -6.6907    2.9746   -8.7080 C   0  0  0  0  0  0  0  0  0  0  0  0
   -7.5983    1.9880   -8.3046 C   0  0  0  0  0  0  0  0  0  0  0  0
   -9.0011    1.5688   -9.3421 S   0  0  0  0  0  0  0  0  0  0  0  0
   -8.1018    0.2580  -10.2345 C   0  0  0  0  0  0  0  0  0  0  0  0
   -7.4166    1.3327   -7.0844 C   0  0  0  0  0  0  0  0  0  0  0  0
   -6.3169    1.6363   -6.2811 C   0  0  0  0  0  0  0  0  0  0  0  0
   -3.7354    1.2688   -4.0376 C   0  0  0  0  0  0  0  0  0  0  0  0
   -2.9123   -0.0214   -4.7234 S   0  0  0  0  0  0  0  0  0  0  0  0
   -2.9827   -1.0133   -3.3277 C   0  0  0  0  0  0  0  0  0  0  0  0
   -3.7037   -0.3143   -2.3324 C   0  0  0  0  0  0  0  0  0  0  0  0
   -4.1689   -0.8738   -1.0938 N   0  0  0  0  0  0  0  0  0  0  0  0
   -3.9957   -0.1088    0.1085 C   0  0  0  0  0  0  0  0  0  0  0  0
   -2.7088    0.2786    0.5164 C   0  0  0  0  0  0  0  0  0  0  0  0
   -2.5452    1.0775    1.6510 C   0  0  0  0  0  0  0  0  0  0  0  0
   -3.6596    1.5144    2.3696 C   0  0  0  0  0  0  0  0  0  0  0  0
   -3.4311    2.5240    3.8331 S   0  0  0  0  0  0  0  0  0  0  0  0
   -3.5158    1.1013    4.9634 C   0  0  0  0  0  0  0  0  0  0  0  0
   -4.9487    1.1543    1.9533 C   0  0  0  0  0  0  0  0  0  0  0  0
   -5.1141    0.3302    0.8347 C   0  0  0  0  0  0  0  0  0  0  0  0
   -4.9392   -2.0970   -1.0792 C   0  0  0  0  0  0  0  0  0  0  0  0
   -4.8553   -2.9826    0.0109 C   0  0  0  0  0  0  0  0  0  0  0  0
   -5.5837   -4.1754    0.0122 C   0  0  0  0  0  0  0  0  0  0  0  0
   -6.4102   -4.4916   -1.0738 C   0  0  0  0  0  0  0  0  0  0  0  0
   -7.3804   -6.0005   -1.0524 S   0  0  0  0  0  0  0  0  0  0  0  0
   -6.1361   -6.9627   -1.9653 C   0  0  0  0  0  0  0  0  0  0  0  0
   -6.4995   -3.6176   -2.1615 C   0  0  0  0  0  0  0  0  0  0  0  0
   -5.7664   -2.4303   -2.1686 C   0  0  0  0  0  0  0  0  0  0  0  0
   -4.0782    0.9574   -2.7654 C   0  0  0  0  0  0  0  0  0  0  0  0
   -4.9719    2.2022   -2.0840 S   0  0  0  0  0  0  0  0  0  0  0  0
   -2.2436   -2.3018   -3.1720 C   0  0  0  0  0  0  0  0  0  0  0  0
   -1.9000   -2.7902   -1.8906 C   0  0  0  0  0  0  0  0  0  0  0  0
   -1.0832   -3.9121   -1.7769 C   0  0  0  0  0  0  0  0  0  0  0  0
   -0.4598   -4.4698   -0.5289 C   0  0  0  0  0  0  0  0  0  0  0  0
   -0.1483   -3.4571    0.5628 C   0  0  0  0  0  0  0  0  0  0  0  0
    0.7912   -2.4204    0.5697 C   0  0  0  0  0  0  0  0  0  0  0  0
    0.9665   -1.6693    1.7461 C   0  0  0  0  0  0  0  0  0  0  0  0
    0.2166   -1.9681    2.9129 C   0  0  0  0  0  0  0  0  0  0  0  0
    0.4024   -1.2930    4.1301 O   0  0  0  0  0  0  0  0  0  0  0  0
    1.3184   -0.2230    4.3617 C   0  0  0  0  0  0  0  0  0  0  0  0
    0.7276    1.0959    3.8815 C   0  0  0  0  0  0  0  0  0  0  0  0
   -0.7290   -3.0061    2.8768 C   0  0  0  0  0  0  0  0  0  0  0  0
   -0.8898   -3.7320    1.6990 C   0  0  0  0  0  0  0  0  0  0  0  0
   -1.7034   -4.9052    1.4553 C   0  0  0  0  0  0  0  0  0  0  0  0
   -2.6536   -5.5110    2.2779 C   0  0  0  0  0  0  0  0  0  0  0  0
   -3.3616   -6.6315    1.7781 C   0  0  0  0  0  0  0  0  0  0  0  0
   -4.3916   -7.2568    2.5009 O   0  0  0  0  0  0  0  0  0  0  0  0
   -4.9134   -6.7941    3.7478 C   0  0  0  0  0  0  0  0  0  0  0  0
   -4.0670   -7.3041    4.9094 C   0  0  0  0  0  0  0  0  0  0  0  0
   -3.0572   -7.1302    0.4960 C   0  0  0  0  0  0  0  0  0  0  0  0
   -2.1013   -6.4994   -0.3146 C   0  0  0  0  0  0  0  0  0  0  0  0
   -1.4372   -5.3724    0.1838 C   0  0  0  0  0  0  0  0  0  0  0  0
    0.7181   -5.2125   -1.1111 C   0  0  0  0  0  0  0  0  0  0  0  0
    0.5578   -5.3634   -2.4859 C   0  0  0  0  0  0  0  0  0  0  0  0
   -0.5684   -4.5341   -2.8995 C   0  0  0  0  0  0  0  0  0  0  0  0
   -0.8756   -4.0726   -4.1801 C   0  0  0  0  0  0  0  0  0  0  0  0
   -1.7316   -2.9681   -4.3145 C   0  0  0  0  0  0  0  0  0  0  0  0
    1.6102   -5.8016   -3.2909 C   0  0  0  0  0  0  0  0  0  0  0  0
    2.8855   -5.9050   -2.7214 C   0  0  0  0  0  0  0  0  0  0  0  0
    3.1040   -5.4586   -1.4018 C   0  0  0  0  0  0  0  0  0  0  0  0
    1.9963   -5.2994   -0.5459 C   0  0  0  0  0  0  0  0  0  0  0  0
    4.2505   -4.5656   -1.1362 C   0  0  0  0  0  0  0  0  0  0  0  0
    4.1939   -3.2368   -1.6146 C   0  0  0  0  0  0  0  0  0  0  0  0
    3.7953   -2.8676   -2.9557 N   0  0  0  0  0  0  0  0  0  0  0  0
    3.0573   -1.6543   -3.1743 C   0  0  0  0  0  0  0  0  0  0  0  0
    1.6857   -1.6094   -2.8998 C   0  0  0  0  0  0  0  0  0  0  0  0
    0.9495   -0.4542   -3.1703 C   0  0  0  0  0  0  0  0  0  0  0  0
    1.5807    0.6564   -3.7380 C   0  0  0  0  0  0  0  0  0  0  0  0
    0.6107    2.0797   -4.2359 S   0  0  0  0  0  0  0  0  0  0  0  0
    0.3614    1.4823   -5.9418 C   0  0  0  0  0  0  0  0  0  0  0  0
    2.9534    0.6244   -4.0063 C   0  0  0  0  0  0  0  0  0  0  0  0
    3.6876   -0.5346   -3.7400 C   0  0  0  0  0  0  0  0  0  0  0  0
    4.3344   -3.5612   -4.1065 C   0  0  0  0  0  0  0  0  0  0  0  0
    5.5982   -4.1829   -4.0535 C   0  0  0  0  0  0  0  0  0  0  0  0
    6.0727   -4.9131   -5.1473 C   0  0  0  0  0  0  0  0  0  0  0  0
    5.3129   -5.0020   -6.3180 C   0  0  0  0  0  0  0  0  0  0  0  0
    5.9116   -5.9676   -7.7061 S   0  0  0  0  0  0  0  0  0  0  0  0
    6.9728   -4.6372   -8.3462 C   0  0  0  0  0  0  0  0  0  0  0  0
    4.0733   -4.3528   -6.3944 C   0  0  0  0  0  0  0  0  0  0  0  0
    3.5869   -3.6412   -5.2962 C   0  0  0  0  0  0  0  0  0  0  0  0
    4.6711   -2.3348   -0.6665 C   0  0  0  0  0  0  0  0  0  0  0  0
    4.5941   -0.6757   -0.5137 S   0  0  0  0  0  0  0  0  0  0  0  0
    5.3537   -0.6392    1.0022 C   0  0  0  0  0  0  0  0  0  0  0  0
    5.7565   -1.9485    1.3585 C   0  0  0  0  0  0  0  0  0  0  0  0
    6.9419   -2.2201    2.1410 N   0  0  0  0  0  0  0  0  0  0  0  0
    7.1331   -3.4868    2.8091 C   0  0  0  0  0  0  0  0  0  0  0  0
    6.0849   -4.0875    3.5318 C   0  0  0  0  0  0  0  0  0  0  0  0
    6.2950   -5.2909    4.2141 C   0  0  0  0  0  0  0  0  0  0  0  0
    7.5408   -5.9297    4.1515 C   0  0  0  0  0  0  0  0  0  0  0  0
    7.8194   -7.4647    5.0424 S   0  0  0  0  0  0  0  0  0  0  0  0
    7.3518   -8.5115    3.6276 C   0  0  0  0  0  0  0  0  0  0  0  0
    8.5792   -5.3501    3.4160 C   0  0  0  0  0  0  0  0  0  0  0  0
    8.3782   -4.1411    2.7480 C   0  0  0  0  0  0  0  0  0  0  0  0
    8.0449   -1.3029    2.0162 C   0  0  0  0  0  0  0  0  0  0  0  0
    8.4868   -0.8965    0.7426 C   0  0  0  0  0  0  0  0  0  0  0  0
    9.4744    0.0824    0.6148 C   0  0  0  0  0  0  0  0  0  0  0  0
   10.0313    0.6672    1.7596 C   0  0  0  0  0  0  0  0  0  0  0  0
   11.2110    2.0064    1.5975 S   0  0  0  0  0  0  0  0  0  0  0  0
    9.9185    3.2741    1.4136 C   0  0  0  0  0  0  0  0  0  0  0  0
    9.6310    0.2329    3.0295 C   0  0  0  0  0  0  0  0  0  0  0  0
    8.6499   -0.7573    3.1599 C   0  0  0  0  0  0  0  0  0  0  0  0
    5.2523   -2.8731    0.4295 C   0  0  0  0  0  0  0  0  0  0  0  0
    5.0679   -4.5395    0.3672 S   0  0  0  0  0  0  0  0  0  0  0  0
    5.5144    0.6478    1.7140 C   0  0  0  0  0  0  0  0  0  0  0  0
    4.9699    0.8981    2.9225 C   0  0  0  0  0  0  0  0  0  0  0  0
    5.0094    0.0224    4.1004 C   0  0  0  0  0  0  0  0  0  0  0  0
    5.4430   -1.1548    4.1446 O   0  0  0  0  0  0  0  0  0  0  0  0
    4.5809    0.7714    5.2613 C   0  0  0  0  0  0  0  0  0  0  0  0
    4.5608    0.3184    6.6006 C   0  0  0  0  0  0  0  0  0  0  0  0
    4.1234    1.2671    7.5058 C   0  0  0  0  0  0  0  0  0  0  0  0
    3.7333    2.5906    7.1178 C   0  0  0  0  0  0  0  0  0  0  0  0
    3.7783    3.0467    5.8101 C   0  0  0  0  0  0  0  0  0  0  0  0
    4.2066    2.0788    4.8593 C   0  0  0  0  0  0  0  0  0  0  0  0
    4.3679    2.1962    3.3809 C   0  0  0  0  0  0  0  0  0  0  0  0
    3.7675    3.1278    2.5856 C   0  0  0  0  0  0  0  0  0  0  0  0
    3.7165    3.0088    1.1519 C   0  0  0  0  0  0  0  0  0  0  0  0
    3.6680    2.9166    0.0001 N   0  0  0  0  0  0  0  0  0  0  0  0
    2.9853    4.2131    3.1157 C   0  0  0  0  0  0  0  0  0  0  0  0
    2.3402    5.0858    3.5253 N   0  0  0  0  0  0  0  0  0  0  0  0
    3.4166    2.9337    8.5391 C   0  0  0  0  0  0  0  0  0  0  0  0
    4.4303    3.8590    9.2706 C   0  0  0  0  0  0  0  0  0  0  0  0
    4.1200    3.7349   10.7425 C   0  0  0  0  0  0  0  0  0  0  0  0
    4.5084    2.5052   11.1086 C   0  0  0  0  0  0  0  0  0  0  0  0
    5.0568    1.8419    9.8655 C   0  0  0  0  0  0  0  0  0  0  0  0
    5.7185    3.0554    9.2328 C   0  0  0  0  0  0  0  0  0  0  0  0
    3.8305    1.5831    8.9416 C   0  0  0  0  0  0  0  0  0  0  0  0
   -6.2596    4.7071   -4.1877 H   0  0  0  0  0  0  0  0  0  0  0  0
   -2.4081    5.8909    0.6778 H   0  0  0  0  0  0  0  0  0  0  0  0
   -6.2077    9.0654   -0.5514 H   0  0  0  0  0  0  0  0  0  0  0  0
   -4.1252   10.3641    1.9469 H   0  0  0  0  0  0  0  0  0  0  0  0
   -6.5098    9.4188    3.0128 H   0  0  0  0  0  0  0  0  0  0  0  0
   -5.1966   10.4306    5.0888 H   0  0  0  0  0  0  0  0  0  0  0  0
   -3.2438    8.7931    5.6983 H   0  0  0  0  0  0  0  0  0  0  0  0
   -3.3125    6.7521    4.0100 H   0  0  0  0  0  0  0  0  0  0  0  0
   -5.8984    7.2407    4.4066 H   0  0  0  0  0  0  0  0  0  0  0  0
   -5.6185    6.9162    2.6515 H   0  0  0  0  0  0  0  0  0  0  0  0
   -2.3348    8.8747    2.5121 H   0  0  0  0  0  0  0  0  0  0  0  0
   -2.9367    2.0478   -8.0942 H   0  0  0  0  0  0  0  0  0  0  0  0
   -0.9253    3.0464   -9.1133 H   0  0  0  0  0  0  0  0  0  0  0  0
   -0.7317    7.1425   -8.7654 H   0  0  0  0  0  0  0  0  0  0  0  0
    0.5676    7.0108  -10.0156 H   0  0  0  0  0  0  0  0  0  0  0  0
   -0.8360    5.8767  -10.0638 H   0  0  0  0  0  0  0  0  0  0  0  0
   -0.7561    5.9610   -5.9470 H   0  0  0  0  0  0  0  0  0  0  0  0
   -2.7722    4.9744   -4.9278 H   0  0  0  0  0  0  0  0  0  0  0  0
   -4.9200    4.0705   -8.2284 H   0  0  0  0  0  0  0  0  0  0  0  0
   -6.8334    3.4917   -9.6497 H   0  0  0  0  0  0  0  0  0  0  0  0
   -8.7883   -0.2371  -10.9534 H   0  0  0  0  0  0  0  0  0  0  0  0
   -7.7232   -0.5065   -9.5208 H   0  0  0  0  0  0  0  0  0  0  0  0
   -7.2538    0.7023  -10.7974 H   0  0  0  0  0  0  0  0  0  0  0  0
   -8.1193    0.5744   -6.7574 H   0  0  0  0  0  0  0  0  0  0  0  0
   -6.2005    1.0901   -5.3562 H   0  0  0  0  0  0  0  0  0  0  0  0
   -1.8381   -0.0383   -0.0425 H   0  0  0  0  0  0  0  0  0  0  0  0
   -1.5495    1.3600    1.9630 H   0  0  0  0  0  0  0  0  0  0  0  0
   -3.1433    1.4110    5.9623 H   0  0  0  0  0  0  0  0  0  0  0  0
   -4.5746    0.7836    5.0628 H   0  0  0  0  0  0  0  0  0  0  0  0
   -2.9066    0.2548    4.5847 H   0  0  0  0  0  0  0  0  0  0  0  0
   -5.8174    1.5018    2.4981 H   0  0  0  0  0  0  0  0  0  0  0  0
   -6.1132    0.0601    0.5109 H   0  0  0  0  0  0  0  0  0  0  0  0
   -4.2130   -2.7577    0.8542 H   0  0  0  0  0  0  0  0  0  0  0  0
   -5.5161   -4.8450    0.8585 H   0  0  0  0  0  0  0  0  0  0  0  0
   -6.4856   -8.0113   -2.0544 H   0  0  0  0  0  0  0  0  0  0  0  0
   -5.1722   -6.9491   -1.4222 H   0  0  0  0  0  0  0  0  0  0  0  0
   -5.9964   -6.5421   -2.9825 H   0  0  0  0  0  0  0  0  0  0  0  0
   -7.1387   -3.8596   -3.0026 H   0  0  0  0  0  0  0  0  0  0  0  0
   -5.8482   -1.7675   -3.0178 H   0  0  0  0  0  0  0  0  0  0  0  0
   -2.1664   -2.2664   -0.9872 H   0  0  0  0  0  0  0  0  0  0  0  0
    1.4092   -2.2211   -0.2886 H   0  0  0  0  0  0  0  0  0  0  0  0
    1.7047   -0.8761    1.7386 H   0  0  0  0  0  0  0  0  0  0  0  0
    1.4922   -0.1471    5.4565 H   0  0  0  0  0  0  0  0  0  0  0  0
    2.2934   -0.4210    3.8819 H   0  0  0  0  0  0  0  0  0  0  0  0
    0.7136    1.1353    2.7688 H   0  0  0  0  0  0  0  0  0  0  0  0
   -0.3104    1.2121    4.2616 H   0  0  0  0  0  0  0  0  0  0  0  0
    1.3348    1.9409    4.2614 H   0  0  0  0  0  0  0  0  0  0  0  0
   -1.2941   -3.2567    3.7652 H   0  0  0  0  0  0  0  0  0  0  0  0
   -2.8404   -5.1110    3.2637 H   0  0  0  0  0  0  0  0  0  0  0  0
   -5.9441   -7.1884    3.8699 H   0  0  0  0  0  0  0  0  0  0  0  0
   -4.9879   -5.6859    3.7604 H   0  0  0  0  0  0  0  0  0  0  0  0
   -4.3012   -8.3727    5.1008 H   0  0  0  0  0  0  0  0  0  0  0  0
   -2.9845   -7.2100    4.6791 H   0  0  0  0  0  0  0  0  0  0  0  0
   -4.2892   -6.7132    5.8212 H   0  0  0  0  0  0  0  0  0  0  0  0
   -3.5862   -7.9930    0.1200 H   0  0  0  0  0  0  0  0  0  0  0  0
   -1.9003   -6.8608   -1.3139 H   0  0  0  0  0  0  0  0  0  0  0  0
   -0.4096   -4.5058   -5.0542 H   0  0  0  0  0  0  0  0  0  0  0  0
   -1.9400   -2.5960   -5.3081 H   0  0  0  0  0  0  0  0  0  0  0  0
    1.4863   -5.9041   -4.3605 H   0  0  0  0  0  0  0  0  0  0  0  0
    3.7298   -6.1078   -3.3657 H   0  0  0  0  0  0  0  0  0  0  0  0
    2.1468   -4.9624    0.4711 H   0  0  0  0  0  0  0  0  0  0  0  0
    1.1878   -2.4802   -2.5114 H   0  0  0  0  0  0  0  0  0  0  0  0
   -0.1146   -0.4299   -2.9753 H   0  0  0  0  0  0  0  0  0  0  0  0
    0.9272    0.5534   -6.1681 H   0  0  0  0  0  0  0  0  0  0  0  0
   -0.7175    1.2860   -6.1055 H   0  0  0  0  0  0  0  0  0  0  0  0
    0.7040    2.2687   -6.6464 H   0  0  0  0  0  0  0  0  0  0  0  0
    3.4404    1.4786   -4.4551 H   0  0  0  0  0  0  0  0  0  0  0  0
    4.7448   -0.5615   -3.9657 H   0  0  0  0  0  0  0  0  0  0  0  0
    6.2074   -4.1163   -3.1626 H   0  0  0  0  0  0  0  0  0  0  0  0
    7.0340   -5.4039   -5.0810 H   0  0  0  0  0  0  0  0  0  0  0  0
    7.3225   -4.9024   -9.3617 H   0  0  0  0  0  0  0  0  0  0  0  0
    6.4163   -3.6798   -8.3991 H   0  0  0  0  0  0  0  0  0  0  0  0
    7.8529   -4.5214   -7.6813 H   0  0  0  0  0  0  0  0  0  0  0  0
    3.4821   -4.4177   -7.2998 H   0  0  0  0  0  0  0  0  0  0  0  0
    2.6089   -3.1770   -5.3678 H   0  0  0  0  0  0  0  0  0  0  0  0
    5.1082   -3.6253    3.5795 H   0  0  0  0  0  0  0  0  0  0  0  0
    5.4862   -5.7372    4.7885 H   0  0  0  0  0  0  0  0  0  0  0  0
    7.4460   -9.5770    3.9193 H   0  0  0  0  0  0  0  0  0  0  0  0
    8.0261   -8.3141    2.7681 H   0  0  0  0  0  0  0  0  0  0  0  0
    6.3017   -8.3076    3.3292 H   0  0  0  0  0  0  0  0  0  0  0  0
    9.5432   -5.8425    3.3597 H   0  0  0  0  0  0  0  0  0  0  0  0
    9.1967   -3.7167    2.1843 H   0  0  0  0  0  0  0  0  0  0  0  0
    8.0438   -1.3216   -0.1475 H   0  0  0  0  0  0  0  0  0  0  0  0
    9.7851    0.4066   -0.3676 H   0  0  0  0  0  0  0  0  0  0  0  0
    9.4297    3.1577    0.4260 H   0  0  0  0  0  0  0  0  0  0  0  0
    9.1601    3.1802    2.2171 H   0  0  0  0  0  0  0  0  0  0  0  0
   10.3843    4.2771    1.4709 H   0  0  0  0  0  0  0  0  0  0  0  0
   10.0711    0.6743    3.9162 H   0  0  0  0  0  0  0  0  0  0  0  0
    8.3343   -1.0690    4.1490 H   0  0  0  0  0  0  0  0  0  0  0  0
    5.6923    1.4851    1.0589 H   0  0  0  0  0  0  0  0  0  0  0  0
    4.8659   -0.6754    6.8948 H   0  0  0  0  0  0  0  0  0  0  0  0
    3.5283    4.0675    5.5844 H   0  0  0  0  0  0  0  0  0  0  0  0
    2.3428    3.1591    8.7206 H   0  0  0  0  0  0  0  0  0  0  0  0
    4.4991    4.8983    8.8868 H   0  0  0  0  0  0  0  0  0  0  0  0
    3.7675    4.5153   11.4059 H   0  0  0  0  0  0  0  0  0  0  0  0
    4.5107    2.1124   12.1222 H   0  0  0  0  0  0  0  0  0  0  0  0
    5.7212    0.9693   10.0515 H   0  0  0  0  0  0  0  0  0  0  0  0
    6.1184    2.8699    8.2114 H   0  0  0  0  0  0  0  0  0  0  0  0
    6.5332    3.4923    9.8574 H   0  0  0  0  0  0  0  0  0  0  0  0
    3.0199    0.9579    9.3783 H   0  0  0  0  0  0  0  0  0  0  0  0
  1  2  2  3
  2  3  1  0
  3  4  2  0
  3  5  1  0
  5  6  2  0
  6  7  1  0
  7  8  2  0
  8  9  1  0
  9 10  2  0
 10 11  1  0
 11 12  2  3
 12 13  1  0
 13 14  3  0
 12 15  1  0
 15 16  3  0
  8 17  1  0
 17 18  1  0
 18 19  1  0
 19 20  2  0
 20 21  1  0
 21 22  1  0
 21 23  1  0
  1 24  1  0
 24 25  2  0
 25 26  1  0
 26 27  1  0
 27 28  2  0
 28 29  1  0
 29 30  2  0
 30 31  1  0
 31 32  1  0
 30 33  1  0
 33 34  2  0
 26 35  1  0
 35 36  2  0
 36 37  1  0
 37 38  2  0
 38 39  1  0
 39 40  1  0
 38 41  1  0
 41 42  2  0
 25 43  1  0
 43 44  1  0
 44 45  1  0
 45 46  2  0
 46 47  1  0
 47 48  1  0
 48 49  2  0
 49 50  1  0
 50 51  2  0
 51 52  1  0
 52 53  1  0
 51 54  1  0
 54 55  2  0
 47 56  1  0
 56 57  2  0
 57 58  1  0
 58 59  2  0
 59 60  1  0
 60 61  1  0
 59 62  1  0
 62 63  2  0
 46 64  1  0
 64 65  1  0
 45 66  1  0
 66 67  2  0
 67 68  1  0
 68 69  1  0
 69 70  1  0
 70 71  2  0
 71 72  1  0
 72 73  2  0
 73 74  1  0
 74 75  1  0
 75 76  1  0
 73 77  1  0
 77 78  2  0
 78 79  1  0
 79 80  2  0
 80 81  1  0
 81 82  1  0
 82 83  1  0
 83 84  1  0
 81 85  2  0
 85 86  1  0
 86 87  2  0
 69 88  1  0
 88 89  2  0
 89 90  1  0
 90 91  1  0
 91 92  2  0
 89 93  1  0
 93 94  2  0
 94 95  1  0
 95 96  2  0
 95 97  1  0
 97 98  2  0
 98 99  1  0
 99100  1  0
100101  2  0
101102  1  0
102103  2  0
103104  1  0
104105  1  0
103106  1  0
106107  2  0
 99108  1  0
108109  2  0
109110  1  0
110111  2  0
111112  1  0
112113  1  0
111114  1  0
114115  2  0
 98116  1  0
116117  1  0
117118  1  0
118119  2  0
119120  1  0
120121  1  0
121122  2  0
122123  1  0
123124  2  0
124125  1  0
125126  1  0
124127  1  0
127128  2  0
120129  1  0
129130  2  0
130131  1  0
131132  2  0
132133  1  0
133134  1  0
132135  1  0
135136  2  0
119137  1  0
137138  1  0
118139  1  0
139140  2  3
140141  1  0
141142  2  0
141143  1  0
143144  2  0
144145  1  0
145146  2  0
146147  1  0
147148  2  0
148149  1  0
149150  2  3
150151  1  0
151152  3  0
150153  1  0
153154  3  0
146155  1  0
155156  1  0
156157  1  0
157158  2  0
158159  1  0
159160  1  0
159161  1  0
 11  2  1  0
 23 17  1  0
 65 24  1  0
 92 66  1  0
138 97  1  0
149140  1  0
161155  1  0
 10  5  1  0
 22 18  1  0
 34 27  1  0
 42 35  1  0
 64 43  2  0
 90 68  2  0
107100  1  0
115108  1  0
137116  2  0
148143  1  0
160156  1  0
 23  7  1  0
 55 48  1  0
 63 56  1  0
 87 69  1  0
 96 88  1  0
128121  1  0
136129  1  0
161145  1  0
 78 70  1  0
 87 79  1  0
  1162  1  0
  6163  1  0
  9164  1  0
 17165  1  0
 18166  1  0
 19167  1  0
 20168  1  0
 21169  1  0
 22170  1  0
 22171  1  0
 23172  1  0
 28173  1  0
 29174  1  0
 32175  1  0
 32176  1  0
 32177  1  0
 33178  1  0
 34179  1  0
 36180  1  0
 37181  1  0
 40182  1  0
 40183  1  0
 40184  1  0
 41185  1  0
 42186  1  0
 49187  1  0
 50188  1  0
 53189  1  0
 53190  1  0
 53191  1  0
 54192  1  0
 55193  1  0
 57194  1  0
 58195  1  0
 61196  1  0
 61197  1  0
 61198  1  0
 62199  1  0
 63200  1  0
 67201  1  0
 71202  1  0
 72203  1  0
 75204  1  0
 75205  1  0
 76206  1  0
 76207  1  0
 76208  1  0
 77209  1  0
 80210  1  0
 83211  1  0
 83212  1  0
 84213  1  0
 84214  1  0
 84215  1  0
 85216  1  0
 86217  1  0
 91218  1  0
 92219  1  0
 93220  1  0
 94221  1  0
 96222  1  0
101223  1  0
102224  1  0
105225  1  0
105226  1  0
105227  1  0
106228  1  0
107229  1  0
109230  1  0
110231  1  0
113232  1  0
113233  1  0
113234  1  0
114235  1  0
115236  1  0
122237  1  0
123238  1  0
126239  1  0
126240  1  0
126241  1  0
127242  1  0
128243  1  0
130244  1  0
131245  1  0
134246  1  0
134247  1  0
134248  1  0
135249  1  0
136250  1  0
139251  1  0
144252  1  0
147253  1  0
155254  1  0
156255  1  0
157256  1  0
158257  1  0
159258  1  0
160259  1  0
160260  1  0
161261  1  0
M  END

