
     RDKit          3D

268293  0  0  0  0  0  0  0  0999 V2000
   -2.4927    3.4736   -6.3505 C   0  0  0  0  0  0  0  0  0  0  0  0
   -2.3315    4.1656   -7.4900 C   0  0  0  0  0  0  0  0  0  0  0  0
   -1.3935    3.7957   -8.5566 C   0  0  0  0  0  0  0  0  0  0  0  0
   -0.5943    2.8211   -8.5400 O   0  0  0  0  0  0  0  0  0  0  0  0
   -1.6153    4.6534   -9.6937 C   0  0  0  0  0  0  0  0  0  0  0  0
   -0.9330    4.6103  -10.9328 C   0  0  0  0  0  0  0  0  0  0  0  0
   -1.3336    5.5827  -11.8274 C   0  0  0  0  0  0  0  0  0  0  0  0
   -2.3500    6.5446  -11.5260 C   0  0  0  0  0  0  0  0  0  0  0  0
   -3.0400    6.5725  -10.3280 C   0  0  0  0  0  0  0  0  0  0  0  0
   -2.6532    5.5729   -9.3896 C   0  0  0  0  0  0  0  0  0  0  0  0
   -3.1480    5.3146   -7.9989 C   0  0  0  0  0  0  0  0  0  0  0  0
   -4.0686    6.0463   -7.3092 C   0  0  0  0  0  0  0  0  0  0  0  0
   -4.3362    5.8608   -5.9074 C   0  0  0  0  0  0  0  0  0  0  0  0
   -4.5644    5.7244   -4.7827 N   0  0  0  0  0  0  0  0  0  0  0  0
   -4.8146    7.1298   -7.8943 C   0  0  0  0  0  0  0  0  0  0  0  0
   -5.4236    8.0073   -8.3430 N   0  0  0  0  0  0  0  0  0  0  0  0
   -2.1703    7.1891  -12.8686 C   0  0  0  0  0  0  0  0  0  0  0  0
   -3.2638    6.9422  -13.9500 C   0  0  0  0  0  0  0  0  0  0  0  0
   -3.9114    5.5935  -13.7374 C   0  0  0  0  0  0  0  0  0  0  0  0
   -2.9794    4.6796  -14.0118 C   0  0  0  0  0  0  0  0  0  0  0  0
   -1.7340    5.4366  -14.4147 C   0  0  0  0  0  0  0  0  0  0  0  0
   -2.3843    6.6041  -15.1393 C   0  0  0  0  0  0  0  0  0  0  0  0
   -1.1408    6.1895  -13.1843 C   0  0  0  0  0  0  0  0  0  0  0  0
   -1.4822    2.5404   -5.8324 C   0  0  0  0  0  0  0  0  0  0  0  0
   -1.6993    1.2515   -5.2826 C   0  0  0  0  0  0  0  0  0  0  0  0
   -2.9481    0.5109   -5.3283 N   0  0  0  0  0  0  0  0  0  0  0  0
   -4.1027    1.0118   -6.0126 C   0  0  0  0  0  0  0  0  0  0  0  0
   -5.1826    1.5310   -5.2854 C   0  0  0  0  0  0  0  0  0  0  0  0
   -6.2929    2.0527   -5.9566 C   0  0  0  0  0  0  0  0  0  0  0  0
   -6.3341    2.0464   -7.3557 C   0  0  0  0  0  0  0  0  0  0  0  0
   -7.7714    2.6919   -8.2135 S   0  0  0  0  0  0  0  0  0  0  0  0
   -8.6551    1.1016   -8.1569 C   0  0  0  0  0  0  0  0  0  0  0  0
   -5.2547    1.5341   -8.0845 C   0  0  0  0  0  0  0  0  0  0  0  0
   -4.1461    1.0068   -7.4155 C   0  0  0  0  0  0  0  0  0  0  0  0
   -3.0187   -0.8400   -4.8529 C   0  0  0  0  0  0  0  0  0  0  0  0
   -2.4746   -1.8811   -5.6198 C   0  0  0  0  0  0  0  0  0  0  0  0
   -2.5246   -3.1966   -5.1477 C   0  0  0  0  0  0  0  0  0  0  0  0
   -3.1121   -3.4779   -3.9070 C   0  0  0  0  0  0  0  0  0  0  0  0
   -3.1291   -5.1555   -3.2707 S   0  0  0  0  0  0  0  0  0  0  0  0
   -1.4272   -5.0683   -2.6339 C   0  0  0  0  0  0  0  0  0  0  0  0
   -3.6777   -2.4412   -3.1553 C   0  0  0  0  0  0  0  0  0  0  0  0
   -3.6319   -1.1259   -3.6266 C   0  0  0  0  0  0  0  0  0  0  0  0
   -0.5500    0.8314   -4.5894 C   0  0  0  0  0  0  0  0  0  0  0  0
   -0.2022   -0.3941   -3.5050 S   0  0  0  0  0  0  0  0  0  0  0  0
    1.2904    0.2295   -2.9524 C   0  0  0  0  0  0  0  0  0  0  0  0
    1.5022    1.4491   -3.6417 C   0  0  0  0  0  0  0  0  0  0  0  0
    2.5065    2.4344   -3.3631 N   0  0  0  0  0  0  0  0  0  0  0  0
    3.4436    2.6382   -4.4457 C   0  0  0  0  0  0  0  0  0  0  0  0
    3.5288    3.8824   -5.1015 C   0  0  0  0  0  0  0  0  0  0  0  0
    4.3149    4.0304   -6.2459 C   0  0  0  0  0  0  0  0  0  0  0  0
    5.0074    2.9338   -6.7664 C   0  0  0  0  0  0  0  0  0  0  0  0
    5.9376    3.1093   -8.2888 S   0  0  0  0  0  0  0  0  0  0  0  0
    4.4807    2.8199   -9.3477 C   0  0  0  0  0  0  0  0  0  0  0  0
    4.9380    1.6954   -6.1228 C   0  0  0  0  0  0  0  0  0  0  0  0
    4.1517    1.5435   -4.9770 C   0  0  0  0  0  0  0  0  0  0  0  0
    2.1952    3.5016   -2.4236 C   0  0  0  0  0  0  0  0  0  0  0  0
    3.1668    4.4622   -2.0716 C   0  0  0  0  0  0  0  0  0  0  0  0
    2.8509    5.5201   -1.2139 C   0  0  0  0  0  0  0  0  0  0  0  0
    1.5635    5.6328   -0.6795 C   0  0  0  0  0  0  0  0  0  0  0  0
    1.1604    6.9778    0.4371 S   0  0  0  0  0  0  0  0  0  0  0  0
    0.5716    8.0675   -0.8934 C   0  0  0  0  0  0  0  0  0  0  0  0
    0.5974    4.6757   -0.9944 C   0  0  0  0  0  0  0  0  0  0  0  0
    0.9067    3.6187   -1.8509 C   0  0  0  0  0  0  0  0  0  0  0  0
    0.4762    1.7154   -4.5545 C   0  0  0  0  0  0  0  0  0  0  0  0
    0.0682    3.0926   -5.4038 S   0  0  0  0  0  0  0  0  0  0  0  0
    1.9897   -0.3829   -1.7878 C   0  0  0  0  0  0  0  0  0  0  0  0
    2.5391    0.3099   -0.6741 C   0  0  0  0  0  0  0  0  0  0  0  0
    3.7006    1.1681   -0.7611 N   0  0  0  0  0  0  0  0  0  0  0  0
    3.8732    2.2202    0.2327 C   0  0  0  0  0  0  0  0  0  0  0  0
    2.7493    2.8232    0.8355 C   0  0  0  0  0  0  0  0  0  0  0  0
    2.8995    3.8033    1.8194 C   0  0  0  0  0  0  0  0  0  0  0  0
    4.1734    4.1897    2.2369 C   0  0  0  0  0  0  0  0  0  0  0  0
    4.3598    5.4346    3.5150 S   0  0  0  0  0  0  0  0  0  0  0  0
    4.6556    6.7947    2.3430 C   0  0  0  0  0  0  0  0  0  0  0  0
    5.2988    3.5848    1.6745 C   0  0  0  0  0  0  0  0  0  0  0  0
    5.1551    2.6085    0.6843 C   0  0  0  0  0  0  0  0  0  0  0  0
    4.8529    0.6256   -1.4506 C   0  0  0  0  0  0  0  0  0  0  0  0
    5.6854    1.4484   -2.2285 C   0  0  0  0  0  0  0  0  0  0  0  0
    6.7921    0.9114   -2.8958 C   0  0  0  0  0  0  0  0  0  0  0  0
    7.0915   -0.4483   -2.7776 C   0  0  0  0  0  0  0  0  0  0  0  0
    8.5225   -1.1327   -3.6152 S   0  0  0  0  0  0  0  0  0  0  0  0
    7.5456   -1.8341   -4.9830 C   0  0  0  0  0  0  0  0  0  0  0  0
    6.2883   -1.2703   -1.9835 C   0  0  0  0  0  0  0  0  0  0  0  0
    5.1815   -0.7422   -1.3274 C   0  0  0  0  0  0  0  0  0  0  0  0
    2.3468   -0.4362    0.4931 C   0  0  0  0  0  0  0  0  0  0  0  0
    2.7158   -0.1847    2.1077 S   0  0  0  0  0  0  0  0  0  0  0  0
    2.1182   -1.6940    2.6005 C   0  0  0  0  0  0  0  0  0  0  0  0
    1.7453   -2.4568    1.4846 C   0  0  0  0  0  0  0  0  0  0  0  0
    2.0441   -3.8571    1.4296 N   0  0  0  0  0  0  0  0  0  0  0  0
    3.4086   -4.2594    1.2100 C   0  0  0  0  0  0  0  0  0  0  0  0
    3.7503   -4.9940    0.0659 C   0  0  0  0  0  0  0  0  0  0  0  0
    5.0802   -5.3731   -0.1582 C   0  0  0  0  0  0  0  0  0  0  0  0
    6.0741   -5.0318    0.7695 C   0  0  0  0  0  0  0  0  0  0  0  0
    7.7683   -5.5749    0.5327 S   0  0  0  0  0  0  0  0  0  0  0  0
    8.2887   -4.0812   -0.3638 C   0  0  0  0  0  0  0  0  0  0  0  0
    5.7329   -4.3027    1.9147 C   0  0  0  0  0  0  0  0  0  0  0  0
    4.4114   -3.9141    2.1307 C   0  0  0  0  0  0  0  0  0  0  0  0
    1.1024   -4.8489    1.8462 C   0  0  0  0  0  0  0  0  0  0  0  0
    0.2594   -5.4480    0.9026 C   0  0  0  0  0  0  0  0  0  0  0  0
   -0.4490   -6.6113    1.2293 C   0  0  0  0  0  0  0  0  0  0  0  0
   -0.3167   -7.1789    2.5054 C   0  0  0  0  0  0  0  0  0  0  0  0
   -1.0247   -8.7926    2.8512 S   0  0  0  0  0  0  0  0  0  0  0  0
   -2.5679   -8.1484    3.5498 C   0  0  0  0  0  0  0  0  0  0  0  0
    0.4792   -6.5467    3.4668 C   0  0  0  0  0  0  0  0  0  0  0  0
    1.1894   -5.3877    3.1382 C   0  0  0  0  0  0  0  0  0  0  0  0
    1.8410   -1.6792    0.3353 C   0  0  0  0  0  0  0  0  0  0  0  0
    1.5076   -1.9433   -1.2696 S   0  0  0  0  0  0  0  0  0  0  0  0
    1.5431   -1.8765    3.9259 C   0  0  0  0  0  0  0  0  0  0  0  0
    0.1801   -1.7040    4.2179 C   0  0  0  0  0  0  0  0  0  0  0  0
   -0.8418   -1.4604    3.2358 N   0  0  0  0  0  0  0  0  0  0  0  0
   -1.3988   -0.1437    3.0927 C   0  0  0  0  0  0  0  0  0  0  0  0
   -2.6401    0.1640    3.6728 C   0  0  0  0  0  0  0  0  0  0  0  0
   -3.2215    1.4183    3.4677 C   0  0  0  0  0  0  0  0  0  0  0  0
   -2.5751    2.3686    2.6642 C   0  0  0  0  0  0  0  0  0  0  0  0
   -3.3217    3.9743    2.3824 S   0  0  0  0  0  0  0  0  0  0  0  0
   -4.2568    3.4213    0.9179 C   0  0  0  0  0  0  0  0  0  0  0  0
   -1.3459    2.0599    2.0766 C   0  0  0  0  0  0  0  0  0  0  0  0
   -0.7641    0.8089    2.2867 C   0  0  0  0  0  0  0  0  0  0  0  0
   -1.5388   -2.5587    2.6281 C   0  0  0  0  0  0  0  0  0  0  0  0
   -1.8489   -2.5138    1.2602 C   0  0  0  0  0  0  0  0  0  0  0  0
   -2.6532   -3.5024    0.6891 C   0  0  0  0  0  0  0  0  0  0  0  0
   -3.1657   -4.5332    1.4807 C   0  0  0  0  0  0  0  0  0  0  0  0
   -4.2338   -5.7763    0.7512 S   0  0  0  0  0  0  0  0  0  0  0  0
   -5.7589   -4.8661    1.1535 C   0  0  0  0  0  0  0  0  0  0  0  0
   -2.8432   -4.5921    2.8406 C   0  0  0  0  0  0  0  0  0  0  0  0
   -2.0224   -3.6169    3.4130 C   0  0  0  0  0  0  0  0  0  0  0  0
   -0.0286   -1.6290    5.5904 C   0  0  0  0  0  0  0  0  0  0  0  0
   -1.3513   -1.2830    6.5591 S   0  0  0  0  0  0  0  0  0  0  0  0
   -0.4584   -1.3012    8.0146 C   0  0  0  0  0  0  0  0  0  0  0  0
    0.8942   -1.5145    7.7088 C   0  0  0  0  0  0  0  0  0  0  0  0
    1.9682   -1.3966    8.6476 N   0  0  0  0  0  0  0  0  0  0  0  0
    2.5929   -0.1124    8.9042 C   0  0  0  0  0  0  0  0  0  0  0  0
    3.7117   -0.0054    9.7597 C   0  0  0  0  0  0  0  0  0  0  0  0
    4.3411    1.2277    9.9585 C   0  0  0  0  0  0  0  0  0  0  0  0
    3.8474    2.3787    9.3401 C   0  0  0  0  0  0  0  0  0  0  0  0
    4.6657    3.9545    9.5900 S   0  0  0  0  0  0  0  0  0  0  0  0
    5.7040    3.7720    8.1077 C   0  0  0  0  0  0  0  0  0  0  0  0
    2.7138    2.3003    8.5278 C   0  0  0  0  0  0  0  0  0  0  0  0
    2.0946    1.0680    8.3070 C   0  0  0  0  0  0  0  0  0  0  0  0
    2.5412   -2.6336    9.0961 C   0  0  0  0  0  0  0  0  0  0  0  0
    1.8084   -3.4749    9.9443 C   0  0  0  0  0  0  0  0  0  0  0  0
    2.3031   -4.7353   10.2858 C   0  0  0  0  0  0  0  0  0  0  0  0
    3.5268   -5.1734    9.7620 C   0  0  0  0  0  0  0  0  0  0  0  0
    4.1212   -6.8230   10.1347 S   0  0  0  0  0  0  0  0  0  0  0  0
    3.2330   -7.5736    8.7332 C   0  0  0  0  0  0  0  0  0  0  0  0
    4.2700   -4.3314    8.9265 C   0  0  0  0  0  0  0  0  0  0  0  0
    3.7790   -3.0653    8.5925 C   0  0  0  0  0  0  0  0  0  0  0  0
    1.0906   -1.7124    6.3492 C   0  0  0  0  0  0  0  0  0  0  0  0
    2.4480   -1.8554    5.3715 S   0  0  0  0  0  0  0  0  0  0  0  0
   -0.9622   -0.8738    9.3336 C   0  0  0  0  0  0  0  0  0  0  0  0
   -2.2235   -1.0560    9.7671 C   0  0  0  0  0  0  0  0  0  0  0  0
   -3.1586   -2.0602    9.2419 C   0  0  0  0  0  0  0  0  0  0  0  0
   -2.9004   -2.9470    8.3846 O   0  0  0  0  0  0  0  0  0  0  0  0
   -4.3751   -2.0101   10.0139 C   0  0  0  0  0  0  0  0  0  0  0  0
   -5.5314   -2.7794    9.8247 C   0  0  0  0  0  0  0  0  0  0  0  0
   -6.6007   -2.5477   10.6943 C   0  0  0  0  0  0  0  0  0  0  0  0
   -7.8372   -3.1965   10.6656 C   0  0  0  0  0  0  0  0  0  0  0  0
   -8.6962   -2.7425   11.6618 C   0  0  0  0  0  0  0  0  0  0  0  0
  -10.4734   -3.3670   11.9491 Br  0  0  0  0  0  0  0  0  0  0  0  0
   -7.9307   -1.5443   12.5783 S   0  0  0  0  0  0  0  0  0  0  0  0
   -6.4958   -1.5954   11.7072 C   0  0  0  0  0  0  0  0  0  0  0  0
   -5.3336   -0.8409   11.9080 C   0  0  0  0  0  0  0  0  0  0  0  0
   -4.2479   -1.0667   11.0330 C   0  0  0  0  0  0  0  0  0  0  0  0
   -2.9000   -0.4182   10.9498 C   0  0  0  0  0  0  0  0  0  0  0  0
   -2.4347    0.6015   11.7250 C   0  0  0  0  0  0  0  0  0  0  0  0
   -1.1930    1.2878   11.4707 C   0  0  0  0  0  0  0  0  0  0  0  0
   -0.1929    1.8418   11.2929 N   0  0  0  0  0  0  0  0  0  0  0  0
   -3.1421    1.0964   12.8725 C   0  0  0  0  0  0  0  0  0  0  0  0
   -3.6919    1.5115   13.8043 N   0  0  0  0  0  0  0  0  0  0  0  0
   -3.3436    3.6270   -5.7175 H   0  0  0  0  0  0  0  0  0  0  0  0
   -0.1561    3.8909  -11.1641 H   0  0  0  0  0  0  0  0  0  0  0  0
   -3.7880    7.3258  -10.1658 H   0  0  0  0  0  0  0  0  0  0  0  0
   -1.7845    8.2324  -12.8220 H   0  0  0  0  0  0  0  0  0  0  0  0
   -3.9701    7.7848  -14.1051 H   0  0  0  0  0  0  0  0  0  0  0  0
   -4.9456    5.3874  -13.4878 H   0  0  0  0  0  0  0  0  0  0  0  0
   -3.1268    3.6042  -14.0108 H   0  0  0  0  0  0  0  0  0  0  0  0
   -1.0031    4.8492  -15.0117 H   0  0  0  0  0  0  0  0  0  0  0  0
   -1.6737    7.4206  -15.4078 H   0  0  0  0  0  0  0  0  0  0  0  0
   -2.9622    6.2960  -16.0433 H   0  0  0  0  0  0  0  0  0  0  0  0
   -0.1288    6.6221  -13.3432 H   0  0  0  0  0  0  0  0  0  0  0  0
   -5.1568    1.5488   -4.2023 H   0  0  0  0  0  0  0  0  0  0  0  0
   -7.1265    2.4475   -5.3889 H   0  0  0  0  0  0  0  0  0  0  0  0
   -9.6474    1.2215   -8.6377 H   0  0  0  0  0  0  0  0  0  0  0  0
   -8.0837    0.3242   -8.7064 H   0  0  0  0  0  0  0  0  0  0  0  0
   -8.8090    0.7891   -7.1005 H   0  0  0  0  0  0  0  0  0  0  0  0
   -5.2755    1.5379   -9.1673 H   0  0  0  0  0  0  0  0  0  0  0  0
   -3.3136    0.6119   -7.9836 H   0  0  0  0  0  0  0  0  0  0  0  0
   -2.0067   -1.6685   -6.5727 H   0  0  0  0  0  0  0  0  0  0  0  0
   -2.0940   -3.9951   -5.7403 H   0  0  0  0  0  0  0  0  0  0  0  0
   -0.7175   -5.0533   -3.4854 H   0  0  0  0  0  0  0  0  0  0  0  0
   -1.2800   -4.1601   -2.0173 H   0  0  0  0  0  0  0  0  0  0  0  0
   -1.2277   -5.9632   -2.0140 H   0  0  0  0  0  0  0  0  0  0  0  0
   -4.1499   -2.6518   -2.2066 H   0  0  0  0  0  0  0  0  0  0  0  0
   -4.0541   -0.3286   -3.0285 H   0  0  0  0  0  0  0  0  0  0  0  0
    2.9385    4.7239   -4.7677 H   0  0  0  0  0  0  0  0  0  0  0  0
    4.3422    4.9847   -6.7552 H   0  0  0  0  0  0  0  0  0  0  0  0
    3.6833    3.5541   -9.1180 H   0  0  0  0  0  0  0  0  0  0  0  0
    4.7707    2.9276  -10.4108 H   0  0  0  0  0  0  0  0  0  0  0  0
    4.0910    1.7956   -9.1839 H   0  0  0  0  0  0  0  0  0  0  0  0
    5.4667    0.8419   -6.5269 H   0  0  0  0  0  0  0  0  0  0  0  0
    4.0705    0.5656   -4.5155 H   0  0  0  0  0  0  0  0  0  0  0  0
    4.1709    4.4035   -2.4690 H   0  0  0  0  0  0  0  0  0  0  0  0
    3.6108    6.2480   -0.9635 H   0  0  0  0  0  0  0  0  0  0  0  0
    0.2941    9.0525   -0.4606 H   0  0  0  0  0  0  0  0  0  0  0  0
   -0.3208    7.6234   -1.3816 H   0  0  0  0  0  0  0  0  0  0  0  0
    1.3775    8.2197   -1.6449 H   0  0  0  0  0  0  0  0  0  0  0  0
   -0.3947    4.7426   -0.5691 H   0  0  0  0  0  0  0  0  0  0  0  0
    0.1263    2.9005   -2.0607 H   0  0  0  0  0  0  0  0  0  0  0  0
    1.7481    2.5251    0.5537 H   0  0  0  0  0  0  0  0  0  0  0  0
    2.0206    4.2529    2.2641 H   0  0  0  0  0  0  0  0  0  0  0  0
    5.6651    6.6872    1.8953 H   0  0  0  0  0  0  0  0  0  0  0  0
    3.8937    6.7932    1.5385 H   0  0  0  0  0  0  0  0  0  0  0  0
    4.6081    7.7628    2.8845 H   0  0  0  0  0  0  0  0  0  0  0  0
    6.2918    3.8623    2.0095 H   0  0  0  0  0  0  0  0  0  0  0  0
    6.0528    2.1444    0.3016 H   0  0  0  0  0  0  0  0  0  0  0  0
    5.4761    2.5030   -2.3198 H   0  0  0  0  0  0  0  0  0  0  0  0
    7.4180    1.5534   -3.5021 H   0  0  0  0  0  0  0  0  0  0  0  0
    6.9574   -1.0381   -5.4868 H   0  0  0  0  0  0  0  0  0  0  0  0
    8.2338   -2.2948   -5.7176 H   0  0  0  0  0  0  0  0  0  0  0  0
    6.8605   -2.6170   -4.5938 H   0  0  0  0  0  0  0  0  0  0  0  0
    6.5092   -2.3225   -1.8851 H   0  0  0  0  0  0  0  0  0  0  0  0
    4.5889   -1.4060   -0.7134 H   0  0  0  0  0  0  0  0  0  0  0  0
    2.9863   -5.2697   -0.6511 H   0  0  0  0  0  0  0  0  0  0  0  0
    5.3339   -5.9400   -1.0458 H   0  0  0  0  0  0  0  0  0  0  0  0
    7.9149   -3.1658    0.1419 H   0  0  0  0  0  0  0  0  0  0  0  0
    9.3973   -4.0413   -0.3890 H   0  0  0  0  0  0  0  0  0  0  0  0
    7.9153   -4.1254   -1.4064 H   0  0  0  0  0  0  0  0  0  0  0  0
    6.4932   -4.0367    2.6390 H   0  0  0  0  0  0  0  0  0  0  0  0
    4.1693   -3.3576    3.0251 H   0  0  0  0  0  0  0  0  0  0  0  0
    0.2029   -5.0483   -0.1014 H   0  0  0  0  0  0  0  0  0  0  0  0
   -1.0516   -7.0979    0.4738 H   0  0  0  0  0  0  0  0  0  0  0  0
   -3.1475   -8.9897    3.9844 H   0  0  0  0  0  0  0  0  0  0  0  0
   -3.1729   -7.6770    2.7502 H   0  0  0  0  0  0  0  0  0  0  0  0
   -2.3504   -7.4160    4.3546 H   0  0  0  0  0  0  0  0  0  0  0  0
    0.5966   -6.9876    4.4498 H   0  0  0  0  0  0  0  0  0  0  0  0
    1.8543   -4.9449    3.8685 H   0  0  0  0  0  0  0  0  0  0  0  0
   -3.1614   -0.5762    4.2679 H   0  0  0  0  0  0  0  0  0  0  0  0
   -4.1765    1.6463    3.9230 H   0  0  0  0  0  0  0  0  0  0  0  0
   -3.5555    3.1171    0.1151 H   0  0  0  0  0  0  0  0  0  0  0  0
   -4.8853    4.2531    0.5551 H   0  0  0  0  0  0  0  0  0  0  0  0
   -4.9119    2.5688    1.1867 H   0  0  0  0  0  0  0  0  0  0  0  0
   -0.8474    2.7786    1.4385 H   0  0  0  0  0  0  0  0  0  0  0  0
    0.1460    0.5671    1.7748 H   0  0  0  0  0  0  0  0  0  0  0  0
   -1.4794   -1.7079    0.6389 H   0  0  0  0  0  0  0  0  0  0  0  0
   -2.8954   -3.4505   -0.3608 H   0  0  0  0  0  0  0  0  0  0  0  0
   -6.6293   -5.4193    0.7503 H   0  0  0  0  0  0  0  0  0  0  0  0
   -5.8686   -4.7776    2.2550 H   0  0  0  0  0  0  0  0  0  0  0  0
   -5.7333   -3.8542    0.6988 H   0  0  0  0  0  0  0  0  0  0  0  0
   -3.2531   -5.3699    3.4651 H   0  0  0  0  0  0  0  0  0  0  0  0
   -1.8057   -3.6633    4.4714 H   0  0  0  0  0  0  0  0  0  0  0  0
    4.1136   -0.8730   10.2679 H   0  0  0  0  0  0  0  0  0  0  0  0
    5.2170    1.2874   10.5896 H   0  0  0  0  0  0  0  0  0  0  0  0
    6.3007    2.8390    8.1705 H   0  0  0  0  0  0  0  0  0  0  0  0
    5.0607    3.7475    7.2018 H   0  0  0  0  0  0  0  0  0  0  0  0
    6.3923    4.6376    8.0392 H   0  0  0  0  0  0  0  0  0  0  0  0
    2.3233    3.1913    8.0508 H   0  0  0  0  0  0  0  0  0  0  0  0
    1.2266    1.0450    7.6591 H   0  0  0  0  0  0  0  0  0  0  0  0
    0.8416   -3.1591   10.3236 H   0  0  0  0  0  0  0  0  0  0  0  0
    1.7228   -5.3854   10.9272 H   0  0  0  0  0  0  0  0  0  0  0  0
    3.5606   -7.1101    7.7786 H   0  0  0  0  0  0  0  0  0  0  0  0
    2.1383   -7.4333    8.8604 H   0  0  0  0  0  0  0  0  0  0  0  0
    3.4544   -8.6584    8.7008 H   0  0  0  0  0  0  0  0  0  0  0  0
    5.2132   -4.6656    8.5135 H   0  0  0  0  0  0  0  0  0  0  0  0
    4.3395   -2.4333    7.9151 H   0  0  0  0  0  0  0  0  0  0  0  0
   -0.2425   -0.3631    9.9444 H   0  0  0  0  0  0  0  0  0  0  0  0
   -5.5935   -3.5163    9.0344 H   0  0  0  0  0  0  0  0  0  0  0  0
   -8.1007   -3.9651    9.9494 H   0  0  0  0  0  0  0  0  0  0  0  0
   -5.3165   -0.1232   12.7032 H   0  0  0  0  0  0  0  0  0  0  0  0
  1  2  2  3
  2  3  1  0
  3  4  2  0
  3  5  1  0
  5  6  2  0
  6  7  1  0
  7  8  2  0
  8  9  1  0
  9 10  2  0
 10 11  1  0
 11 12  2  3
 12 13  1  0
 13 14  3  0
 12 15  1  0
 15 16  3  0
  8 17  1  0
 17 18  1  0
 18 19  1  0
 19 20  2  0
 20 21  1  0
 21 22  1  0
 21 23  1  0
  1 24  1  0
 24 25  2  0
 25 26  1  0
 26 27  1  0
 27 28  2  0
 28 29  1  0
 29 30  2  0
 30 31  1  0
 31 32  1  0
 30 33  1  0
 33 34  2  0
 26 35  1  0
 35 36  2  0
 36 37  1  0
 37 38  2  0
 38 39  1  0
 39 40  1  0
 38 41  1  0
 41 42  2  0
 25 43  1  0
 43 44  1  0
 44 45  1  0
 45 46  2  0
 46 47  1  0
 47 48  1  0
 48 49  2  0
 49 50  1  0
 50 51  2  0
 51 52  1  0
 52 53  1  0
 51 54  1  0
 54 55  2  0
 47 56  1  0
 56 57  2  0
 57 58  1  0
 58 59  2  0
 59 60  1  0
 60 61  1  0
 59 62  1  0
 62 63  2  0
 46 64  1  0
 64 65  1  0
 45 66  1  0
 66 67  2  0
 67 68  1  0
 68 69  1  0
 69 70  2  0
 70 71  1  0
 71 72  2  0
 72 73  1  0
 73 74  1  0
 72 75  1  0
 75 76  2  0
 68 77  1  0
 77 78  2  0
 78 79  1  0
 79 80  2  0
 80 81  1  0
 81 82  1  0
 80 83  1  0
 83 84  2  0
 67 85  1  0
 85 86  1  0
 86 87  1  0
 87 88  2  0
 88 89  1  0
 89 90  1  0
 90 91  2  0
 91 92  1  0
 92 93  2  0
 93 94  1  0
 94 95  1  0
 93 96  1  0
 96 97  2  0
 89 98  1  0
 98 99  2  0
 99100  1  0
100101  2  0
101102  1  0
102103  1  0
101104  1  0
104105  2  0
 88106  1  0
106107  1  0
 87108  1  0
108109  2  0
109110  1  0
110111  1  0
111112  2  0
112113  1  0
113114  2  0
114115  1  0
115116  1  0
114117  1  0
117118  2  0
110119  1  0
119120  2  0
120121  1  0
121122  2  0
122123  1  0
123124  1  0
122125  1  0
125126  2  0
109127  1  0
127128  1  0
128129  1  0
129130  2  0
130131  1  0
131132  1  0
132133  2  0
133134  1  0
134135  2  0
135136  1  0
136137  1  0
135138  1  0
138139  2  0
131140  1  0
140141  2  0
141142  1  0
142143  2  0
143144  1  0
144145  1  0
143146  1  0
146147  2  0
130148  1  0
148149  1  0
129150  1  0
150151  2  3
151152  1  0
152153  2  0
152154  1  0
154155  2  0
155156  1  0
156157  1  0
157158  2  0
158159  1  0
158160  1  0
160161  1  0
161162  1  0
162163  2  0
163164  1  0
164165  2  3
165166  1  0
166167  3  0
165168  1  0
168169  3  0
 11  2  1  0
 23 17  1  0
 65 24  1  0
107 66  1  0
149108  1  0
164151  1  0
 10  5  1  0
 22 18  1  0
 34 27  1  0
 42 35  1  0
 64 43  2  0
 76 69  1  0
 84 77  1  0
106 85  2  0
118111  1  0
126119  1  0
148127  2  0
163154  1  0
 23  7  1  0
 55 48  1  0
 63 56  1  0
 97 90  1  0
105 98  1  0
139132  1  0
147140  1  0
161156  2  0
  1170  1  0
  6171  1  0
  9172  1  0
 17173  1  0
 18174  1  0
 19175  1  0
 20176  1  0
 21177  1  0
 22178  1  0
 22179  1  0
 23180  1  0
 28181  1  0
 29182  1  0
 32183  1  0
 32184  1  0
 32185  1  0
 33186  1  0
 34187  1  0
 36188  1  0
 37189  1  0
 40190  1  0
 40191  1  0
 40192  1  0
 41193  1  0
 42194  1  0
 49195  1  0
 50196  1  0
 53197  1  0
 53198  1  0
 53199  1  0
 54200  1  0
 55201  1  0
 57202  1  0
 58203  1  0
 61204  1  0
 61205  1  0
 61206  1  0
 62207  1  0
 63208  1  0
 70209  1  0
 71210  1  0
 74211  1  0
 74212  1  0
 74213  1  0
 75214  1  0
 76215  1  0
 78216  1  0
 79217  1  0
 82218  1  0
 82219  1  0
 82220  1  0
 83221  1  0
 84222  1  0
 91223  1  0
 92224  1  0
 95225  1  0
 95226  1  0
 95227  1  0
 96228  1  0
 97229  1  0
 99230  1  0
100231  1  0
103232  1  0
103233  1  0
103234  1  0
104235  1  0
105236  1  0
112237  1  0
113238  1  0
116239  1  0
116240  1  0
116241  1  0
117242  1  0
118243  1  0
120244  1  0
121245  1  0
124246  1  0
124247  1  0
124248  1  0
125249  1  0
126250  1  0
133251  1  0
134252  1  0
137253  1  0
137254  1  0
137255  1  0
138256  1  0
139257  1  0
141258  1  0
142259  1  0
145260  1  0
145261  1  0
145262  1  0
146263  1  0
147264  1  0
150265  1  0
155266  1  0
157267  1  0
162268  1  0
M  END

