
     RDKit          3D

174193  0  0  0  0  0  0  0  0999 V2000
   -1.1708    3.0715    4.5208 C   0  0  0  0  0  0  0  0  0  0  0  0
   -2.1350    2.2358    4.0719 C   0  0  0  0  0  0  0  0  0  0  0  0
   -2.1569    1.6529    2.7199 C   0  0  0  0  0  0  0  0  0  0  0  0
   -1.6514    2.1559    1.6827 O   0  0  0  0  0  0  0  0  0  0  0  0
   -2.8411    0.3888    2.7594 C   0  0  0  0  0  0  0  0  0  0  0  0
   -2.9560   -0.5325    1.6940 C   0  0  0  0  0  0  0  0  0  0  0  0
   -3.5757   -1.7122    2.0465 C   0  0  0  0  0  0  0  0  0  0  0  0
   -4.0442   -1.9860    3.3723 C   0  0  0  0  0  0  0  0  0  0  0  0
   -3.9342   -1.0797    4.4225 C   0  0  0  0  0  0  0  0  0  0  0  0
   -3.3138    0.1565    4.0763 C   0  0  0  0  0  0  0  0  0  0  0  0
   -2.9946    1.3529    4.9212 C   0  0  0  0  0  0  0  0  0  0  0  0
   -3.4682    1.6440    6.1536 C   0  0  0  0  0  0  0  0  0  0  0  0
   -4.1837    0.6903    6.9628 C   0  0  0  0  0  0  0  0  0  0  0  0
   -4.7472   -0.0712    7.6346 N   0  0  0  0  0  0  0  0  0  0  0  0
   -3.3196    2.9524    6.7379 C   0  0  0  0  0  0  0  0  0  0  0  0
   -3.2017    4.0036    7.2086 N   0  0  0  0  0  0  0  0  0  0  0  0
   -4.4846   -3.3578    2.9483 C   0  0  0  0  0  0  0  0  0  0  0  0
   -3.5914   -4.5502    3.3938 C   0  0  0  0  0  0  0  0  0  0  0  0
   -4.0083   -5.7222    2.5323 C   0  0  0  0  0  0  0  0  0  0  0  0
   -3.5728   -5.4571    1.2948 C   0  0  0  0  0  0  0  0  0  0  0  0
   -2.8858   -4.1142    1.3601 C   0  0  0  0  0  0  0  0  0  0  0  0
   -2.2547   -4.2441    2.7365 C   0  0  0  0  0  0  0  0  0  0  0  0
   -4.0160   -3.0680    1.5880 C   0  0  0  0  0  0  0  0  0  0  0  0
    0.0740    3.2308    3.7606 C   0  0  0  0  0  0  0  0  0  0  0  0
    0.3170    4.1834    2.7515 C   0  0  0  0  0  0  0  0  0  0  0  0
   -0.1712    5.5350    2.7780 N   0  0  0  0  0  0  0  0  0  0  0  0
    0.5669    6.4466    3.6162 C   0  0  0  0  0  0  0  0  0  0  0  0
    1.3737    7.4410    3.0408 C   0  0  0  0  0  0  0  0  0  0  0  0
    2.1392    8.2823    3.8493 C   0  0  0  0  0  0  0  0  0  0  0  0
    2.1248    8.1287    5.2391 C   0  0  0  0  0  0  0  0  0  0  0  0
    3.1029    9.2189    6.2672 S   0  0  0  0  0  0  0  0  0  0  0  0
    4.5635    8.1343    6.2567 C   0  0  0  0  0  0  0  0  0  0  0  0
    1.3295    7.1342    5.8222 C   0  0  0  0  0  0  0  0  0  0  0  0
    0.5555    6.2933    5.0137 C   0  0  0  0  0  0  0  0  0  0  0  0
   -1.1422    6.0267    1.8239 C   0  0  0  0  0  0  0  0  0  0  0  0
   -1.5091    5.2732    0.6893 C   0  0  0  0  0  0  0  0  0  0  0  0
   -2.4569    5.7550   -0.2136 C   0  0  0  0  0  0  0  0  0  0  0  0
   -3.0622    6.9959   -0.0021 C   0  0  0  0  0  0  0  0  0  0  0  0
   -4.2987    7.6074   -1.1486 S   0  0  0  0  0  0  0  0  0  0  0  0
   -5.6812    6.8513   -0.2347 C   0  0  0  0  0  0  0  0  0  0  0  0
   -2.7092    7.7619    1.1127 C   0  0  0  0  0  0  0  0  0  0  0  0
   -1.7629    7.2791    2.0242 C   0  0  0  0  0  0  0  0  0  0  0  0
    1.3095    3.7335    1.8783 C   0  0  0  0  0  0  0  0  0  0  0  0
    1.8845    4.2114    0.3812 S   0  0  0  0  0  0  0  0  0  0  0  0
    2.7861    2.7771    0.0741 C   0  0  0  0  0  0  0  0  0  0  0  0
    2.6766    1.9650    1.2386 C   0  0  0  0  0  0  0  0  0  0  0  0
    3.5904    0.9204    1.6277 N   0  0  0  0  0  0  0  0  0  0  0  0
    3.4289   -0.4313    1.1563 C   0  0  0  0  0  0  0  0  0  0  0  0
    4.5659   -1.2284    0.9464 C   0  0  0  0  0  0  0  0  0  0  0  0
    4.4388   -2.5786    0.6246 C   0  0  0  0  0  0  0  0  0  0  0  0
    3.1710   -3.1563    0.5342 C   0  0  0  0  0  0  0  0  0  0  0  0
    3.0127   -4.9061    0.1691 S   0  0  0  0  0  0  0  0  0  0  0  0
    3.2281   -4.6857   -1.6236 C   0  0  0  0  0  0  0  0  0  0  0  0
    2.0302   -2.3779    0.7680 C   0  0  0  0  0  0  0  0  0  0  0  0
    2.1557   -1.0152    1.0567 C   0  0  0  0  0  0  0  0  0  0  0  0
    4.3622    1.1598    2.8316 C   0  0  0  0  0  0  0  0  0  0  0  0
    4.9436    2.4231    3.0581 C   0  0  0  0  0  0  0  0  0  0  0  0
    5.5084    2.7311    4.2976 C   0  0  0  0  0  0  0  0  0  0  0  0
    5.4902    1.7879    5.3310 C   0  0  0  0  0  0  0  0  0  0  0  0
    6.0959    2.2253    6.9590 S   0  0  0  0  0  0  0  0  0  0  0  0
    4.4526    2.7436    7.5561 C   0  0  0  0  0  0  0  0  0  0  0  0
    4.9535    0.5169    5.1037 C   0  0  0  0  0  0  0  0  0  0  0  0
    4.3889    0.2043    3.8659 C   0  0  0  0  0  0  0  0  0  0  0  0
    1.8202    2.5225    2.1731 C   0  0  0  0  0  0  0  0  0  0  0  0
    1.1167    1.9077    3.5470 S   0  0  0  0  0  0  0  0  0  0  0  0
    2.9970    2.2134   -1.2973 C   0  0  0  0  0  0  0  0  0  0  0  0
    3.9588    1.1992   -1.4967 C   0  0  0  0  0  0  0  0  0  0  0  0
    5.1254    1.1511   -0.7326 O   0  0  0  0  0  0  0  0  0  0  0  0
    6.0713    2.2175   -0.7317 C   0  0  0  0  0  0  0  0  0  0  0  0
    7.2419    1.8505    0.1642 C   0  0  0  0  0  0  0  0  0  0  0  0
    3.7466    0.1775   -2.4426 C   0  0  0  0  0  0  0  0  0  0  0  0
    4.6056   -0.9333   -2.4061 O   0  0  0  0  0  0  0  0  0  0  0  0
    5.3415   -1.4384   -3.5133 C   0  0  0  0  0  0  0  0  0  0  0  0
    6.2056   -0.3461   -4.1381 C   0  0  0  0  0  0  0  0  0  0  0  0
    2.6559    0.2584   -3.3443 C   0  0  0  0  0  0  0  0  0  0  0  0
    1.8575    1.4052   -3.3254 C   0  0  0  0  0  0  0  0  0  0  0  0
    2.0129    2.3788   -2.2964 C   0  0  0  0  0  0  0  0  0  0  0  0
    1.1120    3.3975   -2.2990 N   0  0  0  0  0  0  0  0  0  0  0  0
    0.1812    2.9983   -3.6027 S   0  0  0  0  0  0  0  0  0  0  0  0
    0.8256    1.5952   -4.1903 N   0  0  0  0  0  0  0  0  0  0  0  0
    2.1178   -0.9505   -4.0085 C   0  0  0  0  0  0  0  0  0  0  0  0
    2.4012   -1.2539   -5.3551 C   0  0  0  0  0  0  0  0  0  0  0  0
    3.1977   -0.4277   -6.0815 F   0  0  0  0  0  0  0  0  0  0  0  0
    1.8729   -2.4111   -5.9582 C   0  0  0  0  0  0  0  0  0  0  0  0
    2.1919   -2.6816   -7.2495 F   0  0  0  0  0  0  0  0  0  0  0  0
    0.9981   -3.2575   -5.2542 C   0  0  0  0  0  0  0  0  0  0  0  0
    0.6933   -2.9403   -3.9161 C   0  0  0  0  0  0  0  0  0  0  0  0
    1.2193   -1.7672   -3.3118 C   0  0  0  0  0  0  0  0  0  0  0  0
    0.7927   -1.4889   -2.0537 N   0  0  0  0  0  0  0  0  0  0  0  0
   -0.2099   -2.7720   -1.7767 S   0  0  0  0  0  0  0  0  0  0  0  0
   -0.1404   -3.6882   -3.1434 N   0  0  0  0  0  0  0  0  0  0  0  0
    0.5129   -4.5178   -5.8712 C   0  0  0  0  0  0  0  0  0  0  0  0
   -0.7608   -4.9502   -5.7811 C   0  0  0  0  0  0  0  0  0  0  0  0
   -1.9034   -4.0930   -5.4188 C   0  0  0  0  0  0  0  0  0  0  0  0
   -1.9080   -2.8311   -5.3779 O   0  0  0  0  0  0  0  0  0  0  0  0
   -3.0548   -4.9251   -5.1856 C   0  0  0  0  0  0  0  0  0  0  0  0
   -4.2840   -4.5090   -4.6252 C   0  0  0  0  0  0  0  0  0  0  0  0
   -5.1532   -5.5455   -4.3581 C   0  0  0  0  0  0  0  0  0  0  0  0
   -4.8458   -6.9167   -4.6226 C   0  0  0  0  0  0  0  0  0  0  0  0
   -3.6395   -7.3316   -5.1662 C   0  0  0  0  0  0  0  0  0  0  0  0
   -2.7266   -6.2759   -5.4697 C   0  0  0  0  0  0  0  0  0  0  0  0
   -1.3006   -6.3494   -5.9205 C   0  0  0  0  0  0  0  0  0  0  0  0
   -0.6332   -7.4691   -6.3058 C   0  0  0  0  0  0  0  0  0  0  0  0
   -1.3009   -8.7138   -6.5846 C   0  0  0  0  0  0  0  0  0  0  0  0
   -1.8283   -9.7197   -6.8120 N   0  0  0  0  0  0  0  0  0  0  0  0
    0.7989   -7.5214   -6.4522 C   0  0  0  0  0  0  0  0  0  0  0  0
    1.9522   -7.5851   -6.5639 N   0  0  0  0  0  0  0  0  0  0  0  0
   -6.1718   -7.3364   -4.0543 C   0  0  0  0  0  0  0  0  0  0  0  0
   -6.1567   -7.9917   -2.6448 C   0  0  0  0  0  0  0  0  0  0  0  0
   -7.5796   -7.9355   -2.1377 C   0  0  0  0  0  0  0  0  0  0  0  0
   -7.8388   -6.6489   -1.8741 C   0  0  0  0  0  0  0  0  0  0  0  0
   -6.5867   -5.8838   -2.2208 C   0  0  0  0  0  0  0  0  0  0  0  0
   -5.5612   -6.9027   -1.7698 C   0  0  0  0  0  0  0  0  0  0  0  0
   -6.4754   -5.9310   -3.7756 C   0  0  0  0  0  0  0  0  0  0  0  0
   -1.1016    3.3038    5.5672 H   0  0  0  0  0  0  0  0  0  0  0  0
   -2.5740   -0.3418    0.6981 H   0  0  0  0  0  0  0  0  0  0  0  0
   -4.2708   -1.3427    5.4103 H   0  0  0  0  0  0  0  0  0  0  0  0
   -5.5863   -3.5177    3.0224 H   0  0  0  0  0  0  0  0  0  0  0  0
   -3.5605   -4.7531    4.4845 H   0  0  0  0  0  0  0  0  0  0  0  0
   -4.4741   -6.6429    2.8590 H   0  0  0  0  0  0  0  0  0  0  0  0
   -3.6179   -6.1301    0.4496 H   0  0  0  0  0  0  0  0  0  0  0  0
   -2.1895   -3.8958    0.5218 H   0  0  0  0  0  0  0  0  0  0  0  0
   -1.7614   -3.3177    3.1081 H   0  0  0  0  0  0  0  0  0  0  0  0
   -1.5217   -5.0855    2.8045 H   0  0  0  0  0  0  0  0  0  0  0  0
   -4.8203   -3.0420    0.8172 H   0  0  0  0  0  0  0  0  0  0  0  0
    1.4114    7.5510    1.9653 H   0  0  0  0  0  0  0  0  0  0  0  0
    2.7515    9.0446    3.3918 H   0  0  0  0  0  0  0  0  0  0  0  0
    4.8602    7.8735    5.2166 H   0  0  0  0  0  0  0  0  0  0  0  0
    4.3523    7.2112    6.8326 H   0  0  0  0  0  0  0  0  0  0  0  0
    5.4118    8.6737    6.7244 H   0  0  0  0  0  0  0  0  0  0  0  0
    1.3096    7.0109    6.8983 H   0  0  0  0  0  0  0  0  0  0  0  0
   -0.0595    5.5326    5.4772 H   0  0  0  0  0  0  0  0  0  0  0  0
   -1.0530    4.3159    0.4817 H   0  0  0  0  0  0  0  0  0  0  0  0
   -2.7217    5.1613   -1.0820 H   0  0  0  0  0  0  0  0  0  0  0  0
   -6.6267    7.0602   -0.7687 H   0  0  0  0  0  0  0  0  0  0  0  0
   -5.7417    7.2805    0.7908 H   0  0  0  0  0  0  0  0  0  0  0  0
   -5.5380    5.7541   -0.1626 H   0  0  0  0  0  0  0  0  0  0  0  0
   -3.1685    8.7272    1.2774 H   0  0  0  0  0  0  0  0  0  0  0  0
   -1.5254    7.8899    2.8819 H   0  0  0  0  0  0  0  0  0  0  0  0
    5.5564   -0.8038    1.0564 H   0  0  0  0  0  0  0  0  0  0  0  0
    5.3258   -3.1815    0.4671 H   0  0  0  0  0  0  0  0  0  0  0  0
    3.0719   -5.6569   -2.1313 H   0  0  0  0  0  0  0  0  0  0  0  0
    4.2464   -4.3082   -1.8463 H   0  0  0  0  0  0  0  0  0  0  0  0
    2.4846   -3.9595   -2.0089 H   0  0  0  0  0  0  0  0  0  0  0  0
    1.0484   -2.8366    0.7615 H   0  0  0  0  0  0  0  0  0  0  0  0
    1.2609   -0.4341    1.2599 H   0  0  0  0  0  0  0  0  0  0  0  0
    4.9222    3.1769    2.2853 H   0  0  0  0  0  0  0  0  0  0  0  0
    5.9213    3.7146    4.4682 H   0  0  0  0  0  0  0  0  0  0  0  0
    4.0441    3.5459    6.9031 H   0  0  0  0  0  0  0  0  0  0  0  0
    3.7525    1.8772    7.5598 H   0  0  0  0  0  0  0  0  0  0  0  0
    4.5433    3.1316    8.5892 H   0  0  0  0  0  0  0  0  0  0  0  0
    4.9342   -0.2136    5.9017 H   0  0  0  0  0  0  0  0  0  0  0  0
    3.9314   -0.7725    3.7420 H   0  0  0  0  0  0  0  0  0  0  0  0
    6.4483    2.3715   -1.7674 H   0  0  0  0  0  0  0  0  0  0  0  0
    5.5992    3.1544   -0.3716 H   0  0  0  0  0  0  0  0  0  0  0  0
    8.0476    2.6098    0.0598 H   0  0  0  0  0  0  0  0  0  0  0  0
    6.9148    1.8254    1.2270 H   0  0  0  0  0  0  0  0  0  0  0  0
    7.6444    0.8505   -0.1126 H   0  0  0  0  0  0  0  0  0  0  0  0
    4.6779   -1.8891   -4.2686 H   0  0  0  0  0  0  0  0  0  0  0  0
    6.0049   -2.2499   -3.1475 H   0  0  0  0  0  0  0  0  0  0  0  0
    6.8614    0.1118   -3.3643 H   0  0  0  0  0  0  0  0  0  0  0  0
    6.8445   -0.7833   -4.9300 H   0  0  0  0  0  0  0  0  0  0  0  0
    5.5651    0.4392   -4.5837 H   0  0  0  0  0  0  0  0  0  0  0  0
    1.2742   -5.1151   -6.3331 H   0  0  0  0  0  0  0  0  0  0  0  0
   -4.5076   -3.4769   -4.3792 H   0  0  0  0  0  0  0  0  0  0  0  0
   -3.4277   -8.3787   -5.2787 H   0  0  0  0  0  0  0  0  0  0  0  0
   -6.8442   -7.8114   -4.8032 H   0  0  0  0  0  0  0  0  0  0  0  0
   -5.6771   -8.9919   -2.5756 H   0  0  0  0  0  0  0  0  0  0  0  0
   -8.2375   -8.7717   -1.9246 H   0  0  0  0  0  0  0  0  0  0  0  0
   -8.7414   -6.2591   -1.4067 H   0  0  0  0  0  0  0  0  0  0  0  0
   -6.4994   -4.8793   -1.7589 H   0  0  0  0  0  0  0  0  0  0  0  0
   -5.6167   -7.1301   -0.6774 H   0  0  0  0  0  0  0  0  0  0  0  0
   -4.5100   -6.6467   -2.0214 H   0  0  0  0  0  0  0  0  0  0  0  0
   -7.3378   -5.5133   -4.3392 H   0  0  0  0  0  0  0  0  0  0  0  0
  1  2  2  3
  2  3  1  0
  3  4  2  0
  3  5  1  0
  5  6  2  0
  6  7  1  0
  7  8  2  0
  8  9  1  0
  9 10  2  0
 10 11  1  0
 11 12  2  3
 12 13  1  0
 13 14  3  0
 12 15  1  0
 15 16  3  0
  8 17  1  0
 17 18  1  0
 18 19  1  0
 19 20  2  0
 20 21  1  0
 21 22  1  0
 21 23  1  0
  1 24  1  0
 24 25  2  0
 25 26  1  0
 26 27  1  0
 27 28  2  0
 28 29  1  0
 29 30  2  0
 30 31  1  0
 31 32  1  0
 30 33  1  0
 33 34  2  0
 26 35  1  0
 35 36  2  0
 36 37  1  0
 37 38  2  0
 38 39  1  0
 39 40  1  0
 38 41  1  0
 41 42  2  0
 25 43  1  0
 43 44  1  0
 44 45  1  0
 45 46  2  0
 46 47  1  0
 47 48  1  0
 48 49  2  0
 49 50  1  0
 50 51  2  0
 51 52  1  0
 52 53  1  0
 51 54  1  0
 54 55  2  0
 47 56  1  0
 56 57  2  0
 57 58  1  0
 58 59  2  0
 59 60  1  0
 60 61  1  0
 59 62  1  0
 62 63  2  0
 46 64  1  0
 64 65  1  0
 45 66  1  0
 66 67  2  0
 67 68  1  0
 68 69  1  0
 69 70  1  0
 67 71  1  0
 71 72  1  0
 72 73  1  0
 73 74  1  0
 71 75  2  0
 75 76  1  0
 76 77  1  0
 77 78  2  0
 78 79  1  0
 79 80  1  0
 75 81  1  0
 81 82  2  0
 82 83  1  0
 82 84  1  0
 84 85  1  0
 84 86  2  0
 86 87  1  0
 87 88  1  0
 88 89  2  0
 89 90  1  0
 90 91  1  0
 86 92  1  0
 92 93  2  3
 93 94  1  0
 94 95  2  0
 94 96  1  0
 96 97  2  0
 97 98  1  0
 98 99  2  0
 99100  1  0
100101  2  0
101102  1  0
102103  2  3
103104  1  0
104105  3  0
103106  1  0
106107  3  0
 99108  1  0
108109  1  0
109110  1  0
110111  2  0
111112  1  0
112113  1  0
112114  1  0
 11  2  1  0
 23 17  1  0
 65 24  1  0
 77 66  1  0
 88 81  1  0
102 93  1  0
114108  1  0
 10  5  1  0
 22 18  1  0
 34 27  1  0
 42 35  1  0
 64 43  2  0
 80 76  2  0
 91 87  2  0
101 96  1  0
113109  1  0
 23  7  1  0
 55 48  1  0
 63 56  1  0
114 98  1  0
  1115  1  0
  6116  1  0
  9117  1  0
 17118  1  0
 18119  1  0
 19120  1  0
 20121  1  0
 21122  1  0
 22123  1  0
 22124  1  0
 23125  1  0
 28126  1  0
 29127  1  0
 32128  1  0
 32129  1  0
 32130  1  0
 33131  1  0
 34132  1  0
 36133  1  0
 37134  1  0
 40135  1  0
 40136  1  0
 40137  1  0
 41138  1  0
 42139  1  0
 49140  1  0
 50141  1  0
 53142  1  0
 53143  1  0
 53144  1  0
 54145  1  0
 55146  1  0
 57147  1  0
 58148  1  0
 61149  1  0
 61150  1  0
 61151  1  0
 62152  1  0
 63153  1  0
 69154  1  0
 69155  1  0
 70156  1  0
 70157  1  0
 70158  1  0
 73159  1  0
 73160  1  0
 74161  1  0
 74162  1  0
 74163  1  0
 92164  1  0
 97165  1  0
100166  1  0
108167  1  0
109168  1  0
110169  1  0
111170  1  0
112171  1  0
113172  1  0
113173  1  0
114174  1  0
M  END

