
     RDKit          3D

199221  0  0  0  0  0  0  0  0999 V2000
    6.4773    0.2537    2.2296 C   0  0  0  0  0  0  0  0  0  0  0  0
    7.4374    0.8236    1.4679 C   0  0  0  0  0  0  0  0  0  0  0  0
    7.2014    1.8936    0.4943 C   0  0  0  0  0  0  0  0  0  0  0  0
    6.3088    2.7807    0.5667 O   0  0  0  0  0  0  0  0  0  0  0  0
    8.1612    1.7757   -0.5759 C   0  0  0  0  0  0  0  0  0  0  0  0
    8.1205    2.4442   -1.8243 C   0  0  0  0  0  0  0  0  0  0  0  0
    9.0582    1.9917   -2.7249 C   0  0  0  0  0  0  0  0  0  0  0  0
    9.9765    0.9283   -2.4402 C   0  0  0  0  0  0  0  0  0  0  0  0
   10.0264    0.2686   -1.2229 C   0  0  0  0  0  0  0  0  0  0  0  0
    9.0734    0.7339   -0.2716 C   0  0  0  0  0  0  0  0  0  0  0  0
    8.7429    0.1971    1.0858 C   0  0  0  0  0  0  0  0  0  0  0  0
    9.5276   -0.5748    1.8799 C   0  0  0  0  0  0  0  0  0  0  0  0
    9.2093   -0.8048    3.2585 C   0  0  0  0  0  0  0  0  0  0  0  0
    8.9615   -0.9976    4.3752 N   0  0  0  0  0  0  0  0  0  0  0  0
   10.7963   -1.0931    1.4438 C   0  0  0  0  0  0  0  0  0  0  0  0
   11.8213   -1.5147    1.1044 N   0  0  0  0  0  0  0  0  0  0  0  0
   10.5070    0.9961   -3.8385 C   0  0  0  0  0  0  0  0  0  0  0  0
   10.0581   -0.1454   -4.8036 C   0  0  0  0  0  0  0  0  0  0  0  0
   10.3587    0.3410   -6.2042 C   0  0  0  0  0  0  0  0  0  0  0  0
    9.4970    1.3318   -6.4598 C   0  0  0  0  0  0  0  0  0  0  0  0
    8.6423    1.4850   -5.2304 C   0  0  0  0  0  0  0  0  0  0  0  0
    8.5503    0.0199   -4.8365 C   0  0  0  0  0  0  0  0  0  0  0  0
    9.5673    2.0850   -4.1286 C   0  0  0  0  0  0  0  0  0  0  0  0
    5.0522    0.5387    1.9961 C   0  0  0  0  0  0  0  0  0  0  0  0
    4.1548    1.2117    2.8429 C   0  0  0  0  0  0  0  0  0  0  0  0
    4.4296    1.5642    4.2158 N   0  0  0  0  0  0  0  0  0  0  0  0
    3.6986    2.6163    4.8568 C   0  0  0  0  0  0  0  0  0  0  0  0
    3.8676    3.9421    4.4384 C   0  0  0  0  0  0  0  0  0  0  0  0
    3.1208    4.9621    5.0356 C   0  0  0  0  0  0  0  0  0  0  0  0
    2.1948    4.6599    6.0432 C   0  0  0  0  0  0  0  0  0  0  0  0
    1.1961    5.9646    6.7551 S   0  0  0  0  0  0  0  0  0  0  0  0
    0.0396    6.0266    5.3494 C   0  0  0  0  0  0  0  0  0  0  0  0
    2.0488    3.3370    6.4855 C   0  0  0  0  0  0  0  0  0  0  0  0
    2.7938    2.3147    5.8877 C   0  0  0  0  0  0  0  0  0  0  0  0
    5.2331    0.7207    5.0636 C   0  0  0  0  0  0  0  0  0  0  0  0
    6.2585    1.2837    5.8481 C   0  0  0  0  0  0  0  0  0  0  0  0
    6.8876    0.5192    6.8345 C   0  0  0  0  0  0  0  0  0  0  0  0
    6.5207   -0.8161    7.0300 C   0  0  0  0  0  0  0  0  0  0  0  0
    7.2484   -1.7587    8.3739 S   0  0  0  0  0  0  0  0  0  0  0  0
    8.6586   -2.3417    7.3806 C   0  0  0  0  0  0  0  0  0  0  0  0
    5.5322   -1.3942    6.2183 C   0  0  0  0  0  0  0  0  0  0  0  0
    4.8978   -0.6323    5.2332 C   0  0  0  0  0  0  0  0  0  0  0  0
    2.9847    1.5692    2.1374 C   0  0  0  0  0  0  0  0  0  0  0  0
    1.6503    2.5342    2.4483 S   0  0  0  0  0  0  0  0  0  0  0  0
    1.0247    2.4541    0.8689 C   0  0  0  0  0  0  0  0  0  0  0  0
    1.8567    1.6306    0.0776 C   0  0  0  0  0  0  0  0  0  0  0  0
    1.7089    1.4044   -1.3535 N   0  0  0  0  0  0  0  0  0  0  0  0
    2.6815    0.6330   -2.0863 C   0  0  0  0  0  0  0  0  0  0  0  0
    2.5781   -0.7664   -2.1234 C   0  0  0  0  0  0  0  0  0  0  0  0
    3.4757   -1.5219   -2.8764 C   0  0  0  0  0  0  0  0  0  0  0  0
    4.4816   -0.8773   -3.6035 C   0  0  0  0  0  0  0  0  0  0  0  0
    5.6134   -1.8619   -4.5825 S   0  0  0  0  0  0  0  0  0  0  0  0
    4.6526   -1.6904   -6.1128 C   0  0  0  0  0  0  0  0  0  0  0  0
    4.5998    0.5205   -3.5621 C   0  0  0  0  0  0  0  0  0  0  0  0
    3.6994    1.2775   -2.8035 C   0  0  0  0  0  0  0  0  0  0  0  0
    0.4825    1.6365   -2.0453 C   0  0  0  0  0  0  0  0  0  0  0  0
   -0.4483    0.5978   -2.1792 C   0  0  0  0  0  0  0  0  0  0  0  0
   -1.4974    0.7037   -3.0957 C   0  0  0  0  0  0  0  0  0  0  0  0
   -1.6186    1.8558   -3.8825 C   0  0  0  0  0  0  0  0  0  0  0  0
   -2.8591    1.9117   -5.1717 S   0  0  0  0  0  0  0  0  0  0  0  0
   -1.7417    1.1986   -6.4173 C   0  0  0  0  0  0  0  0  0  0  0  0
   -0.7405    2.9319   -3.7014 C   0  0  0  0  0  0  0  0  0  0  0  0
    0.3154    2.8207   -2.7857 C   0  0  0  0  0  0  0  0  0  0  0  0
    2.9363    1.1625    0.8421 C   0  0  0  0  0  0  0  0  0  0  0  0
    4.3361    0.3363    0.4641 S   0  0  0  0  0  0  0  0  0  0  0  0
   -0.2001    3.1584    0.4699 C   0  0  0  0  0  0  0  0  0  0  0  0
   -0.3503    4.5228    0.2992 C   0  0  0  0  0  0  0  0  0  0  0  0
   -1.6712    4.7074   -0.0653 C   0  0  0  0  0  0  0  0  0  0  0  0
   -2.2466    3.4523   -0.0499 C   0  0  0  0  0  0  0  0  0  0  0  0
   -1.3437    2.5510    0.2479 O   0  0  0  0  0  0  0  0  0  0  0  0
   -3.6428    3.1074   -0.3362 C   0  0  0  0  0  0  0  0  0  0  0  0
   -4.3412    2.1675    0.4342 C   0  0  0  0  0  0  0  0  0  0  0  0
   -4.4235    2.2597    1.8674 N   0  0  0  0  0  0  0  0  0  0  0  0
   -4.0072    1.1765    2.7163 C   0  0  0  0  0  0  0  0  0  0  0  0
   -4.8696    0.6970    3.7141 C   0  0  0  0  0  0  0  0  0  0  0  0
   -4.4233   -0.2739    4.6200 C   0  0  0  0  0  0  0  0  0  0  0  0
   -3.1096   -0.7487    4.5584 C   0  0  0  0  0  0  0  0  0  0  0  0
   -2.2445   -0.2808    3.5621 C   0  0  0  0  0  0  0  0  0  0  0  0
   -2.6902    0.6797    2.6501 C   0  0  0  0  0  0  0  0  0  0  0  0
   -4.9392    3.4806    2.4452 C   0  0  0  0  0  0  0  0  0  0  0  0
   -6.0269    4.1460    1.8521 C   0  0  0  0  0  0  0  0  0  0  0  0
   -6.4559    5.3882    2.3320 C   0  0  0  0  0  0  0  0  0  0  0  0
   -5.7980    5.9801    3.4153 C   0  0  0  0  0  0  0  0  0  0  0  0
   -4.7254    5.3227    4.0260 C   0  0  0  0  0  0  0  0  0  0  0  0
   -4.3002    4.0796    3.5533 C   0  0  0  0  0  0  0  0  0  0  0  0
   -5.3262    1.5301   -0.3220 C   0  0  0  0  0  0  0  0  0  0  0  0
   -5.9190   -0.0216   -0.1955 S   0  0  0  0  0  0  0  0  0  0  0  0
   -6.1756   -0.2434   -1.8714 C   0  0  0  0  0  0  0  0  0  0  0  0
   -5.9785    1.0062   -2.5060 C   0  0  0  0  0  0  0  0  0  0  0  0
   -6.8503    1.4917   -3.5610 N   0  0  0  0  0  0  0  0  0  0  0  0
   -7.7779    2.5603   -3.2577 C   0  0  0  0  0  0  0  0  0  0  0  0
   -8.5133    2.5497   -2.0529 C   0  0  0  0  0  0  0  0  0  0  0  0
   -9.3480    3.6200   -1.7285 C   0  0  0  0  0  0  0  0  0  0  0  0
   -9.4860    4.6968   -2.6085 C   0  0  0  0  0  0  0  0  0  0  0  0
   -8.7774    4.7129   -3.8118 C   0  0  0  0  0  0  0  0  0  0  0  0
   -7.9299    3.6494   -4.1402 C   0  0  0  0  0  0  0  0  0  0  0  0
   -6.9142    0.8512   -4.8418 C   0  0  0  0  0  0  0  0  0  0  0  0
   -6.1433    1.3443   -5.9105 C   0  0  0  0  0  0  0  0  0  0  0  0
   -6.2300    0.7430   -7.1725 C   0  0  0  0  0  0  0  0  0  0  0  0
   -7.0847   -0.3445   -7.3789 C   0  0  0  0  0  0  0  0  0  0  0  0
   -7.8880   -0.8109   -6.3287 C   0  0  0  0  0  0  0  0  0  0  0  0
   -7.8243   -0.1940   -5.0638 C   0  0  0  0  0  0  0  0  0  0  0  0
   -5.4068    1.9180   -1.6139 C   0  0  0  0  0  0  0  0  0  0  0  0
   -4.2638    3.1057   -1.9179 S   0  0  0  0  0  0  0  0  0  0  0  0
   -5.9036   -1.5053   -2.6139 C   0  0  0  0  0  0  0  0  0  0  0  0
   -5.4557   -2.7026   -2.1659 C   0  0  0  0  0  0  0  0  0  0  0  0
   -5.2952   -3.8548   -3.0637 C   0  0  0  0  0  0  0  0  0  0  0  0
   -5.2678   -3.8128   -4.3236 O   0  0  0  0  0  0  0  0  0  0  0  0
   -5.1729   -5.0573   -2.2701 C   0  0  0  0  0  0  0  0  0  0  0  0
   -4.8456   -6.3631   -2.7242 C   0  0  0  0  0  0  0  0  0  0  0  0
   -4.6840   -7.2851   -1.7070 C   0  0  0  0  0  0  0  0  0  0  0  0
   -4.8830   -6.9626   -0.3202 C   0  0  0  0  0  0  0  0  0  0  0  0
   -5.1817   -5.6845    0.1313 C   0  0  0  0  0  0  0  0  0  0  0  0
   -5.2862   -4.7053   -0.9033 C   0  0  0  0  0  0  0  0  0  0  0  0
   -5.2659   -3.2190   -0.7750 C   0  0  0  0  0  0  0  0  0  0  0  0
   -4.4415   -2.6641    0.1367 C   0  0  0  0  0  0  0  0  0  0  0  0
   -3.4179   -1.7242   -0.2404 C   0  0  0  0  0  0  0  0  0  0  0  0
   -2.6076   -0.9481   -0.5274 N   0  0  0  0  0  0  0  0  0  0  0  0
   -4.5164   -3.0131    1.5374 C   0  0  0  0  0  0  0  0  0  0  0  0
   -4.6020   -3.2878    2.6611 N   0  0  0  0  0  0  0  0  0  0  0  0
   -4.5436   -8.3710    0.0724 C   0  0  0  0  0  0  0  0  0  0  0  0
   -5.7189   -9.3206    0.4593 C   0  0  0  0  0  0  0  0  0  0  0  0
   -6.9607   -8.9669   -0.3313 C   0  0  0  0  0  0  0  0  0  0  0  0
   -6.7196   -9.2874   -1.5993 C   0  0  0  0  0  0  0  0  0  0  0  0
   -5.3152   -9.8306   -1.6404 C   0  0  0  0  0  0  0  0  0  0  0  0
   -5.2983  -10.5632   -0.3113 C   0  0  0  0  0  0  0  0  0  0  0  0
   -4.2987   -8.6913   -1.3432 C   0  0  0  0  0  0  0  0  0  0  0  0
    6.6914   -0.6147    2.8263 H   0  0  0  0  0  0  0  0  0  0  0  0
    7.4019    3.2043   -2.0708 H   0  0  0  0  0  0  0  0  0  0  0  0
   10.6905   -0.5677   -1.0730 H   0  0  0  0  0  0  0  0  0  0  0  0
   11.5863    1.2761   -3.8952 H   0  0  0  0  0  0  0  0  0  0  0  0
   10.4318   -1.1607   -4.5661 H   0  0  0  0  0  0  0  0  0  0  0  0
   11.0599   -0.0889   -6.9076 H   0  0  0  0  0  0  0  0  0  0  0  0
    9.3764    1.8416   -7.4182 H   0  0  0  0  0  0  0  0  0  0  0  0
    7.6772    2.0033   -5.3815 H   0  0  0  0  0  0  0  0  0  0  0  0
    8.0507   -0.6195   -5.6047 H   0  0  0  0  0  0  0  0  0  0  0  0
    8.0605   -0.1590   -3.8581 H   0  0  0  0  0  0  0  0  0  0  0  0
   10.0455    3.0579   -4.3713 H   0  0  0  0  0  0  0  0  0  0  0  0
    4.5530    4.1800    3.6324 H   0  0  0  0  0  0  0  0  0  0  0  0
    3.2499    5.9858    4.7051 H   0  0  0  0  0  0  0  0  0  0  0  0
   -0.7952    6.7040    5.5943 H   0  0  0  0  0  0  0  0  0  0  0  0
   -0.3669    5.0140    5.1206 H   0  0  0  0  0  0  0  0  0  0  0  0
    0.5656    6.4172    4.4427 H   0  0  0  0  0  0  0  0  0  0  0  0
    1.3395    3.0944    7.2598 H   0  0  0  0  0  0  0  0  0  0  0  0
    2.6592    1.2951    6.2217 H   0  0  0  0  0  0  0  0  0  0  0  0
    6.5148    2.3397    5.7266 H   0  0  0  0  0  0  0  0  0  0  0  0
    7.6517    0.9821    7.4504 H   0  0  0  0  0  0  0  0  0  0  0  0
    9.2527   -3.0563    7.9854 H   0  0  0  0  0  0  0  0  0  0  0  0
    8.2928   -2.8555    6.4625 H   0  0  0  0  0  0  0  0  0  0  0  0
    9.3067   -1.4819    7.1102 H   0  0  0  0  0  0  0  0  0  0  0  0
    5.2372   -2.4241    6.3669 H   0  0  0  0  0  0  0  0  0  0  0  0
    4.0900   -1.0666    4.6507 H   0  0  0  0  0  0  0  0  0  0  0  0
    1.8021   -1.2696   -1.5694 H   0  0  0  0  0  0  0  0  0  0  0  0
    3.3743   -2.5950   -2.9078 H   0  0  0  0  0  0  0  0  0  0  0  0
    5.1333   -2.2687   -6.9246 H   0  0  0  0  0  0  0  0  0  0  0  0
    4.6041   -0.6170   -6.4134 H   0  0  0  0  0  0  0  0  0  0  0  0
    3.6161   -2.0734   -5.9642 H   0  0  0  0  0  0  0  0  0  0  0  0
    5.3897    1.0178   -4.1134 H   0  0  0  0  0  0  0  0  0  0  0  0
    3.8039    2.3493   -2.7649 H   0  0  0  0  0  0  0  0  0  0  0  0
   -0.3143   -0.3205   -1.6309 H   0  0  0  0  0  0  0  0  0  0  0  0
   -2.1777   -0.1313   -3.2329 H   0  0  0  0  0  0  0  0  0  0  0  0
   -1.4882    0.1528   -6.1516 H   0  0  0  0  0  0  0  0  0  0  0  0
   -0.8089    1.8000   -6.4924 H   0  0  0  0  0  0  0  0  0  0  0  0
   -2.2442    1.2027   -7.4019 H   0  0  0  0  0  0  0  0  0  0  0  0
   -0.8283    3.8272   -4.3089 H   0  0  0  0  0  0  0  0  0  0  0  0
    1.0376    3.6243   -2.7018 H   0  0  0  0  0  0  0  0  0  0  0  0
    0.4069    5.2857    0.4238 H   0  0  0  0  0  0  0  0  0  0  0  0
   -2.1641    5.6481   -0.2807 H   0  0  0  0  0  0  0  0  0  0  0  0
   -5.8896    1.0624    3.7778 H   0  0  0  0  0  0  0  0  0  0  0  0
   -5.0943   -0.6320    5.3871 H   0  0  0  0  0  0  0  0  0  0  0  0
   -2.7658   -1.4823    5.2777 H   0  0  0  0  0  0  0  0  0  0  0  0
   -1.2203   -0.6240    3.5254 H   0  0  0  0  0  0  0  0  0  0  0  0
   -2.0014    1.0417    1.9146 H   0  0  0  0  0  0  0  0  0  0  0  0
   -6.5311    3.7285    0.9903 H   0  0  0  0  0  0  0  0  0  0  0  0
   -7.2854    5.9024    1.8648 H   0  0  0  0  0  0  0  0  0  0  0  0
   -6.1128    6.9597    3.7658 H   0  0  0  0  0  0  0  0  0  0  0  0
   -4.2176    5.7852    4.8541 H   0  0  0  0  0  0  0  0  0  0  0  0
   -3.4504    3.5973    4.0126 H   0  0  0  0  0  0  0  0  0  0  0  0
   -8.4226    1.7123   -1.3717 H   0  0  0  0  0  0  0  0  0  0  0  0
   -9.9010    3.5988   -0.7928 H   0  0  0  0  0  0  0  0  0  0  0  0
  -10.1495    5.5212   -2.3533 H   0  0  0  0  0  0  0  0  0  0  0  0
   -8.8932    5.5465   -4.4944 H   0  0  0  0  0  0  0  0  0  0  0  0
   -7.3880    3.6870   -5.0726 H   0  0  0  0  0  0  0  0  0  0  0  0
   -5.5245    2.2159   -5.7745 H   0  0  0  0  0  0  0  0  0  0  0  0
   -5.6472    1.1306   -8.0000 H   0  0  0  0  0  0  0  0  0  0  0  0
   -7.1302   -0.8232   -8.3517 H   0  0  0  0  0  0  0  0  0  0  0  0
   -8.5713   -1.6281   -6.4949 H   0  0  0  0  0  0  0  0  0  0  0  0
   -8.4651   -0.5464   -4.2704 H   0  0  0  0  0  0  0  0  0  0  0  0
   -5.9760   -1.4231   -3.6907 H   0  0  0  0  0  0  0  0  0  0  0  0
   -4.6741   -6.5985   -3.7633 H   0  0  0  0  0  0  0  0  0  0  0  0
   -5.2735   -5.4711    1.1852 H   0  0  0  0  0  0  0  0  0  0  0  0
   -3.6484   -8.4525    0.7230 H   0  0  0  0  0  0  0  0  0  0  0  0
   -5.8840   -9.4604    1.5436 H   0  0  0  0  0  0  0  0  0  0  0  0
   -7.9012   -8.5825    0.0689 H   0  0  0  0  0  0  0  0  0  0  0  0
   -7.4089   -9.2012   -2.4330 H   0  0  0  0  0  0  0  0  0  0  0  0
   -5.0709  -10.4626   -2.5289 H   0  0  0  0  0  0  0  0  0  0  0  0
   -4.2835  -10.9398   -0.0100 H   0  0  0  0  0  0  0  0  0  0  0  0
   -6.0410  -11.3862   -0.2438 H   0  0  0  0  0  0  0  0  0  0  0  0
   -3.2363   -8.9417   -1.5522 H   0  0  0  0  0  0  0  0  0  0  0  0
  1  2  2  3
  2  3  1  0
  3  4  2  0
  3  5  1  0
  5  6  2  0
  6  7  1  0
  7  8  2  0
  8  9  1  0
  9 10  2  0
 10 11  1  0
 11 12  2  3
 12 13  1  0
 13 14  3  0
 12 15  1  0
 15 16  3  0
  8 17  1  0
 17 18  1  0
 18 19  1  0
 19 20  2  0
 20 21  1  0
 21 22  1  0
 21 23  1  0
  1 24  1  0
 24 25  2  0
 25 26  1  0
 26 27  1  0
 27 28  2  0
 28 29  1  0
 29 30  2  0
 30 31  1  0
 31 32  1  0
 30 33  1  0
 33 34  2  0
 26 35  1  0
 35 36  2  0
 36 37  1  0
 37 38  2  0
 38 39  1  0
 39 40  1  0
 38 41  1  0
 41 42  2  0
 25 43  1  0
 43 44  1  0
 44 45  1  0
 45 46  2  0
 46 47  1  0
 47 48  1  0
 48 49  2  0
 49 50  1  0
 50 51  2  0
 51 52  1  0
 52 53  1  0
 51 54  1  0
 54 55  2  0
 47 56  1  0
 56 57  2  0
 57 58  1  0
 58 59  2  0
 59 60  1  0
 60 61  1  0
 59 62  1  0
 62 63  2  0
 46 64  1  0
 64 65  1  0
 45 66  1  0
 66 67  2  0
 67 68  1  0
 68 69  2  0
 69 70  1  0
 69 71  1  0
 71 72  2  0
 72 73  1  0
 73 74  1  0
 74 75  2  0
 75 76  1  0
 76 77  2  0
 77 78  1  0
 78 79  2  0
 73 80  1  0
 80 81  2  0
 81 82  1  0
 82 83  2  0
 83 84  1  0
 84 85  2  0
 72 86  1  0
 86 87  1  0
 87 88  1  0
 88 89  2  0
 89 90  1  0
 90 91  1  0
 91 92  2  0
 92 93  1  0
 93 94  2  0
 94 95  1  0
 95 96  2  0
 90 97  1  0
 97 98  2  0
 98 99  1  0
 99100  2  0
100101  1  0
101102  2  0
 89103  1  0
103104  1  0
 88105  1  0
105106  2  3
106107  1  0
107108  2  0
107109  1  0
109110  2  0
110111  1  0
111112  2  0
112113  1  0
113114  2  0
114115  1  0
115116  2  3
116117  1  0
117118  3  0
116119  1  0
119120  3  0
112121  1  0
121122  1  0
122123  1  0
123124  2  0
124125  1  0
125126  1  0
125127  1  0
 11  2  1  0
 23 17  1  0
 65 24  1  0
 70 66  1  0
104 71  1  0
115106  1  0
127121  1  0
 10  5  1  0
 22 18  1  0
 34 27  1  0
 42 35  1  0
 64 43  2  0
 79 74  1  0
 85 80  1  0
103 86  2  0
114109  1  0
126122  1  0
 23  7  1  0
 55 48  1  0
 63 56  1  0
 96 91  1  0
102 97  1  0
127111  1  0
  1128  1  0
  6129  1  0
  9130  1  0
 17131  1  0
 18132  1  0
 19133  1  0
 20134  1  0
 21135  1  0
 22136  1  0
 22137  1  0
 23138  1  0
 28139  1  0
 29140  1  0
 32141  1  0
 32142  1  0
 32143  1  0
 33144  1  0
 34145  1  0
 36146  1  0
 37147  1  0
 40148  1  0
 40149  1  0
 40150  1  0
 41151  1  0
 42152  1  0
 49153  1  0
 50154  1  0
 53155  1  0
 53156  1  0
 53157  1  0
 54158  1  0
 55159  1  0
 57160  1  0
 58161  1  0
 61162  1  0
 61163  1  0
 61164  1  0
 62165  1  0
 63166  1  0
 67167  1  0
 68168  1  0
 75169  1  0
 76170  1  0
 77171  1  0
 78172  1  0
 79173  1  0
 81174  1  0
 82175  1  0
 83176  1  0
 84177  1  0
 85178  1  0
 92179  1  0
 93180  1  0
 94181  1  0
 95182  1  0
 96183  1  0
 98184  1  0
 99185  1  0
100186  1  0
101187  1  0
102188  1  0
105189  1  0
110190  1  0
113191  1  0
121192  1  0
122193  1  0
123194  1  0
124195  1  0
125196  1  0
126197  1  0
126198  1  0
127199  1  0
M  END

