
     RDKit          3D

271295  0  0  0  0  0  0  0  0999 V2000
   -1.0640    7.5171    5.2912 C   0  0  0  0  0  0  0  0  0  0  0  0
   -2.3643    7.5686    5.6128 C   0  0  0  0  0  0  0  0  0  0  0  0
   -2.8313    6.8555    6.8089 C   0  0  0  0  0  0  0  0  0  0  0  0
   -2.2053    6.7638    7.8977 O   0  0  0  0  0  0  0  0  0  0  0  0
   -4.0540    6.1433    6.4784 C   0  0  0  0  0  0  0  0  0  0  0  0
   -4.6561    5.0974    7.2137 C   0  0  0  0  0  0  0  0  0  0  0  0
   -5.6743    4.4539    6.5313 C   0  0  0  0  0  0  0  0  0  0  0  0
   -6.0795    4.8091    5.2035 C   0  0  0  0  0  0  0  0  0  0  0  0
   -5.4833    5.8205    4.4693 C   0  0  0  0  0  0  0  0  0  0  0  0
   -4.4424    6.4986    5.1590 C   0  0  0  0  0  0  0  0  0  0  0  0
   -3.4826    7.4909    4.6339 C   0  0  0  0  0  0  0  0  0  0  0  0
   -3.7113    8.3946    3.6548 C   0  0  0  0  0  0  0  0  0  0  0  0
   -2.8041    9.4920    3.4292 C   0  0  0  0  0  0  0  0  0  0  0  0
   -2.0711   10.3672    3.2439 N   0  0  0  0  0  0  0  0  0  0  0  0
   -4.9421    8.4245    2.9045 C   0  0  0  0  0  0  0  0  0  0  0  0
   -5.9370    8.4645    2.3161 N   0  0  0  0  0  0  0  0  0  0  0  0
   -7.0621    3.6777    5.1811 C   0  0  0  0  0  0  0  0  0  0  0  0
   -6.6638    2.4400    4.3234 C   0  0  0  0  0  0  0  0  0  0  0  0
   -7.5727    1.3181    4.7675 C   0  0  0  0  0  0  0  0  0  0  0  0
   -7.1762    0.9735    5.9984 C   0  0  0  0  0  0  0  0  0  0  0  0
   -6.0225    1.8815    6.3454 C   0  0  0  0  0  0  0  0  0  0  0  0
   -5.3749    1.9663    4.9740 C   0  0  0  0  0  0  0  0  0  0  0  0
   -6.6376    3.3064    6.5331 C   0  0  0  0  0  0  0  0  0  0  0  0
   -0.6435    6.7215    4.1252 C   0  0  0  0  0  0  0  0  0  0  0  0
   -0.3783    5.3353    4.1581 C   0  0  0  0  0  0  0  0  0  0  0  0
    0.3182    4.6673    5.2547 N   0  0  0  0  0  0  0  0  0  0  0  0
    1.1972    5.4390    6.1001 C   0  0  0  0  0  0  0  0  0  0  0  0
    1.2730    5.1582    7.4732 C   0  0  0  0  0  0  0  0  0  0  0  0
    2.2421    5.7812    8.2654 C   0  0  0  0  0  0  0  0  0  0  0  0
    3.1448    6.6863    7.6908 C   0  0  0  0  0  0  0  0  0  0  0  0
    4.4548    7.4037    8.6784 S   0  0  0  0  0  0  0  0  0  0  0  0
    5.6609    6.1217    8.2139 C   0  0  0  0  0  0  0  0  0  0  0  0
    3.0598    6.9900    6.3291 C   0  0  0  0  0  0  0  0  0  0  0  0
    2.1068    6.3557    5.5353 C   0  0  0  0  0  0  0  0  0  0  0  0
    0.7139    3.2866    5.1141 C   0  0  0  0  0  0  0  0  0  0  0  0
    1.9724    2.9765    4.5658 C   0  0  0  0  0  0  0  0  0  0  0  0
    2.3356    1.6509    4.3252 C   0  0  0  0  0  0  0  0  0  0  0  0
    1.4616    0.6134    4.6663 C   0  0  0  0  0  0  0  0  0  0  0  0
    1.9004   -1.0840    4.2669 S   0  0  0  0  0  0  0  0  0  0  0  0
    2.9658   -1.3225    5.7239 C   0  0  0  0  0  0  0  0  0  0  0  0
    0.2199    0.9103    5.2533 C   0  0  0  0  0  0  0  0  0  0  0  0
   -0.1580    2.2448    5.4665 C   0  0  0  0  0  0  0  0  0  0  0  0
   -0.4180    4.8243    2.8543 C   0  0  0  0  0  0  0  0  0  0  0  0
   -0.3175    3.2907    2.2165 S   0  0  0  0  0  0  0  0  0  0  0  0
   -0.1343    3.7918    0.6111 C   0  0  0  0  0  0  0  0  0  0  0  0
   -0.0841    5.2148    0.5682 C   0  0  0  0  0  0  0  0  0  0  0  0
    0.5357    5.9854   -0.4963 N   0  0  0  0  0  0  0  0  0  0  0  0
    1.5066    5.3582   -1.3475 C   0  0  0  0  0  0  0  0  0  0  0  0
    1.3158    5.3283   -2.7359 C   0  0  0  0  0  0  0  0  0  0  0  0
    2.2742    4.7353   -3.5660 C   0  0  0  0  0  0  0  0  0  0  0  0
    3.4424    4.1999   -3.0107 C   0  0  0  0  0  0  0  0  0  0  0  0
    4.6658    3.4245   -4.0659 S   0  0  0  0  0  0  0  0  0  0  0  0
    4.0372    1.7480   -3.7375 C   0  0  0  0  0  0  0  0  0  0  0  0
    3.6595    4.2690   -1.6275 C   0  0  0  0  0  0  0  0  0  0  0  0
    2.6941    4.8451   -0.7998 C   0  0  0  0  0  0  0  0  0  0  0  0
    0.6631    7.4136   -0.4012 C   0  0  0  0  0  0  0  0  0  0  0  0
    1.6939    7.9826    0.3679 C   0  0  0  0  0  0  0  0  0  0  0  0
    1.8541    9.3705    0.4141 C   0  0  0  0  0  0  0  0  0  0  0  0
    1.0029   10.1985   -0.3264 C   0  0  0  0  0  0  0  0  0  0  0  0
    1.2294   11.9762   -0.2972 S   0  0  0  0  0  0  0  0  0  0  0  0
    0.0452   12.2277    1.0598 C   0  0  0  0  0  0  0  0  0  0  0  0
   -0.0071    9.6340   -1.1135 C   0  0  0  0  0  0  0  0  0  0  0  0
   -0.1706    8.2480   -1.1524 C   0  0  0  0  0  0  0  0  0  0  0  0
   -0.3822    5.7386    1.8433 C   0  0  0  0  0  0  0  0  0  0  0  0
   -0.5942    7.2658    2.5132 S   0  0  0  0  0  0  0  0  0  0  0  0
    0.2230    2.7963   -0.4088 C   0  0  0  0  0  0  0  0  0  0  0  0
   -0.5079    2.3638   -1.5562 C   0  0  0  0  0  0  0  0  0  0  0  0
   -1.7768    2.9032   -2.0164 N   0  0  0  0  0  0  0  0  0  0  0  0
   -2.2587    4.2091   -1.6649 C   0  0  0  0  0  0  0  0  0  0  0  0
   -2.9053    4.4212   -0.4338 C   0  0  0  0  0  0  0  0  0  0  0  0
   -3.5065    5.6535   -0.1524 C   0  0  0  0  0  0  0  0  0  0  0  0
   -3.5635    6.6426   -1.1383 C   0  0  0  0  0  0  0  0  0  0  0  0
   -4.3210    8.2307   -0.7965 S   0  0  0  0  0  0  0  0  0  0  0  0
   -6.0256    7.6189   -0.9862 C   0  0  0  0  0  0  0  0  0  0  0  0
   -3.0040    6.4005   -2.3982 C   0  0  0  0  0  0  0  0  0  0  0  0
   -2.3304    5.2049   -2.6490 C   0  0  0  0  0  0  0  0  0  0  0  0
   -2.7461    2.0705   -2.6738 C   0  0  0  0  0  0  0  0  0  0  0  0
   -3.0424    2.2742   -4.0302 C   0  0  0  0  0  0  0  0  0  0  0  0
   -4.1885    1.7082   -4.5946 C   0  0  0  0  0  0  0  0  0  0  0  0
   -5.0498    0.9395   -3.8033 C   0  0  0  0  0  0  0  0  0  0  0  0
   -6.6290    0.4050   -4.4631 S   0  0  0  0  0  0  0  0  0  0  0  0
   -7.5031    1.9140   -3.9324 C   0  0  0  0  0  0  0  0  0  0  0  0
   -4.7067    0.6546   -2.4750 C   0  0  0  0  0  0  0  0  0  0  0  0
   -3.5585    1.2176   -1.9122 C   0  0  0  0  0  0  0  0  0  0  0  0
    0.0312    1.1461   -2.0313 C   0  0  0  0  0  0  0  0  0  0  0  0
   -0.3700    0.0231   -3.2279 S   0  0  0  0  0  0  0  0  0  0  0  0
    0.6931   -1.1873   -2.6534 C   0  0  0  0  0  0  0  0  0  0  0  0
    1.2919   -0.7399   -1.4694 C   0  0  0  0  0  0  0  0  0  0  0  0
    1.6114   -1.6248   -0.3774 N   0  0  0  0  0  0  0  0  0  0  0  0
    2.9784   -1.8656    0.0331 C   0  0  0  0  0  0  0  0  0  0  0  0
    3.2956   -2.9471    0.8818 C   0  0  0  0  0  0  0  0  0  0  0  0
    4.6220   -3.2183    1.2278 C   0  0  0  0  0  0  0  0  0  0  0  0
    5.6509   -2.4044    0.7445 C   0  0  0  0  0  0  0  0  0  0  0  0
    7.3585   -2.7511    1.1729 S   0  0  0  0  0  0  0  0  0  0  0  0
    7.6697   -3.6962   -0.3525 C   0  0  0  0  0  0  0  0  0  0  0  0
    5.3457   -1.3079   -0.0671 C   0  0  0  0  0  0  0  0  0  0  0  0
    4.0235   -1.0458   -0.4291 C   0  0  0  0  0  0  0  0  0  0  0  0
    0.5098   -2.1603    0.3810 C   0  0  0  0  0  0  0  0  0  0  0  0
   -0.0566   -1.4161    1.4260 C   0  0  0  0  0  0  0  0  0  0  0  0
   -1.0850   -1.9532    2.2066 C   0  0  0  0  0  0  0  0  0  0  0  0
   -1.5569   -3.2468    1.9512 C   0  0  0  0  0  0  0  0  0  0  0  0
   -2.8071   -3.9721    3.0140 S   0  0  0  0  0  0  0  0  0  0  0  0
   -4.1959   -3.2727    2.0690 C   0  0  0  0  0  0  0  0  0  0  0  0
   -1.0055   -3.9897    0.9010 C   0  0  0  0  0  0  0  0  0  0  0  0
    0.0169   -3.4485    0.1182 C   0  0  0  0  0  0  0  0  0  0  0  0
    0.9863    0.5921   -1.2430 C   0  0  0  0  0  0  0  0  0  0  0  0
    1.3597    1.6051    0.0108 S   0  0  0  0  0  0  0  0  0  0  0  0
    0.9080   -2.5349   -3.2153 C   0  0  0  0  0  0  0  0  0  0  0  0
    0.0640   -3.2618   -4.0797 C   0  0  0  0  0  0  0  0  0  0  0  0
   -0.7811   -2.6545   -5.0697 N   0  0  0  0  0  0  0  0  0  0  0  0
   -2.2214   -2.6807   -4.9513 C   0  0  0  0  0  0  0  0  0  0  0  0
   -2.8725   -3.6030   -4.1068 C   0  0  0  0  0  0  0  0  0  0  0  0
   -4.2678   -3.7130   -4.1190 C   0  0  0  0  0  0  0  0  0  0  0  0
   -5.0299   -2.8944   -4.9586 C   0  0  0  0  0  0  0  0  0  0  0  0
   -6.8168   -3.0642   -4.9986 S   0  0  0  0  0  0  0  0  0  0  0  0
   -6.8162   -4.1868   -6.4307 C   0  0  0  0  0  0  0  0  0  0  0  0
   -4.3978   -1.9374   -5.7575 C   0  0  0  0  0  0  0  0  0  0  0  0
   -3.0042   -1.8212   -5.7460 C   0  0  0  0  0  0  0  0  0  0  0  0
   -0.1654   -2.4463   -6.3596 C   0  0  0  0  0  0  0  0  0  0  0  0
   -0.6250   -3.1488   -7.4884 C   0  0  0  0  0  0  0  0  0  0  0  0
    0.0715   -3.0743   -8.6996 C   0  0  0  0  0  0  0  0  0  0  0  0
    1.2310   -2.2992   -8.7977 C   0  0  0  0  0  0  0  0  0  0  0  0
    2.1394   -2.2380  -10.3413 S   0  0  0  0  0  0  0  0  0  0  0  0
    3.1691   -3.6840   -9.9378 C   0  0  0  0  0  0  0  0  0  0  0  0
    1.6817   -1.5764   -7.6867 C   0  0  0  0  0  0  0  0  0  0  0  0
    0.9892   -1.6506   -6.4738 C   0  0  0  0  0  0  0  0  0  0  0  0
    0.5057   -4.5812   -4.1969 C   0  0  0  0  0  0  0  0  0  0  0  0
   -0.1344   -5.9911   -4.8545 S   0  0  0  0  0  0  0  0  0  0  0  0
    1.1223   -6.9805   -4.2560 C   0  0  0  0  0  0  0  0  0  0  0  0
    2.0521   -6.1910   -3.5709 C   0  0  0  0  0  0  0  0  0  0  0  0
    3.2959   -6.6629   -3.0396 N   0  0  0  0  0  0  0  0  0  0  0  0
    4.4726   -6.4260   -3.8219 C   0  0  0  0  0  0  0  0  0  0  0  0
    4.6578   -7.0965   -5.0397 C   0  0  0  0  0  0  0  0  0  0  0  0
    5.7805   -6.8316   -5.8241 C   0  0  0  0  0  0  0  0  0  0  0  0
    6.7217   -5.8795   -5.4049 C   0  0  0  0  0  0  0  0  0  0  0  0
    8.1487   -5.5221   -6.4290 S   0  0  0  0  0  0  0  0  0  0  0  0
    9.1925   -6.7788   -5.6237 C   0  0  0  0  0  0  0  0  0  0  0  0
    6.5334   -5.1981   -4.1947 C   0  0  0  0  0  0  0  0  0  0  0  0
    5.4195   -5.4771   -3.4002 C   0  0  0  0  0  0  0  0  0  0  0  0
    3.4076   -7.1629   -1.6926 C   0  0  0  0  0  0  0  0  0  0  0  0
    2.6391   -6.6128   -0.6514 C   0  0  0  0  0  0  0  0  0  0  0  0
    2.7722   -7.0827    0.6543 C   0  0  0  0  0  0  0  0  0  0  0  0
    3.6715   -8.1163    0.9368 C   0  0  0  0  0  0  0  0  0  0  0  0
    3.8592   -8.7060    2.6166 S   0  0  0  0  0  0  0  0  0  0  0  0
    5.1596   -7.4947    3.0140 C   0  0  0  0  0  0  0  0  0  0  0  0
    4.4334   -8.6771   -0.0929 C   0  0  0  0  0  0  0  0  0  0  0  0
    4.3098   -8.1979   -1.3993 C   0  0  0  0  0  0  0  0  0  0  0  0
    1.6649   -4.8631   -3.5537 C   0  0  0  0  0  0  0  0  0  0  0  0
    2.2266   -3.5150   -2.7538 S   0  0  0  0  0  0  0  0  0  0  0  0
    1.0651   -8.4457   -4.1760 C   0  0  0  0  0  0  0  0  0  0  0  0
    0.6999   -9.0808   -3.0506 C   0  0  0  0  0  0  0  0  0  0  0  0
    0.8557  -10.7308   -2.8032 S   0  0  0  0  0  0  0  0  0  0  0  0
    0.2779  -10.7159   -1.2107 C   0  0  0  0  0  0  0  0  0  0  0  0
    0.1157  -11.8529   -0.4860 C   0  0  0  0  0  0  0  0  0  0  0  0
    0.4920  -13.1272   -1.0380 C   0  0  0  0  0  0  0  0  0  0  0  0
    0.7816  -14.1596   -1.4811 N   0  0  0  0  0  0  0  0  0  0  0  0
   -0.5117  -11.9153    0.8084 C   0  0  0  0  0  0  0  0  0  0  0  0
   -1.0150  -11.9862    1.8457 N   0  0  0  0  0  0  0  0  0  0  0  0
   -0.0310   -9.4253   -0.8447 N   0  0  0  0  0  0  0  0  0  0  0  0
   -0.4850   -8.9504    0.4799 C   0  0  0  0  0  0  0  0  0  0  0  0
   -1.9929   -8.9186    0.6076 C   0  0  0  0  0  0  0  0  0  0  0  0
   -2.8426   -9.6489   -0.2508 C   0  0  0  0  0  0  0  0  0  0  0  0
   -4.2293   -9.5944   -0.0809 C   0  0  0  0  0  0  0  0  0  0  0  0
   -4.7850   -8.8224    0.9415 C   0  0  0  0  0  0  0  0  0  0  0  0
   -3.9533   -8.1049    1.8015 C   0  0  0  0  0  0  0  0  0  0  0  0
   -2.5645   -8.1557    1.6372 C   0  0  0  0  0  0  0  0  0  0  0  0
    0.1639   -8.5398   -1.8751 C   0  0  0  0  0  0  0  0  0  0  0  0
   -0.1584   -7.3236   -1.7665 O   0  0  0  0  0  0  0  0  0  0  0  0
   -0.3672    7.5363    6.1167 H   0  0  0  0  0  0  0  0  0  0  0  0
   -4.3079    4.7738    8.1895 H   0  0  0  0  0  0  0  0  0  0  0  0
   -5.7472    5.9900    3.4392 H   0  0  0  0  0  0  0  0  0  0  0  0
   -8.1205    4.0089    5.0944 H   0  0  0  0  0  0  0  0  0  0  0  0
   -6.6205    2.6021    3.2270 H   0  0  0  0  0  0  0  0  0  0  0  0
   -8.3413    0.8190    4.1838 H   0  0  0  0  0  0  0  0  0  0  0  0
   -7.5518    0.1345    6.5770 H   0  0  0  0  0  0  0  0  0  0  0  0
   -5.3693    1.5192    7.1697 H   0  0  0  0  0  0  0  0  0  0  0  0
   -4.5323    2.6910    4.9095 H   0  0  0  0  0  0  0  0  0  0  0  0
   -5.0189    0.9794    4.5883 H   0  0  0  0  0  0  0  0  0  0  0  0
   -7.4306    3.3879    7.3054 H   0  0  0  0  0  0  0  0  0  0  0  0
    0.6046    4.4311    7.9170 H   0  0  0  0  0  0  0  0  0  0  0  0
    2.3131    5.5390    9.3200 H   0  0  0  0  0  0  0  0  0  0  0  0
    6.6210    6.3192    8.7317 H   0  0  0  0  0  0  0  0  0  0  0  0
    5.2859    5.1230    8.5167 H   0  0  0  0  0  0  0  0  0  0  0  0
    5.8332    6.1390    7.1178 H   0  0  0  0  0  0  0  0  0  0  0  0
    3.7604    7.6835    5.8772 H   0  0  0  0  0  0  0  0  0  0  0  0
    2.1012    6.5534    4.4707 H   0  0  0  0  0  0  0  0  0  0  0  0
    2.6541    3.7679    4.2854 H   0  0  0  0  0  0  0  0  0  0  0  0
    3.2912    1.4351    3.8675 H   0  0  0  0  0  0  0  0  0  0  0  0
    3.4396   -2.3277    5.6624 H   0  0  0  0  0  0  0  0  0  0  0  0
    2.3607   -1.2669    6.6531 H   0  0  0  0  0  0  0  0  0  0  0  0
    3.7674   -0.5538    5.7473 H   0  0  0  0  0  0  0  0  0  0  0  0
   -0.4628    0.1097    5.5125 H   0  0  0  0  0  0  0  0  0  0  0  0
   -1.1277    2.4693    5.8887 H   0  0  0  0  0  0  0  0  0  0  0  0
    0.4270    5.7577   -3.1691 H   0  0  0  0  0  0  0  0  0  0  0  0
    2.1103    4.6984   -4.6351 H   0  0  0  0  0  0  0  0  0  0  0  0
    4.1936    1.5018   -2.6682 H   0  0  0  0  0  0  0  0  0  0  0  0
    2.9565    1.6807   -3.9817 H   0  0  0  0  0  0  0  0  0  0  0  0
    4.5977    1.0167   -4.3574 H   0  0  0  0  0  0  0  0  0  0  0  0
    4.5668    3.8690   -1.1917 H   0  0  0  0  0  0  0  0  0  0  0  0
    2.8654    4.8843    0.2680 H   0  0  0  0  0  0  0  0  0  0  0  0
    2.3592    7.3469    0.9401 H   0  0  0  0  0  0  0  0  0  0  0  0
    2.6469    9.7962    1.0149 H   0  0  0  0  0  0  0  0  0  0  0  0
   -0.9415   11.7949    0.7912 H   0  0  0  0  0  0  0  0  0  0  0  0
    0.4254   11.7542    1.9857 H   0  0  0  0  0  0  0  0  0  0  0  0
   -0.0796   13.3156    1.2351 H   0  0  0  0  0  0  0  0  0  0  0  0
   -0.6580   10.2681   -1.6984 H   0  0  0  0  0  0  0  0  0  0  0  0
   -0.9309    7.8287   -1.7851 H   0  0  0  0  0  0  0  0  0  0  0  0
   -2.9291    3.6376    0.3097 H   0  0  0  0  0  0  0  0  0  0  0  0
   -3.9423    5.8290    0.8229 H   0  0  0  0  0  0  0  0  0  0  0  0
   -6.3303    7.0965   -0.0561 H   0  0  0  0  0  0  0  0  0  0  0  0
   -6.7045    8.4830   -1.1415 H   0  0  0  0  0  0  0  0  0  0  0  0
   -6.1185    6.9279   -1.8522 H   0  0  0  0  0  0  0  0  0  0  0  0
   -3.0643    7.1517   -3.1748 H   0  0  0  0  0  0  0  0  0  0  0  0
   -1.9075    5.0307   -3.6291 H   0  0  0  0  0  0  0  0  0  0  0  0
   -2.4124    2.9163   -4.6328 H   0  0  0  0  0  0  0  0  0  0  0  0
   -4.4353    1.9205   -5.6285 H   0  0  0  0  0  0  0  0  0  0  0  0
   -7.4519    2.0144   -2.8269 H   0  0  0  0  0  0  0  0  0  0  0  0
   -7.0448    2.8072   -4.4149 H   0  0  0  0  0  0  0  0  0  0  0  0
   -8.5668    1.8422   -4.2423 H   0  0  0  0  0  0  0  0  0  0  0  0
   -5.3668    0.0506   -1.8667 H   0  0  0  0  0  0  0  0  0  0  0  0
   -3.3488    1.0544   -0.8624 H   0  0  0  0  0  0  0  0  0  0  0  0
    2.5289   -3.6053    1.2669 H   0  0  0  0  0  0  0  0  0  0  0  0
    4.8482   -4.0608    1.8695 H   0  0  0  0  0  0  0  0  0  0  0  0
    7.0719   -4.6307   -0.3463 H   0  0  0  0  0  0  0  0  0  0  0  0
    7.4116   -3.0925   -1.2498 H   0  0  0  0  0  0  0  0  0  0  0  0
    8.7453   -3.9558   -0.4024 H   0  0  0  0  0  0  0  0  0  0  0  0
    6.1365   -0.6712   -0.4406 H   0  0  0  0  0  0  0  0  0  0  0  0
    3.8239   -0.2041   -1.0717 H   0  0  0  0  0  0  0  0  0  0  0  0
    0.3107   -0.4274    1.6604 H   0  0  0  0  0  0  0  0  0  0  0  0
   -1.5005   -1.3703    3.0214 H   0  0  0  0  0  0  0  0  0  0  0  0
   -4.1442   -3.6038    1.0106 H   0  0  0  0  0  0  0  0  0  0  0  0
   -4.1649   -2.1643    2.1219 H   0  0  0  0  0  0  0  0  0  0  0  0
   -5.1508   -3.6284    2.5138 H   0  0  0  0  0  0  0  0  0  0  0  0
   -1.3561   -4.9945    0.7001 H   0  0  0  0  0  0  0  0  0  0  0  0
    0.4333   -4.0437   -0.6763 H   0  0  0  0  0  0  0  0  0  0  0  0
   -2.3110   -4.2716   -3.4696 H   0  0  0  0  0  0  0  0  0  0  0  0
   -4.7555   -4.4506   -3.4926 H   0  0  0  0  0  0  0  0  0  0  0  0
   -6.3130   -3.7067   -7.2950 H   0  0  0  0  0  0  0  0  0  0  0  0
   -7.8675   -4.4110   -6.7130 H   0  0  0  0  0  0  0  0  0  0  0  0
   -6.3007   -5.1333   -6.1672 H   0  0  0  0  0  0  0  0  0  0  0  0
   -4.9745   -1.2936   -6.4067 H   0  0  0  0  0  0  0  0  0  0  0  0
   -2.5290   -1.0882   -6.3869 H   0  0  0  0  0  0  0  0  0  0  0  0
   -1.4935   -3.7924   -7.4178 H   0  0  0  0  0  0  0  0  0  0  0  0
   -0.2798   -3.6429   -9.5503 H   0  0  0  0  0  0  0  0  0  0  0  0
    3.8103   -3.4606   -9.0599 H   0  0  0  0  0  0  0  0  0  0  0  0
    2.5300   -4.5645   -9.7197 H   0  0  0  0  0  0  0  0  0  0  0  0
    3.8170   -3.9238  -10.8075 H   0  0  0  0  0  0  0  0  0  0  0  0
    2.5823   -0.9771   -7.7508 H   0  0  0  0  0  0  0  0  0  0  0  0
    1.3698   -1.1087   -5.6170 H   0  0  0  0  0  0  0  0  0  0  0  0
    3.9283   -7.8198   -5.3785 H   0  0  0  0  0  0  0  0  0  0  0  0
    5.9184   -7.3535   -6.7623 H   0  0  0  0  0  0  0  0  0  0  0  0
   10.2131   -6.7339   -6.0570 H   0  0  0  0  0  0  0  0  0  0  0  0
    9.2572   -6.5742   -4.5329 H   0  0  0  0  0  0  0  0  0  0  0  0
    8.7698   -7.7912   -5.7927 H   0  0  0  0  0  0  0  0  0  0  0  0
    7.2489   -4.4488   -3.8730 H   0  0  0  0  0  0  0  0  0  0  0  0
    5.2750   -4.9427   -2.4698 H   0  0  0  0  0  0  0  0  0  0  0  0
    1.9428   -5.8144   -0.8505 H   0  0  0  0  0  0  0  0  0  0  0  0
    2.1794   -6.6403    1.4427 H   0  0  0  0  0  0  0  0  0  0  0  0
    5.5003   -7.6548    4.0578 H   0  0  0  0  0  0  0  0  0  0  0  0
    4.7610   -6.4624    2.9210 H   0  0  0  0  0  0  0  0  0  0  0  0
    6.0257   -7.6235    2.3306 H   0  0  0  0  0  0  0  0  0  0  0  0
    5.1274   -9.4798    0.1179 H   0  0  0  0  0  0  0  0  0  0  0  0
    4.9080   -8.6408   -2.1837 H   0  0  0  0  0  0  0  0  0  0  0  0
    1.4314   -9.0145   -5.0200 H   0  0  0  0  0  0  0  0  0  0  0  0
   -0.0985   -7.9178    0.6489 H   0  0  0  0  0  0  0  0  0  0  0  0
   -0.0173   -9.5311    1.3000 H   0  0  0  0  0  0  0  0  0  0  0  0
   -2.4497  -10.2611   -1.0555 H   0  0  0  0  0  0  0  0  0  0  0  0
   -4.8742  -10.1525   -0.7486 H   0  0  0  0  0  0  0  0  0  0  0  0
   -5.8586   -8.7800    1.0646 H   0  0  0  0  0  0  0  0  0  0  0  0
   -4.3803   -7.5089    2.5988 H   0  0  0  0  0  0  0  0  0  0  0  0
   -1.9320   -7.5977    2.3175 H   0  0  0  0  0  0  0  0  0  0  0  0
  1  2  2  3
  2  3  1  0
  3  4  2  0
  3  5  1  0
  5  6  2  0
  6  7  1  0
  7  8  2  0
  8  9  1  0
  9 10  2  0
 10 11  1  0
 11 12  2  3
 12 13  1  0
 13 14  3  0
 12 15  1  0
 15 16  3  0
  8 17  1  0
 17 18  1  0
 18 19  1  0
 19 20  2  0
 20 21  1  0
 21 22  1  0
 21 23  1  0
  1 24  1  0
 24 25  2  0
 25 26  1  0
 26 27  1  0
 27 28  2  0
 28 29  1  0
 29 30  2  0
 30 31  1  0
 31 32  1  0
 30 33  1  0
 33 34  2  0
 26 35  1  0
 35 36  2  0
 36 37  1  0
 37 38  2  0
 38 39  1  0
 39 40  1  0
 38 41  1  0
 41 42  2  0
 25 43  1  0
 43 44  1  0
 44 45  1  0
 45 46  2  0
 46 47  1  0
 47 48  1  0
 48 49  2  0
 49 50  1  0
 50 51  2  0
 51 52  1  0
 52 53  1  0
 51 54  1  0
 54 55  2  0
 47 56  1  0
 56 57  2  0
 57 58  1  0
 58 59  2  0
 59 60  1  0
 60 61  1  0
 59 62  1  0
 62 63  2  0
 46 64  1  0
 64 65  1  0
 45 66  1  0
 66 67  2  0
 67 68  1  0
 68 69  1  0
 69 70  2  0
 70 71  1  0
 71 72  2  0
 72 73  1  0
 73 74  1  0
 72 75  1  0
 75 76  2  0
 68 77  1  0
 77 78  2  0
 78 79  1  0
 79 80  2  0
 80 81  1  0
 81 82  1  0
 80 83  1  0
 83 84  2  0
 67 85  1  0
 85 86  1  0
 86 87  1  0
 87 88  2  0
 88 89  1  0
 89 90  1  0
 90 91  2  0
 91 92  1  0
 92 93  2  0
 93 94  1  0
 94 95  1  0
 93 96  1  0
 96 97  2  0
 89 98  1  0
 98 99  2  0
 99100  1  0
100101  2  0
101102  1  0
102103  1  0
101104  1  0
104105  2  0
 88106  1  0
106107  1  0
 87108  1  0
108109  2  0
109110  1  0
110111  1  0
111112  2  0
112113  1  0
113114  2  0
114115  1  0
115116  1  0
114117  1  0
117118  2  0
110119  1  0
119120  2  0
120121  1  0
121122  2  0
122123  1  0
123124  1  0
122125  1  0
125126  2  0
109127  1  0
127128  1  0
128129  1  0
129130  2  0
130131  1  0
131132  1  0
132133  2  0
133134  1  0
134135  2  0
135136  1  0
136137  1  0
135138  1  0
138139  2  0
131140  1  0
140141  2  0
141142  1  0
142143  2  0
143144  1  0
144145  1  0
143146  1  0
146147  2  0
130148  1  0
148149  1  0
129150  1  0
150151  2  3
151152  1  0
152153  1  0
153154  2  3
154155  1  0
155156  3  0
154157  1  0
157158  3  0
153159  1  0
159160  1  0
160161  1  0
161162  2  0
162163  1  0
163164  2  0
164165  1  0
165166  2  0
159167  1  0
167168  2  0
 11  2  1  0
 23 17  1  0
 65 24  1  0
107 66  1  0
149108  1  0
167151  1  0
 10  5  1  0
 22 18  1  0
 34 27  1  0
 42 35  1  0
 64 43  2  0
 76 69  1  0
 84 77  1  0
106 85  2  0
118111  1  0
126119  1  0
148127  2  0
166161  1  0
 23  7  1  0
 55 48  1  0
 63 56  1  0
 97 90  1  0
105 98  1  0
139132  1  0
147140  1  0
  1169  1  0
  6170  1  0
  9171  1  0
 17172  1  0
 18173  1  0
 19174  1  0
 20175  1  0
 21176  1  0
 22177  1  0
 22178  1  0
 23179  1  0
 28180  1  0
 29181  1  0
 32182  1  0
 32183  1  0
 32184  1  0
 33185  1  0
 34186  1  0
 36187  1  0
 37188  1  0
 40189  1  0
 40190  1  0
 40191  1  0
 41192  1  0
 42193  1  0
 49194  1  0
 50195  1  0
 53196  1  0
 53197  1  0
 53198  1  0
 54199  1  0
 55200  1  0
 57201  1  0
 58202  1  0
 61203  1  0
 61204  1  0
 61205  1  0
 62206  1  0
 63207  1  0
 70208  1  0
 71209  1  0
 74210  1  0
 74211  1  0
 74212  1  0
 75213  1  0
 76214  1  0
 78215  1  0
 79216  1  0
 82217  1  0
 82218  1  0
 82219  1  0
 83220  1  0
 84221  1  0
 91222  1  0
 92223  1  0
 95224  1  0
 95225  1  0
 95226  1  0
 96227  1  0
 97228  1  0
 99229  1  0
100230  1  0
103231  1  0
103232  1  0
103233  1  0
104234  1  0
105235  1  0
112236  1  0
113237  1  0
116238  1  0
116239  1  0
116240  1  0
117241  1  0
118242  1  0
120243  1  0
121244  1  0
124245  1  0
124246  1  0
124247  1  0
125248  1  0
126249  1  0
133250  1  0
134251  1  0
137252  1  0
137253  1  0
137254  1  0
138255  1  0
139256  1  0
141257  1  0
142258  1  0
145259  1  0
145260  1  0
145261  1  0
146262  1  0
147263  1  0
150264  1  0
160265  1  0
160266  1  0
162267  1  0
163268  1  0
164269  1  0
165270  1  0
166271  1  0
M  END

