
     RDKit          3D

213235  0  0  0  0  0  0  0  0999 V2000
    2.4641    5.0115   -6.1114 C   0  0  0  0  0  0  0  0  0  0  0  0
    1.1277    4.4507   -6.1180 C   0  0  0  0  0  0  0  0  0  0  0  0
    0.8630    3.1589   -5.6044 C   0  0  0  0  0  0  0  0  0  0  0  0
    1.5890    2.1694   -5.3795 O   0  0  0  0  0  0  0  0  0  0  0  0
   -0.5764    3.0998   -5.3375 C   0  0  0  0  0  0  0  0  0  0  0  0
   -1.3143    2.0025   -4.9586 C   0  0  0  0  0  0  0  0  0  0  0  0
   -2.7057    2.1212   -4.9133 C   0  0  0  0  0  0  0  0  0  0  0  0
   -3.2825    3.2958   -5.2325 C   0  0  0  0  0  0  0  0  0  0  0  0
   -2.4848    4.4163   -5.6143 C   0  0  0  0  0  0  0  0  0  0  0  0
   -1.1529    4.2709   -5.6565 C   0  0  0  0  0  0  0  0  0  0  0  0
    0.0380    5.2781   -6.2309 C   0  0  0  0  0  0  0  0  0  0  0  0
   -0.6902    6.1102   -6.9868 C   0  0  0  0  0  0  0  0  0  0  0  0
   -0.3934    6.2890   -8.3739 C   0  0  0  0  0  0  0  0  0  0  0  0
   -0.1446    6.4317   -9.5178 N   0  0  0  0  0  0  0  0  0  0  0  0
   -1.4588    6.8776   -6.3177 C   0  0  0  0  0  0  0  0  0  0  0  0
   -2.3484    7.7655   -5.5129 N   0  0  0  0  0  0  0  0  0  0  0  0
   -4.6122    2.6577   -5.0347 C   0  0  0  0  0  0  0  0  0  0  0  0
   -5.2851    2.2204   -6.2880 C   0  0  0  0  0  0  0  0  0  0  0  0
   -6.3213    1.2032   -5.9548 C   0  0  0  0  0  0  0  0  0  0  0  0
   -5.7034    0.0667   -5.5816 C   0  0  0  0  0  0  0  0  0  0  0  0
   -4.2749    0.3290   -5.6467 C   0  0  0  0  0  0  0  0  0  0  0  0
   -4.2334    1.2720   -6.8751 C   0  0  0  0  0  0  0  0  0  0  0  0
   -3.9296    1.3445   -4.5956 C   0  0  0  0  0  0  0  0  0  0  0  0
    3.3615    4.0172   -5.4525 C   0  0  0  0  0  0  0  0  0  0  0  0
    4.1087    2.9680   -5.8795 C   0  0  0  0  0  0  0  0  0  0  0  0
    4.7578    3.1578   -7.1854 N   0  0  0  0  0  0  0  0  0  0  0  0
    5.4033    2.3599   -8.0690 C   0  0  0  0  0  0  0  0  0  0  0  0
    6.4497    1.5725   -7.5202 C   0  0  0  0  0  0  0  0  0  0  0  0
    7.2437    0.7414   -8.2482 C   0  0  0  0  0  0  0  0  0  0  0  0
    7.0352    0.6424   -9.6111 C   0  0  0  0  0  0  0  0  0  0  0  0
    8.0953   -0.4012  -10.6131 S   0  0  0  0  0  0  0  0  0  0  0  0
    9.5564    0.5733  -11.0809 C   0  0  0  0  0  0  0  0  0  0  0  0
    6.0294    1.3876  -10.1696 C   0  0  0  0  0  0  0  0  0  0  0  0
    5.2103    2.2389   -9.4258 C   0  0  0  0  0  0  0  0  0  0  0  0
    5.0226    4.6208   -7.4164 C   0  0  0  0  0  0  0  0  0  0  0  0
    4.7385    5.3457   -8.4920 C   0  0  0  0  0  0  0  0  0  0  0  0
    5.0352    6.7422   -8.5197 C   0  0  0  0  0  0  0  0  0  0  0  0
    5.6145    7.3967   -7.4775 C   0  0  0  0  0  0  0  0  0  0  0  0
    5.9208    9.1472   -7.3529 S   0  0  0  0  0  0  0  0  0  0  0  0
    4.5399    9.8303   -6.3668 C   0  0  0  0  0  0  0  0  0  0  0  0
    5.9015    6.5937   -6.3566 C   0  0  0  0  0  0  0  0  0  0  0  0
    5.6169    5.2573   -6.3318 C   0  0  0  0  0  0  0  0  0  0  0  0
    4.4753    2.0558   -4.9323 C   0  0  0  0  0  0  0  0  0  0  0  0
    4.8698    0.3036   -4.8812 S   0  0  0  0  0  0  0  0  0  0  0  0
    4.5795   -0.0288   -3.2810 C   0  0  0  0  0  0  0  0  0  0  0  0
    4.2024    1.2324   -2.7189 C   0  0  0  0  0  0  0  0  0  0  0  0
    4.0879    1.4185   -1.3195 N   0  0  0  0  0  0  0  0  0  0  0  0
    5.2860    1.2164   -0.5211 C   0  0  0  0  0  0  0  0  0  0  0  0
    5.4071    0.6300    0.6721 C   0  0  0  0  0  0  0  0  0  0  0  0
    6.6336    0.4319    1.2965 C   0  0  0  0  0  0  0  0  0  0  0  0
    7.7844    0.8693    0.6599 C   0  0  0  0  0  0  0  0  0  0  0  0
    9.3474    0.6109    1.4973 S   0  0  0  0  0  0  0  0  0  0  0  0
   10.7473    1.2116    0.5003 C   0  0  0  0  0  0  0  0  0  0  0  0
    7.6855    1.4695   -0.5525 C   0  0  0  0  0  0  0  0  0  0  0  0
    6.4593    1.6559   -1.1712 C   0  0  0  0  0  0  0  0  0  0  0  0
    3.0346    1.9863   -0.6030 C   0  0  0  0  0  0  0  0  0  0  0  0
    2.3938    1.2265    0.3653 C   0  0  0  0  0  0  0  0  0  0  0  0
    1.5234    1.7431    1.2734 C   0  0  0  0  0  0  0  0  0  0  0  0
    1.2567    3.0817    1.2542 C   0  0  0  0  0  0  0  0  0  0  0  0
    0.1847    3.8270    2.4808 S   0  0  0  0  0  0  0  0  0  0  0  0
   -1.5549    3.7881    1.8599 C   0  0  0  0  0  0  0  0  0  0  0  0
    1.8406    3.9019    0.3402 C   0  0  0  0  0  0  0  0  0  0  0  0
    2.7372    3.3145   -0.5889 C   0  0  0  0  0  0  0  0  0  0  0  0
    4.1718    2.2126   -3.6769 C   0  0  0  0  0  0  0  0  0  0  0  0
    3.2578    3.7363   -3.7410 S   0  0  0  0  0  0  0  0  0  0  0  0
    4.1908   -1.2903   -2.4972 C   0  0  0  0  0  0  0  0  0  0  0  0
    3.0584   -2.0011   -3.0045 C   0  0  0  0  0  0  0  0  0  0  0  0
    2.3600   -2.7056   -2.0955 C   0  0  0  0  0  0  0  0  0  0  0  0
    0.9832   -3.2556   -2.3497 C   0  0  0  0  0  0  0  0  0  0  0  0
    0.0079   -2.2445   -2.2546 C   0  0  0  0  0  0  0  0  0  0  0  0
   -1.3333   -2.4540   -2.3877 C   0  0  0  0  0  0  0  0  0  0  0  0
   -1.7151   -3.7671   -2.6397 C   0  0  0  0  0  0  0  0  0  0  0  0
   -0.7823   -4.7657   -2.7407 C   0  0  0  0  0  0  0  0  0  0  0  0
   -1.2334   -6.0268   -2.9785 O   0  0  0  0  0  0  0  0  0  0  0  0
   -2.5678   -6.3608   -3.1330 C   0  0  0  0  0  0  0  0  0  0  0  0
   -3.4564   -6.0950   -1.9453 C   0  0  0  0  0  0  0  0  0  0  0  0
    0.5934   -4.4912   -2.5866 C   0  0  0  0  0  0  0  0  0  0  0  0
   -2.2499   -1.4071   -2.2584 O   0  0  0  0  0  0  0  0  0  0  0  0
   -1.7590   -0.0978   -1.9332 C   0  0  0  0  0  0  0  0  0  0  0  0
   -1.1006   -0.0496   -0.5687 C   0  0  0  0  0  0  0  0  0  0  0  0
    2.8109   -2.6926   -0.7921 C   0  0  0  0  0  0  0  0  0  0  0  0
    4.1718   -1.7120   -0.8956 S   0  0  0  0  0  0  0  0  0  0  0  0
    1.9937   -3.0878    0.3957 C   0  0  0  0  0  0  0  0  0  0  0  0
    1.8988   -2.3525    1.5728 C   0  0  0  0  0  0  0  0  0  0  0  0
    0.8765   -2.6023    2.4028 C   0  0  0  0  0  0  0  0  0  0  0  0
    0.4380   -1.8469    3.5059 C   0  0  0  0  0  0  0  0  0  0  0  0
    1.3009   -0.9554    4.2956 C   0  0  0  0  0  0  0  0  0  0  0  0
    2.6363   -0.8151    4.3721 C   0  0  0  0  0  0  0  0  0  0  0  0
    3.1908    0.0782    5.2178 C   0  0  0  0  0  0  0  0  0  0  0  0
    2.5323    0.8741    6.0240 C   0  0  0  0  0  0  0  0  0  0  0  0
    2.8971    2.0737    7.2527 S   0  0  0  0  0  0  0  0  0  0  0  0
    3.1305    3.7277    6.5645 C   0  0  0  0  0  0  0  0  0  0  0  0
    1.7806    4.1706    6.0045 C   0  0  0  0  0  0  0  0  0  0  0  0
    0.6675    0.3084    5.5492 Se  0  0  0  0  0  2  0  0  0  0  0  0
   -0.7883   -2.1061    4.1042 C   0  0  0  0  0  0  0  0  0  0  0  0
   -1.6427   -3.0925    3.7193 C   0  0  0  0  0  0  0  0  0  0  0  0
   -1.1889   -3.8656    2.6270 C   0  0  0  0  0  0  0  0  0  0  0  0
   -1.8558   -5.0803    2.2851 C   0  0  0  0  0  0  0  0  0  0  0  0
   -1.9327   -6.0029    1.3440 C   0  0  0  0  0  0  0  0  0  0  0  0
   -2.6381   -7.1286    1.4230 C   0  0  0  0  0  0  0  0  0  0  0  0
   -3.3736   -7.4613    2.5045 C   0  0  0  0  0  0  0  0  0  0  0  0
   -4.4139   -8.8314    2.9607 S   0  0  0  0  0  0  0  0  0  0  0  0
   -6.1594   -8.4566    2.6254 C   0  0  0  0  0  0  0  0  0  0  0  0
   -6.5583   -7.3132    3.5555 C   0  0  0  0  0  0  0  0  0  0  0  0
   -3.0459   -5.9509    3.6390 Se  0  0  0  0  0  2  0  0  0  0  0  0
    0.0134   -3.5880    2.0319 C   0  0  0  0  0  0  0  0  0  0  0  0
    0.6656   -4.1287    0.5222 S   0  0  0  0  0  0  0  0  0  0  0  0
   -2.8530   -3.1177    4.2929 C   0  0  0  0  0  0  0  0  0  0  0  0
   -3.1587   -2.1205    5.2383 C   0  0  0  0  0  0  0  0  0  0  0  0
   -1.7218   -1.2278    5.2754 S   0  0  0  0  0  0  0  0  0  0  0  0
   -4.4886   -2.0099    5.8715 C   0  0  0  0  0  0  0  0  0  0  0  0
   -4.6935   -1.6953    7.1038 C   0  0  0  0  0  0  0  0  0  0  0  0
   -3.6678   -1.3769    8.1265 C   0  0  0  0  0  0  0  0  0  0  0  0
   -2.4363   -1.2967    7.9089 O   0  0  0  0  0  0  0  0  0  0  0  0
   -4.3291   -1.1763    9.4217 C   0  0  0  0  0  0  0  0  0  0  0  0
   -3.8271   -0.8483   10.6496 C   0  0  0  0  0  0  0  0  0  0  0  0
   -4.6449   -0.7020   11.7631 C   0  0  0  0  0  0  0  0  0  0  0  0
   -5.9949   -0.8850   11.6339 C   0  0  0  0  0  0  0  0  0  0  0  0
   -6.5074   -1.2047   10.3759 C   0  0  0  0  0  0  0  0  0  0  0  0
   -5.6903   -1.3554    9.2735 C   0  0  0  0  0  0  0  0  0  0  0  0
   -5.9673   -1.6771    7.8549 C   0  0  0  0  0  0  0  0  0  0  0  0
   -7.1891   -1.8159    7.3184 C   0  0  0  0  0  0  0  0  0  0  0  0
   -8.2787   -1.8008    8.1403 C   0  0  0  0  0  0  0  0  0  0  0  0
   -9.3357   -1.7700    8.9522 N   0  0  0  0  0  0  0  0  0  0  0  0
   -7.4760   -1.9652    5.9263 C   0  0  0  0  0  0  0  0  0  0  0  0
   -7.7239   -2.0720    4.7206 N   0  0  0  0  0  0  0  0  0  0  0  0
   -6.2722   -0.6161   13.0919 C   0  0  0  0  0  0  0  0  0  0  0  0
   -6.5218   -1.8534   13.9280 C   0  0  0  0  0  0  0  0  0  0  0  0
   -6.1932   -1.4773   15.3389 C   0  0  0  0  0  0  0  0  0  0  0  0
   -4.8717   -1.3577   15.4510 C   0  0  0  0  0  0  0  0  0  0  0  0
   -4.2922   -1.5663   14.0941 C   0  0  0  0  0  0  0  0  0  0  0  0
   -5.2470   -2.6427   13.5761 C   0  0  0  0  0  0  0  0  0  0  0  0
   -4.7853   -0.4161   13.2242 C   0  0  0  0  0  0  0  0  0  0  0  0
    2.6716    5.9035   -6.4822 H   0  0  0  0  0  0  0  0  0  0  0  0
   -0.8385    1.0739   -4.7322 H   0  0  0  0  0  0  0  0  0  0  0  0
   -3.0352    5.2984   -5.8581 H   0  0  0  0  0  0  0  0  0  0  0  0
   -5.2097    3.0811   -4.2371 H   0  0  0  0  0  0  0  0  0  0  0  0
   -5.6197    2.9643   -7.0009 H   0  0  0  0  0  0  0  0  0  0  0  0
   -7.3771    1.2925   -5.9927 H   0  0  0  0  0  0  0  0  0  0  0  0
   -6.1731   -0.8651   -5.2870 H   0  0  0  0  0  0  0  0  0  0  0  0
   -3.6371   -0.5236   -5.7294 H   0  0  0  0  0  0  0  0  0  0  0  0
   -4.5827    0.7301   -7.7586 H   0  0  0  0  0  0  0  0  0  0  0  0
   -3.2710    1.7527   -6.9741 H   0  0  0  0  0  0  0  0  0  0  0  0
   -4.1374    1.0606   -3.5774 H   0  0  0  0  0  0  0  0  0  0  0  0
    6.6757    1.7128   -6.4598 H   0  0  0  0  0  0  0  0  0  0  0  0
    8.0148    0.1696   -7.7215 H   0  0  0  0  0  0  0  0  0  0  0  0
   10.3895    0.3911  -10.3443 H   0  0  0  0  0  0  0  0  0  0  0  0
    9.9080    0.2256  -12.0664 H   0  0  0  0  0  0  0  0  0  0  0  0
    9.2931    1.6189  -11.1553 H   0  0  0  0  0  0  0  0  0  0  0  0
    5.8231    1.3413  -11.2608 H   0  0  0  0  0  0  0  0  0  0  0  0
    4.4248    2.7948   -9.8536 H   0  0  0  0  0  0  0  0  0  0  0  0
    4.2782    4.9234   -9.3428 H   0  0  0  0  0  0  0  0  0  0  0  0
    4.8025    7.3298   -9.3751 H   0  0  0  0  0  0  0  0  0  0  0  0
    3.6493    9.9542   -6.9880 H   0  0  0  0  0  0  0  0  0  0  0  0
    4.3843    9.1013   -5.5531 H   0  0  0  0  0  0  0  0  0  0  0  0
    4.8311   10.8204   -5.9415 H   0  0  0  0  0  0  0  0  0  0  0  0
    6.3461    7.1286   -5.5272 H   0  0  0  0  0  0  0  0  0  0  0  0
    5.8717    4.7076   -5.4350 H   0  0  0  0  0  0  0  0  0  0  0  0
    4.5053    0.2948    1.1890 H   0  0  0  0  0  0  0  0  0  0  0  0
    6.6818   -0.0518    2.2473 H   0  0  0  0  0  0  0  0  0  0  0  0
   11.6697    0.7727    0.8920 H   0  0  0  0  0  0  0  0  0  0  0  0
   10.6665    0.8671   -0.5423 H   0  0  0  0  0  0  0  0  0  0  0  0
   10.7884    2.3361    0.6202 H   0  0  0  0  0  0  0  0  0  0  0  0
    8.5705    1.8042   -1.0721 H   0  0  0  0  0  0  0  0  0  0  0  0
    6.4309    2.1314   -2.1334 H   0  0  0  0  0  0  0  0  0  0  0  0
    2.5463    0.1339    0.3726 H   0  0  0  0  0  0  0  0  0  0  0  0
    1.0434    1.0631    1.9980 H   0  0  0  0  0  0  0  0  0  0  0  0
   -1.7642    2.7812    1.4651 H   0  0  0  0  0  0  0  0  0  0  0  0
   -2.1682    4.0087    2.7769 H   0  0  0  0  0  0  0  0  0  0  0  0
   -1.6240    4.6052    1.1356 H   0  0  0  0  0  0  0  0  0  0  0  0
    1.6720    4.9720    0.2647 H   0  0  0  0  0  0  0  0  0  0  0  0
    3.1986    4.0551   -1.2343 H   0  0  0  0  0  0  0  0  0  0  0  0
    2.7991   -1.9795   -4.0531 H   0  0  0  0  0  0  0  0  0  0  0  0
    0.3607   -1.2258   -2.0985 H   0  0  0  0  0  0  0  0  0  0  0  0
   -2.7953   -3.9178   -2.7654 H   0  0  0  0  0  0  0  0  0  0  0  0
   -2.6459   -7.4445   -3.3969 H   0  0  0  0  0  0  0  0  0  0  0  0
   -3.0264   -5.8258   -3.9998 H   0  0  0  0  0  0  0  0  0  0  0  0
   -3.0336   -5.4597   -1.1859 H   0  0  0  0  0  0  0  0  0  0  0  0
   -4.4538   -5.6371   -2.2468 H   0  0  0  0  0  0  0  0  0  0  0  0
   -3.7888   -7.0619   -1.4838 H   0  0  0  0  0  0  0  0  0  0  0  0
    1.3298   -5.2737   -2.6606 H   0  0  0  0  0  0  0  0  0  0  0  0
   -2.5542    0.6337   -2.0382 H   0  0  0  0  0  0  0  0  0  0  0  0
   -0.9926    0.1260   -2.7180 H   0  0  0  0  0  0  0  0  0  0  0  0
   -0.1742    0.5214   -0.6631 H   0  0  0  0  0  0  0  0  0  0  0  0
   -0.8923   -1.0592   -0.1406 H   0  0  0  0  0  0  0  0  0  0  0  0
   -1.7833    0.4793    0.1591 H   0  0  0  0  0  0  0  0  0  0  0  0
    2.6605   -1.5868    1.8007 H   0  0  0  0  0  0  0  0  0  0  0  0
    3.2911   -1.4884    3.7658 H   0  0  0  0  0  0  0  0  0  0  0  0
    4.3414    0.1615    5.2571 H   0  0  0  0  0  0  0  0  0  0  0  0
    3.8953    3.7750    5.8027 H   0  0  0  0  0  0  0  0  0  0  0  0
    3.4046    4.4193    7.3841 H   0  0  0  0  0  0  0  0  0  0  0  0
    1.3522    3.3131    5.4273 H   0  0  0  0  0  0  0  0  0  0  0  0
    1.0957    4.2900    6.8982 H   0  0  0  0  0  0  0  0  0  0  0  0
    1.7968    5.1276    5.4976 H   0  0  0  0  0  0  0  0  0  0  0  0
   -1.3142   -5.8221    0.3883 H   0  0  0  0  0  0  0  0  0  0  0  0
   -2.6626   -7.8827    0.5666 H   0  0  0  0  0  0  0  0  0  0  0  0
   -6.7798   -9.3654    2.8881 H   0  0  0  0  0  0  0  0  0  0  0  0
   -6.3539   -8.1859    1.6096 H   0  0  0  0  0  0  0  0  0  0  0  0
   -7.6750   -7.1728    3.5326 H   0  0  0  0  0  0  0  0  0  0  0  0
   -6.2307   -7.5579    4.5722 H   0  0  0  0  0  0  0  0  0  0  0  0
   -6.0828   -6.4057    3.1895 H   0  0  0  0  0  0  0  0  0  0  0  0
   -3.6418   -3.8256    4.0635 H   0  0  0  0  0  0  0  0  0  0  0  0
   -5.2882   -2.2023    5.1933 H   0  0  0  0  0  0  0  0  0  0  0  0
   -2.7612   -0.7099   10.7328 H   0  0  0  0  0  0  0  0  0  0  0  0
   -7.5580   -1.3486   10.3337 H   0  0  0  0  0  0  0  0  0  0  0  0
   -6.9338    0.2340   13.2701 H   0  0  0  0  0  0  0  0  0  0  0  0
   -7.4397   -2.3699   13.7836 H   0  0  0  0  0  0  0  0  0  0  0  0
   -6.9274   -1.3367   16.1116 H   0  0  0  0  0  0  0  0  0  0  0  0
   -4.2763   -1.1786   16.3143 H   0  0  0  0  0  0  0  0  0  0  0  0
   -3.2512   -1.8058   14.0477 H   0  0  0  0  0  0  0  0  0  0  0  0
   -5.1684   -2.7373   12.4856 H   0  0  0  0  0  0  0  0  0  0  0  0
   -5.1311   -3.5616   14.1690 H   0  0  0  0  0  0  0  0  0  0  0  0
   -4.3786    0.5453   13.5146 H   0  0  0  0  0  0  0  0  0  0  0  0
  1  2  2  3
  2  3  1  0
  3  4  2  0
  3  5  1  0
  5  6  2  0
  6  7  1  0
  7  8  2  0
  8  9  1  0
  9 10  2  0
 10 11  1  0
 11 12  2  3
 12 13  1  0
 13 14  3  0
 12 15  1  0
 15 16  3  0
  8 17  1  0
 17 18  1  0
 18 19  1  0
 19 20  2  0
 20 21  1  0
 21 22  1  0
 21 23  1  0
  1 24  1  0
 24 25  2  0
 25 26  1  0
 26 27  1  0
 27 28  2  0
 28 29  1  0
 29 30  2  0
 30 31  1  0
 31 32  1  0
 30 33  1  0
 33 34  2  0
 26 35  1  0
 35 36  2  0
 36 37  1  0
 37 38  2  0
 38 39  1  0
 39 40  1  0
 38 41  1  0
 41 42  2  0
 25 43  1  0
 43 44  1  0
 44 45  1  0
 45 46  2  0
 46 47  1  0
 47 48  1  0
 48 49  2  0
 49 50  1  0
 50 51  2  0
 51 52  1  0
 52 53  1  0
 51 54  1  0
 54 55  2  0
 47 56  1  0
 56 57  2  0
 57 58  1  0
 58 59  2  0
 59 60  1  0
 60 61  1  0
 59 62  1  0
 62 63  2  0
 46 64  1  0
 64 65  1  0
 45 66  1  0
 66 67  2  0
 67 68  1  0
 68 69  1  0
 69 70  2  0
 70 71  1  0
 71 72  2  0
 72 73  1  0
 73 74  1  0
 74 75  1  0
 75 76  1  0
 73 77  2  0
 71 78  1  0
 78 79  1  0
 79 80  1  0
 68 81  2  0
 81 82  1  0
 81 83  1  0
 83 84  2  0
 84 85  1  0
 85 86  2  0
 86 87  1  0
 87 88  2  0
 88 89  1  0
 89 90  2  0
 90 91  1  0
 91 92  1  0
 92 93  1  0
 90 94  1  0
 86 95  1  0
 95 96  2  0
 96 97  1  0
 97 98  1  0
 98 99  2  0
 99100  1  0
100101  2  0
101102  1  0
102103  1  0
103104  1  0
101105  1  0
 97106  2  0
106107  1  0
 96108  1  0
108109  2  0
109110  1  0
109111  1  0
111112  2  3
112113  1  0
113114  2  0
113115  1  0
115116  2  0
116117  1  0
117118  2  0
118119  1  0
119120  2  0
120121  1  0
121122  2  3
122123  1  0
123124  3  0
122125  1  0
125126  3  0
118127  1  0
127128  1  0
128129  1  0
129130  2  0
130131  1  0
131132  1  0
131133  1  0
 11  2  1  0
 23 17  1  0
 65 24  1  0
 82 66  1  0
107 83  1  0
121112  1  0
133127  1  0
 10  5  1  0
 22 18  1  0
 34 27  1  0
 42 35  1  0
 64 43  2  0
 77 69  1  0
106 85  1  0
120115  1  0
132128  1  0
 23  7  1  0
 55 48  1  0
 63 56  1  0
 94 87  1  0
110 95  1  0
133117  1  0
105 98  1  0
  1134  1  0
  6135  1  0
  9136  1  0
 17137  1  0
 18138  1  0
 19139  1  0
 20140  1  0
 21141  1  0
 22142  1  0
 22143  1  0
 23144  1  0
 28145  1  0
 29146  1  0
 32147  1  0
 32148  1  0
 32149  1  0
 33150  1  0
 34151  1  0
 36152  1  0
 37153  1  0
 40154  1  0
 40155  1  0
 40156  1  0
 41157  1  0
 42158  1  0
 49159  1  0
 50160  1  0
 53161  1  0
 53162  1  0
 53163  1  0
 54164  1  0
 55165  1  0
 57166  1  0
 58167  1  0
 61168  1  0
 61169  1  0
 61170  1  0
 62171  1  0
 63172  1  0
 67173  1  0
 70174  1  0
 72175  1  0
 75176  1  0
 75177  1  0
 76178  1  0
 76179  1  0
 76180  1  0
 77181  1  0
 79182  1  0
 79183  1  0
 80184  1  0
 80185  1  0
 80186  1  0
 84187  1  0
 88188  1  0
 89189  1  0
 92190  1  0
 92191  1  0
 93192  1  0
 93193  1  0
 93194  1  0
 99195  1  0
100196  1  0
103197  1  0
103198  1  0
104199  1  0
104200  1  0
104201  1  0
108202  1  0
111203  1  0
116204  1  0
119205  1  0
127206  1  0
128207  1  0
129208  1  0
130209  1  0
131210  1  0
132211  1  0
132212  1  0
133213  1  0
M  END

