
     RDKit          3D

206227  0  0  0  0  0  0  0  0999 V2000
   -3.1647    7.6989   -1.0127 C   0  0  0  0  0  0  0  0  0  0  0  0
   -2.7549    8.7115   -0.2376 C   0  0  0  0  0  0  0  0  0  0  0  0
   -2.3038    9.9920   -0.7917 C   0  0  0  0  0  0  0  0  0  0  0  0
   -2.5131   10.4104   -1.9596 O   0  0  0  0  0  0  0  0  0  0  0  0
   -1.4333   10.6264    0.1815 C   0  0  0  0  0  0  0  0  0  0  0  0
   -0.6865   11.8178    0.0097 C   0  0  0  0  0  0  0  0  0  0  0  0
    0.1450   12.1077    1.0728 C   0  0  0  0  0  0  0  0  0  0  0  0
    0.2692   11.2668    2.2294 C   0  0  0  0  0  0  0  0  0  0  0  0
   -0.4473   10.0899    2.3968 C   0  0  0  0  0  0  0  0  0  0  0  0
   -1.3497    9.8046    1.3380 C   0  0  0  0  0  0  0  0  0  0  0  0
   -2.2918    8.6611    1.1836 C   0  0  0  0  0  0  0  0  0  0  0  0
   -2.9155    8.0121    2.1966 C   0  0  0  0  0  0  0  0  0  0  0  0
   -2.5357    8.1954    3.5731 C   0  0  0  0  0  0  0  0  0  0  0  0
   -2.2474    8.3394    4.6827 N   0  0  0  0  0  0  0  0  0  0  0  0
   -4.1108    7.2410    1.9998 C   0  0  0  0  0  0  0  0  0  0  0  0
   -5.0842    6.6313    1.8593 N   0  0  0  0  0  0  0  0  0  0  0  0
    1.3110   12.1764    2.8013 C   0  0  0  0  0  0  0  0  0  0  0  0
    2.7868   11.6769    2.7305 C   0  0  0  0  0  0  0  0  0  0  0  0
    3.6471   12.8863    2.9858 C   0  0  0  0  0  0  0  0  0  0  0  0
    3.5225   13.6794    1.9158 C   0  0  0  0  0  0  0  0  0  0  0  0
    2.5895   12.9705    0.9642 C   0  0  0  0  0  0  0  0  0  0  0  0
    3.0259   11.5355    1.2345 C   0  0  0  0  0  0  0  0  0  0  0  0
    1.1787   13.0383    1.6234 C   0  0  0  0  0  0  0  0  0  0  0  0
   -3.0397    6.3272   -0.6112 C   0  0  0  0  0  0  0  0  0  0  0  0
   -2.8733    5.1827   -0.2759 C   0  0  0  0  0  0  0  0  0  0  0  0
   -2.5764    3.8431    0.1239 C   0  0  0  0  0  0  0  0  0  0  0  0
   -3.4508    2.7514    0.0953 C   0  0  0  0  0  0  0  0  0  0  0  0
   -4.8751    2.8600   -0.0251 N   0  0  0  0  0  0  0  0  0  0  0  0
   -5.4684    3.1082   -1.3169 C   0  0  0  0  0  0  0  0  0  0  0  0
   -6.5457    3.9982   -1.4486 C   0  0  0  0  0  0  0  0  0  0  0  0
   -7.1202    4.2344   -2.7058 C   0  0  0  0  0  0  0  0  0  0  0  0
   -6.6298    3.5817   -3.8370 C   0  0  0  0  0  0  0  0  0  0  0  0
   -7.4026    3.8367   -5.4395 S   0  0  0  0  0  0  0  0  0  0  0  0
   -6.4062    5.3035   -5.8451 C   0  0  0  0  0  0  0  0  0  0  0  0
   -5.5517    2.6948   -3.7176 C   0  0  0  0  0  0  0  0  0  0  0  0
   -4.9683    2.4646   -2.4661 C   0  0  0  0  0  0  0  0  0  0  0  0
   -5.6797    2.7653    1.1786 C   0  0  0  0  0  0  0  0  0  0  0  0
   -5.1995    3.2861    2.3993 C   0  0  0  0  0  0  0  0  0  0  0  0
   -5.9648    3.1930    3.5642 C   0  0  0  0  0  0  0  0  0  0  0  0
   -7.2106    2.5609    3.5343 C   0  0  0  0  0  0  0  0  0  0  0  0
   -8.2297    2.5021    5.0114 S   0  0  0  0  0  0  0  0  0  0  0  0
   -7.2801    1.1582    5.7904 C   0  0  0  0  0  0  0  0  0  0  0  0
   -7.6884    2.0207    2.3374 C   0  0  0  0  0  0  0  0  0  0  0  0
   -6.9313    2.1257    1.1631 C   0  0  0  0  0  0  0  0  0  0  0  0
   -2.8003    1.5877    0.4792 C   0  0  0  0  0  0  0  0  0  0  0  0
   -3.1582   -0.0334    0.3258 S   0  0  0  0  0  0  0  0  0  0  0  0
   -1.6037   -0.5933    0.7663 C   0  0  0  0  0  0  0  0  0  0  0  0
   -0.8012    0.5385    1.0714 C   0  0  0  0  0  0  0  0  0  0  0  0
    0.5564    0.5063    1.5900 N   0  0  0  0  0  0  0  0  0  0  0  0
    1.0750    1.6292    2.3280 C   0  0  0  0  0  0  0  0  0  0  0  0
    0.3611    2.1404    3.4317 C   0  0  0  0  0  0  0  0  0  0  0  0
    0.8618    3.2296    4.1468 C   0  0  0  0  0  0  0  0  0  0  0  0
    2.1022    3.7799    3.8117 C   0  0  0  0  0  0  0  0  0  0  0  0
    2.7154    5.2147    4.7002 S   0  0  0  0  0  0  0  0  0  0  0  0
    3.5544    4.2444    6.0003 C   0  0  0  0  0  0  0  0  0  0  0  0
    2.8338    3.2560    2.7324 C   0  0  0  0  0  0  0  0  0  0  0  0
    2.3201    2.1775    2.0032 C   0  0  0  0  0  0  0  0  0  0  0  0
    1.2535   -0.7289    1.7880 C   0  0  0  0  0  0  0  0  0  0  0  0
    1.1219   -1.4137    3.0069 C   0  0  0  0  0  0  0  0  0  0  0  0
    1.8786   -2.5634    3.2497 C   0  0  0  0  0  0  0  0  0  0  0  0
    2.7504   -3.0483    2.2727 C   0  0  0  0  0  0  0  0  0  0  0  0
    3.6205   -4.5940    2.5504 S   0  0  0  0  0  0  0  0  0  0  0  0
    4.9644   -3.8344    3.5066 C   0  0  0  0  0  0  0  0  0  0  0  0
    2.9039   -2.3557    1.0667 C   0  0  0  0  0  0  0  0  0  0  0  0
    2.1650   -1.1916    0.8308 C   0  0  0  0  0  0  0  0  0  0  0  0
   -1.5021    1.7271    0.8419 C   0  0  0  0  0  0  0  0  0  0  0  0
   -1.0402    3.3306    0.6441 S   0  0  0  0  0  0  0  0  0  0  0  0
   -1.0613   -1.7833    0.0980 C   0  0  0  0  0  0  0  0  0  0  0  0
   -1.0968   -3.1405    0.5067 C   0  0  0  0  0  0  0  0  0  0  0  0
   -1.9644   -3.6804    1.5380 N   0  0  0  0  0  0  0  0  0  0  0  0
   -3.2795   -3.1207    1.6781 C   0  0  0  0  0  0  0  0  0  0  0  0
   -3.6973   -2.6058    2.9129 C   0  0  0  0  0  0  0  0  0  0  0  0
   -4.9879   -2.0839    3.0537 C   0  0  0  0  0  0  0  0  0  0  0  0
   -5.8716   -2.0817    1.9599 C   0  0  0  0  0  0  0  0  0  0  0  0
   -7.2713   -1.5580    2.1081 C   0  0  0  0  0  0  0  0  0  0  0  0
   -5.4615   -2.6266    0.7331 C   0  0  0  0  0  0  0  0  0  0  0  0
   -4.1711   -3.1396    0.5912 C   0  0  0  0  0  0  0  0  0  0  0  0
   -1.7144   -4.9784    2.1207 C   0  0  0  0  0  0  0  0  0  0  0  0
   -0.4635   -5.2804    2.6743 C   0  0  0  0  0  0  0  0  0  0  0  0
   -0.2087   -6.5415    3.2193 C   0  0  0  0  0  0  0  0  0  0  0  0
   -1.2102   -7.5243    3.2232 C   0  0  0  0  0  0  0  0  0  0  0  0
   -0.9250   -8.8924    3.7656 C   0  0  0  0  0  0  0  0  0  0  0  0
   -2.4550   -7.2392    2.6436 C   0  0  0  0  0  0  0  0  0  0  0  0
   -2.7096   -5.9760    2.1049 C   0  0  0  0  0  0  0  0  0  0  0  0
   -0.4175   -3.9385   -0.4274 C   0  0  0  0  0  0  0  0  0  0  0  0
   -0.0955   -5.5809   -0.6134 S   0  0  0  0  0  0  0  0  0  0  0  0
    0.6279   -5.4019   -2.1415 C   0  0  0  0  0  0  0  0  0  0  0  0
    0.5837   -4.0557   -2.5326 C   0  0  0  0  0  0  0  0  0  0  0  0
    0.6258   -3.6294   -3.8997 N   0  0  0  0  0  0  0  0  0  0  0  0
    1.8857   -3.4318   -4.5747 C   0  0  0  0  0  0  0  0  0  0  0  0
    2.9651   -2.8164   -3.9175 C   0  0  0  0  0  0  0  0  0  0  0  0
    4.1715   -2.5903   -4.5921 C   0  0  0  0  0  0  0  0  0  0  0  0
    4.3037   -2.9573   -5.9386 C   0  0  0  0  0  0  0  0  0  0  0  0
    5.5835   -2.7125   -6.6824 C   0  0  0  0  0  0  0  0  0  0  0  0
    3.2376   -3.5943   -6.5889 C   0  0  0  0  0  0  0  0  0  0  0  0
    2.0385   -3.8310   -5.9134 C   0  0  0  0  0  0  0  0  0  0  0  0
   -0.6280   -3.3808   -4.5774 C   0  0  0  0  0  0  0  0  0  0  0  0
   -1.7384   -4.2179   -4.3564 C   0  0  0  0  0  0  0  0  0  0  0  0
   -2.9677   -3.9413   -4.9544 C   0  0  0  0  0  0  0  0  0  0  0  0
   -3.1190   -2.8195   -5.7749 C   0  0  0  0  0  0  0  0  0  0  0  0
   -4.4397   -2.5337   -6.4261 C   0  0  0  0  0  0  0  0  0  0  0  0
   -2.0145   -1.9888   -6.0189 C   0  0  0  0  0  0  0  0  0  0  0  0
   -0.7807   -2.2635   -5.4183 C   0  0  0  0  0  0  0  0  0  0  0  0
    0.0237   -3.2787   -1.5286 C   0  0  0  0  0  0  0  0  0  0  0  0
   -0.3296   -1.6545   -1.4259 S   0  0  0  0  0  0  0  0  0  0  0  0
    1.3291   -6.4678   -2.8658 C   0  0  0  0  0  0  0  0  0  0  0  0
    2.6695   -6.4930   -2.9412 C   0  0  0  0  0  0  0  0  0  0  0  0
    3.5674   -5.6597   -2.1378 C   0  0  0  0  0  0  0  0  0  0  0  0
    3.2363   -4.7312   -1.3538 O   0  0  0  0  0  0  0  0  0  0  0  0
    4.9252   -6.0846   -2.3442 C   0  0  0  0  0  0  0  0  0  0  0  0
    6.0847   -5.4310   -1.8667 C   0  0  0  0  0  0  0  0  0  0  0  0
    7.2614   -5.9470   -2.3663 C   0  0  0  0  0  0  0  0  0  0  0  0
    7.3012   -7.0501   -3.2799 C   0  0  0  0  0  0  0  0  0  0  0  0
    6.1664   -7.6952   -3.7549 C   0  0  0  0  0  0  0  0  0  0  0  0
    4.9395   -7.1858   -3.2459 C   0  0  0  0  0  0  0  0  0  0  0  0
    3.5337   -7.4660   -3.6729 C   0  0  0  0  0  0  0  0  0  0  0  0
    3.1460   -8.3033   -4.6674 C   0  0  0  0  0  0  0  0  0  0  0  0
    3.9894   -9.3415   -5.1910 C   0  0  0  0  0  0  0  0  0  0  0  0
    4.6485  -10.1996   -5.6143 N   0  0  0  0  0  0  0  0  0  0  0  0
    1.8964   -8.1305   -5.3585 C   0  0  0  0  0  0  0  0  0  0  0  0
    0.8942   -7.9963   -5.9348 N   0  0  0  0  0  0  0  0  0  0  0  0
    8.7913   -6.9047   -3.4080 C   0  0  0  0  0  0  0  0  0  0  0  0
    9.3434   -6.2600   -4.7220 C   0  0  0  0  0  0  0  0  0  0  0  0
    8.3387   -5.2708   -5.2780 C   0  0  0  0  0  0  0  0  0  0  0  0
    8.2937   -4.2494   -4.4179 C   0  0  0  0  0  0  0  0  0  0  0  0
    9.2734   -4.5760   -3.3102 C   0  0  0  0  0  0  0  0  0  0  0  0
   10.3352   -5.2804   -4.1333 C   0  0  0  0  0  0  0  0  0  0  0  0
    8.7494   -5.7782   -2.4687 C   0  0  0  0  0  0  0  0  0  0  0  0
   -3.3823    7.8846   -2.0534 H   0  0  0  0  0  0  0  0  0  0  0  0
   -0.7355   12.4302   -0.8796 H   0  0  0  0  0  0  0  0  0  0  0  0
   -0.2853    9.4423    3.2460 H   0  0  0  0  0  0  0  0  0  0  0  0
    1.0086   12.6593    3.7562 H   0  0  0  0  0  0  0  0  0  0  0  0
    3.0313   10.7856    3.3471 H   0  0  0  0  0  0  0  0  0  0  0  0
    4.3189   13.0590    3.8279 H   0  0  0  0  0  0  0  0  0  0  0  0
    4.0809   14.5923    1.7303 H   0  0  0  0  0  0  0  0  0  0  0  0
    2.6442   13.3021   -0.0909 H   0  0  0  0  0  0  0  0  0  0  0  0
    2.3901   10.7665    0.7366 H   0  0  0  0  0  0  0  0  0  0  0  0
    4.0926   11.3435    0.9722 H   0  0  0  0  0  0  0  0  0  0  0  0
    0.7971   14.0577    1.8407 H   0  0  0  0  0  0  0  0  0  0  0  0
   -6.9339    4.5172   -0.5876 H   0  0  0  0  0  0  0  0  0  0  0  0
   -7.9501    4.9249   -2.7896 H   0  0  0  0  0  0  0  0  0  0  0  0
   -6.7659    6.1702   -5.2501 H   0  0  0  0  0  0  0  0  0  0  0  0
   -5.3324    5.1221   -5.6377 H   0  0  0  0  0  0  0  0  0  0  0  0
   -6.5314    5.5393   -6.9212 H   0  0  0  0  0  0  0  0  0  0  0  0
   -5.1646    2.1842   -4.5923 H   0  0  0  0  0  0  0  0  0  0  0  0
   -4.1374    1.7705   -2.3966 H   0  0  0  0  0  0  0  0  0  0  0  0
   -4.2432    3.7854    2.4464 H   0  0  0  0  0  0  0  0  0  0  0  0
   -5.5804    3.6116    4.4895 H   0  0  0  0  0  0  0  0  0  0  0  0
   -7.8308    0.7855    6.6786 H   0  0  0  0  0  0  0  0  0  0  0  0
   -6.3025    1.5542    6.1279 H   0  0  0  0  0  0  0  0  0  0  0  0
   -7.1288    0.3199    5.0807 H   0  0  0  0  0  0  0  0  0  0  0  0
   -8.6586    1.5350    2.3091 H   0  0  0  0  0  0  0  0  0  0  0  0
   -7.3131    1.6940    0.2468 H   0  0  0  0  0  0  0  0  0  0  0  0
   -0.5916    1.7077    3.7090 H   0  0  0  0  0  0  0  0  0  0  0  0
    0.2865    3.6361    4.9688 H   0  0  0  0  0  0  0  0  0  0  0  0
    2.8701    3.4731    6.4154 H   0  0  0  0  0  0  0  0  0  0  0  0
    3.8654    4.9252    6.8230 H   0  0  0  0  0  0  0  0  0  0  0  0
    4.4582    3.7667    5.5731 H   0  0  0  0  0  0  0  0  0  0  0  0
    3.7953    3.6781    2.4670 H   0  0  0  0  0  0  0  0  0  0  0  0
    2.8874    1.7767    1.1672 H   0  0  0  0  0  0  0  0  0  0  0  0
    0.4496   -1.0472    3.7695 H   0  0  0  0  0  0  0  0  0  0  0  0
    1.7638   -3.0898    4.1893 H   0  0  0  0  0  0  0  0  0  0  0  0
    4.5574   -3.1582    4.2836 H   0  0  0  0  0  0  0  0  0  0  0  0
    5.6351   -3.2707    2.8265 H   0  0  0  0  0  0  0  0  0  0  0  0
    5.5469   -4.6329    4.0155 H   0  0  0  0  0  0  0  0  0  0  0  0
    3.5936   -2.7139    0.3148 H   0  0  0  0  0  0  0  0  0  0  0  0
    2.3074   -0.6442   -0.0952 H   0  0  0  0  0  0  0  0  0  0  0  0
   -3.0176   -2.5938    3.7515 H   0  0  0  0  0  0  0  0  0  0  0  0
   -5.2919   -1.6749    4.0082 H   0  0  0  0  0  0  0  0  0  0  0  0
   -7.5464   -0.9627    1.2138 H   0  0  0  0  0  0  0  0  0  0  0  0
   -7.9724   -2.4092    2.2079 H   0  0  0  0  0  0  0  0  0  0  0  0
   -7.3613   -0.9071    2.9959 H   0  0  0  0  0  0  0  0  0  0  0  0
   -6.1391   -2.6477   -0.1131 H   0  0  0  0  0  0  0  0  0  0  0  0
   -3.8596   -3.5537   -0.3576 H   0  0  0  0  0  0  0  0  0  0  0  0
    0.3161   -4.5395    2.6674 H   0  0  0  0  0  0  0  0  0  0  0  0
    0.7726   -6.7529    3.6326 H   0  0  0  0  0  0  0  0  0  0  0  0
   -0.5024   -9.5287    2.9641 H   0  0  0  0  0  0  0  0  0  0  0  0
   -1.8592   -9.3616    4.1451 H   0  0  0  0  0  0  0  0  0  0  0  0
   -0.1986   -8.8372    4.6061 H   0  0  0  0  0  0  0  0  0  0  0  0
   -3.2254   -7.9985    2.6085 H   0  0  0  0  0  0  0  0  0  0  0  0
   -3.6751   -5.7835    1.6551 H   0  0  0  0  0  0  0  0  0  0  0  0
    2.8607   -2.4897   -2.8862 H   0  0  0  0  0  0  0  0  0  0  0  0
    4.9907   -2.1154   -4.0681 H   0  0  0  0  0  0  0  0  0  0  0  0
    5.3614   -2.2727   -7.6770 H   0  0  0  0  0  0  0  0  0  0  0  0
    6.2437   -2.0071   -6.1320 H   0  0  0  0  0  0  0  0  0  0  0  0
    6.1176   -3.6719   -6.8257 H   0  0  0  0  0  0  0  0  0  0  0  0
    3.3309   -3.8996   -7.6257 H   0  0  0  0  0  0  0  0  0  0  0  0
    1.2245   -4.3170   -6.4347 H   0  0  0  0  0  0  0  0  0  0  0  0
   -1.6554   -5.0895   -3.7220 H   0  0  0  0  0  0  0  0  0  0  0  0
   -3.8063   -4.6082   -4.7719 H   0  0  0  0  0  0  0  0  0  0  0  0
   -5.2768   -2.9694   -5.8362 H   0  0  0  0  0  0  0  0  0  0  0  0
   -4.6102   -1.4386   -6.5024 H   0  0  0  0  0  0  0  0  0  0  0  0
   -4.4558   -2.9757   -7.4444 H   0  0  0  0  0  0  0  0  0  0  0  0
   -2.1172   -1.1217   -6.6644 H   0  0  0  0  0  0  0  0  0  0  0  0
    0.0515   -1.5903   -5.5923 H   0  0  0  0  0  0  0  0  0  0  0  0
    0.7252   -7.2526   -3.2820 H   0  0  0  0  0  0  0  0  0  0  0  0
    6.0489   -4.5439   -1.2422 H   0  0  0  0  0  0  0  0  0  0  0  0
    6.2588   -8.4584   -4.5062 H   0  0  0  0  0  0  0  0  0  0  0  0
    9.3739   -7.7772   -3.0357 H   0  0  0  0  0  0  0  0  0  0  0  0
    9.7523   -6.9724   -5.4626 H   0  0  0  0  0  0  0  0  0  0  0  0
    7.7998   -5.3343   -6.2170 H   0  0  0  0  0  0  0  0  0  0  0  0
    7.7119   -3.3419   -4.5398 H   0  0  0  0  0  0  0  0  0  0  0  0
    9.6250   -3.7040   -2.7207 H   0  0  0  0  0  0  0  0  0  0  0  0
   10.8180   -4.6257   -4.8969 H   0  0  0  0  0  0  0  0  0  0  0  0
   11.1253   -5.7718   -3.5133 H   0  0  0  0  0  0  0  0  0  0  0  0
    9.2946   -5.9633   -1.5170 H   0  0  0  0  0  0  0  0  0  0  0  0
  1  2  2  3
  2  3  1  0
  3  4  2  0
  3  5  1  0
  5  6  2  0
  6  7  1  0
  7  8  2  0
  8  9  1  0
  9 10  2  0
 10 11  1  0
 11 12  2  3
 12 13  1  0
 13 14  3  0
 12 15  1  0
 15 16  3  0
  8 17  1  0
 17 18  1  0
 18 19  1  0
 19 20  2  0
 20 21  1  0
 21 22  1  0
 21 23  1  0
  1 24  1  0
 24 25  3  0
 25 26  1  0
 26 27  2  0
 27 28  1  0
 28 29  1  0
 29 30  2  0
 30 31  1  0
 31 32  2  0
 32 33  1  0
 33 34  1  0
 32 35  1  0
 35 36  2  0
 28 37  1  0
 37 38  2  0
 38 39  1  0
 39 40  2  0
 40 41  1  0
 41 42  1  0
 40 43  1  0
 43 44  2  0
 27 45  1  0
 45 46  1  0
 46 47  1  0
 47 48  2  0
 48 49  1  0
 49 50  1  0
 50 51  2  0
 51 52  1  0
 52 53  2  0
 53 54  1  0
 54 55  1  0
 53 56  1  0
 56 57  2  0
 49 58  1  0
 58 59  2  0
 59 60  1  0
 60 61  2  0
 61 62  1  0
 62 63  1  0
 61 64  1  0
 64 65  2  0
 48 66  1  0
 66 67  1  0
 47 68  1  0
 68 69  2  0
 69 70  1  0
 70 71  1  0
 71 72  2  0
 72 73  1  0
 73 74  2  0
 74 75  1  0
 74 76  1  0
 76 77  2  0
 70 78  1  0
 78 79  2  0
 79 80  1  0
 80 81  2  0
 81 82  1  0
 81 83  1  0
 83 84  2  0
 69 85  1  0
 85 86  1  0
 86 87  1  0
 87 88  2  0
 88 89  1  0
 89 90  1  0
 90 91  2  0
 91 92  1  0
 92 93  2  0
 93 94  1  0
 93 95  1  0
 95 96  2  0
 89 97  1  0
 97 98  2  0
 98 99  1  0
 99100  2  0
100101  1  0
100102  1  0
102103  2  0
 88104  1  0
104105  1  0
 87106  1  0
106107  2  3
107108  1  0
108109  2  0
108110  1  0
110111  2  0
111112  1  0
112113  2  0
113114  1  0
114115  2  0
115116  1  0
116117  2  3
117118  1  0
118119  3  0
117120  1  0
120121  3  0
113122  1  0
122123  1  0
123124  1  0
124125  2  0
125126  1  0
126127  1  0
126128  1  0
 11  2  1  0
 23 17  1  0
 67 26  1  0
105 68  1  0
116107  1  0
128122  1  0
 10  5  1  0
 22 18  1  0
 36 29  1  0
 44 37  1  0
 66 45  2  0
 77 71  1  0
 84 78  1  0
104 85  2  0
115110  1  0
127123  1  0
 23  7  1  0
 57 50  1  0
 65 58  1  0
 96 90  1  0
103 97  1  0
128112  1  0
  1129  1  0
  6130  1  0
  9131  1  0
 17132  1  0
 18133  1  0
 19134  1  0
 20135  1  0
 21136  1  0
 22137  1  0
 22138  1  0
 23139  1  0
 30140  1  0
 31141  1  0
 34142  1  0
 34143  1  0
 34144  1  0
 35145  1  0
 36146  1  0
 38147  1  0
 39148  1  0
 42149  1  0
 42150  1  0
 42151  1  0
 43152  1  0
 44153  1  0
 51154  1  0
 52155  1  0
 55156  1  0
 55157  1  0
 55158  1  0
 56159  1  0
 57160  1  0
 59161  1  0
 60162  1  0
 63163  1  0
 63164  1  0
 63165  1  0
 64166  1  0
 65167  1  0
 72168  1  0
 73169  1  0
 75170  1  0
 75171  1  0
 75172  1  0
 76173  1  0
 77174  1  0
 79175  1  0
 80176  1  0
 82177  1  0
 82178  1  0
 82179  1  0
 83180  1  0
 84181  1  0
 91182  1  0
 92183  1  0
 94184  1  0
 94185  1  0
 94186  1  0
 95187  1  0
 96188  1  0
 98189  1  0
 99190  1  0
101191  1  0
101192  1  0
101193  1  0
102194  1  0
103195  1  0
106196  1  0
111197  1  0
114198  1  0
122199  1  0
123200  1  0
124201  1  0
125202  1  0
126203  1  0
127204  1  0
127205  1  0
128206  1  0
M  END

