
     RDKit          3D

248273  0  0  0  0  0  0  0  0999 V2000
   -5.3454   -0.5702   -4.6974 C   0  0  0  0  0  0  0  0  0  0  0  0
   -6.6251   -0.2284   -4.9289 C   0  0  0  0  0  0  0  0  0  0  0  0
   -7.7757   -0.7534   -4.1874 C   0  0  0  0  0  0  0  0  0  0  0  0
   -7.7341   -1.3679   -3.0922 O   0  0  0  0  0  0  0  0  0  0  0  0
   -8.9721   -0.5237   -4.9679 C   0  0  0  0  0  0  0  0  0  0  0  0
  -10.2756   -0.9978   -4.6845 C   0  0  0  0  0  0  0  0  0  0  0  0
  -11.2056   -0.6894   -5.6618 C   0  0  0  0  0  0  0  0  0  0  0  0
  -10.8871    0.0603   -6.8396 C   0  0  0  0  0  0  0  0  0  0  0  0
   -9.6105    0.5134   -7.1272 C   0  0  0  0  0  0  0  0  0  0  0  0
   -8.6308    0.1937   -6.1454 C   0  0  0  0  0  0  0  0  0  0  0  0
   -7.1615    0.4668   -6.1392 C   0  0  0  0  0  0  0  0  0  0  0  0
   -6.4754    1.3166   -6.9506 C   0  0  0  0  0  0  0  0  0  0  0  0
   -5.1128    1.7061   -6.6792 C   0  0  0  0  0  0  0  0  0  0  0  0
   -4.0155    1.9994   -6.4728 N   0  0  0  0  0  0  0  0  0  0  0  0
   -7.0639    1.9553   -8.1001 C   0  0  0  0  0  0  0  0  0  0  0  0
   -7.5153    2.4789   -9.0306 N   0  0  0  0  0  0  0  0  0  0  0  0
  -12.3018   -0.0654   -7.3261 C   0  0  0  0  0  0  0  0  0  0  0  0
  -12.5388   -1.0583   -8.5021 C   0  0  0  0  0  0  0  0  0  0  0  0
  -14.0224   -1.3239   -8.5297 C   0  0  0  0  0  0  0  0  0  0  0  0
  -14.2985   -2.0557   -7.4434 C   0  0  0  0  0  0  0  0  0  0  0  0
  -12.9915   -2.2545   -6.7170 C   0  0  0  0  0  0  0  0  0  0  0  0
  -12.0764   -2.3855   -7.9243 C   0  0  0  0  0  0  0  0  0  0  0  0
  -12.6188   -0.8581   -6.1341 C   0  0  0  0  0  0  0  0  0  0  0  0
   -4.8509   -1.0999   -3.4090 C   0  0  0  0  0  0  0  0  0  0  0  0
   -4.9932   -0.3377   -2.2395 C   0  0  0  0  0  0  0  0  0  0  0  0
   -5.6785    0.8315   -2.2675 F   0  0  0  0  0  0  0  0  0  0  0  0
   -4.3464   -0.7213   -1.0639 C   0  0  0  0  0  0  0  0  0  0  0  0
   -4.4284    0.1144    0.0042 F   0  0  0  0  0  0  0  0  0  0  0  0
   -3.5535   -1.8858   -1.0171 C   0  0  0  0  0  0  0  0  0  0  0  0
   -3.4915   -2.7003   -2.1681 C   0  0  0  0  0  0  0  0  0  0  0  0
   -2.8039   -3.8740   -2.1658 N   0  0  0  0  0  0  0  0  0  0  0  0
   -2.6477   -4.6468   -3.2754 C   0  0  0  0  0  0  0  0  0  0  0  0
   -1.9505   -5.9547   -3.1101 C   0  0  0  0  0  0  0  0  0  0  0  0
   -1.3520   -6.9809   -4.3120 S   0  0  0  0  0  0  0  0  0  0  0  0
   -0.7943   -8.1980   -3.2977 C   0  0  0  0  0  0  0  0  0  0  0  0
   -0.1460   -9.4762   -3.7424 C   0  0  0  0  0  0  0  0  0  0  0  0
    1.2871   -9.2346   -4.1949 C   0  0  0  0  0  0  0  0  0  0  0  0
   -1.0720   -7.8277   -1.9897 C   0  0  0  0  0  0  0  0  0  0  0  0
   -1.7207   -6.5886   -1.8858 C   0  0  0  0  0  0  0  0  0  0  0  0
   -2.1086   -6.0765   -0.6925 F   0  0  0  0  0  0  0  0  0  0  0  0
   -0.7700   -8.5889   -0.9127 F   0  0  0  0  0  0  0  0  0  0  0  0
   -3.1878   -4.1685   -4.4949 C   0  0  0  0  0  0  0  0  0  0  0  0
   -3.9060   -3.0179   -4.4894 N   0  0  0  0  0  0  0  0  0  0  0  0
   -4.0951   -2.2820   -3.3666 C   0  0  0  0  0  0  0  0  0  0  0  0
   -2.9801   -4.8026   -5.8019 C   0  0  0  0  0  0  0  0  0  0  0  0
   -4.2356   -5.2566   -6.8224 S   0  0  0  0  0  0  0  0  0  0  0  0
   -3.3097   -5.3775   -8.2242 C   0  0  0  0  0  0  0  0  0  0  0  0
   -3.8643   -5.5802   -9.6013 C   0  0  0  0  0  0  0  0  0  0  0  0
   -4.5302   -4.3024  -10.1001 C   0  0  0  0  0  0  0  0  0  0  0  0
   -2.0020   -5.0133   -7.9167 C   0  0  0  0  0  0  0  0  0  0  0  0
   -1.0208   -4.8902   -8.8459 F   0  0  0  0  0  0  0  0  0  0  0  0
   -1.8238   -4.6788   -6.5705 C   0  0  0  0  0  0  0  0  0  0  0  0
   -0.6590   -4.1842   -6.0846 F   0  0  0  0  0  0  0  0  0  0  0  0
   -2.6592   -2.1322    0.1470 C   0  0  0  0  0  0  0  0  0  0  0  0
   -1.2849   -2.4697    0.0794 C   0  0  0  0  0  0  0  0  0  0  0  0
   -0.4920   -2.2628   -1.1110 N   0  0  0  0  0  0  0  0  0  0  0  0
   -0.1624   -0.9012   -1.4651 C   0  0  0  0  0  0  0  0  0  0  0  0
    1.0733   -0.3498   -1.0856 C   0  0  0  0  0  0  0  0  0  0  0  0
    1.4257    0.9461   -1.4750 C   0  0  0  0  0  0  0  0  0  0  0  0
    0.5541    1.7041   -2.2627 C   0  0  0  0  0  0  0  0  0  0  0  0
    1.0608    3.3161   -2.8792 S   0  0  0  0  0  0  0  0  0  0  0  0
    0.3891    4.2377   -1.4672 C   0  0  0  0  0  0  0  0  0  0  0  0
   -0.6770    1.1639   -2.6496 C   0  0  0  0  0  0  0  0  0  0  0  0
   -1.0242   -0.1341   -2.2658 C   0  0  0  0  0  0  0  0  0  0  0  0
    0.2925   -3.3229   -1.7031 C   0  0  0  0  0  0  0  0  0  0  0  0
    0.6812   -4.4574   -0.9629 C   0  0  0  0  0  0  0  0  0  0  0  0
    1.5804   -5.3799   -1.5067 C   0  0  0  0  0  0  0  0  0  0  0  0
    2.0934   -5.1892   -2.7938 C   0  0  0  0  0  0  0  0  0  0  0  0
    3.3951   -6.2491   -3.4199 S   0  0  0  0  0  0  0  0  0  0  0  0
    4.7092   -5.2451   -2.6636 C   0  0  0  0  0  0  0  0  0  0  0  0
    1.6456   -4.1145   -3.5667 C   0  0  0  0  0  0  0  0  0  0  0  0
    0.7455   -3.1936   -3.0299 C   0  0  0  0  0  0  0  0  0  0  0  0
   -0.6961   -2.4212    1.3550 C   0  0  0  0  0  0  0  0  0  0  0  0
    0.8978   -2.2782    1.8054 S   0  0  0  0  0  0  0  0  0  0  0  0
    0.6231   -1.4420    3.2637 C   0  0  0  0  0  0  0  0  0  0  0  0
   -0.7811   -1.2650    3.3911 C   0  0  0  0  0  0  0  0  0  0  0  0
   -1.4116   -0.1856    4.1125 N   0  0  0  0  0  0  0  0  0  0  0  0
   -2.5813   -0.5441    4.8932 C   0  0  0  0  0  0  0  0  0  0  0  0
   -3.8105    0.1274    4.7141 C   0  0  0  0  0  0  0  0  0  0  0  0
   -4.9462   -0.2631    5.4294 C   0  0  0  0  0  0  0  0  0  0  0  0
   -4.8840   -1.3466    6.3113 C   0  0  0  0  0  0  0  0  0  0  0  0
   -6.3520   -1.8640    7.2057 S   0  0  0  0  0  0  0  0  0  0  0  0
   -6.8878   -3.0179    5.9028 C   0  0  0  0  0  0  0  0  0  0  0  0
   -3.6789   -2.0446    6.4712 C   0  0  0  0  0  0  0  0  0  0  0  0
   -2.5382   -1.6528    5.7602 C   0  0  0  0  0  0  0  0  0  0  0  0
   -1.2202    1.1868    3.6609 C   0  0  0  0  0  0  0  0  0  0  0  0
   -0.7412    1.4633    2.3648 C   0  0  0  0  0  0  0  0  0  0  0  0
   -0.7036    2.7730    1.8823 C   0  0  0  0  0  0  0  0  0  0  0  0
   -1.1314    3.8375    2.6807 C   0  0  0  0  0  0  0  0  0  0  0  0
   -1.2613    5.4940    1.9943 S   0  0  0  0  0  0  0  0  0  0  0  0
    0.3450    6.0684    2.6217 C   0  0  0  0  0  0  0  0  0  0  0  0
   -1.5685    3.5852    3.9798 C   0  0  0  0  0  0  0  0  0  0  0  0
   -1.6118    2.2760    4.4690 C   0  0  0  0  0  0  0  0  0  0  0  0
   -1.4723   -1.9124    2.3494 C   0  0  0  0  0  0  0  0  0  0  0  0
   -3.0113   -1.6470    1.7429 S   0  0  0  0  0  0  0  0  0  0  0  0
    1.7184   -0.6484    3.8665 C   0  0  0  0  0  0  0  0  0  0  0  0
    1.7153    0.1682    5.0262 C   0  0  0  0  0  0  0  0  0  0  0  0
    1.1044   -0.2514    6.2733 N   0  0  0  0  0  0  0  0  0  0  0  0
    0.8203    0.7237    7.2917 C   0  0  0  0  0  0  0  0  0  0  0  0
    1.8267    1.1251    8.1870 C   0  0  0  0  0  0  0  0  0  0  0  0
    1.5424    2.0242    9.2156 C   0  0  0  0  0  0  0  0  0  0  0  0
    0.2356    2.4961    9.3935 C   0  0  0  0  0  0  0  0  0  0  0  0
   -0.1317    3.6579   10.7101 S   0  0  0  0  0  0  0  0  0  0  0  0
   -0.3500    2.3626   11.9687 C   0  0  0  0  0  0  0  0  0  0  0  0
   -0.7837    2.0355    8.5533 C   0  0  0  0  0  0  0  0  0  0  0  0
   -0.4948    1.1315    7.5282 C   0  0  0  0  0  0  0  0  0  0  0  0
    1.3458   -1.5960    6.7570 C   0  0  0  0  0  0  0  0  0  0  0  0
    0.4746   -2.1738    7.6993 C   0  0  0  0  0  0  0  0  0  0  0  0
    0.8198   -3.3602    8.3578 C   0  0  0  0  0  0  0  0  0  0  0  0
    2.0358   -3.9869    8.0772 C   0  0  0  0  0  0  0  0  0  0  0  0
    2.5540   -5.4180    9.0294 S   0  0  0  0  0  0  0  0  0  0  0  0
    3.3727   -4.4079   10.3047 C   0  0  0  0  0  0  0  0  0  0  0  0
    2.8899   -3.4515    7.1108 C   0  0  0  0  0  0  0  0  0  0  0  0
    2.5555   -2.2619    6.4611 C   0  0  0  0  0  0  0  0  0  0  0  0
    2.8488    1.0070    5.0021 C   0  0  0  0  0  0  0  0  0  0  0  0
    3.2210    2.4852    5.7049 S   0  0  0  0  0  0  0  0  0  0  0  0
    4.6025    2.7768    4.7519 C   0  0  0  0  0  0  0  0  0  0  0  0
    4.8436    1.6621    3.9253 C   0  0  0  0  0  0  0  0  0  0  0  0
    6.0787    1.3958    3.2030 N   0  0  0  0  0  0  0  0  0  0  0  0
    6.2505    0.1443    2.5231 C   0  0  0  0  0  0  0  0  0  0  0  0
    5.8718   -0.0013    1.1807 C   0  0  0  0  0  0  0  0  0  0  0  0
    5.9987   -1.2430    0.5460 C   0  0  0  0  0  0  0  0  0  0  0  0
    6.5305   -2.3365    1.2447 C   0  0  0  0  0  0  0  0  0  0  0  0
    6.6626   -3.9390    0.4495 S   0  0  0  0  0  0  0  0  0  0  0  0
    5.0966   -4.5446    1.1524 C   0  0  0  0  0  0  0  0  0  0  0  0
    6.9457   -2.1828    2.5712 C   0  0  0  0  0  0  0  0  0  0  0  0
    6.7980   -0.9505    3.2111 C   0  0  0  0  0  0  0  0  0  0  0  0
    7.2982    2.0780    3.5467 C   0  0  0  0  0  0  0  0  0  0  0  0
    8.1104    2.6118    2.5328 C   0  0  0  0  0  0  0  0  0  0  0  0
    9.2790    3.3051    2.8569 C   0  0  0  0  0  0  0  0  0  0  0  0
    9.6577    3.4536    4.1978 C   0  0  0  0  0  0  0  0  0  0  0  0
   11.1118    4.4149    4.6178 S   0  0  0  0  0  0  0  0  0  0  0  0
   10.1639    5.9556    4.8072 C   0  0  0  0  0  0  0  0  0  0  0  0
    8.8858    2.8703    5.2091 C   0  0  0  0  0  0  0  0  0  0  0  0
    7.7196    2.1746    4.8846 C   0  0  0  0  0  0  0  0  0  0  0  0
    3.7738    0.7618    4.0300 C   0  0  0  0  0  0  0  0  0  0  0  0
    3.1794   -0.4116    3.0204 S   0  0  0  0  0  0  0  0  0  0  0  0
    5.2515    4.1014    4.7080 C   0  0  0  0  0  0  0  0  0  0  0  0
    5.5972    4.7932    3.6001 C   0  0  0  0  0  0  0  0  0  0  0  0
    6.4687    5.9691    3.6695 C   0  0  0  0  0  0  0  0  0  0  0  0
    6.7756    6.5979    4.7181 O   0  0  0  0  0  0  0  0  0  0  0  0
    6.9681    6.2679    2.3471 C   0  0  0  0  0  0  0  0  0  0  0  0
    7.8181    7.3365    1.9742 C   0  0  0  0  0  0  0  0  0  0  0  0
    8.0883    7.3922    0.6197 C   0  0  0  0  0  0  0  0  0  0  0  0
    7.5913    6.4259   -0.3156 C   0  0  0  0  0  0  0  0  0  0  0  0
    6.7717    5.3708    0.0459 C   0  0  0  0  0  0  0  0  0  0  0  0
    6.4308    5.3285    1.4290 C   0  0  0  0  0  0  0  0  0  0  0  0
    5.4449    4.4630    2.1424 C   0  0  0  0  0  0  0  0  0  0  0  0
    4.3828    3.8532    1.5579 C   0  0  0  0  0  0  0  0  0  0  0  0
    3.1595    3.5959    2.2696 C   0  0  0  0  0  0  0  0  0  0  0  0
    2.1691    3.3930    2.8294 N   0  0  0  0  0  0  0  0  0  0  0  0
    4.3318    3.5555    0.1504 C   0  0  0  0  0  0  0  0  0  0  0  0
    4.2775    3.2944   -0.9777 N   0  0  0  0  0  0  0  0  0  0  0  0
    8.2403    7.1631   -1.4469 C   0  0  0  0  0  0  0  0  0  0  0  0
    7.2846    7.9822   -2.3662 C   0  0  0  0  0  0  0  0  0  0  0  0
    8.1698    8.9274   -3.1467 C   0  0  0  0  0  0  0  0  0  0  0  0
    8.6161    9.8358   -2.2751 C   0  0  0  0  0  0  0  0  0  0  0  0
    8.0244    9.4733   -0.9347 C   0  0  0  0  0  0  0  0  0  0  0  0
    6.6593    8.9878   -1.4069 C   0  0  0  0  0  0  0  0  0  0  0  0
    8.7386    8.1605   -0.4930 C   0  0  0  0  0  0  0  0  0  0  0  0
   -4.5995   -0.4281   -5.4689 H   0  0  0  0  0  0  0  0  0  0  0  0
  -10.5168   -1.5889   -3.8117 H   0  0  0  0  0  0  0  0  0  0  0  0
   -9.4130    1.0193   -8.0554 H   0  0  0  0  0  0  0  0  0  0  0  0
  -12.8461    0.9012   -7.3868 H   0  0  0  0  0  0  0  0  0  0  0  0
  -12.0961   -0.7645   -9.4752 H   0  0  0  0  0  0  0  0  0  0  0  0
  -14.7219   -1.0715   -9.3189 H   0  0  0  0  0  0  0  0  0  0  0  0
  -15.2595   -2.4983   -7.2062 H   0  0  0  0  0  0  0  0  0  0  0  0
  -12.9762   -3.1032   -6.0026 H   0  0  0  0  0  0  0  0  0  0  0  0
  -10.9931   -2.4260   -7.6824 H   0  0  0  0  0  0  0  0  0  0  0  0
  -12.3188   -3.2613   -8.5746 H   0  0  0  0  0  0  0  0  0  0  0  0
  -13.3687   -0.4010   -5.4524 H   0  0  0  0  0  0  0  0  0  0  0  0
   -0.7301   -9.9130   -4.5784 H   0  0  0  0  0  0  0  0  0  0  0  0
   -0.1439  -10.2081   -2.9086 H   0  0  0  0  0  0  0  0  0  0  0  0
    1.3119   -8.5193   -5.0444 H   0  0  0  0  0  0  0  0  0  0  0  0
    1.8930   -8.8350   -3.3534 H   0  0  0  0  0  0  0  0  0  0  0  0
    1.7361  -10.1949   -4.5265 H   0  0  0  0  0  0  0  0  0  0  0  0
   -4.6143   -6.4011   -9.5779 H   0  0  0  0  0  0  0  0  0  0  0  0
   -3.0562   -5.8702  -10.3034 H   0  0  0  0  0  0  0  0  0  0  0  0
   -3.7950   -3.4708  -10.1394 H   0  0  0  0  0  0  0  0  0  0  0  0
   -4.9346   -4.4635  -11.1229 H   0  0  0  0  0  0  0  0  0  0  0  0
   -5.3668   -4.0188   -9.4310 H   0  0  0  0  0  0  0  0  0  0  0  0
    1.7796   -0.9381   -0.5182 H   0  0  0  0  0  0  0  0  0  0  0  0
    2.3928    1.3386   -1.1937 H   0  0  0  0  0  0  0  0  0  0  0  0
   -0.6358    3.8888   -1.2303 H   0  0  0  0  0  0  0  0  0  0  0  0
    1.0540    4.1108   -0.5912 H   0  0  0  0  0  0  0  0  0  0  0  0
    0.3333    5.3089   -1.7194 H   0  0  0  0  0  0  0  0  0  0  0  0
   -1.3556    1.7301   -3.2775 H   0  0  0  0  0  0  0  0  0  0  0  0
   -1.9365   -0.5536   -2.6462 H   0  0  0  0  0  0  0  0  0  0  0  0
    0.3238   -4.6147    0.0447 H   0  0  0  0  0  0  0  0  0  0  0  0
    1.9043   -6.2246   -0.9111 H   0  0  0  0  0  0  0  0  0  0  0  0
    4.5946   -5.2652   -1.5623 H   0  0  0  0  0  0  0  0  0  0  0  0
    4.6435   -4.1881   -3.0118 H   0  0  0  0  0  0  0  0  0  0  0  0
    5.6990   -5.6663   -2.9288 H   0  0  0  0  0  0  0  0  0  0  0  0
    2.0166   -3.9770   -4.5771 H   0  0  0  0  0  0  0  0  0  0  0  0
    0.4276   -2.3550   -3.6450 H   0  0  0  0  0  0  0  0  0  0  0  0
   -3.9041    0.9370    4.0038 H   0  0  0  0  0  0  0  0  0  0  0  0
   -5.8805    0.2668    5.2849 H   0  0  0  0  0  0  0  0  0  0  0  0
   -6.1244   -3.8098    5.7607 H   0  0  0  0  0  0  0  0  0  0  0  0
   -7.0456   -2.4727    4.9491 H   0  0  0  0  0  0  0  0  0  0  0  0
   -7.8443   -3.4892    6.2110 H   0  0  0  0  0  0  0  0  0  0  0  0
   -3.6288   -2.8958    7.1374 H   0  0  0  0  0  0  0  0  0  0  0  0
   -1.6253   -2.2189    5.8683 H   0  0  0  0  0  0  0  0  0  0  0  0
   -0.4499    0.6670    1.6855 H   0  0  0  0  0  0  0  0  0  0  0  0
   -0.3815    2.9478    0.8674 H   0  0  0  0  0  0  0  0  0  0  0  0
    1.1552    5.7126    1.9568 H   0  0  0  0  0  0  0  0  0  0  0  0
    0.5178    5.7145    3.6601 H   0  0  0  0  0  0  0  0  0  0  0  0
    0.3545    7.1755    2.6238 H   0  0  0  0  0  0  0  0  0  0  0  0
   -1.9208    4.3990    4.6036 H   0  0  0  0  0  0  0  0  0  0  0  0
   -2.0261    2.1226    5.4511 H   0  0  0  0  0  0  0  0  0  0  0  0
    2.8317    0.7353    8.0856 H   0  0  0  0  0  0  0  0  0  0  0  0
    2.3315    2.3443    9.8817 H   0  0  0  0  0  0  0  0  0  0  0  0
    0.6064    1.8203   12.1183 H   0  0  0  0  0  0  0  0  0  0  0  0
   -1.1403    1.6487   11.6596 H   0  0  0  0  0  0  0  0  0  0  0  0
   -0.6437    2.8348   12.9250 H   0  0  0  0  0  0  0  0  0  0  0  0
   -1.8054    2.3559    8.7123 H   0  0  0  0  0  0  0  0  0  0  0  0
   -1.3008    0.7082    6.9551 H   0  0  0  0  0  0  0  0  0  0  0  0
   -0.4462   -1.6766    7.9704 H   0  0  0  0  0  0  0  0  0  0  0  0
    0.1580   -3.7617    9.1136 H   0  0  0  0  0  0  0  0  0  0  0  0
    3.9621   -5.0691   10.9700 H   0  0  0  0  0  0  0  0  0  0  0  0
    2.6097   -3.8710   10.9070 H   0  0  0  0  0  0  0  0  0  0  0  0
    4.0580   -3.6688    9.8360 H   0  0  0  0  0  0  0  0  0  0  0  0
    3.8416   -3.9257    6.9012 H   0  0  0  0  0  0  0  0  0  0  0  0
    3.2841   -1.8286    5.7873 H   0  0  0  0  0  0  0  0  0  0  0  0
    5.4525    0.8370    0.6425 H   0  0  0  0  0  0  0  0  0  0  0  0
    5.6745   -1.3564   -0.4820 H   0  0  0  0  0  0  0  0  0  0  0  0
    4.9459   -5.6021    0.8494 H   0  0  0  0  0  0  0  0  0  0  0  0
    4.2524   -3.9328    0.7749 H   0  0  0  0  0  0  0  0  0  0  0  0
    5.1290   -4.4956    2.2590 H   0  0  0  0  0  0  0  0  0  0  0  0
    7.3567   -3.0242    3.1123 H   0  0  0  0  0  0  0  0  0  0  0  0
    7.0836   -0.8549    4.2494 H   0  0  0  0  0  0  0  0  0  0  0  0
    7.8210    2.5119    1.4938 H   0  0  0  0  0  0  0  0  0  0  0  0
    9.8833    3.7426    2.0685 H   0  0  0  0  0  0  0  0  0  0  0  0
    9.6126    6.1775    3.8727 H   0  0  0  0  0  0  0  0  0  0  0  0
   10.8558    6.7931    5.0202 H   0  0  0  0  0  0  0  0  0  0  0  0
    9.4471    5.8539    5.6476 H   0  0  0  0  0  0  0  0  0  0  0  0
    9.1827    2.9664    6.2479 H   0  0  0  0  0  0  0  0  0  0  0  0
    7.1319    1.7250    5.6752 H   0  0  0  0  0  0  0  0  0  0  0  0
    5.4575    4.5467    5.6749 H   0  0  0  0  0  0  0  0  0  0  0  0
    8.1917    8.0699    2.6757 H   0  0  0  0  0  0  0  0  0  0  0  0
    6.4296    4.6701   -0.6955 H   0  0  0  0  0  0  0  0  0  0  0  0
    9.0317    6.5789   -1.9677 H   0  0  0  0  0  0  0  0  0  0  0  0
    6.5718    7.3879   -2.9762 H   0  0  0  0  0  0  0  0  0  0  0  0
    8.3273    8.9449   -4.2216 H   0  0  0  0  0  0  0  0  0  0  0  0
    9.1925   10.7240   -2.5213 H   0  0  0  0  0  0  0  0  0  0  0  0
    8.0116   10.2933   -0.1859 H   0  0  0  0  0  0  0  0  0  0  0  0
    6.0591    9.7783   -1.9210 H   0  0  0  0  0  0  0  0  0  0  0  0
    6.0397    8.5297   -0.6036 H   0  0  0  0  0  0  0  0  0  0  0  0
    9.8499    8.2155   -0.4226 H   0  0  0  0  0  0  0  0  0  0  0  0
  1  2  2  3
  2  3  1  0
  3  4  2  0
  3  5  1  0
  5  6  2  0
  6  7  1  0
  7  8  2  0
  8  9  1  0
  9 10  2  0
 10 11  1  0
 11 12  2  3
 12 13  1  0
 13 14  3  0
 12 15  1  0
 15 16  3  0
  8 17  1  0
 17 18  1  0
 18 19  1  0
 19 20  2  0
 20 21  1  0
 21 22  1  0
 21 23  1  0
  1 24  1  0
 24 25  2  0
 25 26  1  0
 25 27  1  0
 27 28  1  0
 27 29  2  0
 29 30  1  0
 30 31  2  0
 31 32  1  0
 32 33  1  0
 33 34  1  0
 34 35  1  0
 35 36  1  0
 36 37  1  0
 35 38  2  0
 38 39  1  0
 39 40  1  0
 38 41  1  0
 32 42  2  0
 42 43  1  0
 43 44  2  0
 42 45  1  0
 45 46  1  0
 46 47  1  0
 47 48  1  0
 48 49  1  0
 47 50  2  0
 50 51  1  0
 50 52  1  0
 52 53  1  0
 29 54  1  0
 54 55  2  0
 55 56  1  0
 56 57  1  0
 57 58  2  0
 58 59  1  0
 59 60  2  0
 60 61  1  0
 61 62  1  0
 60 63  1  0
 63 64  2  0
 56 65  1  0
 65 66  2  0
 66 67  1  0
 67 68  2  0
 68 69  1  0
 69 70  1  0
 68 71  1  0
 71 72  2  0
 55 73  1  0
 73 74  1  0
 74 75  1  0
 75 76  2  0
 76 77  1  0
 77 78  1  0
 78 79  2  0
 79 80  1  0
 80 81  2  0
 81 82  1  0
 82 83  1  0
 81 84  1  0
 84 85  2  0
 77 86  1  0
 86 87  2  0
 87 88  1  0
 88 89  2  0
 89 90  1  0
 90 91  1  0
 89 92  1  0
 92 93  2  0
 76 94  1  0
 94 95  1  0
 75 96  1  0
 96 97  2  0
 97 98  1  0
 98 99  1  0
 99100  2  0
100101  1  0
101102  2  0
102103  1  0
103104  1  0
102105  1  0
105106  2  0
 98107  1  0
107108  2  0
108109  1  0
109110  2  0
110111  1  0
111112  1  0
110113  1  0
113114  2  0
 97115  1  0
115116  1  0
116117  1  0
117118  2  0
118119  1  0
119120  1  0
120121  2  0
121122  1  0
122123  2  0
123124  1  0
124125  1  0
123126  1  0
126127  2  0
119128  1  0
128129  2  0
129130  1  0
130131  2  0
131132  1  0
132133  1  0
131134  1  0
134135  2  0
118136  1  0
136137  1  0
117138  1  0
138139  2  3
139140  1  0
140141  2  0
140142  1  0
142143  2  0
143144  1  0
144145  2  0
145146  1  0
146147  2  0
147148  1  0
148149  2  3
149150  1  0
150151  3  0
149152  1  0
152153  3  0
145154  1  0
154155  1  0
155156  1  0
156157  2  0
157158  1  0
158159  1  0
158160  1  0
 11  2  1  0
 23 17  1  0
 44 24  1  0
 52 45  2  0
 95 54  1  0
137 96  1  0
148139  1  0
160154  1  0
 10  5  1  0
 22 18  1  0
 44 30  1  0
 64 57  1  0
 72 65  1  0
 94 73  2  0
106 99  1  0
114107  1  0
136115  2  0
147142  1  0
159155  1  0
 23  7  1  0
 39 33  2  0
 85 78  1  0
 93 86  1  0
127120  1  0
135128  1  0
160144  1  0
  1161  1  0
  6162  1  0
  9163  1  0
 17164  1  0
 18165  1  0
 19166  1  0
 20167  1  0
 21168  1  0
 22169  1  0
 22170  1  0
 23171  1  0
 36172  1  0
 36173  1  0
 37174  1  0
 37175  1  0
 37176  1  0
 48177  1  0
 48178  1  0
 49179  1  0
 49180  1  0
 49181  1  0
 58182  1  0
 59183  1  0
 62184  1  0
 62185  1  0
 62186  1  0
 63187  1  0
 64188  1  0
 66189  1  0
 67190  1  0
 70191  1  0
 70192  1  0
 70193  1  0
 71194  1  0
 72195  1  0
 79196  1  0
 80197  1  0
 83198  1  0
 83199  1  0
 83200  1  0
 84201  1  0
 85202  1  0
 87203  1  0
 88204  1  0
 91205  1  0
 91206  1  0
 91207  1  0
 92208  1  0
 93209  1  0
100210  1  0
101211  1  0
104212  1  0
104213  1  0
104214  1  0
105215  1  0
106216  1  0
108217  1  0
109218  1  0
112219  1  0
112220  1  0
112221  1  0
113222  1  0
114223  1  0
121224  1  0
122225  1  0
125226  1  0
125227  1  0
125228  1  0
126229  1  0
127230  1  0
129231  1  0
130232  1  0
133233  1  0
133234  1  0
133235  1  0
134236  1  0
135237  1  0
138238  1  0
143239  1  0
146240  1  0
154241  1  0
155242  1  0
156243  1  0
157244  1  0
158245  1  0
159246  1  0
159247  1  0
160248  1  0
M  END

