
     RDKit          3D

183201  0  0  0  0  0  0  0  0999 V2000
   -5.3751    0.3332    0.0668 C   0  0  0  0  0  0  0  0  0  0  0  0
   -6.4085   -0.1151    0.8041 C   0  0  0  0  0  0  0  0  0  0  0  0
   -6.7074    0.4760    2.1071 C   0  0  0  0  0  0  0  0  0  0  0  0
   -5.9386    1.2453    2.7553 O   0  0  0  0  0  0  0  0  0  0  0  0
   -7.9566   -0.0376    2.5905 C   0  0  0  0  0  0  0  0  0  0  0  0
   -8.5588    0.2334    3.8426 C   0  0  0  0  0  0  0  0  0  0  0  0
   -9.7929   -0.3680    4.0147 C   0  0  0  0  0  0  0  0  0  0  0  0
  -10.4079   -1.1841    3.0114 C   0  0  0  0  0  0  0  0  0  0  0  0
   -9.8021   -1.4818    1.8029 C   0  0  0  0  0  0  0  0  0  0  0  0
   -8.5157   -0.8930    1.6053 C   0  0  0  0  0  0  0  0  0  0  0  0
   -7.5608   -1.0261    0.4512 C   0  0  0  0  0  0  0  0  0  0  0  0
   -7.7755   -1.7342   -0.6942 C   0  0  0  0  0  0  0  0  0  0  0  0
   -6.8273   -1.8572   -1.7623 C   0  0  0  0  0  0  0  0  0  0  0  0
   -6.0971   -2.0159   -2.6545 N   0  0  0  0  0  0  0  0  0  0  0  0
   -8.9963   -2.4341   -0.9719 C   0  0  0  0  0  0  0  0  0  0  0  0
   -9.9779   -2.9949   -1.2298 N   0  0  0  0  0  0  0  0  0  0  0  0
  -11.5965   -1.3984    3.8953 C   0  0  0  0  0  0  0  0  0  0  0  0
  -11.7589   -2.8033    4.5527 C   0  0  0  0  0  0  0  0  0  0  0  0
  -10.3990   -3.4263    4.7772 C   0  0  0  0  0  0  0  0  0  0  0  0
   -9.7992   -2.6992    5.7297 C   0  0  0  0  0  0  0  0  0  0  0  0
  -10.7706   -1.6062    6.1137 C   0  0  0  0  0  0  0  0  0  0  0  0
  -12.0681   -2.3876    5.9815 C   0  0  0  0  0  0  0  0  0  0  0  0
  -10.9463   -0.5951    4.9364 C   0  0  0  0  0  0  0  0  0  0  0  0
   -4.4762   -0.5233   -0.7038 C   0  0  0  0  0  0  0  0  0  0  0  0
   -3.8774   -0.1537   -1.8919 C   0  0  0  0  0  0  0  0  0  0  0  0
   -2.7321   -0.8967   -2.2073 C   0  0  0  0  0  0  0  0  0  0  0  0
   -2.0613   -0.7210   -3.5076 C   0  0  0  0  0  0  0  0  0  0  0  0
   -1.4777    0.5166   -3.8546 C   0  0  0  0  0  0  0  0  0  0  0  0
   -1.3834    1.5164   -2.8666 O   0  0  0  0  0  0  0  0  0  0  0  0
   -0.7224    2.7745   -3.0249 C   0  0  0  0  0  0  0  0  0  0  0  0
   -1.6209    3.7793   -3.7426 C   0  0  0  0  0  0  0  0  0  0  0  0
   -0.9966    0.6989   -5.1645 C   0  0  0  0  0  0  0  0  0  0  0  0
   -1.1009   -0.3251   -6.1030 C   0  0  0  0  0  0  0  0  0  0  0  0
   -1.6178   -1.5646   -5.7417 C   0  0  0  0  0  0  0  0  0  0  0  0
   -2.0946   -1.7821   -4.4374 C   0  0  0  0  0  0  0  0  0  0  0  0
   -2.6336   -3.0191   -4.0313 O   0  0  0  0  0  0  0  0  0  0  0  0
   -2.4446   -4.2628   -4.7028 C   0  0  0  0  0  0  0  0  0  0  0  0
   -1.0001   -4.7350   -4.5556 C   0  0  0  0  0  0  0  0  0  0  0  0
   -2.3546   -1.8140   -1.2195 C   0  0  0  0  0  0  0  0  0  0  0  0
   -3.5237   -1.7081   -0.0079 S   0  0  0  0  0  0  0  0  0  0  0  0
   -0.9659   -2.2884   -0.9599 C   0  0  0  0  0  0  0  0  0  0  0  0
   -0.4450   -2.4689    0.3364 C   0  0  0  0  0  0  0  0  0  0  0  0
   -1.1716   -3.0773    1.4173 N   0  0  0  0  0  0  0  0  0  0  0  0
   -1.5429   -2.3257    2.6009 C   0  0  0  0  0  0  0  0  0  0  0  0
   -1.2513   -0.9535    2.7140 C   0  0  0  0  0  0  0  0  0  0  0  0
   -1.6050   -0.2401    3.8595 C   0  0  0  0  0  0  0  0  0  0  0  0
   -2.2850   -0.8743    4.9023 C   0  0  0  0  0  0  0  0  0  0  0  0
   -2.7679    0.0488    6.3645 S   0  0  0  0  0  0  0  0  0  0  0  0
   -4.3715    0.5423    5.6637 C   0  0  0  0  0  0  0  0  0  0  0  0
   -2.6119   -2.2296    4.7943 C   0  0  0  0  0  0  0  0  0  0  0  0
   -2.2503   -2.9478    3.6536 C   0  0  0  0  0  0  0  0  0  0  0  0
   -1.1961   -4.5165    1.4014 C   0  0  0  0  0  0  0  0  0  0  0  0
   -1.9305   -5.2051    0.4186 C   0  0  0  0  0  0  0  0  0  0  0  0
   -1.8501   -6.5997    0.3310 C   0  0  0  0  0  0  0  0  0  0  0  0
   -1.0110   -7.3092    1.1948 C   0  0  0  0  0  0  0  0  0  0  0  0
   -0.8348   -9.0865    1.0276 S   0  0  0  0  0  0  0  0  0  0  0  0
    0.5139   -8.9719   -0.1931 C   0  0  0  0  0  0  0  0  0  0  0  0
   -0.2753   -6.6251    2.1707 C   0  0  0  0  0  0  0  0  0  0  0  0
   -0.3770   -5.2386    2.2812 C   0  0  0  0  0  0  0  0  0  0  0  0
    0.9393   -2.3436    0.3579 C   0  0  0  0  0  0  0  0  0  0  0  0
    2.0315   -2.0385    1.5867 S   0  0  0  0  0  0  0  0  0  0  0  0
    3.3415   -1.7478    0.5377 C   0  0  0  0  0  0  0  0  0  0  0  0
    2.9065   -1.9187   -0.7955 C   0  0  0  0  0  0  0  0  0  0  0  0
    3.7958   -2.1549   -1.9042 N   0  0  0  0  0  0  0  0  0  0  0  0
    3.4775   -1.6829   -3.2257 C   0  0  0  0  0  0  0  0  0  0  0  0
    3.6208   -0.3216   -3.5462 C   0  0  0  0  0  0  0  0  0  0  0  0
    3.6144    0.0851   -4.8873 C   0  0  0  0  0  0  0  0  0  0  0  0
    3.4677   -0.8629   -5.9110 C   0  0  0  0  0  0  0  0  0  0  0  0
    3.6785   -0.3905   -7.6312 S   0  0  0  0  0  0  0  0  0  0  0  0
    1.9033   -0.1226   -7.9160 C   0  0  0  0  0  0  0  0  0  0  0  0
    3.2444   -2.2059   -5.5878 C   0  0  0  0  0  0  0  0  0  0  0  0
    3.2519   -2.6113   -4.2516 C   0  0  0  0  0  0  0  0  0  0  0  0
    4.8533   -3.1373   -1.7742 C   0  0  0  0  0  0  0  0  0  0  0  0
    6.0437   -3.0015   -2.5144 C   0  0  0  0  0  0  0  0  0  0  0  0
    7.0466   -3.9708   -2.4307 C   0  0  0  0  0  0  0  0  0  0  0  0
    6.8828   -5.0771   -1.5907 C   0  0  0  0  0  0  0  0  0  0  0  0
    8.1174   -6.3709   -1.5636 S   0  0  0  0  0  0  0  0  0  0  0  0
    9.1176   -5.5870   -0.2626 C   0  0  0  0  0  0  0  0  0  0  0  0
    5.7092   -5.2209   -0.8402 C   0  0  0  0  0  0  0  0  0  0  0  0
    4.6999   -4.2585   -0.9351 C   0  0  0  0  0  0  0  0  0  0  0  0
    1.5420   -2.1891   -0.8415 C   0  0  0  0  0  0  0  0  0  0  0  0
    0.3585   -2.0925   -2.0292 S   0  0  0  0  0  0  0  0  0  0  0  0
    4.4558   -0.8535    0.9007 C   0  0  0  0  0  0  0  0  0  0  0  0
    5.7796   -0.9754    0.5005 C   0  0  0  0  0  0  0  0  0  0  0  0
    6.5236    0.1996    0.6934 C   0  0  0  0  0  0  0  0  0  0  0  0
    8.2517    0.3142    0.2144 S   0  0  0  0  0  0  0  0  0  0  0  0
    7.9078    0.6625   -1.5441 C   0  0  0  0  0  0  0  0  0  0  0  0
    7.5062    2.1184   -1.7498 C   0  0  0  0  0  0  0  0  0  0  0  0
    5.7784    1.2587    1.2052 C   0  0  0  0  0  0  0  0  0  0  0  0
    4.2173    0.7013    1.4781 S   0  0  0  0  0  0  0  0  0  0  0  0
    6.3232    2.5805    1.5806 C   0  0  0  0  0  0  0  0  0  0  0  0
    5.6770    3.7548    1.4565 C   0  0  0  0  0  0  0  0  0  0  0  0
    4.5301    4.0164    0.5636 C   0  0  0  0  0  0  0  0  0  0  0  0
    3.8355    3.1561   -0.0446 O   0  0  0  0  0  0  0  0  0  0  0  0
    4.4141    5.4414    0.3576 C   0  0  0  0  0  0  0  0  0  0  0  0
    3.5214    6.0872   -0.5321 C   0  0  0  0  0  0  0  0  0  0  0  0
    3.7013    7.4534   -0.6023 C   0  0  0  0  0  0  0  0  0  0  0  0
    4.7022    8.1506    0.1411 C   0  0  0  0  0  0  0  0  0  0  0  0
    5.5874    7.5275    1.0032 C   0  0  0  0  0  0  0  0  0  0  0  0
    5.4240    6.1100    1.0958 C   0  0  0  0  0  0  0  0  0  0  0  0
    6.2092    5.1022    1.8642 C   0  0  0  0  0  0  0  0  0  0  0  0
    7.1271    5.3540    2.8425 C   0  0  0  0  0  0  0  0  0  0  0  0
    7.6301    6.6668    3.1363 C   0  0  0  0  0  0  0  0  0  0  0  0
    8.0720    7.7060    3.3791 N   0  0  0  0  0  0  0  0  0  0  0  0
    7.6986    4.3077    3.6547 C   0  0  0  0  0  0  0  0  0  0  0  0
    8.1934    3.4828    4.3071 N   0  0  0  0  0  0  0  0  0  0  0  0
    4.2963    9.4480   -0.4967 C   0  0  0  0  0  0  0  0  0  0  0  0
    5.2286   10.0344   -1.6029 C   0  0  0  0  0  0  0  0  0  0  0  0
    5.9360    8.9170   -2.3383 C   0  0  0  0  0  0  0  0  0  0  0  0
    5.0005    8.2579   -3.0265 C   0  0  0  0  0  0  0  0  0  0  0  0
    3.6916    8.9561   -2.7460 C   0  0  0  0  0  0  0  0  0  0  0  0
    4.1944   10.3821   -2.6617 C   0  0  0  0  0  0  0  0  0  0  0  0
    3.2725    8.7325   -1.2591 C   0  0  0  0  0  0  0  0  0  0  0  0
   -4.9055    1.2567    0.3678 H   0  0  0  0  0  0  0  0  0  0  0  0
   -8.1040    0.8615    4.6009 H   0  0  0  0  0  0  0  0  0  0  0  0
  -10.3122   -2.1253    1.1124 H   0  0  0  0  0  0  0  0  0  0  0  0
  -12.5405   -0.9472    3.5061 H   0  0  0  0  0  0  0  0  0  0  0  0
  -12.5100   -3.4720    4.0852 H   0  0  0  0  0  0  0  0  0  0  0  0
  -10.0035   -4.3220    4.3185 H   0  0  0  0  0  0  0  0  0  0  0  0
   -8.8316   -2.9195    6.1794 H   0  0  0  0  0  0  0  0  0  0  0  0
  -10.5981   -1.1459    7.1068 H   0  0  0  0  0  0  0  0  0  0  0  0
  -12.1372   -3.2483    6.6912 H   0  0  0  0  0  0  0  0  0  0  0  0
  -12.9831   -1.7523    6.0739 H   0  0  0  0  0  0  0  0  0  0  0  0
  -11.5023    0.3292    5.1858 H   0  0  0  0  0  0  0  0  0  0  0  0
   -4.2529    0.6498   -2.5141 H   0  0  0  0  0  0  0  0  0  0  0  0
    0.2442    2.6473   -3.5562 H   0  0  0  0  0  0  0  0  0  0  0  0
   -0.4866    3.1759   -2.0145 H   0  0  0  0  0  0  0  0  0  0  0  0
   -1.9834    3.3659   -4.7062 H   0  0  0  0  0  0  0  0  0  0  0  0
   -2.4904    4.0457   -3.1012 H   0  0  0  0  0  0  0  0  0  0  0  0
   -1.0422    4.7022   -3.9562 H   0  0  0  0  0  0  0  0  0  0  0  0
   -0.5588    1.6345   -5.4759 H   0  0  0  0  0  0  0  0  0  0  0  0
   -0.7934   -0.1475   -7.1211 H   0  0  0  0  0  0  0  0  0  0  0  0
   -1.6641   -2.3361   -6.4973 H   0  0  0  0  0  0  0  0  0  0  0  0
   -2.7338   -4.1857   -5.7767 H   0  0  0  0  0  0  0  0  0  0  0  0
   -3.1087   -5.0204   -4.2335 H   0  0  0  0  0  0  0  0  0  0  0  0
   -0.7069   -4.7108   -3.4846 H   0  0  0  0  0  0  0  0  0  0  0  0
   -0.9051   -5.7764   -4.9285 H   0  0  0  0  0  0  0  0  0  0  0  0
   -0.3144   -4.0796   -5.1356 H   0  0  0  0  0  0  0  0  0  0  0  0
   -0.7539   -0.4273    1.9140 H   0  0  0  0  0  0  0  0  0  0  0  0
   -1.3542    0.8111    3.9425 H   0  0  0  0  0  0  0  0  0  0  0  0
   -4.9751   -0.3596    5.4165 H   0  0  0  0  0  0  0  0  0  0  0  0
   -4.9234    1.1609    6.4036 H   0  0  0  0  0  0  0  0  0  0  0  0
   -4.2019    1.1414    4.7463 H   0  0  0  0  0  0  0  0  0  0  0  0
   -3.1526   -2.7306    5.5898 H   0  0  0  0  0  0  0  0  0  0  0  0
   -2.5467   -3.9872    3.5919 H   0  0  0  0  0  0  0  0  0  0  0  0
   -2.5538   -4.6635   -0.2799 H   0  0  0  0  0  0  0  0  0  0  0  0
   -2.4218   -7.1173   -0.4325 H   0  0  0  0  0  0  0  0  0  0  0  0
    0.8968   -9.9934   -0.4124 H   0  0  0  0  0  0  0  0  0  0  0  0
    1.3427   -8.3445    0.2015 H   0  0  0  0  0  0  0  0  0  0  0  0
    0.1305   -8.5225   -1.1302 H   0  0  0  0  0  0  0  0  0  0  0  0
    0.3786   -7.1732    2.8332 H   0  0  0  0  0  0  0  0  0  0  0  0
    0.2121   -4.7173    3.0224 H   0  0  0  0  0  0  0  0  0  0  0  0
    3.8103    0.4069   -2.7665 H   0  0  0  0  0  0  0  0  0  0  0  0
    3.7855    1.1276   -5.1354 H   0  0  0  0  0  0  0  0  0  0  0  0
    1.3323   -1.0425   -7.6585 H   0  0  0  0  0  0  0  0  0  0  0  0
    1.7330    0.1136   -8.9879 H   0  0  0  0  0  0  0  0  0  0  0  0
    1.5570    0.7301   -7.2908 H   0  0  0  0  0  0  0  0  0  0  0  0
    3.1240   -2.9408   -6.3698 H   0  0  0  0  0  0  0  0  0  0  0  0
    3.1332   -3.6600   -4.0188 H   0  0  0  0  0  0  0  0  0  0  0  0
    6.2013   -2.1418   -3.1469 H   0  0  0  0  0  0  0  0  0  0  0  0
    7.9572   -3.8576   -3.0068 H   0  0  0  0  0  0  0  0  0  0  0  0
    8.5229   -5.4828    0.6704 H   0  0  0  0  0  0  0  0  0  0  0  0
    9.4638   -4.5869   -0.6002 H   0  0  0  0  0  0  0  0  0  0  0  0
   10.0032   -6.2233   -0.0615 H   0  0  0  0  0  0  0  0  0  0  0  0
    5.5674   -6.0825   -0.2011 H   0  0  0  0  0  0  0  0  0  0  0  0
    3.7934   -4.4060   -0.3663 H   0  0  0  0  0  0  0  0  0  0  0  0
    6.2141   -1.8799    0.1239 H   0  0  0  0  0  0  0  0  0  0  0  0
    8.8215    0.4545   -2.1384 H   0  0  0  0  0  0  0  0  0  0  0  0
    7.0940    0.0136   -1.9206 H   0  0  0  0  0  0  0  0  0  0  0  0
    8.2519    2.8115   -1.3018 H   0  0  0  0  0  0  0  0  0  0  0  0
    6.5004    2.3027   -1.3112 H   0  0  0  0  0  0  0  0  0  0  0  0
    7.4382    2.3329   -2.8465 H   0  0  0  0  0  0  0  0  0  0  0  0
    7.3558    2.5852    1.8814 H   0  0  0  0  0  0  0  0  0  0  0  0
    2.7896    5.5597   -1.1303 H   0  0  0  0  0  0  0  0  0  0  0  0
    6.3360    8.1092    1.5162 H   0  0  0  0  0  0  0  0  0  0  0  0
    3.8852   10.2008    0.2155 H   0  0  0  0  0  0  0  0  0  0  0  0
    5.8846   10.8735   -1.2847 H   0  0  0  0  0  0  0  0  0  0  0  0
    7.0025    8.7226   -2.3757 H   0  0  0  0  0  0  0  0  0  0  0  0
    5.1757    7.4377   -3.7158 H   0  0  0  0  0  0  0  0  0  0  0  0
    2.8957    8.7652   -3.4966 H   0  0  0  0  0  0  0  0  0  0  0  0
    3.4213   11.1015   -2.3083 H   0  0  0  0  0  0  0  0  0  0  0  0
    4.6443   10.7566   -3.6190 H   0  0  0  0  0  0  0  0  0  0  0  0
    2.2342    9.0424   -1.0117 H   0  0  0  0  0  0  0  0  0  0  0  0
  1  2  2  3
  2  3  1  0
  3  4  2  0
  3  5  1  0
  5  6  2  0
  6  7  1  0
  7  8  2  0
  8  9  1  0
  9 10  2  0
 10 11  1  0
 11 12  2  3
 12 13  1  0
 13 14  3  0
 12 15  1  0
 15 16  3  0
  8 17  1  0
 17 18  1  0
 18 19  1  0
 19 20  2  0
 20 21  1  0
 21 22  1  0
 21 23  1  0
  1 24  1  0
 24 25  2  0
 25 26  1  0
 26 27  1  0
 27 28  2  0
 28 29  1  0
 29 30  1  0
 30 31  1  0
 28 32  1  0
 32 33  2  0
 33 34  1  0
 34 35  2  0
 35 36  1  0
 36 37  1  0
 37 38  1  0
 26 39  2  0
 39 40  1  0
 39 41  1  0
 41 42  2  0
 42 43  1  0
 43 44  1  0
 44 45  2  0
 45 46  1  0
 46 47  2  0
 47 48  1  0
 48 49  1  0
 47 50  1  0
 50 51  2  0
 43 52  1  0
 52 53  2  0
 53 54  1  0
 54 55  2  0
 55 56  1  0
 56 57  1  0
 55 58  1  0
 58 59  2  0
 42 60  1  0
 60 61  1  0
 61 62  1  0
 62 63  2  0
 63 64  1  0
 64 65  1  0
 65 66  2  0
 66 67  1  0
 67 68  2  0
 68 69  1  0
 69 70  1  0
 68 71  1  0
 71 72  2  0
 64 73  1  0
 73 74  2  0
 74 75  1  0
 75 76  2  0
 76 77  1  0
 77 78  1  0
 76 79  1  0
 79 80  2  0
 63 81  1  0
 81 82  1  0
 62 83  1  0
 83 84  2  0
 84 85  1  0
 85 86  1  0
 86 87  1  0
 87 88  1  0
 85 89  2  0
 89 90  1  0
 89 91  1  0
 91 92  2  3
 92 93  1  0
 93 94  2  0
 93 95  1  0
 95 96  2  0
 96 97  1  0
 97 98  2  0
 98 99  1  0
 99100  2  0
100101  1  0
101102  2  3
102103  1  0
103104  3  0
102105  1  0
105106  3  0
 98107  1  0
107108  1  0
108109  1  0
109110  2  0
110111  1  0
111112  1  0
111113  1  0
 11  2  1  0
 23 17  1  0
 40 24  1  0
 82 41  1  0
 90 83  1  0
101 92  1  0
113107  1  0
 10  5  1  0
 22 18  1  0
 35 27  1  0
 51 44  1  0
 59 52  1  0
 81 60  2  0
100 95  1  0
112108  1  0
 23  7  1  0
 72 65  1  0
 80 73  1  0
113 97  1  0
  1114  1  0
  6115  1  0
  9116  1  0
 17117  1  0
 18118  1  0
 19119  1  0
 20120  1  0
 21121  1  0
 22122  1  0
 22123  1  0
 23124  1  0
 25125  1  0
 30126  1  0
 30127  1  0
 31128  1  0
 31129  1  0
 31130  1  0
 32131  1  0
 33132  1  0
 34133  1  0
 37134  1  0
 37135  1  0
 38136  1  0
 38137  1  0
 38138  1  0
 45139  1  0
 46140  1  0
 49141  1  0
 49142  1  0
 49143  1  0
 50144  1  0
 51145  1  0
 53146  1  0
 54147  1  0
 57148  1  0
 57149  1  0
 57150  1  0
 58151  1  0
 59152  1  0
 66153  1  0
 67154  1  0
 70155  1  0
 70156  1  0
 70157  1  0
 71158  1  0
 72159  1  0
 74160  1  0
 75161  1  0
 78162  1  0
 78163  1  0
 78164  1  0
 79165  1  0
 80166  1  0
 84167  1  0
 87168  1  0
 87169  1  0
 88170  1  0
 88171  1  0
 88172  1  0
 91173  1  0
 96174  1  0
 99175  1  0
107176  1  0
108177  1  0
109178  1  0
110179  1  0
111180  1  0
112181  1  0
112182  1  0
113183  1  0
M  END

