
     RDKit          3D

234258  0  0  0  0  0  0  0  0999 V2000
   -5.5331    5.7731    2.4743 C   0  0  0  0  0  0  0  0  0  0  0  0
   -5.2562    5.7431    3.7887 C   0  0  0  0  0  0  0  0  0  0  0  0
   -4.1736    4.9807    4.4108 C   0  0  0  0  0  0  0  0  0  0  0  0
   -3.6669    3.9132    3.9719 O   0  0  0  0  0  0  0  0  0  0  0  0
   -3.7958    5.6441    5.6387 C   0  0  0  0  0  0  0  0  0  0  0  0
   -2.6339    5.4098    6.4109 C   0  0  0  0  0  0  0  0  0  0  0  0
   -2.4095    6.3719    7.3745 C   0  0  0  0  0  0  0  0  0  0  0  0
   -3.2772    7.4916    7.5892 C   0  0  0  0  0  0  0  0  0  0  0  0
   -4.4306    7.7104    6.8548 C   0  0  0  0  0  0  0  0  0  0  0  0
   -4.6852    6.7297    5.8604 C   0  0  0  0  0  0  0  0  0  0  0  0
   -5.7356    6.7152    4.8120 C   0  0  0  0  0  0  0  0  0  0  0  0
   -6.9687    7.2691    4.8909 C   0  0  0  0  0  0  0  0  0  0  0  0
   -7.3873    8.0378    6.0351 C   0  0  0  0  0  0  0  0  0  0  0  0
   -7.7355    8.6584    6.9493 N   0  0  0  0  0  0  0  0  0  0  0  0
   -8.0006    6.9729    3.9286 C   0  0  0  0  0  0  0  0  0  0  0  0
   -8.8309    6.7322    3.1598 N   0  0  0  0  0  0  0  0  0  0  0  0
   -2.3705    8.0053    8.6693 C   0  0  0  0  0  0  0  0  0  0  0  0
   -2.8536    7.8110   10.1363 C   0  0  0  0  0  0  0  0  0  0  0  0
   -1.6325    8.0346   10.9990 C   0  0  0  0  0  0  0  0  0  0  0  0
   -0.8251    6.9898   10.7919 C   0  0  0  0  0  0  0  0  0  0  0  0
   -1.5221    6.0920    9.8004 C   0  0  0  0  0  0  0  0  0  0  0  0
   -2.9549    6.2999   10.2652 C   0  0  0  0  0  0  0  0  0  0  0  0
   -1.4827    6.8611    8.4459 C   0  0  0  0  0  0  0  0  0  0  0  0
   -4.7233    5.0791    1.4623 C   0  0  0  0  0  0  0  0  0  0  0  0
   -3.3510    5.2869    1.2080 C   0  0  0  0  0  0  0  0  0  0  0  0
   -2.5178    6.2809    1.8337 N   0  0  0  0  0  0  0  0  0  0  0  0
   -2.4218    7.5615    1.1760 C   0  0  0  0  0  0  0  0  0  0  0  0
   -1.1887    7.9941    0.6564 C   0  0  0  0  0  0  0  0  0  0  0  0
   -1.0890    9.2220    0.0004 C   0  0  0  0  0  0  0  0  0  0  0  0
   -2.2234   10.0322   -0.1416 C   0  0  0  0  0  0  0  0  0  0  0  0
   -2.0900   11.6179   -0.9609 S   0  0  0  0  0  0  0  0  0  0  0  0
   -2.5921   10.9523   -2.5813 C   0  0  0  0  0  0  0  0  0  0  0  0
   -3.4505    9.6121    0.3744 C   0  0  0  0  0  0  0  0  0  0  0  0
   -3.5520    8.3754    1.0256 C   0  0  0  0  0  0  0  0  0  0  0  0
   -1.5063    5.9112    2.7999 C   0  0  0  0  0  0  0  0  0  0  0  0
   -1.0596    6.8589    3.7415 C   0  0  0  0  0  0  0  0  0  0  0  0
   -0.0250    6.5513    4.6255 C   0  0  0  0  0  0  0  0  0  0  0  0
    0.5893    5.2967    4.5792 C   0  0  0  0  0  0  0  0  0  0  0  0
    1.9433    4.9197    5.6943 S   0  0  0  0  0  0  0  0  0  0  0  0
    3.2213    5.5255    4.5462 C   0  0  0  0  0  0  0  0  0  0  0  0
    0.1367    4.3330    3.6731 C   0  0  0  0  0  0  0  0  0  0  0  0
   -0.9079    4.6341    2.7946 C   0  0  0  0  0  0  0  0  0  0  0  0
   -2.9539    4.5829    0.0814 C   0  0  0  0  0  0  0  0  0  0  0  0
   -1.5171    4.4527   -0.7596 S   0  0  0  0  0  0  0  0  0  0  0  0
   -2.1388    3.3821   -1.9307 C   0  0  0  0  0  0  0  0  0  0  0  0
   -3.5059    3.1568   -1.6618 C   0  0  0  0  0  0  0  0  0  0  0  0
   -4.4212    2.4209   -2.4969 N   0  0  0  0  0  0  0  0  0  0  0  0
   -4.5733    0.9921   -2.3345 C   0  0  0  0  0  0  0  0  0  0  0  0
   -4.4365    0.3847   -1.0690 C   0  0  0  0  0  0  0  0  0  0  0  0
   -4.5832   -0.9989   -0.9313 C   0  0  0  0  0  0  0  0  0  0  0  0
   -4.8477   -1.7996   -2.0514 C   0  0  0  0  0  0  0  0  0  0  0  0
   -4.9704   -3.5779   -1.8764 S   0  0  0  0  0  0  0  0  0  0  0  0
   -6.7806   -3.5689   -1.6837 C   0  0  0  0  0  0  0  0  0  0  0  0
   -4.9721   -1.2034   -3.3115 C   0  0  0  0  0  0  0  0  0  0  0  0
   -4.8471    0.1829   -3.4509 C   0  0  0  0  0  0  0  0  0  0  0  0
   -5.3456    3.1783   -3.3051 C   0  0  0  0  0  0  0  0  0  0  0  0
   -6.7169    2.8491   -3.3267 C   0  0  0  0  0  0  0  0  0  0  0  0
   -7.6255    3.6597   -4.0052 C   0  0  0  0  0  0  0  0  0  0  0  0
   -7.1820    4.8171   -4.6624 C   0  0  0  0  0  0  0  0  0  0  0  0
   -8.3692    5.9102   -5.4449 S   0  0  0  0  0  0  0  0  0  0  0  0
   -8.6419    6.8848   -3.9303 C   0  0  0  0  0  0  0  0  0  0  0  0
   -5.8217    5.1334   -4.6755 C   0  0  0  0  0  0  0  0  0  0  0  0
   -4.9084    4.3208   -3.9990 C   0  0  0  0  0  0  0  0  0  0  0  0
   -3.9154    3.8562   -0.5288 C   0  0  0  0  0  0  0  0  0  0  0  0
   -5.3790    4.0550    0.2648 S   0  0  0  0  0  0  0  0  0  0  0  0
   -1.2867    2.7137   -2.9302 C   0  0  0  0  0  0  0  0  0  0  0  0
    0.1085    2.7813   -2.9243 C   0  0  0  0  0  0  0  0  0  0  0  0
    0.7172    1.7544   -3.6583 C   0  0  0  0  0  0  0  0  0  0  0  0
    2.0794    1.3954   -3.5732 C   0  0  0  0  0  0  0  0  0  0  0  0
    3.0319    2.1872   -2.9261 O   0  0  0  0  0  0  0  0  0  0  0  0
    3.3899    3.4809   -3.3917 C   0  0  0  0  0  0  0  0  0  0  0  0
    4.4470    4.0675   -2.4705 C   0  0  0  0  0  0  0  0  0  0  0  0
    2.4285    0.1285   -4.0458 C   0  0  0  0  0  0  0  0  0  0  0  0
    1.4983   -0.7457   -4.6093 C   0  0  0  0  0  0  0  0  0  0  0  0
    0.1595   -0.3659   -4.7711 C   0  0  0  0  0  0  0  0  0  0  0  0
   -0.7845   -1.2727   -5.2694 O   0  0  0  0  0  0  0  0  0  0  0  0
   -1.6609   -0.9827   -6.3515 C   0  0  0  0  0  0  0  0  0  0  0  0
   -0.9327   -1.2054   -7.6732 C   0  0  0  0  0  0  0  0  0  0  0  0
   -0.2074    0.9030   -4.2777 C   0  0  0  0  0  0  0  0  0  0  0  0
   -1.7570    1.4101   -3.8933 S   0  0  0  0  0  0  0  0  0  0  0  0
    1.9769   -2.0503   -4.7511 C   0  0  0  0  0  0  0  0  0  0  0  0
    3.2746   -2.2101   -4.2599 C   0  0  0  0  0  0  0  0  0  0  0  0
    3.8380   -0.7192   -3.6946 S   0  0  0  0  0  0  0  0  0  0  0  0
    3.7272   -3.4664   -3.6650 C   0  0  0  0  0  0  0  0  0  0  0  0
    3.1007   -4.0906   -2.5757 C   0  0  0  0  0  0  0  0  0  0  0  0
    1.8742   -3.6482   -1.9700 N   0  0  0  0  0  0  0  0  0  0  0  0
    1.8706   -2.4079   -1.2297 C   0  0  0  0  0  0  0  0  0  0  0  0
    2.9636   -2.0626   -0.4134 C   0  0  0  0  0  0  0  0  0  0  0  0
    2.9959   -0.8322    0.2455 C   0  0  0  0  0  0  0  0  0  0  0  0
    1.9375    0.0734    0.1115 C   0  0  0  0  0  0  0  0  0  0  0  0
    2.0073    1.4154    0.7759 C   0  0  0  0  0  0  0  0  0  0  0  0
    0.8474   -0.2568   -0.7119 C   0  0  0  0  0  0  0  0  0  0  0  0
    0.8096   -1.4920   -1.3659 C   0  0  0  0  0  0  0  0  0  0  0  0
    0.6641   -4.4092   -2.1908 C   0  0  0  0  0  0  0  0  0  0  0  0
    0.4733   -5.1157   -3.3963 C   0  0  0  0  0  0  0  0  0  0  0  0
   -0.7132   -5.8075   -3.6353 C   0  0  0  0  0  0  0  0  0  0  0  0
   -1.7270   -5.8335   -2.6705 C   0  0  0  0  0  0  0  0  0  0  0  0
   -3.0124   -6.5512   -2.9573 C   0  0  0  0  0  0  0  0  0  0  0  0
   -1.5370   -5.1568   -1.4544 C   0  0  0  0  0  0  0  0  0  0  0  0
   -0.3483   -4.4556   -1.2153 C   0  0  0  0  0  0  0  0  0  0  0  0
    3.7736   -5.2412   -2.2005 C   0  0  0  0  0  0  0  0  0  0  0  0
    3.5178   -6.4117   -1.0358 S   0  0  0  0  0  0  0  0  0  0  0  0
    4.8743   -7.3411   -1.4980 C   0  0  0  0  0  0  0  0  0  0  0  0
    5.4938   -6.7398   -2.6102 C   0  0  0  0  0  0  0  0  0  0  0  0
    6.4800   -7.3813   -3.4335 N   0  0  0  0  0  0  0  0  0  0  0  0
    6.1771   -7.6709   -4.8184 C   0  0  0  0  0  0  0  0  0  0  0  0
    4.8560   -7.9478   -5.2169 C   0  0  0  0  0  0  0  0  0  0  0  0
    4.5476   -8.1598   -6.5637 C   0  0  0  0  0  0  0  0  0  0  0  0
    5.5562   -8.1224   -7.5325 C   0  0  0  0  0  0  0  0  0  0  0  0
    5.2054   -8.2954   -8.9813 C   0  0  0  0  0  0  0  0  0  0  0  0
    6.8767   -7.8485   -7.1458 C   0  0  0  0  0  0  0  0  0  0  0  0
    7.1861   -7.6304   -5.8011 C   0  0  0  0  0  0  0  0  0  0  0  0
    7.7632   -7.7047   -2.8704 C   0  0  0  0  0  0  0  0  0  0  0  0
    8.2474   -9.0216   -2.9160 C   0  0  0  0  0  0  0  0  0  0  0  0
    9.4888   -9.3345   -2.3609 C   0  0  0  0  0  0  0  0  0  0  0  0
   10.2784   -8.3277   -1.7750 C   0  0  0  0  0  0  0  0  0  0  0  0
   11.5971   -8.6702   -1.1509 C   0  0  0  0  0  0  0  0  0  0  0  0
    9.7920   -7.0134   -1.7289 C   0  0  0  0  0  0  0  0  0  0  0  0
    8.5411   -6.7041   -2.2745 C   0  0  0  0  0  0  0  0  0  0  0  0
    4.8621   -5.5460   -2.9512 C   0  0  0  0  0  0  0  0  0  0  0  0
    5.0910   -4.3761   -4.1466 S   0  0  0  0  0  0  0  0  0  0  0  0
    5.1905   -8.6735   -0.9509 C   0  0  0  0  0  0  0  0  0  0  0  0
    4.9375   -9.0428    0.3159 C   0  0  0  0  0  0  0  0  0  0  0  0
    4.6418  -10.4275    0.6874 C   0  0  0  0  0  0  0  0  0  0  0  0
    4.8999  -11.4471   -0.0044 O   0  0  0  0  0  0  0  0  0  0  0  0
    3.8894  -10.4161    1.9266 C   0  0  0  0  0  0  0  0  0  0  0  0
    3.2574  -11.5098    2.5612 C   0  0  0  0  0  0  0  0  0  0  0  0
    2.5191  -11.1597    3.6789 C   0  0  0  0  0  0  0  0  0  0  0  0
    2.3948   -9.8061    4.1438 C   0  0  0  0  0  0  0  0  0  0  0  0
    3.0052   -8.7324    3.5217 C   0  0  0  0  0  0  0  0  0  0  0  0
    3.7948   -9.0782    2.3903 C   0  0  0  0  0  0  0  0  0  0  0  0
    4.5754   -8.1948    1.4884 C   0  0  0  0  0  0  0  0  0  0  0  0
    5.1654   -7.0250    1.8497 C   0  0  0  0  0  0  0  0  0  0  0  0
    6.2041   -6.4188    1.0534 C   0  0  0  0  0  0  0  0  0  0  0  0
    7.0346   -5.9132    0.4263 N   0  0  0  0  0  0  0  0  0  0  0  0
    4.9291   -6.3996    3.1218 C   0  0  0  0  0  0  0  0  0  0  0  0
    4.7487   -5.8944    4.1454 N   0  0  0  0  0  0  0  0  0  0  0  0
    1.4955  -10.2494    5.2580 C   0  0  0  0  0  0  0  0  0  0  0  0
   -0.0214   -9.9412    5.0919 C   0  0  0  0  0  0  0  0  0  0  0  0
   -0.7334  -10.8035    6.1074 C   0  0  0  0  0  0  0  0  0  0  0  0
   -0.6210  -12.0675    5.6715 C   0  0  0  0  0  0  0  0  0  0  0  0
    0.1615  -12.0117    4.3831 C   0  0  0  0  0  0  0  0  0  0  0  0
   -0.3929  -10.7061    3.8332 C   0  0  0  0  0  0  0  0  0  0  0  0
    1.6179  -11.6330    4.7825 C   0  0  0  0  0  0  0  0  0  0  0  0
   -6.3124    6.4187    2.0984 H   0  0  0  0  0  0  0  0  0  0  0  0
   -1.9455    4.6019    6.2142 H   0  0  0  0  0  0  0  0  0  0  0  0
   -5.0257    8.5993    6.9994 H   0  0  0  0  0  0  0  0  0  0  0  0
   -1.9186    8.9917    8.4353 H   0  0  0  0  0  0  0  0  0  0  0  0
   -3.7578    8.3869   10.4249 H   0  0  0  0  0  0  0  0  0  0  0  0
   -1.4728    8.8369   11.7127 H   0  0  0  0  0  0  0  0  0  0  0  0
    0.1109    6.7988   11.3094 H   0  0  0  0  0  0  0  0  0  0  0  0
   -1.1657    5.0425    9.7679 H   0  0  0  0  0  0  0  0  0  0  0  0
   -3.7211    5.8351    9.6082 H   0  0  0  0  0  0  0  0  0  0  0  0
   -3.1313    5.9553   11.3138 H   0  0  0  0  0  0  0  0  0  0  0  0
   -0.4710    7.1233    8.0673 H   0  0  0  0  0  0  0  0  0  0  0  0
   -0.3082    7.3691    0.7525 H   0  0  0  0  0  0  0  0  0  0  0  0
   -0.1326    9.5406   -0.3935 H   0  0  0  0  0  0  0  0  0  0  0  0
   -1.8609   10.1900   -2.9236 H   0  0  0  0  0  0  0  0  0  0  0  0
   -3.6016   10.4935   -2.5070 H   0  0  0  0  0  0  0  0  0  0  0  0
   -2.6285   11.7778   -3.3222 H   0  0  0  0  0  0  0  0  0  0  0  0
   -4.3313   10.2325    0.2615 H   0  0  0  0  0  0  0  0  0  0  0  0
   -4.5111    8.0712    1.4187 H   0  0  0  0  0  0  0  0  0  0  0  0
   -1.5125    7.8396    3.7793 H   0  0  0  0  0  0  0  0  0  0  0  0
    0.3140    7.2976    5.3360 H   0  0  0  0  0  0  0  0  0  0  0  0
    3.0709    6.6070    4.3487 H   0  0  0  0  0  0  0  0  0  0  0  0
    4.2220    5.3842    5.0067 H   0  0  0  0  0  0  0  0  0  0  0  0
    3.1837    4.9604    3.5911 H   0  0  0  0  0  0  0  0  0  0  0  0
    0.6019    3.3516    3.6404 H   0  0  0  0  0  0  0  0  0  0  0  0
   -1.2208    3.8739    2.0932 H   0  0  0  0  0  0  0  0  0  0  0  0
   -4.2357    0.9802   -0.1892 H   0  0  0  0  0  0  0  0  0  0  0  0
   -4.4791   -1.4530    0.0462 H   0  0  0  0  0  0  0  0  0  0  0  0
   -7.2584   -3.1931   -2.6120 H   0  0  0  0  0  0  0  0  0  0  0  0
   -7.0744   -2.9299   -0.8250 H   0  0  0  0  0  0  0  0  0  0  0  0
   -7.1281   -4.6037   -1.4954 H   0  0  0  0  0  0  0  0  0  0  0  0
   -5.1532   -1.8137   -4.1877 H   0  0  0  0  0  0  0  0  0  0  0  0
   -4.9356    0.6237   -4.4351 H   0  0  0  0  0  0  0  0  0  0  0  0
   -7.0808    1.9900   -2.7846 H   0  0  0  0  0  0  0  0  0  0  0  0
   -8.6791    3.4107   -3.9969 H   0  0  0  0  0  0  0  0  0  0  0  0
   -8.9468    6.2208   -3.0946 H   0  0  0  0  0  0  0  0  0  0  0  0
   -7.7118    7.4267   -3.6544 H   0  0  0  0  0  0  0  0  0  0  0  0
   -9.4490    7.6231   -4.1126 H   0  0  0  0  0  0  0  0  0  0  0  0
   -5.4732    6.0222   -5.1899 H   0  0  0  0  0  0  0  0  0  0  0  0
   -3.8610    4.5943   -3.9990 H   0  0  0  0  0  0  0  0  0  0  0  0
    0.6578    3.4416   -2.2680 H   0  0  0  0  0  0  0  0  0  0  0  0
    2.5076    4.1530   -3.4233 H   0  0  0  0  0  0  0  0  0  0  0  0
    3.8048    3.3981   -4.4182 H   0  0  0  0  0  0  0  0  0  0  0  0
    4.7401    5.0753   -2.8348 H   0  0  0  0  0  0  0  0  0  0  0  0
    5.3393    3.4105   -2.4557 H   0  0  0  0  0  0  0  0  0  0  0  0
    4.0357    4.1601   -1.4410 H   0  0  0  0  0  0  0  0  0  0  0  0
   -2.0377    0.0603   -6.3032 H   0  0  0  0  0  0  0  0  0  0  0  0
   -2.5294   -1.6721   -6.2974 H   0  0  0  0  0  0  0  0  0  0  0  0
   -1.6350   -1.0544   -8.5193 H   0  0  0  0  0  0  0  0  0  0  0  0
   -0.0867   -0.4903   -7.7671 H   0  0  0  0  0  0  0  0  0  0  0  0
   -0.5394   -2.2472   -7.7070 H   0  0  0  0  0  0  0  0  0  0  0  0
    1.3497   -2.8797   -5.0426 H   0  0  0  0  0  0  0  0  0  0  0  0
    3.7963   -2.7507   -0.2942 H   0  0  0  0  0  0  0  0  0  0  0  0
    3.8552   -0.5854    0.8606 H   0  0  0  0  0  0  0  0  0  0  0  0
    1.0193    1.9175    0.7773 H   0  0  0  0  0  0  0  0  0  0  0  0
    2.3392    1.2946    1.8293 H   0  0  0  0  0  0  0  0  0  0  0  0
    2.7400    2.0559    0.2377 H   0  0  0  0  0  0  0  0  0  0  0  0
    0.0309    0.4361   -0.8475 H   0  0  0  0  0  0  0  0  0  0  0  0
   -0.0313   -1.7204   -2.0079 H   0  0  0  0  0  0  0  0  0  0  0  0
    1.2377   -5.1215   -4.1625 H   0  0  0  0  0  0  0  0  0  0  0  0
   -0.8463   -6.3216   -4.5808 H   0  0  0  0  0  0  0  0  0  0  0  0
   -2.7972   -7.5621   -3.3684 H   0  0  0  0  0  0  0  0  0  0  0  0
   -3.6225   -6.6742   -2.0369 H   0  0  0  0  0  0  0  0  0  0  0  0
   -3.5983   -5.9759   -3.7043 H   0  0  0  0  0  0  0  0  0  0  0  0
   -2.3091   -5.1661   -0.6960 H   0  0  0  0  0  0  0  0  0  0  0  0
   -0.2227   -3.9478   -0.2684 H   0  0  0  0  0  0  0  0  0  0  0  0
    4.0578   -7.9873   -4.4885 H   0  0  0  0  0  0  0  0  0  0  0  0
    3.5195   -8.3482   -6.8478 H   0  0  0  0  0  0  0  0  0  0  0  0
    4.4378   -9.0902   -9.0996 H   0  0  0  0  0  0  0  0  0  0  0  0
    4.7984   -7.3399   -9.3738 H   0  0  0  0  0  0  0  0  0  0  0  0
    6.0976   -8.5814   -9.5794 H   0  0  0  0  0  0  0  0  0  0  0  0
    7.6656   -7.7864   -7.8881 H   0  0  0  0  0  0  0  0  0  0  0  0
    8.2081   -7.4033   -5.5266 H   0  0  0  0  0  0  0  0  0  0  0  0
    7.6524   -9.8032   -3.3677 H   0  0  0  0  0  0  0  0  0  0  0  0
    9.8426  -10.3564   -2.3864 H   0  0  0  0  0  0  0  0  0  0  0  0
   11.4458   -8.9253   -0.0813 H   0  0  0  0  0  0  0  0  0  0  0  0
   12.0614   -9.5391   -1.6638 H   0  0  0  0  0  0  0  0  0  0  0  0
   12.3006   -7.8145   -1.2225 H   0  0  0  0  0  0  0  0  0  0  0  0
   10.3819   -6.2242   -1.2756 H   0  0  0  0  0  0  0  0  0  0  0  0
    8.1845   -5.6826   -2.2444 H   0  0  0  0  0  0  0  0  0  0  0  0
    5.4687   -9.4323   -1.6733 H   0  0  0  0  0  0  0  0  0  0  0  0
    3.3097  -12.5255    2.1940 H   0  0  0  0  0  0  0  0  0  0  0  0
    2.8358   -7.7241    3.8611 H   0  0  0  0  0  0  0  0  0  0  0  0
    1.9138  -10.0606    6.2684 H   0  0  0  0  0  0  0  0  0  0  0  0
   -0.3025   -8.8650    5.1079 H   0  0  0  0  0  0  0  0  0  0  0  0
   -1.2961  -10.4765    6.9714 H   0  0  0  0  0  0  0  0  0  0  0  0
   -1.0820  -12.9346    6.1299 H   0  0  0  0  0  0  0  0  0  0  0  0
    0.0566  -12.9011    3.7291 H   0  0  0  0  0  0  0  0  0  0  0  0
    0.1163  -10.3489    2.9152 H   0  0  0  0  0  0  0  0  0  0  0  0
   -1.4913  -10.7379    3.6405 H   0  0  0  0  0  0  0  0  0  0  0  0
    2.1162  -12.3223    5.4996 H   0  0  0  0  0  0  0  0  0  0  0  0
  1  2  2  3
  2  3  1  0
  3  4  2  0
  3  5  1  0
  5  6  2  0
  6  7  1  0
  7  8  2  0
  8  9  1  0
  9 10  2  0
 10 11  1  0
 11 12  2  3
 12 13  1  0
 13 14  3  0
 12 15  1  0
 15 16  3  0
  8 17  1  0
 17 18  1  0
 18 19  1  0
 19 20  2  0
 20 21  1  0
 21 22  1  0
 21 23  1  0
  1 24  1  0
 24 25  2  0
 25 26  1  0
 26 27  1  0
 27 28  2  0
 28 29  1  0
 29 30  2  0
 30 31  1  0
 31 32  1  0
 30 33  1  0
 33 34  2  0
 26 35  1  0
 35 36  2  0
 36 37  1  0
 37 38  2  0
 38 39  1  0
 39 40  1  0
 38 41  1  0
 41 42  2  0
 25 43  1  0
 43 44  1  0
 44 45  1  0
 45 46  2  0
 46 47  1  0
 47 48  1  0
 48 49  2  0
 49 50  1  0
 50 51  2  0
 51 52  1  0
 52 53  1  0
 51 54  1  0
 54 55  2  0
 47 56  1  0
 56 57  2  0
 57 58  1  0
 58 59  2  0
 59 60  1  0
 60 61  1  0
 59 62  1  0
 62 63  2  0
 46 64  1  0
 64 65  1  0
 45 66  1  0
 66 67  2  0
 67 68  1  0
 68 69  2  0
 69 70  1  0
 70 71  1  0
 71 72  1  0
 69 73  1  0
 73 74  2  0
 74 75  1  0
 75 76  1  0
 76 77  1  0
 77 78  1  0
 75 79  2  0
 79 80  1  0
 74 81  1  0
 81 82  2  0
 82 83  1  0
 82 84  1  0
 84 85  2  0
 85 86  1  0
 86 87  1  0
 87 88  2  0
 88 89  1  0
 89 90  2  0
 90 91  1  0
 90 92  1  0
 92 93  2  0
 86 94  1  0
 94 95  2  0
 95 96  1  0
 96 97  2  0
 97 98  1  0
 97 99  1  0
 99100  2  0
 85101  1  0
101102  1  0
102103  1  0
103104  2  0
104105  1  0
105106  1  0
106107  2  0
107108  1  0
108109  2  0
109110  1  0
109111  1  0
111112  2  0
105113  1  0
113114  2  0
114115  1  0
115116  2  0
116117  1  0
116118  1  0
118119  2  0
104120  1  0
120121  1  0
103122  1  0
122123  2  3
123124  1  0
124125  2  0
124126  1  0
126127  2  0
127128  1  0
128129  2  0
129130  1  0
130131  2  0
131132  1  0
132133  2  3
133134  1  0
134135  3  0
133136  1  0
136137  3  0
129138  1  0
138139  1  0
139140  1  0
140141  2  0
141142  1  0
142143  1  0
142144  1  0
 11  2  1  0
 23 17  1  0
 65 24  1  0
 80 66  1  0
121 84  1  0
132123  1  0
144138  1  0
 10  5  1  0
 22 18  1  0
 34 27  1  0
 42 35  1  0
 64 43  2  0
 79 68  1  0
 93 87  1  0
100 94  1  0
120101  2  0
131126  1  0
143139  1  0
 23  7  1  0
 55 48  1  0
 63 56  1  0
 83 73  1  0
112106  1  0
119113  1  0
144128  1  0
  1145  1  0
  6146  1  0
  9147  1  0
 17148  1  0
 18149  1  0
 19150  1  0
 20151  1  0
 21152  1  0
 22153  1  0
 22154  1  0
 23155  1  0
 28156  1  0
 29157  1  0
 32158  1  0
 32159  1  0
 32160  1  0
 33161  1  0
 34162  1  0
 36163  1  0
 37164  1  0
 40165  1  0
 40166  1  0
 40167  1  0
 41168  1  0
 42169  1  0
 49170  1  0
 50171  1  0
 53172  1  0
 53173  1  0
 53174  1  0
 54175  1  0
 55176  1  0
 57177  1  0
 58178  1  0
 61179  1  0
 61180  1  0
 61181  1  0
 62182  1  0
 63183  1  0
 67184  1  0
 71185  1  0
 71186  1  0
 72187  1  0
 72188  1  0
 72189  1  0
 77190  1  0
 77191  1  0
 78192  1  0
 78193  1  0
 78194  1  0
 81195  1  0
 88196  1  0
 89197  1  0
 91198  1  0
 91199  1  0
 91200  1  0
 92201  1  0
 93202  1  0
 95203  1  0
 96204  1  0
 98205  1  0
 98206  1  0
 98207  1  0
 99208  1  0
100209  1  0
107210  1  0
108211  1  0
110212  1  0
110213  1  0
110214  1  0
111215  1  0
112216  1  0
114217  1  0
115218  1  0
117219  1  0
117220  1  0
117221  1  0
118222  1  0
119223  1  0
122224  1  0
127225  1  0
130226  1  0
138227  1  0
139228  1  0
140229  1  0
141230  1  0
142231  1  0
143232  1  0
143233  1  0
144234  1  0
M  END

