
     RDKit          3D

215234  0  0  0  0  0  0  0  0999 V2000
    5.0154   -4.1824   -3.5982 C   0  0  0  0  0  0  0  0  0  0  0  0
    6.2330   -3.8798   -4.0876 C   0  0  0  0  0  0  0  0  0  0  0  0
    6.7889   -2.5309   -4.1937 C   0  0  0  0  0  0  0  0  0  0  0  0
    6.2162   -1.5342   -4.7120 O   0  0  0  0  0  0  0  0  0  0  0  0
    8.1676   -2.5591   -3.7745 C   0  0  0  0  0  0  0  0  0  0  0  0
    8.9618   -1.4449   -3.4307 C   0  0  0  0  0  0  0  0  0  0  0  0
   10.1450   -1.7826   -2.8028 C   0  0  0  0  0  0  0  0  0  0  0  0
   10.5369   -3.1360   -2.5424 C   0  0  0  0  0  0  0  0  0  0  0  0
    9.7692   -4.2348   -2.9022 C   0  0  0  0  0  0  0  0  0  0  0  0
    8.5474   -3.9076   -3.5510 C   0  0  0  0  0  0  0  0  0  0  0  0
    7.4042   -4.7861   -3.9122 C   0  0  0  0  0  0  0  0  0  0  0  0
    7.4466   -6.1206   -4.1498 C   0  0  0  0  0  0  0  0  0  0  0  0
    6.3143   -6.8323   -4.6812 C   0  0  0  0  0  0  0  0  0  0  0  0
    5.4105   -7.4163   -5.1120 N   0  0  0  0  0  0  0  0  0  0  0  0
    8.6562   -6.8881   -4.0099 C   0  0  0  0  0  0  0  0  0  0  0  0
    9.6217   -7.5179   -3.9008 N   0  0  0  0  0  0  0  0  0  0  0  0
   11.7511   -2.6578   -1.7991 C   0  0  0  0  0  0  0  0  0  0  0  0
   11.7290   -2.7529   -0.2429 C   0  0  0  0  0  0  0  0  0  0  0  0
   10.3087   -2.6347    0.2622 C   0  0  0  0  0  0  0  0  0  0  0  0
    9.9234   -1.3795    0.0201 C   0  0  0  0  0  0  0  0  0  0  0  0
   11.0960   -0.6854   -0.6352 C   0  0  0  0  0  0  0  0  0  0  0  0
   12.2238   -1.3623    0.1202 C   0  0  0  0  0  0  0  0  0  0  0  0
   11.3417   -1.2745   -2.0587 C   0  0  0  0  0  0  0  0  0  0  0  0
    4.2398   -3.3150   -2.6794 C   0  0  0  0  0  0  0  0  0  0  0  0
    3.4137   -3.7933   -1.6424 C   0  0  0  0  0  0  0  0  0  0  0  0
    3.0500   -5.1775   -1.4496 N   0  0  0  0  0  0  0  0  0  0  0  0
    4.0736   -6.1878   -1.2794 C   0  0  0  0  0  0  0  0  0  0  0  0
    5.2951   -5.8716   -0.6593 C   0  0  0  0  0  0  0  0  0  0  0  0
    6.3359   -6.8042   -0.6205 C   0  0  0  0  0  0  0  0  0  0  0  0
    6.1674   -8.0705   -1.1938 C   0  0  0  0  0  0  0  0  0  0  0  0
    7.5273   -9.2411   -1.2081 S   0  0  0  0  0  0  0  0  0  0  0  0
    7.0368  -10.0277    0.3573 C   0  0  0  0  0  0  0  0  0  0  0  0
    4.9504   -8.4017   -1.7978 C   0  0  0  0  0  0  0  0  0  0  0  0
    3.9089   -7.4701   -1.8397 C   0  0  0  0  0  0  0  0  0  0  0  0
    1.6510   -5.5239   -1.5129 C   0  0  0  0  0  0  0  0  0  0  0  0
    1.0957   -6.4421   -0.6046 C   0  0  0  0  0  0  0  0  0  0  0  0
   -0.2779   -6.7127   -0.6241 C   0  0  0  0  0  0  0  0  0  0  0  0
   -1.1050   -6.0803   -1.5602 C   0  0  0  0  0  0  0  0  0  0  0  0
   -2.8701   -6.4066   -1.5736 S   0  0  0  0  0  0  0  0  0  0  0  0
   -2.7165   -7.7857   -2.7494 C   0  0  0  0  0  0  0  0  0  0  0  0
   -0.5606   -5.1737   -2.4708 C   0  0  0  0  0  0  0  0  0  0  0  0
    0.8083   -4.8988   -2.4515 C   0  0  0  0  0  0  0  0  0  0  0  0
    2.8346   -2.7469   -0.9314 C   0  0  0  0  0  0  0  0  0  0  0  0
    1.6617   -2.6746    0.2535 S   0  0  0  0  0  0  0  0  0  0  0  0
    1.5248   -0.9749    0.2167 C   0  0  0  0  0  0  0  0  0  0  0  0
    2.4356   -0.4591   -0.7342 C   0  0  0  0  0  0  0  0  0  0  0  0
    2.4701    0.9077   -1.1928 N   0  0  0  0  0  0  0  0  0  0  0  0
    1.3146    1.5284   -1.7902 C   0  0  0  0  0  0  0  0  0  0  0  0
    1.0785    2.9057   -1.6191 C   0  0  0  0  0  0  0  0  0  0  0  0
   -0.0137    3.5198   -2.2365 C   0  0  0  0  0  0  0  0  0  0  0  0
   -0.8656    2.7697   -3.0574 C   0  0  0  0  0  0  0  0  0  0  0  0
   -2.1967    3.5840   -3.9416 S   0  0  0  0  0  0  0  0  0  0  0  0
   -1.1105    4.0844   -5.3173 C   0  0  0  0  0  0  0  0  0  0  0  0
   -0.6532    1.3992   -3.2174 C   0  0  0  0  0  0  0  0  0  0  0  0
    0.4362    0.7792   -2.5903 C   0  0  0  0  0  0  0  0  0  0  0  0
    3.7301    1.6001   -1.2493 C   0  0  0  0  0  0  0  0  0  0  0  0
    4.2373    2.2397   -0.1084 C   0  0  0  0  0  0  0  0  0  0  0  0
    5.4202    2.9880   -0.1928 C   0  0  0  0  0  0  0  0  0  0  0  0
    6.1177    3.0637   -1.4071 C   0  0  0  0  0  0  0  0  0  0  0  0
    7.6360    4.0153   -1.5222 S   0  0  0  0  0  0  0  0  0  0  0  0
    6.8004    5.5030   -2.1601 C   0  0  0  0  0  0  0  0  0  0  0  0
    5.6240    2.4026   -2.5370 C   0  0  0  0  0  0  0  0  0  0  0  0
    4.4241    1.6930   -2.4660 C   0  0  0  0  0  0  0  0  0  0  0  0
    3.1486   -1.4933   -1.3450 C   0  0  0  0  0  0  0  0  0  0  0  0
    4.1823   -1.6063   -2.6562 S   0  0  0  0  0  0  0  0  0  0  0  0
    0.5077   -0.2242    0.9759 C   0  0  0  0  0  0  0  0  0  0  0  0
   -0.7557   -0.7130    1.3613 C   0  0  0  0  0  0  0  0  0  0  0  0
   -1.2564   -2.0346    1.1112 N   0  0  0  0  0  0  0  0  0  0  0  0
   -2.1265   -2.1979   -0.0211 C   0  0  0  0  0  0  0  0  0  0  0  0
   -1.6310   -2.0262   -1.3216 C   0  0  0  0  0  0  0  0  0  0  0  0
   -2.4857   -2.1122   -2.4221 C   0  0  0  0  0  0  0  0  0  0  0  0
   -3.8494   -2.3602   -2.2303 C   0  0  0  0  0  0  0  0  0  0  0  0
   -4.9586   -2.4254   -3.6359 S   0  0  0  0  0  0  0  0  0  0  0  0
   -5.2875   -0.6334   -3.5968 C   0  0  0  0  0  0  0  0  0  0  0  0
   -4.3477   -2.5548   -0.9357 C   0  0  0  0  0  0  0  0  0  0  0  0
   -3.4925   -2.4709    0.1640 C   0  0  0  0  0  0  0  0  0  0  0  0
   -1.0493   -3.0989    2.0781 C   0  0  0  0  0  0  0  0  0  0  0  0
   -0.3772   -2.8491    3.2959 C   0  0  0  0  0  0  0  0  0  0  0  0
   -0.1439   -3.8834    4.2073 C   0  0  0  0  0  0  0  0  0  0  0  0
   -0.5811   -5.1800    3.9265 C   0  0  0  0  0  0  0  0  0  0  0  0
   -0.2844   -6.5054    5.1031 S   0  0  0  0  0  0  0  0  0  0  0  0
   -1.7881   -6.1521    6.0656 C   0  0  0  0  0  0  0  0  0  0  0  0
   -1.2433   -5.4456    2.7249 C   0  0  0  0  0  0  0  0  0  0  0  0
   -1.4694   -4.4162    1.8059 C   0  0  0  0  0  0  0  0  0  0  0  0
   -1.5157    0.2739    1.9680 C   0  0  0  0  0  0  0  0  0  0  0  0
   -3.1175    0.3832    2.4228 S   0  0  0  0  0  0  0  0  0  0  0  0
   -3.0413    2.0434    2.8154 C   0  0  0  0  0  0  0  0  0  0  0  0
   -1.7252    2.5005    2.5800 C   0  0  0  0  0  0  0  0  0  0  0  0
   -1.2797    3.8616    2.6470 N   0  0  0  0  0  0  0  0  0  0  0  0
   -1.7951    4.8457    1.7221 C   0  0  0  0  0  0  0  0  0  0  0  0
   -1.7768    6.2144    2.0542 C   0  0  0  0  0  0  0  0  0  0  0  0
   -2.2603    7.1706    1.1571 C   0  0  0  0  0  0  0  0  0  0  0  0
   -2.7673    6.7751   -0.0833 C   0  0  0  0  0  0  0  0  0  0  0  0
   -3.3526    8.0065   -1.2470 S   0  0  0  0  0  0  0  0  0  0  0  0
   -1.7261    8.1944   -2.0418 C   0  0  0  0  0  0  0  0  0  0  0  0
   -2.8079    5.4184   -0.4203 C   0  0  0  0  0  0  0  0  0  0  0  0
   -2.3222    4.4593    0.4731 C   0  0  0  0  0  0  0  0  0  0  0  0
   -0.1734    4.1629    3.5243 C   0  0  0  0  0  0  0  0  0  0  0  0
    0.9421    4.8792    3.0556 C   0  0  0  0  0  0  0  0  0  0  0  0
    2.0099    5.1624    3.9135 C   0  0  0  0  0  0  0  0  0  0  0  0
    1.9822    4.7237    5.2407 C   0  0  0  0  0  0  0  0  0  0  0  0
    3.3401    5.1101    6.3460 S   0  0  0  0  0  0  0  0  0  0  0  0
    4.2868    3.6162    5.9103 C   0  0  0  0  0  0  0  0  0  0  0  0
    0.8829    3.9950    5.7091 C   0  0  0  0  0  0  0  0  0  0  0  0
   -0.1829    3.7059    4.8523 C   0  0  0  0  0  0  0  0  0  0  0  0
   -0.9118    1.4767    2.1030 C   0  0  0  0  0  0  0  0  0  0  0  0
    0.6312    1.4143    1.4436 S   0  0  0  0  0  0  0  0  0  0  0  0
   -4.2414    2.8147    3.1997 C   0  0  0  0  0  0  0  0  0  0  0  0
   -5.8014    2.2651    2.9090 S   0  0  0  0  0  0  0  0  0  0  0  0
   -6.6226    3.5122    3.6729 C   0  0  0  0  0  0  0  0  0  0  0  0
   -5.6727    4.3681    4.2209 C   0  0  0  0  0  0  0  0  0  0  0  0
   -4.3388    3.9762    3.9739 C   0  0  0  0  0  0  0  0  0  0  0  0
   -3.2272    4.6135    4.5239 O   0  0  0  0  0  0  0  0  0  0  0  0
   -3.3114    5.5829    5.5651 C   0  0  0  0  0  0  0  0  0  0  0  0
   -3.9497    6.8796    5.0644 C   0  0  0  0  0  0  0  0  0  0  0  0
   -5.4571    6.7812    4.7461 C   0  0  0  0  0  0  0  0  0  0  0  0
   -6.0248    5.4908    4.9711 O   0  0  0  0  0  0  0  0  0  0  0  0
   -8.0757    3.5551    3.9333 C   0  0  0  0  0  0  0  0  0  0  0  0
   -9.0139    2.9942    3.1382 C   0  0  0  0  0  0  0  0  0  0  0  0
   -8.7678    2.5790    1.7389 C   0  0  0  0  0  0  0  0  0  0  0  0
   -7.9284    3.2023    1.0301 O   0  0  0  0  0  0  0  0  0  0  0  0
   -9.5579    1.5198    1.1638 N   0  0  0  0  0  0  0  0  0  0  0  0
   -9.2875    1.0624   -0.2073 C   0  0  0  0  0  0  0  0  0  0  0  0
   -8.1229    0.0764   -0.2247 C   0  0  0  0  0  0  0  0  0  0  0  0
  -10.5421    0.8436    1.9804 C   0  0  0  0  0  0  0  0  0  0  0  0
  -11.1798   -0.1443    1.5157 O   0  0  0  0  0  0  0  0  0  0  0  0
  -10.7582    1.2517    3.4242 C   0  0  0  0  0  0  0  0  0  0  0  0
  -12.1256    0.9345    3.8841 C   0  0  0  0  0  0  0  0  0  0  0  0
  -13.1955    0.6855    4.2503 N   0  0  0  0  0  0  0  0  0  0  0  0
  -10.4072    2.7422    3.6665 C   0  0  0  0  0  0  0  0  0  0  0  0
  -11.3985    3.7195    3.0101 C   0  0  0  0  0  0  0  0  0  0  0  0
    4.7366   -5.2181   -3.5634 H   0  0  0  0  0  0  0  0  0  0  0  0
    8.6298   -0.4225   -3.5463 H   0  0  0  0  0  0  0  0  0  0  0  0
   10.0551   -5.2301   -2.6062 H   0  0  0  0  0  0  0  0  0  0  0  0
   12.7177   -2.9335   -2.2738 H   0  0  0  0  0  0  0  0  0  0  0  0
   12.3107   -3.5948    0.1904 H   0  0  0  0  0  0  0  0  0  0  0  0
    9.7261   -3.3938    0.7706 H   0  0  0  0  0  0  0  0  0  0  0  0
    8.9703   -0.9426    0.3005 H   0  0  0  0  0  0  0  0  0  0  0  0
   11.0751    0.4220   -0.5799 H   0  0  0  0  0  0  0  0  0  0  0  0
   13.2337   -1.1242   -0.2873 H   0  0  0  0  0  0  0  0  0  0  0  0
   12.2061   -1.1572    1.2180 H   0  0  0  0  0  0  0  0  0  0  0  0
   12.0545   -0.7030   -2.6901 H   0  0  0  0  0  0  0  0  0  0  0  0
    5.4562   -4.8907   -0.2283 H   0  0  0  0  0  0  0  0  0  0  0  0
    7.2797   -6.5402   -0.1571 H   0  0  0  0  0  0  0  0  0  0  0  0
    7.0433   -9.2796    1.1775 H   0  0  0  0  0  0  0  0  0  0  0  0
    7.7623  -10.8329    0.5991 H   0  0  0  0  0  0  0  0  0  0  0  0
    6.0239  -10.4732    0.2592 H   0  0  0  0  0  0  0  0  0  0  0  0
    4.8196   -9.3738   -2.2564 H   0  0  0  0  0  0  0  0  0  0  0  0
    2.9969   -7.7342   -2.3553 H   0  0  0  0  0  0  0  0  0  0  0  0
    1.7199   -6.9231    0.1377 H   0  0  0  0  0  0  0  0  0  0  0  0
   -0.6990   -7.4090    0.0886 H   0  0  0  0  0  0  0  0  0  0  0  0
   -2.2785   -7.4307   -3.7079 H   0  0  0  0  0  0  0  0  0  0  0  0
   -3.7226   -8.2036   -2.9522 H   0  0  0  0  0  0  0  0  0  0  0  0
   -2.0750   -8.5839   -2.3195 H   0  0  0  0  0  0  0  0  0  0  0  0
   -1.1931   -4.6829   -3.1964 H   0  0  0  0  0  0  0  0  0  0  0  0
    1.2102   -4.1884   -3.1632 H   0  0  0  0  0  0  0  0  0  0  0  0
    1.7386    3.5052   -1.0077 H   0  0  0  0  0  0  0  0  0  0  0  0
   -0.1762    4.5813   -2.1045 H   0  0  0  0  0  0  0  0  0  0  0  0
   -1.7037    4.6439   -6.0695 H   0  0  0  0  0  0  0  0  0  0  0  0
   -0.3048    4.7435   -4.9293 H   0  0  0  0  0  0  0  0  0  0  0  0
   -0.6639    3.1866   -5.7984 H   0  0  0  0  0  0  0  0  0  0  0  0
   -1.3102    0.8153   -3.8487 H   0  0  0  0  0  0  0  0  0  0  0  0
    0.6142   -0.2712   -2.7717 H   0  0  0  0  0  0  0  0  0  0  0  0
    3.6959    2.1848    0.8294 H   0  0  0  0  0  0  0  0  0  0  0  0
    5.7861    3.5128    0.6845 H   0  0  0  0  0  0  0  0  0  0  0  0
    7.5623    6.2771   -2.3826 H   0  0  0  0  0  0  0  0  0  0  0  0
    6.0933    5.8951   -1.3995 H   0  0  0  0  0  0  0  0  0  0  0  0
    6.2477    5.2694   -3.0949 H   0  0  0  0  0  0  0  0  0  0  0  0
    6.1598    2.4593   -3.4737 H   0  0  0  0  0  0  0  0  0  0  0  0
    4.0370    1.2124   -3.3567 H   0  0  0  0  0  0  0  0  0  0  0  0
   -0.5800   -1.8320   -1.4844 H   0  0  0  0  0  0  0  0  0  0  0  0
   -2.0927   -1.9702   -3.4213 H   0  0  0  0  0  0  0  0  0  0  0  0
   -5.7332   -0.3477   -2.6187 H   0  0  0  0  0  0  0  0  0  0  0  0
   -6.0000   -0.3749   -4.4077 H   0  0  0  0  0  0  0  0  0  0  0  0
   -4.3425   -0.0692   -3.7537 H   0  0  0  0  0  0  0  0  0  0  0  0
   -5.4007   -2.7498   -0.7802 H   0  0  0  0  0  0  0  0  0  0  0  0
   -3.8878   -2.6052    1.1631 H   0  0  0  0  0  0  0  0  0  0  0  0
   -0.0237   -1.8596    3.5488 H   0  0  0  0  0  0  0  0  0  0  0  0
    0.3602   -3.6684    5.1397 H   0  0  0  0  0  0  0  0  0  0  0  0
   -1.8898   -6.9114    6.8678 H   0  0  0  0  0  0  0  0  0  0  0  0
   -2.6859   -6.1952    5.4134 H   0  0  0  0  0  0  0  0  0  0  0  0
   -1.7081   -5.1470    6.5309 H   0  0  0  0  0  0  0  0  0  0  0  0
   -1.5778   -6.4485    2.4937 H   0  0  0  0  0  0  0  0  0  0  0  0
   -1.9697   -4.6601    0.8785 H   0  0  0  0  0  0  0  0  0  0  0  0
   -1.3879    6.5426    3.0091 H   0  0  0  0  0  0  0  0  0  0  0  0
   -2.2352    8.2186    1.4271 H   0  0  0  0  0  0  0  0  0  0  0  0
   -1.4322    7.2395   -2.5258 H   0  0  0  0  0  0  0  0  0  0  0  0
   -0.9625    8.4822   -1.2891 H   0  0  0  0  0  0  0  0  0  0  0  0
   -1.7870    8.9886   -2.8132 H   0  0  0  0  0  0  0  0  0  0  0  0
   -3.2065    5.1070   -1.3765 H   0  0  0  0  0  0  0  0  0  0  0  0
   -2.3454    3.4199    0.1782 H   0  0  0  0  0  0  0  0  0  0  0  0
    0.9885    5.2080    2.0253 H   0  0  0  0  0  0  0  0  0  0  0  0
    2.8587    5.7225    3.5437 H   0  0  0  0  0  0  0  0  0  0  0  0
    5.2085    3.5800    6.5298 H   0  0  0  0  0  0  0  0  0  0  0  0
    3.6802    2.7072    6.1111 H   0  0  0  0  0  0  0  0  0  0  0  0
    4.5759    3.6476    4.8368 H   0  0  0  0  0  0  0  0  0  0  0  0
    0.8513    3.6510    6.7349 H   0  0  0  0  0  0  0  0  0  0  0  0
   -1.0240    3.1383    5.2285 H   0  0  0  0  0  0  0  0  0  0  0  0
   -2.2839    5.8027    5.9151 H   0  0  0  0  0  0  0  0  0  0  0  0
   -3.8798    5.1739    6.4294 H   0  0  0  0  0  0  0  0  0  0  0  0
   -3.7921    7.6622    5.8404 H   0  0  0  0  0  0  0  0  0  0  0  0
   -3.4089    7.2224    4.1555 H   0  0  0  0  0  0  0  0  0  0  0  0
   -5.6323    7.0770    3.6873 H   0  0  0  0  0  0  0  0  0  0  0  0
   -6.0066    7.5138    5.3764 H   0  0  0  0  0  0  0  0  0  0  0  0
   -8.3779    3.9646    4.8915 H   0  0  0  0  0  0  0  0  0  0  0  0
   -9.0445    1.9281   -0.8630 H   0  0  0  0  0  0  0  0  0  0  0  0
  -10.1882    0.5806   -0.6496 H   0  0  0  0  0  0  0  0  0  0  0  0
   -7.1970    0.5668    0.1463 H   0  0  0  0  0  0  0  0  0  0  0  0
   -7.9511   -0.2784   -1.2638 H   0  0  0  0  0  0  0  0  0  0  0  0
   -8.3538   -0.8016    0.4164 H   0  0  0  0  0  0  0  0  0  0  0  0
  -10.0666    0.6390    4.0409 H   0  0  0  0  0  0  0  0  0  0  0  0
  -10.4402    2.9242    4.7666 H   0  0  0  0  0  0  0  0  0  0  0  0
  -11.4978    3.5246    1.9191 H   0  0  0  0  0  0  0  0  0  0  0  0
  -12.4003    3.6409    3.4841 H   0  0  0  0  0  0  0  0  0  0  0  0
  -11.0454    4.7669    3.1459 H   0  0  0  0  0  0  0  0  0  0  0  0
  1  2  2  3
  2  3  1  0
  3  4  2  0
  3  5  1  0
  5  6  2  0
  6  7  1  0
  7  8  2  0
  8  9  1  0
  9 10  2  0
 10 11  1  0
 11 12  2  3
 12 13  1  0
 13 14  3  0
 12 15  1  0
 15 16  3  0
  8 17  1  0
 17 18  1  0
 18 19  1  0
 19 20  2  0
 20 21  1  0
 21 22  1  0
 21 23  1  0
  1 24  1  0
 24 25  2  0
 25 26  1  0
 26 27  1  0
 27 28  2  0
 28 29  1  0
 29 30  2  0
 30 31  1  0
 31 32  1  0
 30 33  1  0
 33 34  2  0
 26 35  1  0
 35 36  2  0
 36 37  1  0
 37 38  2  0
 38 39  1  0
 39 40  1  0
 38 41  1  0
 41 42  2  0
 25 43  1  0
 43 44  1  0
 44 45  1  0
 45 46  2  0
 46 47  1  0
 47 48  1  0
 48 49  2  0
 49 50  1  0
 50 51  2  0
 51 52  1  0
 52 53  1  0
 51 54  1  0
 54 55  2  0
 47 56  1  0
 56 57  2  0
 57 58  1  0
 58 59  2  0
 59 60  1  0
 60 61  1  0
 59 62  1  0
 62 63  2  0
 46 64  1  0
 64 65  1  0
 45 66  1  0
 66 67  2  0
 67 68  1  0
 68 69  1  0
 69 70  2  0
 70 71  1  0
 71 72  2  0
 72 73  1  0
 73 74  1  0
 72 75  1  0
 75 76  2  0
 68 77  1  0
 77 78  2  0
 78 79  1  0
 79 80  2  0
 80 81  1  0
 81 82  1  0
 80 83  1  0
 83 84  2  0
 67 85  1  0
 85 86  1  0
 86 87  1  0
 87 88  2  0
 88 89  1  0
 89 90  1  0
 90 91  2  0
 91 92  1  0
 92 93  2  0
 93 94  1  0
 94 95  1  0
 93 96  1  0
 96 97  2  0
 89 98  1  0
 98 99  2  0
 99100  1  0
100101  2  0
101102  1  0
102103  1  0
101104  1  0
104105  2  0
 88106  1  0
106107  1  0
 87108  1  0
108109  1  0
109110  1  0
110111  2  0
111112  1  0
112113  1  0
113114  1  0
114115  1  0
115116  1  0
116117  1  0
110118  1  0
118119  2  3
119120  1  0
120121  2  0
120122  1  0
122123  1  0
123124  1  0
122125  1  0
125126  2  0
125127  1  0
127128  1  0
128129  3  0
127130  1  0
130131  1  0
 11  2  1  0
 23 17  1  0
 65 24  1  0
107 66  1  0
112108  2  0
130119  1  0
 10  5  1  0
 22 18  1  0
 34 27  1  0
 42 35  1  0
 64 43  2  0
 76 69  1  0
 84 77  1  0
106 85  2  0
117111  1  0
 23  7  1  0
 55 48  1  0
 63 56  1  0
 97 90  1  0
105 98  1  0
  1132  1  0
  6133  1  0
  9134  1  0
 17135  1  0
 18136  1  0
 19137  1  0
 20138  1  0
 21139  1  0
 22140  1  0
 22141  1  0
 23142  1  0
 28143  1  0
 29144  1  0
 32145  1  0
 32146  1  0
 32147  1  0
 33148  1  0
 34149  1  0
 36150  1  0
 37151  1  0
 40152  1  0
 40153  1  0
 40154  1  0
 41155  1  0
 42156  1  0
 49157  1  0
 50158  1  0
 53159  1  0
 53160  1  0
 53161  1  0
 54162  1  0
 55163  1  0
 57164  1  0
 58165  1  0
 61166  1  0
 61167  1  0
 61168  1  0
 62169  1  0
 63170  1  0
 70171  1  0
 71172  1  0
 74173  1  0
 74174  1  0
 74175  1  0
 75176  1  0
 76177  1  0
 78178  1  0
 79179  1  0
 82180  1  0
 82181  1  0
 82182  1  0
 83183  1  0
 84184  1  0
 91185  1  0
 92186  1  0
 95187  1  0
 95188  1  0
 95189  1  0
 96190  1  0
 97191  1  0
 99192  1  0
100193  1  0
103194  1  0
103195  1  0
103196  1  0
104197  1  0
105198  1  0
114199  1  0
114200  1  0
115201  1  0
115202  1  0
116203  1  0
116204  1  0
118205  1  0
123206  1  0
123207  1  0
124208  1  0
124209  1  0
124210  1  0
127211  1  0
130212  1  0
131213  1  0
131214  1  0
131215  1  0
M  END

