
     RDKit          3D

211230  0  0  0  0  0  0  0  0999 V2000
    0.5517   -5.0286    4.2192 C   0  0  0  0  0  0  0  0  0  0  0  0
    1.3013   -6.0520    3.7479 C   0  0  0  0  0  0  0  0  0  0  0  0
    1.2477   -6.6388    2.4069 C   0  0  0  0  0  0  0  0  0  0  0  0
    0.2011   -6.9112    1.7582 O   0  0  0  0  0  0  0  0  0  0  0  0
    2.5684   -7.1092    2.0561 C   0  0  0  0  0  0  0  0  0  0  0  0
    2.9938   -7.5749    0.7905 C   0  0  0  0  0  0  0  0  0  0  0  0
    4.3151   -7.9748    0.7629 C   0  0  0  0  0  0  0  0  0  0  0  0
    5.1670   -7.9369    1.9163 C   0  0  0  0  0  0  0  0  0  0  0  0
    4.7593   -7.4684    3.1555 C   0  0  0  0  0  0  0  0  0  0  0  0
    3.4064   -7.0324    3.1991 C   0  0  0  0  0  0  0  0  0  0  0  0
    2.6026   -6.4978    4.3388 C   0  0  0  0  0  0  0  0  0  0  0  0
    2.8970   -6.5768    5.6605 C   0  0  0  0  0  0  0  0  0  0  0  0
    1.8681   -6.4244    6.6599 C   0  0  0  0  0  0  0  0  0  0  0  0
    1.0346   -6.2998    7.4501 N   0  0  0  0  0  0  0  0  0  0  0  0
    4.1899   -6.9716    6.1574 C   0  0  0  0  0  0  0  0  0  0  0  0
    5.2229   -7.2890    6.5747 N   0  0  0  0  0  0  0  0  0  0  0  0
    6.2860   -8.5529    1.1279 C   0  0  0  0  0  0  0  0  0  0  0  0
    6.5979  -10.0643    1.3631 C   0  0  0  0  0  0  0  0  0  0  0  0
    5.3301  -10.8087    1.7247 C   0  0  0  0  0  0  0  0  0  0  0  0
    4.5648  -10.8175    0.6315 C   0  0  0  0  0  0  0  0  0  0  0  0
    5.3345  -10.0692   -0.4335 C   0  0  0  0  0  0  0  0  0  0  0  0
    6.7394  -10.5212   -0.0778 C   0  0  0  0  0  0  0  0  0  0  0  0
    5.4288   -8.5591   -0.0581 C   0  0  0  0  0  0  0  0  0  0  0  0
   -0.4849   -4.2834    3.4521 C   0  0  0  0  0  0  0  0  0  0  0  0
   -1.3687   -3.3183    3.9852 C   0  0  0  0  0  0  0  0  0  0  0  0
   -1.2008   -2.7485    5.2953 N   0  0  0  0  0  0  0  0  0  0  0  0
   -0.7014   -1.3961    5.4233 C   0  0  0  0  0  0  0  0  0  0  0  0
    0.2329   -0.8778    4.5015 C   0  0  0  0  0  0  0  0  0  0  0  0
    0.7119    0.4288    4.6358 C   0  0  0  0  0  0  0  0  0  0  0  0
    0.2833    1.2284    5.7020 C   0  0  0  0  0  0  0  0  0  0  0  0
    0.9377    2.8882    5.9019 S   0  0  0  0  0  0  0  0  0  0  0  0
   -0.5183    3.6847    5.1527 C   0  0  0  0  0  0  0  0  0  0  0  0
   -0.6393    0.7235    6.6202 C   0  0  0  0  0  0  0  0  0  0  0  0
   -1.1424   -0.5705    6.4760 C   0  0  0  0  0  0  0  0  0  0  0  0
   -1.4839   -3.5391    6.4660 C   0  0  0  0  0  0  0  0  0  0  0  0
   -0.6189   -3.4961    7.5750 C   0  0  0  0  0  0  0  0  0  0  0  0
   -0.9301   -4.1997    8.7417 C   0  0  0  0  0  0  0  0  0  0  0  0
   -2.1045   -4.9560    8.8125 C   0  0  0  0  0  0  0  0  0  0  0  0
   -2.5136   -5.8434   10.3177 S   0  0  0  0  0  0  0  0  0  0  0  0
   -3.1794   -4.3693   11.1584 C   0  0  0  0  0  0  0  0  0  0  0  0
   -2.9541   -5.0287    7.7043 C   0  0  0  0  0  0  0  0  0  0  0  0
   -2.6467   -4.3256    6.5318 C   0  0  0  0  0  0  0  0  0  0  0  0
   -2.1003   -2.6762    2.9728 C   0  0  0  0  0  0  0  0  0  0  0  0
   -3.0092   -1.2660    2.9242 S   0  0  0  0  0  0  0  0  0  0  0  0
   -2.9851   -1.1289    1.2221 C   0  0  0  0  0  0  0  0  0  0  0  0
   -2.1889   -2.1684    0.6952 C   0  0  0  0  0  0  0  0  0  0  0  0
   -1.4750   -2.0823   -0.5585 N   0  0  0  0  0  0  0  0  0  0  0  0
   -1.9611   -2.8580   -1.6736 C   0  0  0  0  0  0  0  0  0  0  0  0
   -2.1457   -2.2528   -2.9278 C   0  0  0  0  0  0  0  0  0  0  0  0
   -2.5371   -3.0211   -4.0310 C   0  0  0  0  0  0  0  0  0  0  0  0
   -2.7727   -4.3943   -3.8866 C   0  0  0  0  0  0  0  0  0  0  0  0
   -3.3183   -5.3768   -5.2847 S   0  0  0  0  0  0  0  0  0  0  0  0
   -5.0851   -5.2185   -4.8717 C   0  0  0  0  0  0  0  0  0  0  0  0
   -2.5757   -5.0029   -2.6413 C   0  0  0  0  0  0  0  0  0  0  0  0
   -2.1638   -4.2428   -1.5445 C   0  0  0  0  0  0  0  0  0  0  0  0
   -0.1128   -1.5658   -0.5731 C   0  0  0  0  0  0  0  0  0  0  0  0
    0.7856   -1.8928   -1.6151 C   0  0  0  0  0  0  0  0  0  0  0  0
    2.1235   -1.4899   -1.5634 C   0  0  0  0  0  0  0  0  0  0  0  0
    2.5987   -0.7715   -0.4671 C   0  0  0  0  0  0  0  0  0  0  0  0
    4.3324   -0.3270   -0.3622 S   0  0  0  0  0  0  0  0  0  0  0  0
    4.7756   -1.7986    0.6144 C   0  0  0  0  0  0  0  0  0  0  0  0
    1.7193   -0.4070    0.5566 C   0  0  0  0  0  0  0  0  0  0  0  0
    0.3787   -0.7946    0.5044 C   0  0  0  0  0  0  0  0  0  0  0  0
   -1.7657   -3.0273    1.7067 C   0  0  0  0  0  0  0  0  0  0  0  0
   -0.5477   -4.1641    1.7565 S   0  0  0  0  0  0  0  0  0  0  0  0
   -3.2451    0.1404    0.5230 C   0  0  0  0  0  0  0  0  0  0  0  0
   -3.7379    0.2403   -0.7950 C   0  0  0  0  0  0  0  0  0  0  0  0
   -4.7732   -0.6150   -1.3534 N   0  0  0  0  0  0  0  0  0  0  0  0
   -5.5840   -1.4217   -0.4820 C   0  0  0  0  0  0  0  0  0  0  0  0
   -6.6936   -0.8566    0.1671 C   0  0  0  0  0  0  0  0  0  0  0  0
   -7.5481   -1.6590    0.9301 C   0  0  0  0  0  0  0  0  0  0  0  0
   -7.2921   -3.0294    1.0615 C   0  0  0  0  0  0  0  0  0  0  0  0
   -8.3850   -4.0606    2.0387 S   0  0  0  0  0  0  0  0  0  0  0  0
   -9.4689   -4.4536    0.6316 C   0  0  0  0  0  0  0  0  0  0  0  0
   -6.1717   -3.5929    0.4346 C   0  0  0  0  0  0  0  0  0  0  0  0
   -5.3347   -2.7968   -0.3518 C   0  0  0  0  0  0  0  0  0  0  0  0
   -5.3640   -0.3379   -2.6356 C   0  0  0  0  0  0  0  0  0  0  0  0
   -6.0154    0.8856   -2.8762 C   0  0  0  0  0  0  0  0  0  0  0  0
   -6.6178    1.1298   -4.1140 C   0  0  0  0  0  0  0  0  0  0  0  0
   -6.6105    0.1444   -5.1052 C   0  0  0  0  0  0  0  0  0  0  0  0
   -7.3570    0.4659   -6.7044 S   0  0  0  0  0  0  0  0  0  0  0  0
   -5.8337    1.1699   -7.4049 C   0  0  0  0  0  0  0  0  0  0  0  0
   -6.0290   -1.0985   -4.8423 C   0  0  0  0  0  0  0  0  0  0  0  0
   -5.4282   -1.3443   -3.6048 C   0  0  0  0  0  0  0  0  0  0  0  0
   -3.1961    1.3754   -1.4215 C   0  0  0  0  0  0  0  0  0  0  0  0
   -3.0115    1.8880   -3.0145 S   0  0  0  0  0  0  0  0  0  0  0  0
   -2.0133    3.2169   -2.6376 C   0  0  0  0  0  0  0  0  0  0  0  0
   -1.8062    3.2456   -1.2475 C   0  0  0  0  0  0  0  0  0  0  0  0
   -1.0208    4.2179   -0.5396 N   0  0  0  0  0  0  0  0  0  0  0  0
   -1.6494    5.0323    0.4800 C   0  0  0  0  0  0  0  0  0  0  0  0
   -3.0176    5.3620    0.3844 C   0  0  0  0  0  0  0  0  0  0  0  0
   -3.6534    6.0727    1.4063 C   0  0  0  0  0  0  0  0  0  0  0  0
   -2.9349    6.4706    2.5384 C   0  0  0  0  0  0  0  0  0  0  0  0
   -3.7660    7.3263    3.8763 S   0  0  0  0  0  0  0  0  0  0  0  0
   -4.1332    5.7897    4.7828 C   0  0  0  0  0  0  0  0  0  0  0  0
   -1.5684    6.1887    2.6263 C   0  0  0  0  0  0  0  0  0  0  0  0
   -0.9301    5.4679    1.6124 C   0  0  0  0  0  0  0  0  0  0  0  0
    0.4111    4.1615   -0.6456 C   0  0  0  0  0  0  0  0  0  0  0  0
    1.1322    5.2848   -1.0862 C   0  0  0  0  0  0  0  0  0  0  0  0
    2.5314    5.2529   -1.1147 C   0  0  0  0  0  0  0  0  0  0  0  0
    3.2172    4.1208   -0.6625 C   0  0  0  0  0  0  0  0  0  0  0  0
    5.0108    4.0935   -0.6642 S   0  0  0  0  0  0  0  0  0  0  0  0
    5.1315    3.3020   -2.2951 C   0  0  0  0  0  0  0  0  0  0  0  0
    2.5011    3.0179   -0.1895 C   0  0  0  0  0  0  0  0  0  0  0  0
    1.1019    3.0277   -0.1999 C   0  0  0  0  0  0  0  0  0  0  0  0
   -2.4620    2.1920   -0.6193 C   0  0  0  0  0  0  0  0  0  0  0  0
   -2.3231    1.5218    0.9022 S   0  0  0  0  0  0  0  0  0  0  0  0
   -1.3934    4.1019   -3.6400 C   0  0  0  0  0  0  0  0  0  0  0  0
   -1.2416    5.4756   -3.3962 C   0  0  0  0  0  0  0  0  0  0  0  0
   -0.5707    6.2884   -4.3150 C   0  0  0  0  0  0  0  0  0  0  0  0
   -0.0718    5.7400   -5.5036 C   0  0  0  0  0  0  0  0  0  0  0  0
   -0.2674    4.3807   -5.7805 C   0  0  0  0  0  0  0  0  0  0  0  0
   -0.9216    3.5662   -4.8524 C   0  0  0  0  0  0  0  0  0  0  0  0
    0.6594    6.5901   -6.4522 C   0  0  0  0  0  0  0  0  0  0  0  0
    1.9607    6.8869   -6.3052 C   0  0  0  0  0  0  0  0  0  0  0  0
    2.8849    6.2268   -5.3734 C   0  0  0  0  0  0  0  0  0  0  0  0
    2.5696    5.5045   -4.3888 O   0  0  0  0  0  0  0  0  0  0  0  0
    4.2351    6.4795   -5.8257 C   0  0  0  0  0  0  0  0  0  0  0  0
    5.4173    5.9374   -5.3310 C   0  0  0  0  0  0  0  0  0  0  0  0
    6.6186    6.1991   -6.0118 C   0  0  0  0  0  0  0  0  0  0  0  0
    7.8878    5.6323   -5.5123 C   0  0  0  0  0  0  0  0  0  0  0  0
    8.8918    6.3854   -5.4195 O   0  0  0  0  0  0  0  0  0  0  0  0
    7.9899    4.3047   -5.0702 O   0  0  0  0  0  0  0  0  0  0  0  0
    7.2577    3.2209   -5.6408 C   0  0  0  0  0  0  0  0  0  0  0  0
    6.6090    7.0267   -7.1527 C   0  0  0  0  0  0  0  0  0  0  0  0
    5.4012    7.5692   -7.6336 C   0  0  0  0  0  0  0  0  0  0  0  0
    4.2073    7.2935   -6.9445 C   0  0  0  0  0  0  0  0  0  0  0  0
    2.8028    7.6911   -7.2366 C   0  0  0  0  0  0  0  0  0  0  0  0
    2.3915    8.7508   -7.9792 C   0  0  0  0  0  0  0  0  0  0  0  0
    1.0283    9.2247   -7.9363 C   0  0  0  0  0  0  0  0  0  0  0  0
   -0.0591    9.6118   -7.8959 N   0  0  0  0  0  0  0  0  0  0  0  0
    3.3037    9.5712   -8.7300 C   0  0  0  0  0  0  0  0  0  0  0  0
    4.0226   10.2433   -9.3386 N   0  0  0  0  0  0  0  0  0  0  0  0
    0.7968   -4.6129    5.1842 H   0  0  0  0  0  0  0  0  0  0  0  0
    2.3491   -7.6300   -0.0775 H   0  0  0  0  0  0  0  0  0  0  0  0
    5.4439   -7.4465    3.9845 H   0  0  0  0  0  0  0  0  0  0  0  0
    7.1802   -7.8965    1.0308 H   0  0  0  0  0  0  0  0  0  0  0  0
    7.4699  -10.2728    2.0200 H   0  0  0  0  0  0  0  0  0  0  0  0
    5.1017  -11.3021    2.6625 H   0  0  0  0  0  0  0  0  0  0  0  0
    3.6047  -11.3121    0.5208 H   0  0  0  0  0  0  0  0  0  0  0  0
    5.0225  -10.2776   -1.4798 H   0  0  0  0  0  0  0  0  0  0  0  0
    7.5442   -9.9811   -0.6342 H   0  0  0  0  0  0  0  0  0  0  0  0
    6.8909  -11.6241   -0.1830 H   0  0  0  0  0  0  0  0  0  0  0  0
    5.7856   -7.8891   -0.8754 H   0  0  0  0  0  0  0  0  0  0  0  0
    0.5999   -1.4869    3.6857 H   0  0  0  0  0  0  0  0  0  0  0  0
    1.4318    0.8109    3.9214 H   0  0  0  0  0  0  0  0  0  0  0  0
   -1.4320    3.4204    5.7262 H   0  0  0  0  0  0  0  0  0  0  0  0
   -0.3805    4.7837    5.1940 H   0  0  0  0  0  0  0  0  0  0  0  0
   -0.6350    3.3597    4.0958 H   0  0  0  0  0  0  0  0  0  0  0  0
   -0.9771    1.3376    7.4480 H   0  0  0  0  0  0  0  0  0  0  0  0
   -1.8780   -0.9284    7.1833 H   0  0  0  0  0  0  0  0  0  0  0  0
    0.2943   -2.9131    7.5356 H   0  0  0  0  0  0  0  0  0  0  0  0
   -0.2553   -4.1531    9.5874 H   0  0  0  0  0  0  0  0  0  0  0  0
   -2.3503   -3.6752   11.4139 H   0  0  0  0  0  0  0  0  0  0  0  0
   -3.6807   -4.6782   12.0964 H   0  0  0  0  0  0  0  0  0  0  0  0
   -3.9168   -3.8392   10.5165 H   0  0  0  0  0  0  0  0  0  0  0  0
   -3.8561   -5.6239    7.7454 H   0  0  0  0  0  0  0  0  0  0  0  0
   -3.3234   -4.3726    5.6891 H   0  0  0  0  0  0  0  0  0  0  0  0
   -1.9707   -1.1914   -3.0512 H   0  0  0  0  0  0  0  0  0  0  0  0
   -2.6713   -2.5459   -4.9958 H   0  0  0  0  0  0  0  0  0  0  0  0
   -5.3920   -4.1571   -4.9214 H   0  0  0  0  0  0  0  0  0  0  0  0
   -5.2799   -5.6226   -3.8533 H   0  0  0  0  0  0  0  0  0  0  0  0
   -5.6818   -5.7979   -5.6046 H   0  0  0  0  0  0  0  0  0  0  0  0
   -2.7412   -6.0661   -2.5230 H   0  0  0  0  0  0  0  0  0  0  0  0
   -2.0078   -4.7399   -0.5988 H   0  0  0  0  0  0  0  0  0  0  0  0
    0.4790   -2.4870   -2.4621 H   0  0  0  0  0  0  0  0  0  0  0  0
    2.7969   -1.7687   -2.3656 H   0  0  0  0  0  0  0  0  0  0  0  0
    4.6520   -2.7119   -0.0062 H   0  0  0  0  0  0  0  0  0  0  0  0
    4.1249   -1.8711    1.5114 H   0  0  0  0  0  0  0  0  0  0  0  0
    5.8317   -1.7092    0.9397 H   0  0  0  0  0  0  0  0  0  0  0  0
    2.0759    0.1573    1.4079 H   0  0  0  0  0  0  0  0  0  0  0  0
   -0.2565   -0.5124    1.3295 H   0  0  0  0  0  0  0  0  0  0  0  0
   -6.9100    0.1995    0.0534 H   0  0  0  0  0  0  0  0  0  0  0  0
   -8.4236   -1.2214    1.3955 H   0  0  0  0  0  0  0  0  0  0  0  0
  -10.2406   -5.1751    0.9648 H   0  0  0  0  0  0  0  0  0  0  0  0
   -8.8785   -4.9218   -0.1866 H   0  0  0  0  0  0  0  0  0  0  0  0
   -9.9675   -3.5328    0.2652 H   0  0  0  0  0  0  0  0  0  0  0  0
   -5.9631   -4.6525    0.5351 H   0  0  0  0  0  0  0  0  0  0  0  0
   -4.5131   -3.2532   -0.8726 H   0  0  0  0  0  0  0  0  0  0  0  0
   -6.0412    1.6509   -2.1103 H   0  0  0  0  0  0  0  0  0  0  0  0
   -7.0910    2.0875   -4.2990 H   0  0  0  0  0  0  0  0  0  0  0  0
   -5.9991    1.3930   -8.4791 H   0  0  0  0  0  0  0  0  0  0  0  0
   -5.5839    2.1135   -6.8758 H   0  0  0  0  0  0  0  0  0  0  0  0
   -4.9927    0.4499   -7.3100 H   0  0  0  0  0  0  0  0  0  0  0  0
   -6.0504   -1.8774   -5.5939 H   0  0  0  0  0  0  0  0  0  0  0  0
   -5.0321   -2.3287   -3.3871 H   0  0  0  0  0  0  0  0  0  0  0  0
   -3.6014    5.0591   -0.4749 H   0  0  0  0  0  0  0  0  0  0  0  0
   -4.7108    6.2978    1.3256 H   0  0  0  0  0  0  0  0  0  0  0  0
   -3.1861    5.3082    5.1083 H   0  0  0  0  0  0  0  0  0  0  0  0
   -4.7404    6.0325    5.6796 H   0  0  0  0  0  0  0  0  0  0  0  0
   -4.7007    5.0884    4.1359 H   0  0  0  0  0  0  0  0  0  0  0  0
   -1.0052    6.5031    3.4944 H   0  0  0  0  0  0  0  0  0  0  0  0
    0.1186    5.2285    1.7308 H   0  0  0  0  0  0  0  0  0  0  0  0
    0.6153    6.1808   -1.3974 H   0  0  0  0  0  0  0  0  0  0  0  0
    3.0786    6.1176   -1.4675 H   0  0  0  0  0  0  0  0  0  0  0  0
    4.4299    3.7645   -3.0185 H   0  0  0  0  0  0  0  0  0  0  0  0
    6.1705    3.4218   -2.6750 H   0  0  0  0  0  0  0  0  0  0  0  0
    4.9058    2.2204   -2.2096 H   0  0  0  0  0  0  0  0  0  0  0  0
    3.0250    2.1680    0.2112 H   0  0  0  0  0  0  0  0  0  0  0  0
    0.5583    2.1774    0.1874 H   0  0  0  0  0  0  0  0  0  0  0  0
   -1.6339    5.9204   -2.4934 H   0  0  0  0  0  0  0  0  0  0  0  0
   -0.4366    7.3398   -4.0957 H   0  0  0  0  0  0  0  0  0  0  0  0
    0.1106    3.9496   -6.6979 H   0  0  0  0  0  0  0  0  0  0  0  0
   -1.0278    2.5088   -5.0681 H   0  0  0  0  0  0  0  0  0  0  0  0
    0.1160    6.9153   -7.3252 H   0  0  0  0  0  0  0  0  0  0  0  0
    5.4027    5.3188   -4.4457 H   0  0  0  0  0  0  0  0  0  0  0  0
    7.1821    2.3999   -4.8958 H   0  0  0  0  0  0  0  0  0  0  0  0
    6.2364    3.5137   -5.9590 H   0  0  0  0  0  0  0  0  0  0  0  0
    7.8121    2.8418   -6.5259 H   0  0  0  0  0  0  0  0  0  0  0  0
    7.5298    7.2297   -7.6887 H   0  0  0  0  0  0  0  0  0  0  0  0
    5.4206    8.1486   -8.5399 H   0  0  0  0  0  0  0  0  0  0  0  0
  1  2  2  3
  2  3  1  0
  3  4  2  0
  3  5  1  0
  5  6  2  0
  6  7  1  0
  7  8  2  0
  8  9  1  0
  9 10  2  0
 10 11  1  0
 11 12  2  3
 12 13  1  0
 13 14  3  0
 12 15  1  0
 15 16  3  0
  8 17  1  0
 17 18  1  0
 18 19  1  0
 19 20  2  0
 20 21  1  0
 21 22  1  0
 21 23  1  0
  1 24  1  0
 24 25  2  0
 25 26  1  0
 26 27  1  0
 27 28  2  0
 28 29  1  0
 29 30  2  0
 30 31  1  0
 31 32  1  0
 30 33  1  0
 33 34  2  0
 26 35  1  0
 35 36  2  0
 36 37  1  0
 37 38  2  0
 38 39  1  0
 39 40  1  0
 38 41  1  0
 41 42  2  0
 25 43  1  0
 43 44  1  0
 44 45  1  0
 45 46  2  0
 46 47  1  0
 47 48  1  0
 48 49  2  0
 49 50  1  0
 50 51  2  0
 51 52  1  0
 52 53  1  0
 51 54  1  0
 54 55  2  0
 47 56  1  0
 56 57  2  0
 57 58  1  0
 58 59  2  0
 59 60  1  0
 60 61  1  0
 59 62  1  0
 62 63  2  0
 46 64  1  0
 64 65  1  0
 45 66  1  0
 66 67  2  0
 67 68  1  0
 68 69  1  0
 69 70  2  0
 70 71  1  0
 71 72  2  0
 72 73  1  0
 73 74  1  0
 72 75  1  0
 75 76  2  0
 68 77  1  0
 77 78  2  0
 78 79  1  0
 79 80  2  0
 80 81  1  0
 81 82  1  0
 80 83  1  0
 83 84  2  0
 67 85  1  0
 85 86  1  0
 86 87  1  0
 87 88  2  0
 88 89  1  0
 89 90  1  0
 90 91  2  0
 91 92  1  0
 92 93  2  0
 93 94  1  0
 94 95  1  0
 93 96  1  0
 96 97  2  0
 89 98  1  0
 98 99  2  0
 99100  1  0
100101  2  0
101102  1  0
102103  1  0
101104  1  0
104105  2  0
 88106  1  0
106107  1  0
 87108  1  0
108109  2  0
109110  1  0
110111  2  0
111112  1  0
112113  2  0
111114  1  0
114115  2  3
115116  1  0
116117  2  0
116118  1  0
118119  2  0
119120  1  0
120121  1  0
121122  2  0
121123  1  0
123124  1  0
120125  2  0
125126  1  0
126127  2  0
127128  1  0
128129  2  3
129130  1  0
130131  3  0
129132  1  0
132133  3  0
 11  2  1  0
 23 17  1  0
 65 24  1  0
107 66  1  0
113108  1  0
128115  1  0
 10  5  1  0
 22 18  1  0
 34 27  1  0
 42 35  1  0
 64 43  2  0
 76 69  1  0
 84 77  1  0
106 85  2  0
127118  1  0
 23  7  1  0
 55 48  1  0
 63 56  1  0
 97 90  1  0
105 98  1  0
  1134  1  0
  6135  1  0
  9136  1  0
 17137  1  0
 18138  1  0
 19139  1  0
 20140  1  0
 21141  1  0
 22142  1  0
 22143  1  0
 23144  1  0
 28145  1  0
 29146  1  0
 32147  1  0
 32148  1  0
 32149  1  0
 33150  1  0
 34151  1  0
 36152  1  0
 37153  1  0
 40154  1  0
 40155  1  0
 40156  1  0
 41157  1  0
 42158  1  0
 49159  1  0
 50160  1  0
 53161  1  0
 53162  1  0
 53163  1  0
 54164  1  0
 55165  1  0
 57166  1  0
 58167  1  0
 61168  1  0
 61169  1  0
 61170  1  0
 62171  1  0
 63172  1  0
 70173  1  0
 71174  1  0
 74175  1  0
 74176  1  0
 74177  1  0
 75178  1  0
 76179  1  0
 78180  1  0
 79181  1  0
 82182  1  0
 82183  1  0
 82184  1  0
 83185  1  0
 84186  1  0
 91187  1  0
 92188  1  0
 95189  1  0
 95190  1  0
 95191  1  0
 96192  1  0
 97193  1  0
 99194  1  0
100195  1  0
103196  1  0
103197  1  0
103198  1  0
104199  1  0
105200  1  0
109201  1  0
110202  1  0
112203  1  0
113204  1  0
114205  1  0
119206  1  0
124207  1  0
124208  1  0
124209  1  0
125210  1  0
126211  1  0
M  END

