
     RDKit          3D

211232  0  0  0  0  0  0  0  0999 V2000
   -4.6374    4.1343    4.4583 C   0  0  0  0  0  0  0  0  0  0  0  0
   -5.7262    3.6652    3.8953 C   0  0  0  0  0  0  0  0  0  0  0  0
   -6.5981    2.5941    4.5200 C   0  0  0  0  0  0  0  0  0  0  0  0
   -6.9175    2.5533    5.7426 O   0  0  0  0  0  0  0  0  0  0  0  0
   -7.1335    1.7679    3.4030 C   0  0  0  0  0  0  0  0  0  0  0  0
   -8.2077    0.8130    3.4488 C   0  0  0  0  0  0  0  0  0  0  0  0
   -8.4503    0.2598    2.1641 C   0  0  0  0  0  0  0  0  0  0  0  0
   -7.7228    0.6401    0.9816 C   0  0  0  0  0  0  0  0  0  0  0  0
   -6.7097    1.5930    0.9579 C   0  0  0  0  0  0  0  0  0  0  0  0
   -6.5780    2.2809    2.1661 C   0  0  0  0  0  0  0  0  0  0  0  0
   -5.9653    3.5632    2.4502 C   0  0  0  0  0  0  0  0  0  0  0  0
   -5.7869    4.5400    1.5653 C   0  0  0  0  0  0  0  0  0  0  0  0
   -5.2864    5.8143    1.9406 C   0  0  0  0  0  0  0  0  0  0  0  0
   -4.8289    6.7733    2.3807 N   0  0  0  0  0  0  0  0  0  0  0  0
   -5.3646    4.2133    0.1638 C   0  0  0  0  0  0  0  0  0  0  0  0
   -4.8998    3.8427   -0.9019 N   0  0  0  0  0  0  0  0  0  0  0  0
   -8.3880   -0.4049    0.1810 C   0  0  0  0  0  0  0  0  0  0  0  0
   -7.5316   -1.6652   -0.1548 C   0  0  0  0  0  0  0  0  0  0  0  0
   -8.5215   -2.7138   -0.5630 C   0  0  0  0  0  0  0  0  0  0  0  0
   -9.1539   -3.0988    0.5397 C   0  0  0  0  0  0  0  0  0  0  0  0
   -8.5786   -2.2529    1.6481 C   0  0  0  0  0  0  0  0  0  0  0  0
   -7.1250   -2.2455    1.1964 C   0  0  0  0  0  0  0  0  0  0  0  0
   -9.1124   -0.8087    1.3999 C   0  0  0  0  0  0  0  0  0  0  0  0
   -3.1963    3.9670    3.9999 C   0  0  0  0  0  0  0  0  0  0  0  0
   -1.9191    4.3850    4.5098 C   0  0  0  0  0  0  0  0  0  0  0  0
   -1.8415    5.2812    5.6261 N   0  0  0  0  0  0  0  0  0  0  0  0
   -2.2219    6.6912    5.4324 C   0  0  0  0  0  0  0  0  0  0  0  0
   -1.7578    7.3188    4.2617 C   0  0  0  0  0  0  0  0  0  0  0  0
   -2.1247    8.6166    3.9358 C   0  0  0  0  0  0  0  0  0  0  0  0
   -3.0296    9.3433    4.7780 C   0  0  0  0  0  0  0  0  0  0  0  0
   -3.4764   11.0799    4.5238 S   0  0  0  0  0  0  0  0  0  0  0  0
   -2.8648   11.5085    2.8349 C   0  0  0  0  0  0  0  0  0  0  0  0
   -3.5189    8.6976    5.9349 C   0  0  0  0  0  0  0  0  0  0  0  0
   -3.1311    7.3877    6.2517 C   0  0  0  0  0  0  0  0  0  0  0  0
   -1.6036    4.7392    6.9384 C   0  0  0  0  0  0  0  0  0  0  0  0
   -0.7592    5.4328    7.7919 C   0  0  0  0  0  0  0  0  0  0  0  0
   -0.3296    4.8640    8.9946 C   0  0  0  0  0  0  0  0  0  0  0  0
   -0.7600    3.5768    9.3447 C   0  0  0  0  0  0  0  0  0  0  0  0
   -0.3779    2.9134   10.9777 S   0  0  0  0  0  0  0  0  0  0  0  0
    1.1969    2.1237   10.4916 C   0  0  0  0  0  0  0  0  0  0  0  0
   -1.6337    2.8603    8.4899 C   0  0  0  0  0  0  0  0  0  0  0  0
   -2.0461    3.4359    7.2905 C   0  0  0  0  0  0  0  0  0  0  0  0
   -0.8316    3.8871    3.7548 C   0  0  0  0  0  0  0  0  0  0  0  0
    0.9255    3.9508    3.7728 S   0  0  0  0  0  0  0  0  0  0  0  0
    1.0586    3.0533    2.2572 C   0  0  0  0  0  0  0  0  0  0  0  0
   -0.2351    2.7365    1.8081 C   0  0  0  0  0  0  0  0  0  0  0  0
   -0.5971    2.5176    0.4072 N   0  0  0  0  0  0  0  0  0  0  0  0
   -1.5739    1.5248   -0.0524 C   0  0  0  0  0  0  0  0  0  0  0  0
   -1.5037    0.1611    0.3352 C   0  0  0  0  0  0  0  0  0  0  0  0
   -2.2529   -0.8136   -0.3597 C   0  0  0  0  0  0  0  0  0  0  0  0
   -3.1182   -0.4517   -1.3919 C   0  0  0  0  0  0  0  0  0  0  0  0
   -4.2923   -1.6428   -2.0597 S   0  0  0  0  0  0  0  0  0  0  0  0
   -3.5956   -1.9166   -3.7445 C   0  0  0  0  0  0  0  0  0  0  0  0
   -3.2793    0.9012   -1.7218 C   0  0  0  0  0  0  0  0  0  0  0  0
   -2.5298    1.8846   -1.0602 C   0  0  0  0  0  0  0  0  0  0  0  0
   -0.1972    3.5428   -0.5540 C   0  0  0  0  0  0  0  0  0  0  0  0
    0.2266    3.2387   -1.8551 C   0  0  0  0  0  0  0  0  0  0  0  0
    0.5425    4.2652   -2.7717 C   0  0  0  0  0  0  0  0  0  0  0  0
    0.4395    5.6005   -2.3986 C   0  0  0  0  0  0  0  0  0  0  0  0
    0.8505    7.0156   -3.4381 S   0  0  0  0  0  0  0  0  0  0  0  0
    1.7229    6.2274   -4.8433 C   0  0  0  0  0  0  0  0  0  0  0  0
   -0.0337    5.9158   -1.1027 C   0  0  0  0  0  0  0  0  0  0  0  0
   -0.3567    4.9099   -0.2105 C   0  0  0  0  0  0  0  0  0  0  0  0
   -1.2197    3.1884    2.6776 C   0  0  0  0  0  0  0  0  0  0  0  0
   -2.8975    3.0421    2.6064 S   0  0  0  0  0  0  0  0  0  0  0  0
    2.2241    2.4049    1.6203 C   0  0  0  0  0  0  0  0  0  0  0  0
    2.2710    0.9983    1.7832 C   0  0  0  0  0  0  0  0  0  0  0  0
    1.6061    0.4055    2.8460 O   0  0  0  0  0  0  0  0  0  0  0  0
    2.1007    0.3525    4.1350 C   0  0  0  0  0  0  0  0  0  0  0  0
    1.0122   -0.1363    5.0709 C   0  0  0  0  0  0  0  0  0  0  0  0
    2.7203    0.1927    0.7690 C   0  0  0  0  0  0  0  0  0  0  0  0
    2.4658   -1.1808    0.9003 O   0  0  0  0  0  0  0  0  0  0  0  0
    3.4442   -2.2024    0.9493 C   0  0  0  0  0  0  0  0  0  0  0  0
    3.9665   -2.2973    2.3896 C   0  0  0  0  0  0  0  0  0  0  0  0
    3.0657    0.7513   -0.5090 C   0  0  0  0  0  0  0  0  0  0  0  0
    3.1934    2.1202   -0.5891 C   0  0  0  0  0  0  0  0  0  0  0  0
    2.7666    2.9626    0.4770 C   0  0  0  0  0  0  0  0  0  0  0  0
    2.8013    4.3248    0.2601 N   0  0  0  0  0  0  0  0  0  0  0  0
    3.4382    4.3404   -1.2911 S   0  0  0  0  0  0  0  0  0  0  0  0
    3.5998    2.7498   -1.7185 N   0  0  0  0  0  0  0  0  0  0  0  0
    2.6075   -0.0340   -1.6991 C   0  0  0  0  0  0  0  0  0  0  0  0
    3.4254   -0.6771   -2.6616 C   0  0  0  0  0  0  0  0  0  0  0  0
    4.6796   -0.3138   -2.8727 N   0  0  0  0  0  0  0  0  0  0  0  0
    5.4407   -0.8322   -3.9089 C   0  0  0  0  0  0  0  0  0  0  0  0
    6.6948   -0.1620   -4.2742 C   0  0  0  0  0  0  0  0  0  0  0  0
    6.7768    1.2643   -4.2656 C   0  0  0  0  0  0  0  0  0  0  0  0
    7.9284    1.9064   -4.6995 C   0  0  0  0  0  0  0  0  0  0  0  0
    9.0470    1.1321   -5.1286 C   0  0  0  0  0  0  0  0  0  0  0  0
   10.2469    1.7385   -5.5275 O   0  0  0  0  0  0  0  0  0  0  0  0
   10.4095    2.4675   -6.7217 C   0  0  0  0  0  0  0  0  0  0  0  0
   10.2857    1.5581   -7.9674 C   0  0  0  0  0  0  0  0  0  0  0  0
    8.9634   -0.2484   -5.1096 C   0  0  0  0  0  0  0  0  0  0  0  0
    7.8012   -0.8867   -4.6667 C   0  0  0  0  0  0  0  0  0  0  0  0
    7.7917   -2.2632   -4.6604 F   0  0  0  0  0  0  0  0  0  0  0  0
   10.0476   -0.9778   -5.5286 F   0  0  0  0  0  0  0  0  0  0  0  0
    7.9935    3.2642   -4.6634 F   0  0  0  0  0  0  0  0  0  0  0  0
    5.7225    2.0438   -3.8920 F   0  0  0  0  0  0  0  0  0  0  0  0
    4.8668   -1.8533   -4.6913 C   0  0  0  0  0  0  0  0  0  0  0  0
    5.3586   -2.2609   -6.0360 C   0  0  0  0  0  0  0  0  0  0  0  0
    5.4872   -1.3013   -7.0686 C   0  0  0  0  0  0  0  0  0  0  0  0
    5.3045    0.0219   -6.8347 F   0  0  0  0  0  0  0  0  0  0  0  0
    5.7066   -1.7157   -8.3795 C   0  0  0  0  0  0  0  0  0  0  0  0
    5.8343   -0.7764   -9.3620 F   0  0  0  0  0  0  0  0  0  0  0  0
    5.8074   -3.0958   -8.6773 C   0  0  0  0  0  0  0  0  0  0  0  0
    6.0448   -3.5595   -9.9753 O   0  0  0  0  0  0  0  0  0  0  0  0
    5.0383   -3.6463  -10.9646 C   0  0  0  0  0  0  0  0  0  0  0  0
    3.9216   -4.6158  -10.5530 C   0  0  0  0  0  0  0  0  0  0  0  0
    5.6911   -4.0385   -7.6589 C   0  0  0  0  0  0  0  0  0  0  0  0
    5.7715   -5.3776   -7.8995 F   0  0  0  0  0  0  0  0  0  0  0  0
    5.4675   -3.6324   -6.3374 C   0  0  0  0  0  0  0  0  0  0  0  0
    5.2864   -4.5509   -5.3649 F   0  0  0  0  0  0  0  0  0  0  0  0
    3.6404   -2.3053   -4.3963 N   0  0  0  0  0  0  0  0  0  0  0  0
    2.8413   -1.7250   -3.4206 C   0  0  0  0  0  0  0  0  0  0  0  0
    1.5623   -2.0986   -3.2485 C   0  0  0  0  0  0  0  0  0  0  0  0
    0.7051   -1.3092   -2.5297 C   0  0  0  0  0  0  0  0  0  0  0  0
    1.1820   -0.2909   -1.7672 C   0  0  0  0  0  0  0  0  0  0  0  0
    1.0917   -3.3672   -3.8345 C   0  0  0  0  0  0  0  0  0  0  0  0
    0.6012   -4.3957   -3.1564 C   0  0  0  0  0  0  0  0  0  0  0  0
    0.4969   -4.4318   -1.6959 C   0  0  0  0  0  0  0  0  0  0  0  0
    0.7716   -3.5624   -0.8124 O   0  0  0  0  0  0  0  0  0  0  0  0
   -0.0539   -5.7251   -1.3502 C   0  0  0  0  0  0  0  0  0  0  0  0
   -0.4393   -6.1266   -0.0682 C   0  0  0  0  0  0  0  0  0  0  0  0
   -0.9740   -7.4071   -0.0525 C   0  0  0  0  0  0  0  0  0  0  0  0
   -1.1031   -8.2144   -1.2307 C   0  0  0  0  0  0  0  0  0  0  0  0
   -0.7716   -7.8007   -2.5292 C   0  0  0  0  0  0  0  0  0  0  0  0
   -0.2336   -6.5238   -2.5480 C   0  0  0  0  0  0  0  0  0  0  0  0
    0.1404   -5.6670   -3.7734 C   0  0  0  0  0  0  0  0  0  0  0  0
   -0.4566   -5.6969   -4.9940 C   0  0  0  0  0  0  0  0  0  0  0  0
   -0.4948   -6.9296   -5.8653 C   0  0  0  0  0  0  0  0  0  0  0  0
   -0.5029   -7.8350   -6.5800 N   0  0  0  0  0  0  0  0  0  0  0  0
   -1.0175   -4.5058   -5.6122 C   0  0  0  0  0  0  0  0  0  0  0  0
   -1.3610   -3.5757   -6.1138 N   0  0  0  0  0  0  0  0  0  0  0  0
   -1.5645   -9.3596   -0.3580 C   0  0  0  0  0  0  0  0  0  0  0  0
   -0.5171  -10.4815   -0.0188 C   0  0  0  0  0  0  0  0  0  0  0  0
    0.8745   -9.9027    0.1062 C   0  0  0  0  0  0  0  0  0  0  0  0
    0.8915   -9.1727    1.2157 C   0  0  0  0  0  0  0  0  0  0  0  0
   -0.5082   -9.2265    1.7787 C   0  0  0  0  0  0  0  0  0  0  0  0
   -0.8190  -10.6777    1.4500 C   0  0  0  0  0  0  0  0  0  0  0  0
   -1.5060   -8.5195    0.8357 C   0  0  0  0  0  0  0  0  0  0  0  0
   -4.7704    4.5499    5.4059 H   0  0  0  0  0  0  0  0  0  0  0  0
   -8.7126    0.4519    4.3549 H   0  0  0  0  0  0  0  0  0  0  0  0
   -6.1273    1.7486    0.0627 H   0  0  0  0  0  0  0  0  0  0  0  0
   -9.0208   -0.0079   -0.6510 H   0  0  0  0  0  0  0  0  0  0  0  0
   -6.7105   -1.5031   -0.8876 H   0  0  0  0  0  0  0  0  0  0  0  0
   -8.6470   -3.1989   -1.5563 H   0  0  0  0  0  0  0  0  0  0  0  0
   -9.8292   -3.9565    0.6070 H   0  0  0  0  0  0  0  0  0  0  0  0
   -8.7629   -2.6620    2.6732 H   0  0  0  0  0  0  0  0  0  0  0  0
   -6.4208   -1.6226    1.8189 H   0  0  0  0  0  0  0  0  0  0  0  0
   -6.5981   -3.2442    1.1714 H   0  0  0  0  0  0  0  0  0  0  0  0
  -10.2149   -0.6783    1.3292 H   0  0  0  0  0  0  0  0  0  0  0  0
   -1.1002    6.7843    3.5773 H   0  0  0  0  0  0  0  0  0  0  0  0
   -1.6575    8.9859    3.0357 H   0  0  0  0  0  0  0  0  0  0  0  0
   -3.7188   11.6125    2.1268 H   0  0  0  0  0  0  0  0  0  0  0  0
   -2.3811   12.5001    2.9437 H   0  0  0  0  0  0  0  0  0  0  0  0
   -2.0878   10.8702    2.3877 H   0  0  0  0  0  0  0  0  0  0  0  0
   -4.1845    9.2085    6.6349 H   0  0  0  0  0  0  0  0  0  0  0  0
   -3.5576    6.9064    7.1068 H   0  0  0  0  0  0  0  0  0  0  0  0
   -0.4044    6.3860    7.4907 H   0  0  0  0  0  0  0  0  0  0  0  0
    0.3026    5.4637    9.6409 H   0  0  0  0  0  0  0  0  0  0  0  0
    1.7756    1.9147   11.4134 H   0  0  0  0  0  0  0  0  0  0  0  0
    1.8190    2.7496    9.8209 H   0  0  0  0  0  0  0  0  0  0  0  0
    0.9889    1.1517    9.9988 H   0  0  0  0  0  0  0  0  0  0  0  0
   -2.0337    1.9043    8.7861 H   0  0  0  0  0  0  0  0  0  0  0  0
   -2.7138    2.8739    6.6477 H   0  0  0  0  0  0  0  0  0  0  0  0
   -0.7631   -0.1532    1.0453 H   0  0  0  0  0  0  0  0  0  0  0  0
   -2.1822   -1.8499   -0.0515 H   0  0  0  0  0  0  0  0  0  0  0  0
   -4.4029   -1.7447   -4.5014 H   0  0  0  0  0  0  0  0  0  0  0  0
   -2.7091   -1.3246   -3.9627 H   0  0  0  0  0  0  0  0  0  0  0  0
   -3.3311   -2.9895   -3.8174 H   0  0  0  0  0  0  0  0  0  0  0  0
   -4.0036    1.2471   -2.4417 H   0  0  0  0  0  0  0  0  0  0  0  0
   -2.6547    2.8957   -1.3842 H   0  0  0  0  0  0  0  0  0  0  0  0
    0.2789    2.1961   -2.1739 H   0  0  0  0  0  0  0  0  0  0  0  0
    0.8786    3.9446   -3.7407 H   0  0  0  0  0  0  0  0  0  0  0  0
    1.1275    5.4178   -5.2920 H   0  0  0  0  0  0  0  0  0  0  0  0
    1.8363    7.0146   -5.6259 H   0  0  0  0  0  0  0  0  0  0  0  0
    2.7266    5.8697   -4.5528 H   0  0  0  0  0  0  0  0  0  0  0  0
   -0.1615    6.9345   -0.7896 H   0  0  0  0  0  0  0  0  0  0  0  0
   -0.7952    5.2235    0.7321 H   0  0  0  0  0  0  0  0  0  0  0  0
    2.4733    1.3388    4.4326 H   0  0  0  0  0  0  0  0  0  0  0  0
    2.9460   -0.3553    4.1729 H   0  0  0  0  0  0  0  0  0  0  0  0
    0.3361   -0.8616    4.5378 H   0  0  0  0  0  0  0  0  0  0  0  0
    1.4210   -0.7009    5.9295 H   0  0  0  0  0  0  0  0  0  0  0  0
    0.3833    0.7318    5.4156 H   0  0  0  0  0  0  0  0  0  0  0  0
    2.9618   -3.1789    0.6950 H   0  0  0  0  0  0  0  0  0  0  0  0
    4.2489   -2.0070    0.2309 H   0  0  0  0  0  0  0  0  0  0  0  0
    3.0886   -2.4185    3.0660 H   0  0  0  0  0  0  0  0  0  0  0  0
    4.6463   -3.1702    2.5169 H   0  0  0  0  0  0  0  0  0  0  0  0
    4.4686   -1.3551    2.6455 H   0  0  0  0  0  0  0  0  0  0  0  0
   11.4242    2.9351   -6.7144 H   0  0  0  0  0  0  0  0  0  0  0  0
    9.6545    3.2671   -6.7824 H   0  0  0  0  0  0  0  0  0  0  0  0
    9.6987    2.0374   -8.7664 H   0  0  0  0  0  0  0  0  0  0  0  0
   11.2981    1.3397   -8.3484 H   0  0  0  0  0  0  0  0  0  0  0  0
    9.8141    0.5867   -7.7007 H   0  0  0  0  0  0  0  0  0  0  0  0
    4.5998   -2.6351  -11.1555 H   0  0  0  0  0  0  0  0  0  0  0  0
    5.4970   -4.0000  -11.9098 H   0  0  0  0  0  0  0  0  0  0  0  0
    4.2917   -5.6641  -10.6585 H   0  0  0  0  0  0  0  0  0  0  0  0
    3.0399   -4.4847  -11.1991 H   0  0  0  0  0  0  0  0  0  0  0  0
    3.5979   -4.4395   -9.5069 H   0  0  0  0  0  0  0  0  0  0  0  0
   -0.3528   -1.6185   -2.3977 H   0  0  0  0  0  0  0  0  0  0  0  0
    0.4989    0.1505   -1.0677 H   0  0  0  0  0  0  0  0  0  0  0  0
    1.2819   -3.4500   -4.8605 H   0  0  0  0  0  0  0  0  0  0  0  0
   -0.2536   -5.5332    0.8444 H   0  0  0  0  0  0  0  0  0  0  0  0
   -0.8994   -8.4656   -3.3977 H   0  0  0  0  0  0  0  0  0  0  0  0
   -2.5764   -9.7213   -0.5853 H   0  0  0  0  0  0  0  0  0  0  0  0
   -0.5907  -11.4076   -0.6451 H   0  0  0  0  0  0  0  0  0  0  0  0
    1.7076   -9.9483   -0.6198 H   0  0  0  0  0  0  0  0  0  0  0  0
    1.7170   -8.5695    1.5828 H   0  0  0  0  0  0  0  0  0  0  0  0
   -0.5985   -8.9624    2.8495 H   0  0  0  0  0  0  0  0  0  0  0  0
   -1.8820  -10.9820    1.6813 H   0  0  0  0  0  0  0  0  0  0  0  0
   -0.1652  -11.4234    1.9657 H   0  0  0  0  0  0  0  0  0  0  0  0
   -2.5002   -8.2548    1.2510 H   0  0  0  0  0  0  0  0  0  0  0  0
  1  2  2  3
  2  3  1  0
  3  4  2  0
  3  5  1  0
  5  6  2  0
  6  7  1  0
  7  8  2  0
  8  9  1  0
  9 10  2  0
 10 11  1  0
 11 12  2  3
 12 13  1  0
 13 14  3  0
 12 15  1  0
 15 16  3  0
  8 17  1  0
 17 18  1  0
 18 19  1  0
 19 20  2  0
 20 21  1  0
 21 22  1  0
 21 23  1  0
  1 24  1  0
 24 25  2  0
 25 26  1  0
 26 27  1  0
 27 28  2  0
 28 29  1  0
 29 30  2  0
 30 31  1  0
 31 32  1  0
 30 33  1  0
 33 34  2  0
 26 35  1  0
 35 36  2  0
 36 37  1  0
 37 38  2  0
 38 39  1  0
 39 40  1  0
 38 41  1  0
 41 42  2  0
 25 43  1  0
 43 44  1  0
 44 45  1  0
 45 46  2  0
 46 47  1  0
 47 48  1  0
 48 49  2  0
 49 50  1  0
 50 51  2  0
 51 52  1  0
 52 53  1  0
 51 54  1  0
 54 55  2  0
 47 56  1  0
 56 57  2  0
 57 58  1  0
 58 59  2  0
 59 60  1  0
 60 61  1  0
 59 62  1  0
 62 63  2  0
 46 64  1  0
 64 65  1  0
 45 66  1  0
 66 67  2  0
 67 68  1  0
 68 69  1  0
 69 70  1  0
 67 71  1  0
 71 72  1  0
 72 73  1  0
 73 74  1  0
 71 75  2  0
 75 76  1  0
 76 77  1  0
 77 78  2  0
 78 79  1  0
 79 80  1  0
 75 81  1  0
 81 82  1  0
 82 83  2  0
 83 84  1  0
 84 85  1  0
 85 86  2  0
 86 87  1  0
 87 88  2  0
 88 89  1  0
 89 90  1  0
 90 91  1  0
 88 92  1  0
 92 93  2  0
 93 94  1  0
 92 95  1  0
 87 96  1  0
 86 97  1  0
 84 98  2  0
 98 99  1  0
 99100  2  0
100101  1  0
100102  1  0
102103  1  0
102104  2  0
104105  1  0
105106  1  0
106107  1  0
104108  1  0
108109  1  0
108110  2  0
110111  1  0
 98112  1  0
112113  2  0
113114  1  0
114115  2  0
115116  1  0
114117  1  0
117118  2  3
118119  1  0
119120  2  0
119121  1  0
121122  2  0
122123  1  0
123124  2  0
124125  1  0
125126  2  0
126127  1  0
127128  2  3
128129  1  0
129130  3  0
128131  1  0
131132  3  0
124133  1  0
133134  1  0
134135  1  0
135136  2  0
136137  1  0
137138  1  0
137139  1  0
 11  2  1  0
 23 17  1  0
 65 24  1  0
 77 66  1  0
116 81  2  0
127118  1  0
139133  1  0
 10  5  1  0
 22 18  1  0
 34 27  1  0
 42 35  1  0
 64 43  2  0
 80 76  2  0
113 82  1  0
126121  1  0
138134  1  0
 23  7  1  0
 55 48  1  0
 63 56  1  0
 93 85  1  0
110 99  1  0
139123  1  0
  1140  1  0
  6141  1  0
  9142  1  0
 17143  1  0
 18144  1  0
 19145  1  0
 20146  1  0
 21147  1  0
 22148  1  0
 22149  1  0
 23150  1  0
 28151  1  0
 29152  1  0
 32153  1  0
 32154  1  0
 32155  1  0
 33156  1  0
 34157  1  0
 36158  1  0
 37159  1  0
 40160  1  0
 40161  1  0
 40162  1  0
 41163  1  0
 42164  1  0
 49165  1  0
 50166  1  0
 53167  1  0
 53168  1  0
 53169  1  0
 54170  1  0
 55171  1  0
 57172  1  0
 58173  1  0
 61174  1  0
 61175  1  0
 61176  1  0
 62177  1  0
 63178  1  0
 69179  1  0
 69180  1  0
 70181  1  0
 70182  1  0
 70183  1  0
 73184  1  0
 73185  1  0
 74186  1  0
 74187  1  0
 74188  1  0
 90189  1  0
 90190  1  0
 91191  1  0
 91192  1  0
 91193  1  0
106194  1  0
106195  1  0
107196  1  0
107197  1  0
107198  1  0
115199  1  0
116200  1  0
117201  1  0
122202  1  0
125203  1  0
133204  1  0
134205  1  0
135206  1  0
136207  1  0
137208  1  0
138209  1  0
138210  1  0
139211  1  0
M  END

