
     RDKit          3D

192211  0  0  0  0  0  0  0  0999 V2000
   -6.4782   -3.7179   -0.0039 C   0  0  0  0  0  0  0  0  0  0  0  0
   -6.9348   -4.2771   -1.1416 C   0  0  0  0  0  0  0  0  0  0  0  0
   -6.6441   -3.7948   -2.5008 C   0  0  0  0  0  0  0  0  0  0  0  0
   -5.7820   -2.9397   -2.8267 O   0  0  0  0  0  0  0  0  0  0  0  0
   -7.5776   -4.4062   -3.4198 C   0  0  0  0  0  0  0  0  0  0  0  0
   -7.6910   -4.1549   -4.8073 C   0  0  0  0  0  0  0  0  0  0  0  0
   -8.7242   -4.8369   -5.4154 C   0  0  0  0  0  0  0  0  0  0  0  0
   -9.6084   -5.7150   -4.7082 C   0  0  0  0  0  0  0  0  0  0  0  0
   -9.5148   -5.9521   -3.3474 C   0  0  0  0  0  0  0  0  0  0  0  0
   -8.4368   -5.2766   -2.7024 C   0  0  0  0  0  0  0  0  0  0  0  0
   -8.0176   -5.3042   -1.2686 C   0  0  0  0  0  0  0  0  0  0  0  0
   -8.3632   -6.2302   -0.3349 C   0  0  0  0  0  0  0  0  0  0  0  0
   -9.3199   -7.2740   -0.5892 C   0  0  0  0  0  0  0  0  0  0  0  0
  -10.0814   -8.1265   -0.7790 N   0  0  0  0  0  0  0  0  0  0  0  0
   -7.7038   -6.3231    0.9421 C   0  0  0  0  0  0  0  0  0  0  0  0
   -7.1748   -6.4046    1.9692 N   0  0  0  0  0  0  0  0  0  0  0  0
  -10.3610   -6.0031   -5.9753 C   0  0  0  0  0  0  0  0  0  0  0  0
  -11.7538   -5.3263   -6.1331 C   0  0  0  0  0  0  0  0  0  0  0  0
  -12.1017   -5.4347   -7.5998 C   0  0  0  0  0  0  0  0  0  0  0  0
  -11.2722   -4.6088   -8.2482 C   0  0  0  0  0  0  0  0  0  0  0  0
  -10.3970   -3.9694   -7.1997 C   0  0  0  0  0  0  0  0  0  0  0  0
  -11.4189   -3.8463   -6.0826 C   0  0  0  0  0  0  0  0  0  0  0  0
   -9.4554   -5.0989   -6.6931 C   0  0  0  0  0  0  0  0  0  0  0  0
   -5.3727   -2.7356    0.0570 C   0  0  0  0  0  0  0  0  0  0  0  0
   -5.5698   -1.5235    0.7304 C   0  0  0  0  0  0  0  0  0  0  0  0
   -6.7771   -1.2361    1.2781 F   0  0  0  0  0  0  0  0  0  0  0  0
   -4.5268   -0.6023    0.8601 C   0  0  0  0  0  0  0  0  0  0  0  0
   -4.7411    0.5228    1.5917 F   0  0  0  0  0  0  0  0  0  0  0  0
   -3.2654   -0.8612    0.2899 C   0  0  0  0  0  0  0  0  0  0  0  0
   -3.0537   -2.0957   -0.3616 C   0  0  0  0  0  0  0  0  0  0  0  0
   -1.8382   -2.4138   -0.8776 N   0  0  0  0  0  0  0  0  0  0  0  0
   -1.5820   -3.6151   -1.4639 C   0  0  0  0  0  0  0  0  0  0  0  0
   -0.1799   -3.9222   -1.9360 C   0  0  0  0  0  0  0  0  0  0  0  0
    0.6575   -2.6628   -2.1709 C   0  0  0  0  0  0  0  0  0  0  0  0
   -2.6121   -4.5821   -1.4950 C   0  0  0  0  0  0  0  0  0  0  0  0
   -3.8376   -4.2533   -1.0059 N   0  0  0  0  0  0  0  0  0  0  0  0
   -4.0935   -3.0407   -0.4454 C   0  0  0  0  0  0  0  0  0  0  0  0
   -2.4336   -5.9518   -2.0949 C   0  0  0  0  0  0  0  0  0  0  0  0
   -2.8442   -5.9500   -3.5629 C   0  0  0  0  0  0  0  0  0  0  0  0
   -2.1605    0.1178    0.4665 C   0  0  0  0  0  0  0  0  0  0  0  0
   -2.2678    1.5312    0.4601 C   0  0  0  0  0  0  0  0  0  0  0  0
   -3.3254    2.2586   -0.2108 N   0  0  0  0  0  0  0  0  0  0  0  0
   -4.0123    1.6713   -1.3329 C   0  0  0  0  0  0  0  0  0  0  0  0
   -5.4127    1.6792   -1.3769 C   0  0  0  0  0  0  0  0  0  0  0  0
   -6.0896    1.0535   -2.4280 C   0  0  0  0  0  0  0  0  0  0  0  0
   -5.3712    0.4426   -3.4582 C   0  0  0  0  0  0  0  0  0  0  0  0
   -6.2441   -0.3432   -4.8145 S   0  0  0  0  0  0  0  0  0  0  0  0
   -6.2122    1.1415   -5.8693 C   0  0  0  0  0  0  0  0  0  0  0  0
   -3.9740    0.4473   -3.4326 C   0  0  0  0  0  0  0  0  0  0  0  0
   -3.2964    1.0648   -2.3783 C   0  0  0  0  0  0  0  0  0  0  0  0
   -3.5320    3.6594    0.0407 C   0  0  0  0  0  0  0  0  0  0  0  0
   -3.9102    4.1080    1.3135 C   0  0  0  0  0  0  0  0  0  0  0  0
   -4.0658    5.4801    1.5581 C   0  0  0  0  0  0  0  0  0  0  0  0
   -3.8379    6.4072    0.5327 C   0  0  0  0  0  0  0  0  0  0  0  0
   -3.9801    8.1665    0.8570 S   0  0  0  0  0  0  0  0  0  0  0  0
   -2.2145    8.3521    1.2627 C   0  0  0  0  0  0  0  0  0  0  0  0
   -3.4812    5.9585   -0.7441 C   0  0  0  0  0  0  0  0  0  0  0  0
   -3.3331    4.5922   -0.9905 C   0  0  0  0  0  0  0  0  0  0  0  0
   -1.0979    2.1175    0.9744 C   0  0  0  0  0  0  0  0  0  0  0  0
   -0.5877    3.6783    1.3802 S   0  0  0  0  0  0  0  0  0  0  0  0
    0.9652    3.1802    1.8847 C   0  0  0  0  0  0  0  0  0  0  0  0
    1.1067    1.8012    1.6619 C   0  0  0  0  0  0  0  0  0  0  0  0
    2.3784    1.1703    1.4216 N   0  0  0  0  0  0  0  0  0  0  0  0
    2.6422   -0.1162    2.0163 C   0  0  0  0  0  0  0  0  0  0  0  0
    3.0233   -1.2049    1.2136 C   0  0  0  0  0  0  0  0  0  0  0  0
    3.2690   -2.4540    1.7906 C   0  0  0  0  0  0  0  0  0  0  0  0
    3.1255   -2.6290    3.1707 C   0  0  0  0  0  0  0  0  0  0  0  0
    3.4444   -4.2288    3.9171 S   0  0  0  0  0  0  0  0  0  0  0  0
    1.7232   -4.7900    3.7417 C   0  0  0  0  0  0  0  0  0  0  0  0
    2.7411   -1.5504    3.9753 C   0  0  0  0  0  0  0  0  0  0  0  0
    2.4892   -0.3077    3.3991 C   0  0  0  0  0  0  0  0  0  0  0  0
    3.2586    1.7098    0.3947 C   0  0  0  0  0  0  0  0  0  0  0  0
    2.7530    2.4795   -0.6720 C   0  0  0  0  0  0  0  0  0  0  0  0
    3.6080    3.0213   -1.6356 C   0  0  0  0  0  0  0  0  0  0  0  0
    4.9859    2.8065   -1.5519 C   0  0  0  0  0  0  0  0  0  0  0  0
    6.0833    3.4582   -2.8136 S   0  0  0  0  0  0  0  0  0  0  0  0
    6.1916    5.1174   -2.0723 C   0  0  0  0  0  0  0  0  0  0  0  0
    5.5003    2.0275   -0.5144 C   0  0  0  0  0  0  0  0  0  0  0  0
    4.6424    1.4663    0.4386 C   0  0  0  0  0  0  0  0  0  0  0  0
   -0.0873    1.2443    1.2262 C   0  0  0  0  0  0  0  0  0  0  0  0
   -0.5900   -0.3260    0.9440 S   0  0  0  0  0  0  0  0  0  0  0  0
    1.9524    3.9938    2.6258 C   0  0  0  0  0  0  0  0  0  0  0  0
    2.2955    3.6207    3.9449 C   0  0  0  0  0  0  0  0  0  0  0  0
    1.4705    2.7593    4.6807 O   0  0  0  0  0  0  0  0  0  0  0  0
    0.0988    3.0298    4.9729 C   0  0  0  0  0  0  0  0  0  0  0  0
   -0.6750    1.7218    5.0292 C   0  0  0  0  0  0  0  0  0  0  0  0
    3.5377    4.0159    4.4925 C   0  0  0  0  0  0  0  0  0  0  0  0
    3.9870    3.5602    5.7460 O   0  0  0  0  0  0  0  0  0  0  0  0
    3.2279    3.5551    6.9569 C   0  0  0  0  0  0  0  0  0  0  0  0
    2.8524    4.9755    7.3663 C   0  0  0  0  0  0  0  0  0  0  0  0
    4.4108    4.8081    3.7252 C   0  0  0  0  0  0  0  0  0  0  0  0
    3.9809    5.3356    2.4937 C   0  0  0  0  0  0  0  0  0  0  0  0
    2.7457    4.9251    1.9438 C   0  0  0  0  0  0  0  0  0  0  0  0
    2.3882    5.3742    0.7107 N   0  0  0  0  0  0  0  0  0  0  0  0
    3.1759    6.2381    0.0207 C   0  0  0  0  0  0  0  0  0  0  0  0
    4.3881    6.6538    0.5662 C   0  0  0  0  0  0  0  0  0  0  0  0
    4.7719    6.1828    1.7788 N   0  0  0  0  0  0  0  0  0  0  0  0
    5.8171    4.9768    4.1630 C   0  0  0  0  0  0  0  0  0  0  0  0
    6.6917    3.9487    4.1338 C   0  0  0  0  0  0  0  0  0  0  0  0
    6.4387    2.6450    3.5160 C   0  0  0  0  0  0  0  0  0  0  0  0
    5.3087    2.1187    3.3181 O   0  0  0  0  0  0  0  0  0  0  0  0
    7.6994    2.0091    3.2228 C   0  0  0  0  0  0  0  0  0  0  0  0
    7.8979    0.8187    2.4880 C   0  0  0  0  0  0  0  0  0  0  0  0
    9.2246    0.4730    2.3371 C   0  0  0  0  0  0  0  0  0  0  0  0
   10.3032    1.2358    2.8864 C   0  0  0  0  0  0  0  0  0  0  0  0
   10.1173    2.4166    3.5912 C   0  0  0  0  0  0  0  0  0  0  0  0
    8.7502    2.7988    3.7571 C   0  0  0  0  0  0  0  0  0  0  0  0
    8.1540    3.9867    4.4459 C   0  0  0  0  0  0  0  0  0  0  0  0
    8.7474    4.7679    5.3779 C   0  0  0  0  0  0  0  0  0  0  0  0
   10.1328    4.6174    5.7496 C   0  0  0  0  0  0  0  0  0  0  0  0
   11.2355    4.4886    6.0696 N   0  0  0  0  0  0  0  0  0  0  0  0
    7.9931    5.6956    6.1828 C   0  0  0  0  0  0  0  0  0  0  0  0
    7.3865    6.4341    6.8355 N   0  0  0  0  0  0  0  0  0  0  0  0
   11.2936    0.2288    2.3730 C   0  0  0  0  0  0  0  0  0  0  0  0
   11.9106   -0.7794    3.3913 C   0  0  0  0  0  0  0  0  0  0  0  0
   10.9240   -1.0615    4.5025 C   0  0  0  0  0  0  0  0  0  0  0  0
    9.9246   -1.7538    3.9572 C   0  0  0  0  0  0  0  0  0  0  0  0
   10.2591   -1.9136    2.4938 C   0  0  0  0  0  0  0  0  0  0  0  0
   11.7607   -2.0701    2.6048 C   0  0  0  0  0  0  0  0  0  0  0  0
   10.1870   -0.5315    1.7827 C   0  0  0  0  0  0  0  0  0  0  0  0
   -6.9702   -3.9244    0.9296 H   0  0  0  0  0  0  0  0  0  0  0  0
   -7.0419   -3.4788   -5.3440 H   0  0  0  0  0  0  0  0  0  0  0  0
  -10.2431   -6.5683   -2.8543 H   0  0  0  0  0  0  0  0  0  0  0  0
  -10.3044   -7.0675   -6.2956 H   0  0  0  0  0  0  0  0  0  0  0  0
  -12.5416   -5.6744   -5.4301 H   0  0  0  0  0  0  0  0  0  0  0  0
  -12.9039   -6.0134   -8.0456 H   0  0  0  0  0  0  0  0  0  0  0  0
  -11.2843   -4.3995   -9.3095 H   0  0  0  0  0  0  0  0  0  0  0  0
   -9.8949   -3.0268   -7.5095 H   0  0  0  0  0  0  0  0  0  0  0  0
  -10.9967   -3.5076   -5.1072 H   0  0  0  0  0  0  0  0  0  0  0  0
  -12.2859   -3.1936   -6.3447 H   0  0  0  0  0  0  0  0  0  0  0  0
   -8.8322   -5.5942   -7.4693 H   0  0  0  0  0  0  0  0  0  0  0  0
    0.3211   -4.5496   -1.1692 H   0  0  0  0  0  0  0  0  0  0  0  0
   -0.2080   -4.4867   -2.8940 H   0  0  0  0  0  0  0  0  0  0  0  0
    0.1726   -2.0077   -2.9243 H   0  0  0  0  0  0  0  0  0  0  0  0
    0.7868   -2.0933   -1.2192 H   0  0  0  0  0  0  0  0  0  0  0  0
    1.6682   -2.9522   -2.5416 H   0  0  0  0  0  0  0  0  0  0  0  0
   -3.0689   -6.6777   -1.5503 H   0  0  0  0  0  0  0  0  0  0  0  0
   -1.3889   -6.3078   -1.9931 H   0  0  0  0  0  0  0  0  0  0  0  0
   -2.6609   -6.9507   -4.0070 H   0  0  0  0  0  0  0  0  0  0  0  0
   -2.2584   -5.1979   -4.1305 H   0  0  0  0  0  0  0  0  0  0  0  0
   -3.9226   -5.7110   -3.6576 H   0  0  0  0  0  0  0  0  0  0  0  0
   -5.9813    2.1376   -0.5783 H   0  0  0  0  0  0  0  0  0  0  0  0
   -7.1721    1.0465   -2.4389 H   0  0  0  0  0  0  0  0  0  0  0  0
   -6.6519    2.0071   -5.3305 H   0  0  0  0  0  0  0  0  0  0  0  0
   -6.8013    0.9497   -6.7910 H   0  0  0  0  0  0  0  0  0  0  0  0
   -5.1633    1.3704   -6.1533 H   0  0  0  0  0  0  0  0  0  0  0  0
   -3.4139   -0.0235   -4.2298 H   0  0  0  0  0  0  0  0  0  0  0  0
   -2.2174    1.0649   -2.3708 H   0  0  0  0  0  0  0  0  0  0  0  0
   -4.0774    3.3996    2.1159 H   0  0  0  0  0  0  0  0  0  0  0  0
   -4.3475    5.8197    2.5441 H   0  0  0  0  0  0  0  0  0  0  0  0
   -2.0152    9.4119    1.5253 H   0  0  0  0  0  0  0  0  0  0  0  0
   -1.9553    7.7109    2.1286 H   0  0  0  0  0  0  0  0  0  0  0  0
   -1.5884    8.0750    0.3889 H   0  0  0  0  0  0  0  0  0  0  0  0
   -3.3016    6.6679   -1.5399 H   0  0  0  0  0  0  0  0  0  0  0  0
   -3.0309    4.2595   -1.9748 H   0  0  0  0  0  0  0  0  0  0  0  0
    3.1243   -1.0880    0.1431 H   0  0  0  0  0  0  0  0  0  0  0  0
    3.5615   -3.2858    1.1633 H   0  0  0  0  0  0  0  0  0  0  0  0
    1.0304   -4.0821    4.2402 H   0  0  0  0  0  0  0  0  0  0  0  0
    1.4588   -4.8718    2.6667 H   0  0  0  0  0  0  0  0  0  0  0  0
    1.6173   -5.7842    4.2171 H   0  0  0  0  0  0  0  0  0  0  0  0
    2.6367   -1.6791    5.0437 H   0  0  0  0  0  0  0  0  0  0  0  0
    2.1886    0.5110    4.0327 H   0  0  0  0  0  0  0  0  0  0  0  0
    1.6938    2.6659   -0.7704 H   0  0  0  0  0  0  0  0  0  0  0  0
    3.1995    3.6033   -2.4505 H   0  0  0  0  0  0  0  0  0  0  0  0
    6.4656    5.0486   -0.9990 H   0  0  0  0  0  0  0  0  0  0  0  0
    6.9675    5.7042   -2.6083 H   0  0  0  0  0  0  0  0  0  0  0  0
    5.2145    5.6335   -2.1835 H   0  0  0  0  0  0  0  0  0  0  0  0
    6.5627    1.8334   -0.4510 H   0  0  0  0  0  0  0  0  0  0  0  0
    5.0592    0.8380    1.2115 H   0  0  0  0  0  0  0  0  0  0  0  0
    0.0274    3.5482    5.9542 H   0  0  0  0  0  0  0  0  0  0  0  0
   -0.3563    3.6987    4.2123 H   0  0  0  0  0  0  0  0  0  0  0  0
   -1.7651    1.9312    5.0501 H   0  0  0  0  0  0  0  0  0  0  0  0
   -0.3934    1.1580    5.9366 H   0  0  0  0  0  0  0  0  0  0  0  0
   -0.4418    1.1059    4.1385 H   0  0  0  0  0  0  0  0  0  0  0  0
    3.8608    3.1169    7.7613 H   0  0  0  0  0  0  0  0  0  0  0  0
    2.3315    2.9165    6.8755 H   0  0  0  0  0  0  0  0  0  0  0  0
    2.2470    5.4635    6.5657 H   0  0  0  0  0  0  0  0  0  0  0  0
    2.2606    4.9445    8.3053 H   0  0  0  0  0  0  0  0  0  0  0  0
    3.7797    5.5642    7.5429 H   0  0  0  0  0  0  0  0  0  0  0  0
    2.8631    6.5865   -0.9555 H   0  0  0  0  0  0  0  0  0  0  0  0
    5.0272    7.3316    0.0191 H   0  0  0  0  0  0  0  0  0  0  0  0
    6.1455    5.9778    4.4071 H   0  0  0  0  0  0  0  0  0  0  0  0
    7.0942    0.2218    2.0917 H   0  0  0  0  0  0  0  0  0  0  0  0
   10.9617    2.9693    3.9538 H   0  0  0  0  0  0  0  0  0  0  0  0
   12.0026    0.6327    1.6223 H   0  0  0  0  0  0  0  0  0  0  0  0
   12.9411   -0.5407    3.7245 H   0  0  0  0  0  0  0  0  0  0  0  0
   11.0285   -0.8214    5.5547 H   0  0  0  0  0  0  0  0  0  0  0  0
    9.0737   -2.1702    4.4850 H   0  0  0  0  0  0  0  0  0  0  0  0
    9.7276   -2.7393    1.9765 H   0  0  0  0  0  0  0  0  0  0  0  0
   12.0663   -2.9792    3.1737 H   0  0  0  0  0  0  0  0  0  0  0  0
   12.2825   -2.0578    1.6165 H   0  0  0  0  0  0  0  0  0  0  0  0
   10.2091   -0.5685    0.6706 H   0  0  0  0  0  0  0  0  0  0  0  0
  1  2  2  3
  2  3  1  0
  3  4  2  0
  3  5  1  0
  5  6  2  0
  6  7  1  0
  7  8  2  0
  8  9  1  0
  9 10  2  0
 10 11  1  0
 11 12  2  3
 12 13  1  0
 13 14  3  0
 12 15  1  0
 15 16  3  0
  8 17  1  0
 17 18  1  0
 18 19  1  0
 19 20  2  0
 20 21  1  0
 21 22  1  0
 21 23  1  0
  1 24  1  0
 24 25  2  0
 25 26  1  0
 25 27  1  0
 27 28  1  0
 27 29  2  0
 29 30  1  0
 30 31  2  0
 31 32  1  0
 32 33  1  0
 33 34  1  0
 32 35  2  0
 35 36  1  0
 36 37  2  0
 35 38  1  0
 38 39  1  0
 29 40  1  0
 40 41  2  0
 41 42  1  0
 42 43  1  0
 43 44  2  0
 44 45  1  0
 45 46  2  0
 46 47  1  0
 47 48  1  0
 46 49  1  0
 49 50  2  0
 42 51  1  0
 51 52  2  0
 52 53  1  0
 53 54  2  0
 54 55  1  0
 55 56  1  0
 54 57  1  0
 57 58  2  0
 41 59  1  0
 59 60  1  0
 60 61  1  0
 61 62  2  0
 62 63  1  0
 63 64  1  0
 64 65  2  0
 65 66  1  0
 66 67  2  0
 67 68  1  0
 68 69  1  0
 67 70  1  0
 70 71  2  0
 63 72  1  0
 72 73  2  0
 73 74  1  0
 74 75  2  0
 75 76  1  0
 76 77  1  0
 75 78  1  0
 78 79  2  0
 62 80  1  0
 80 81  1  0
 61 82  1  0
 82 83  2  0
 83 84  1  0
 84 85  1  0
 85 86  1  0
 83 87  1  0
 87 88  1  0
 88 89  1  0
 89 90  1  0
 87 91  2  0
 91 92  1  0
 92 93  2  0
 93 94  1  0
 94 95  2  0
 95 96  1  0
 96 97  2  0
 91 98  1  0
 98 99  2  3
 99100  1  0
100101  2  0
100102  1  0
102103  2  0
103104  1  0
104105  2  0
105106  1  0
106107  2  0
107108  1  0
108109  2  3
109110  1  0
110111  3  0
109112  1  0
112113  3  0
105114  1  0
114115  1  0
115116  1  0
116117  2  0
117118  1  0
118119  1  0
118120  1  0
 11  2  1  0
 23 17  1  0
 37 24  1  0
 81 40  1  0
 93 82  1  0
108 99  1  0
120114  1  0
 10  5  1  0
 22 18  1  0
 37 30  1  0
 50 43  1  0
 58 51  1  0
 80 59  2  0
 97 92  1  0
107102  1  0
119115  1  0
 23  7  1  0
 71 64  1  0
 79 72  1  0
120104  1  0
  1121  1  0
  6122  1  0
  9123  1  0
 17124  1  0
 18125  1  0
 19126  1  0
 20127  1  0
 21128  1  0
 22129  1  0
 22130  1  0
 23131  1  0
 33132  1  0
 33133  1  0
 34134  1  0
 34135  1  0
 34136  1  0
 38137  1  0
 38138  1  0
 39139  1  0
 39140  1  0
 39141  1  0
 44142  1  0
 45143  1  0
 48144  1  0
 48145  1  0
 48146  1  0
 49147  1  0
 50148  1  0
 52149  1  0
 53150  1  0
 56151  1  0
 56152  1  0
 56153  1  0
 57154  1  0
 58155  1  0
 65156  1  0
 66157  1  0
 69158  1  0
 69159  1  0
 69160  1  0
 70161  1  0
 71162  1  0
 73163  1  0
 74164  1  0
 77165  1  0
 77166  1  0
 77167  1  0
 78168  1  0
 79169  1  0
 85170  1  0
 85171  1  0
 86172  1  0
 86173  1  0
 86174  1  0
 89175  1  0
 89176  1  0
 90177  1  0
 90178  1  0
 90179  1  0
 95180  1  0
 96181  1  0
 98182  1  0
103183  1  0
106184  1  0
114185  1  0
115186  1  0
116187  1  0
117188  1  0
118189  1  0
119190  1  0
119191  1  0
120192  1  0
M  END

