
     RDKit          3D

197216  0  0  0  0  0  0  0  0999 V2000
   -1.8438   -5.3161   -0.9460 C   0  0  0  0  0  0  0  0  0  0  0  0
   -2.8751   -4.4514   -0.9948 C   0  0  0  0  0  0  0  0  0  0  0  0
   -2.7908   -3.0371   -0.5827 C   0  0  0  0  0  0  0  0  0  0  0  0
   -1.7749   -2.2977   -0.6829 O   0  0  0  0  0  0  0  0  0  0  0  0
   -4.0538   -2.6402    0.0084 C   0  0  0  0  0  0  0  0  0  0  0  0
   -4.3209   -1.4643    0.7431 C   0  0  0  0  0  0  0  0  0  0  0  0
   -5.5284   -1.4909    1.4197 C   0  0  0  0  0  0  0  0  0  0  0  0
   -6.4067   -2.6239    1.4139 C   0  0  0  0  0  0  0  0  0  0  0  0
   -6.1655   -3.7614    0.6609 C   0  0  0  0  0  0  0  0  0  0  0  0
   -4.9562   -3.7269   -0.0855 C   0  0  0  0  0  0  0  0  0  0  0  0
   -4.3127   -4.8156   -0.8635 C   0  0  0  0  0  0  0  0  0  0  0  0
   -4.9399   -5.8189   -1.5304 C   0  0  0  0  0  0  0  0  0  0  0  0
   -4.2251   -6.7161   -2.3992 C   0  0  0  0  0  0  0  0  0  0  0  0
   -3.6465   -7.4333   -3.0992 N   0  0  0  0  0  0  0  0  0  0  0  0
   -6.3758   -5.9278   -1.5551 C   0  0  0  0  0  0  0  0  0  0  0  0
   -7.5290   -6.0001   -1.6015 N   0  0  0  0  0  0  0  0  0  0  0  0
   -7.3138   -1.9464    2.4046 C   0  0  0  0  0  0  0  0  0  0  0  0
   -8.6778   -1.4225    1.8666 C   0  0  0  0  0  0  0  0  0  0  0  0
   -9.1795   -0.4239    2.8834 C   0  0  0  0  0  0  0  0  0  0  0  0
   -8.3880    0.6485    2.7884 C   0  0  0  0  0  0  0  0  0  0  0  0
   -7.3580    0.3297    1.7334 C   0  0  0  0  0  0  0  0  0  0  0  0
   -8.2539   -0.4552    0.7813 C   0  0  0  0  0  0  0  0  0  0  0  0
   -6.4437   -0.7646    2.3573 C   0  0  0  0  0  0  0  0  0  0  0  0
   -0.6068   -4.9537   -0.2232 C   0  0  0  0  0  0  0  0  0  0  0  0
    0.5943   -4.7158   -0.9074 C   0  0  0  0  0  0  0  0  0  0  0  0
    0.6800   -4.9782   -2.2377 F   0  0  0  0  0  0  0  0  0  0  0  0
    1.6850   -4.1403   -0.2438 C   0  0  0  0  0  0  0  0  0  0  0  0
    2.8194   -3.8997   -0.9410 F   0  0  0  0  0  0  0  0  0  0  0  0
    1.5790   -3.7419    1.1107 C   0  0  0  0  0  0  0  0  0  0  0  0
    0.3934   -4.0861    1.8195 C   0  0  0  0  0  0  0  0  0  0  0  0
    0.2163   -3.7449    3.1202 N   0  0  0  0  0  0  0  0  0  0  0  0
   -0.9221   -4.0067    3.8113 C   0  0  0  0  0  0  0  0  0  0  0  0
   -1.0065   -3.5260    5.2350 C   0  0  0  0  0  0  0  0  0  0  0  0
   -0.4807   -4.5821    6.1945 C   0  0  0  0  0  0  0  0  0  0  0  0
   -1.9571   -4.7162    3.1623 C   0  0  0  0  0  0  0  0  0  0  0  0
   -1.8048   -5.0090    1.8462 N   0  0  0  0  0  0  0  0  0  0  0  0
   -0.6704   -4.7128    1.1569 C   0  0  0  0  0  0  0  0  0  0  0  0
   -3.2325   -5.1503    3.8429 C   0  0  0  0  0  0  0  0  0  0  0  0
   -3.4026   -6.6616    3.7558 C   0  0  0  0  0  0  0  0  0  0  0  0
    2.6064   -2.8330    1.7087 C   0  0  0  0  0  0  0  0  0  0  0  0
    2.4987   -2.3362    3.0136 C   0  0  0  0  0  0  0  0  0  0  0  0
    3.4387   -2.8651    3.9750 N   0  0  0  0  0  0  0  0  0  0  0  0
    4.8122   -3.0305    3.5709 C   0  0  0  0  0  0  0  0  0  0  0  0
    5.1907   -4.1214    2.7744 C   0  0  0  0  0  0  0  0  0  0  0  0
    6.4755   -4.1898    2.2321 C   0  0  0  0  0  0  0  0  0  0  0  0
    7.3999   -3.1702    2.4914 C   0  0  0  0  0  0  0  0  0  0  0  0
    9.0091   -3.2029    1.6968 S   0  0  0  0  0  0  0  0  0  0  0  0
    8.3869   -2.4379    0.1651 C   0  0  0  0  0  0  0  0  0  0  0  0
    7.0385   -2.0927    3.3127 C   0  0  0  0  0  0  0  0  0  0  0  0
    5.7510   -2.0246    3.8565 C   0  0  0  0  0  0  0  0  0  0  0  0
    3.1038   -3.0502    5.3647 C   0  0  0  0  0  0  0  0  0  0  0  0
    3.6761   -4.1214    6.0815 C   0  0  0  0  0  0  0  0  0  0  0  0
    3.4526   -4.2596    7.4558 C   0  0  0  0  0  0  0  0  0  0  0  0
    2.6572   -3.3331    8.1339 C   0  0  0  0  0  0  0  0  0  0  0  0
    2.4587   -3.4514    9.9157 S   0  0  0  0  0  0  0  0  0  0  0  0
    0.9369   -4.4416    9.8318 C   0  0  0  0  0  0  0  0  0  0  0  0
    2.0628   -2.2790    7.4293 C   0  0  0  0  0  0  0  0  0  0  0  0
    2.2811   -2.1391    6.0515 C   0  0  0  0  0  0  0  0  0  0  0  0
    2.3849   -0.9403    2.9475 C   0  0  0  0  0  0  0  0  0  0  0  0
    0.8690   -0.1843    2.8236 S   0  0  0  0  0  0  0  0  0  0  0  0
    1.3186    1.0738    1.8036 C   0  0  0  0  0  0  0  0  0  0  0  0
    2.6697    0.9017    1.5263 C   0  0  0  0  0  0  0  0  0  0  0  0
    3.5239    1.9503    1.0597 N   0  0  0  0  0  0  0  0  0  0  0  0
    3.8662    3.0734    1.9336 C   0  0  0  0  0  0  0  0  0  0  0  0
    4.9769    3.9029    1.6539 C   0  0  0  0  0  0  0  0  0  0  0  0
    5.3399    4.9315    2.5344 C   0  0  0  0  0  0  0  0  0  0  0  0
    4.5765    5.1793    3.6807 C   0  0  0  0  0  0  0  0  0  0  0  0
    5.0588    6.4609    4.8424 S   0  0  0  0  0  0  0  0  0  0  0  0
    5.7064    5.2835    6.0797 C   0  0  0  0  0  0  0  0  0  0  0  0
    3.4425    4.4127    3.9345 C   0  0  0  0  0  0  0  0  0  0  0  0
    3.1031    3.3586    3.0890 C   0  0  0  0  0  0  0  0  0  0  0  0
    4.3064    1.6986   -0.1200 C   0  0  0  0  0  0  0  0  0  0  0  0
    5.4735    0.9237   -0.0320 C   0  0  0  0  0  0  0  0  0  0  0  0
    6.3242    0.8104   -1.1376 C   0  0  0  0  0  0  0  0  0  0  0  0
    6.0247    1.4914   -2.3201 C   0  0  0  0  0  0  0  0  0  0  0  0
    7.2087    1.4788   -3.6658 S   0  0  0  0  0  0  0  0  0  0  0  0
    8.2036    2.8242   -2.9369 C   0  0  0  0  0  0  0  0  0  0  0  0
    4.8451    2.2416   -2.4215 C   0  0  0  0  0  0  0  0  0  0  0  0
    3.9868    2.3416   -1.3238 C   0  0  0  0  0  0  0  0  0  0  0  0
    3.1461   -0.3392    1.9496 C   0  0  0  0  0  0  0  0  0  0  0  0
    3.2981   -1.5756    0.8091 S   0  0  0  0  0  0  0  0  0  0  0  0
    0.4170    1.8478    0.9462 C   0  0  0  0  0  0  0  0  0  0  0  0
    0.6557    3.1562    0.5399 C   0  0  0  0  0  0  0  0  0  0  0  0
   -0.0615    3.5209   -0.6013 C   0  0  0  0  0  0  0  0  0  0  0  0
   -0.0029    4.7665   -1.2443 C   0  0  0  0  0  0  0  0  0  0  0  0
    0.6359    5.9402   -0.6233 C   0  0  0  0  0  0  0  0  0  0  0  0
    2.2777    6.1371   -0.2875 S   0  0  0  0  0  0  0  0  0  0  0  0
    2.1139    7.6297    0.4942 C   0  0  0  0  0  0  0  0  0  0  0  0
    3.2358    8.4338    1.0759 C   0  0  0  0  0  0  0  0  0  0  0  0
    3.0489    8.6374    2.5761 C   0  0  0  0  0  0  0  0  0  0  0  0
    0.7708    7.9811    0.4922 C   0  0  0  0  0  0  0  0  0  0  0  0
    0.2882    9.1193    1.0459 F   0  0  0  0  0  0  0  0  0  0  0  0
   -0.0521    7.0342   -0.1229 C   0  0  0  0  0  0  0  0  0  0  0  0
   -1.3974    7.1584   -0.1897 F   0  0  0  0  0  0  0  0  0  0  0  0
   -0.7464    4.9127   -2.4236 C   0  0  0  0  0  0  0  0  0  0  0  0
   -1.6010    3.9082   -2.9047 C   0  0  0  0  0  0  0  0  0  0  0  0
   -1.6848    2.6524   -2.2401 C   0  0  0  0  0  0  0  0  0  0  0  0
   -2.6830    1.6182   -2.6108 C   0  0  0  0  0  0  0  0  0  0  0  0
   -3.9028    1.1633   -1.5357 S   0  0  0  0  0  0  0  0  0  0  0  0
   -5.0529    0.7399   -2.6814 C   0  0  0  0  0  0  0  0  0  0  0  0
   -6.5012    0.5110   -2.3829 C   0  0  0  0  0  0  0  0  0  0  0  0
   -6.9583   -0.8765   -2.8335 C   0  0  0  0  0  0  0  0  0  0  0  0
   -4.5436    1.1244   -3.9008 C   0  0  0  0  0  0  0  0  0  0  0  0
   -3.1604    1.3473   -3.8984 C   0  0  0  0  0  0  0  0  0  0  0  0
   -2.4510    1.5396   -5.0370 F   0  0  0  0  0  0  0  0  0  0  0  0
   -5.2690    1.1007   -5.0455 F   0  0  0  0  0  0  0  0  0  0  0  0
   -0.8750    2.4972   -1.0937 C   0  0  0  0  0  0  0  0  0  0  0  0
   -0.6857    1.1357   -0.1133 S   0  0  0  0  0  0  0  0  0  0  0  0
   -2.2638    4.3104   -4.0749 C   0  0  0  0  0  0  0  0  0  0  0  0
   -1.8173    5.5207   -4.5866 C   0  0  0  0  0  0  0  0  0  0  0  0
   -0.7004    6.1951   -3.5181 S   0  0  0  0  0  0  0  0  0  0  0  0
   -1.9309    5.8424   -6.0172 C   0  0  0  0  0  0  0  0  0  0  0  0
   -1.2025    5.1688   -6.9367 C   0  0  0  0  0  0  0  0  0  0  0  0
   -0.0967    4.2496   -6.6196 C   0  0  0  0  0  0  0  0  0  0  0  0
    0.4917    4.1286   -5.5113 O   0  0  0  0  0  0  0  0  0  0  0  0
    0.2241    3.4812   -7.7954 C   0  0  0  0  0  0  0  0  0  0  0  0
    1.1363    2.4329   -7.9010 C   0  0  0  0  0  0  0  0  0  0  0  0
    1.2310    1.7392   -9.1132 C   0  0  0  0  0  0  0  0  0  0  0  0
    2.1534    0.6846   -9.1952 O   0  0  0  0  0  0  0  0  0  0  0  0
    2.2519   -0.2134  -10.2926 C   0  0  0  0  0  0  0  0  0  0  0  0
    0.3891    2.1026  -10.1904 C   0  0  0  0  0  0  0  0  0  0  0  0
   -0.5216    3.1648  -10.0591 C   0  0  0  0  0  0  0  0  0  0  0  0
   -0.5830    3.8765   -8.8473 C   0  0  0  0  0  0  0  0  0  0  0  0
   -1.4620    5.0154   -8.4124 C   0  0  0  0  0  0  0  0  0  0  0  0
   -2.2688    5.7697   -9.2057 C   0  0  0  0  0  0  0  0  0  0  0  0
   -2.4184    5.5329  -10.6177 C   0  0  0  0  0  0  0  0  0  0  0  0
   -2.5553    5.3597  -11.7533 N   0  0  0  0  0  0  0  0  0  0  0  0
   -3.0071    6.9058   -8.7236 C   0  0  0  0  0  0  0  0  0  0  0  0
   -3.6205    7.8208   -8.3594 N   0  0  0  0  0  0  0  0  0  0  0  0
   -2.0055   -6.3735   -1.0957 H   0  0  0  0  0  0  0  0  0  0  0  0
   -3.6183   -0.6492    0.8362 H   0  0  0  0  0  0  0  0  0  0  0  0
   -6.8230   -4.6178    0.7097 H   0  0  0  0  0  0  0  0  0  0  0  0
   -7.3465   -2.4526    3.3979 H   0  0  0  0  0  0  0  0  0  0  0  0
   -9.4048   -2.2015    1.5656 H   0  0  0  0  0  0  0  0  0  0  0  0
  -10.0652   -0.5009    3.5041 H   0  0  0  0  0  0  0  0  0  0  0  0
   -8.5176    1.5862    3.3143 H   0  0  0  0  0  0  0  0  0  0  0  0
   -6.8380    1.2113    1.2998 H   0  0  0  0  0  0  0  0  0  0  0  0
   -7.7176   -0.9509   -0.0518 H   0  0  0  0  0  0  0  0  0  0  0  0
   -9.0958    0.1448    0.3594 H   0  0  0  0  0  0  0  0  0  0  0  0
   -5.9682   -0.4915    3.3283 H   0  0  0  0  0  0  0  0  0  0  0  0
   -2.0327   -3.2211    5.5103 H   0  0  0  0  0  0  0  0  0  0  0  0
   -0.3884   -2.6104    5.3416 H   0  0  0  0  0  0  0  0  0  0  0  0
   -0.9820   -5.5567    6.0222 H   0  0  0  0  0  0  0  0  0  0  0  0
   -0.6883   -4.2639    7.2333 H   0  0  0  0  0  0  0  0  0  0  0  0
    0.6137   -4.7051    6.0657 H   0  0  0  0  0  0  0  0  0  0  0  0
   -4.0949   -4.6594    3.3479 H   0  0  0  0  0  0  0  0  0  0  0  0
   -3.2692   -4.8852    4.9162 H   0  0  0  0  0  0  0  0  0  0  0  0
   -3.4626   -6.9928    2.6978 H   0  0  0  0  0  0  0  0  0  0  0  0
   -4.3308   -6.9683    4.2765 H   0  0  0  0  0  0  0  0  0  0  0  0
   -2.5436   -7.1681    4.2465 H   0  0  0  0  0  0  0  0  0  0  0  0
    4.4760   -4.8988    2.5500 H   0  0  0  0  0  0  0  0  0  0  0  0
    6.7509   -5.0159    1.5890 H   0  0  0  0  0  0  0  0  0  0  0  0
    9.2095   -2.3628   -0.5803 H   0  0  0  0  0  0  0  0  0  0  0  0
    8.0059   -1.4193    0.3950 H   0  0  0  0  0  0  0  0  0  0  0  0
    7.5695   -3.0546   -0.2672 H   0  0  0  0  0  0  0  0  0  0  0  0
    7.7492   -1.2968    3.5126 H   0  0  0  0  0  0  0  0  0  0  0  0
    5.4724   -1.1780    4.4709 H   0  0  0  0  0  0  0  0  0  0  0  0
    4.3089   -4.8403    5.5821 H   0  0  0  0  0  0  0  0  0  0  0  0
    3.9178   -5.0752    7.9959 H   0  0  0  0  0  0  0  0  0  0  0  0
    0.1253   -3.8335    9.3867 H   0  0  0  0  0  0  0  0  0  0  0  0
    0.6342   -4.7335   10.8558 H   0  0  0  0  0  0  0  0  0  0  0  0
    1.1025   -5.3557    9.2312 H   0  0  0  0  0  0  0  0  0  0  0  0
    1.4527   -1.5502    7.9470 H   0  0  0  0  0  0  0  0  0  0  0  0
    1.8366   -1.2974    5.5380 H   0  0  0  0  0  0  0  0  0  0  0  0
    5.5852    3.7531    0.7718 H   0  0  0  0  0  0  0  0  0  0  0  0
    6.2026    5.5492    2.3095 H   0  0  0  0  0  0  0  0  0  0  0  0
    6.0769    5.8497    6.9609 H   0  0  0  0  0  0  0  0  0  0  0  0
    4.8976    4.6006    6.4196 H   0  0  0  0  0  0  0  0  0  0  0  0
    6.5368    4.6891    5.6507 H   0  0  0  0  0  0  0  0  0  0  0  0
    2.8377    4.6073    4.8117 H   0  0  0  0  0  0  0  0  0  0  0  0
    2.2448    2.7740    3.3726 H   0  0  0  0  0  0  0  0  0  0  0  0
    5.7397    0.4443    0.9040 H   0  0  0  0  0  0  0  0  0  0  0  0
    7.2339    0.2368   -1.0559 H   0  0  0  0  0  0  0  0  0  0  0  0
    7.5806    3.7366   -2.8266 H   0  0  0  0  0  0  0  0  0  0  0  0
    9.0685    3.0542   -3.5956 H   0  0  0  0  0  0  0  0  0  0  0  0
    8.5986    2.5159   -1.9443 H   0  0  0  0  0  0  0  0  0  0  0  0
    4.6099    2.7688   -3.3366 H   0  0  0  0  0  0  0  0  0  0  0  0
    3.0931    2.9466   -1.3927 H   0  0  0  0  0  0  0  0  0  0  0  0
    1.3690    3.8012    1.0247 H   0  0  0  0  0  0  0  0  0  0  0  0
    4.1964    7.9038    0.9010 H   0  0  0  0  0  0  0  0  0  0  0  0
    3.2867    9.4229    0.5659 H   0  0  0  0  0  0  0  0  0  0  0  0
    2.8966    7.6630    3.0837 H   0  0  0  0  0  0  0  0  0  0  0  0
    3.9532    9.1294    3.0029 H   0  0  0  0  0  0  0  0  0  0  0  0
    2.1764    9.2947    2.7798 H   0  0  0  0  0  0  0  0  0  0  0  0
   -7.1152    1.2835   -2.8929 H   0  0  0  0  0  0  0  0  0  0  0  0
   -6.6631    0.6286   -1.2940 H   0  0  0  0  0  0  0  0  0  0  0  0
   -8.0281   -1.0190   -2.5648 H   0  0  0  0  0  0  0  0  0  0  0  0
   -6.8614   -0.9653   -3.9356 H   0  0  0  0  0  0  0  0  0  0  0  0
   -6.3515   -1.6760   -2.3471 H   0  0  0  0  0  0  0  0  0  0  0  0
   -3.0075    3.7421   -4.6075 H   0  0  0  0  0  0  0  0  0  0  0  0
   -2.7654    6.4710   -6.2926 H   0  0  0  0  0  0  0  0  0  0  0  0
    1.7486    2.1523   -7.0578 H   0  0  0  0  0  0  0  0  0  0  0  0
    1.2977   -0.7674  -10.4085 H   0  0  0  0  0  0  0  0  0  0  0  0
    3.0618   -0.9471  -10.0866 H   0  0  0  0  0  0  0  0  0  0  0  0
    2.4961    0.3368  -11.2250 H   0  0  0  0  0  0  0  0  0  0  0  0
    0.4249    1.5623  -11.1244 H   0  0  0  0  0  0  0  0  0  0  0  0
   -1.1696    3.3760  -10.8909 H   0  0  0  0  0  0  0  0  0  0  0  0
  1  2  2  3
  2  3  1  0
  3  4  2  0
  3  5  1  0
  5  6  2  0
  6  7  1  0
  7  8  2  0
  8  9  1  0
  9 10  2  0
 10 11  1  0
 11 12  2  3
 12 13  1  0
 13 14  3  0
 12 15  1  0
 15 16  3  0
  8 17  1  0
 17 18  1  0
 18 19  1  0
 19 20  2  0
 20 21  1  0
 21 22  1  0
 21 23  1  0
  1 24  1  0
 24 25  2  0
 25 26  1  0
 25 27  1  0
 27 28  1  0
 27 29  2  0
 29 30  1  0
 30 31  2  0
 31 32  1  0
 32 33  1  0
 33 34  1  0
 32 35  2  0
 35 36  1  0
 36 37  2  0
 35 38  1  0
 38 39  1  0
 29 40  1  0
 40 41  2  0
 41 42  1  0
 42 43  1  0
 43 44  2  0
 44 45  1  0
 45 46  2  0
 46 47  1  0
 47 48  1  0
 46 49  1  0
 49 50  2  0
 42 51  1  0
 51 52  2  0
 52 53  1  0
 53 54  2  0
 54 55  1  0
 55 56  1  0
 54 57  1  0
 57 58  2  0
 41 59  1  0
 59 60  1  0
 60 61  1  0
 61 62  2  0
 62 63  1  0
 63 64  1  0
 64 65  2  0
 65 66  1  0
 66 67  2  0
 67 68  1  0
 68 69  1  0
 67 70  1  0
 70 71  2  0
 63 72  1  0
 72 73  2  0
 73 74  1  0
 74 75  2  0
 75 76  1  0
 76 77  1  0
 75 78  1  0
 78 79  2  0
 62 80  1  0
 80 81  1  0
 61 82  1  0
 82 83  2  0
 83 84  1  0
 84 85  2  0
 85 86  1  0
 86 87  1  0
 87 88  1  0
 88 89  1  0
 89 90  1  0
 88 91  2  0
 91 92  1  0
 91 93  1  0
 93 94  1  0
 85 95  1  0
 95 96  2  0
 96 97  1  0
 97 98  1  0
 98 99  1  0
 99100  1  0
100101  1  0
101102  1  0
100103  2  0
103104  1  0
104105  1  0
103106  1  0
 97107  2  0
107108  1  0
 96109  1  0
109110  2  0
110111  1  0
110112  1  0
112113  2  3
113114  1  0
114115  2  0
114116  1  0
116117  2  0
117118  1  0
118119  1  0
119120  1  0
118121  2  0
121122  1  0
122123  2  0
123124  1  0
124125  2  3
125126  1  0
126127  3  0
125128  1  0
128129  3  0
 11  2  1  0
 23 17  1  0
 37 24  1  0
 81 40  1  0
108 82  1  0
124113  1  0
 10  5  1  0
 22 18  1  0
 37 30  1  0
 50 43  1  0
 58 51  1  0
 80 59  2  0
107 84  1  0
123116  1  0
 23  7  1  0
 71 64  1  0
 79 72  1  0
 93 86  2  0
111 95  1  0
104 98  2  0
  1130  1  0
  6131  1  0
  9132  1  0
 17133  1  0
 18134  1  0
 19135  1  0
 20136  1  0
 21137  1  0
 22138  1  0
 22139  1  0
 23140  1  0
 33141  1  0
 33142  1  0
 34143  1  0
 34144  1  0
 34145  1  0
 38146  1  0
 38147  1  0
 39148  1  0
 39149  1  0
 39150  1  0
 44151  1  0
 45152  1  0
 48153  1  0
 48154  1  0
 48155  1  0
 49156  1  0
 50157  1  0
 52158  1  0
 53159  1  0
 56160  1  0
 56161  1  0
 56162  1  0
 57163  1  0
 58164  1  0
 65165  1  0
 66166  1  0
 69167  1  0
 69168  1  0
 69169  1  0
 70170  1  0
 71171  1  0
 73172  1  0
 74173  1  0
 77174  1  0
 77175  1  0
 77176  1  0
 78177  1  0
 79178  1  0
 83179  1  0
 89180  1  0
 89181  1  0
 90182  1  0
 90183  1  0
 90184  1  0
101185  1  0
101186  1  0
102187  1  0
102188  1  0
102189  1  0
109190  1  0
112191  1  0
117192  1  0
120193  1  0
120194  1  0
120195  1  0
121196  1  0
122197  1  0
M  END

