
     RDKit          3D

242266  0  0  0  0  0  0  0  0999 V2000
   -0.0774    2.1228   -6.8459 C   0  0  0  0  0  0  0  0  0  0  0  0
   -1.2074    1.4081   -6.8578 C   0  0  0  0  0  0  0  0  0  0  0  0
   -1.8064    0.7889   -5.6581 C   0  0  0  0  0  0  0  0  0  0  0  0
   -1.4659    1.0254   -4.4715 O   0  0  0  0  0  0  0  0  0  0  0  0
   -2.8492   -0.1157   -6.0925 C   0  0  0  0  0  0  0  0  0  0  0  0
   -3.6446   -0.9349   -5.3282 C   0  0  0  0  0  0  0  0  0  0  0  0
   -4.5517   -1.7601   -5.9204 C   0  0  0  0  0  0  0  0  0  0  0  0
   -4.6971   -1.7790   -7.2866 C   0  0  0  0  0  0  0  0  0  0  0  0
   -3.8990   -0.9610   -8.0425 C   0  0  0  0  0  0  0  0  0  0  0  0
   -2.9712   -0.1275   -7.4705 C   0  0  0  0  0  0  0  0  0  0  0  0
   -1.9395    0.8355   -7.9874 C   0  0  0  0  0  0  0  0  0  0  0  0
   -1.7951    1.1330   -9.2407 C   0  0  0  0  0  0  0  0  0  0  0  0
   -0.8868    2.1157   -9.7977 C   0  0  0  0  0  0  0  0  0  0  0  0
   -0.1367    2.9164  -10.2344 N   0  0  0  0  0  0  0  0  0  0  0  0
   -2.4438    0.3521  -10.3019 C   0  0  0  0  0  0  0  0  0  0  0  0
   -2.9514   -0.2638  -11.1116 N   0  0  0  0  0  0  0  0  0  0  0  0
   -5.7820   -2.8079   -7.3034 C   0  0  0  0  0  0  0  0  0  0  0  0
   -7.1345   -2.2004   -7.4576 C   0  0  0  0  0  0  0  0  0  0  0  0
   -8.1397   -3.2504   -7.0081 C   0  0  0  0  0  0  0  0  0  0  0  0
   -7.8459   -3.4972   -5.7343 C   0  0  0  0  0  0  0  0  0  0  0  0
   -6.9201   -2.4731   -5.2773 C   0  0  0  0  0  0  0  0  0  0  0  0
   -7.2272   -1.3018   -6.2477 C   0  0  0  0  0  0  0  0  0  0  0  0
   -5.5588   -2.8408   -5.7659 C   0  0  0  0  0  0  0  0  0  0  0  0
    0.5952    2.2637   -5.5229 C   0  0  0  0  0  0  0  0  0  0  0  0
    1.7146    1.5856   -5.0791 C   0  0  0  0  0  0  0  0  0  0  0  0
    2.3921    0.7010   -5.9886 N   0  0  0  0  0  0  0  0  0  0  0  0
    3.8039    0.7403   -6.1091 C   0  0  0  0  0  0  0  0  0  0  0  0
    4.3769   -0.5561   -6.1242 C   0  0  0  0  0  0  0  0  0  0  0  0
    5.7108   -0.7355   -6.1981 C   0  0  0  0  0  0  0  0  0  0  0  0
    6.5588    0.3488   -6.2592 C   0  0  0  0  0  0  0  0  0  0  0  0
    8.3367    0.0927   -6.3571 S   0  0  0  0  0  0  0  0  0  0  0  0
    8.6496   -1.7084   -6.3413 C   0  0  0  0  0  0  0  0  0  0  0  0
    6.0243    1.6136   -6.2468 C   0  0  0  0  0  0  0  0  0  0  0  0
    4.6026    1.8225   -6.1688 C   0  0  0  0  0  0  0  0  0  0  0  0
    1.6575   -0.2293   -6.7098 C   0  0  0  0  0  0  0  0  0  0  0  0
    1.7647   -0.4232   -8.0892 C   0  0  0  0  0  0  0  0  0  0  0  0
    0.9847   -1.3706   -8.7107 C   0  0  0  0  0  0  0  0  0  0  0  0
    0.0731   -2.1627   -8.0206 C   0  0  0  0  0  0  0  0  0  0  0  0
   -1.0022   -3.3225   -8.8090 S   0  0  0  0  0  0  0  0  0  0  0  0
   -0.2897   -4.9545   -9.0165 C   0  0  0  0  0  0  0  0  0  0  0  0
   -0.0347   -1.9792   -6.6599 C   0  0  0  0  0  0  0  0  0  0  0  0
    0.7525   -1.0294   -6.0474 C   0  0  0  0  0  0  0  0  0  0  0  0
    2.0509    1.8116   -3.7828 C   0  0  0  0  0  0  0  0  0  0  0  0
    3.1897    1.2014   -2.6179 S   0  0  0  0  0  0  0  0  0  0  0  0
    2.6770    1.9924   -1.2467 C   0  0  0  0  0  0  0  0  0  0  0  0
    1.5965    2.7732   -1.6824 C   0  0  0  0  0  0  0  0  0  0  0  0
    0.7704    3.5434   -0.7933 N   0  0  0  0  0  0  0  0  0  0  0  0
    0.9378    4.8679   -0.3651 C   0  0  0  0  0  0  0  0  0  0  0  0
    0.7956    5.0992    1.0148 C   0  0  0  0  0  0  0  0  0  0  0  0
    0.8753    6.3734    1.5285 C   0  0  0  0  0  0  0  0  0  0  0  0
    1.0893    7.4637    0.7182 C   0  0  0  0  0  0  0  0  0  0  0  0
    1.2266    9.1101    1.4357 S   0  0  0  0  0  0  0  0  0  0  0  0
    1.1236    9.0345    3.2370 C   0  0  0  0  0  0  0  0  0  0  0  0
    1.2227    7.2130   -0.6238 C   0  0  0  0  0  0  0  0  0  0  0  0
    1.1471    5.9409   -1.1572 C   0  0  0  0  0  0  0  0  0  0  0  0
   -0.4646    2.9617   -0.3080 C   0  0  0  0  0  0  0  0  0  0  0  0
   -0.6570    1.7011    0.1377 C   0  0  0  0  0  0  0  0  0  0  0  0
   -1.8895    1.2998    0.6439 C   0  0  0  0  0  0  0  0  0  0  0  0
   -2.9716    2.1943    0.7059 C   0  0  0  0  0  0  0  0  0  0  0  0
   -4.5640    1.6936    1.3808 S   0  0  0  0  0  0  0  0  0  0  0  0
   -5.6338    3.1708    1.3593 C   0  0  0  0  0  0  0  0  0  0  0  0
   -2.7697    3.4706    0.2522 C   0  0  0  0  0  0  0  0  0  0  0  0
   -1.5498    3.8471   -0.2433 C   0  0  0  0  0  0  0  0  0  0  0  0
    1.3331    2.6184   -3.0330 C   0  0  0  0  0  0  0  0  0  0  0  0
    0.1198    3.1396   -4.1458 S   0  0  0  0  0  0  0  0  0  0  0  0
    3.0256    1.7238    0.1846 C   0  0  0  0  0  0  0  0  0  0  0  0
    3.1084    2.4652    1.2584 C   0  0  0  0  0  0  0  0  0  0  0  0
    3.9532    3.6511    1.3508 N   0  0  0  0  0  0  0  0  0  0  0  0
    4.0027    4.9624    1.0483 C   0  0  0  0  0  0  0  0  0  0  0  0
    4.2370    5.9907    1.9408 C   0  0  0  0  0  0  0  0  0  0  0  0
    4.5714    7.2412    1.4964 C   0  0  0  0  0  0  0  0  0  0  0  0
    4.6881    7.5488    0.1757 C   0  0  0  0  0  0  0  0  0  0  0  0
    5.1537    9.1581   -0.4071 S   0  0  0  0  0  0  0  0  0  0  0  0
    6.9554    9.2938   -0.5949 C   0  0  0  0  0  0  0  0  0  0  0  0
    4.4543    6.5445   -0.7362 C   0  0  0  0  0  0  0  0  0  0  0  0
    4.1228    5.2928   -0.3192 C   0  0  0  0  0  0  0  0  0  0  0  0
    5.3995    3.2082    1.6591 C   0  0  0  0  0  0  0  0  0  0  0  0
    6.1553    3.7411    2.6000 C   0  0  0  0  0  0  0  0  0  0  0  0
    7.4833    3.2716    2.7315 C   0  0  0  0  0  0  0  0  0  0  0  0
    7.9546    2.2749    1.8774 C   0  0  0  0  0  0  0  0  0  0  0  0
    9.6399    1.6256    1.9956 S   0  0  0  0  0  0  0  0  0  0  0  0
    9.8229    0.3446    0.7176 C   0  0  0  0  0  0  0  0  0  0  0  0
    7.1187    1.7545    0.9088 C   0  0  0  0  0  0  0  0  0  0  0  0
    5.8222    2.2246    0.7934 C   0  0  0  0  0  0  0  0  0  0  0  0
    2.8963    1.7872    2.4762 C   0  0  0  0  0  0  0  0  0  0  0  0
    2.1946    2.2930    4.0589 S   0  0  0  0  0  0  0  0  0  0  0  0
    1.7135    0.7498    4.6046 C   0  0  0  0  0  0  0  0  0  0  0  0
    2.1176   -0.1026    3.6497 C   0  0  0  0  0  0  0  0  0  0  0  0
    2.4145   -1.5111    3.8587 N   0  0  0  0  0  0  0  0  0  0  0  0
    2.7162   -1.9663    5.2066 C   0  0  0  0  0  0  0  0  0  0  0  0
    3.5801   -1.1107    5.9362 C   0  0  0  0  0  0  0  0  0  0  0  0
    4.0739   -1.4843    7.1670 C   0  0  0  0  0  0  0  0  0  0  0  0
    3.7387   -2.7122    7.7283 C   0  0  0  0  0  0  0  0  0  0  0  0
    4.4330   -3.1459    9.3079 S   0  0  0  0  0  0  0  0  0  0  0  0
    3.9998   -4.8466    9.7262 C   0  0  0  0  0  0  0  0  0  0  0  0
    2.8870   -3.5438    7.0138 C   0  0  0  0  0  0  0  0  0  0  0  0
    2.3975   -3.1407    5.7630 C   0  0  0  0  0  0  0  0  0  0  0  0
    2.7932   -2.4191    2.8731 C   0  0  0  0  0  0  0  0  0  0  0  0
    2.3208   -3.6300    2.5338 C   0  0  0  0  0  0  0  0  0  0  0  0
    2.9369   -4.4917    1.6303 C   0  0  0  0  0  0  0  0  0  0  0  0
    4.0882   -4.1387    1.0170 C   0  0  0  0  0  0  0  0  0  0  0  0
    4.8760   -5.2460   -0.1714 S   0  0  0  0  0  0  0  0  0  0  0  0
    5.9734   -6.4362    0.7155 C   0  0  0  0  0  0  0  0  0  0  0  0
    4.6277   -2.8978    1.3214 C   0  0  0  0  0  0  0  0  0  0  0  0
    3.9995   -2.0797    2.2203 C   0  0  0  0  0  0  0  0  0  0  0  0
    2.7095    0.5449    2.5389 C   0  0  0  0  0  0  0  0  0  0  0  0
    2.7462    0.0871    0.8125 S   0  0  0  0  0  0  0  0  0  0  0  0
    0.4566    0.4881    5.4562 C   0  0  0  0  0  0  0  0  0  0  0  0
   -0.3551   -0.5890    5.3889 C   0  0  0  0  0  0  0  0  0  0  0  0
   -1.6448   -0.4642    5.8071 C   0  0  0  0  0  0  0  0  0  0  0  0
   -2.6637   -1.3573    5.6283 C   0  0  0  0  0  0  0  0  0  0  0  0
   -2.5518   -2.7198    5.1200 C   0  0  0  0  0  0  0  0  0  0  0  0
   -3.3731   -3.7609    5.0381 C   0  0  0  0  0  0  0  0  0  0  0  0
   -3.0480   -4.9167    4.4586 C   0  0  0  0  0  0  0  0  0  0  0  0
   -1.8484   -5.1488    3.8918 C   0  0  0  0  0  0  0  0  0  0  0  0
   -1.0524   -6.4925    3.0898 S   0  0  0  0  0  0  0  0  0  0  0  0
   -1.2802   -6.5165    1.3296 C   0  0  0  0  0  0  0  0  0  0  0  0
   -0.5669   -5.3107    0.6922 C   0  0  0  0  0  0  0  0  0  0  0  0
   -1.0095   -3.4064    4.2389 Se  0  0  0  0  0  2  0  0  0  0  0  0
   -3.9740   -0.9471    5.9035 C   0  0  0  0  0  0  0  0  0  0  0  0
   -4.3772    0.2787    6.3489 C   0  0  0  0  0  0  0  0  0  0  0  0
   -3.3263    1.1704    6.5519 C   0  0  0  0  0  0  0  0  0  0  0  0
   -3.5148    2.5415    6.9869 C   0  0  0  0  0  0  0  0  0  0  0  0
   -4.4610    3.4647    7.0879 C   0  0  0  0  0  0  0  0  0  0  0  0
   -4.2999    4.6452    7.7027 C   0  0  0  0  0  0  0  0  0  0  0  0
   -3.1923    5.0559    8.2843 C   0  0  0  0  0  0  0  0  0  0  0  0
   -2.5097    6.4218    9.1289 S   0  0  0  0  0  0  0  0  0  0  0  0
   -1.6338    7.4708    7.9347 C   0  0  0  0  0  0  0  0  0  0  0  0
   -0.9580    8.6455    8.5821 C   0  0  0  0  0  0  0  0  0  0  0  0
   -2.0611    3.4283    7.9165 Se  0  0  0  0  0  2  0  0  0  0  0  0
   -2.0115    0.7612    6.2738 C   0  0  0  0  0  0  0  0  0  0  0  0
   -0.5480    1.6795    6.1292 S   0  0  0  0  0  0  0  0  0  0  0  0
   -5.7513    0.4453    6.4232 C   0  0  0  0  0  0  0  0  0  0  0  0
   -6.5494   -0.5395    6.0771 C   0  0  0  0  0  0  0  0  0  0  0  0
   -5.4123   -1.7779    5.6366 S   0  0  0  0  0  0  0  0  0  0  0  0
   -8.0011   -0.9307    6.0267 C   0  0  0  0  0  0  0  0  0  0  0  0
   -8.0473   -2.3015    5.8229 C   0  0  0  0  0  0  0  0  0  0  0  0
   -8.2171   -3.5981    5.6380 C   0  0  0  0  0  0  0  0  0  0  0  0
   -8.9022   -4.2102    6.6719 O   0  0  0  0  0  0  0  0  0  0  0  0
   -7.7857   -4.3750    4.5513 C   0  0  0  0  0  0  0  0  0  0  0  0
   -7.8718   -5.7242    4.2512 C   0  0  0  0  0  0  0  0  0  0  0  0
   -7.3157   -6.2257    3.0554 C   0  0  0  0  0  0  0  0  0  0  0  0
   -7.3243   -7.5175    2.6374 C   0  0  0  0  0  0  0  0  0  0  0  0
   -6.7275   -7.8032    1.4419 C   0  0  0  0  0  0  0  0  0  0  0  0
   -6.5630   -9.5107    0.5893 Br  0  0  0  0  0  0  0  0  0  0  0  0
   -6.1644   -6.2790    0.9242 S   0  0  0  0  0  0  0  0  0  0  0  0
   -6.7025   -5.3367    2.2283 C   0  0  0  0  0  0  0  0  0  0  0  0
   -6.6307   -3.9712    2.5554 C   0  0  0  0  0  0  0  0  0  0  0  0
   -7.1710   -3.5090    3.7132 C   0  0  0  0  0  0  0  0  0  0  0  0
   -7.2403   -2.1407    4.3136 C   0  0  0  0  0  0  0  0  0  0  0  0
   -7.4379   -1.2493    3.4113 C   0  0  0  0  0  0  0  0  0  0  0  0
   -7.6091   -0.3704    2.4859 C   0  0  0  0  0  0  0  0  0  0  0  0
   -7.7670    0.4549    1.6437 N   0  0  0  0  0  0  0  0  0  0  0  0
   -5.7026   -1.4152    2.8891 C   0  0  0  0  0  0  0  0  0  0  0  0
   -4.5580   -1.5145    2.5621 N   0  0  0  0  0  0  0  0  0  0  0  0
    0.3374    2.5544   -7.6815 H   0  0  0  0  0  0  0  0  0  0  0  0
   -3.5705   -0.9404   -4.2578 H   0  0  0  0  0  0  0  0  0  0  0  0
   -4.0148   -0.9833   -9.0977 H   0  0  0  0  0  0  0  0  0  0  0  0
   -5.5482   -3.7387   -7.8015 H   0  0  0  0  0  0  0  0  0  0  0  0
   -7.3642   -1.7694   -8.4088 H   0  0  0  0  0  0  0  0  0  0  0  0
   -8.9317   -3.6720   -7.6188 H   0  0  0  0  0  0  0  0  0  0  0  0
   -8.2765   -4.3503   -5.2220 H   0  0  0  0  0  0  0  0  0  0  0  0
   -7.0062   -2.1904   -4.2169 H   0  0  0  0  0  0  0  0  0  0  0  0
   -8.2567   -0.9158   -6.0635 H   0  0  0  0  0  0  0  0  0  0  0  0
   -6.4671   -0.5408   -6.2205 H   0  0  0  0  0  0  0  0  0  0  0  0
   -5.1956   -3.7813   -5.4244 H   0  0  0  0  0  0  0  0  0  0  0  0
    3.7435   -1.4362   -6.0813 H   0  0  0  0  0  0  0  0  0  0  0  0
    6.1763   -1.7410   -6.2064 H   0  0  0  0  0  0  0  0  0  0  0  0
    9.7100   -1.8977   -6.3424 H   0  0  0  0  0  0  0  0  0  0  0  0
    8.1180   -2.1823   -5.4773 H   0  0  0  0  0  0  0  0  0  0  0  0
    8.1320   -2.1166   -7.2419 H   0  0  0  0  0  0  0  0  0  0  0  0
    6.6658    2.4690   -6.2880 H   0  0  0  0  0  0  0  0  0  0  0  0
    4.1788    2.7992   -6.1533 H   0  0  0  0  0  0  0  0  0  0  0  0
    2.4791    0.2033   -8.5987 H   0  0  0  0  0  0  0  0  0  0  0  0
    1.0927   -1.4862   -9.7502 H   0  0  0  0  0  0  0  0  0  0  0  0
    0.7142   -4.9920   -8.5663 H   0  0  0  0  0  0  0  0  0  0  0  0
   -0.9762   -5.7490   -8.6226 H   0  0  0  0  0  0  0  0  0  0  0  0
   -0.1957   -5.0963  -10.1292 H   0  0  0  0  0  0  0  0  0  0  0  0
   -0.7309   -2.5708   -6.0696 H   0  0  0  0  0  0  0  0  0  0  0  0
    0.6123   -0.9327   -4.9690 H   0  0  0  0  0  0  0  0  0  0  0  0
    0.6212    4.2753    1.6843 H   0  0  0  0  0  0  0  0  0  0  0  0
    0.7692    6.5764    2.5783 H   0  0  0  0  0  0  0  0  0  0  0  0
    0.1640    8.6687    3.6140 H   0  0  0  0  0  0  0  0  0  0  0  0
    2.0192    8.5260    3.6846 H   0  0  0  0  0  0  0  0  0  0  0  0
    1.1772   10.1088    3.5923 H   0  0  0  0  0  0  0  0  0  0  0  0
    1.3980    8.1116   -1.2449 H   0  0  0  0  0  0  0  0  0  0  0  0
    1.2661    5.8192   -2.2202 H   0  0  0  0  0  0  0  0  0  0  0  0
    0.1440    0.9877    0.0936 H   0  0  0  0  0  0  0  0  0  0  0  0
   -2.0086    0.2773    0.9949 H   0  0  0  0  0  0  0  0  0  0  0  0
   -5.2296    3.9545    2.0714 H   0  0  0  0  0  0  0  0  0  0  0  0
   -6.6824    2.9522    1.5798 H   0  0  0  0  0  0  0  0  0  0  0  0
   -5.5599    3.6785    0.3652 H   0  0  0  0  0  0  0  0  0  0  0  0
   -3.5807    4.1662    0.2939 H   0  0  0  0  0  0  0  0  0  0  0  0
   -1.4199    4.8905   -0.6034 H   0  0  0  0  0  0  0  0  0  0  0  0
    4.1048    5.7744    2.9899 H   0  0  0  0  0  0  0  0  0  0  0  0
    4.7596    8.0413    2.2171 H   0  0  0  0  0  0  0  0  0  0  0  0
    7.4878    8.3538   -0.3028 H   0  0  0  0  0  0  0  0  0  0  0  0
    7.3606   10.1217    0.0097 H   0  0  0  0  0  0  0  0  0  0  0  0
    7.2427    9.5205   -1.6645 H   0  0  0  0  0  0  0  0  0  0  0  0
    4.5337    6.7496   -1.7952 H   0  0  0  0  0  0  0  0  0  0  0  0
    3.9495    4.5278   -1.0551 H   0  0  0  0  0  0  0  0  0  0  0  0
    5.8282    4.4880    3.2651 H   0  0  0  0  0  0  0  0  0  0  0  0
    8.1516    3.6608    3.4697 H   0  0  0  0  0  0  0  0  0  0  0  0
    8.9284   -0.3337    0.7913 H   0  0  0  0  0  0  0  0  0  0  0  0
   10.7038   -0.2810    0.8376 H   0  0  0  0  0  0  0  0  0  0  0  0
    9.7573    0.7668   -0.3211 H   0  0  0  0  0  0  0  0  0  0  0  0
    7.4659    0.9694    0.2282 H   0  0  0  0  0  0  0  0  0  0  0  0
    5.2372    1.7896    0.0169 H   0  0  0  0  0  0  0  0  0  0  0  0
    3.8216   -0.1689    5.4671 H   0  0  0  0  0  0  0  0  0  0  0  0
    4.7235   -0.8160    7.6983 H   0  0  0  0  0  0  0  0  0  0  0  0
    2.9044   -4.8767    9.8318 H   0  0  0  0  0  0  0  0  0  0  0  0
    4.3111   -5.5638    8.9472 H   0  0  0  0  0  0  0  0  0  0  0  0
    4.4643   -5.1232   10.7134 H   0  0  0  0  0  0  0  0  0  0  0  0
    2.5961   -4.4961    7.4013 H   0  0  0  0  0  0  0  0  0  0  0  0
    1.7650   -3.8262    5.2762 H   0  0  0  0  0  0  0  0  0  0  0  0
    1.3778   -3.9787    3.0167 H   0  0  0  0  0  0  0  0  0  0  0  0
    2.4624   -5.4337    1.4418 H   0  0  0  0  0  0  0  0  0  0  0  0
    6.7075   -6.8456    0.0096 H   0  0  0  0  0  0  0  0  0  0  0  0
    5.3592   -7.3149    1.0575 H   0  0  0  0  0  0  0  0  0  0  0  0
    6.5278   -5.9671    1.5233 H   0  0  0  0  0  0  0  0  0  0  0  0
    5.5624   -2.6328    0.8165 H   0  0  0  0  0  0  0  0  0  0  0  0
    4.5176   -1.1554    2.4528 H   0  0  0  0  0  0  0  0  0  0  0  0
    0.0787   -1.5320    4.9960 H   0  0  0  0  0  0  0  0  0  0  0  0
   -4.4051   -3.6890    5.5123 H   0  0  0  0  0  0  0  0  0  0  0  0
   -3.7891   -5.7881    4.4057 H   0  0  0  0  0  0  0  0  0  0  0  0
   -0.7714   -7.4169    0.9351 H   0  0  0  0  0  0  0  0  0  0  0  0
   -2.3505   -6.5002    1.0060 H   0  0  0  0  0  0  0  0  0  0  0  0
   -0.3149   -4.6028    1.5155 H   0  0  0  0  0  0  0  0  0  0  0  0
   -1.2190   -4.8309   -0.0773 H   0  0  0  0  0  0  0  0  0  0  0  0
    0.3568   -5.6545    0.2435 H   0  0  0  0  0  0  0  0  0  0  0  0
   -5.4592    3.2353    6.5717 H   0  0  0  0  0  0  0  0  0  0  0  0
   -5.2028    5.3744    7.7368 H   0  0  0  0  0  0  0  0  0  0  0  0
   -2.4051    7.8320    7.1866 H   0  0  0  0  0  0  0  0  0  0  0  0
   -0.8809    6.8763    7.4128 H   0  0  0  0  0  0  0  0  0  0  0  0
   -0.3920    8.1983    9.4662 H   0  0  0  0  0  0  0  0  0  0  0  0
   -0.1772    9.0405    7.9078 H   0  0  0  0  0  0  0  0  0  0  0  0
   -1.6419    9.4494    8.8703 H   0  0  0  0  0  0  0  0  0  0  0  0
   -6.2428    1.3781    6.8100 H   0  0  0  0  0  0  0  0  0  0  0  0
   -8.8307   -0.3690    6.1140 H   0  0  0  0  0  0  0  0  0  0  0  0
   -8.3666   -6.3631    4.9430 H   0  0  0  0  0  0  0  0  0  0  0  0
   -7.7979   -8.3586    3.2098 H   0  0  0  0  0  0  0  0  0  0  0  0
   -6.1575   -3.3722    1.8144 H   0  0  0  0  0  0  0  0  0  0  0  0
  1  2  2  3
  2  3  1  0
  3  4  2  0
  3  5  1  0
  5  6  2  0
  6  7  1  0
  7  8  2  0
  8  9  1  0
  9 10  2  0
 10 11  1  0
 11 12  2  3
 12 13  1  0
 13 14  3  0
 12 15  1  0
 15 16  3  0
  8 17  1  0
 17 18  1  0
 18 19  1  0
 19 20  2  0
 20 21  1  0
 21 22  1  0
 21 23  1  0
  1 24  1  0
 24 25  2  0
 25 26  1  0
 26 27  1  0
 27 28  2  0
 28 29  1  0
 29 30  2  0
 30 31  1  0
 31 32  1  0
 30 33  1  0
 33 34  2  0
 26 35  1  0
 35 36  2  0
 36 37  1  0
 37 38  2  0
 38 39  1  0
 39 40  1  0
 38 41  1  0
 41 42  2  0
 25 43  1  0
 43 44  1  0
 44 45  1  0
 45 46  2  0
 46 47  1  0
 47 48  1  0
 48 49  2  0
 49 50  1  0
 50 51  2  0
 51 52  1  0
 52 53  1  0
 51 54  1  0
 54 55  2  0
 47 56  1  0
 56 57  2  0
 57 58  1  0
 58 59  2  0
 59 60  1  0
 60 61  1  0
 59 62  1  0
 62 63  2  0
 46 64  1  0
 64 65  1  0
 45 66  1  0
 66 67  2  0
 67 68  1  0
 68 69  1  0
 69 70  2  0
 70 71  1  0
 71 72  2  0
 72 73  1  0
 73 74  1  0
 72 75  1  0
 75 76  2  0
 68 77  1  0
 77 78  2  0
 78 79  1  0
 79 80  2  0
 80 81  1  0
 81 82  1  0
 80 83  1  0
 83 84  2  0
 67 85  1  0
 85 86  1  0
 86 87  1  0
 87 88  2  0
 88 89  1  0
 89 90  1  0
 90 91  2  0
 91 92  1  0
 92 93  2  0
 93 94  1  0
 94 95  1  0
 93 96  1  0
 96 97  2  0
 89 98  1  0
 98 99  2  0
 99100  1  0
100101  2  0
101102  1  0
102103  1  0
101104  1  0
104105  2  0
 88106  1  0
106107  1  0
 87108  1  0
108109  2  0
109110  1  0
110111  2  0
111112  1  0
112113  2  0
113114  1  0
114115  2  0
115116  1  0
116117  1  0
117118  1  0
115119  1  0
111120  1  0
120121  2  0
121122  1  0
122123  1  0
123124  2  0
124125  1  0
125126  2  0
126127  1  0
127128  1  0
128129  1  0
126130  1  0
122131  2  0
131132  1  0
121133  1  0
133134  2  0
134135  1  0
134136  1  0
136137  2  3
137138  1  0
138139  2  0
138140  1  0
140141  2  0
141142  1  0
142143  1  0
143144  2  0
144145  1  0
144146  1  0
146147  1  0
147148  1  0
148149  2  0
149150  1  0
150151  2  3
151152  1  0
152153  3  0
151154  1  0
154155  3  0
 11  2  1  0
 23 17  1  0
 65 24  1  0
107 66  1  0
132108  1  0
150137  1  0
 10  5  1  0
 22 18  1  0
 34 27  1  0
 42 35  1  0
 64 43  2  0
 76 69  1  0
 84 77  1  0
106 85  2  0
131110  1  0
149140  1  0
 23  7  1  0
 55 48  1  0
 63 56  1  0
 97 90  1  0
105 98  1  0
119112  1  0
135120  1  0
147142  2  0
130123  1  0
  1156  1  0
  6157  1  0
  9158  1  0
 17159  1  0
 18160  1  0
 19161  1  0
 20162  1  0
 21163  1  0
 22164  1  0
 22165  1  0
 23166  1  0
 28167  1  0
 29168  1  0
 32169  1  0
 32170  1  0
 32171  1  0
 33172  1  0
 34173  1  0
 36174  1  0
 37175  1  0
 40176  1  0
 40177  1  0
 40178  1  0
 41179  1  0
 42180  1  0
 49181  1  0
 50182  1  0
 53183  1  0
 53184  1  0
 53185  1  0
 54186  1  0
 55187  1  0
 57188  1  0
 58189  1  0
 61190  1  0
 61191  1  0
 61192  1  0
 62193  1  0
 63194  1  0
 70195  1  0
 71196  1  0
 74197  1  0
 74198  1  0
 74199  1  0
 75200  1  0
 76201  1  0
 78202  1  0
 79203  1  0
 82204  1  0
 82205  1  0
 82206  1  0
 83207  1  0
 84208  1  0
 91209  1  0
 92210  1  0
 95211  1  0
 95212  1  0
 95213  1  0
 96214  1  0
 97215  1  0
 99216  1  0
100217  1  0
103218  1  0
103219  1  0
103220  1  0
104221  1  0
105222  1  0
109223  1  0
113224  1  0
114225  1  0
117226  1  0
117227  1  0
118228  1  0
118229  1  0
118230  1  0
124231  1  0
125232  1  0
128233  1  0
128234  1  0
129235  1  0
129236  1  0
129237  1  0
133238  1  0
136239  1  0
141240  1  0
143241  1  0
148242  1  0
M  END

