
     RDKit          3D

220240  0  0  0  0  0  0  0  0999 V2000
   -4.3548   -5.3657   -2.8771 C   0  0  0  0  0  0  0  0  0  0  0  0
   -4.2692   -5.9267   -1.6437 C   0  0  0  0  0  0  0  0  0  0  0  0
   -4.5203   -5.0883   -0.4532 C   0  0  0  0  0  0  0  0  0  0  0  0
   -5.2031   -4.0249   -0.3642 O   0  0  0  0  0  0  0  0  0  0  0  0
   -3.8075   -5.6229    0.6514 C   0  0  0  0  0  0  0  0  0  0  0  0
   -3.6826   -4.9875    1.9325 C   0  0  0  0  0  0  0  0  0  0  0  0
   -2.7950   -5.6615    2.7645 C   0  0  0  0  0  0  0  0  0  0  0  0
   -2.0975   -6.8721    2.4027 C   0  0  0  0  0  0  0  0  0  0  0  0
   -2.2443   -7.5046    1.1548 C   0  0  0  0  0  0  0  0  0  0  0  0
   -3.1257   -6.8226    0.2584 C   0  0  0  0  0  0  0  0  0  0  0  0
   -3.3833   -7.0908   -1.1748 C   0  0  0  0  0  0  0  0  0  0  0  0
   -2.8277   -8.0928   -1.9090 C   0  0  0  0  0  0  0  0  0  0  0  0
   -3.0957   -8.2478   -3.3609 C   0  0  0  0  0  0  0  0  0  0  0  0
   -3.3349   -8.4149   -4.4606 N   0  0  0  0  0  0  0  0  0  0  0  0
   -1.8424   -8.9848   -1.4254 C   0  0  0  0  0  0  0  0  0  0  0  0
   -0.9715   -9.7377   -1.0146 N   0  0  0  0  0  0  0  0  0  0  0  0
   -1.4388   -6.8679    3.7665 C   0  0  0  0  0  0  0  0  0  0  0  0
   -1.8581   -7.9077    4.8571 C   0  0  0  0  0  0  0  0  0  0  0  0
   -3.2997   -8.3414    4.6792 C   0  0  0  0  0  0  0  0  0  0  0  0
   -4.0346   -7.2482    4.8778 C   0  0  0  0  0  0  0  0  0  0  0  0
   -3.1157   -6.1692    5.3525 C   0  0  0  0  0  0  0  0  0  0  0  0
   -2.0866   -6.9993    6.0760 C   0  0  0  0  0  0  0  0  0  0  0  0
   -2.2225   -5.6799    4.1645 C   0  0  0  0  0  0  0  0  0  0  0  0
   -3.9655   -3.9602   -3.1483 C   0  0  0  0  0  0  0  0  0  0  0  0
   -4.6665   -2.7408   -2.8257 C   0  0  0  0  0  0  0  0  0  0  0  0
   -5.9424   -2.6177   -3.3300 N   0  0  0  0  0  0  0  0  0  0  0  0
   -6.9142   -2.2322   -2.4388 C   0  0  0  0  0  0  0  0  0  0  0  0
   -6.7389   -1.3867   -1.3289 C   0  0  0  0  0  0  0  0  0  0  0  0
   -7.8921   -0.9689   -0.5724 C   0  0  0  0  0  0  0  0  0  0  0  0
   -9.1984   -1.3372   -0.9584 C   0  0  0  0  0  0  0  0  0  0  0  0
  -10.6596   -1.0563    0.0465 S   0  0  0  0  0  0  0  0  0  0  0  0
  -10.4670    0.7069    0.4741 C   0  0  0  0  0  0  0  0  0  0  0  0
   -9.3450   -2.2314   -2.0403 C   0  0  0  0  0  0  0  0  0  0  0  0
   -8.2040   -2.6996   -2.7254 C   0  0  0  0  0  0  0  0  0  0  0  0
   -6.1292   -2.5158   -4.7468 C   0  0  0  0  0  0  0  0  0  0  0  0
   -5.8926   -3.6336   -5.5895 C   0  0  0  0  0  0  0  0  0  0  0  0
   -6.4260   -3.7286   -6.9070 C   0  0  0  0  0  0  0  0  0  0  0  0
   -7.1574   -2.6677   -7.4788 C   0  0  0  0  0  0  0  0  0  0  0  0
   -7.7574   -2.8020   -9.1383 S   0  0  0  0  0  0  0  0  0  0  0  0
   -6.2099   -2.1253   -9.8374 C   0  0  0  0  0  0  0  0  0  0  0  0
   -7.4499   -1.5521   -6.6635 C   0  0  0  0  0  0  0  0  0  0  0  0
   -6.9042   -1.4611   -5.3295 C   0  0  0  0  0  0  0  0  0  0  0  0
   -3.7596   -1.6447   -3.0576 C   0  0  0  0  0  0  0  0  0  0  0  0
   -3.2964   -0.4604   -1.9262 S   0  0  0  0  0  0  0  0  0  0  0  0
   -1.8245   -0.0310   -2.5064 C   0  0  0  0  0  0  0  0  0  0  0  0
   -1.4549   -0.8940   -3.6095 C   0  0  0  0  0  0  0  0  0  0  0  0
   -0.1096   -1.1433   -4.1014 N   0  0  0  0  0  0  0  0  0  0  0  0
    1.0393   -0.2423   -4.2899 C   0  0  0  0  0  0  0  0  0  0  0  0
    0.9852    0.9433   -5.1341 C   0  0  0  0  0  0  0  0  0  0  0  0
    2.2057    1.5838   -5.6656 C   0  0  0  0  0  0  0  0  0  0  0  0
    3.4866    1.0650   -5.3817 C   0  0  0  0  0  0  0  0  0  0  0  0
    5.0365    1.7749   -5.9770 S   0  0  0  0  0  0  0  0  0  0  0  0
    6.1833    0.3723   -5.7003 C   0  0  0  0  0  0  0  0  0  0  0  0
    3.6187   -0.0436   -4.5133 C   0  0  0  0  0  0  0  0  0  0  0  0
    2.4619   -0.5739   -3.8481 C   0  0  0  0  0  0  0  0  0  0  0  0
    0.2865   -2.5213   -4.3507 C   0  0  0  0  0  0  0  0  0  0  0  0
    0.4760   -3.3837   -3.2773 C   0  0  0  0  0  0  0  0  0  0  0  0
    0.9273   -4.6781   -3.4322 C   0  0  0  0  0  0  0  0  0  0  0  0
    1.2897   -5.1091   -4.7293 C   0  0  0  0  0  0  0  0  0  0  0  0
    1.6214   -6.8511   -5.0215 S   0  0  0  0  0  0  0  0  0  0  0  0
    3.1895   -6.9826   -4.1148 C   0  0  0  0  0  0  0  0  0  0  0  0
    1.2072   -4.2453   -5.8247 C   0  0  0  0  0  0  0  0  0  0  0  0
    0.6098   -2.9803   -5.6672 C   0  0  0  0  0  0  0  0  0  0  0  0
   -2.4927   -1.9064   -3.7704 C   0  0  0  0  0  0  0  0  0  0  0  0
   -2.4463   -3.5756   -3.8027 S   0  0  0  0  0  0  0  0  0  0  0  0
   -1.0139    0.6290   -1.5310 C   0  0  0  0  0  0  0  0  0  0  0  0
   -0.3923    1.8900   -1.5894 C   0  0  0  0  0  0  0  0  0  0  0  0
   -0.5941    2.9663   -2.5206 N   0  0  0  0  0  0  0  0  0  0  0  0
   -1.9160    3.4966   -2.5530 C   0  0  0  0  0  0  0  0  0  0  0  0
   -2.5087    4.1007   -1.4124 C   0  0  0  0  0  0  0  0  0  0  0  0
   -3.7881    4.7446   -1.4964 C   0  0  0  0  0  0  0  0  0  0  0  0
   -4.4919    4.8022   -2.7271 C   0  0  0  0  0  0  0  0  0  0  0  0
   -6.1483    5.4133   -2.7964 S   0  0  0  0  0  0  0  0  0  0  0  0
   -5.8117    7.1000   -3.3995 C   0  0  0  0  0  0  0  0  0  0  0  0
   -3.9298    4.1545   -3.8396 C   0  0  0  0  0  0  0  0  0  0  0  0
   -2.6940    3.4421   -3.7278 C   0  0  0  0  0  0  0  0  0  0  0  0
    0.5095    3.5640   -3.2385 C   0  0  0  0  0  0  0  0  0  0  0  0
    1.8623    3.4287   -2.8073 C   0  0  0  0  0  0  0  0  0  0  0  0
    2.8855    4.2164   -3.3567 C   0  0  0  0  0  0  0  0  0  0  0  0
    2.6399    5.0337   -4.4762 C   0  0  0  0  0  0  0  0  0  0  0  0
    3.8203    6.2693   -4.9423 S   0  0  0  0  0  0  0  0  0  0  0  0
    4.7808    5.3196   -6.1600 C   0  0  0  0  0  0  0  0  0  0  0  0
    1.3781    4.9898   -5.0703 C   0  0  0  0  0  0  0  0  0  0  0  0
    0.2975    4.3036   -4.4253 C   0  0  0  0  0  0  0  0  0  0  0  0
    0.2565    2.1437   -0.3562 C   0  0  0  0  0  0  0  0  0  0  0  0
    1.1857    3.4116    0.2285 S   0  0  0  0  0  0  0  0  0  0  0  0
    1.6364    2.6769    1.7244 C   0  0  0  0  0  0  0  0  0  0  0  0
    0.9476    1.4090    1.8225 C   0  0  0  0  0  0  0  0  0  0  0  0
    0.7438    0.5949    2.9902 N   0  0  0  0  0  0  0  0  0  0  0  0
    1.2828   -0.7759    3.0178 C   0  0  0  0  0  0  0  0  0  0  0  0
    1.4160   -1.6049    1.8413 C   0  0  0  0  0  0  0  0  0  0  0  0
    1.9647   -2.8939    1.8891 C   0  0  0  0  0  0  0  0  0  0  0  0
    2.5118   -3.3930    3.1009 C   0  0  0  0  0  0  0  0  0  0  0  0
    3.7829   -4.6241    3.0128 S   0  0  0  0  0  0  0  0  0  0  0  0
    2.9576   -6.0240    2.1826 C   0  0  0  0  0  0  0  0  0  0  0  0
    2.4073   -2.6052    4.2362 C   0  0  0  0  0  0  0  0  0  0  0  0
    1.7261   -1.3534    4.2353 C   0  0  0  0  0  0  0  0  0  0  0  0
   -0.2992    0.9942    3.9166 C   0  0  0  0  0  0  0  0  0  0  0  0
   -1.3122    0.1203    4.3343 C   0  0  0  0  0  0  0  0  0  0  0  0
   -2.4056    0.5563    5.1546 C   0  0  0  0  0  0  0  0  0  0  0  0
   -2.4759    1.9115    5.5607 C   0  0  0  0  0  0  0  0  0  0  0  0
   -3.7277    2.4854    6.7224 S   0  0  0  0  0  0  0  0  0  0  0  0
   -5.0765    1.3575    6.2754 C   0  0  0  0  0  0  0  0  0  0  0  0
   -1.4742    2.7918    5.1459 C   0  0  0  0  0  0  0  0  0  0  0  0
   -0.3978    2.3490    4.3301 C   0  0  0  0  0  0  0  0  0  0  0  0
    0.1647    1.2133    0.6495 C   0  0  0  0  0  0  0  0  0  0  0  0
   -1.0412    0.1162    0.1291 S   0  0  0  0  0  0  0  0  0  0  0  0
    2.5617    3.4442    2.6627 C   0  0  0  0  0  0  0  0  0  0  0  0
    3.5666    2.8882    3.4972 C   0  0  0  0  0  0  0  0  0  0  0  0
    3.4923    1.5251    3.8484 O   0  0  0  0  0  0  0  0  0  0  0  0
    3.5701    1.1356    5.2329 C   0  0  0  0  0  0  0  0  0  0  0  0
    2.3968    1.7597    6.0274 C   0  0  0  0  0  0  0  0  0  0  0  0
    4.6168    3.7109    4.0234 C   0  0  0  0  0  0  0  0  0  0  0  0
    5.7822    3.1754    4.6032 O   0  0  0  0  0  0  0  0  0  0  0  0
    6.5867    2.1767    3.9688 C   0  0  0  0  0  0  0  0  0  0  0  0
    6.9019    2.6223    2.5377 C   0  0  0  0  0  0  0  0  0  0  0  0
    4.4869    5.0998    4.0002 C   0  0  0  0  0  0  0  0  0  0  0  0
    3.4513    5.6889    3.3224 C   0  0  0  0  0  0  0  0  0  0  0  0
    2.4815    4.8672    2.6802 C   0  0  0  0  0  0  0  0  0  0  0  0
    1.5049    5.6019    2.0961 N   0  0  0  0  0  0  0  0  0  0  0  0
    2.0248    7.1751    2.3130 S   0  0  0  0  0  0  0  0  0  0  0  0
    3.3762    7.0376    3.2120 N   0  0  0  0  0  0  0  0  0  0  0  0
    5.2912    5.8559    4.9899 C   0  0  0  0  0  0  0  0  0  0  0  0
    6.6361    6.0561    4.9144 C   0  0  0  0  0  0  0  0  0  0  0  0
    7.4438    5.8131    3.7398 C   0  0  0  0  0  0  0  0  0  0  0  0
    7.0185    5.7818    2.5519 O   0  0  0  0  0  0  0  0  0  0  0  0
    8.8364    5.7124    4.1521 C   0  0  0  0  0  0  0  0  0  0  0  0
    9.9641    5.4272    3.3313 C   0  0  0  0  0  0  0  0  0  0  0  0
    9.8022    5.1905    1.5345 Cl  0  0  0  0  0  0  0  0  0  0  0  0
   11.2318    5.3118    3.9429 C   0  0  0  0  0  0  0  0  0  0  0  0
   12.6352    4.8875    2.9790 Cl  0  0  0  0  0  0  0  0  0  0  0  0
   11.3597    5.4835    5.3374 C   0  0  0  0  0  0  0  0  0  0  0  0
   12.9444    5.2979    6.1024 Cl  0  0  0  0  0  0  0  0  0  0  0  0
   10.2248    5.7703    6.1498 C   0  0  0  0  0  0  0  0  0  0  0  0
   10.5743    5.8469    7.9145 Cl  0  0  0  0  0  0  0  0  0  0  0  0
    8.9474    5.9214    5.5325 C   0  0  0  0  0  0  0  0  0  0  0  0
    7.5822    6.2634    6.0609 C   0  0  0  0  0  0  0  0  0  0  0  0
    7.1591    6.8179    7.2520 C   0  0  0  0  0  0  0  0  0  0  0  0
    7.8603    6.8830    8.4658 C   0  0  0  0  0  0  0  0  0  0  0  0
    8.3940    6.9435    9.5475 N   0  0  0  0  0  0  0  0  0  0  0  0
    5.8223    7.4498    7.3950 C   0  0  0  0  0  0  0  0  0  0  0  0
    4.8103    7.9620    7.5044 N   0  0  0  0  0  0  0  0  0  0  0  0
   -4.1480   -6.0466   -3.7309 H   0  0  0  0  0  0  0  0  0  0  0  0
   -4.2543   -4.0797    2.2548 H   0  0  0  0  0  0  0  0  0  0  0  0
   -1.7049   -8.4423    1.0453 H   0  0  0  0  0  0  0  0  0  0  0  0
   -0.3286   -6.6821    3.7353 H   0  0  0  0  0  0  0  0  0  0  0  0
   -1.1416   -8.7511    5.0785 H   0  0  0  0  0  0  0  0  0  0  0  0
   -3.6495   -9.3420    4.3804 H   0  0  0  0  0  0  0  0  0  0  0  0
   -5.0873   -7.2123    4.6098 H   0  0  0  0  0  0  0  0  0  0  0  0
   -3.5689   -5.3475    5.9048 H   0  0  0  0  0  0  0  0  0  0  0  0
   -2.5124   -7.5112    6.9873 H   0  0  0  0  0  0  0  0  0  0  0  0
   -1.1572   -6.4476    6.4420 H   0  0  0  0  0  0  0  0  0  0  0  0
   -1.5540   -4.7924    4.3608 H   0  0  0  0  0  0  0  0  0  0  0  0
   -5.7653   -0.9964   -1.0438 H   0  0  0  0  0  0  0  0  0  0  0  0
   -7.7007   -0.3250    0.3026 H   0  0  0  0  0  0  0  0  0  0  0  0
   -9.4648    0.9480    0.8507 H   0  0  0  0  0  0  0  0  0  0  0  0
  -11.1473    0.8880    1.3144 H   0  0  0  0  0  0  0  0  0  0  0  0
  -10.7669    1.3984   -0.3425 H   0  0  0  0  0  0  0  0  0  0  0  0
  -10.2958   -2.6250   -2.3848 H   0  0  0  0  0  0  0  0  0  0  0  0
   -8.4069   -3.3533   -3.5744 H   0  0  0  0  0  0  0  0  0  0  0  0
   -5.4612   -4.5151   -5.2066 H   0  0  0  0  0  0  0  0  0  0  0  0
   -6.2289   -4.6315   -7.4611 H   0  0  0  0  0  0  0  0  0  0  0  0
   -5.3077   -2.6629   -9.5007 H   0  0  0  0  0  0  0  0  0  0  0  0
   -6.1197   -1.0629   -9.6022 H   0  0  0  0  0  0  0  0  0  0  0  0
   -6.2385   -2.1965  -10.9085 H   0  0  0  0  0  0  0  0  0  0  0  0
   -8.1100   -0.7731   -7.0330 H   0  0  0  0  0  0  0  0  0  0  0  0
   -7.2576   -0.6015   -4.7650 H   0  0  0  0  0  0  0  0  0  0  0  0
    0.0073    1.3459   -5.4440 H   0  0  0  0  0  0  0  0  0  0  0  0
    2.0799    2.4101   -6.3037 H   0  0  0  0  0  0  0  0  0  0  0  0
    6.9156    0.3578   -6.5100 H   0  0  0  0  0  0  0  0  0  0  0  0
    5.7447   -0.6276   -5.7731 H   0  0  0  0  0  0  0  0  0  0  0  0
    6.6735    0.5060   -4.7169 H   0  0  0  0  0  0  0  0  0  0  0  0
    4.5288   -0.5545   -4.1743 H   0  0  0  0  0  0  0  0  0  0  0  0
    2.8484   -1.3919   -3.2749 H   0  0  0  0  0  0  0  0  0  0  0  0
    0.2837   -2.9823   -2.3127 H   0  0  0  0  0  0  0  0  0  0  0  0
    0.9263   -5.3045   -2.5541 H   0  0  0  0  0  0  0  0  0  0  0  0
    3.7582   -6.0536   -3.9674 H   0  0  0  0  0  0  0  0  0  0  0  0
    3.8231   -7.6576   -4.6884 H   0  0  0  0  0  0  0  0  0  0  0  0
    3.0004   -7.4631   -3.1329 H   0  0  0  0  0  0  0  0  0  0  0  0
    1.5424   -4.5222   -6.7924 H   0  0  0  0  0  0  0  0  0  0  0  0
    0.6638   -2.2358   -6.4801 H   0  0  0  0  0  0  0  0  0  0  0  0
   -2.0004    4.0854   -0.4489 H   0  0  0  0  0  0  0  0  0  0  0  0
   -4.2470    5.1307   -0.5834 H   0  0  0  0  0  0  0  0  0  0  0  0
   -5.1990    7.6679   -2.6897 H   0  0  0  0  0  0  0  0  0  0  0  0
   -6.7658    7.6383   -3.4791 H   0  0  0  0  0  0  0  0  0  0  0  0
   -5.3477    7.1011   -4.3957 H   0  0  0  0  0  0  0  0  0  0  0  0
   -4.4591    4.0805   -4.7827 H   0  0  0  0  0  0  0  0  0  0  0  0
   -2.3382    2.8923   -4.6034 H   0  0  0  0  0  0  0  0  0  0  0  0
    2.1759    2.7383   -2.0312 H   0  0  0  0  0  0  0  0  0  0  0  0
    3.8037    4.2425   -2.8044 H   0  0  0  0  0  0  0  0  0  0  0  0
    4.3418    4.3652   -6.4536 H   0  0  0  0  0  0  0  0  0  0  0  0
    4.8782    5.9069   -7.0963 H   0  0  0  0  0  0  0  0  0  0  0  0
    5.8028    5.1399   -5.7797 H   0  0  0  0  0  0  0  0  0  0  0  0
    1.1261    5.6206   -5.9260 H   0  0  0  0  0  0  0  0  0  0  0  0
   -0.6472    4.3460   -4.9640 H   0  0  0  0  0  0  0  0  0  0  0  0
    1.1575   -1.2722    0.8775 H   0  0  0  0  0  0  0  0  0  0  0  0
    2.0019   -3.4652    0.8653 H   0  0  0  0  0  0  0  0  0  0  0  0
    3.3949   -6.9763    2.5967 H   0  0  0  0  0  0  0  0  0  0  0  0
    3.2285   -6.0152    1.1105 H   0  0  0  0  0  0  0  0  0  0  0  0
    1.8656   -6.0675    2.2892 H   0  0  0  0  0  0  0  0  0  0  0  0
    2.9080   -2.8949    5.1224 H   0  0  0  0  0  0  0  0  0  0  0  0
    1.6602   -0.7955    5.2282 H   0  0  0  0  0  0  0  0  0  0  0  0
   -1.3079   -0.8859    3.9929 H   0  0  0  0  0  0  0  0  0  0  0  0
   -3.1362   -0.2165    5.4352 H   0  0  0  0  0  0  0  0  0  0  0  0
   -5.9887    1.7367    6.7589 H   0  0  0  0  0  0  0  0  0  0  0  0
   -5.2457    1.2677    5.1828 H   0  0  0  0  0  0  0  0  0  0  0  0
   -4.8671    0.3785    6.7214 H   0  0  0  0  0  0  0  0  0  0  0  0
   -1.4726    3.8213    5.4691 H   0  0  0  0  0  0  0  0  0  0  0  0
    0.3343    3.1168    4.0622 H   0  0  0  0  0  0  0  0  0  0  0  0
    4.5265    1.4419    5.7147 H   0  0  0  0  0  0  0  0  0  0  0  0
    3.6396    0.0221    5.3576 H   0  0  0  0  0  0  0  0  0  0  0  0
    1.5327    1.1100    6.0303 H   0  0  0  0  0  0  0  0  0  0  0  0
    2.7076    1.9938    7.0671 H   0  0  0  0  0  0  0  0  0  0  0  0
    2.0475    2.6825    5.5533 H   0  0  0  0  0  0  0  0  0  0  0  0
    6.0185    1.2175    3.9591 H   0  0  0  0  0  0  0  0  0  0  0  0
    7.5167    2.0020    4.5409 H   0  0  0  0  0  0  0  0  0  0  0  0
    6.8567    1.7698    1.8309 H   0  0  0  0  0  0  0  0  0  0  0  0
    7.8969    3.1080    2.5582 H   0  0  0  0  0  0  0  0  0  0  0  0
    6.1980    3.3854    2.1560 H   0  0  0  0  0  0  0  0  0  0  0  0
    4.7820    5.8485    5.9201 H   0  0  0  0  0  0  0  0  0  0  0  0
  1  2  2  3
  2  3  1  0
  3  4  2  0
  3  5  1  0
  5  6  2  0
  6  7  1  0
  7  8  2  0
  8  9  1  0
  9 10  2  0
 10 11  1  0
 11 12  2  3
 12 13  1  0
 13 14  3  0
 12 15  1  0
 15 16  3  0
  8 17  1  0
 17 18  1  0
 18 19  1  0
 19 20  2  0
 20 21  1  0
 21 22  1  0
 21 23  1  0
  1 24  1  0
 24 25  2  0
 25 26  1  0
 26 27  1  0
 27 28  2  0
 28 29  1  0
 29 30  2  0
 30 31  1  0
 31 32  1  0
 30 33  1  0
 33 34  2  0
 26 35  1  0
 35 36  2  0
 36 37  1  0
 37 38  2  0
 38 39  1  0
 39 40  1  0
 38 41  1  0
 41 42  2  0
 25 43  1  0
 43 44  1  0
 44 45  1  0
 45 46  2  0
 46 47  1  0
 47 48  1  0
 48 49  2  0
 49 50  1  0
 50 51  2  0
 51 52  1  0
 52 53  1  0
 51 54  1  0
 54 55  2  0
 47 56  1  0
 56 57  2  0
 57 58  1  0
 58 59  2  0
 59 60  1  0
 60 61  1  0
 59 62  1  0
 62 63  2  0
 46 64  1  0
 64 65  1  0
 45 66  1  0
 66 67  2  0
 67 68  1  0
 68 69  1  0
 69 70  2  0
 70 71  1  0
 71 72  2  0
 72 73  1  0
 73 74  1  0
 72 75  1  0
 75 76  2  0
 68 77  1  0
 77 78  2  0
 78 79  1  0
 79 80  2  0
 80 81  1  0
 81 82  1  0
 80 83  1  0
 83 84  2  0
 67 85  1  0
 85 86  1  0
 86 87  1  0
 87 88  2  0
 88 89  1  0
 89 90  1  0
 90 91  2  0
 91 92  1  0
 92 93  2  0
 93 94  1  0
 94 95  1  0
 93 96  1  0
 96 97  2  0
 89 98  1  0
 98 99  2  0
 99100  1  0
100101  2  0
101102  1  0
102103  1  0
101104  1  0
104105  2  0
 88106  1  0
106107  1  0
 87108  1  0
108109  2  0
109110  1  0
110111  1  0
111112  1  0
109113  1  0
113114  1  0
114115  1  0
115116  1  0
113117  2  0
117118  1  0
118119  1  0
119120  2  0
120121  1  0
121122  1  0
117123  1  0
123124  2  3
124125  1  0
125126  2  0
125127  1  0
127128  2  0
128129  1  0
128130  1  0
130131  1  0
130132  2  0
132133  1  0
132134  1  0
134135  1  0
134136  2  0
136137  1  0
137138  2  3
138139  1  0
139140  3  0
138141  1  0
141142  3  0
 11  2  1  0
 23 17  1  0
 65 24  1  0
107 66  1  0
119108  1  0
137124  1  0
 10  5  1  0
 22 18  1  0
 34 27  1  0
 42 35  1  0
 64 43  2  0
 76 69  1  0
 84 77  1  0
106 85  2  0
122118  2  0
136127  1  0
 23  7  1  0
 55 48  1  0
 63 56  1  0
 97 90  1  0
105 98  1  0
  1143  1  0
  6144  1  0
  9145  1  0
 17146  1  0
 18147  1  0
 19148  1  0
 20149  1  0
 21150  1  0
 22151  1  0
 22152  1  0
 23153  1  0
 28154  1  0
 29155  1  0
 32156  1  0
 32157  1  0
 32158  1  0
 33159  1  0
 34160  1  0
 36161  1  0
 37162  1  0
 40163  1  0
 40164  1  0
 40165  1  0
 41166  1  0
 42167  1  0
 49168  1  0
 50169  1  0
 53170  1  0
 53171  1  0
 53172  1  0
 54173  1  0
 55174  1  0
 57175  1  0
 58176  1  0
 61177  1  0
 61178  1  0
 61179  1  0
 62180  1  0
 63181  1  0
 70182  1  0
 71183  1  0
 74184  1  0
 74185  1  0
 74186  1  0
 75187  1  0
 76188  1  0
 78189  1  0
 79190  1  0
 82191  1  0
 82192  1  0
 82193  1  0
 83194  1  0
 84195  1  0
 91196  1  0
 92197  1  0
 95198  1  0
 95199  1  0
 95200  1  0
 96201  1  0
 97202  1  0
 99203  1  0
100204  1  0
103205  1  0
103206  1  0
103207  1  0
104208  1  0
105209  1  0
111210  1  0
111211  1  0
112212  1  0
112213  1  0
112214  1  0
115215  1  0
115216  1  0
116217  1  0
116218  1  0
116219  1  0
123220  1  0
M  END

