
     RDKit          3D

217239  0  0  0  0  0  0  0  0999 V2000
    1.6588    0.6097   -9.0609 C   0  0  0  0  0  0  0  0  0  0  0  0
    1.9501   -0.6719   -9.3379 C   0  0  0  0  0  0  0  0  0  0  0  0
    3.0411   -1.4261   -8.7107 C   0  0  0  0  0  0  0  0  0  0  0  0
    4.1208   -0.9395   -8.2899 O   0  0  0  0  0  0  0  0  0  0  0  0
    2.7018   -2.8260   -8.7189 C   0  0  0  0  0  0  0  0  0  0  0  0
    3.4057   -3.8795   -8.0891 C   0  0  0  0  0  0  0  0  0  0  0  0
    2.7733   -5.0994   -8.1781 C   0  0  0  0  0  0  0  0  0  0  0  0
    1.5003   -5.2825   -8.8180 C   0  0  0  0  0  0  0  0  0  0  0  0
    0.8070   -4.2531   -9.4393 C   0  0  0  0  0  0  0  0  0  0  0  0
    1.4718   -2.9950   -9.4103 C   0  0  0  0  0  0  0  0  0  0  0  0
    1.0473   -1.6765   -9.9613 C   0  0  0  0  0  0  0  0  0  0  0  0
    0.1905   -1.4650  -10.9842 C   0  0  0  0  0  0  0  0  0  0  0  0
   -0.5460   -2.5372  -11.6087 C   0  0  0  0  0  0  0  0  0  0  0  0
   -1.1372   -3.3913  -12.1208 N   0  0  0  0  0  0  0  0  0  0  0  0
    0.0406   -0.1763  -11.6095 C   0  0  0  0  0  0  0  0  0  0  0  0
   -0.0830    0.8556  -12.1206 N   0  0  0  0  0  0  0  0  0  0  0  0
    1.5128   -6.7357   -8.4544 C   0  0  0  0  0  0  0  0  0  0  0  0
    0.5997   -7.1846   -7.2743 C   0  0  0  0  0  0  0  0  0  0  0  0
    1.0854   -8.5597   -6.8818 C   0  0  0  0  0  0  0  0  0  0  0  0
    2.2838   -8.3954   -6.3104 C   0  0  0  0  0  0  0  0  0  0  0  0
    2.5641   -6.9105   -6.3318 C   0  0  0  0  0  0  0  0  0  0  0  0
    1.1516   -6.4020   -6.0966 C   0  0  0  0  0  0  0  0  0  0  0  0
    2.8248   -6.5536   -7.8229 C   0  0  0  0  0  0  0  0  0  0  0  0
    2.2166    1.2825   -7.8769 C   0  0  0  0  0  0  0  0  0  0  0  0
    2.6042    2.6130   -7.7766 C   0  0  0  0  0  0  0  0  0  0  0  0
    2.8556    3.0221   -6.4528 C   0  0  0  0  0  0  0  0  0  0  0  0
    3.2485    4.4357   -6.1073 C   0  0  0  0  0  0  0  0  0  0  0  0
    4.6300    4.4898   -5.4584 C   0  0  0  0  0  0  0  0  0  0  0  0
    2.6478    2.0041   -5.5106 C   0  0  0  0  0  0  0  0  0  0  0  0
    2.1320    0.6404   -6.3322 S   0  0  0  0  0  0  0  0  0  0  0  0
    2.4288    2.1468   -4.0616 C   0  0  0  0  0  0  0  0  0  0  0  0
    2.6117    1.1088   -3.1073 C   0  0  0  0  0  0  0  0  0  0  0  0
    3.5893    0.0334   -3.1866 N   0  0  0  0  0  0  0  0  0  0  0  0
    4.5979   -0.0072   -4.2121 C   0  0  0  0  0  0  0  0  0  0  0  0
    5.5514    1.0208   -4.3115 C   0  0  0  0  0  0  0  0  0  0  0  0
    6.6020    0.9258   -5.2320 C   0  0  0  0  0  0  0  0  0  0  0  0
    6.7286   -0.2126   -6.0403 C   0  0  0  0  0  0  0  0  0  0  0  0
    8.0408   -0.3082   -7.2640 S   0  0  0  0  0  0  0  0  0  0  0  0
    9.2489   -1.0602   -6.1293 C   0  0  0  0  0  0  0  0  0  0  0  0
    5.7984   -1.2546   -5.9221 C   0  0  0  0  0  0  0  0  0  0  0  0
    4.7346   -1.1477   -5.0206 C   0  0  0  0  0  0  0  0  0  0  0  0
    3.9160   -0.7309   -2.0136 C   0  0  0  0  0  0  0  0  0  0  0  0
    3.7146   -2.1234   -1.9859 C   0  0  0  0  0  0  0  0  0  0  0  0
    4.1041   -2.8692   -0.8699 C   0  0  0  0  0  0  0  0  0  0  0  0
    4.6837   -2.2362    0.2351 C   0  0  0  0  0  0  0  0  0  0  0  0
    5.1912   -3.1962    1.6608 S   0  0  0  0  0  0  0  0  0  0  0  0
    3.5349   -3.1798    2.4151 C   0  0  0  0  0  0  0  0  0  0  0  0
    4.8875   -0.8494    0.2127 C   0  0  0  0  0  0  0  0  0  0  0  0
    4.5229   -0.1039   -0.9107 C   0  0  0  0  0  0  0  0  0  0  0  0
    1.7239    1.2918   -2.0325 C   0  0  0  0  0  0  0  0  0  0  0  0
    1.2893    0.3864   -0.6935 S   0  0  0  0  0  0  0  0  0  0  0  0
    0.1213    1.4843   -0.1399 C   0  0  0  0  0  0  0  0  0  0  0  0
    0.0699    2.5873   -1.0072 C   0  0  0  0  0  0  0  0  0  0  0  0
   -0.6877    3.7841   -0.7805 N   0  0  0  0  0  0  0  0  0  0  0  0
   -0.0118    5.0462   -0.6748 C   0  0  0  0  0  0  0  0  0  0  0  0
    0.7138    5.3484    0.4877 C   0  0  0  0  0  0  0  0  0  0  0  0
    1.1984    6.6427    0.6964 C   0  0  0  0  0  0  0  0  0  0  0  0
    0.9887    7.6319   -0.2725 C   0  0  0  0  0  0  0  0  0  0  0  0
    1.5240    9.3143    0.0498 S   0  0  0  0  0  0  0  0  0  0  0  0
    3.2560    9.0015   -0.4248 C   0  0  0  0  0  0  0  0  0  0  0  0
    0.2934    7.3260   -1.4487 C   0  0  0  0  0  0  0  0  0  0  0  0
   -0.2206    6.0384   -1.6412 C   0  0  0  0  0  0  0  0  0  0  0  0
   -2.0930    3.7575   -0.4854 C   0  0  0  0  0  0  0  0  0  0  0  0
   -2.5261    3.9167    0.8400 C   0  0  0  0  0  0  0  0  0  0  0  0
   -3.8470    4.2781    1.1170 C   0  0  0  0  0  0  0  0  0  0  0  0
   -4.7424    4.5093    0.0688 C   0  0  0  0  0  0  0  0  0  0  0  0
   -6.3117    5.3244    0.3987 S   0  0  0  0  0  0  0  0  0  0  0  0
   -7.2325    3.8026    0.7664 C   0  0  0  0  0  0  0  0  0  0  0  0
   -4.3429    4.2729   -1.2516 C   0  0  0  0  0  0  0  0  0  0  0  0
   -3.0198    3.8979   -1.5268 C   0  0  0  0  0  0  0  0  0  0  0  0
    0.9695    2.4268   -2.0621 C   0  0  0  0  0  0  0  0  0  0  0  0
    1.2779    3.2642   -3.4697 S   0  0  0  0  0  0  0  0  0  0  0  0
   -0.3812    1.4280    1.2251 C   0  0  0  0  0  0  0  0  0  0  0  0
   -1.2906    0.4696    1.6962 C   0  0  0  0  0  0  0  0  0  0  0  0
   -2.0371   -0.4222    0.8525 N   0  0  0  0  0  0  0  0  0  0  0  0
   -3.0746    0.1075    0.0179 C   0  0  0  0  0  0  0  0  0  0  0  0
   -2.9026    0.1475   -1.3727 C   0  0  0  0  0  0  0  0  0  0  0  0
   -3.9570    0.5488   -2.1995 C   0  0  0  0  0  0  0  0  0  0  0  0
   -5.1989    0.8964   -1.6443 C   0  0  0  0  0  0  0  0  0  0  0  0
   -6.3543    1.2606   -2.5281 C   0  0  0  0  0  0  0  0  0  0  0  0
   -5.3652    0.8621   -0.2500 C   0  0  0  0  0  0  0  0  0  0  0  0
   -4.3016    0.4856    0.5762 C   0  0  0  0  0  0  0  0  0  0  0  0
   -1.8693   -1.8505    0.9838 C   0  0  0  0  0  0  0  0  0  0  0  0
   -0.5823   -2.4013    1.1181 C   0  0  0  0  0  0  0  0  0  0  0  0
   -0.4149   -3.7764    1.2980 C   0  0  0  0  0  0  0  0  0  0  0  0
   -1.5323   -4.6247    1.3609 C   0  0  0  0  0  0  0  0  0  0  0  0
   -1.3706   -6.0937    1.6203 C   0  0  0  0  0  0  0  0  0  0  0  0
   -2.8193   -4.0759    1.2397 C   0  0  0  0  0  0  0  0  0  0  0  0
   -2.9844   -2.7025    1.0357 C   0  0  0  0  0  0  0  0  0  0  0  0
   -1.1987    0.3209    3.0760 C   0  0  0  0  0  0  0  0  0  0  0  0
   -1.8800   -0.7362    4.1822 S   0  0  0  0  0  0  0  0  0  0  0  0
   -0.9249   -0.1795    5.4903 C   0  0  0  0  0  0  0  0  0  0  0  0
   -0.0259    0.7957    5.0258 C   0  0  0  0  0  0  0  0  0  0  0  0
    1.0279    1.3879    5.8015 N   0  0  0  0  0  0  0  0  0  0  0  0
    2.3583    1.4173    5.2401 C   0  0  0  0  0  0  0  0  0  0  0  0
    3.0282    2.6392    5.0705 C   0  0  0  0  0  0  0  0  0  0  0  0
    4.2800    2.6779    4.4513 C   0  0  0  0  0  0  0  0  0  0  0  0
    4.8900    1.4898    4.0144 C   0  0  0  0  0  0  0  0  0  0  0  0
    6.2251    1.5481    3.3336 C   0  0  0  0  0  0  0  0  0  0  0  0
    4.2215    0.2673    4.1820 C   0  0  0  0  0  0  0  0  0  0  0  0
    2.9631    0.2335    4.7873 C   0  0  0  0  0  0  0  0  0  0  0  0
    0.7321    2.1026    7.0200 C   0  0  0  0  0  0  0  0  0  0  0  0
    1.6715    2.1446    8.0620 C   0  0  0  0  0  0  0  0  0  0  0  0
    1.4192    2.8929    9.2154 C   0  0  0  0  0  0  0  0  0  0  0  0
    0.2254    3.6177    9.3446 C   0  0  0  0  0  0  0  0  0  0  0  0
   -0.0090    4.4682   10.5609 C   0  0  0  0  0  0  0  0  0  0  0  0
   -0.7186    3.5789    8.3076 C   0  0  0  0  0  0  0  0  0  0  0  0
   -0.4708    2.8202    7.1568 C   0  0  0  0  0  0  0  0  0  0  0  0
   -0.2400    1.0674    3.6746 C   0  0  0  0  0  0  0  0  0  0  0  0
    0.5463    2.0054    2.5296 S   0  0  0  0  0  0  0  0  0  0  0  0
   -0.9268   -0.8225    6.8166 C   0  0  0  0  0  0  0  0  0  0  0  0
   -2.0786   -1.0188    7.4877 C   0  0  0  0  0  0  0  0  0  0  0  0
   -3.3485   -0.3686    7.1460 C   0  0  0  0  0  0  0  0  0  0  0  0
   -3.4768    0.6972    6.4850 O   0  0  0  0  0  0  0  0  0  0  0  0
   -4.4340   -1.1178    7.7106 C   0  0  0  0  0  0  0  0  0  0  0  0
   -5.8016   -0.9430    7.4130 C   0  0  0  0  0  0  0  0  0  0  0  0
   -6.6083   -1.9531    7.8982 C   0  0  0  0  0  0  0  0  0  0  0  0
   -6.1057   -3.0596    8.6571 C   0  0  0  0  0  0  0  0  0  0  0  0
   -4.7646   -3.2189    8.9737 C   0  0  0  0  0  0  0  0  0  0  0  0
   -3.9067   -2.1898    8.4747 C   0  0  0  0  0  0  0  0  0  0  0  0
   -2.4145   -2.1042    8.4700 C   0  0  0  0  0  0  0  0  0  0  0  0
   -1.5558   -2.8372    9.2344 C   0  0  0  0  0  0  0  0  0  0  0  0
   -0.1265   -2.6579    9.1916 C   0  0  0  0  0  0  0  0  0  0  0  0
    1.0257   -2.5377    9.1639 N   0  0  0  0  0  0  0  0  0  0  0  0
   -2.0104   -3.7833   10.2220 C   0  0  0  0  0  0  0  0  0  0  0  0
   -2.3585   -4.5433   11.0237 N   0  0  0  0  0  0  0  0  0  0  0  0
   -7.4839   -3.6533    8.7299 C   0  0  0  0  0  0  0  0  0  0  0  0
   -8.2665   -3.5463   10.0754 C   0  0  0  0  0  0  0  0  0  0  0  0
   -7.8400   -2.3053   10.8243 C   0  0  0  0  0  0  0  0  0  0  0  0
   -8.2884   -1.2617   10.1212 C   0  0  0  0  0  0  0  0  0  0  0  0
   -9.0105   -1.8304    8.9211 C   0  0  0  0  0  0  0  0  0  0  0  0
   -9.6158   -3.0638    9.5653 C   0  0  0  0  0  0  0  0  0  0  0  0
   -7.9939   -2.5147    7.9572 C   0  0  0  0  0  0  0  0  0  0  0  0
    0.8279    1.1075   -9.5365 H   0  0  0  0  0  0  0  0  0  0  0  0
    4.3350   -3.7360   -7.5525 H   0  0  0  0  0  0  0  0  0  0  0  0
   -0.1701   -4.4217   -9.8667 H   0  0  0  0  0  0  0  0  0  0  0  0
    1.5087   -7.4138   -9.3370 H   0  0  0  0  0  0  0  0  0  0  0  0
   -0.4938   -7.0998   -7.4406 H   0  0  0  0  0  0  0  0  0  0  0  0
    0.5491   -9.4996   -6.9591 H   0  0  0  0  0  0  0  0  0  0  0  0
    2.8865   -9.1702   -5.8521 H   0  0  0  0  0  0  0  0  0  0  0  0
    3.3342   -6.5633   -5.6080 H   0  0  0  0  0  0  0  0  0  0  0  0
    1.0413   -5.2994   -6.1798 H   0  0  0  0  0  0  0  0  0  0  0  0
    0.7352   -6.7218   -5.1123 H   0  0  0  0  0  0  0  0  0  0  0  0
    3.6559   -7.1082   -8.3139 H   0  0  0  0  0  0  0  0  0  0  0  0
    2.6478    3.2825   -8.6246 H   0  0  0  0  0  0  0  0  0  0  0  0
    3.2672    5.0590   -7.0248 H   0  0  0  0  0  0  0  0  0  0  0  0
    2.5008    4.8870   -5.4240 H   0  0  0  0  0  0  0  0  0  0  0  0
    4.8950    5.5455   -5.2388 H   0  0  0  0  0  0  0  0  0  0  0  0
    5.3950    4.0682   -6.1465 H   0  0  0  0  0  0  0  0  0  0  0  0
    4.6367    3.9225   -4.5077 H   0  0  0  0  0  0  0  0  0  0  0  0
    5.4968    1.8750   -3.6511 H   0  0  0  0  0  0  0  0  0  0  0  0
    7.3326    1.7259   -5.2992 H   0  0  0  0  0  0  0  0  0  0  0  0
    9.4371   -0.3889   -5.2689 H   0  0  0  0  0  0  0  0  0  0  0  0
    8.8818   -2.0419   -5.7676 H   0  0  0  0  0  0  0  0  0  0  0  0
   10.1968   -1.2130   -6.6819 H   0  0  0  0  0  0  0  0  0  0  0  0
    5.8986   -2.1412   -6.5394 H   0  0  0  0  0  0  0  0  0  0  0  0
    4.0197   -1.9570   -4.9508 H   0  0  0  0  0  0  0  0  0  0  0  0
    3.2505   -2.6194   -2.8278 H   0  0  0  0  0  0  0  0  0  0  0  0
    3.9530   -3.9425   -0.8666 H   0  0  0  0  0  0  0  0  0  0  0  0
    3.5987   -3.6019    3.4410 H   0  0  0  0  0  0  0  0  0  0  0  0
    3.1408   -2.1426    2.4709 H   0  0  0  0  0  0  0  0  0  0  0  0
    2.8499   -3.8112    1.8148 H   0  0  0  0  0  0  0  0  0  0  0  0
    5.3450   -0.3585    1.0601 H   0  0  0  0  0  0  0  0  0  0  0  0
    4.7068    0.9634   -0.9249 H   0  0  0  0  0  0  0  0  0  0  0  0
    0.8638    4.5981    1.2502 H   0  0  0  0  0  0  0  0  0  0  0  0
    1.7250    6.8794    1.6119 H   0  0  0  0  0  0  0  0  0  0  0  0
    3.8431    9.9385   -0.2925 H   0  0  0  0  0  0  0  0  0  0  0  0
    3.6943    8.2170    0.2308 H   0  0  0  0  0  0  0  0  0  0  0  0
    3.3138    8.6812   -1.4894 H   0  0  0  0  0  0  0  0  0  0  0  0
    0.1099    8.0919   -2.1910 H   0  0  0  0  0  0  0  0  0  0  0  0
   -0.8091    5.8216   -2.5210 H   0  0  0  0  0  0  0  0  0  0  0  0
   -1.8174    3.8489    1.6513 H   0  0  0  0  0  0  0  0  0  0  0  0
   -4.1453    4.4663    2.1403 H   0  0  0  0  0  0  0  0  0  0  0  0
   -8.2406    4.0783    1.1321 H   0  0  0  0  0  0  0  0  0  0  0  0
   -6.7117    3.2225    1.5526 H   0  0  0  0  0  0  0  0  0  0  0  0
   -7.3404    3.1996   -0.1555 H   0  0  0  0  0  0  0  0  0  0  0  0
   -5.0304    4.4641   -2.0688 H   0  0  0  0  0  0  0  0  0  0  0  0
   -2.7002    3.8150   -2.5578 H   0  0  0  0  0  0  0  0  0  0  0  0
   -1.9606   -0.1577   -1.8105 H   0  0  0  0  0  0  0  0  0  0  0  0
   -3.8080    0.5684   -3.2725 H   0  0  0  0  0  0  0  0  0  0  0  0
   -6.6817    2.3029   -2.3138 H   0  0  0  0  0  0  0  0  0  0  0  0
   -7.2048    0.5714   -2.3291 H   0  0  0  0  0  0  0  0  0  0  0  0
   -6.0871    1.1832   -3.6012 H   0  0  0  0  0  0  0  0  0  0  0  0
   -6.3256    1.0898    0.1928 H   0  0  0  0  0  0  0  0  0  0  0  0
   -4.4501    0.4404    1.6497 H   0  0  0  0  0  0  0  0  0  0  0  0
    0.2925   -1.7653    1.0841 H   0  0  0  0  0  0  0  0  0  0  0  0
    0.5834   -4.1860    1.3889 H   0  0  0  0  0  0  0  0  0  0  0  0
   -1.7685   -6.3321    2.6296 H   0  0  0  0  0  0  0  0  0  0  0  0
   -0.3021   -6.3991    1.5795 H   0  0  0  0  0  0  0  0  0  0  0  0
   -1.9331   -6.6771    0.8611 H   0  0  0  0  0  0  0  0  0  0  0  0
   -3.6905   -4.7163    1.3042 H   0  0  0  0  0  0  0  0  0  0  0  0
   -3.9854   -2.3029    0.9601 H   0  0  0  0  0  0  0  0  0  0  0  0
    2.5611    3.5607    5.3878 H   0  0  0  0  0  0  0  0  0  0  0  0
    4.7746    3.6321    4.3046 H   0  0  0  0  0  0  0  0  0  0  0  0
    6.9198    2.1947    3.9147 H   0  0  0  0  0  0  0  0  0  0  0  0
    6.0993    1.9723    2.3130 H   0  0  0  0  0  0  0  0  0  0  0  0
    6.6793    0.5363    3.2493 H   0  0  0  0  0  0  0  0  0  0  0  0
    4.6749   -0.6564    3.8406 H   0  0  0  0  0  0  0  0  0  0  0  0
    2.4560   -0.7163    4.9052 H   0  0  0  0  0  0  0  0  0  0  0  0
    2.6060    1.6015    7.9807 H   0  0  0  0  0  0  0  0  0  0  0  0
    2.1673    2.9238   10.0035 H   0  0  0  0  0  0  0  0  0  0  0  0
    0.4843    5.4530   10.4218 H   0  0  0  0  0  0  0  0  0  0  0  0
    0.4142    3.9757   11.4631 H   0  0  0  0  0  0  0  0  0  0  0  0
   -1.0970    4.6286   10.7292 H   0  0  0  0  0  0  0  0  0  0  0  0
   -1.6355    4.1505    8.3803 H   0  0  0  0  0  0  0  0  0  0  0  0
   -1.1980    2.8323    6.3560 H   0  0  0  0  0  0  0  0  0  0  0  0
   -0.0086   -1.2987    7.1019 H   0  0  0  0  0  0  0  0  0  0  0  0
   -6.1789   -0.1404    6.7959 H   0  0  0  0  0  0  0  0  0  0  0  0
   -4.4284   -4.0965    9.4964 H   0  0  0  0  0  0  0  0  0  0  0  0
   -7.5967   -4.6240    8.1969 H   0  0  0  0  0  0  0  0  0  0  0  0
   -8.2987   -4.4743   10.6841 H   0  0  0  0  0  0  0  0  0  0  0  0
   -7.3491   -2.2586   11.7874 H   0  0  0  0  0  0  0  0  0  0  0  0
   -8.2023   -0.2212   10.4091 H   0  0  0  0  0  0  0  0  0  0  0  0
   -9.7324   -1.1371    8.4390 H   0  0  0  0  0  0  0  0  0  0  0  0
  -10.0945   -3.7606    8.8351 H   0  0  0  0  0  0  0  0  0  0  0  0
  -10.3414   -2.8269   10.3818 H   0  0  0  0  0  0  0  0  0  0  0  0
   -8.4102   -2.7945    6.9631 H   0  0  0  0  0  0  0  0  0  0  0  0
  1  2  2  3
  2  3  1  0
  3  4  2  0
  3  5  1  0
  5  6  2  0
  6  7  1  0
  7  8  2  0
  8  9  1  0
  9 10  2  0
 10 11  1  0
 11 12  2  3
 12 13  1  0
 13 14  3  0
 12 15  1  0
 15 16  3  0
  8 17  1  0
 17 18  1  0
 18 19  1  0
 19 20  2  0
 20 21  1  0
 21 22  1  0
 21 23  1  0
  1 24  1  0
 24 25  2  0
 25 26  1  0
 26 27  1  0
 27 28  1  0
 26 29  2  0
 29 30  1  0
 29 31  1  0
 31 32  2  0
 32 33  1  0
 33 34  1  0
 34 35  2  0
 35 36  1  0
 36 37  2  0
 37 38  1  0
 38 39  1  0
 37 40  1  0
 40 41  2  0
 33 42  1  0
 42 43  2  0
 43 44  1  0
 44 45  2  0
 45 46  1  0
 46 47  1  0
 45 48  1  0
 48 49  2  0
 32 50  1  0
 50 51  1  0
 51 52  1  0
 52 53  2  0
 53 54  1  0
 54 55  1  0
 55 56  2  0
 56 57  1  0
 57 58  2  0
 58 59  1  0
 59 60  1  0
 58 61  1  0
 61 62  2  0
 54 63  1  0
 63 64  2  0
 64 65  1  0
 65 66  2  0
 66 67  1  0
 67 68  1  0
 66 69  1  0
 69 70  2  0
 53 71  1  0
 71 72  1  0
 52 73  1  0
 73 74  2  0
 74 75  1  0
 75 76  1  0
 76 77  2  0
 77 78  1  0
 78 79  2  0
 79 80  1  0
 79 81  1  0
 81 82  2  0
 75 83  1  0
 83 84  2  0
 84 85  1  0
 85 86  2  0
 86 87  1  0
 86 88  1  0
 88 89  2  0
 74 90  1  0
 90 91  1  0
 91 92  1  0
 92 93  2  0
 93 94  1  0
 94 95  1  0
 95 96  2  0
 96 97  1  0
 97 98  2  0
 98 99  1  0
 98100  1  0
100101  2  0
 94102  1  0
102103  2  0
103104  1  0
104105  2  0
105106  1  0
105107  1  0
107108  2  0
 93109  1  0
109110  1  0
 92111  1  0
111112  2  3
112113  1  0
113114  2  0
113115  1  0
115116  2  0
116117  1  0
117118  2  0
118119  1  0
119120  2  0
120121  1  0
121122  2  3
122123  1  0
123124  3  0
122125  1  0
125126  3  0
118127  1  0
127128  1  0
128129  1  0
129130  2  0
130131  1  0
131132  1  0
131133  1  0
 11  2  1  0
 23 17  1  0
 30 24  1  0
 72 31  1  0
110 73  1  0
121112  1  0
133127  1  0
 10  5  1  0
 22 18  1  0
 41 34  1  0
 49 42  1  0
 71 50  2  0
 82 76  1  0
 89 83  1  0
109 90  2  0
120115  1  0
132128  1  0
 23  7  1  0
 62 55  1  0
 70 63  1  0
101 95  1  0
108102  1  0
133117  1  0
  1134  1  0
  6135  1  0
  9136  1  0
 17137  1  0
 18138  1  0
 19139  1  0
 20140  1  0
 21141  1  0
 22142  1  0
 22143  1  0
 23144  1  0
 25145  1  0
 27146  1  0
 27147  1  0
 28148  1  0
 28149  1  0
 28150  1  0
 35151  1  0
 36152  1  0
 39153  1  0
 39154  1  0
 39155  1  0
 40156  1  0
 41157  1  0
 43158  1  0
 44159  1  0
 47160  1  0
 47161  1  0
 47162  1  0
 48163  1  0
 49164  1  0
 56165  1  0
 57166  1  0
 60167  1  0
 60168  1  0
 60169  1  0
 61170  1  0
 62171  1  0
 64172  1  0
 65173  1  0
 68174  1  0
 68175  1  0
 68176  1  0
 69177  1  0
 70178  1  0
 77179  1  0
 78180  1  0
 80181  1  0
 80182  1  0
 80183  1  0
 81184  1  0
 82185  1  0
 84186  1  0
 85187  1  0
 87188  1  0
 87189  1  0
 87190  1  0
 88191  1  0
 89192  1  0
 96193  1  0
 97194  1  0
 99195  1  0
 99196  1  0
 99197  1  0
100198  1  0
101199  1  0
103200  1  0
104201  1  0
106202  1  0
106203  1  0
106204  1  0
107205  1  0
108206  1  0
111207  1  0
116208  1  0
119209  1  0
127210  1  0
128211  1  0
129212  1  0
130213  1  0
131214  1  0
132215  1  0
132216  1  0
133217  1  0
M  END

