
     RDKit          3D

176196  0  0  0  0  0  0  0  0999 V2000
   -1.8262    4.1046   -4.4492 C   0  0  0  0  0  0  0  0  0  0  0  0
   -2.9090    4.1345   -5.2513 C   0  0  0  0  0  0  0  0  0  0  0  0
   -4.0779    3.2622   -5.1053 C   0  0  0  0  0  0  0  0  0  0  0  0
   -4.4993    2.7712   -4.0250 O   0  0  0  0  0  0  0  0  0  0  0  0
   -4.6743    3.0535   -6.4045 C   0  0  0  0  0  0  0  0  0  0  0  0
   -5.7033    2.1435   -6.7348 C   0  0  0  0  0  0  0  0  0  0  0  0
   -5.9263    2.0226   -8.0922 C   0  0  0  0  0  0  0  0  0  0  0  0
   -5.1715    2.7393   -9.0766 C   0  0  0  0  0  0  0  0  0  0  0  0
   -4.1744    3.6462   -8.7550 C   0  0  0  0  0  0  0  0  0  0  0  0
   -3.9610    3.8232   -7.3592 C   0  0  0  0  0  0  0  0  0  0  0  0
   -2.9456    4.6551   -6.6479 C   0  0  0  0  0  0  0  0  0  0  0  0
   -2.3404    5.7720   -7.1177 C   0  0  0  0  0  0  0  0  0  0  0  0
   -1.5369    6.6275   -6.2778 C   0  0  0  0  0  0  0  0  0  0  0  0
   -0.9087    7.3287   -5.6111 N   0  0  0  0  0  0  0  0  0  0  0  0
   -2.5667    6.2568   -8.4558 C   0  0  0  0  0  0  0  0  0  0  0  0
   -2.7474    6.6518   -9.5275 N   0  0  0  0  0  0  0  0  0  0  0  0
   -5.9013    2.0253  -10.1785 C   0  0  0  0  0  0  0  0  0  0  0  0
   -5.1618    0.8714  -10.9333 C   0  0  0  0  0  0  0  0  0  0  0  0
   -4.1876    0.1757  -10.0101 C   0  0  0  0  0  0  0  0  0  0  0  0
   -4.9150   -0.4676   -9.0947 C   0  0  0  0  0  0  0  0  0  0  0  0
   -6.3639   -0.1890   -9.4315 C   0  0  0  0  0  0  0  0  0  0  0  0
   -6.2587   -0.1744  -10.9452 C   0  0  0  0  0  0  0  0  0  0  0  0
   -6.6944    1.3134   -9.1698 C   0  0  0  0  0  0  0  0  0  0  0  0
   -1.6186    2.9896   -3.5089 C   0  0  0  0  0  0  0  0  0  0  0  0
   -1.1365    3.0372   -2.1784 C   0  0  0  0  0  0  0  0  0  0  0  0
   -0.8213    4.2430   -1.4295 N   0  0  0  0  0  0  0  0  0  0  0  0
   -1.3749    5.5223   -1.7894 C   0  0  0  0  0  0  0  0  0  0  0  0
   -0.5202    6.6048   -2.0517 C   0  0  0  0  0  0  0  0  0  0  0  0
   -1.0457    7.8302   -2.4668 C   0  0  0  0  0  0  0  0  0  0  0  0
   -2.4307    7.9852   -2.6115 C   0  0  0  0  0  0  0  0  0  0  0  0
   -3.1043    9.5375   -3.2189 S   0  0  0  0  0  0  0  0  0  0  0  0
   -3.1982   10.2920   -1.5661 C   0  0  0  0  0  0  0  0  0  0  0  0
   -3.2891    6.9195   -2.3129 C   0  0  0  0  0  0  0  0  0  0  0  0
   -2.7638    5.6929   -1.9026 C   0  0  0  0  0  0  0  0  0  0  0  0
    0.0958    4.1817   -0.3260 C   0  0  0  0  0  0  0  0  0  0  0  0
    1.4248    3.7721   -0.5333 C   0  0  0  0  0  0  0  0  0  0  0  0
    2.2475    3.4846    0.5607 C   0  0  0  0  0  0  0  0  0  0  0  0
    1.7516    3.6145    1.8660 C   0  0  0  0  0  0  0  0  0  0  0  0
    2.7701    3.1464    3.2664 S   0  0  0  0  0  0  0  0  0  0  0  0
    2.1419    1.4334    3.3200 C   0  0  0  0  0  0  0  0  0  0  0  0
    0.4525    4.0909    2.0709 C   0  0  0  0  0  0  0  0  0  0  0  0
   -0.3726    4.3752    0.9801 C   0  0  0  0  0  0  0  0  0  0  0  0
   -0.9029    1.7301   -1.7089 C   0  0  0  0  0  0  0  0  0  0  0  0
   -0.2963    1.0617   -0.2961 S   0  0  0  0  0  0  0  0  0  0  0  0
   -0.2321   -0.5381   -0.8757 C   0  0  0  0  0  0  0  0  0  0  0  0
   -0.7012   -0.5465   -2.2064 C   0  0  0  0  0  0  0  0  0  0  0  0
   -0.7791   -1.7124   -3.0510 N   0  0  0  0  0  0  0  0  0  0  0  0
   -1.4624   -2.8892   -2.5730 C   0  0  0  0  0  0  0  0  0  0  0  0
   -0.9792   -4.1697   -2.8873 C   0  0  0  0  0  0  0  0  0  0  0  0
   -1.7098   -5.3098   -2.5353 C   0  0  0  0  0  0  0  0  0  0  0  0
   -2.9380   -5.1810   -1.8761 C   0  0  0  0  0  0  0  0  0  0  0  0
   -3.9302   -6.6336   -1.5215 S   0  0  0  0  0  0  0  0  0  0  0  0
   -3.2504   -6.8415    0.1561 C   0  0  0  0  0  0  0  0  0  0  0  0
   -3.4171   -3.9092   -1.5406 C   0  0  0  0  0  0  0  0  0  0  0  0
   -2.6812   -2.7716   -1.8810 C   0  0  0  0  0  0  0  0  0  0  0  0
   -0.4218   -1.6063   -4.4488 C   0  0  0  0  0  0  0  0  0  0  0  0
    0.7380   -0.9149   -4.8346 C   0  0  0  0  0  0  0  0  0  0  0  0
    1.0381   -0.7296   -6.1866 C   0  0  0  0  0  0  0  0  0  0  0  0
    0.1760   -1.2196   -7.1734 C   0  0  0  0  0  0  0  0  0  0  0  0
    0.5298   -0.9356   -8.9093 S   0  0  0  0  0  0  0  0  0  0  0  0
   -0.3193    0.6776   -8.9349 C   0  0  0  0  0  0  0  0  0  0  0  0
   -0.9819   -1.9141   -6.8004 C   0  0  0  0  0  0  0  0  0  0  0  0
   -1.2816   -2.1112   -5.4455 C   0  0  0  0  0  0  0  0  0  0  0  0
   -1.0924    0.7334   -2.6096 C   0  0  0  0  0  0  0  0  0  0  0  0
   -1.6432    1.3713   -4.0478 S   0  0  0  0  0  0  0  0  0  0  0  0
    0.5258   -1.5902   -0.1569 C   0  0  0  0  0  0  0  0  0  0  0  0
    1.6302   -2.2165   -0.7733 C   0  0  0  0  0  0  0  0  0  0  0  0
    1.8666   -2.0577   -2.0973 F   0  0  0  0  0  0  0  0  0  0  0  0
    2.5742   -2.9072   -0.0096 C   0  0  0  0  0  0  0  0  0  0  0  0
    3.6631   -3.4383   -0.6183 F   0  0  0  0  0  0  0  0  0  0  0  0
    2.4418   -2.9877    1.3854 C   0  0  0  0  0  0  0  0  0  0  0  0
    1.2941   -2.4545    1.9967 C   0  0  0  0  0  0  0  0  0  0  0  0
    1.1191   -2.5364    3.3419 N   0  0  0  0  0  0  0  0  0  0  0  0
    0.0364   -2.0068    3.9696 C   0  0  0  0  0  0  0  0  0  0  0  0
   -0.0570   -2.1521    5.4682 C   0  0  0  0  0  0  0  0  0  0  0  0
    0.6738   -1.0127    6.1695 C   0  0  0  0  0  0  0  0  0  0  0  0
   -0.9132   -1.2982    3.1991 C   0  0  0  0  0  0  0  0  0  0  0  0
   -0.7292   -1.2038    1.8562 N   0  0  0  0  0  0  0  0  0  0  0  0
    0.3375   -1.7612    1.2282 C   0  0  0  0  0  0  0  0  0  0  0  0
   -2.1576   -0.6819    3.7838 C   0  0  0  0  0  0  0  0  0  0  0  0
   -3.3133   -1.6777    3.7501 C   0  0  0  0  0  0  0  0  0  0  0  0
    3.5834   -3.4313    2.2167 C   0  0  0  0  0  0  0  0  0  0  0  0
    3.4650   -4.5081    3.1078 C   0  0  0  0  0  0  0  0  0  0  0  0
    4.4644   -4.7753    4.0717 C   0  0  0  0  0  0  0  0  0  0  0  0
    4.1715   -5.8660    4.9553 N   0  0  0  0  0  0  0  0  0  0  0  0
    2.7421   -6.3117    4.4009 S   0  0  0  0  0  4  0  0  0  0  0  0
    2.3269   -5.3767    3.1751 N   0  0  0  0  0  0  0  0  0  0  0  0
    5.6082   -3.9729    4.1717 C   0  0  0  0  0  0  0  0  0  0  0  0
    5.7692   -2.9286    3.2499 C   0  0  0  0  0  0  0  0  0  0  0  0
    6.8425   -2.0936    3.2608 N   0  0  0  0  0  0  0  0  0  0  0  0
    6.4377   -1.0622    2.0352 S   0  0  0  0  0  0  0  0  0  0  0  0
    4.9811   -1.5896    1.4640 N   0  0  0  0  0  0  0  0  0  0  0  0
    4.7603   -2.6566    2.2743 C   0  0  0  0  0  0  0  0  0  0  0  0
    6.5465   -4.1210    5.2958 C   0  0  0  0  0  0  0  0  0  0  0  0
    6.3519   -3.4980    6.4730 C   0  0  0  0  0  0  0  0  0  0  0  0
    5.1192   -2.8075    6.8724 C   0  0  0  0  0  0  0  0  0  0  0  0
    4.1644   -2.4719    6.1179 O   0  0  0  0  0  0  0  0  0  0  0  0
    5.1620   -2.5779    8.2976 C   0  0  0  0  0  0  0  0  0  0  0  0
    4.1291   -2.0455    9.1042 C   0  0  0  0  0  0  0  0  0  0  0  0
    4.4221   -2.0440   10.4548 C   0  0  0  0  0  0  0  0  0  0  0  0
    5.6479   -2.5514   10.9940 C   0  0  0  0  0  0  0  0  0  0  0  0
    6.6641   -3.0746   10.2053 C   0  0  0  0  0  0  0  0  0  0  0  0
    6.3985   -3.0510    8.8075 C   0  0  0  0  0  0  0  0  0  0  0  0
    7.2417   -3.5241    7.6729 C   0  0  0  0  0  0  0  0  0  0  0  0
    8.5938   -3.6178    7.6697 C   0  0  0  0  0  0  0  0  0  0  0  0
    9.3515   -3.8063    6.4572 C   0  0  0  0  0  0  0  0  0  0  0  0
    9.9708   -3.9500    5.4885 N   0  0  0  0  0  0  0  0  0  0  0  0
    9.3874   -3.3375    8.8385 C   0  0  0  0  0  0  0  0  0  0  0  0
   10.0415   -3.0910    9.7593 N   0  0  0  0  0  0  0  0  0  0  0  0
    5.1804   -2.2493   12.3893 C   0  0  0  0  0  0  0  0  0  0  0  0
    5.7992   -1.0202   13.1257 C   0  0  0  0  0  0  0  0  0  0  0  0
    6.2016    0.0366   12.1199 C   0  0  0  0  0  0  0  0  0  0  0  0
    5.0714    0.5173   11.6043 C   0  0  0  0  0  0  0  0  0  0  0  0
    3.9349   -0.2245   12.2773 C   0  0  0  0  0  0  0  0  0  0  0  0
    4.5371   -0.3693   13.6621 C   0  0  0  0  0  0  0  0  0  0  0  0
    3.9298   -1.7180   11.8327 C   0  0  0  0  0  0  0  0  0  0  0  0
   -0.9699    4.7247   -4.6507 H   0  0  0  0  0  0  0  0  0  0  0  0
   -6.2345    1.5516   -5.9998 H   0  0  0  0  0  0  0  0  0  0  0  0
   -3.5864    4.1167   -9.5255 H   0  0  0  0  0  0  0  0  0  0  0  0
   -6.5079    2.6902  -10.8305 H   0  0  0  0  0  0  0  0  0  0  0  0
   -4.7512    1.1407  -11.9277 H   0  0  0  0  0  0  0  0  0  0  0  0
   -3.1119    0.0953  -10.1279 H   0  0  0  0  0  0  0  0  0  0  0  0
   -4.5322   -1.1368   -8.3347 H   0  0  0  0  0  0  0  0  0  0  0  0
   -7.0961   -0.9101   -9.0092 H   0  0  0  0  0  0  0  0  0  0  0  0
   -5.9303   -1.1517  -11.3743 H   0  0  0  0  0  0  0  0  0  0  0  0
   -7.1915    0.1658  -11.4559 H   0  0  0  0  0  0  0  0  0  0  0  0
   -7.7764    1.5693   -9.1926 H   0  0  0  0  0  0  0  0  0  0  0  0
    0.5529    6.4864   -1.9665 H   0  0  0  0  0  0  0  0  0  0  0  0
   -0.3793    8.6522   -2.6968 H   0  0  0  0  0  0  0  0  0  0  0  0
   -3.7907   11.2267   -1.6282 H   0  0  0  0  0  0  0  0  0  0  0  0
   -3.7043    9.6052   -0.8558 H   0  0  0  0  0  0  0  0  0  0  0  0
   -2.1770   10.5301   -1.2037 H   0  0  0  0  0  0  0  0  0  0  0  0
   -4.3628    7.0338   -2.4172 H   0  0  0  0  0  0  0  0  0  0  0  0
   -3.4336    4.8640   -1.6940 H   0  0  0  0  0  0  0  0  0  0  0  0
    1.8011    3.6163   -1.5383 H   0  0  0  0  0  0  0  0  0  0  0  0
    3.2588    3.1310    0.3979 H   0  0  0  0  0  0  0  0  0  0  0  0
    2.5719    0.9217    4.2092 H   0  0  0  0  0  0  0  0  0  0  0  0
    1.0327    1.4290    3.4093 H   0  0  0  0  0  0  0  0  0  0  0  0
    2.4488    0.8817    2.4042 H   0  0  0  0  0  0  0  0  0  0  0  0
    0.0661    4.2001    3.0799 H   0  0  0  0  0  0  0  0  0  0  0  0
   -1.3982    4.6823    1.1506 H   0  0  0  0  0  0  0  0  0  0  0  0
   -0.0428   -4.2790   -3.4169 H   0  0  0  0  0  0  0  0  0  0  0  0
   -1.3353   -6.2893   -2.7952 H   0  0  0  0  0  0  0  0  0  0  0  0
   -3.5021   -5.9569    0.7792 H   0  0  0  0  0  0  0  0  0  0  0  0
   -3.6979   -7.7457    0.6185 H   0  0  0  0  0  0  0  0  0  0  0  0
   -2.1453   -6.9669    0.1061 H   0  0  0  0  0  0  0  0  0  0  0  0
   -4.3690   -3.8029   -1.0363 H   0  0  0  0  0  0  0  0  0  0  0  0
   -3.0839   -1.7912   -1.6429 H   0  0  0  0  0  0  0  0  0  0  0  0
    1.3975   -0.4960   -4.0818 H   0  0  0  0  0  0  0  0  0  0  0  0
    1.9297   -0.1828   -6.4698 H   0  0  0  0  0  0  0  0  0  0  0  0
   -1.3616    0.5727   -8.5621 H   0  0  0  0  0  0  0  0  0  0  0  0
   -0.3456    1.0568   -9.9782 H   0  0  0  0  0  0  0  0  0  0  0  0
    0.2315    1.4057   -8.3014 H   0  0  0  0  0  0  0  0  0  0  0  0
   -1.6626   -2.2825   -7.5537 H   0  0  0  0  0  0  0  0  0  0  0  0
   -2.1994   -2.6261   -5.1829 H   0  0  0  0  0  0  0  0  0  0  0  0
   -1.1122   -2.1908    5.8056 H   0  0  0  0  0  0  0  0  0  0  0  0
    0.4038   -3.1159    5.7712 H   0  0  0  0  0  0  0  0  0  0  0  0
    0.2830   -0.0302    5.8233 H   0  0  0  0  0  0  0  0  0  0  0  0
    1.7616   -1.0630    5.9588 H   0  0  0  0  0  0  0  0  0  0  0  0
    0.5154   -1.0938    7.2668 H   0  0  0  0  0  0  0  0  0  0  0  0
   -1.9898   -0.3236    4.8170 H   0  0  0  0  0  0  0  0  0  0  0  0
   -2.4404    0.2083    3.1839 H   0  0  0  0  0  0  0  0  0  0  0  0
   -4.2224   -1.2032    4.1757 H   0  0  0  0  0  0  0  0  0  0  0  0
   -3.0622   -2.5852    4.3448 H   0  0  0  0  0  0  0  0  0  0  0  0
   -3.5276   -1.9850    2.7014 H   0  0  0  0  0  0  0  0  0  0  0  0
    7.4060   -4.7494    5.1349 H   0  0  0  0  0  0  0  0  0  0  0  0
    3.1885   -1.6840    8.7080 H   0  0  0  0  0  0  0  0  0  0  0  0
    7.5565   -3.4892   10.6474 H   0  0  0  0  0  0  0  0  0  0  0  0
    5.0348   -3.1506   13.0267 H   0  0  0  0  0  0  0  0  0  0  0  0
    6.5692   -1.2624   13.8862 H   0  0  0  0  0  0  0  0  0  0  0  0
    7.2018    0.3992   11.9131 H   0  0  0  0  0  0  0  0  0  0  0  0
    4.9962    1.3452   10.9091 H   0  0  0  0  0  0  0  0  0  0  0  0
    2.9509    0.2891   12.2320 H   0  0  0  0  0  0  0  0  0  0  0  0
    4.7224    0.6076   14.1714 H   0  0  0  0  0  0  0  0  0  0  0  0
    3.9429   -1.0376   14.3323 H   0  0  0  0  0  0  0  0  0  0  0  0
    3.0279   -2.2906   12.1418 H   0  0  0  0  0  0  0  0  0  0  0  0
  1  2  2  3
  2  3  1  0
  3  4  2  0
  3  5  1  0
  5  6  2  0
  6  7  1  0
  7  8  2  0
  8  9  1  0
  9 10  2  0
 10 11  1  0
 11 12  2  3
 12 13  1  0
 13 14  3  0
 12 15  1  0
 15 16  3  0
  8 17  1  0
 17 18  1  0
 18 19  1  0
 19 20  2  0
 20 21  1  0
 21 22  1  0
 21 23  1  0
  1 24  1  0
 24 25  2  0
 25 26  1  0
 26 27  1  0
 27 28  2  0
 28 29  1  0
 29 30  2  0
 30 31  1  0
 31 32  1  0
 30 33  1  0
 33 34  2  0
 26 35  1  0
 35 36  2  0
 36 37  1  0
 37 38  2  0
 38 39  1  0
 39 40  1  0
 38 41  1  0
 41 42  2  0
 25 43  1  0
 43 44  1  0
 44 45  1  0
 45 46  2  0
 46 47  1  0
 47 48  1  0
 48 49  2  0
 49 50  1  0
 50 51  2  0
 51 52  1  0
 52 53  1  0
 51 54  1  0
 54 55  2  0
 47 56  1  0
 56 57  2  0
 57 58  1  0
 58 59  2  0
 59 60  1  0
 60 61  1  0
 59 62  1  0
 62 63  2  0
 46 64  1  0
 64 65  1  0
 45 66  1  0
 66 67  2  0
 67 68  1  0
 67 69  1  0
 69 70  1  0
 69 71  2  0
 71 72  1  0
 72 73  2  0
 73 74  1  0
 74 75  1  0
 75 76  1  0
 74 77  2  0
 77 78  1  0
 78 79  2  0
 77 80  1  0
 80 81  1  0
 71 82  1  0
 82 83  2  0
 83 84  1  0
 84 85  1  0
 85 86  2  0
 86 87  2  0
 84 88  2  0
 88 89  1  0
 89 90  2  0
 90 91  1  0
 91 92  1  0
 92 93  2  0
 88 94  1  0
 94 95  2  3
 95 96  1  0
 96 97  2  0
 96 98  1  0
 98 99  2  0
 99100  1  0
100101  2  0
101102  1  0
102103  2  0
103104  1  0
104105  2  3
105106  1  0
106107  3  0
105108  1  0
108109  3  0
101110  1  0
110111  1  0
111112  1  0
112113  2  0
113114  1  0
114115  1  0
114116  1  0
 11  2  1  0
 23 17  1  0
 65 24  1  0
 79 66  1  0
 93 82  1  0
104 95  1  0
116110  1  0
 10  5  1  0
 22 18  1  0
 34 27  1  0
 42 35  1  0
 64 43  2  0
 79 72  1  0
 87 83  1  0
 93 89  1  0
103 98  1  0
115111  1  0
 23  7  1  0
 55 48  1  0
 63 56  1  0
116100  1  0
  1117  1  0
  6118  1  0
  9119  1  0
 17120  1  0
 18121  1  0
 19122  1  0
 20123  1  0
 21124  1  0
 22125  1  0
 22126  1  0
 23127  1  0
 28128  1  0
 29129  1  0
 32130  1  0
 32131  1  0
 32132  1  0
 33133  1  0
 34134  1  0
 36135  1  0
 37136  1  0
 40137  1  0
 40138  1  0
 40139  1  0
 41140  1  0
 42141  1  0
 49142  1  0
 50143  1  0
 53144  1  0
 53145  1  0
 53146  1  0
 54147  1  0
 55148  1  0
 57149  1  0
 58150  1  0
 61151  1  0
 61152  1  0
 61153  1  0
 62154  1  0
 63155  1  0
 75156  1  0
 75157  1  0
 76158  1  0
 76159  1  0
 76160  1  0
 80161  1  0
 80162  1  0
 81163  1  0
 81164  1  0
 81165  1  0
 94166  1  0
 99167  1  0
102168  1  0
110169  1  0
111170  1  0
112171  1  0
113172  1  0
114173  1  0
115174  1  0
115175  1  0
116176  1  0
M  END

