
     RDKit          3D

231253  0  0  0  0  0  0  0  0999 V2000
    5.0021   -0.9368    3.7865 C   0  0  0  0  0  0  0  0  0  0  0  0
    5.4144    0.3492    3.8791 C   0  0  0  0  0  0  0  0  0  0  0  0
    4.5044    1.4864    3.9735 C   0  0  0  0  0  0  0  0  0  0  0  0
    3.3386    1.4656    4.4561 O   0  0  0  0  0  0  0  0  0  0  0  0
    5.1440    2.6473    3.3862 C   0  0  0  0  0  0  0  0  0  0  0  0
    4.5748    3.9189    3.1408 C   0  0  0  0  0  0  0  0  0  0  0  0
    5.4081    4.7856    2.4689 C   0  0  0  0  0  0  0  0  0  0  0  0
    6.7253    4.4272    2.0354 C   0  0  0  0  0  0  0  0  0  0  0  0
    7.2936    3.2036    2.3051 C   0  0  0  0  0  0  0  0  0  0  0  0
    6.4732    2.3028    3.0296 C   0  0  0  0  0  0  0  0  0  0  0  0
    6.7290    0.8879    3.4294 C   0  0  0  0  0  0  0  0  0  0  0  0
    7.9268    0.2658    3.4937 C   0  0  0  0  0  0  0  0  0  0  0  0
    8.1083   -1.0271    4.0665 C   0  0  0  0  0  0  0  0  0  0  0  0
    8.3005   -2.0923    4.4978 N   0  0  0  0  0  0  0  0  0  0  0  0
    9.1349    0.8821    3.0321 C   0  0  0  0  0  0  0  0  0  0  0  0
   10.1150    1.3780    2.6331 N   0  0  0  0  0  0  0  0  0  0  0  0
    6.9012    5.7681    1.3806 C   0  0  0  0  0  0  0  0  0  0  0  0
    7.8938    6.7655    2.0642 C   0  0  0  0  0  0  0  0  0  0  0  0
    7.9747    6.4585    3.5276 C   0  0  0  0  0  0  0  0  0  0  0  0
    6.7872    6.7687    4.0463 C   0  0  0  0  0  0  0  0  0  0  0  0
    5.9278    7.2982    2.9157 C   0  0  0  0  0  0  0  0  0  0  0  0
    7.0076    8.0145    2.1266 C   0  0  0  0  0  0  0  0  0  0  0  0
    5.5885    6.1667    1.9075 C   0  0  0  0  0  0  0  0  0  0  0  0
    3.6632   -1.2453    3.2229 C   0  0  0  0  0  0  0  0  0  0  0  0
    2.8870   -2.4215    3.3670 C   0  0  0  0  0  0  0  0  0  0  0  0
    2.9097   -3.1951    4.5767 N   0  0  0  0  0  0  0  0  0  0  0  0
    3.1257   -4.6336    4.5284 C   0  0  0  0  0  0  0  0  0  0  0  0
    2.3828   -5.4934    5.3460 C   0  0  0  0  0  0  0  0  0  0  0  0
    2.5804   -6.8793    5.2917 C   0  0  0  0  0  0  0  0  0  0  0  0
    3.5154   -7.4118    4.4272 C   0  0  0  0  0  0  0  0  0  0  0  0
    3.8305   -9.1998    4.4277 S   0  0  0  0  0  0  0  0  0  0  0  0
    2.5082   -9.5914    3.2279 C   0  0  0  0  0  0  0  0  0  0  0  0
    4.2797   -6.5675    3.6081 C   0  0  0  0  0  0  0  0  0  0  0  0
    4.0871   -5.1866    3.6574 C   0  0  0  0  0  0  0  0  0  0  0  0
    2.5057   -2.5629    5.8142 C   0  0  0  0  0  0  0  0  0  0  0  0
    1.4547   -1.6400    5.8083 C   0  0  0  0  0  0  0  0  0  0  0  0
    1.0648   -0.9909    6.9761 C   0  0  0  0  0  0  0  0  0  0  0  0
    1.7015   -1.2718    8.1882 C   0  0  0  0  0  0  0  0  0  0  0  0
    1.2432   -0.3506    9.6671 S   0  0  0  0  0  0  0  0  0  0  0  0
   -0.1739   -1.3999   10.1139 C   0  0  0  0  0  0  0  0  0  0  0  0
    2.7622   -2.1838    8.2139 C   0  0  0  0  0  0  0  0  0  0  0  0
    3.1698   -2.8306    7.0326 C   0  0  0  0  0  0  0  0  0  0  0  0
    1.8139   -2.4559    2.4273 C   0  0  0  0  0  0  0  0  0  0  0  0
    0.5075   -3.4704    2.0550 S   0  0  0  0  0  0  0  0  0  0  0  0
   -0.2218   -2.4256    0.8964 C   0  0  0  0  0  0  0  0  0  0  0  0
    0.5711   -1.2567    0.8480 C   0  0  0  0  0  0  0  0  0  0  0  0
    0.2175   -0.0408    0.1842 N   0  0  0  0  0  0  0  0  0  0  0  0
   -0.7279    0.8327    0.7869 C   0  0  0  0  0  0  0  0  0  0  0  0
   -1.8900    1.1605    0.0831 C   0  0  0  0  0  0  0  0  0  0  0  0
   -2.8760    1.9203    0.7049 C   0  0  0  0  0  0  0  0  0  0  0  0
   -2.6742    2.3894    2.0135 C   0  0  0  0  0  0  0  0  0  0  0  0
   -3.9710    3.3388    2.7753 S   0  0  0  0  0  0  0  0  0  0  0  0
   -3.2921    4.9368    2.2973 C   0  0  0  0  0  0  0  0  0  0  0  0
   -1.4946    2.1325    2.7130 C   0  0  0  0  0  0  0  0  0  0  0  0
   -0.5118    1.3351    2.0876 C   0  0  0  0  0  0  0  0  0  0  0  0
    1.1343    0.5562   -0.7850 C   0  0  0  0  0  0  0  0  0  0  0  0
    1.2126    0.0278   -2.0878 C   0  0  0  0  0  0  0  0  0  0  0  0
    2.2106    0.4400   -2.9607 C   0  0  0  0  0  0  0  0  0  0  0  0
    3.0947    1.4709   -2.5855 C   0  0  0  0  0  0  0  0  0  0  0  0
    4.3168    2.1238   -3.7699 S   0  0  0  0  0  0  0  0  0  0  0  0
    5.1219    0.5283   -4.1553 C   0  0  0  0  0  0  0  0  0  0  0  0
    2.9947    2.0338   -1.3094 C   0  0  0  0  0  0  0  0  0  0  0  0
    2.0040    1.6063   -0.4265 C   0  0  0  0  0  0  0  0  0  0  0  0
    1.7074   -1.3588    1.6487 C   0  0  0  0  0  0  0  0  0  0  0  0
    2.9669   -0.3175    1.9536 S   0  0  0  0  0  0  0  0  0  0  0  0
   -1.3198   -2.7340   -0.0245 C   0  0  0  0  0  0  0  0  0  0  0  0
   -1.0996   -2.9810   -1.3767 C   0  0  0  0  0  0  0  0  0  0  0  0
   -0.2581   -4.0417   -1.9079 N   0  0  0  0  0  0  0  0  0  0  0  0
   -0.8099   -5.3927   -1.9966 C   0  0  0  0  0  0  0  0  0  0  0  0
   -0.0646   -6.4901   -1.5349 C   0  0  0  0  0  0  0  0  0  0  0  0
   -0.5620   -7.7911   -1.6540 C   0  0  0  0  0  0  0  0  0  0  0  0
   -1.8066   -8.0285   -2.2304 C   0  0  0  0  0  0  0  0  0  0  0  0
   -2.4626   -9.6760   -2.3329 S   0  0  0  0  0  0  0  0  0  0  0  0
   -1.7676  -10.0926   -3.9742 C   0  0  0  0  0  0  0  0  0  0  0  0
   -2.5615   -6.9320   -2.6704 C   0  0  0  0  0  0  0  0  0  0  0  0
   -2.0811   -5.6280   -2.5627 C   0  0  0  0  0  0  0  0  0  0  0  0
    1.1058   -3.8294   -2.4091 C   0  0  0  0  0  0  0  0  0  0  0  0
    1.6451   -4.6696   -3.4072 C   0  0  0  0  0  0  0  0  0  0  0  0
    2.9551   -4.5139   -3.8553 C   0  0  0  0  0  0  0  0  0  0  0  0
    3.7350   -3.4803   -3.3930 C   0  0  0  0  0  0  0  0  0  0  0  0
    5.4153   -3.2440   -4.0149 S   0  0  0  0  0  0  0  0  0  0  0  0
    6.0814   -4.8077   -3.3028 C   0  0  0  0  0  0  0  0  0  0  0  0
    3.2684   -2.6886   -2.3255 C   0  0  0  0  0  0  0  0  0  0  0  0
    1.9875   -2.8958   -1.8229 C   0  0  0  0  0  0  0  0  0  0  0  0
   -2.0752   -2.3359   -2.1825 C   0  0  0  0  0  0  0  0  0  0  0  0
   -2.3008   -2.0594   -3.7871 S   0  0  0  0  0  0  0  0  0  0  0  0
   -3.7424   -1.1147   -3.6711 C   0  0  0  0  0  0  0  0  0  0  0  0
   -4.1464   -1.1565   -2.3162 C   0  0  0  0  0  0  0  0  0  0  0  0
   -5.5026   -0.9830   -1.8463 N   0  0  0  0  0  0  0  0  0  0  0  0
   -6.5673   -1.7671   -2.3934 C   0  0  0  0  0  0  0  0  0  0  0  0
   -6.3247   -3.0009   -3.0306 C   0  0  0  0  0  0  0  0  0  0  0  0
   -7.3887   -3.7927   -3.4350 C   0  0  0  0  0  0  0  0  0  0  0  0
   -8.7175   -3.3864   -3.2017 C   0  0  0  0  0  0  0  0  0  0  0  0
  -10.0766   -4.5412   -3.4244 S   0  0  0  0  0  0  0  0  0  0  0  0
   -9.9724   -5.0892   -1.6884 C   0  0  0  0  0  0  0  0  0  0  0  0
   -8.9604   -2.1063   -2.6686 C   0  0  0  0  0  0  0  0  0  0  0  0
   -7.9023   -1.3319   -2.2391 C   0  0  0  0  0  0  0  0  0  0  0  0
   -5.7462   -0.3033   -0.5812 C   0  0  0  0  0  0  0  0  0  0  0  0
   -5.9887    1.0778   -0.5774 C   0  0  0  0  0  0  0  0  0  0  0  0
   -6.5619    1.6886    0.5381 C   0  0  0  0  0  0  0  0  0  0  0  0
   -6.9040    0.9181    1.6697 C   0  0  0  0  0  0  0  0  0  0  0  0
   -7.7749    1.6725    3.0463 S   0  0  0  0  0  0  0  0  0  0  0  0
   -6.4923    1.2671    4.3029 C   0  0  0  0  0  0  0  0  0  0  0  0
   -6.6597   -0.4550    1.6622 C   0  0  0  0  0  0  0  0  0  0  0  0
   -6.0901   -1.0659    0.5474 C   0  0  0  0  0  0  0  0  0  0  0  0
   -3.1401   -1.7819   -1.5484 C   0  0  0  0  0  0  0  0  0  0  0  0
   -2.8292   -1.9186    0.0832 S   0  0  0  0  0  0  0  0  0  0  0  0
   -4.0829   -0.0165   -4.6541 C   0  0  0  0  0  0  0  0  0  0  0  0
   -3.0362    0.5627   -5.4518 C   0  0  0  0  0  0  0  0  0  0  0  0
   -1.7273    0.0713   -5.6301 C   0  0  0  0  0  0  0  0  0  0  0  0
   -0.9135    1.0437   -6.1533 C   0  0  0  0  0  0  0  0  0  0  0  0
    0.4392    0.7511   -6.6077 C   0  0  0  0  0  0  0  0  0  0  0  0
    1.1366   -0.0873   -5.9525 O   0  0  0  0  0  0  0  0  0  0  0  0
    0.9292    1.3234   -7.7909 O   0  0  0  0  0  0  0  0  0  0  0  0
    2.2961    1.2393   -8.1899 C   0  0  0  0  0  0  0  0  0  0  0  0
    3.1410    2.2592   -7.4635 C   0  0  0  0  0  0  0  0  0  0  0  0
   -1.7252    2.4304   -6.5029 S   0  0  0  0  0  0  0  0  0  0  0  0
   -3.1937    1.8837   -5.9379 C   0  0  0  0  0  0  0  0  0  0  0  0
   -4.3903    2.5780   -5.9141 C   0  0  0  0  0  0  0  0  0  0  0  0
   -5.4561    1.9521   -5.2997 C   0  0  0  0  0  0  0  0  0  0  0  0
   -5.3210    0.7260   -4.6590 C   0  0  0  0  0  0  0  0  0  0  0  0
   -6.4914    0.4898   -4.0736 N   0  0  0  0  0  0  0  0  0  0  0  0
   -7.2654    1.5208   -4.3497 N   0  0  0  0  0  0  0  0  0  0  0  0
   -8.6416    1.6914   -3.8280 C   0  0  0  0  0  0  0  0  0  0  0  0
   -8.6376    2.4084   -2.4827 C   0  0  0  0  0  0  0  0  0  0  0  0
   -6.6787    2.4483   -5.0724 N   0  0  0  0  0  0  0  0  0  0  0  0
   -4.4314    3.9655   -6.4699 C   0  0  0  0  0  0  0  0  0  0  0  0
   -4.1105    4.9872   -5.6697 C   0  0  0  0  0  0  0  0  0  0  0  0
   -4.5986    5.1072   -4.2870 C   0  0  0  0  0  0  0  0  0  0  0  0
   -5.7045    4.6980   -3.8655 O   0  0  0  0  0  0  0  0  0  0  0  0
   -3.5782    5.7136   -3.4770 C   0  0  0  0  0  0  0  0  0  0  0  0
   -3.6522    6.0543   -2.1295 C   0  0  0  0  0  0  0  0  0  0  0  0
   -2.5270    6.6320   -1.5100 C   0  0  0  0  0  0  0  0  0  0  0  0
   -2.5543    7.0549   -0.1850 C   0  0  0  0  0  0  0  0  0  0  0  0
   -1.4183    7.5718    0.4221 C   0  0  0  0  0  0  0  0  0  0  0  0
   -1.4565    7.9338    1.7329 F   0  0  0  0  0  0  0  0  0  0  0  0
   -0.2243    7.6940   -0.2989 C   0  0  0  0  0  0  0  0  0  0  0  0
    0.8844    8.1783    0.2991 F   0  0  0  0  0  0  0  0  0  0  0  0
   -0.1847    7.3211   -1.6538 C   0  0  0  0  0  0  0  0  0  0  0  0
   -1.3402    6.8049   -2.2685 C   0  0  0  0  0  0  0  0  0  0  0  0
   -1.3122    6.4754   -3.6396 C   0  0  0  0  0  0  0  0  0  0  0  0
   -2.4564    5.9505   -4.2430 C   0  0  0  0  0  0  0  0  0  0  0  0
   -2.7488    5.6129   -5.6663 C   0  0  0  0  0  0  0  0  0  0  0  0
   -1.9793    5.8735   -6.7380 C   0  0  0  0  0  0  0  0  0  0  0  0
   -0.5999    6.2734   -6.6394 C   0  0  0  0  0  0  0  0  0  0  0  0
    0.5098    6.5627   -6.6717 N   0  0  0  0  0  0  0  0  0  0  0  0
   -2.4492    5.7775   -8.1072 C   0  0  0  0  0  0  0  0  0  0  0  0
   -2.8686    5.7282   -9.1678 N   0  0  0  0  0  0  0  0  0  0  0  0
    5.7227   -1.7689    3.7651 H   0  0  0  0  0  0  0  0  0  0  0  0
    3.5616    4.1676    3.4005 H   0  0  0  0  0  0  0  0  0  0  0  0
    8.2671    2.9816    1.9304 H   0  0  0  0  0  0  0  0  0  0  0  0
    6.9439    5.7486    0.2765 H   0  0  0  0  0  0  0  0  0  0  0  0
    8.8615    6.8892    1.5502 H   0  0  0  0  0  0  0  0  0  0  0  0
    8.8370    6.1106    4.0860 H   0  0  0  0  0  0  0  0  0  0  0  0
    6.5048    6.6775    5.0912 H   0  0  0  0  0  0  0  0  0  0  0  0
    5.0809    7.9358    3.2294 H   0  0  0  0  0  0  0  0  0  0  0  0
    6.6785    8.3594    1.1239 H   0  0  0  0  0  0  0  0  0  0  0  0
    7.4886    8.8543    2.6834 H   0  0  0  0  0  0  0  0  0  0  0  0
    4.8442    6.4457    1.1091 H   0  0  0  0  0  0  0  0  0  0  0  0
    1.6248   -5.1029    6.0259 H   0  0  0  0  0  0  0  0  0  0  0  0
    2.0014   -7.5343    5.9252 H   0  0  0  0  0  0  0  0  0  0  0  0
    1.5441   -9.1396    3.5537 H   0  0  0  0  0  0  0  0  0  0  0  0
    2.7789   -9.2130    2.2245 H   0  0  0  0  0  0  0  0  0  0  0  0
    2.3806  -10.6999    3.1924 H   0  0  0  0  0  0  0  0  0  0  0  0
    5.0212   -6.9967    2.9448 H   0  0  0  0  0  0  0  0  0  0  0  0
    4.7027   -4.5503    3.0276 H   0  0  0  0  0  0  0  0  0  0  0  0
    0.9262   -1.4139    4.8970 H   0  0  0  0  0  0  0  0  0  0  0  0
    0.2397   -0.2787    6.9624 H   0  0  0  0  0  0  0  0  0  0  0  0
   -0.8253   -0.8404   10.8307 H   0  0  0  0  0  0  0  0  0  0  0  0
    0.1741   -2.3321   10.6052 H   0  0  0  0  0  0  0  0  0  0  0  0
   -0.7824   -1.6472    9.2240 H   0  0  0  0  0  0  0  0  0  0  0  0
    3.2758   -2.3956    9.1451 H   0  0  0  0  0  0  0  0  0  0  0  0
    3.9965   -3.5116    7.0721 H   0  0  0  0  0  0  0  0  0  0  0  0
   -2.0692    0.7988   -0.9290 H   0  0  0  0  0  0  0  0  0  0  0  0
   -3.8063    2.1487    0.1849 H   0  0  0  0  0  0  0  0  0  0  0  0
   -4.1513    5.6556    2.2363 H   0  0  0  0  0  0  0  0  0  0  0  0
   -2.8115    4.8405    1.2852 H   0  0  0  0  0  0  0  0  0  0  0  0
   -2.5527    5.2976    3.0657 H   0  0  0  0  0  0  0  0  0  0  0  0
   -1.3526    2.5101    3.7269 H   0  0  0  0  0  0  0  0  0  0  0  0
    0.4169    1.1142    2.6132 H   0  0  0  0  0  0  0  0  0  0  0  0
    0.5205   -0.7480   -2.4087 H   0  0  0  0  0  0  0  0  0  0  0  0
    2.3400   -0.0331   -3.9200 H   0  0  0  0  0  0  0  0  0  0  0  0
    5.0997   -0.1566   -3.2982 H   0  0  0  0  0  0  0  0  0  0  0  0
    4.6051    0.0679   -5.0221 H   0  0  0  0  0  0  0  0  0  0  0  0
    6.1757    0.7202   -4.4411 H   0  0  0  0  0  0  0  0  0  0  0  0
    3.6752    2.7995   -1.0203 H   0  0  0  0  0  0  0  0  0  0  0  0
    1.9422    2.0326    0.5590 H   0  0  0  0  0  0  0  0  0  0  0  0
    0.9195   -6.3184   -1.0761 H   0  0  0  0  0  0  0  0  0  0  0  0
    0.0447   -8.6320   -1.3023 H   0  0  0  0  0  0  0  0  0  0  0  0
   -2.1623  -11.0922   -4.2935 H   0  0  0  0  0  0  0  0  0  0  0  0
   -0.6592  -10.1497   -3.9101 H   0  0  0  0  0  0  0  0  0  0  0  0
   -2.0585   -9.3308   -4.7325 H   0  0  0  0  0  0  0  0  0  0  0  0
   -3.5403   -7.1048   -3.1023 H   0  0  0  0  0  0  0  0  0  0  0  0
   -2.6992   -4.8040   -2.9182 H   0  0  0  0  0  0  0  0  0  0  0  0
    1.0706   -5.4750   -3.8144 H   0  0  0  0  0  0  0  0  0  0  0  0
    3.3700   -5.1898   -4.5968 H   0  0  0  0  0  0  0  0  0  0  0  0
    6.2224   -4.6990   -2.1956 H   0  0  0  0  0  0  0  0  0  0  0  0
    5.3897   -5.6593   -3.5234 H   0  0  0  0  0  0  0  0  0  0  0  0
    7.0629   -5.0387   -3.7701 H   0  0  0  0  0  0  0  0  0  0  0  0
    3.9050   -1.9081   -1.9075 H   0  0  0  0  0  0  0  0  0  0  0  0
    1.7316   -2.3245   -0.9642 H   0  0  0  0  0  0  0  0  0  0  0  0
   -5.3245   -3.3854   -3.1364 H   0  0  0  0  0  0  0  0  0  0  0  0
   -7.2099   -4.7863   -3.8101 H   0  0  0  0  0  0  0  0  0  0  0  0
  -10.0855   -4.2240   -1.0059 H   0  0  0  0  0  0  0  0  0  0  0  0
   -8.9761   -5.5406   -1.5034 H   0  0  0  0  0  0  0  0  0  0  0  0
  -10.7613   -5.8277   -1.4803 H   0  0  0  0  0  0  0  0  0  0  0  0
   -9.9964   -1.8156   -2.4880 H   0  0  0  0  0  0  0  0  0  0  0  0
   -8.1253   -0.4417   -1.6990 H   0  0  0  0  0  0  0  0  0  0  0  0
   -5.7722    1.6768   -1.4480 H   0  0  0  0  0  0  0  0  0  0  0  0
   -6.7820    2.7468    0.5363 H   0  0  0  0  0  0  0  0  0  0  0  0
   -5.4686    1.3664    3.8728 H   0  0  0  0  0  0  0  0  0  0  0  0
   -6.6132    1.9660    5.1679 H   0  0  0  0  0  0  0  0  0  0  0  0
   -6.6258    0.2129    4.6411 H   0  0  0  0  0  0  0  0  0  0  0  0
   -6.9350   -1.0534    2.5334 H   0  0  0  0  0  0  0  0  0  0  0  0
   -5.9252   -2.1359    0.5409 H   0  0  0  0  0  0  0  0  0  0  0  0
   -1.2434   -0.8736   -6.0274 H   0  0  0  0  0  0  0  0  0  0  0  0
    2.6699    0.1957   -8.0120 H   0  0  0  0  0  0  0  0  0  0  0  0
    2.3702    1.4020   -9.3106 H   0  0  0  0  0  0  0  0  0  0  0  0
    3.3872    3.0941   -8.1559 H   0  0  0  0  0  0  0  0  0  0  0  0
    2.5903    2.6565   -6.5671 H   0  0  0  0  0  0  0  0  0  0  0  0
    4.0756    1.8002   -7.0960 H   0  0  0  0  0  0  0  0  0  0  0  0
   -9.1414    0.7022   -3.7586 H   0  0  0  0  0  0  0  0  0  0  0  0
   -9.1836    2.3170   -4.5593 H   0  0  0  0  0  0  0  0  0  0  0  0
   -9.6529    2.8264   -2.2924 H   0  0  0  0  0  0  0  0  0  0  0  0
   -7.8993    3.2492   -2.4472 H   0  0  0  0  0  0  0  0  0  0  0  0
   -8.4144    1.7003   -1.6535 H   0  0  0  0  0  0  0  0  0  0  0  0
   -4.1474    4.0252   -7.5097 H   0  0  0  0  0  0  0  0  0  0  0  0
   -4.5518    5.8764   -1.5702 H   0  0  0  0  0  0  0  0  0  0  0  0
   -3.4915    7.0036    0.3777 H   0  0  0  0  0  0  0  0  0  0  0  0
    0.7283    7.4553   -2.2041 H   0  0  0  0  0  0  0  0  0  0  0  0
   -0.3971    6.6365   -4.2062 H   0  0  0  0  0  0  0  0  0  0  0  0
  1  2  2  3
  2  3  1  0
  3  4  2  0
  3  5  1  0
  5  6  2  0
  6  7  1  0
  7  8  2  0
  8  9  1  0
  9 10  2  0
 10 11  1  0
 11 12  2  3
 12 13  1  0
 13 14  3  0
 12 15  1  0
 15 16  3  0
  8 17  1  0
 17 18  1  0
 18 19  1  0
 19 20  2  0
 20 21  1  0
 21 22  1  0
 21 23  1  0
  1 24  1  0
 24 25  2  0
 25 26  1  0
 26 27  1  0
 27 28  2  0
 28 29  1  0
 29 30  2  0
 30 31  1  0
 31 32  1  0
 30 33  1  0
 33 34  2  0
 26 35  1  0
 35 36  2  0
 36 37  1  0
 37 38  2  0
 38 39  1  0
 39 40  1  0
 38 41  1  0
 41 42  2  0
 25 43  1  0
 43 44  1  0
 44 45  1  0
 45 46  2  0
 46 47  1  0
 47 48  1  0
 48 49  2  0
 49 50  1  0
 50 51  2  0
 51 52  1  0
 52 53  1  0
 51 54  1  0
 54 55  2  0
 47 56  1  0
 56 57  2  0
 57 58  1  0
 58 59  2  0
 59 60  1  0
 60 61  1  0
 59 62  1  0
 62 63  2  0
 46 64  1  0
 64 65  1  0
 45 66  1  0
 66 67  2  0
 67 68  1  0
 68 69  1  0
 69 70  2  0
 70 71  1  0
 71 72  2  0
 72 73  1  0
 73 74  1  0
 72 75  1  0
 75 76  2  0
 68 77  1  0
 77 78  2  0
 78 79  1  0
 79 80  2  0
 80 81  1  0
 81 82  1  0
 80 83  1  0
 83 84  2  0
 67 85  1  0
 85 86  1  0
 86 87  1  0
 87 88  2  0
 88 89  1  0
 89 90  1  0
 90 91  2  0
 91 92  1  0
 92 93  2  0
 93 94  1  0
 94 95  1  0
 93 96  1  0
 96 97  2  0
 89 98  1  0
 98 99  2  0
 99100  1  0
100101  2  0
101102  1  0
102103  1  0
101104  1  0
104105  2  0
 88106  1  0
106107  1  0
 87108  1  0
108109  2  0
109110  1  0
110111  2  0
111112  1  0
112113  2  0
112114  1  0
114115  1  0
115116  1  0
111117  1  0
117118  1  0
118119  2  0
119120  1  0
120121  1  0
121122  2  0
122123  1  0
123124  1  0
124125  1  0
123126  1  0
119127  1  0
127128  2  3
128129  1  0
129130  2  0
129131  1  0
131132  2  0
132133  1  0
133134  2  0
134135  1  0
135136  1  0
135137  2  0
137138  1  0
137139  1  0
139140  2  0
140141  1  0
141142  2  0
142143  1  0
143144  2  3
144145  1  0
145146  3  0
144147  1  0
147148  3  0
 11  2  1  0
 23 17  1  0
 65 24  1  0
107 66  1  0
121108  1  0
143128  1  0
 10  5  1  0
 22 18  1  0
 34 27  1  0
 42 35  1  0
 64 43  2  0
 76 69  1  0
 84 77  1  0
106 85  2  0
118109  1  0
126120  2  0
142131  1  0
 23  7  1  0
 55 48  1  0
 63 56  1  0
 97 90  1  0
105 98  1  0
140133  1  0
  1149  1  0
  6150  1  0
  9151  1  0
 17152  1  0
 18153  1  0
 19154  1  0
 20155  1  0
 21156  1  0
 22157  1  0
 22158  1  0
 23159  1  0
 28160  1  0
 29161  1  0
 32162  1  0
 32163  1  0
 32164  1  0
 33165  1  0
 34166  1  0
 36167  1  0
 37168  1  0
 40169  1  0
 40170  1  0
 40171  1  0
 41172  1  0
 42173  1  0
 49174  1  0
 50175  1  0
 53176  1  0
 53177  1  0
 53178  1  0
 54179  1  0
 55180  1  0
 57181  1  0
 58182  1  0
 61183  1  0
 61184  1  0
 61185  1  0
 62186  1  0
 63187  1  0
 70188  1  0
 71189  1  0
 74190  1  0
 74191  1  0
 74192  1  0
 75193  1  0
 76194  1  0
 78195  1  0
 79196  1  0
 82197  1  0
 82198  1  0
 82199  1  0
 83200  1  0
 84201  1  0
 91202  1  0
 92203  1  0
 95204  1  0
 95205  1  0
 95206  1  0
 96207  1  0
 97208  1  0
 99209  1  0
100210  1  0
103211  1  0
103212  1  0
103213  1  0
104214  1  0
105215  1  0
110216  1  0
115217  1  0
115218  1  0
116219  1  0
116220  1  0
116221  1  0
124222  1  0
124223  1  0
125224  1  0
125225  1  0
125226  1  0
127227  1  0
132228  1  0
134229  1  0
139230  1  0
141231  1  0
M  END

