
     RDKit          3D

160175  0  0  0  0  0  0  0  0999 V2000
    0.2446    5.6593   -3.7204 C   0  0  0  0  0  0  0  0  0  0  0  0
   -0.1737    4.6482   -4.5108 C   0  0  0  0  0  0  0  0  0  0  0  0
    0.1000    3.2240   -4.2431 C   0  0  0  0  0  0  0  0  0  0  0  0
    1.1460    2.7428   -3.7333 O   0  0  0  0  0  0  0  0  0  0  0  0
   -1.0238    2.4437   -4.6896 C   0  0  0  0  0  0  0  0  0  0  0  0
   -1.2475    1.0768   -4.4377 C   0  0  0  0  0  0  0  0  0  0  0  0
   -2.4605    0.6142   -4.8999 C   0  0  0  0  0  0  0  0  0  0  0  0
   -3.4183    1.4526   -5.5574 C   0  0  0  0  0  0  0  0  0  0  0  0
   -3.2102    2.8056   -5.7952 C   0  0  0  0  0  0  0  0  0  0  0  0
   -1.9477    3.2956   -5.3483 C   0  0  0  0  0  0  0  0  0  0  0  0
   -1.3842    4.6790   -5.3805 C   0  0  0  0  0  0  0  0  0  0  0  0
   -1.7468    5.6991   -6.1940 C   0  0  0  0  0  0  0  0  0  0  0  0
   -0.9101    6.8568   -6.3506 C   0  0  0  0  0  0  0  0  0  0  0  0
   -0.2171    7.7738   -6.4971 N   0  0  0  0  0  0  0  0  0  0  0  0
   -2.8735    5.6099   -7.0870 C   0  0  0  0  0  0  0  0  0  0  0  0
   -3.7821    5.5487   -7.8059 N   0  0  0  0  0  0  0  0  0  0  0  0
   -4.3704    0.2980   -5.6688 C   0  0  0  0  0  0  0  0  0  0  0  0
   -5.5799    0.2940   -4.6847 C   0  0  0  0  0  0  0  0  0  0  0  0
   -6.1314   -1.1150   -4.7131 C   0  0  0  0  0  0  0  0  0  0  0  0
   -5.2289   -1.8866   -4.1016 C   0  0  0  0  0  0  0  0  0  0  0  0
   -4.1006   -0.9800   -3.6815 C   0  0  0  0  0  0  0  0  0  0  0  0
   -4.9147    0.2497   -3.3188 C   0  0  0  0  0  0  0  0  0  0  0  0
   -3.3830   -0.5582   -4.9965 C   0  0  0  0  0  0  0  0  0  0  0  0
    0.8730    5.3461   -2.4217 C   0  0  0  0  0  0  0  0  0  0  0  0
    0.0453    4.8763   -1.3902 C   0  0  0  0  0  0  0  0  0  0  0  0
   -1.3015    5.0686   -1.3701 N   0  0  0  0  0  0  0  0  0  0  0  0
   -1.9012    4.3266   -0.4156 C   0  0  0  0  0  0  0  0  0  0  0  0
   -3.3849    4.2738   -0.2348 C   0  0  0  0  0  0  0  0  0  0  0  0
   -3.9992    3.2471   -1.1748 C   0  0  0  0  0  0  0  0  0  0  0  0
   -0.7992    3.3290    0.3825 S   0  0  0  0  0  0  0  0  0  0  0  0
    0.5224    3.9452   -0.4648 C   0  0  0  0  0  0  0  0  0  0  0  0
    1.8478    3.4759   -0.4820 C   0  0  0  0  0  0  0  0  0  0  0  0
    2.7121    4.0697   -1.4174 C   0  0  0  0  0  0  0  0  0  0  0  0
    2.2334    5.0014   -2.3465 C   0  0  0  0  0  0  0  0  0  0  0  0
    3.4408    5.3078   -3.4768 S   0  0  0  0  0  0  0  0  0  0  0  0
    4.5278    4.2605   -2.7147 C   0  0  0  0  0  0  0  0  0  0  0  0
    5.9236    3.9945   -3.1899 C   0  0  0  0  0  0  0  0  0  0  0  0
    6.8864    5.0375   -2.6401 C   0  0  0  0  0  0  0  0  0  0  0  0
    3.9868    3.6593   -1.6303 N   0  0  0  0  0  0  0  0  0  0  0  0
    2.1573    2.1588    0.0792 C   0  0  0  0  0  0  0  0  0  0  0  0
    2.4830    1.8500    1.4063 C   0  0  0  0  0  0  0  0  0  0  0  0
    2.7729    2.8105    2.4344 N   0  0  0  0  0  0  0  0  0  0  0  0
    4.1173    2.8981    2.9597 C   0  0  0  0  0  0  0  0  0  0  0  0
    4.3390    3.1239    4.3338 C   0  0  0  0  0  0  0  0  0  0  0  0
    5.6400    3.1816    4.8409 C   0  0  0  0  0  0  0  0  0  0  0  0
    6.7351    3.0129    3.9866 C   0  0  0  0  0  0  0  0  0  0  0  0
    8.4048    3.0965    4.6340 S   0  0  0  0  0  0  0  0  0  0  0  0
    8.5096    1.3061    4.9500 C   0  0  0  0  0  0  0  0  0  0  0  0
    6.5277    2.7883    2.6194 C   0  0  0  0  0  0  0  0  0  0  0  0
    5.2279    2.7255    2.1087 C   0  0  0  0  0  0  0  0  0  0  0  0
    1.7083    3.5933    2.9960 C   0  0  0  0  0  0  0  0  0  0  0  0
    1.8635    4.9796    3.1728 C   0  0  0  0  0  0  0  0  0  0  0  0
    0.8143    5.7442    3.6905 C   0  0  0  0  0  0  0  0  0  0  0  0
   -0.3967    5.1328    4.0300 C   0  0  0  0  0  0  0  0  0  0  0  0
   -1.7690    6.1258    4.6272 S   0  0  0  0  0  0  0  0  0  0  0  0
   -2.4133    6.4411    2.9544 C   0  0  0  0  0  0  0  0  0  0  0  0
   -0.5477    3.7500    3.8810 C   0  0  0  0  0  0  0  0  0  0  0  0
    0.5025    2.9815    3.3801 C   0  0  0  0  0  0  0  0  0  0  0  0
    2.4654    0.4759    1.6216 C   0  0  0  0  0  0  0  0  0  0  0  0
    2.4862   -0.4510    3.0033 S   0  0  0  0  0  0  0  0  0  0  0  0
    2.0738   -1.8895    2.1964 C   0  0  0  0  0  0  0  0  0  0  0  0
    1.9535   -1.6521    0.8070 C   0  0  0  0  0  0  0  0  0  0  0  0
    1.6997   -2.6712   -0.2023 N   0  0  0  0  0  0  0  0  0  0  0  0
    1.6735   -2.3424   -1.5994 C   0  0  0  0  0  0  0  0  0  0  0  0
    0.4589   -2.3142   -2.3052 C   0  0  0  0  0  0  0  0  0  0  0  0
    0.4580   -2.1671   -3.6957 C   0  0  0  0  0  0  0  0  0  0  0  0
    1.6666   -2.0230   -4.3842 C   0  0  0  0  0  0  0  0  0  0  0  0
    1.6964   -1.9485   -6.1817 S   0  0  0  0  0  0  0  0  0  0  0  0
    1.7099   -0.1274   -6.2667 C   0  0  0  0  0  0  0  0  0  0  0  0
    2.8767   -2.0069   -3.6767 C   0  0  0  0  0  0  0  0  0  0  0  0
    2.8813   -2.1754   -2.2909 C   0  0  0  0  0  0  0  0  0  0  0  0
    1.9077   -4.0654    0.0924 C   0  0  0  0  0  0  0  0  0  0  0  0
    3.1156   -4.4997    0.6683 C   0  0  0  0  0  0  0  0  0  0  0  0
    3.3020   -5.8497    0.9754 C   0  0  0  0  0  0  0  0  0  0  0  0
    2.3108   -6.7868    0.6670 C   0  0  0  0  0  0  0  0  0  0  0  0
    2.5523   -8.5209    1.0628 S   0  0  0  0  0  0  0  0  0  0  0  0
    3.3843   -8.8849   -0.5107 C   0  0  0  0  0  0  0  0  0  0  0  0
    1.1226   -6.3696    0.0562 C   0  0  0  0  0  0  0  0  0  0  0  0
    0.9198   -5.0134   -0.2271 C   0  0  0  0  0  0  0  0  0  0  0  0
    2.1505   -0.2888    0.5448 C   0  0  0  0  0  0  0  0  0  0  0  0
    1.8686    0.7165   -0.7707 S   0  0  0  0  0  0  0  0  0  0  0  0
    1.5024   -3.0245    2.9235 C   0  0  0  0  0  0  0  0  0  0  0  0
    2.0303   -3.5988    4.0755 C   0  0  0  0  0  0  0  0  0  0  0  0
    1.1283   -4.4467    4.7263 C   0  0  0  0  0  0  0  0  0  0  0  0
    1.4157   -5.0642    5.8984 F   0  0  0  0  0  0  0  0  0  0  0  0
   -0.1204   -4.4927    4.1248 C   0  0  0  0  0  0  0  0  0  0  0  0
   -0.0904   -3.5285    2.7463 S   0  0  0  0  0  0  0  0  0  0  0  0
   -1.3201   -5.1354    4.6820 C   0  0  0  0  0  0  0  0  0  0  0  0
   -2.4629   -4.4606    4.9463 C   0  0  0  0  0  0  0  0  0  0  0  0
   -2.5385   -2.9813    4.8636 C   0  0  0  0  0  0  0  0  0  0  0  0
   -1.5456   -2.2671    5.1693 O   0  0  0  0  0  0  0  0  0  0  0  0
   -3.7750   -2.3707    4.4660 N   0  0  0  0  0  0  0  0  0  0  0  0
   -3.7813   -1.0089    3.9157 C   0  0  0  0  0  0  0  0  0  0  0  0
   -3.3738   -1.0265    2.4480 C   0  0  0  0  0  0  0  0  0  0  0  0
   -4.9636   -3.1852    4.4618 C   0  0  0  0  0  0  0  0  0  0  0  0
   -6.0559   -2.7101    4.0408 O   0  0  0  0  0  0  0  0  0  0  0  0
   -4.9205   -4.5721    4.9908 C   0  0  0  0  0  0  0  0  0  0  0  0
   -3.7355   -5.1745    5.2699 C   0  0  0  0  0  0  0  0  0  0  0  0
   -3.6936   -6.5681    5.8684 C   0  0  0  0  0  0  0  0  0  0  0  0
   -6.1802   -5.2496    5.2170 C   0  0  0  0  0  0  0  0  0  0  0  0
   -7.1892   -5.7899    5.4026 N   0  0  0  0  0  0  0  0  0  0  0  0
   -0.1894    6.6407   -3.8250 H   0  0  0  0  0  0  0  0  0  0  0  0
   -0.5514    0.4587   -3.8892 H   0  0  0  0  0  0  0  0  0  0  0  0
   -3.9810    3.4144   -6.2398 H   0  0  0  0  0  0  0  0  0  0  0  0
   -4.5979    0.0061   -6.7197 H   0  0  0  0  0  0  0  0  0  0  0  0
   -6.3275    1.1004   -4.8392 H   0  0  0  0  0  0  0  0  0  0  0  0
   -7.1088   -1.4360   -5.0655 H   0  0  0  0  0  0  0  0  0  0  0  0
   -5.3479   -2.9443   -3.8688 H   0  0  0  0  0  0  0  0  0  0  0  0
   -3.4408   -1.3784   -2.8805 H   0  0  0  0  0  0  0  0  0  0  0  0
   -4.3055    1.1490   -3.0881 H   0  0  0  0  0  0  0  0  0  0  0  0
   -5.6330    0.0793   -2.4763 H   0  0  0  0  0  0  0  0  0  0  0  0
   -2.9843   -1.3871   -5.6186 H   0  0  0  0  0  0  0  0  0  0  0  0
   -3.6299    4.0055    0.8183 H   0  0  0  0  0  0  0  0  0  0  0  0
   -3.8125    5.2775   -0.4482 H   0  0  0  0  0  0  0  0  0  0  0  0
   -3.7208    3.4614   -2.2248 H   0  0  0  0  0  0  0  0  0  0  0  0
   -3.6534    2.2266   -0.8981 H   0  0  0  0  0  0  0  0  0  0  0  0
   -5.1096    3.2819   -1.0806 H   0  0  0  0  0  0  0  0  0  0  0  0
    5.9449    4.0216   -4.3050 H   0  0  0  0  0  0  0  0  0  0  0  0
    6.2426    2.9811   -2.8666 H   0  0  0  0  0  0  0  0  0  0  0  0
    7.9177    4.8065   -2.9855 H   0  0  0  0  0  0  0  0  0  0  0  0
    6.6141    6.0537   -3.0098 H   0  0  0  0  0  0  0  0  0  0  0  0
    6.8756    5.0289   -1.5285 H   0  0  0  0  0  0  0  0  0  0  0  0
    3.5033    3.2339    5.0136 H   0  0  0  0  0  0  0  0  0  0  0  0
    5.7982    3.3489    5.9023 H   0  0  0  0  0  0  0  0  0  0  0  0
    8.3727    0.7439    4.0038 H   0  0  0  0  0  0  0  0  0  0  0  0
    7.7344    1.0045    5.6826 H   0  0  0  0  0  0  0  0  0  0  0  0
    9.5103    1.0693    5.3660 H   0  0  0  0  0  0  0  0  0  0  0  0
    7.3733    2.6628    1.9514 H   0  0  0  0  0  0  0  0  0  0  0  0
    5.0861    2.5522    1.0481 H   0  0  0  0  0  0  0  0  0  0  0  0
    2.7859    5.4693    2.8878 H   0  0  0  0  0  0  0  0  0  0  0  0
    0.9359    6.8126    3.8144 H   0  0  0  0  0  0  0  0  0  0  0  0
   -3.4029    6.9449    3.0338 H   0  0  0  0  0  0  0  0  0  0  0  0
   -2.5311    5.4861    2.4084 H   0  0  0  0  0  0  0  0  0  0  0  0
   -1.7120    7.0993    2.3994 H   0  0  0  0  0  0  0  0  0  0  0  0
   -1.4792    3.2668    4.1552 H   0  0  0  0  0  0  0  0  0  0  0  0
    0.3737    1.9139    3.2712 H   0  0  0  0  0  0  0  0  0  0  0  0
   -0.4789   -2.4473   -1.7763 H   0  0  0  0  0  0  0  0  0  0  0  0
   -0.4809   -2.1844   -4.2367 H   0  0  0  0  0  0  0  0  0  0  0  0
    0.6702    0.2516   -6.2457 H   0  0  0  0  0  0  0  0  0  0  0  0
    2.2907    0.3110   -5.4333 H   0  0  0  0  0  0  0  0  0  0  0  0
    2.1768    0.1854   -7.2214 H   0  0  0  0  0  0  0  0  0  0  0  0
    3.8169   -1.9054   -4.2090 H   0  0  0  0  0  0  0  0  0  0  0  0
    3.8236   -2.2171   -1.7615 H   0  0  0  0  0  0  0  0  0  0  0  0
    3.9010   -3.7938    0.9021 H   0  0  0  0  0  0  0  0  0  0  0  0
    4.2294   -6.1759    1.4280 H   0  0  0  0  0  0  0  0  0  0  0  0
    3.6818   -9.9541   -0.5269 H   0  0  0  0  0  0  0  0  0  0  0  0
    2.6956   -8.6932   -1.3611 H   0  0  0  0  0  0  0  0  0  0  0  0
    4.2938   -8.2555   -0.6247 H   0  0  0  0  0  0  0  0  0  0  0  0
    0.3547   -7.0871   -0.1901 H   0  0  0  0  0  0  0  0  0  0  0  0
   -0.0175   -4.6986   -0.6740 H   0  0  0  0  0  0  0  0  0  0  0  0
    3.0211   -3.3710    4.4559 H   0  0  0  0  0  0  0  0  0  0  0  0
   -1.2730   -6.2064    4.7858 H   0  0  0  0  0  0  0  0  0  0  0  0
   -4.7876   -0.5472    4.0207 H   0  0  0  0  0  0  0  0  0  0  0  0
   -3.0732   -0.3624    4.4837 H   0  0  0  0  0  0  0  0  0  0  0  0
   -3.2949    0.0128    2.0645 H   0  0  0  0  0  0  0  0  0  0  0  0
   -4.1233   -1.5839    1.8494 H   0  0  0  0  0  0  0  0  0  0  0  0
   -2.3878   -1.5275    2.3240 H   0  0  0  0  0  0  0  0  0  0  0  0
   -4.5411   -6.7315    6.5636 H   0  0  0  0  0  0  0  0  0  0  0  0
   -2.7752   -6.7150    6.4746 H   0  0  0  0  0  0  0  0  0  0  0  0
   -3.7336   -7.3212    5.0558 H   0  0  0  0  0  0  0  0  0  0  0  0
  1  2  2  3
  2  3  1  0
  3  4  2  0
  3  5  1  0
  5  6  2  0
  6  7  1  0
  7  8  2  0
  8  9  1  0
  9 10  2  0
 10 11  1  0
 11 12  2  3
 12 13  1  0
 13 14  3  0
 12 15  1  0
 15 16  3  0
  8 17  1  0
 17 18  1  0
 18 19  1  0
 19 20  2  0
 20 21  1  0
 21 22  1  0
 21 23  1  0
  1 24  1  0
 24 25  2  0
 25 26  1  0
 26 27  2  0
 27 28  1  0
 28 29  1  0
 27 30  1  0
 30 31  1  0
 31 32  2  0
 32 33  1  0
 33 34  2  0
 34 35  1  0
 35 36  1  0
 36 37  1  0
 37 38  1  0
 36 39  2  0
 32 40  1  0
 40 41  2  0
 41 42  1  0
 42 43  1  0
 43 44  2  0
 44 45  1  0
 45 46  2  0
 46 47  1  0
 47 48  1  0
 46 49  1  0
 49 50  2  0
 42 51  1  0
 51 52  2  0
 52 53  1  0
 53 54  2  0
 54 55  1  0
 55 56  1  0
 54 57  1  0
 57 58  2  0
 41 59  1  0
 59 60  1  0
 60 61  1  0
 61 62  2  0
 62 63  1  0
 63 64  1  0
 64 65  2  0
 65 66  1  0
 66 67  2  0
 67 68  1  0
 68 69  1  0
 67 70  1  0
 70 71  2  0
 63 72  1  0
 72 73  2  0
 73 74  1  0
 74 75  2  0
 75 76  1  0
 76 77  1  0
 75 78  1  0
 78 79  2  0
 62 80  1  0
 80 81  1  0
 61 82  1  0
 82 83  2  0
 83 84  1  0
 84 85  1  0
 84 86  2  0
 86 87  1  0
 86 88  1  0
 88 89  2  3
 89 90  1  0
 90 91  2  0
 90 92  1  0
 92 93  1  0
 93 94  1  0
 92 95  1  0
 95 96  2  0
 95 97  1  0
 97 98  2  0
 98 99  1  0
 97100  1  0
100101  3  0
 11  2  1  0
 23 17  1  0
 34 24  1  0
 81 40  1  0
 87 82  1  0
 98 89  1  0
 10  5  1  0
 22 18  1  0
 31 25  1  0
 39 33  1  0
 50 43  1  0
 58 51  1  0
 80 59  2  0
 23  7  1  0
 71 64  1  0
 79 72  1  0
  1102  1  0
  6103  1  0
  9104  1  0
 17105  1  0
 18106  1  0
 19107  1  0
 20108  1  0
 21109  1  0
 22110  1  0
 22111  1  0
 23112  1  0
 28113  1  0
 28114  1  0
 29115  1  0
 29116  1  0
 29117  1  0
 37118  1  0
 37119  1  0
 38120  1  0
 38121  1  0
 38122  1  0
 44123  1  0
 45124  1  0
 48125  1  0
 48126  1  0
 48127  1  0
 49128  1  0
 50129  1  0
 52130  1  0
 53131  1  0
 56132  1  0
 56133  1  0
 56134  1  0
 57135  1  0
 58136  1  0
 65137  1  0
 66138  1  0
 69139  1  0
 69140  1  0
 69141  1  0
 70142  1  0
 71143  1  0
 73144  1  0
 74145  1  0
 77146  1  0
 77147  1  0
 77148  1  0
 78149  1  0
 79150  1  0
 83151  1  0
 88152  1  0
 93153  1  0
 93154  1  0
 94155  1  0
 94156  1  0
 94157  1  0
 99158  1  0
 99159  1  0
 99160  1  0
M  END

