
     RDKit          3D

182201  0  0  0  0  0  0  0  0999 V2000
    0.9213   -5.1311   -4.9403 C   0  0  0  0  0  0  0  0  0  0  0  0
   -0.1696   -5.5927   -4.2900 C   0  0  0  0  0  0  0  0  0  0  0  0
   -0.7987   -4.9357   -3.1310 C   0  0  0  0  0  0  0  0  0  0  0  0
   -0.4703   -3.8322   -2.6148 O   0  0  0  0  0  0  0  0  0  0  0  0
   -1.8546   -5.7666   -2.6276 C   0  0  0  0  0  0  0  0  0  0  0  0
   -2.7154   -5.4621   -1.5452 C   0  0  0  0  0  0  0  0  0  0  0  0
   -3.7195   -6.3867   -1.3582 C   0  0  0  0  0  0  0  0  0  0  0  0
   -3.8847   -7.5407   -2.1912 C   0  0  0  0  0  0  0  0  0  0  0  0
   -3.0366   -7.8553   -3.2434 C   0  0  0  0  0  0  0  0  0  0  0  0
   -1.9674   -6.9313   -3.4358 C   0  0  0  0  0  0  0  0  0  0  0  0
   -0.9093   -6.8923   -4.4921 C   0  0  0  0  0  0  0  0  0  0  0  0
   -0.7001   -7.8276   -5.4591 C   0  0  0  0  0  0  0  0  0  0  0  0
    0.1435   -7.6028   -6.6001 C   0  0  0  0  0  0  0  0  0  0  0  0
    0.8141   -7.4441   -7.5351 N   0  0  0  0  0  0  0  0  0  0  0  0
   -1.3158   -9.1363   -5.4208 C   0  0  0  0  0  0  0  0  0  0  0  0
   -1.7771  -10.1949   -5.3943 N   0  0  0  0  0  0  0  0  0  0  0  0
   -5.1260   -7.9244   -1.4451 C   0  0  0  0  0  0  0  0  0  0  0  0
   -6.4970   -7.6598   -2.1370 C   0  0  0  0  0  0  0  0  0  0  0  0
   -6.4025   -6.4557   -3.0451 C   0  0  0  0  0  0  0  0  0  0  0  0
   -6.2415   -5.3935   -2.2557 C   0  0  0  0  0  0  0  0  0  0  0  0
   -6.2320   -5.9091   -0.8365 C   0  0  0  0  0  0  0  0  0  0  0  0
   -7.2519   -7.0261   -0.9843 C   0  0  0  0  0  0  0  0  0  0  0  0
   -4.9471   -6.7525   -0.5788 C   0  0  0  0  0  0  0  0  0  0  0  0
    1.4333   -3.7742   -4.7282 C   0  0  0  0  0  0  0  0  0  0  0  0
    0.8381   -2.6346   -5.2428 C   0  0  0  0  0  0  0  0  0  0  0  0
    1.2052   -1.4551   -4.5690 C   0  0  0  0  0  0  0  0  0  0  0  0
    0.4633   -0.2005   -4.7933 C   0  0  0  0  0  0  0  0  0  0  0  0
   -0.8621   -0.1042   -4.3194 C   0  0  0  0  0  0  0  0  0  0  0  0
   -1.4089   -1.1984   -3.6301 O   0  0  0  0  0  0  0  0  0  0  0  0
   -2.7262   -1.2816   -3.0907 C   0  0  0  0  0  0  0  0  0  0  0  0
   -3.7311   -1.5911   -4.1931 C   0  0  0  0  0  0  0  0  0  0  0  0
   -1.5797    1.0927   -4.5297 C   0  0  0  0  0  0  0  0  0  0  0  0
   -0.9767    2.1733   -5.1652 C   0  0  0  0  0  0  0  0  0  0  0  0
    0.3389    2.0805   -5.6146 C   0  0  0  0  0  0  0  0  0  0  0  0
    1.0706    0.8875   -5.4443 C   0  0  0  0  0  0  0  0  0  0  0  0
    2.3916    0.7440   -5.9059 O   0  0  0  0  0  0  0  0  0  0  0  0
    3.0785    1.6632   -6.7579 C   0  0  0  0  0  0  0  0  0  0  0  0
    2.5361    1.5846   -8.1830 C   0  0  0  0  0  0  0  0  0  0  0  0
    2.1068   -1.6623   -3.5115 C   0  0  0  0  0  0  0  0  0  0  0  0
    2.3857   -3.3221   -3.4228 S   0  0  0  0  0  0  0  0  0  0  0  0
    2.3838   -0.7334   -2.3922 C   0  0  0  0  0  0  0  0  0  0  0  0
    3.4699   -0.7809   -1.4745 C   0  0  0  0  0  0  0  0  0  0  0  0
    4.8179   -1.2634   -1.7957 N   0  0  0  0  0  0  0  0  0  0  0  0
    5.9824   -0.7986   -1.0725 C   0  0  0  0  0  0  0  0  0  0  0  0
    6.3521   -1.3700    0.1592 C   0  0  0  0  0  0  0  0  0  0  0  0
    7.6066   -1.0923    0.7234 C   0  0  0  0  0  0  0  0  0  0  0  0
    8.5327   -0.3042    0.0287 C   0  0  0  0  0  0  0  0  0  0  0  0
   10.2136   -0.1122    0.6291 S   0  0  0  0  0  0  0  0  0  0  0  0
   10.0144    1.6149    1.2046 C   0  0  0  0  0  0  0  0  0  0  0  0
    8.1894    0.2423   -1.2136 C   0  0  0  0  0  0  0  0  0  0  0  0
    6.9143    0.0327   -1.7341 C   0  0  0  0  0  0  0  0  0  0  0  0
    5.1279   -1.8218   -3.0864 C   0  0  0  0  0  0  0  0  0  0  0  0
    5.7297   -3.0888   -3.1666 C   0  0  0  0  0  0  0  0  0  0  0  0
    6.1700   -3.5819   -4.3943 C   0  0  0  0  0  0  0  0  0  0  0  0
    6.0228   -2.8121   -5.5530 C   0  0  0  0  0  0  0  0  0  0  0  0
    6.6362   -3.4046   -7.1328 S   0  0  0  0  0  0  0  0  0  0  0  0
    8.3440   -2.8105   -6.8824 C   0  0  0  0  0  0  0  0  0  0  0  0
    5.4256   -1.5463   -5.4812 C   0  0  0  0  0  0  0  0  0  0  0  0
    4.9847   -1.0555   -4.2538 C   0  0  0  0  0  0  0  0  0  0  0  0
    3.1063   -0.1304   -0.2722 C   0  0  0  0  0  0  0  0  0  0  0  0
    3.6239   -0.1693    1.3334 S   0  0  0  0  0  0  0  0  0  0  0  0
    2.2543    0.6196    1.9782 C   0  0  0  0  0  0  0  0  0  0  0  0
    1.3913    0.9434    0.9211 C   0  0  0  0  0  0  0  0  0  0  0  0
    0.2939    1.8799    0.9760 N   0  0  0  0  0  0  0  0  0  0  0  0
   -0.9269    1.6036    1.6689 C   0  0  0  0  0  0  0  0  0  0  0  0
   -1.1748    2.2060    2.9097 C   0  0  0  0  0  0  0  0  0  0  0  0
   -2.4009    2.0229    3.5494 C   0  0  0  0  0  0  0  0  0  0  0  0
   -3.4093    1.2675    2.9446 C   0  0  0  0  0  0  0  0  0  0  0  0
   -4.9846    1.0724    3.7803 S   0  0  0  0  0  0  0  0  0  0  0  0
   -4.9607   -0.7495    3.8216 C   0  0  0  0  0  0  0  0  0  0  0  0
   -3.1874    0.7261    1.6662 C   0  0  0  0  0  0  0  0  0  0  0  0
   -1.9415    0.8640    1.0500 C   0  0  0  0  0  0  0  0  0  0  0  0
    0.3779    3.0806    0.1848 C   0  0  0  0  0  0  0  0  0  0  0  0
   -0.5786    3.3595   -0.8120 C   0  0  0  0  0  0  0  0  0  0  0  0
   -0.4777    4.5188   -1.5896 C   0  0  0  0  0  0  0  0  0  0  0  0
    0.5786    5.4135   -1.3836 C   0  0  0  0  0  0  0  0  0  0  0  0
    0.6781    6.9217   -2.3418 S   0  0  0  0  0  0  0  0  0  0  0  0
    1.6173    6.1482   -3.6977 C   0  0  0  0  0  0  0  0  0  0  0  0
    1.5420    5.1403   -0.4020 C   0  0  0  0  0  0  0  0  0  0  0  0
    1.4419    3.9746    0.3681 C   0  0  0  0  0  0  0  0  0  0  0  0
    1.8904    0.4826   -0.2890 C   0  0  0  0  0  0  0  0  0  0  0  0
    1.1258    0.2001   -1.7375 S   0  0  0  0  0  0  0  0  0  0  0  0
    1.9599    0.7422    3.4132 C   0  0  0  0  0  0  0  0  0  0  0  0
    2.8744    1.5823    4.5572 S   0  0  0  0  0  0  0  0  0  0  0  0
    1.7828    1.4104    5.8371 C   0  0  0  0  0  0  0  0  0  0  0  0
    0.7638    0.5763    5.4055 C   0  0  0  0  0  0  0  0  0  0  0  0
    0.8640    0.2051    4.0782 C   0  0  0  0  0  0  0  0  0  0  0  0
   -0.0605   -0.6746    3.5223 O   0  0  0  0  0  0  0  0  0  0  0  0
   -0.9798   -1.3885    4.3466 C   0  0  0  0  0  0  0  0  0  0  0  0
   -1.3867   -0.5969    5.6143 C   0  0  0  0  0  0  0  0  0  0  0  0
   -0.2838    0.1050    6.1920 O   0  0  0  0  0  0  0  0  0  0  0  0
    1.9080    1.9544    7.2054 C   0  0  0  0  0  0  0  0  0  0  0  0
    1.0380    2.8419    7.7152 C   0  0  0  0  0  0  0  0  0  0  0  0
    0.7815    2.9832    9.1528 C   0  0  0  0  0  0  0  0  0  0  0  0
    1.5184    2.5429   10.0841 O   0  0  0  0  0  0  0  0  0  0  0  0
   -0.4872    3.6569    9.3390 C   0  0  0  0  0  0  0  0  0  0  0  0
   -1.1140    3.9978   10.5694 C   0  0  0  0  0  0  0  0  0  0  0  0
   -2.3055    4.6937   10.4254 C   0  0  0  0  0  0  0  0  0  0  0  0
   -2.8583    5.0191    9.1455 C   0  0  0  0  0  0  0  0  0  0  0  0
   -2.2710    4.6751    7.9430 C   0  0  0  0  0  0  0  0  0  0  0  0
   -1.0288    3.9850    8.0699 C   0  0  0  0  0  0  0  0  0  0  0  0
   -0.0534    3.5939    7.0139 C   0  0  0  0  0  0  0  0  0  0  0  0
    0.1114    4.2671    5.8496 C   0  0  0  0  0  0  0  0  0  0  0  0
   -0.9569    4.9697    5.1772 C   0  0  0  0  0  0  0  0  0  0  0  0
   -1.7867    5.5432    4.6059 N   0  0  0  0  0  0  0  0  0  0  0  0
    1.4045    4.4439    5.2338 C   0  0  0  0  0  0  0  0  0  0  0  0
    2.4174    4.5964    4.7049 N   0  0  0  0  0  0  0  0  0  0  0  0
   -4.0205    5.7076    9.8028 C   0  0  0  0  0  0  0  0  0  0  0  0
   -5.3846    4.9641    9.7852 C   0  0  0  0  0  0  0  0  0  0  0  0
   -6.2451    5.6555   10.8111 C   0  0  0  0  0  0  0  0  0  0  0  0
   -5.7364    5.3460   12.0093 C   0  0  0  0  0  0  0  0  0  0  0  0
   -4.5435    4.4606   11.7491 C   0  0  0  0  0  0  0  0  0  0  0  0
   -5.0848    3.6907   10.5531 C   0  0  0  0  0  0  0  0  0  0  0  0
   -3.4548    5.3708   11.1145 C   0  0  0  0  0  0  0  0  0  0  0  0
    1.4347   -5.7164   -5.6756 H   0  0  0  0  0  0  0  0  0  0  0  0
   -2.6261   -4.5613   -0.9511 H   0  0  0  0  0  0  0  0  0  0  0  0
   -3.2572   -8.7010   -3.8756 H   0  0  0  0  0  0  0  0  0  0  0  0
   -5.0470   -8.8930   -0.9065 H   0  0  0  0  0  0  0  0  0  0  0  0
   -6.9805   -8.5515   -2.5901 H   0  0  0  0  0  0  0  0  0  0  0  0
   -6.5013   -6.4341   -4.1271 H   0  0  0  0  0  0  0  0  0  0  0  0
   -6.1877   -4.3581   -2.5798 H   0  0  0  0  0  0  0  0  0  0  0  0
   -6.4643   -5.1533   -0.0599 H   0  0  0  0  0  0  0  0  0  0  0  0
   -8.2731   -6.6652   -1.2541 H   0  0  0  0  0  0  0  0  0  0  0  0
   -7.3264   -7.6829   -0.0858 H   0  0  0  0  0  0  0  0  0  0  0  0
   -4.7544   -7.0146    0.4864 H   0  0  0  0  0  0  0  0  0  0  0  0
    0.0514   -2.6693   -5.9900 H   0  0  0  0  0  0  0  0  0  0  0  0
   -2.9955   -0.3489   -2.5519 H   0  0  0  0  0  0  0  0  0  0  0  0
   -2.7532   -2.1130   -2.3534 H   0  0  0  0  0  0  0  0  0  0  0  0
   -4.7511   -1.6718   -3.7666 H   0  0  0  0  0  0  0  0  0  0  0  0
   -3.7345   -0.7969   -4.9666 H   0  0  0  0  0  0  0  0  0  0  0  0
   -3.4708   -2.5620   -4.6760 H   0  0  0  0  0  0  0  0  0  0  0  0
   -2.6006    1.2047   -4.1905 H   0  0  0  0  0  0  0  0  0  0  0  0
   -1.5332    3.0919   -5.3178 H   0  0  0  0  0  0  0  0  0  0  0  0
    0.7704    2.9418   -6.0959 H   0  0  0  0  0  0  0  0  0  0  0  0
    4.1565    1.3862   -6.7814 H   0  0  0  0  0  0  0  0  0  0  0  0
    3.0094    2.6995   -6.3622 H   0  0  0  0  0  0  0  0  0  0  0  0
    3.1097    2.2647   -8.8431 H   0  0  0  0  0  0  0  0  0  0  0  0
    1.4719    1.8831   -8.2209 H   0  0  0  0  0  0  0  0  0  0  0  0
    2.6301    0.5450   -8.5717 H   0  0  0  0  0  0  0  0  0  0  0  0
    5.6946   -2.0808    0.6394 H   0  0  0  0  0  0  0  0  0  0  0  0
    7.8779   -1.5516    1.6646 H   0  0  0  0  0  0  0  0  0  0  0  0
    9.8121    1.6158    2.2971 H   0  0  0  0  0  0  0  0  0  0  0  0
   10.9580    2.1686    1.0022 H   0  0  0  0  0  0  0  0  0  0  0  0
    9.1807    2.1332    0.6747 H   0  0  0  0  0  0  0  0  0  0  0  0
    8.9197    0.8080   -1.7824 H   0  0  0  0  0  0  0  0  0  0  0  0
    6.7053    0.4289   -2.7218 H   0  0  0  0  0  0  0  0  0  0  0  0
    5.8871   -3.6742   -2.2717 H   0  0  0  0  0  0  0  0  0  0  0  0
    6.6702   -4.5388   -4.4368 H   0  0  0  0  0  0  0  0  0  0  0  0
    8.5460   -2.0217   -7.6384 H   0  0  0  0  0  0  0  0  0  0  0  0
    8.5211   -2.3966   -5.8649 H   0  0  0  0  0  0  0  0  0  0  0  0
    9.0575   -3.6431   -7.0475 H   0  0  0  0  0  0  0  0  0  0  0  0
    5.3361   -0.9377   -6.3727 H   0  0  0  0  0  0  0  0  0  0  0  0
    4.5662   -0.0593   -4.1955 H   0  0  0  0  0  0  0  0  0  0  0  0
   -0.4027    2.8116    3.3765 H   0  0  0  0  0  0  0  0  0  0  0  0
   -2.5604    2.4717    4.5247 H   0  0  0  0  0  0  0  0  0  0  0  0
   -5.7443   -1.1113    4.5272 H   0  0  0  0  0  0  0  0  0  0  0  0
   -5.2066   -1.1278    2.8049 H   0  0  0  0  0  0  0  0  0  0  0  0
   -3.9821   -1.1417    4.1563 H   0  0  0  0  0  0  0  0  0  0  0  0
   -3.9758    0.1820    1.1631 H   0  0  0  0  0  0  0  0  0  0  0  0
   -1.7778    0.4301    0.0669 H   0  0  0  0  0  0  0  0  0  0  0  0
   -1.3944    2.6763   -1.0087 H   0  0  0  0  0  0  0  0  0  0  0  0
   -1.2234    4.7232   -2.3536 H   0  0  0  0  0  0  0  0  0  0  0  0
    2.5950    5.7763   -3.3246 H   0  0  0  0  0  0  0  0  0  0  0  0
    1.0348    5.3102   -4.1319 H   0  0  0  0  0  0  0  0  0  0  0  0
    1.8023    6.8975   -4.4858 H   0  0  0  0  0  0  0  0  0  0  0  0
    2.3608    5.8352   -0.2263 H   0  0  0  0  0  0  0  0  0  0  0  0
    2.1959    3.7830    1.1268 H   0  0  0  0  0  0  0  0  0  0  0  0
   -0.5055   -2.3377    4.6543 H   0  0  0  0  0  0  0  0  0  0  0  0
   -1.8723   -1.6353    3.7454 H   0  0  0  0  0  0  0  0  0  0  0  0
   -2.1876    0.1261    5.3795 H   0  0  0  0  0  0  0  0  0  0  0  0
   -1.8007   -1.2974    6.3730 H   0  0  0  0  0  0  0  0  0  0  0  0
    2.6083    1.4596    7.8691 H   0  0  0  0  0  0  0  0  0  0  0  0
   -0.6972    3.7607   11.5439 H   0  0  0  0  0  0  0  0  0  0  0  0
   -2.7404    4.9258    7.0065 H   0  0  0  0  0  0  0  0  0  0  0  0
   -4.0604    6.8013    9.5886 H   0  0  0  0  0  0  0  0  0  0  0  0
   -5.8499    4.8332    8.7881 H   0  0  0  0  0  0  0  0  0  0  0  0
   -7.1623    6.2140   10.6352 H   0  0  0  0  0  0  0  0  0  0  0  0
   -6.1703    5.6099   12.9696 H   0  0  0  0  0  0  0  0  0  0  0  0
   -4.2171    3.8448   12.6152 H   0  0  0  0  0  0  0  0  0  0  0  0
   -5.9956    3.0865   10.7894 H   0  0  0  0  0  0  0  0  0  0  0  0
   -4.3449    3.0218   10.0664 H   0  0  0  0  0  0  0  0  0  0  0  0
   -3.1485    6.2510   11.7236 H   0  0  0  0  0  0  0  0  0  0  0  0
  1  2  2  3
  2  3  1  0
  3  4  2  0
  3  5  1  0
  5  6  2  0
  6  7  1  0
  7  8  2  0
  8  9  1  0
  9 10  2  0
 10 11  1  0
 11 12  2  3
 12 13  1  0
 13 14  3  0
 12 15  1  0
 15 16  3  0
  8 17  1  0
 17 18  1  0
 18 19  1  0
 19 20  2  0
 20 21  1  0
 21 22  1  0
 21 23  1  0
  1 24  1  0
 24 25  2  0
 25 26  1  0
 26 27  1  0
 27 28  2  0
 28 29  1  0
 29 30  1  0
 30 31  1  0
 28 32  1  0
 32 33  2  0
 33 34  1  0
 34 35  2  0
 35 36  1  0
 36 37  1  0
 37 38  1  0
 26 39  2  0
 39 40  1  0
 39 41  1  0
 41 42  2  0
 42 43  1  0
 43 44  1  0
 44 45  2  0
 45 46  1  0
 46 47  2  0
 47 48  1  0
 48 49  1  0
 47 50  1  0
 50 51  2  0
 43 52  1  0
 52 53  2  0
 53 54  1  0
 54 55  2  0
 55 56  1  0
 56 57  1  0
 55 58  1  0
 58 59  2  0
 42 60  1  0
 60 61  1  0
 61 62  1  0
 62 63  2  0
 63 64  1  0
 64 65  1  0
 65 66  2  0
 66 67  1  0
 67 68  2  0
 68 69  1  0
 69 70  1  0
 68 71  1  0
 71 72  2  0
 64 73  1  0
 73 74  2  0
 74 75  1  0
 75 76  2  0
 76 77  1  0
 77 78  1  0
 76 79  1  0
 79 80  2  0
 63 81  1  0
 81 82  1  0
 62 83  1  0
 83 84  1  0
 84 85  1  0
 85 86  2  0
 86 87  1  0
 87 88  1  0
 88 89  1  0
 89 90  1  0
 90 91  1  0
 85 92  1  0
 92 93  2  3
 93 94  1  0
 94 95  2  0
 94 96  1  0
 96 97  2  0
 97 98  1  0
 98 99  2  0
 99100  1  0
100101  2  0
101102  1  0
102103  2  3
103104  1  0
104105  3  0
103106  1  0
106107  3  0
 99108  1  0
108109  1  0
109110  1  0
110111  2  0
111112  1  0
112113  1  0
112114  1  0
 11  2  1  0
 23 17  1  0
 40 24  1  0
 82 41  1  0
 87 83  2  0
102 93  1  0
114108  1  0
 10  5  1  0
 22 18  1  0
 35 27  1  0
 51 44  1  0
 59 52  1  0
 81 60  2  0
 91 86  1  0
101 96  1  0
113109  1  0
 23  7  1  0
 72 65  1  0
 80 73  1  0
114 98  1  0
  1115  1  0
  6116  1  0
  9117  1  0
 17118  1  0
 18119  1  0
 19120  1  0
 20121  1  0
 21122  1  0
 22123  1  0
 22124  1  0
 23125  1  0
 25126  1  0
 30127  1  0
 30128  1  0
 31129  1  0
 31130  1  0
 31131  1  0
 32132  1  0
 33133  1  0
 34134  1  0
 37135  1  0
 37136  1  0
 38137  1  0
 38138  1  0
 38139  1  0
 45140  1  0
 46141  1  0
 49142  1  0
 49143  1  0
 49144  1  0
 50145  1  0
 51146  1  0
 53147  1  0
 54148  1  0
 57149  1  0
 57150  1  0
 57151  1  0
 58152  1  0
 59153  1  0
 66154  1  0
 67155  1  0
 70156  1  0
 70157  1  0
 70158  1  0
 71159  1  0
 72160  1  0
 74161  1  0
 75162  1  0
 78163  1  0
 78164  1  0
 78165  1  0
 79166  1  0
 80167  1  0
 89168  1  0
 89169  1  0
 90170  1  0
 90171  1  0
 92172  1  0
 97173  1  0
100174  1  0
108175  1  0
109176  1  0
110177  1  0
111178  1  0
112179  1  0
113180  1  0
113181  1  0
114182  1  0
M  END

