
     RDKit          3D

184204  0  0  0  0  0  0  0  0999 V2000
    0.1749    5.9976   -2.1533 C   0  0  0  0  0  0  0  0  0  0  0  0
    1.3068    6.6783   -1.8936 C   0  0  0  0  0  0  0  0  0  0  0  0
    2.2841    6.3499   -0.8492 C   0  0  0  0  0  0  0  0  0  0  0  0
    2.2974    5.3076   -0.1397 O   0  0  0  0  0  0  0  0  0  0  0  0
    3.1510    7.4903   -0.6508 C   0  0  0  0  0  0  0  0  0  0  0  0
    4.1794    7.6226    0.3125 C   0  0  0  0  0  0  0  0  0  0  0  0
    4.7668    8.8719    0.3290 C   0  0  0  0  0  0  0  0  0  0  0  0
    4.3565    9.9432   -0.5280 C   0  0  0  0  0  0  0  0  0  0  0  0
    3.3475    9.8202   -1.4689 C   0  0  0  0  0  0  0  0  0  0  0  0
    2.7615    8.5256   -1.5384 C   0  0  0  0  0  0  0  0  0  0  0  0
    1.6780    8.0228   -2.4268 C   0  0  0  0  0  0  0  0  0  0  0  0
    1.3230    8.5297   -3.6372 C   0  0  0  0  0  0  0  0  0  0  0  0
    0.5375    7.7740   -4.5766 C   0  0  0  0  0  0  0  0  0  0  0  0
   -0.0818    7.1696   -5.3435 N   0  0  0  0  0  0  0  0  0  0  0  0
    1.8610    9.7660   -4.1473 C   0  0  0  0  0  0  0  0  0  0  0  0
    2.2864   10.7568   -4.5718 N   0  0  0  0  0  0  0  0  0  0  0  0
    5.3553   10.8595    0.1113 C   0  0  0  0  0  0  0  0  0  0  0  0
    4.7937   11.9122    1.1082 C   0  0  0  0  0  0  0  0  0  0  0  0
    5.9854   12.4224    1.8827 C   0  0  0  0  0  0  0  0  0  0  0  0
    6.3819   11.4202    2.6747 C   0  0  0  0  0  0  0  0  0  0  0  0
    5.4401   10.2684    2.4108 C   0  0  0  0  0  0  0  0  0  0  0  0
    4.1623   11.0591    2.1930 C   0  0  0  0  0  0  0  0  0  0  0  0
    5.7806    9.7588    0.9808 C   0  0  0  0  0  0  0  0  0  0  0  0
   -0.1053    4.6401   -1.6480 C   0  0  0  0  0  0  0  0  0  0  0  0
   -1.5035    4.2291   -0.8054 S   0  0  0  0  0  0  0  0  0  0  0  0
   -1.1446    2.5979   -0.6279 C   0  0  0  0  0  0  0  0  0  0  0  0
    0.0864    2.3402   -1.2331 C   0  0  0  0  0  0  0  0  0  0  0  0
    0.7728    1.0267   -1.2810 C   0  0  0  0  0  0  0  0  0  0  0  0
    0.1965   -0.0158   -0.8700 O   0  0  0  0  0  0  0  0  0  0  0  0
    2.1517    0.9741   -1.8189 C   0  0  0  0  0  0  0  0  0  0  0  0
    3.0126   -0.1289   -1.7821 C   0  0  0  0  0  0  0  0  0  0  0  0
    2.7252   -1.5215   -1.2980 C   0  0  0  0  0  0  0  0  0  0  0  0
    1.9792   -2.3247   -2.3602 C   0  0  0  0  0  0  0  0  0  0  0  0
    4.4842    0.3367   -2.4484 S   0  0  0  0  0  0  0  0  0  0  0  0
    4.0591    1.9210   -2.8110 C   0  0  0  0  0  0  0  0  0  0  0  0
    5.0287    2.9436   -3.3314 C   0  0  0  0  0  0  0  0  0  0  0  0
    5.5304    3.8403   -2.2018 C   0  0  0  0  0  0  0  0  0  0  0  0
    2.7341    2.1195   -2.4005 C   0  0  0  0  0  0  0  0  0  0  0  0
    1.9614    3.3793   -2.5250 C   0  0  0  0  0  0  0  0  0  0  0  0
    2.3782    4.3247   -3.2447 O   0  0  0  0  0  0  0  0  0  0  0  0
    0.6671    3.4812   -1.8152 C   0  0  0  0  0  0  0  0  0  0  0  0
   -1.9281    1.6497    0.1667 C   0  0  0  0  0  0  0  0  0  0  0  0
   -1.6734    1.3370    1.5094 C   0  0  0  0  0  0  0  0  0  0  0  0
   -0.8265    2.1102    2.3747 N   0  0  0  0  0  0  0  0  0  0  0  0
   -1.4320    3.0422    3.2924 C   0  0  0  0  0  0  0  0  0  0  0  0
   -0.8780    3.2445    4.5705 C   0  0  0  0  0  0  0  0  0  0  0  0
   -1.4557    4.1584    5.4561 C   0  0  0  0  0  0  0  0  0  0  0  0
   -2.6006    4.8707    5.0795 C   0  0  0  0  0  0  0  0  0  0  0  0
   -3.3482    6.0367    6.2183 S   0  0  0  0  0  0  0  0  0  0  0  0
   -4.4362    4.7874    6.9713 C   0  0  0  0  0  0  0  0  0  0  0  0
   -3.1510    4.6837    3.8074 C   0  0  0  0  0  0  0  0  0  0  0  0
   -2.5773    3.7700    2.9233 C   0  0  0  0  0  0  0  0  0  0  0  0
    0.6048    2.0371    2.2172 C   0  0  0  0  0  0  0  0  0  0  0  0
    1.3869    3.2067    2.2454 C   0  0  0  0  0  0  0  0  0  0  0  0
    2.7688    3.1383    2.0560 C   0  0  0  0  0  0  0  0  0  0  0  0
    3.3832    1.9052    1.8219 C   0  0  0  0  0  0  0  0  0  0  0  0
    5.1497    1.8321    1.5400 S   0  0  0  0  0  0  0  0  0  0  0  0
    5.5330    1.4719    3.2823 C   0  0  0  0  0  0  0  0  0  0  0  0
    2.6177    0.7363    1.7959 C   0  0  0  0  0  0  0  0  0  0  0  0
    1.2367    0.8002    1.9995 C   0  0  0  0  0  0  0  0  0  0  0  0
   -2.3155    0.1635    1.8884 C   0  0  0  0  0  0  0  0  0  0  0  0
   -2.1846   -0.8684    3.2039 S   0  0  0  0  0  0  0  0  0  0  0  0
   -3.1015   -2.1249    2.4863 C   0  0  0  0  0  0  0  0  0  0  0  0
   -3.5196   -1.7000    1.2087 C   0  0  0  0  0  0  0  0  0  0  0  0
   -4.4311   -2.4060    0.3498 N   0  0  0  0  0  0  0  0  0  0  0  0
   -5.8613   -2.2414    0.5375 C   0  0  0  0  0  0  0  0  0  0  0  0
   -6.7768   -3.0566   -0.1623 C   0  0  0  0  0  0  0  0  0  0  0  0
   -8.1551   -2.8477   -0.0404 C   0  0  0  0  0  0  0  0  0  0  0  0
   -8.6433   -1.8329    0.7877 C   0  0  0  0  0  0  0  0  0  0  0  0
  -10.4082   -1.5381    0.9190 S   0  0  0  0  0  0  0  0  0  0  0  0
  -10.3967   -0.2090   -0.3274 C   0  0  0  0  0  0  0  0  0  0  0  0
   -7.7513   -1.0514    1.5250 C   0  0  0  0  0  0  0  0  0  0  0  0
   -6.3738   -1.2440    1.3959 C   0  0  0  0  0  0  0  0  0  0  0  0
   -3.9136   -2.9459   -0.8793 C   0  0  0  0  0  0  0  0  0  0  0  0
   -3.0245   -4.0297   -0.8587 C   0  0  0  0  0  0  0  0  0  0  0  0
   -2.5884   -4.6066   -2.0540 C   0  0  0  0  0  0  0  0  0  0  0  0
   -3.0112   -4.0823   -3.2799 C   0  0  0  0  0  0  0  0  0  0  0  0
   -2.4998   -4.8607   -4.8114 S   0  0  0  0  0  0  0  0  0  0  0  0
   -4.0360   -5.8247   -4.9728 C   0  0  0  0  0  0  0  0  0  0  0  0
   -3.8493   -2.9623   -3.3086 C   0  0  0  0  0  0  0  0  0  0  0  0
   -4.3088   -2.4014   -2.1142 C   0  0  0  0  0  0  0  0  0  0  0  0
   -3.0428   -0.4284    0.9105 C   0  0  0  0  0  0  0  0  0  0  0  0
   -2.9467    0.4620   -0.5084 S   0  0  0  0  0  0  0  0  0  0  0  0
   -3.0519   -3.5372    2.9179 C   0  0  0  0  0  0  0  0  0  0  0  0
   -1.8885   -4.2056    3.0148 C   0  0  0  0  0  0  0  0  0  0  0  0
   -2.0605   -5.5660    2.5882 C   0  0  0  0  0  0  0  0  0  0  0  0
   -3.4860   -5.7118    2.3785 C   0  0  0  0  0  0  0  0  0  0  0  0
   -4.0835   -6.7561    2.0038 O   0  0  0  0  0  0  0  0  0  0  0  0
   -4.1198   -4.4565    2.6224 N   0  0  0  0  0  0  0  0  0  0  0  0
   -5.4695   -4.3305    3.1502 C   0  0  0  0  0  0  0  0  0  0  0  0
   -1.0169   -5.9691    1.8489 C   0  0  0  0  0  0  0  0  0  0  0  0
    0.0008   -4.9422    1.8239 N   0  0  0  0  0  0  0  0  0  0  0  0
    0.9649   -4.7302    0.7402 C   0  0  0  0  0  0  0  0  0  0  0  0
   -0.5570   -3.8556    2.5572 C   0  0  0  0  0  0  0  0  0  0  0  0
    0.0550   -2.7867    2.8075 O   0  0  0  0  0  0  0  0  0  0  0  0
   -1.1136   -7.0142    0.8095 C   0  0  0  0  0  0  0  0  0  0  0  0
   -0.1215   -7.8870    0.5523 C   0  0  0  0  0  0  0  0  0  0  0  0
    1.1146   -8.0240    1.3349 C   0  0  0  0  0  0  0  0  0  0  0  0
    1.2729   -7.6896    2.5393 O   0  0  0  0  0  0  0  0  0  0  0  0
    2.1488   -8.5579    0.4728 C   0  0  0  0  0  0  0  0  0  0  0  0
    3.5355   -8.6236    0.7466 C   0  0  0  0  0  0  0  0  0  0  0  0
    4.3087   -8.9653   -0.3469 C   0  0  0  0  0  0  0  0  0  0  0  0
    3.7599   -9.2339   -1.6415 C   0  0  0  0  0  0  0  0  0  0  0  0
    2.3998   -9.1853   -1.9136 C   0  0  0  0  0  0  0  0  0  0  0  0
    1.5821   -8.8522   -0.7956 C   0  0  0  0  0  0  0  0  0  0  0  0
    0.1135   -8.5923   -0.7430 C   0  0  0  0  0  0  0  0  0  0  0  0
   -0.8261   -9.0660   -1.5992 C   0  0  0  0  0  0  0  0  0  0  0  0
   -0.4812   -9.8481   -2.7587 C   0  0  0  0  0  0  0  0  0  0  0  0
   -0.2199  -10.4781   -3.6949 N   0  0  0  0  0  0  0  0  0  0  0  0
   -2.2348   -8.9428   -1.3348 C   0  0  0  0  0  0  0  0  0  0  0  0
   -3.3686   -8.8506   -1.1263 N   0  0  0  0  0  0  0  0  0  0  0  0
    5.1385   -9.4190   -2.2066 C   0  0  0  0  0  0  0  0  0  0  0  0
    5.6154  -10.8673   -2.5297 C   0  0  0  0  0  0  0  0  0  0  0  0
    4.9522  -11.8492   -1.5919 C   0  0  0  0  0  0  0  0  0  0  0  0
    5.4530  -11.6137   -0.3789 C   0  0  0  0  0  0  0  0  0  0  0  0
    6.4425  -10.4814   -0.5304 C   0  0  0  0  0  0  0  0  0  0  0  0
    6.9967  -10.8327   -1.8986 C   0  0  0  0  0  0  0  0  0  0  0  0
    5.6994   -9.1585   -0.8760 C   0  0  0  0  0  0  0  0  0  0  0  0
   -0.6180    6.4709   -2.7131 H   0  0  0  0  0  0  0  0  0  0  0  0
    4.4588    6.8330    0.9989 H   0  0  0  0  0  0  0  0  0  0  0  0
    3.0239   10.6669   -2.0491 H   0  0  0  0  0  0  0  0  0  0  0  0
    6.1380   11.2265   -0.5908 H   0  0  0  0  0  0  0  0  0  0  0  0
    4.1439   12.6975    0.6639 H   0  0  0  0  0  0  0  0  0  0  0  0
    6.3913   13.4287    1.8789 H   0  0  0  0  0  0  0  0  0  0  0  0
    7.1677   11.4730    3.4226 H   0  0  0  0  0  0  0  0  0  0  0  0
    5.4005    9.4919    3.2032 H   0  0  0  0  0  0  0  0  0  0  0  0
    3.3020   10.4462    1.8473 H   0  0  0  0  0  0  0  0  0  0  0  0
    3.8430   11.6465    3.0907 H   0  0  0  0  0  0  0  0  0  0  0  0
    6.8319    9.4269    0.8225 H   0  0  0  0  0  0  0  0  0  0  0  0
    3.6856   -2.0300   -1.0683 H   0  0  0  0  0  0  0  0  0  0  0  0
    2.1391   -1.4956   -0.3542 H   0  0  0  0  0  0  0  0  0  0  0  0
    1.9305   -3.3902   -2.0527 H   0  0  0  0  0  0  0  0  0  0  0  0
    2.4965   -2.2582   -3.3373 H   0  0  0  0  0  0  0  0  0  0  0  0
    0.9436   -1.9423   -2.4770 H   0  0  0  0  0  0  0  0  0  0  0  0
    4.5554    3.5539   -4.1265 H   0  0  0  0  0  0  0  0  0  0  0  0
    5.8957    2.4240   -3.7911 H   0  0  0  0  0  0  0  0  0  0  0  0
    4.6878    4.3957   -1.7368 H   0  0  0  0  0  0  0  0  0  0  0  0
    6.0423    3.2310   -1.4214 H   0  0  0  0  0  0  0  0  0  0  0  0
    6.2535    4.5763   -2.6123 H   0  0  0  0  0  0  0  0  0  0  0  0
   -0.0015    2.6870    4.8803 H   0  0  0  0  0  0  0  0  0  0  0  0
   -1.0192    4.3099    6.4345 H   0  0  0  0  0  0  0  0  0  0  0  0
   -5.1411    4.3924    6.2109 H   0  0  0  0  0  0  0  0  0  0  0  0
   -3.8366    3.9526    7.3911 H   0  0  0  0  0  0  0  0  0  0  0  0
   -5.0184    5.2534    7.7926 H   0  0  0  0  0  0  0  0  0  0  0  0
   -4.0289    5.2418    3.5058 H   0  0  0  0  0  0  0  0  0  0  0  0
   -3.0179    3.6407    1.9435 H   0  0  0  0  0  0  0  0  0  0  0  0
    0.9229    4.1738    2.3968 H   0  0  0  0  0  0  0  0  0  0  0  0
    3.3632    4.0456    2.0834 H   0  0  0  0  0  0  0  0  0  0  0  0
    6.6322    1.4791    3.4248 H   0  0  0  0  0  0  0  0  0  0  0  0
    5.0802    2.2379    3.9445 H   0  0  0  0  0  0  0  0  0  0  0  0
    5.1392    0.4682    3.5480 H   0  0  0  0  0  0  0  0  0  0  0  0
    3.0925   -0.2193    1.6191 H   0  0  0  0  0  0  0  0  0  0  0  0
    0.6591   -0.1144    1.9785 H   0  0  0  0  0  0  0  0  0  0  0  0
   -6.4273   -3.8470   -0.8153 H   0  0  0  0  0  0  0  0  0  0  0  0
   -8.8421   -3.4665   -0.6002 H   0  0  0  0  0  0  0  0  0  0  0  0
  -10.0601   -0.6083   -1.3068 H   0  0  0  0  0  0  0  0  0  0  0  0
  -11.4220    0.1998   -0.4327 H   0  0  0  0  0  0  0  0  0  0  0  0
   -9.7178    0.6068    0.0003 H   0  0  0  0  0  0  0  0  0  0  0  0
   -8.1260   -0.2744    2.1827 H   0  0  0  0  0  0  0  0  0  0  0  0
   -5.7161   -0.6001    1.9628 H   0  0  0  0  0  0  0  0  0  0  0  0
   -2.6948   -4.4412    0.0795 H   0  0  0  0  0  0  0  0  0  0  0  0
   -1.9320   -5.4668   -2.0265 H   0  0  0  0  0  0  0  0  0  0  0  0
   -4.2787   -6.3473   -4.0234 H   0  0  0  0  0  0  0  0  0  0  0  0
   -3.9104   -6.5794   -5.7748 H   0  0  0  0  0  0  0  0  0  0  0  0
   -4.8739   -5.1496   -5.2484 H   0  0  0  0  0  0  0  0  0  0  0  0
   -4.1688   -2.5440   -4.2538 H   0  0  0  0  0  0  0  0  0  0  0  0
   -4.9782   -1.5506   -2.1442 H   0  0  0  0  0  0  0  0  0  0  0  0
   -6.1960   -4.7959    2.4517 H   0  0  0  0  0  0  0  0  0  0  0  0
   -5.7348   -3.2603    3.2922 H   0  0  0  0  0  0  0  0  0  0  0  0
   -5.5320   -4.8439    4.1344 H   0  0  0  0  0  0  0  0  0  0  0  0
    0.4264   -4.6055   -0.2222 H   0  0  0  0  0  0  0  0  0  0  0  0
    1.6667   -5.5811    0.6676 H   0  0  0  0  0  0  0  0  0  0  0  0
    1.5678   -3.8207    0.9349 H   0  0  0  0  0  0  0  0  0  0  0  0
   -1.9533   -6.9311    0.1408 H   0  0  0  0  0  0  0  0  0  0  0  0
    3.9619   -8.3649    1.7071 H   0  0  0  0  0  0  0  0  0  0  0  0
    2.0318   -9.3231   -2.9171 H   0  0  0  0  0  0  0  0  0  0  0  0
    5.4183   -8.6545   -2.9655 H   0  0  0  0  0  0  0  0  0  0  0  0
    5.5923  -11.1464   -3.6051 H   0  0  0  0  0  0  0  0  0  0  0  0
    4.2745  -12.6519   -1.8547 H   0  0  0  0  0  0  0  0  0  0  0  0
    5.2523  -12.1923    0.5153 H   0  0  0  0  0  0  0  0  0  0  0  0
    7.2010  -10.4064    0.2782 H   0  0  0  0  0  0  0  0  0  0  0  0
    7.5207  -11.8179   -1.9287 H   0  0  0  0  0  0  0  0  0  0  0  0
    7.6598  -10.0427   -2.3275 H   0  0  0  0  0  0  0  0  0  0  0  0
    6.3288   -8.2413   -0.8340 H   0  0  0  0  0  0  0  0  0  0  0  0
  1  2  2  3
  2  3  1  0
  3  4  2  0
  3  5  1  0
  5  6  2  0
  6  7  1  0
  7  8  2  0
  8  9  1  0
  9 10  2  0
 10 11  1  0
 11 12  2  3
 12 13  1  0
 13 14  3  0
 12 15  1  0
 15 16  3  0
  8 17  1  0
 17 18  1  0
 18 19  1  0
 19 20  2  0
 20 21  1  0
 21 22  1  0
 21 23  1  0
  1 24  1  0
 24 25  1  0
 25 26  1  0
 26 27  2  0
 27 28  1  0
 28 29  2  0
 28 30  1  0
 30 31  2  0
 31 32  1  0
 32 33  1  0
 31 34  1  0
 34 35  1  0
 35 36  1  0
 36 37  1  0
 35 38  2  0
 38 39  1  0
 39 40  2  0
 39 41  1  0
 26 42  1  0
 42 43  2  0
 43 44  1  0
 44 45  1  0
 45 46  2  0
 46 47  1  0
 47 48  2  0
 48 49  1  0
 49 50  1  0
 48 51  1  0
 51 52  2  0
 44 53  1  0
 53 54  2  0
 54 55  1  0
 55 56  2  0
 56 57  1  0
 57 58  1  0
 56 59  1  0
 59 60  2  0
 43 61  1  0
 61 62  1  0
 62 63  1  0
 63 64  2  0
 64 65  1  0
 65 66  1  0
 66 67  2  0
 67 68  1  0
 68 69  2  0
 69 70  1  0
 70 71  1  0
 69 72  1  0
 72 73  2  0
 65 74  1  0
 74 75  2  0
 75 76  1  0
 76 77  2  0
 77 78  1  0
 78 79  1  0
 77 80  1  0
 80 81  2  0
 64 82  1  0
 82 83  1  0
 63 84  1  0
 84 85  2  0
 85 86  1  0
 86 87  1  0
 87 88  2  0
 87 89  1  0
 89 90  1  0
 86 91  2  0
 91 92  1  0
 92 93  1  0
 92 94  1  0
 94 95  2  0
 91 96  1  0
 96 97  2  3
 97 98  1  0
 98 99  2  0
 98100  1  0
100101  2  0
101102  1  0
102103  2  0
103104  1  0
104105  2  0
105106  1  0
106107  2  3
107108  1  0
108109  3  0
107110  1  0
110111  3  0
103112  1  0
112113  1  0
113114  1  0
114115  2  0
115116  1  0
116117  1  0
116118  1  0
 11  2  1  0
 23 17  1  0
 41 24  2  0
 83 42  1  0
 89 84  1  0
106 97  1  0
118112  1  0
 10  5  1  0
 22 18  1  0
 41 27  1  0
 52 45  1  0
 60 53  1  0
 82 61  2  0
 94 85  1  0
105100  1  0
117113  1  0
 23  7  1  0
 38 30  1  0
 73 66  1  0
 81 74  1  0
118102  1  0
  1119  1  0
  6120  1  0
  9121  1  0
 17122  1  0
 18123  1  0
 19124  1  0
 20125  1  0
 21126  1  0
 22127  1  0
 22128  1  0
 23129  1  0
 32130  1  0
 32131  1  0
 33132  1  0
 33133  1  0
 33134  1  0
 36135  1  0
 36136  1  0
 37137  1  0
 37138  1  0
 37139  1  0
 46140  1  0
 47141  1  0
 50142  1  0
 50143  1  0
 50144  1  0
 51145  1  0
 52146  1  0
 54147  1  0
 55148  1  0
 58149  1  0
 58150  1  0
 58151  1  0
 59152  1  0
 60153  1  0
 67154  1  0
 68155  1  0
 71156  1  0
 71157  1  0
 71158  1  0
 72159  1  0
 73160  1  0
 75161  1  0
 76162  1  0
 79163  1  0
 79164  1  0
 79165  1  0
 80166  1  0
 81167  1  0
 90168  1  0
 90169  1  0
 90170  1  0
 93171  1  0
 93172  1  0
 93173  1  0
 96174  1  0
101175  1  0
104176  1  0
112177  1  0
113178  1  0
114179  1  0
115180  1  0
116181  1  0
117182  1  0
117183  1  0
118184  1  0
M  END

