
     RDKit          3D

195214  0  0  0  0  0  0  0  0999 V2000
   -0.2982   -5.3502   -5.5532 C   0  0  0  0  0  0  0  0  0  0  0  0
    0.7329   -5.6662   -4.7449 C   0  0  0  0  0  0  0  0  0  0  0  0
    0.9266   -5.1161   -3.3999 C   0  0  0  0  0  0  0  0  0  0  0  0
    0.0392   -4.6658   -2.6283 O   0  0  0  0  0  0  0  0  0  0  0  0
    2.3303   -5.1550   -3.0929 C   0  0  0  0  0  0  0  0  0  0  0  0
    2.9369   -4.7894   -1.8775 C   0  0  0  0  0  0  0  0  0  0  0  0
    4.3047   -4.9768   -1.8613 C   0  0  0  0  0  0  0  0  0  0  0  0
    5.0547   -5.3839   -3.0125 C   0  0  0  0  0  0  0  0  0  0  0  0
    4.4614   -5.7807   -4.1986 C   0  0  0  0  0  0  0  0  0  0  0  0
    3.0415   -5.7074   -4.1952 C   0  0  0  0  0  0  0  0  0  0  0  0
    2.0558   -6.1711   -5.2104 C   0  0  0  0  0  0  0  0  0  0  0  0
    2.2585   -7.0902   -6.1732 C   0  0  0  0  0  0  0  0  0  0  0  0
    3.5660   -7.4737   -6.6178 C   0  0  0  0  0  0  0  0  0  0  0  0
    4.6191   -7.8044   -6.9778 N   0  0  0  0  0  0  0  0  0  0  0  0
    1.1911   -7.9766   -6.5628 C   0  0  0  0  0  0  0  0  0  0  0  0
    0.3816   -8.7625   -6.7553 N   0  0  0  0  0  0  0  0  0  0  0  0
    6.3435   -5.1435   -2.2807 C   0  0  0  0  0  0  0  0  0  0  0  0
    7.0980   -3.8096   -2.5990 C   0  0  0  0  0  0  0  0  0  0  0  0
    8.1449   -3.6835   -1.5194 C   0  0  0  0  0  0  0  0  0  0  0  0
    7.4805   -3.4156   -0.3851 C   0  0  0  0  0  0  0  0  0  0  0  0
    6.0112   -3.3519   -0.7493 C   0  0  0  0  0  0  0  0  0  0  0  0
    6.1401   -2.7211   -2.1275 C   0  0  0  0  0  0  0  0  0  0  0  0
    5.5738   -4.8159   -1.0711 C   0  0  0  0  0  0  0  0  0  0  0  0
   -1.2006   -4.2114   -5.2602 C   0  0  0  0  0  0  0  0  0  0  0  0
   -2.4074   -4.2442   -4.5151 C   0  0  0  0  0  0  0  0  0  0  0  0
   -3.0486   -5.4631   -4.0763 N   0  0  0  0  0  0  0  0  0  0  0  0
   -3.0493   -6.6026   -4.9573 C   0  0  0  0  0  0  0  0  0  0  0  0
   -3.7841   -6.5603   -6.1530 C   0  0  0  0  0  0  0  0  0  0  0  0
   -3.8349   -7.6895   -6.9723 C   0  0  0  0  0  0  0  0  0  0  0  0
   -3.1612   -8.8621   -6.6043 C   0  0  0  0  0  0  0  0  0  0  0  0
   -3.1738  -10.2903   -7.6997 S   0  0  0  0  0  0  0  0  0  0  0  0
   -4.5466  -11.1124   -6.8310 C   0  0  0  0  0  0  0  0  0  0  0  0
   -2.4221   -8.8928   -5.4162 C   0  0  0  0  0  0  0  0  0  0  0  0
   -2.3644   -7.7672   -4.5895 C   0  0  0  0  0  0  0  0  0  0  0  0
   -3.7692   -5.5575   -2.8223 C   0  0  0  0  0  0  0  0  0  0  0  0
   -3.2786   -4.9524   -1.6581 C   0  0  0  0  0  0  0  0  0  0  0  0
   -4.0658   -4.8968   -0.5085 C   0  0  0  0  0  0  0  0  0  0  0  0
   -5.3235   -5.5221   -0.4924 C   0  0  0  0  0  0  0  0  0  0  0  0
   -6.4089   -5.3552    0.9409 S   0  0  0  0  0  0  0  0  0  0  0  0
   -5.5025   -6.5605    1.9596 C   0  0  0  0  0  0  0  0  0  0  0  0
   -5.7656   -6.2260   -1.6129 C   0  0  0  0  0  0  0  0  0  0  0  0
   -5.0023   -6.2279   -2.7855 C   0  0  0  0  0  0  0  0  0  0  0  0
   -2.7885   -2.9364   -4.1517 C   0  0  0  0  0  0  0  0  0  0  0  0
   -3.8792   -2.2677   -3.0631 S   0  0  0  0  0  0  0  0  0  0  0  0
   -3.1681   -0.7203   -2.9977 C   0  0  0  0  0  0  0  0  0  0  0  0
   -2.0971   -0.7148   -3.9167 C   0  0  0  0  0  0  0  0  0  0  0  0
   -1.1893    0.3862   -4.1373 N   0  0  0  0  0  0  0  0  0  0  0  0
   -0.9133    0.8460   -5.4835 C   0  0  0  0  0  0  0  0  0  0  0  0
    0.2335    1.6132   -5.7657 C   0  0  0  0  0  0  0  0  0  0  0  0
    0.4787    2.0897   -7.0585 C   0  0  0  0  0  0  0  0  0  0  0  0
   -0.4061    1.7881   -8.0964 C   0  0  0  0  0  0  0  0  0  0  0  0
   -0.1166    2.4283   -9.7532 S   0  0  0  0  0  0  0  0  0  0  0  0
    1.2574    1.2985  -10.1555 C   0  0  0  0  0  0  0  0  0  0  0  0
   -1.5505    1.0318   -7.8323 C   0  0  0  0  0  0  0  0  0  0  0  0
   -1.8239    0.5900   -6.5327 C   0  0  0  0  0  0  0  0  0  0  0  0
   -0.5639    1.0545   -3.0222 C   0  0  0  0  0  0  0  0  0  0  0  0
    0.5129    0.4528   -2.3533 C   0  0  0  0  0  0  0  0  0  0  0  0
    1.1917    1.1607   -1.3518 C   0  0  0  0  0  0  0  0  0  0  0  0
    0.7993    2.4659   -1.0181 C   0  0  0  0  0  0  0  0  0  0  0  0
    1.6832    3.3860    0.2535 S   0  0  0  0  0  0  0  0  0  0  0  0
    2.3094    4.6862   -0.8750 C   0  0  0  0  0  0  0  0  0  0  0  0
   -0.2839    3.0564   -1.6833 C   0  0  0  0  0  0  0  0  0  0  0  0
   -0.9438    2.3640   -2.6997 C   0  0  0  0  0  0  0  0  0  0  0  0
   -1.9210   -1.9583   -4.5253 C   0  0  0  0  0  0  0  0  0  0  0  0
   -0.6287   -2.6101   -5.3602 S   0  0  0  0  0  0  0  0  0  0  0  0
   -3.0190   -0.0807   -1.6753 C   0  0  0  0  0  0  0  0  0  0  0  0
   -2.2009   -0.7348   -0.7607 C   0  0  0  0  0  0  0  0  0  0  0  0
   -1.6464   -1.9247   -1.0852 F   0  0  0  0  0  0  0  0  0  0  0  0
   -1.8846   -0.1557    0.4500 C   0  0  0  0  0  0  0  0  0  0  0  0
   -1.1298   -0.9472    1.2579 F   0  0  0  0  0  0  0  0  0  0  0  0
   -2.3201    1.1548    0.7959 C   0  0  0  0  0  0  0  0  0  0  0  0
   -3.2223    1.7955   -0.0996 C   0  0  0  0  0  0  0  0  0  0  0  0
   -3.7659    3.0129    0.1812 N   0  0  0  0  0  0  0  0  0  0  0  0
   -4.6671    3.6233   -0.6428 C   0  0  0  0  0  0  0  0  0  0  0  0
   -5.1572    4.9967   -0.2491 C   0  0  0  0  0  0  0  0  0  0  0  0
   -5.8561    4.9704    1.1100 C   0  0  0  0  0  0  0  0  0  0  0  0
   -5.0410    2.9752   -1.8497 C   0  0  0  0  0  0  0  0  0  0  0  0
   -4.4803    1.7656   -2.1428 N   0  0  0  0  0  0  0  0  0  0  0  0
   -3.5887    1.1610   -1.3197 C   0  0  0  0  0  0  0  0  0  0  0  0
   -6.1056    3.5007   -2.7859 C   0  0  0  0  0  0  0  0  0  0  0  0
   -7.4945    3.2962   -2.1821 C   0  0  0  0  0  0  0  0  0  0  0  0
   -1.8251    1.7743    2.0837 C   0  0  0  0  0  0  0  0  0  0  0  0
   -0.8571    1.1983    2.8846 C   0  0  0  0  0  0  0  0  0  0  0  0
   -0.5682    1.8610    4.0547 C   0  0  0  0  0  0  0  0  0  0  0  0
    0.3795    1.4049    4.9858 C   0  0  0  0  0  0  0  0  0  0  0  0
    0.7754   -0.0319    5.0269 C   0  0  0  0  0  0  0  0  0  0  0  0
    2.0592   -0.5362    4.8681 C   0  0  0  0  0  0  0  0  0  0  0  0
    2.0803   -1.9149    4.6860 C   0  0  0  0  0  0  0  0  0  0  0  0
    3.2307   -2.6165    4.5294 F   0  0  0  0  0  0  0  0  0  0  0  0
    0.8276   -2.5097    4.7084 C   0  0  0  0  0  0  0  0  0  0  0  0
    0.4497   -4.2470    4.4322 S   0  0  0  0  0  0  0  0  0  0  0  0
   -0.0009   -4.0623    2.6623 C   0  0  0  0  0  0  0  0  0  0  0  0
    1.2345   -4.0649    1.7602 C   0  0  0  0  0  0  0  0  0  0  0  0
   -0.3291   -1.3172    4.9648 S   0  0  0  0  0  0  0  0  0  0  0  0
    1.0164    2.3979    5.7300 C   0  0  0  0  0  0  0  0  0  0  0  0
    0.6553    3.7443    5.6525 C   0  0  0  0  0  0  0  0  0  0  0  0
   -0.4805    4.1472    4.8907 C   0  0  0  0  0  0  0  0  0  0  0  0
   -0.8472    5.5832    4.8189 C   0  0  0  0  0  0  0  0  0  0  0  0
   -0.2230    6.6037    3.6311 S   0  0  0  0  0  0  0  0  0  0  0  0
   -0.2404    8.0129    4.5426 C   0  0  0  0  0  0  0  0  0  0  0  0
    0.6594    9.5096    4.1271 S   0  0  0  0  0  0  0  0  0  0  0  0
   -0.4720   10.0445    2.7779 C   0  0  0  0  0  0  0  0  0  0  0  0
    0.0401    9.5334    1.4246 C   0  0  0  0  0  0  0  0  0  0  0  0
   -0.6341    7.6716    5.8319 C   0  0  0  0  0  0  0  0  0  0  0  0
   -0.9860    6.3320    5.9825 C   0  0  0  0  0  0  0  0  0  0  0  0
   -0.4495    8.4918    6.8941 F   0  0  0  0  0  0  0  0  0  0  0  0
   -1.0849    3.1522    4.0878 C   0  0  0  0  0  0  0  0  0  0  0  0
   -2.1218    3.3271    2.7543 S   0  0  0  0  0  0  0  0  0  0  0  0
    1.5985    4.5813    6.2811 C   0  0  0  0  0  0  0  0  0  0  0  0
    2.6876    3.8955    6.8225 C   0  0  0  0  0  0  0  0  0  0  0  0
    2.4316    2.2586    6.5977 S   0  0  0  0  0  0  0  0  0  0  0  0
    3.8567    4.5582    7.4509 C   0  0  0  0  0  0  0  0  0  0  0  0
    5.0040    3.9603    7.8460 C   0  0  0  0  0  0  0  0  0  0  0  0
    5.3647    2.5290    7.7824 C   0  0  0  0  0  0  0  0  0  0  0  0
    5.2166    1.7576    6.7960 O   0  0  0  0  0  0  0  0  0  0  0  0
    6.1853    2.2117    8.9267 C   0  0  0  0  0  0  0  0  0  0  0  0
    6.5106    0.9624    9.4414 C   0  0  0  0  0  0  0  0  0  0  0  0
    7.1683    0.9110   10.6782 C   0  0  0  0  0  0  0  0  0  0  0  0
    7.4720    2.0947   11.3673 C   0  0  0  0  0  0  0  0  0  0  0  0
    8.0858    2.0456   12.5748 F   0  0  0  0  0  0  0  0  0  0  0  0
    7.1807    3.3427   10.8051 C   0  0  0  0  0  0  0  0  0  0  0  0
    6.5226    3.3837    9.5684 C   0  0  0  0  0  0  0  0  0  0  0  0
    5.9552    4.5443    8.8432 C   0  0  0  0  0  0  0  0  0  0  0  0
    6.4679    5.8042    8.8272 C   0  0  0  0  0  0  0  0  0  0  0  0
    7.6055    6.1695    9.6224 C   0  0  0  0  0  0  0  0  0  0  0  0
    8.5344    6.4456   10.2679 N   0  0  0  0  0  0  0  0  0  0  0  0
    5.9886    6.8228    7.9340 C   0  0  0  0  0  0  0  0  0  0  0  0
    5.5958    7.6614    7.2457 N   0  0  0  0  0  0  0  0  0  0  0  0
   -0.3008   -5.6941   -6.5838 H   0  0  0  0  0  0  0  0  0  0  0  0
    2.3862   -4.3502   -1.0498 H   0  0  0  0  0  0  0  0  0  0  0  0
    5.0575   -6.1376   -5.0253 H   0  0  0  0  0  0  0  0  0  0  0  0
    6.9835   -6.0531   -2.2026 H   0  0  0  0  0  0  0  0  0  0  0  0
    7.4698   -3.7064   -3.6378 H   0  0  0  0  0  0  0  0  0  0  0  0
    9.2117   -3.7748   -1.6287 H   0  0  0  0  0  0  0  0  0  0  0  0
    7.9259   -3.2528    0.5952 H   0  0  0  0  0  0  0  0  0  0  0  0
    5.3644   -2.8155   -0.0202 H   0  0  0  0  0  0  0  0  0  0  0  0
    5.1918   -2.6578   -2.6982 H   0  0  0  0  0  0  0  0  0  0  0  0
    6.5920   -1.7037   -2.1005 H   0  0  0  0  0  0  0  0  0  0  0  0
    5.6665   -5.5503   -0.2437 H   0  0  0  0  0  0  0  0  0  0  0  0
   -4.3313   -5.6649   -6.4198 H   0  0  0  0  0  0  0  0  0  0  0  0
   -4.3943   -7.6534   -7.8951 H   0  0  0  0  0  0  0  0  0  0  0  0
   -4.8177  -12.0347   -7.3817 H   0  0  0  0  0  0  0  0  0  0  0  0
   -5.4368  -10.4524   -6.7852 H   0  0  0  0  0  0  0  0  0  0  0  0
   -4.2315  -11.3945   -5.8023 H   0  0  0  0  0  0  0  0  0  0  0  0
   -1.8793   -9.7847   -5.1345 H   0  0  0  0  0  0  0  0  0  0  0  0
   -1.7871   -7.7908   -3.6738 H   0  0  0  0  0  0  0  0  0  0  0  0
   -2.3241   -4.4501   -1.6661 H   0  0  0  0  0  0  0  0  0  0  0  0
   -3.7163   -4.3415    0.3431 H   0  0  0  0  0  0  0  0  0  0  0  0
   -5.2546   -7.4840    1.3840 H   0  0  0  0  0  0  0  0  0  0  0  0
   -4.5634   -6.0928    2.3421 H   0  0  0  0  0  0  0  0  0  0  0  0
   -6.1370   -6.8383    2.8299 H   0  0  0  0  0  0  0  0  0  0  0  0
   -6.7332   -6.7205   -1.5973 H   0  0  0  0  0  0  0  0  0  0  0  0
   -5.4111   -6.7178   -3.6630 H   0  0  0  0  0  0  0  0  0  0  0  0
    0.9589    1.8359   -4.9884 H   0  0  0  0  0  0  0  0  0  0  0  0
    1.3594    2.6831   -7.2516 H   0  0  0  0  0  0  0  0  0  0  0  0
    1.2266    0.3565   -9.5617 H   0  0  0  0  0  0  0  0  0  0  0  0
    1.2131    1.0396  -11.2368 H   0  0  0  0  0  0  0  0  0  0  0  0
    2.2164    1.8177   -9.9611 H   0  0  0  0  0  0  0  0  0  0  0  0
   -2.2525    0.8099   -8.6253 H   0  0  0  0  0  0  0  0  0  0  0  0
   -2.7430    0.0469   -6.3545 H   0  0  0  0  0  0  0  0  0  0  0  0
    0.8497   -0.5366   -2.6247 H   0  0  0  0  0  0  0  0  0  0  0  0
    2.0366    0.7074   -0.8346 H   0  0  0  0  0  0  0  0  0  0  0  0
    3.3439    4.9555   -0.5888 H   0  0  0  0  0  0  0  0  0  0  0  0
    1.6658    5.5885   -0.7659 H   0  0  0  0  0  0  0  0  0  0  0  0
    2.3089    4.3629   -1.9402 H   0  0  0  0  0  0  0  0  0  0  0  0
   -0.5945    4.0659   -1.4351 H   0  0  0  0  0  0  0  0  0  0  0  0
   -1.7615    2.8339   -3.2220 H   0  0  0  0  0  0  0  0  0  0  0  0
   -5.8647    5.4155   -0.9911 H   0  0  0  0  0  0  0  0  0  0  0  0
   -4.2781    5.6728   -0.1996 H   0  0  0  0  0  0  0  0  0  0  0  0
   -5.1635    4.5606    1.8788 H   0  0  0  0  0  0  0  0  0  0  0  0
   -6.7721    4.3433    1.0620 H   0  0  0  0  0  0  0  0  0  0  0  0
   -6.1003    6.0020    1.3917 H   0  0  0  0  0  0  0  0  0  0  0  0
   -5.9137    4.5619   -3.0235 H   0  0  0  0  0  0  0  0  0  0  0  0
   -6.0503    2.9337   -3.7366 H   0  0  0  0  0  0  0  0  0  0  0  0
   -7.6080    3.8037   -1.2019 H   0  0  0  0  0  0  0  0  0  0  0  0
   -7.6669    2.2108   -2.0236 H   0  0  0  0  0  0  0  0  0  0  0  0
   -8.2682    3.7043   -2.8653 H   0  0  0  0  0  0  0  0  0  0  0  0
   -0.0827    0.5354    2.5036 H   0  0  0  0  0  0  0  0  0  0  0  0
    2.9536    0.0682    4.8260 H   0  0  0  0  0  0  0  0  0  0  0  0
   -0.5763   -3.1304    2.5052 H   0  0  0  0  0  0  0  0  0  0  0  0
   -0.6451   -4.9211    2.3726 H   0  0  0  0  0  0  0  0  0  0  0  0
    1.9977   -3.3575    2.1189 H   0  0  0  0  0  0  0  0  0  0  0  0
    1.6733   -5.0834    1.7329 H   0  0  0  0  0  0  0  0  0  0  0  0
    0.9365   -3.7978    0.7218 H   0  0  0  0  0  0  0  0  0  0  0  0
   -1.5213    9.7066    2.9458 H   0  0  0  0  0  0  0  0  0  0  0  0
   -0.4791   11.1449    2.7475 H   0  0  0  0  0  0  0  0  0  0  0  0
   -0.1549    8.4440    1.3143 H   0  0  0  0  0  0  0  0  0  0  0  0
    1.1351    9.7139    1.3504 H   0  0  0  0  0  0  0  0  0  0  0  0
   -0.4731   10.0830    0.6022 H   0  0  0  0  0  0  0  0  0  0  0  0
   -1.1545    5.8818    6.9555 H   0  0  0  0  0  0  0  0  0  0  0  0
    1.5620    5.6604    6.2799 H   0  0  0  0  0  0  0  0  0  0  0  0
    3.7161    5.6087    7.6726 H   0  0  0  0  0  0  0  0  0  0  0  0
    6.1949    0.0513    8.9412 H   0  0  0  0  0  0  0  0  0  0  0  0
    7.4074   -0.0476   11.1168 H   0  0  0  0  0  0  0  0  0  0  0  0
    7.4092    4.2471   11.3484 H   0  0  0  0  0  0  0  0  0  0  0  0
  1  2  2  3
  2  3  1  0
  3  4  2  0
  3  5  1  0
  5  6  2  0
  6  7  1  0
  7  8  2  0
  8  9  1  0
  9 10  2  0
 10 11  1  0
 11 12  2  3
 12 13  1  0
 13 14  3  0
 12 15  1  0
 15 16  3  0
  8 17  1  0
 17 18  1  0
 18 19  1  0
 19 20  2  0
 20 21  1  0
 21 22  1  0
 21 23  1  0
  1 24  1  0
 24 25  2  0
 25 26  1  0
 26 27  1  0
 27 28  2  0
 28 29  1  0
 29 30  2  0
 30 31  1  0
 31 32  1  0
 30 33  1  0
 33 34  2  0
 26 35  1  0
 35 36  2  0
 36 37  1  0
 37 38  2  0
 38 39  1  0
 39 40  1  0
 38 41  1  0
 41 42  2  0
 25 43  1  0
 43 44  1  0
 44 45  1  0
 45 46  2  0
 46 47  1  0
 47 48  1  0
 48 49  2  0
 49 50  1  0
 50 51  2  0
 51 52  1  0
 52 53  1  0
 51 54  1  0
 54 55  2  0
 47 56  1  0
 56 57  2  0
 57 58  1  0
 58 59  2  0
 59 60  1  0
 60 61  1  0
 59 62  1  0
 62 63  2  0
 46 64  1  0
 64 65  1  0
 45 66  1  0
 66 67  2  0
 67 68  1  0
 67 69  1  0
 69 70  1  0
 69 71  2  0
 71 72  1  0
 72 73  2  0
 73 74  1  0
 74 75  1  0
 75 76  1  0
 74 77  2  0
 77 78  1  0
 78 79  2  0
 77 80  1  0
 80 81  1  0
 71 82  1  0
 82 83  2  0
 83 84  1  0
 84 85  2  0
 85 86  1  0
 86 87  2  0
 87 88  1  0
 88 89  1  0
 88 90  2  0
 90 91  1  0
 91 92  1  0
 92 93  1  0
 90 94  1  0
 85 95  1  0
 95 96  2  0
 96 97  1  0
 97 98  1  0
 98 99  1  0
 99100  1  0
100101  1  0
101102  1  0
102103  1  0
100104  2  0
104105  1  0
104106  1  0
 97107  2  0
107108  1  0
 96109  1  0
109110  2  0
110111  1  0
110112  1  0
112113  2  3
113114  1  0
114115  2  0
114116  1  0
116117  2  0
117118  1  0
118119  2  0
119120  1  0
119121  1  0
121122  2  0
122123  1  0
123124  2  3
124125  1  0
125126  3  0
124127  1  0
127128  3  0
 11  2  1  0
 23 17  1  0
 65 24  1  0
 79 66  1  0
108 82  1  0
123113  1  0
 10  5  1  0
 22 18  1  0
 34 27  1  0
 42 35  1  0
 64 43  2  0
 79 72  1  0
107 84  1  0
122116  1  0
 23  7  1  0
 55 48  1  0
 63 56  1  0
 94 86  1  0
111 95  1  0
105 98  2  0
  1129  1  0
  6130  1  0
  9131  1  0
 17132  1  0
 18133  1  0
 19134  1  0
 20135  1  0
 21136  1  0
 22137  1  0
 22138  1  0
 23139  1  0
 28140  1  0
 29141  1  0
 32142  1  0
 32143  1  0
 32144  1  0
 33145  1  0
 34146  1  0
 36147  1  0
 37148  1  0
 40149  1  0
 40150  1  0
 40151  1  0
 41152  1  0
 42153  1  0
 49154  1  0
 50155  1  0
 53156  1  0
 53157  1  0
 53158  1  0
 54159  1  0
 55160  1  0
 57161  1  0
 58162  1  0
 61163  1  0
 61164  1  0
 61165  1  0
 62166  1  0
 63167  1  0
 75168  1  0
 75169  1  0
 76170  1  0
 76171  1  0
 76172  1  0
 80173  1  0
 80174  1  0
 81175  1  0
 81176  1  0
 81177  1  0
 83178  1  0
 87179  1  0
 92180  1  0
 92181  1  0
 93182  1  0
 93183  1  0
 93184  1  0
102185  1  0
102186  1  0
103187  1  0
103188  1  0
103189  1  0
105190  1  0
109191  1  0
112192  1  0
117193  1  0
118194  1  0
121195  1  0
M  END

