
     RDKit          3D

261285  0  0  0  0  0  0  0  0999 V2000
    7.9148    0.6720   -4.7708 C   0  0  0  0  0  0  0  0  0  0  0  0
    8.4366    1.2187   -3.6513 C   0  0  0  0  0  0  0  0  0  0  0  0
    9.4093    0.4726   -2.8394 C   0  0  0  0  0  0  0  0  0  0  0  0
   10.3141   -0.2791   -3.2864 O   0  0  0  0  0  0  0  0  0  0  0  0
    9.0541    0.6185   -1.4345 C   0  0  0  0  0  0  0  0  0  0  0  0
    9.5644   -0.1145   -0.3375 C   0  0  0  0  0  0  0  0  0  0  0  0
    8.8841    0.1069    0.8513 C   0  0  0  0  0  0  0  0  0  0  0  0
    7.7608    0.9916    0.9602 C   0  0  0  0  0  0  0  0  0  0  0  0
    7.2538    1.7060   -0.1130 C   0  0  0  0  0  0  0  0  0  0  0  0
    7.9518    1.5025   -1.3328 C   0  0  0  0  0  0  0  0  0  0  0  0
    7.6543    2.0329   -2.6818 C   0  0  0  0  0  0  0  0  0  0  0  0
    7.1181    3.2375   -2.9688 C   0  0  0  0  0  0  0  0  0  0  0  0
    6.4538    4.0456   -1.9795 C   0  0  0  0  0  0  0  0  0  0  0  0
    5.9084    4.6987   -1.1919 N   0  0  0  0  0  0  0  0  0  0  0  0
    7.3133    3.8335   -4.2709 C   0  0  0  0  0  0  0  0  0  0  0  0
    7.4636    4.3142   -5.3113 N   0  0  0  0  0  0  0  0  0  0  0  0
    7.5907    0.6343    2.4074 C   0  0  0  0  0  0  0  0  0  0  0  0
    8.0379    1.6652    3.4828 C   0  0  0  0  0  0  0  0  0  0  0  0
    9.1956    2.4877    2.9650 C   0  0  0  0  0  0  0  0  0  0  0  0
   10.2403    1.6645    2.8718 C   0  0  0  0  0  0  0  0  0  0  0  0
    9.7567    0.3056    3.3256 C   0  0  0  0  0  0  0  0  0  0  0  0
    8.7934    0.7409    4.4179 C   0  0  0  0  0  0  0  0  0  0  0  0
    8.7407   -0.2732    2.2946 C   0  0  0  0  0  0  0  0  0  0  0  0
    6.4907    0.2837   -4.7533 C   0  0  0  0  0  0  0  0  0  0  0  0
    5.3749    1.0739   -5.1180 C   0  0  0  0  0  0  0  0  0  0  0  0
    5.3698    1.9984   -6.2307 N   0  0  0  0  0  0  0  0  0  0  0  0
    4.3994    3.0774   -6.2665 C   0  0  0  0  0  0  0  0  0  0  0  0
    4.1205    3.8248   -5.1065 C   0  0  0  0  0  0  0  0  0  0  0  0
    3.0926    4.7700   -5.1003 C   0  0  0  0  0  0  0  0  0  0  0  0
    2.3261    4.9819   -6.2492 C   0  0  0  0  0  0  0  0  0  0  0  0
    0.9425    6.1140   -6.2075 S   0  0  0  0  0  0  0  0  0  0  0  0
   -0.2261    4.8486   -5.6040 C   0  0  0  0  0  0  0  0  0  0  0  0
    2.5937    4.2473   -7.4114 C   0  0  0  0  0  0  0  0  0  0  0  0
    3.6191    3.3018   -7.4212 C   0  0  0  0  0  0  0  0  0  0  0  0
    6.0071    1.5708   -7.4605 C   0  0  0  0  0  0  0  0  0  0  0  0
    6.6376    2.5014   -8.3017 C   0  0  0  0  0  0  0  0  0  0  0  0
    7.1733    2.0938   -9.5306 C   0  0  0  0  0  0  0  0  0  0  0  0
    7.0831    0.7519   -9.9295 C   0  0  0  0  0  0  0  0  0  0  0  0
    7.7046    0.2338  -11.5302 S   0  0  0  0  0  0  0  0  0  0  0  0
    6.0762    0.3528  -12.3350 C   0  0  0  0  0  0  0  0  0  0  0  0
    6.4856   -0.1868   -9.0866 C   0  0  0  0  0  0  0  0  0  0  0  0
    5.9373    0.2185   -7.8662 C   0  0  0  0  0  0  0  0  0  0  0  0
    4.2015    0.5395   -4.5677 C   0  0  0  0  0  0  0  0  0  0  0  0
    2.6239    1.0739   -4.3586 S   0  0  0  0  0  0  0  0  0  0  0  0
    2.1467   -0.2137   -3.3447 C   0  0  0  0  0  0  0  0  0  0  0  0
    3.2374   -1.0815   -3.2077 C   0  0  0  0  0  0  0  0  0  0  0  0
    3.1861   -2.3823   -2.6113 N   0  0  0  0  0  0  0  0  0  0  0  0
    3.0736   -3.4738   -3.5552 C   0  0  0  0  0  0  0  0  0  0  0  0
    2.0839   -3.4438   -4.5560 C   0  0  0  0  0  0  0  0  0  0  0  0
    1.9758   -4.4758   -5.4931 C   0  0  0  0  0  0  0  0  0  0  0  0
    2.8819   -5.5403   -5.4634 C   0  0  0  0  0  0  0  0  0  0  0  0
    2.7296   -6.8889   -6.6305 S   0  0  0  0  0  0  0  0  0  0  0  0
    1.7581   -7.9185   -5.4890 C   0  0  0  0  0  0  0  0  0  0  0  0
    3.9069   -5.5549   -4.5140 C   0  0  0  0  0  0  0  0  0  0  0  0
    4.0140   -4.5225   -3.5750 C   0  0  0  0  0  0  0  0  0  0  0  0
    3.7304   -2.5982   -1.2830 C   0  0  0  0  0  0  0  0  0  0  0  0
    4.5518   -1.6331   -0.6670 C   0  0  0  0  0  0  0  0  0  0  0  0
    5.2132   -1.9290    0.5307 C   0  0  0  0  0  0  0  0  0  0  0  0
    5.0221   -3.1595    1.1598 C   0  0  0  0  0  0  0  0  0  0  0  0
    5.9103   -3.5283    2.6744 S   0  0  0  0  0  0  0  0  0  0  0  0
    7.3182   -4.2861    1.8016 C   0  0  0  0  0  0  0  0  0  0  0  0
    4.1509   -4.0952    0.6013 C   0  0  0  0  0  0  0  0  0  0  0  0
    3.5100   -3.8194   -0.6121 C   0  0  0  0  0  0  0  0  0  0  0  0
    4.3594   -0.6131   -3.8773 C   0  0  0  0  0  0  0  0  0  0  0  0
    5.9687   -1.0572   -3.8432 S   0  0  0  0  0  0  0  0  0  0  0  0
    1.1514   -0.0018   -2.2877 C   0  0  0  0  0  0  0  0  0  0  0  0
    0.1035   -0.8413   -1.8604 C   0  0  0  0  0  0  0  0  0  0  0  0
   -0.3476   -2.0313   -2.5239 N   0  0  0  0  0  0  0  0  0  0  0  0
   -1.4402   -1.8518   -3.4510 C   0  0  0  0  0  0  0  0  0  0  0  0
   -1.3420   -0.9177   -4.4960 C   0  0  0  0  0  0  0  0  0  0  0  0
   -2.4334   -0.6735   -5.3344 C   0  0  0  0  0  0  0  0  0  0  0  0
   -3.6339   -1.3608   -5.1356 C   0  0  0  0  0  0  0  0  0  0  0  0
   -5.0515   -1.0150   -6.1754 S   0  0  0  0  0  0  0  0  0  0  0  0
   -5.8148    0.0984   -4.9553 C   0  0  0  0  0  0  0  0  0  0  0  0
   -3.7378   -2.3052   -4.1119 C   0  0  0  0  0  0  0  0  0  0  0  0
   -2.6575   -2.5335   -3.2601 C   0  0  0  0  0  0  0  0  0  0  0  0
   -0.1073   -3.3358   -1.9346 C   0  0  0  0  0  0  0  0  0  0  0  0
   -0.2562   -4.4944   -2.7195 C   0  0  0  0  0  0  0  0  0  0  0  0
   -0.1096   -5.7618   -2.1571 C   0  0  0  0  0  0  0  0  0  0  0  0
    0.1620   -5.8976   -0.7937 C   0  0  0  0  0  0  0  0  0  0  0  0
    0.3126   -7.5318   -0.0749 S   0  0  0  0  0  0  0  0  0  0  0  0
    2.1264   -7.5709   -0.2214 C   0  0  0  0  0  0  0  0  0  0  0  0
    0.3137   -4.7568    0.0019 C   0  0  0  0  0  0  0  0  0  0  0  0
    0.1996   -3.4852   -0.5663 C   0  0  0  0  0  0  0  0  0  0  0  0
   -0.6156   -0.2436   -0.8289 C   0  0  0  0  0  0  0  0  0  0  0  0
   -1.9307   -0.7060    0.0933 S   0  0  0  0  0  0  0  0  0  0  0  0
   -1.9596    0.7323    0.9998 C   0  0  0  0  0  0  0  0  0  0  0  0
   -0.9036    1.5687    0.5923 C   0  0  0  0  0  0  0  0  0  0  0  0
   -0.5887    2.8548    1.1568 N   0  0  0  0  0  0  0  0  0  0  0  0
   -0.4187    2.9772    2.5787 C   0  0  0  0  0  0  0  0  0  0  0  0
    0.4494    2.1109    3.2607 C   0  0  0  0  0  0  0  0  0  0  0  0
    0.6316    2.2409    4.6379 C   0  0  0  0  0  0  0  0  0  0  0  0
   -0.0483    3.2396    5.3419 C   0  0  0  0  0  0  0  0  0  0  0  0
    0.1769    3.4012    7.1123 S   0  0  0  0  0  0  0  0  0  0  0  0
    1.5923    4.5307    6.9751 C   0  0  0  0  0  0  0  0  0  0  0  0
   -0.9165    4.1063    4.6667 C   0  0  0  0  0  0  0  0  0  0  0  0
   -1.0918    3.9819    3.2876 C   0  0  0  0  0  0  0  0  0  0  0  0
   -0.2360    3.9590    0.2881 C   0  0  0  0  0  0  0  0  0  0  0  0
   -0.8901    4.1276   -0.9429 C   0  0  0  0  0  0  0  0  0  0  0  0
   -0.5107    5.1490   -1.8165 C   0  0  0  0  0  0  0  0  0  0  0  0
    0.5259    6.0201   -1.4668 C   0  0  0  0  0  0  0  0  0  0  0  0
    1.0106    7.3385   -2.5818 S   0  0  0  0  0  0  0  0  0  0  0  0
   -0.1553    8.5506   -1.8813 C   0  0  0  0  0  0  0  0  0  0  0  0
    1.1886    5.8600   -0.2465 C   0  0  0  0  0  0  0  0  0  0  0  0
    0.8094    4.8372    0.6278 C   0  0  0  0  0  0  0  0  0  0  0  0
   -0.1849    0.9778   -0.4404 C   0  0  0  0  0  0  0  0  0  0  0  0
    1.1439    1.4207   -1.3477 S   0  0  0  0  0  0  0  0  0  0  0  0
   -2.8777    0.9625    2.1133 C   0  0  0  0  0  0  0  0  0  0  0  0
   -4.2228    1.3663    2.0271 C   0  0  0  0  0  0  0  0  0  0  0  0
   -4.9553    1.4654    0.7941 N   0  0  0  0  0  0  0  0  0  0  0  0
   -4.9016    2.6559    0.0026 C   0  0  0  0  0  0  0  0  0  0  0  0
   -4.2896    2.6321   -1.2600 C   0  0  0  0  0  0  0  0  0  0  0  0
   -4.3306    3.7599   -2.0838 C   0  0  0  0  0  0  0  0  0  0  0  0
   -5.0168    4.9089   -1.6619 C   0  0  0  0  0  0  0  0  0  0  0  0
   -5.1014    6.3483   -2.7243 S   0  0  0  0  0  0  0  0  0  0  0  0
   -3.7172    7.1879   -1.9017 C   0  0  0  0  0  0  0  0  0  0  0  0
   -5.6397    4.9318   -0.4047 C   0  0  0  0  0  0  0  0  0  0  0  0
   -5.5837    3.8108    0.4264 C   0  0  0  0  0  0  0  0  0  0  0  0
   -5.8994    0.4461    0.4301 C   0  0  0  0  0  0  0  0  0  0  0  0
   -7.2464    0.5570    0.8120 C   0  0  0  0  0  0  0  0  0  0  0  0
   -8.1542   -0.4598    0.4993 C   0  0  0  0  0  0  0  0  0  0  0  0
   -7.7238   -1.5825   -0.2194 C   0  0  0  0  0  0  0  0  0  0  0  0
   -8.8709   -2.9121   -0.5816 S   0  0  0  0  0  0  0  0  0  0  0  0
   -8.4103   -3.8651    0.8988 C   0  0  0  0  0  0  0  0  0  0  0  0
   -6.4004   -1.6649   -0.6628 C   0  0  0  0  0  0  0  0  0  0  0  0
   -5.4935   -0.6525   -0.3430 C   0  0  0  0  0  0  0  0  0  0  0  0
   -4.8171    1.3646    3.2921 C   0  0  0  0  0  0  0  0  0  0  0  0
   -6.3557    1.6770    3.8863 S   0  0  0  0  0  0  0  0  0  0  0  0
   -5.9891    1.1563    5.4695 C   0  0  0  0  0  0  0  0  0  0  0  0
   -4.6548    0.7494    5.5320 C   0  0  0  0  0  0  0  0  0  0  0  0
   -4.1279   -0.0864    6.5725 N   0  0  0  0  0  0  0  0  0  0  0  0
   -3.5184    0.4619    7.7623 C   0  0  0  0  0  0  0  0  0  0  0  0
   -3.1716    1.8291    7.8329 C   0  0  0  0  0  0  0  0  0  0  0  0
   -2.5450    2.3436    8.9712 C   0  0  0  0  0  0  0  0  0  0  0  0
   -2.2409    1.5057   10.0478 C   0  0  0  0  0  0  0  0  0  0  0  0
   -1.3571    2.1501   11.4705 S   0  0  0  0  0  0  0  0  0  0  0  0
    0.2853    1.8265   10.7475 C   0  0  0  0  0  0  0  0  0  0  0  0
   -2.6032    0.1559   10.0029 C   0  0  0  0  0  0  0  0  0  0  0  0
   -3.2455   -0.3594    8.8746 C   0  0  0  0  0  0  0  0  0  0  0  0
   -4.1231   -1.4982    6.3078 C   0  0  0  0  0  0  0  0  0  0  0  0
   -5.3344   -2.2061    6.2552 C   0  0  0  0  0  0  0  0  0  0  0  0
   -5.3552   -3.5345    5.8255 C   0  0  0  0  0  0  0  0  0  0  0  0
   -4.1671   -4.1625    5.4291 C   0  0  0  0  0  0  0  0  0  0  0  0
   -4.2127   -5.8119    4.7329 S   0  0  0  0  0  0  0  0  0  0  0  0
   -4.5911   -5.2115    3.0563 C   0  0  0  0  0  0  0  0  0  0  0  0
   -2.9503   -3.4746    5.5285 C   0  0  0  0  0  0  0  0  0  0  0  0
   -2.9272   -2.1506    5.9752 C   0  0  0  0  0  0  0  0  0  0  0  0
   -4.0300    0.9020    4.2998 C   0  0  0  0  0  0  0  0  0  0  0  0
   -2.5200    0.4966    3.7112 S   0  0  0  0  0  0  0  0  0  0  0  0
   -6.9117    1.1672    6.6092 C   0  0  0  0  0  0  0  0  0  0  0  0
   -8.0943    0.5384    6.6220 C   0  0  0  0  0  0  0  0  0  0  0  0
   -8.6715   -0.3674    5.6158 C   0  0  0  0  0  0  0  0  0  0  0  0
   -8.1640   -0.6798    4.5056 O   0  0  0  0  0  0  0  0  0  0  0  0
   -9.9061   -0.9201    6.1637 C   0  0  0  0  0  0  0  0  0  0  0  0
  -10.7709   -1.8674    5.6147 C   0  0  0  0  0  0  0  0  0  0  0  0
  -11.8770   -2.2872    6.3782 C   0  0  0  0  0  0  0  0  0  0  0  0
  -12.9666   -3.4812    5.6949 Cl  0  0  0  0  0  0  0  0  0  0  0  0
  -12.0895   -1.7532    7.6729 C   0  0  0  0  0  0  0  0  0  0  0  0
  -13.4333   -2.2963    8.6710 Cl  0  0  0  0  0  0  0  0  0  0  0  0
  -11.2022   -0.7948    8.1984 C   0  0  0  0  0  0  0  0  0  0  0  0
  -10.1158   -0.3998    7.4236 C   0  0  0  0  0  0  0  0  0  0  0  0
   -9.0266    0.5087    7.7529 C   0  0  0  0  0  0  0  0  0  0  0  0
   -8.8994    1.1404    8.8358 O   0  0  0  0  0  0  0  0  0  0  0  0
    8.5453   -0.0149   -5.3178 H   0  0  0  0  0  0  0  0  0  0  0  0
   10.3734   -0.8246   -0.4261 H   0  0  0  0  0  0  0  0  0  0  0  0
    6.3655    2.3108   -0.0123 H   0  0  0  0  0  0  0  0  0  0  0  0
    6.6370    0.1176    2.6488 H   0  0  0  0  0  0  0  0  0  0  0  0
    7.2203    2.2541    3.9519 H   0  0  0  0  0  0  0  0  0  0  0  0
    9.2189    3.5575    2.7858 H   0  0  0  0  0  0  0  0  0  0  0  0
   11.2525    1.9462    2.6129 H   0  0  0  0  0  0  0  0  0  0  0  0
   10.5548   -0.3953    3.6457 H   0  0  0  0  0  0  0  0  0  0  0  0
    8.1712   -0.0902    4.8254 H   0  0  0  0  0  0  0  0  0  0  0  0
    9.2928    1.2747    5.2608 H   0  0  0  0  0  0  0  0  0  0  0  0
    8.4797   -1.3471    2.4482 H   0  0  0  0  0  0  0  0  0  0  0  0
    4.6424    3.6206   -4.1853 H   0  0  0  0  0  0  0  0  0  0  0  0
    2.8634    5.3006   -4.1838 H   0  0  0  0  0  0  0  0  0  0  0  0
   -0.3644    4.0541   -6.3721 H   0  0  0  0  0  0  0  0  0  0  0  0
    0.1548    4.3890   -4.6673 H   0  0  0  0  0  0  0  0  0  0  0  0
   -1.2040    5.3279   -5.4012 H   0  0  0  0  0  0  0  0  0  0  0  0
    1.9843    4.3849   -8.2966 H   0  0  0  0  0  0  0  0  0  0  0  0
    3.7732    2.7147   -8.3217 H   0  0  0  0  0  0  0  0  0  0  0  0
    6.6915    3.5417   -8.0179 H   0  0  0  0  0  0  0  0  0  0  0  0
    7.6399    2.8244  -10.1787 H   0  0  0  0  0  0  0  0  0  0  0  0
    6.1633    0.0119  -13.3884 H   0  0  0  0  0  0  0  0  0  0  0  0
    5.7226    1.4065  -12.3216 H   0  0  0  0  0  0  0  0  0  0  0  0
    5.3396   -0.2941  -11.8120 H   0  0  0  0  0  0  0  0  0  0  0  0
    6.4165   -1.2277   -9.3819 H   0  0  0  0  0  0  0  0  0  0  0  0
    5.4276   -0.5190   -7.2570 H   0  0  0  0  0  0  0  0  0  0  0  0
    1.3777   -2.6266   -4.6026 H   0  0  0  0  0  0  0  0  0  0  0  0
    1.1880   -4.4395   -6.2395 H   0  0  0  0  0  0  0  0  0  0  0  0
    1.5589   -8.9017   -5.9635 H   0  0  0  0  0  0  0  0  0  0  0  0
    2.3235   -8.0845   -4.5491 H   0  0  0  0  0  0  0  0  0  0  0  0
    0.7914   -7.4225   -5.2638 H   0  0  0  0  0  0  0  0  0  0  0  0
    4.6277   -6.3663   -4.5070 H   0  0  0  0  0  0  0  0  0  0  0  0
    4.8430   -4.5420   -2.8792 H   0  0  0  0  0  0  0  0  0  0  0  0
    4.7392   -0.6675   -1.1208 H   0  0  0  0  0  0  0  0  0  0  0  0
    5.8897   -1.2008    0.9506 H   0  0  0  0  0  0  0  0  0  0  0  0
    7.0221   -5.2812    1.4097 H   0  0  0  0  0  0  0  0  0  0  0  0
    8.1566   -4.4202    2.5169 H   0  0  0  0  0  0  0  0  0  0  0  0
    7.6616   -3.6416    0.9651 H   0  0  0  0  0  0  0  0  0  0  0  0
    3.9880   -5.0436    1.0899 H   0  0  0  0  0  0  0  0  0  0  0  0
    2.8723   -4.5766   -1.0459 H   0  0  0  0  0  0  0  0  0  0  0  0
   -0.4240   -0.3714   -4.6588 H   0  0  0  0  0  0  0  0  0  0  0  0
   -2.3484    0.0606   -6.1260 H   0  0  0  0  0  0  0  0  0  0  0  0
   -5.1297    0.9375   -4.7169 H   0  0  0  0  0  0  0  0  0  0  0  0
   -6.0494   -0.4656   -4.0285 H   0  0  0  0  0  0  0  0  0  0  0  0
   -6.7576    0.5065   -5.3721 H   0  0  0  0  0  0  0  0  0  0  0  0
   -4.6682   -2.8338   -3.9495 H   0  0  0  0  0  0  0  0  0  0  0  0
   -2.7789   -3.2241   -2.4359 H   0  0  0  0  0  0  0  0  0  0  0  0
   -0.4952   -4.4170   -3.7740 H   0  0  0  0  0  0  0  0  0  0  0  0
   -0.2313   -6.6402   -2.7804 H   0  0  0  0  0  0  0  0  0  0  0  0
    2.4750   -8.6109   -0.0717 H   0  0  0  0  0  0  0  0  0  0  0  0
    2.4567   -7.2170   -1.2198 H   0  0  0  0  0  0  0  0  0  0  0  0
    2.5670   -6.9277    0.5674 H   0  0  0  0  0  0  0  0  0  0  0  0
    0.5385   -4.8539    1.0581 H   0  0  0  0  0  0  0  0  0  0  0  0
    0.3432   -2.6248    0.0751 H   0  0  0  0  0  0  0  0  0  0  0  0
    0.9931    1.3460    2.7219 H   0  0  0  0  0  0  0  0  0  0  0  0
    1.3059    1.5709    5.1579 H   0  0  0  0  0  0  0  0  0  0  0  0
    2.4271    4.0331    6.4387 H   0  0  0  0  0  0  0  0  0  0  0  0
    1.2953    5.4520    6.4353 H   0  0  0  0  0  0  0  0  0  0  0  0
    1.9330    4.8038    7.9939 H   0  0  0  0  0  0  0  0  0  0  0  0
   -1.4488    4.8789    5.2094 H   0  0  0  0  0  0  0  0  0  0  0  0
   -1.7580    4.6609    2.7672 H   0  0  0  0  0  0  0  0  0  0  0  0
   -1.6804    3.4531   -1.2367 H   0  0  0  0  0  0  0  0  0  0  0  0
   -1.0274    5.2595   -2.7609 H   0  0  0  0  0  0  0  0  0  0  0  0
   -1.1220    8.4773   -2.4136 H   0  0  0  0  0  0  0  0  0  0  0  0
   -0.3160    8.3907   -0.7949 H   0  0  0  0  0  0  0  0  0  0  0  0
    0.2501    9.5712   -2.0308 H   0  0  0  0  0  0  0  0  0  0  0  0
    1.9928    6.5337    0.0273 H   0  0  0  0  0  0  0  0  0  0  0  0
    1.3500    4.7252    1.5586 H   0  0  0  0  0  0  0  0  0  0  0  0
   -3.7784    1.7357   -1.5979 H   0  0  0  0  0  0  0  0  0  0  0  0
   -3.8579    3.7306   -3.0582 H   0  0  0  0  0  0  0  0  0  0  0  0
   -2.8413    6.5194   -1.8644 H   0  0  0  0  0  0  0  0  0  0  0  0
   -3.4586    8.0986   -2.4723 H   0  0  0  0  0  0  0  0  0  0  0  0
   -4.0055    7.4708   -0.8702 H   0  0  0  0  0  0  0  0  0  0  0  0
   -6.1750    5.8167   -0.0788 H   0  0  0  0  0  0  0  0  0  0  0  0
   -6.0788    3.8299    1.3871 H   0  0  0  0  0  0  0  0  0  0  0  0
   -7.5912    1.4280    1.3480 H   0  0  0  0  0  0  0  0  0  0  0  0
   -9.1826   -0.3768    0.8213 H   0  0  0  0  0  0  0  0  0  0  0  0
   -7.3182   -4.0677    0.9025 H   0  0  0  0  0  0  0  0  0  0  0  0
   -8.9514   -4.8335    0.8920 H   0  0  0  0  0  0  0  0  0  0  0  0
   -8.6886   -3.3024    1.8142 H   0  0  0  0  0  0  0  0  0  0  0  0
   -6.0703   -2.5181   -1.2426 H   0  0  0  0  0  0  0  0  0  0  0  0
   -4.4879   -0.7157   -0.7157 H   0  0  0  0  0  0  0  0  0  0  0  0
   -3.3660    2.4969    7.0029 H   0  0  0  0  0  0  0  0  0  0  0  0
   -2.2774    3.3921    9.0104 H   0  0  0  0  0  0  0  0  0  0  0  0
    1.0694    2.1086   11.4790 H   0  0  0  0  0  0  0  0  0  0  0  0
    0.4204    2.4357    9.8335 H   0  0  0  0  0  0  0  0  0  0  0  0
    0.3931    0.7498   10.4974 H   0  0  0  0  0  0  0  0  0  0  0  0
   -2.3827   -0.4968   10.8378 H   0  0  0  0  0  0  0  0  0  0  0  0
   -3.5096   -1.4068    8.8643 H   0  0  0  0  0  0  0  0  0  0  0  0
   -6.2604   -1.7200    6.5219 H   0  0  0  0  0  0  0  0  0  0  0  0
   -6.2988   -4.0636    5.7631 H   0  0  0  0  0  0  0  0  0  0  0  0
   -3.8505   -4.4469    2.7406 H   0  0  0  0  0  0  0  0  0  0  0  0
   -5.6106   -4.7690    3.0369 H   0  0  0  0  0  0  0  0  0  0  0  0
   -4.5536   -6.0599    2.3443 H   0  0  0  0  0  0  0  0  0  0  0  0
   -2.0271   -3.9570    5.2318 H   0  0  0  0  0  0  0  0  0  0  0  0
   -1.9889   -1.6141    6.0090 H   0  0  0  0  0  0  0  0  0  0  0  0
   -6.5718    1.6717    7.5085 H   0  0  0  0  0  0  0  0  0  0  0  0
  -10.5810   -2.2793    4.6304 H   0  0  0  0  0  0  0  0  0  0  0  0
  -11.3453   -0.3978    9.1955 H   0  0  0  0  0  0  0  0  0  0  0  0
  1  2  2  3
  2  3  1  0
  3  4  2  0
  3  5  1  0
  5  6  2  0
  6  7  1  0
  7  8  2  0
  8  9  1  0
  9 10  2  0
 10 11  1  0
 11 12  2  3
 12 13  1  0
 13 14  3  0
 12 15  1  0
 15 16  3  0
  8 17  1  0
 17 18  1  0
 18 19  1  0
 19 20  2  0
 20 21  1  0
 21 22  1  0
 21 23  1  0
  1 24  1  0
 24 25  2  0
 25 26  1  0
 26 27  1  0
 27 28  2  0
 28 29  1  0
 29 30  2  0
 30 31  1  0
 31 32  1  0
 30 33  1  0
 33 34  2  0
 26 35  1  0
 35 36  2  0
 36 37  1  0
 37 38  2  0
 38 39  1  0
 39 40  1  0
 38 41  1  0
 41 42  2  0
 25 43  1  0
 43 44  1  0
 44 45  1  0
 45 46  2  0
 46 47  1  0
 47 48  1  0
 48 49  2  0
 49 50  1  0
 50 51  2  0
 51 52  1  0
 52 53  1  0
 51 54  1  0
 54 55  2  0
 47 56  1  0
 56 57  2  0
 57 58  1  0
 58 59  2  0
 59 60  1  0
 60 61  1  0
 59 62  1  0
 62 63  2  0
 46 64  1  0
 64 65  1  0
 45 66  1  0
 66 67  2  0
 67 68  1  0
 68 69  1  0
 69 70  2  0
 70 71  1  0
 71 72  2  0
 72 73  1  0
 73 74  1  0
 72 75  1  0
 75 76  2  0
 68 77  1  0
 77 78  2  0
 78 79  1  0
 79 80  2  0
 80 81  1  0
 81 82  1  0
 80 83  1  0
 83 84  2  0
 67 85  1  0
 85 86  1  0
 86 87  1  0
 87 88  2  0
 88 89  1  0
 89 90  1  0
 90 91  2  0
 91 92  1  0
 92 93  2  0
 93 94  1  0
 94 95  1  0
 93 96  1  0
 96 97  2  0
 89 98  1  0
 98 99  2  0
 99100  1  0
100101  2  0
101102  1  0
102103  1  0
101104  1  0
104105  2  0
 88106  1  0
106107  1  0
 87108  1  0
108109  2  0
109110  1  0
110111  1  0
111112  2  0
112113  1  0
113114  2  0
114115  1  0
115116  1  0
114117  1  0
117118  2  0
110119  1  0
119120  2  0
120121  1  0
121122  2  0
122123  1  0
123124  1  0
122125  1  0
125126  2  0
109127  1  0
127128  1  0
128129  1  0
129130  2  0
130131  1  0
131132  1  0
132133  2  0
133134  1  0
134135  2  0
135136  1  0
136137  1  0
135138  1  0
138139  2  0
131140  1  0
140141  2  0
141142  1  0
142143  2  0
143144  1  0
144145  1  0
143146  1  0
146147  2  0
130148  1  0
148149  1  0
129150  1  0
150151  2  3
151152  1  0
152153  2  0
152154  1  0
154155  2  0
155156  1  0
156157  1  0
156158  2  0
158159  1  0
158160  1  0
160161  2  0
161162  1  0
162163  2  0
 11  2  1  0
 23 17  1  0
 65 24  1  0
107 66  1  0
149108  1  0
162151  1  0
 10  5  1  0
 22 18  1  0
 34 27  1  0
 42 35  1  0
 64 43  2  0
 76 69  1  0
 84 77  1  0
106 85  2  0
118111  1  0
126119  1  0
148127  2  0
161154  1  0
 23  7  1  0
 55 48  1  0
 63 56  1  0
 97 90  1  0
105 98  1  0
139132  1  0
147140  1  0
  1164  1  0
  6165  1  0
  9166  1  0
 17167  1  0
 18168  1  0
 19169  1  0
 20170  1  0
 21171  1  0
 22172  1  0
 22173  1  0
 23174  1  0
 28175  1  0
 29176  1  0
 32177  1  0
 32178  1  0
 32179  1  0
 33180  1  0
 34181  1  0
 36182  1  0
 37183  1  0
 40184  1  0
 40185  1  0
 40186  1  0
 41187  1  0
 42188  1  0
 49189  1  0
 50190  1  0
 53191  1  0
 53192  1  0
 53193  1  0
 54194  1  0
 55195  1  0
 57196  1  0
 58197  1  0
 61198  1  0
 61199  1  0
 61200  1  0
 62201  1  0
 63202  1  0
 70203  1  0
 71204  1  0
 74205  1  0
 74206  1  0
 74207  1  0
 75208  1  0
 76209  1  0
 78210  1  0
 79211  1  0
 82212  1  0
 82213  1  0
 82214  1  0
 83215  1  0
 84216  1  0
 91217  1  0
 92218  1  0
 95219  1  0
 95220  1  0
 95221  1  0
 96222  1  0
 97223  1  0
 99224  1  0
100225  1  0
103226  1  0
103227  1  0
103228  1  0
104229  1  0
105230  1  0
112231  1  0
113232  1  0
116233  1  0
116234  1  0
116235  1  0
117236  1  0
118237  1  0
120238  1  0
121239  1  0
124240  1  0
124241  1  0
124242  1  0
125243  1  0
126244  1  0
133245  1  0
134246  1  0
137247  1  0
137248  1  0
137249  1  0
138250  1  0
139251  1  0
141252  1  0
142253  1  0
145254  1  0
145255  1  0
145256  1  0
146257  1  0
147258  1  0
150259  1  0
155260  1  0
160261  1  0
M  END

