
     RDKit          3D

268293  0  0  0  0  0  0  0  0999 V2000
   -3.0154    4.9546    4.6295 C   0  0  0  0  0  0  0  0  0  0  0  0
   -3.6640    5.7804    3.7829 C   0  0  0  0  0  0  0  0  0  0  0  0
   -3.4266    5.9054    2.3407 C   0  0  0  0  0  0  0  0  0  0  0  0
   -2.3137    5.7946    1.7573 O   0  0  0  0  0  0  0  0  0  0  0  0
   -4.6677    6.2704    1.6951 C   0  0  0  0  0  0  0  0  0  0  0  0
   -4.9398    6.2765    0.3072 C   0  0  0  0  0  0  0  0  0  0  0  0
   -6.2780    6.4517    0.0045 C   0  0  0  0  0  0  0  0  0  0  0  0
   -7.2955    6.5983    1.0029 C   0  0  0  0  0  0  0  0  0  0  0  0
   -7.0297    6.6186    2.3618 C   0  0  0  0  0  0  0  0  0  0  0  0
   -5.6547    6.4787    2.6921 C   0  0  0  0  0  0  0  0  0  0  0  0
   -5.0152    6.3646    4.0328 C   0  0  0  0  0  0  0  0  0  0  0  0
   -5.4760    6.8815    5.1975 C   0  0  0  0  0  0  0  0  0  0  0  0
   -4.6677    6.9258    6.3921 C   0  0  0  0  0  0  0  0  0  0  0  0
   -4.0246    6.9663    7.3558 N   0  0  0  0  0  0  0  0  0  0  0  0
   -6.7521    7.5453    5.2827 C   0  0  0  0  0  0  0  0  0  0  0  0
   -7.7765    8.0819    5.3666 N   0  0  0  0  0  0  0  0  0  0  0  0
   -8.3537    6.6268   -0.0562 C   0  0  0  0  0  0  0  0  0  0  0  0
   -9.0036    8.0093   -0.3629 C   0  0  0  0  0  0  0  0  0  0  0  0
   -9.7056    7.8502   -1.6901 C   0  0  0  0  0  0  0  0  0  0  0  0
   -8.7467    7.7447   -2.6192 C   0  0  0  0  0  0  0  0  0  0  0  0
   -7.4279    7.8306   -1.8855 C   0  0  0  0  0  0  0  0  0  0  0  0
   -7.8211    8.8491   -0.8219 C   0  0  0  0  0  0  0  0  0  0  0  0
   -7.3085    6.4999   -1.0788 C   0  0  0  0  0  0  0  0  0  0  0  0
   -2.1079    3.8642    4.2123 C   0  0  0  0  0  0  0  0  0  0  0  0
   -1.2506    3.1727    5.0857 C   0  0  0  0  0  0  0  0  0  0  0  0
   -0.7879    3.6979    6.3396 N   0  0  0  0  0  0  0  0  0  0  0  0
   -1.1264    3.0457    7.5816 C   0  0  0  0  0  0  0  0  0  0  0  0
   -0.2692    3.1271    8.7005 C   0  0  0  0  0  0  0  0  0  0  0  0
   -0.6402    2.5595    9.9225 C   0  0  0  0  0  0  0  0  0  0  0  0
   -1.8562    1.8767   10.0378 C   0  0  0  0  0  0  0  0  0  0  0  0
   -2.3697    1.2117   11.6226 S   0  0  0  0  0  0  0  0  0  0  0  0
   -1.5537   -0.3940   11.3658 C   0  0  0  0  0  0  0  0  0  0  0  0
   -2.6890    1.7454    8.9230 C   0  0  0  0  0  0  0  0  0  0  0  0
   -2.3252    2.3207    7.7016 C   0  0  0  0  0  0  0  0  0  0  0  0
    0.0433    4.8738    6.3017 C   0  0  0  0  0  0  0  0  0  0  0  0
   -0.2190    5.9533    7.1564 C   0  0  0  0  0  0  0  0  0  0  0  0
    0.5585    7.1171    7.0843 C   0  0  0  0  0  0  0  0  0  0  0  0
    1.5865    7.2171    6.1366 C   0  0  0  0  0  0  0  0  0  0  0  0
    2.5307    8.7347    5.9975 S   0  0  0  0  0  0  0  0  0  0  0  0
    1.3694    9.4581    4.7972 C   0  0  0  0  0  0  0  0  0  0  0  0
    1.8619    6.1344    5.2925 C   0  0  0  0  0  0  0  0  0  0  0  0
    1.0893    4.9752    5.3666 C   0  0  0  0  0  0  0  0  0  0  0  0
   -0.7337    2.0209    4.4987 C   0  0  0  0  0  0  0  0  0  0  0  0
    0.3955    0.8722    4.9628 S   0  0  0  0  0  0  0  0  0  0  0  0
    0.3296    0.0531    3.4686 C   0  0  0  0  0  0  0  0  0  0  0  0
   -0.5573    0.7096    2.5885 C   0  0  0  0  0  0  0  0  0  0  0  0
   -0.6239    0.4838    1.1636 N   0  0  0  0  0  0  0  0  0  0  0  0
   -1.7404   -0.2403    0.6138 C   0  0  0  0  0  0  0  0  0  0  0  0
   -2.9729    0.3999    0.3977 C   0  0  0  0  0  0  0  0  0  0  0  0
   -4.0444   -0.2987   -0.1683 C   0  0  0  0  0  0  0  0  0  0  0  0
   -3.8811   -1.6316   -0.5636 C   0  0  0  0  0  0  0  0  0  0  0  0
   -5.2677   -2.5647   -1.2108 S   0  0  0  0  0  0  0  0  0  0  0  0
   -5.6903   -3.2618    0.4158 C   0  0  0  0  0  0  0  0  0  0  0  0
   -2.6391   -2.2464   -0.4219 C   0  0  0  0  0  0  0  0  0  0  0  0
   -1.5786   -1.5617    0.1721 C   0  0  0  0  0  0  0  0  0  0  0  0
    0.2968    1.1485    0.2632 C   0  0  0  0  0  0  0  0  0  0  0  0
    0.6320    0.5707   -0.9782 C   0  0  0  0  0  0  0  0  0  0  0  0
    1.4784    1.2287   -1.8705 C   0  0  0  0  0  0  0  0  0  0  0  0
    2.0054    2.4801   -1.5469 C   0  0  0  0  0  0  0  0  0  0  0  0
    3.0897    3.3192   -2.7061 S   0  0  0  0  0  0  0  0  0  0  0  0
    4.5658    2.4035   -2.1703 C   0  0  0  0  0  0  0  0  0  0  0  0
    1.6821    3.0723   -0.3216 C   0  0  0  0  0  0  0  0  0  0  0  0
    0.8286    2.4197    0.5725 C   0  0  0  0  0  0  0  0  0  0  0  0
   -1.1515    1.7873    3.2295 C   0  0  0  0  0  0  0  0  0  0  0  0
   -2.2051    2.9935    2.7494 S   0  0  0  0  0  0  0  0  0  0  0  0
    1.1276   -1.1242    3.1436 C   0  0  0  0  0  0  0  0  0  0  0  0
    2.3987   -1.0334    2.5683 C   0  0  0  0  0  0  0  0  0  0  0  0
    3.4778   -0.4655    3.3356 N   0  0  0  0  0  0  0  0  0  0  0  0
    4.3260    0.5418    2.7713 C   0  0  0  0  0  0  0  0  0  0  0  0
    5.7178    0.3687    2.7918 C   0  0  0  0  0  0  0  0  0  0  0  0
    6.5604    1.4075    2.3975 C   0  0  0  0  0  0  0  0  0  0  0  0
    6.0187    2.6217    1.9581 C   0  0  0  0  0  0  0  0  0  0  0  0
    7.1060    3.9527    1.4323 S   0  0  0  0  0  0  0  0  0  0  0  0
    7.4153    4.5443    3.1253 C   0  0  0  0  0  0  0  0  0  0  0  0
    4.6302    2.7961    1.9291 C   0  0  0  0  0  0  0  0  0  0  0  0
    3.7876    1.7622    2.3430 C   0  0  0  0  0  0  0  0  0  0  0  0
    3.6834   -0.8865    4.7058 C   0  0  0  0  0  0  0  0  0  0  0  0
    3.4909   -2.2304    5.0801 C   0  0  0  0  0  0  0  0  0  0  0  0
    3.6626   -2.6300    6.4056 C   0  0  0  0  0  0  0  0  0  0  0  0
    4.0293   -1.6967    7.3792 C   0  0  0  0  0  0  0  0  0  0  0  0
    4.2165   -2.2206    9.0876 S   0  0  0  0  0  0  0  0  0  0  0  0
    5.9490   -2.7326    8.8724 C   0  0  0  0  0  0  0  0  0  0  0  0
    4.2324   -0.3602    7.0217 C   0  0  0  0  0  0  0  0  0  0  0  0
    4.0594    0.0440    5.6936 C   0  0  0  0  0  0  0  0  0  0  0  0
    2.6346   -2.1174    1.7109 C   0  0  0  0  0  0  0  0  0  0  0  0
    3.2342   -2.0234    0.1438 S   0  0  0  0  0  0  0  0  0  0  0  0
    2.3567   -3.3389   -0.4806 C   0  0  0  0  0  0  0  0  0  0  0  0
    1.5671   -3.8689    0.5528 C   0  0  0  0  0  0  0  0  0  0  0  0
    0.9673   -5.1858    0.5147 N   0  0  0  0  0  0  0  0  0  0  0  0
    1.8431   -6.3447    0.4900 C   0  0  0  0  0  0  0  0  0  0  0  0
    1.7223   -7.3711    1.4496 C   0  0  0  0  0  0  0  0  0  0  0  0
    2.6447   -8.4195    1.4948 C   0  0  0  0  0  0  0  0  0  0  0  0
    3.6983   -8.4696    0.5794 C   0  0  0  0  0  0  0  0  0  0  0  0
    4.9463   -9.7478    0.7218 S   0  0  0  0  0  0  0  0  0  0  0  0
    5.9620   -8.7734    1.8788 C   0  0  0  0  0  0  0  0  0  0  0  0
    3.7983   -7.4909   -0.4111 C   0  0  0  0  0  0  0  0  0  0  0  0
    2.8813   -6.4407   -0.4579 C   0  0  0  0  0  0  0  0  0  0  0  0
   -0.4168   -5.3681    0.8687 C   0  0  0  0  0  0  0  0  0  0  0  0
   -1.3685   -5.5777   -0.1355 C   0  0  0  0  0  0  0  0  0  0  0  0
   -2.6939   -5.8782    0.2017 C   0  0  0  0  0  0  0  0  0  0  0  0
   -3.0658   -6.0187    1.5416 C   0  0  0  0  0  0  0  0  0  0  0  0
   -4.7333   -6.5235    1.9647 S   0  0  0  0  0  0  0  0  0  0  0  0
   -4.3652   -8.2960    1.7754 C   0  0  0  0  0  0  0  0  0  0  0  0
   -2.1250   -5.8037    2.5495 C   0  0  0  0  0  0  0  0  0  0  0  0
   -0.8067   -5.4763    2.2175 C   0  0  0  0  0  0  0  0  0  0  0  0
    1.6750   -3.1059    1.7233 C   0  0  0  0  0  0  0  0  0  0  0  0
    0.4131   -2.5773    2.6914 S   0  0  0  0  0  0  0  0  0  0  0  0
    1.9526   -3.3850   -1.8985 C   0  0  0  0  0  0  0  0  0  0  0  0
    2.7857   -3.3437   -3.0290 C   0  0  0  0  0  0  0  0  0  0  0  0
    4.1636   -3.7466   -3.0460 N   0  0  0  0  0  0  0  0  0  0  0  0
    5.1627   -2.8137   -2.6087 C   0  0  0  0  0  0  0  0  0  0  0  0
    6.1395   -3.2158   -1.6835 C   0  0  0  0  0  0  0  0  0  0  0  0
    7.2329   -2.3896   -1.4138 C   0  0  0  0  0  0  0  0  0  0  0  0
    7.3712   -1.1664   -2.0856 C   0  0  0  0  0  0  0  0  0  0  0  0
    8.8369   -0.1682   -1.8250 S   0  0  0  0  0  0  0  0  0  0  0  0
    8.0306    0.8957   -0.5940 C   0  0  0  0  0  0  0  0  0  0  0  0
    6.3823   -0.7491   -2.9826 C   0  0  0  0  0  0  0  0  0  0  0  0
    5.2742   -1.5625   -3.2324 C   0  0  0  0  0  0  0  0  0  0  0  0
    4.5443   -4.9278   -3.7981 C   0  0  0  0  0  0  0  0  0  0  0  0
    5.8118   -5.0225   -4.4118 C   0  0  0  0  0  0  0  0  0  0  0  0
    6.1544   -6.1420   -5.1757 C   0  0  0  0  0  0  0  0  0  0  0  0
    5.2416   -7.1842   -5.3424 C   0  0  0  0  0  0  0  0  0  0  0  0
    5.6764   -8.6165   -6.3288 S   0  0  0  0  0  0  0  0  0  0  0  0
    4.9484   -7.9311   -7.8501 C   0  0  0  0  0  0  0  0  0  0  0  0
    3.9857   -7.1136   -4.7290 C   0  0  0  0  0  0  0  0  0  0  0  0
    3.6351   -5.9939   -3.9725 C   0  0  0  0  0  0  0  0  0  0  0  0
    2.0475   -3.1235   -4.1911 C   0  0  0  0  0  0  0  0  0  0  0  0
    2.4482   -2.9466   -5.8051 S   0  0  0  0  0  0  0  0  0  0  0  0
    0.8396   -2.6517   -6.2944 C   0  0  0  0  0  0  0  0  0  0  0  0
   -0.0382   -2.8141   -5.1949 C   0  0  0  0  0  0  0  0  0  0  0  0
   -1.4462   -3.1304   -5.2789 N   0  0  0  0  0  0  0  0  0  0  0  0
   -2.3254   -2.5310   -6.2417 C   0  0  0  0  0  0  0  0  0  0  0  0
   -2.5807   -3.1990   -7.4490 C   0  0  0  0  0  0  0  0  0  0  0  0
   -3.6796   -2.8420   -8.2339 C   0  0  0  0  0  0  0  0  0  0  0  0
   -4.5509   -1.8359   -7.8047 C   0  0  0  0  0  0  0  0  0  0  0  0
   -6.1123   -1.5873   -8.6625 S   0  0  0  0  0  0  0  0  0  0  0  0
   -5.4946   -0.2319   -9.6970 C   0  0  0  0  0  0  0  0  0  0  0  0
   -4.2674   -1.1242   -6.6323 C   0  0  0  0  0  0  0  0  0  0  0  0
   -3.1565   -1.4699   -5.8534 C   0  0  0  0  0  0  0  0  0  0  0  0
   -1.9549   -4.2894   -4.5861 C   0  0  0  0  0  0  0  0  0  0  0  0
   -1.2596   -5.5120   -4.6381 C   0  0  0  0  0  0  0  0  0  0  0  0
   -1.7985   -6.6572   -4.0474 C   0  0  0  0  0  0  0  0  0  0  0  0
   -3.0442   -6.6032   -3.4120 C   0  0  0  0  0  0  0  0  0  0  0  0
   -3.7673   -8.0885   -2.7037 S   0  0  0  0  0  0  0  0  0  0  0  0
   -4.7362   -8.4774   -4.1970 C   0  0  0  0  0  0  0  0  0  0  0  0
   -3.7300   -5.3834   -3.3353 C   0  0  0  0  0  0  0  0  0  0  0  0
   -3.1897   -4.2346   -3.9182 C   0  0  0  0  0  0  0  0  0  0  0  0
    0.7057   -3.0202   -4.0300 C   0  0  0  0  0  0  0  0  0  0  0  0
    0.3318   -3.1877   -2.4063 S   0  0  0  0  0  0  0  0  0  0  0  0
    0.5219   -2.1926   -7.6523 C   0  0  0  0  0  0  0  0  0  0  0  0
   -0.0303   -0.9963   -7.9368 C   0  0  0  0  0  0  0  0  0  0  0  0
   -0.5650   -0.6632   -9.2536 C   0  0  0  0  0  0  0  0  0  0  0  0
   -0.3237   -1.2777  -10.3260 O   0  0  0  0  0  0  0  0  0  0  0  0
   -1.4786    0.4509   -9.1062 C   0  0  0  0  0  0  0  0  0  0  0  0
   -2.2199    1.1024  -10.1006 C   0  0  0  0  0  0  0  0  0  0  0  0
   -3.0591    2.1453   -9.6912 C   0  0  0  0  0  0  0  0  0  0  0  0
   -3.8944    2.9097  -10.5170 C   0  0  0  0  0  0  0  0  0  0  0  0
   -4.6464    3.8468   -9.8073 C   0  0  0  0  0  0  0  0  0  0  0  0
   -4.2747    3.7210   -8.1610 S   0  0  0  0  0  0  0  0  0  0  0  0
   -3.1570    2.4870   -8.3426 C   0  0  0  0  0  0  0  0  0  0  0  0
   -2.4086    1.8493   -7.3512 C   0  0  0  0  0  0  0  0  0  0  0  0
   -1.5338    0.8257   -7.7630 C   0  0  0  0  0  0  0  0  0  0  0  0
   -0.5202    0.0556   -6.9935 C   0  0  0  0  0  0  0  0  0  0  0  0
    0.1307    0.5239   -5.9028 C   0  0  0  0  0  0  0  0  0  0  0  0
   -0.4612    1.4677   -4.9885 C   0  0  0  0  0  0  0  0  0  0  0  0
   -0.9248    2.2218   -4.2405 N   0  0  0  0  0  0  0  0  0  0  0  0
    1.5388    0.2932   -5.7178 C   0  0  0  0  0  0  0  0  0  0  0  0
    2.6775    0.1503   -5.5678 N   0  0  0  0  0  0  0  0  0  0  0  0
   -3.3119    4.9140    5.6663 H   0  0  0  0  0  0  0  0  0  0  0  0
   -4.1878    6.0910   -0.4491 H   0  0  0  0  0  0  0  0  0  0  0  0
   -7.8214    6.6761    3.0892 H   0  0  0  0  0  0  0  0  0  0  0  0
   -9.0552    5.7644   -0.0065 H   0  0  0  0  0  0  0  0  0  0  0  0
   -9.6239    8.4437    0.4494 H   0  0  0  0  0  0  0  0  0  0  0  0
  -10.7759    7.9007   -1.8788 H   0  0  0  0  0  0  0  0  0  0  0  0
   -8.9052    7.6958   -3.6934 H   0  0  0  0  0  0  0  0  0  0  0  0
   -6.5518    8.1031   -2.5141 H   0  0  0  0  0  0  0  0  0  0  0  0
   -7.0466    9.0030   -0.0312 H   0  0  0  0  0  0  0  0  0  0  0  0
   -8.1228    9.8414   -1.2464 H   0  0  0  0  0  0  0  0  0  0  0  0
   -7.3687    5.5645   -1.6809 H   0  0  0  0  0  0  0  0  0  0  0  0
    0.6782    3.6508    8.6357 H   0  0  0  0  0  0  0  0  0  0  0  0
    0.0136    2.6593   10.7777 H   0  0  0  0  0  0  0  0  0  0  0  0
   -1.9502   -0.8758   10.4489 H   0  0  0  0  0  0  0  0  0  0  0  0
   -1.7658   -1.0444   12.2390 H   0  0  0  0  0  0  0  0  0  0  0  0
   -0.4566   -0.2518   11.2795 H   0  0  0  0  0  0  0  0  0  0  0  0
   -3.6275    1.2138    9.0025 H   0  0  0  0  0  0  0  0  0  0  0  0
   -2.9994    2.2322    6.8566 H   0  0  0  0  0  0  0  0  0  0  0  0
   -1.0372    5.9022    7.8685 H   0  0  0  0  0  0  0  0  0  0  0  0
    0.3304    7.9494    7.7411 H   0  0  0  0  0  0  0  0  0  0  0  0
    0.3572    9.5334    5.2477 H   0  0  0  0  0  0  0  0  0  0  0  0
    1.3278    8.8285    3.8838 H   0  0  0  0  0  0  0  0  0  0  0  0
    1.7103   10.4753    4.5153 H   0  0  0  0  0  0  0  0  0  0  0  0
    2.6503    6.2024    4.5579 H   0  0  0  0  0  0  0  0  0  0  0  0
    1.3065    4.1535    4.6996 H   0  0  0  0  0  0  0  0  0  0  0  0
   -3.0995    1.4437    0.6423 H   0  0  0  0  0  0  0  0  0  0  0  0
   -4.9957    0.1952   -0.3163 H   0  0  0  0  0  0  0  0  0  0  0  0
   -5.9982   -2.4514    1.1064 H   0  0  0  0  0  0  0  0  0  0  0  0
   -6.5231   -3.9858    0.3049 H   0  0  0  0  0  0  0  0  0  0  0  0
   -4.8117   -3.7890    0.8396 H   0  0  0  0  0  0  0  0  0  0  0  0
   -2.4989   -3.2552   -0.7744 H   0  0  0  0  0  0  0  0  0  0  0  0
   -0.6197   -2.0446    0.2437 H   0  0  0  0  0  0  0  0  0  0  0  0
    0.2535   -0.3971   -1.2659 H   0  0  0  0  0  0  0  0  0  0  0  0
    1.7197    0.7641   -2.8180 H   0  0  0  0  0  0  0  0  0  0  0  0
    4.4017    1.3162   -2.3011 H   0  0  0  0  0  0  0  0  0  0  0  0
    5.4302    2.7124   -2.7924 H   0  0  0  0  0  0  0  0  0  0  0  0
    4.7865    2.6238   -1.1057 H   0  0  0  0  0  0  0  0  0  0  0  0
    2.0775    4.0492   -0.0691 H   0  0  0  0  0  0  0  0  0  0  0  0
    0.5880    2.9180    1.5014 H   0  0  0  0  0  0  0  0  0  0  0  0
    6.1457   -0.5615    3.1466 H   0  0  0  0  0  0  0  0  0  0  0  0
    7.6335    1.2744    2.4393 H   0  0  0  0  0  0  0  0  0  0  0  0
    8.0191    5.4729    3.0799 H   0  0  0  0  0  0  0  0  0  0  0  0
    7.9808    3.7760    3.6963 H   0  0  0  0  0  0  0  0  0  0  0  0
    6.4582    4.7610    3.6431 H   0  0  0  0  0  0  0  0  0  0  0  0
    4.2068    3.7359    1.6095 H   0  0  0  0  0  0  0  0  0  0  0  0
    2.7233    1.9236    2.3982 H   0  0  0  0  0  0  0  0  0  0  0  0
    3.2122   -2.9755    4.3463 H   0  0  0  0  0  0  0  0  0  0  0  0
    3.5090   -3.6672    6.6769 H   0  0  0  0  0  0  0  0  0  0  0  0
    6.0257   -3.5171    8.0935 H   0  0  0  0  0  0  0  0  0  0  0  0
    6.5717   -1.8560    8.5863 H   0  0  0  0  0  0  0  0  0  0  0  0
    6.3232   -3.1434    9.8330 H   0  0  0  0  0  0  0  0  0  0  0  0
    4.5073    0.3697    7.7717 H   0  0  0  0  0  0  0  0  0  0  0  0
    4.2025    1.0870    5.4395 H   0  0  0  0  0  0  0  0  0  0  0  0
    0.9491   -7.3530    2.2033 H   0  0  0  0  0  0  0  0  0  0  0  0
    2.5591   -9.1733    2.2674 H   0  0  0  0  0  0  0  0  0  0  0  0
    6.3709   -7.8781    1.3625 H   0  0  0  0  0  0  0  0  0  0  0  0
    6.8048   -9.3997    2.2364 H   0  0  0  0  0  0  0  0  0  0  0  0
    5.3559   -8.4538    2.7515 H   0  0  0  0  0  0  0  0  0  0  0  0
    4.6049   -7.5316   -1.1353 H   0  0  0  0  0  0  0  0  0  0  0  0
    3.0023   -5.7053   -1.2295 H   0  0  0  0  0  0  0  0  0  0  0  0
   -1.0790   -5.5202   -1.1753 H   0  0  0  0  0  0  0  0  0  0  0  0
   -3.4266   -6.0164   -0.5753 H   0  0  0  0  0  0  0  0  0  0  0  0
   -4.0777   -8.5079    0.7251 H   0  0  0  0  0  0  0  0  0  0  0  0
   -3.5395   -8.5938    2.4589 H   0  0  0  0  0  0  0  0  0  0  0  0
   -5.2708   -8.8873    2.0258 H   0  0  0  0  0  0  0  0  0  0  0  0
   -2.4055   -5.9166    3.5885 H   0  0  0  0  0  0  0  0  0  0  0  0
   -0.0826   -5.3589    3.0134 H   0  0  0  0  0  0  0  0  0  0  0  0
    6.0604   -4.1826   -1.2003 H   0  0  0  0  0  0  0  0  0  0  0  0
    7.9899   -2.7151   -0.7100 H   0  0  0  0  0  0  0  0  0  0  0  0
    7.4241    0.2844    0.1033 H   0  0  0  0  0  0  0  0  0  0  0  0
    7.3823    1.6338   -1.1023 H   0  0  0  0  0  0  0  0  0  0  0  0
    8.8086    1.4326   -0.0147 H   0  0  0  0  0  0  0  0  0  0  0  0
    6.4787    0.1996   -3.4923 H   0  0  0  0  0  0  0  0  0  0  0  0
    4.5372   -1.2470   -3.9584 H   0  0  0  0  0  0  0  0  0  0  0  0
    6.5365   -4.2225   -4.3271 H   0  0  0  0  0  0  0  0  0  0  0  0
    7.1287   -6.1909   -5.6461 H   0  0  0  0  0  0  0  0  0  0  0  0
    5.4094   -6.9483   -8.0859 H   0  0  0  0  0  0  0  0  0  0  0  0
    3.8514   -7.8091   -7.7252 H   0  0  0  0  0  0  0  0  0  0  0  0
    5.1372   -8.6282   -8.6929 H   0  0  0  0  0  0  0  0  0  0  0  0
    3.2795   -7.9227   -4.8475 H   0  0  0  0  0  0  0  0  0  0  0  0
    2.6512   -5.9633   -3.5271 H   0  0  0  0  0  0  0  0  0  0  0  0
   -1.9663   -4.0416   -7.7405 H   0  0  0  0  0  0  0  0  0  0  0  0
   -3.8938   -3.4016   -9.1369 H   0  0  0  0  0  0  0  0  0  0  0  0
   -5.3190    0.6584   -9.0605 H   0  0  0  0  0  0  0  0  0  0  0  0
   -6.2578    0.0204  -10.4615 H   0  0  0  0  0  0  0  0  0  0  0  0
   -4.5569   -0.5328  -10.2101 H   0  0  0  0  0  0  0  0  0  0  0  0
   -4.9394   -0.3469   -6.2940 H   0  0  0  0  0  0  0  0  0  0  0  0
   -2.9890   -0.9645   -4.9106 H   0  0  0  0  0  0  0  0  0  0  0  0
   -0.3149   -5.5842   -5.1625 H   0  0  0  0  0  0  0  0  0  0  0  0
   -1.2576   -7.5946   -4.0993 H   0  0  0  0  0  0  0  0  0  0  0  0
   -5.4516   -7.6539   -4.4138 H   0  0  0  0  0  0  0  0  0  0  0  0
   -4.0622   -8.6267   -5.0660 H   0  0  0  0  0  0  0  0  0  0  0  0
   -5.3095   -9.4115   -4.0249 H   0  0  0  0  0  0  0  0  0  0  0  0
   -4.6947   -5.3325   -2.8441 H   0  0  0  0  0  0  0  0  0  0  0  0
   -3.7407   -3.3040   -3.8587 H   0  0  0  0  0  0  0  0  0  0  0  0
    0.8009   -2.8425   -8.4717 H   0  0  0  0  0  0  0  0  0  0  0  0
   -2.1510    0.8081  -11.1394 H   0  0  0  0  0  0  0  0  0  0  0  0
   -3.9607    2.7865  -11.5880 H   0  0  0  0  0  0  0  0  0  0  0  0
   -5.3481    4.5410  -10.2451 H   0  0  0  0  0  0  0  0  0  0  0  0
   -2.5322    2.1249   -6.3182 H   0  0  0  0  0  0  0  0  0  0  0  0
  1  2  2  3
  2  3  1  0
  3  4  2  0
  3  5  1  0
  5  6  2  0
  6  7  1  0
  7  8  2  0
  8  9  1  0
  9 10  2  0
 10 11  1  0
 11 12  2  3
 12 13  1  0
 13 14  3  0
 12 15  1  0
 15 16  3  0
  8 17  1  0
 17 18  1  0
 18 19  1  0
 19 20  2  0
 20 21  1  0
 21 22  1  0
 21 23  1  0
  1 24  1  0
 24 25  2  0
 25 26  1  0
 26 27  1  0
 27 28  2  0
 28 29  1  0
 29 30  2  0
 30 31  1  0
 31 32  1  0
 30 33  1  0
 33 34  2  0
 26 35  1  0
 35 36  2  0
 36 37  1  0
 37 38  2  0
 38 39  1  0
 39 40  1  0
 38 41  1  0
 41 42  2  0
 25 43  1  0
 43 44  1  0
 44 45  1  0
 45 46  2  0
 46 47  1  0
 47 48  1  0
 48 49  2  0
 49 50  1  0
 50 51  2  0
 51 52  1  0
 52 53  1  0
 51 54  1  0
 54 55  2  0
 47 56  1  0
 56 57  2  0
 57 58  1  0
 58 59  2  0
 59 60  1  0
 60 61  1  0
 59 62  1  0
 62 63  2  0
 46 64  1  0
 64 65  1  0
 45 66  1  0
 66 67  2  0
 67 68  1  0
 68 69  1  0
 69 70  2  0
 70 71  1  0
 71 72  2  0
 72 73  1  0
 73 74  1  0
 72 75  1  0
 75 76  2  0
 68 77  1  0
 77 78  2  0
 78 79  1  0
 79 80  2  0
 80 81  1  0
 81 82  1  0
 80 83  1  0
 83 84  2  0
 67 85  1  0
 85 86  1  0
 86 87  1  0
 87 88  2  0
 88 89  1  0
 89 90  1  0
 90 91  2  0
 91 92  1  0
 92 93  2  0
 93 94  1  0
 94 95  1  0
 93 96  1  0
 96 97  2  0
 89 98  1  0
 98 99  2  0
 99100  1  0
100101  2  0
101102  1  0
102103  1  0
101104  1  0
104105  2  0
 88106  1  0
106107  1  0
 87108  1  0
108109  2  0
109110  1  0
110111  1  0
111112  2  0
112113  1  0
113114  2  0
114115  1  0
115116  1  0
114117  1  0
117118  2  0
110119  1  0
119120  2  0
120121  1  0
121122  2  0
122123  1  0
123124  1  0
122125  1  0
125126  2  0
109127  1  0
127128  1  0
128129  1  0
129130  2  0
130131  1  0
131132  1  0
132133  2  0
133134  1  0
134135  2  0
135136  1  0
136137  1  0
135138  1  0
138139  2  0
131140  1  0
140141  2  0
141142  1  0
142143  2  0
143144  1  0
144145  1  0
143146  1  0
146147  2  0
130148  1  0
148149  1  0
129150  1  0
150151  2  3
151152  1  0
152153  2  0
152154  1  0
154155  2  0
155156  1  0
156157  1  0
157158  2  0
158159  1  0
159160  1  0
160161  1  0
161162  2  0
162163  1  0
163164  2  3
164165  1  0
165166  3  0
164167  1  0
167168  3  0
 11  2  1  0
 23 17  1  0
 65 24  1  0
107 66  1  0
149108  1  0
163151  1  0
 10  5  1  0
 22 18  1  0
 34 27  1  0
 42 35  1  0
 64 43  2  0
 76 69  1  0
 84 77  1  0
106 85  2  0
118111  1  0
126119  1  0
148127  2  0
162154  1  0
 23  7  1  0
 55 48  1  0
 63 56  1  0
 97 90  1  0
105 98  1  0
139132  1  0
147140  1  0
160156  2  0
  1169  1  0
  6170  1  0
  9171  1  0
 17172  1  0
 18173  1  0
 19174  1  0
 20175  1  0
 21176  1  0
 22177  1  0
 22178  1  0
 23179  1  0
 28180  1  0
 29181  1  0
 32182  1  0
 32183  1  0
 32184  1  0
 33185  1  0
 34186  1  0
 36187  1  0
 37188  1  0
 40189  1  0
 40190  1  0
 40191  1  0
 41192  1  0
 42193  1  0
 49194  1  0
 50195  1  0
 53196  1  0
 53197  1  0
 53198  1  0
 54199  1  0
 55200  1  0
 57201  1  0
 58202  1  0
 61203  1  0
 61204  1  0
 61205  1  0
 62206  1  0
 63207  1  0
 70208  1  0
 71209  1  0
 74210  1  0
 74211  1  0
 74212  1  0
 75213  1  0
 76214  1  0
 78215  1  0
 79216  1  0
 82217  1  0
 82218  1  0
 82219  1  0
 83220  1  0
 84221  1  0
 91222  1  0
 92223  1  0
 95224  1  0
 95225  1  0
 95226  1  0
 96227  1  0
 97228  1  0
 99229  1  0
100230  1  0
103231  1  0
103232  1  0
103233  1  0
104234  1  0
105235  1  0
112236  1  0
113237  1  0
116238  1  0
116239  1  0
116240  1  0
117241  1  0
118242  1  0
120243  1  0
121244  1  0
124245  1  0
124246  1  0
124247  1  0
125248  1  0
126249  1  0
133250  1  0
134251  1  0
137252  1  0
137253  1  0
137254  1  0
138255  1  0
139256  1  0
141257  1  0
142258  1  0
145259  1  0
145260  1  0
145261  1  0
146262  1  0
147263  1  0
150264  1  0
155265  1  0
157266  1  0
158267  1  0
161268  1  0
M  END

