
     RDKit          3D

172190  0  0  0  0  0  0  0  0999 V2000
   -0.9734   -3.1422    3.5120 C   0  0  0  0  0  0  0  0  0  0  0  0
    0.1644   -3.5380    2.9085 C   0  0  0  0  0  0  0  0  0  0  0  0
    0.6331   -3.0858    1.5873 C   0  0  0  0  0  0  0  0  0  0  0  0
    0.2446   -2.0642    0.9597 O   0  0  0  0  0  0  0  0  0  0  0  0
    1.6062   -4.0327    1.0946 C   0  0  0  0  0  0  0  0  0  0  0  0
    2.1568   -4.0811   -0.2035 C   0  0  0  0  0  0  0  0  0  0  0  0
    2.9115   -5.2123   -0.4468 C   0  0  0  0  0  0  0  0  0  0  0  0
    3.1095   -6.2462    0.5278 C   0  0  0  0  0  0  0  0  0  0  0  0
    2.5758   -6.1987    1.8045 C   0  0  0  0  0  0  0  0  0  0  0  0
    1.8291   -5.0213    2.0841 C   0  0  0  0  0  0  0  0  0  0  0  0
    1.0461   -4.6749    3.3029 C   0  0  0  0  0  0  0  0  0  0  0  0
    1.3048   -5.1120    4.5622 C   0  0  0  0  0  0  0  0  0  0  0  0
    0.6376   -4.5545    5.7107 C   0  0  0  0  0  0  0  0  0  0  0  0
    0.1032   -4.1069    6.6347 N   0  0  0  0  0  0  0  0  0  0  0  0
    2.4387   -5.9493    4.8652 C   0  0  0  0  0  0  0  0  0  0  0  0
    3.3642   -6.5865    5.1312 N   0  0  0  0  0  0  0  0  0  0  0  0
    3.8810   -7.0599   -0.4739 C   0  0  0  0  0  0  0  0  0  0  0  0
    3.1678   -8.2860   -1.1247 C   0  0  0  0  0  0  0  0  0  0  0  0
    1.6780   -8.0290   -1.2155 C   0  0  0  0  0  0  0  0  0  0  0  0
    1.5112   -7.0637   -2.1184 C   0  0  0  0  0  0  0  0  0  0  0  0
    2.8906   -6.6894   -2.6063 C   0  0  0  0  0  0  0  0  0  0  0  0
    3.5328   -8.0637   -2.5807 C   0  0  0  0  0  0  0  0  0  0  0  0
    3.6916   -5.9945   -1.4629 C   0  0  0  0  0  0  0  0  0  0  0  0
   -1.8815   -2.1813    2.8755 C   0  0  0  0  0  0  0  0  0  0  0  0
   -2.7129   -2.4815    1.7815 C   0  0  0  0  0  0  0  0  0  0  0  0
   -3.0851   -3.8150    1.3871 N   0  0  0  0  0  0  0  0  0  0  0  0
   -3.2412   -4.1653    0.0068 C   0  0  0  0  0  0  0  0  0  0  0  0
   -4.5052   -4.5135   -0.4916 C   0  0  0  0  0  0  0  0  0  0  0  0
   -4.6565   -4.8725   -1.8356 C   0  0  0  0  0  0  0  0  0  0  0  0
   -3.5402   -4.8996   -2.6843 C   0  0  0  0  0  0  0  0  0  0  0  0
   -3.7289   -5.3947   -4.3970 S   0  0  0  0  0  0  0  0  0  0  0  0
   -4.0015   -3.6932   -4.9866 C   0  0  0  0  0  0  0  0  0  0  0  0
   -2.2751   -4.5667   -2.1833 C   0  0  0  0  0  0  0  0  0  0  0  0
   -2.1258   -4.1895   -0.8449 C   0  0  0  0  0  0  0  0  0  0  0  0
   -3.3009   -4.8104    2.4007 C   0  0  0  0  0  0  0  0  0  0  0  0
   -4.1734   -4.5435    3.4684 C   0  0  0  0  0  0  0  0  0  0  0  0
   -4.2584   -5.4262    4.5486 C   0  0  0  0  0  0  0  0  0  0  0  0
   -3.4597   -6.5744    4.5711 C   0  0  0  0  0  0  0  0  0  0  0  0
   -3.5001   -7.6610    6.0001 S   0  0  0  0  0  0  0  0  0  0  0  0
   -2.1486   -6.7805    6.8491 C   0  0  0  0  0  0  0  0  0  0  0  0
   -2.6157   -6.8680    3.4933 C   0  0  0  0  0  0  0  0  0  0  0  0
   -2.5393   -5.9910    2.4055 C   0  0  0  0  0  0  0  0  0  0  0  0
   -3.1311   -1.3129    1.1445 C   0  0  0  0  0  0  0  0  0  0  0  0
   -3.9508   -0.9465   -0.2742 S   0  0  0  0  0  0  0  0  0  0  0  0
   -3.7100    0.7458   -0.1569 C   0  0  0  0  0  0  0  0  0  0  0  0
   -2.9988    1.0020    1.0350 C   0  0  0  0  0  0  0  0  0  0  0  0
   -2.7908    2.2995    1.6122 N   0  0  0  0  0  0  0  0  0  0  0  0
   -3.8502    2.8946    2.4131 C   0  0  0  0  0  0  0  0  0  0  0  0
   -3.8019    4.2571    2.7765 C   0  0  0  0  0  0  0  0  0  0  0  0
   -4.8593    4.8448    3.4814 C   0  0  0  0  0  0  0  0  0  0  0  0
   -5.9835    4.0862    3.8279 C   0  0  0  0  0  0  0  0  0  0  0  0
   -7.3904    4.8501    4.6333 S   0  0  0  0  0  0  0  0  0  0  0  0
   -6.8364    4.4347    6.3161 C   0  0  0  0  0  0  0  0  0  0  0  0
   -6.0357    2.7346    3.4987 C   0  0  0  0  0  0  0  0  0  0  0  0
   -4.9745    2.1372    2.8056 C   0  0  0  0  0  0  0  0  0  0  0  0
   -1.4523    2.8318    1.6343 C   0  0  0  0  0  0  0  0  0  0  0  0
   -0.8035    3.0669    2.8584 C   0  0  0  0  0  0  0  0  0  0  0  0
    0.4666    3.6505    2.8799 C   0  0  0  0  0  0  0  0  0  0  0  0
    1.0864    4.0263    1.6832 C   0  0  0  0  0  0  0  0  0  0  0  0
    2.6750    4.8465    1.7157 S   0  0  0  0  0  0  0  0  0  0  0  0
    1.9693    6.5120    1.8746 C   0  0  0  0  0  0  0  0  0  0  0  0
    0.4609    3.7582    0.4578 C   0  0  0  0  0  0  0  0  0  0  0  0
   -0.8007    3.1585    0.4335 C   0  0  0  0  0  0  0  0  0  0  0  0
   -2.6793   -0.1668    1.7099 C   0  0  0  0  0  0  0  0  0  0  0  0
   -1.7102   -0.4976    3.0401 S   0  0  0  0  0  0  0  0  0  0  0  0
   -3.6293    1.6257   -1.3465 C   0  0  0  0  0  0  0  0  0  0  0  0
   -3.9710    2.9814   -1.2987 C   0  0  0  0  0  0  0  0  0  0  0  0
   -4.6949    3.6468   -0.3864 N   0  0  0  0  0  0  0  0  0  0  0  0
   -4.6295    4.9234   -0.7584 N   0  0  0  0  0  0  0  0  0  0  0  0
   -5.3544    5.9955   -0.0873 C   0  0  0  0  0  0  0  0  0  0  0  0
   -6.6833    6.2535   -0.7900 C   0  0  0  0  0  0  0  0  0  0  0  0
   -3.9012    5.1097   -1.8572 N   0  0  0  0  0  0  0  0  0  0  0  0
   -3.4932    3.8815   -2.2069 C   0  0  0  0  0  0  0  0  0  0  0  0
   -2.6527    3.5129   -3.2576 C   0  0  0  0  0  0  0  0  0  0  0  0
   -2.4071    2.1313   -3.4241 C   0  0  0  0  0  0  0  0  0  0  0  0
   -2.8898    1.1997   -2.4820 C   0  0  0  0  0  0  0  0  0  0  0  0
   -2.5130   -0.0984   -2.6207 F   0  0  0  0  0  0  0  0  0  0  0  0
   -1.5798    1.6906   -4.4058 F   0  0  0  0  0  0  0  0  0  0  0  0
   -1.7807    4.5006   -3.9138 C   0  0  0  0  0  0  0  0  0  0  0  0
   -1.3348    4.4119   -5.2323 C   0  0  0  0  0  0  0  0  0  0  0  0
   -0.0902    5.0272   -5.4557 C   0  0  0  0  0  0  0  0  0  0  0  0
    0.6386    4.9049   -6.7374 C   0  0  0  0  0  0  0  0  0  0  0  0
    0.1166    4.2760   -7.6998 O   0  0  0  0  0  0  0  0  0  0  0  0
    1.9039    5.4917   -6.8788 O   0  0  0  0  0  0  0  0  0  0  0  0
    2.7888    5.1979   -7.9561 C   0  0  0  0  0  0  0  0  0  0  0  0
    3.4014    3.8173   -7.7718 C   0  0  0  0  0  0  0  0  0  0  0  0
    0.4348    5.6225   -4.3032 C   0  0  0  0  0  0  0  0  0  0  0  0
   -0.6323    5.3552   -3.0339 S   0  0  0  0  0  0  0  0  0  0  0  0
    1.8386    5.9943   -4.0828 C   0  0  0  0  0  0  0  0  0  0  0  0
    2.7985    5.0748   -3.8646 C   0  0  0  0  0  0  0  0  0  0  0  0
    2.5733    3.6414   -3.6227 C   0  0  0  0  0  0  0  0  0  0  0  0
    1.5339    2.9892   -3.9040 O   0  0  0  0  0  0  0  0  0  0  0  0
    3.7323    3.0912   -2.9580 C   0  0  0  0  0  0  0  0  0  0  0  0
    3.8518    1.8080   -2.3730 C   0  0  0  0  0  0  0  0  0  0  0  0
    5.0082    1.6358   -1.6337 C   0  0  0  0  0  0  0  0  0  0  0  0
    5.9912    2.6647   -1.4675 C   0  0  0  0  0  0  0  0  0  0  0  0
    5.8803    3.9225   -2.0401 C   0  0  0  0  0  0  0  0  0  0  0  0
    4.7116    4.1092   -2.8304 C   0  0  0  0  0  0  0  0  0  0  0  0
    4.2238    5.3386   -3.5172 C   0  0  0  0  0  0  0  0  0  0  0  0
    4.9775    6.3707   -3.9697 C   0  0  0  0  0  0  0  0  0  0  0  0
    4.4480    7.3858   -4.8470 C   0  0  0  0  0  0  0  0  0  0  0  0
    4.0230    8.2034   -5.5515 N   0  0  0  0  0  0  0  0  0  0  0  0
    6.3928    6.4658   -3.7045 C   0  0  0  0  0  0  0  0  0  0  0  0
    7.5301    6.5495   -3.4957 N   0  0  0  0  0  0  0  0  0  0  0  0
    6.7802    1.7830   -0.5436 C   0  0  0  0  0  0  0  0  0  0  0  0
    6.7247    2.0876    0.9833 C   0  0  0  0  0  0  0  0  0  0  0  0
    5.3989    2.7116    1.3377 C   0  0  0  0  0  0  0  0  0  0  0  0
    4.4759    1.7626    1.1757 C   0  0  0  0  0  0  0  0  0  0  0  0
    5.2073    0.5195    0.7215 C   0  0  0  0  0  0  0  0  0  0  0  0
    6.4812    0.6889    1.5266 C   0  0  0  0  0  0  0  0  0  0  0  0
    5.7724    0.7296   -0.7153 C   0  0  0  0  0  0  0  0  0  0  0  0
   -1.3241   -3.6234    4.4100 H   0  0  0  0  0  0  0  0  0  0  0  0
    1.9622   -3.3381   -0.9615 H   0  0  0  0  0  0  0  0  0  0  0  0
    2.6934   -7.0224    2.4925 H   0  0  0  0  0  0  0  0  0  0  0  0
    4.9452   -7.2268   -0.1952 H   0  0  0  0  0  0  0  0  0  0  0  0
    3.4489   -9.2770   -0.7060 H   0  0  0  0  0  0  0  0  0  0  0  0
    0.8835   -8.5796   -0.7255 H   0  0  0  0  0  0  0  0  0  0  0  0
    0.5577   -6.6899   -2.4794 H   0  0  0  0  0  0  0  0  0  0  0  0
    2.9219   -6.1757   -3.5893 H   0  0  0  0  0  0  0  0  0  0  0  0
    4.6338   -8.0455   -2.7659 H   0  0  0  0  0  0  0  0  0  0  0  0
    3.0486   -8.7933   -3.2778 H   0  0  0  0  0  0  0  0  0  0  0  0
    4.6356   -5.4986   -1.7835 H   0  0  0  0  0  0  0  0  0  0  0  0
   -5.3733   -4.4965    0.1586 H   0  0  0  0  0  0  0  0  0  0  0  0
   -5.6366   -5.1329   -2.2152 H   0  0  0  0  0  0  0  0  0  0  0  0
   -3.1354   -3.0504   -4.7079 H   0  0  0  0  0  0  0  0  0  0  0  0
   -4.9362   -3.2837   -4.5466 H   0  0  0  0  0  0  0  0  0  0  0  0
   -4.0955   -3.7022   -6.0943 H   0  0  0  0  0  0  0  0  0  0  0  0
   -1.4066   -4.6001   -2.8280 H   0  0  0  0  0  0  0  0  0  0  0  0
   -1.1464   -3.9353   -0.4676 H   0  0  0  0  0  0  0  0  0  0  0  0
   -4.7624   -3.6321    3.4767 H   0  0  0  0  0  0  0  0  0  0  0  0
   -4.9202   -5.1975    5.3760 H   0  0  0  0  0  0  0  0  0  0  0  0
   -2.4234   -5.7137    6.9979 H   0  0  0  0  0  0  0  0  0  0  0  0
   -1.9678   -7.2453    7.8394 H   0  0  0  0  0  0  0  0  0  0  0  0
   -1.2187   -6.8456    6.2468 H   0  0  0  0  0  0  0  0  0  0  0  0
   -1.9970   -7.7574    3.5103 H   0  0  0  0  0  0  0  0  0  0  0  0
   -1.8439   -6.1953    1.6007 H   0  0  0  0  0  0  0  0  0  0  0  0
   -2.9696    4.8780    2.4747 H   0  0  0  0  0  0  0  0  0  0  0  0
   -4.8222    5.9003    3.7185 H   0  0  0  0  0  0  0  0  0  0  0  0
   -7.6821    4.5757    7.0181 H   0  0  0  0  0  0  0  0  0  0  0  0
   -6.0150    5.1200    6.6122 H   0  0  0  0  0  0  0  0  0  0  0  0
   -6.4907    3.3822    6.3818 H   0  0  0  0  0  0  0  0  0  0  0  0
   -6.9034    2.1428    3.7659 H   0  0  0  0  0  0  0  0  0  0  0  0
   -5.0615    1.0876    2.5654 H   0  0  0  0  0  0  0  0  0  0  0  0
   -1.2846    2.7977    3.7938 H   0  0  0  0  0  0  0  0  0  0  0  0
    0.9574    3.8319    3.8274 H   0  0  0  0  0  0  0  0  0  0  0  0
    1.4198    6.5994    2.8353 H   0  0  0  0  0  0  0  0  0  0  0  0
    2.7934    7.2537    1.8644 H   0  0  0  0  0  0  0  0  0  0  0  0
    1.2841    6.7201    1.0292 H   0  0  0  0  0  0  0  0  0  0  0  0
    0.9423    4.0375   -0.4725 H   0  0  0  0  0  0  0  0  0  0  0  0
   -1.2740    2.9779   -0.5214 H   0  0  0  0  0  0  0  0  0  0  0  0
   -4.7451    6.9231   -0.0977 H   0  0  0  0  0  0  0  0  0  0  0  0
   -5.5530    5.7194    0.9675 H   0  0  0  0  0  0  0  0  0  0  0  0
   -6.5141    6.5660   -1.8407 H   0  0  0  0  0  0  0  0  0  0  0  0
   -7.3048    5.3305   -0.7755 H   0  0  0  0  0  0  0  0  0  0  0  0
   -7.2315    7.0591   -0.2589 H   0  0  0  0  0  0  0  0  0  0  0  0
   -1.8363    3.8099   -5.9823 H   0  0  0  0  0  0  0  0  0  0  0  0
    3.6039    5.9498   -7.9620 H   0  0  0  0  0  0  0  0  0  0  0  0
    2.2546    5.2657   -8.9257 H   0  0  0  0  0  0  0  0  0  0  0  0
    4.1728    3.6357   -8.5501 H   0  0  0  0  0  0  0  0  0  0  0  0
    2.6164    3.0350   -7.8523 H   0  0  0  0  0  0  0  0  0  0  0  0
    3.8828    3.7395   -6.7755 H   0  0  0  0  0  0  0  0  0  0  0  0
    2.0558    7.0464   -4.0068 H   0  0  0  0  0  0  0  0  0  0  0  0
    3.0843    1.0469   -2.4353 H   0  0  0  0  0  0  0  0  0  0  0  0
    6.5994    4.6995   -1.8240 H   0  0  0  0  0  0  0  0  0  0  0  0
    7.7863    1.5083   -0.9297 H   0  0  0  0  0  0  0  0  0  0  0  0
    7.6079    2.6146    1.3948 H   0  0  0  0  0  0  0  0  0  0  0  0
    5.2358    3.7034    1.7335 H   0  0  0  0  0  0  0  0  0  0  0  0
    3.4186    1.8579    1.4020 H   0  0  0  0  0  0  0  0  0  0  0  0
    4.6609   -0.4329    0.8854 H   0  0  0  0  0  0  0  0  0  0  0  0
    7.2862   -0.0331    1.2535 H   0  0  0  0  0  0  0  0  0  0  0  0
    6.3179    0.6670    2.6278 H   0  0  0  0  0  0  0  0  0  0  0  0
    6.1629   -0.1900   -1.2044 H   0  0  0  0  0  0  0  0  0  0  0  0
  1  2  2  3
  2  3  1  0
  3  4  2  0
  3  5  1  0
  5  6  2  0
  6  7  1  0
  7  8  2  0
  8  9  1  0
  9 10  2  0
 10 11  1  0
 11 12  2  3
 12 13  1  0
 13 14  3  0
 12 15  1  0
 15 16  3  0
  8 17  1  0
 17 18  1  0
 18 19  1  0
 19 20  2  0
 20 21  1  0
 21 22  1  0
 21 23  1  0
  1 24  1  0
 24 25  2  0
 25 26  1  0
 26 27  1  0
 27 28  2  0
 28 29  1  0
 29 30  2  0
 30 31  1  0
 31 32  1  0
 30 33  1  0
 33 34  2  0
 26 35  1  0
 35 36  2  0
 36 37  1  0
 37 38  2  0
 38 39  1  0
 39 40  1  0
 38 41  1  0
 41 42  2  0
 25 43  1  0
 43 44  1  0
 44 45  1  0
 45 46  2  0
 46 47  1  0
 47 48  1  0
 48 49  2  0
 49 50  1  0
 50 51  2  0
 51 52  1  0
 52 53  1  0
 51 54  1  0
 54 55  2  0
 47 56  1  0
 56 57  2  0
 57 58  1  0
 58 59  2  0
 59 60  1  0
 60 61  1  0
 59 62  1  0
 62 63  2  0
 46 64  1  0
 64 65  1  0
 45 66  1  0
 66 67  1  0
 67 68  2  0
 68 69  1  0
 69 70  1  0
 70 71  1  0
 69 72  1  0
 72 73  2  0
 73 74  1  0
 74 75  2  0
 75 76  1  0
 76 77  1  0
 75 78  1  0
 74 79  1  0
 79 80  2  0
 80 81  1  0
 81 82  1  0
 82 83  2  0
 82 84  1  0
 84 85  1  0
 85 86  1  0
 81 87  2  0
 87 88  1  0
 87 89  1  0
 89 90  2  3
 90 91  1  0
 91 92  2  0
 91 93  1  0
 93 94  2  0
 94 95  1  0
 95 96  2  0
 96 97  1  0
 97 98  2  0
 98 99  1  0
 99100  2  3
100101  1  0
101102  3  0
100103  1  0
103104  3  0
 96105  1  0
105106  1  0
106107  1  0
107108  2  0
108109  1  0
109110  1  0
109111  1  0
 11  2  1  0
 23 17  1  0
 65 24  1  0
 76 66  2  0
 88 79  1  0
 99 90  1  0
111105  1  0
 10  5  1  0
 22 18  1  0
 34 27  1  0
 42 35  1  0
 64 43  2  0
 73 67  1  0
 98 93  1  0
110106  1  0
 23  7  1  0
 55 48  1  0
 63 56  1  0
111 95  1  0
  1112  1  0
  6113  1  0
  9114  1  0
 17115  1  0
 18116  1  0
 19117  1  0
 20118  1  0
 21119  1  0
 22120  1  0
 22121  1  0
 23122  1  0
 28123  1  0
 29124  1  0
 32125  1  0
 32126  1  0
 32127  1  0
 33128  1  0
 34129  1  0
 36130  1  0
 37131  1  0
 40132  1  0
 40133  1  0
 40134  1  0
 41135  1  0
 42136  1  0
 49137  1  0
 50138  1  0
 53139  1  0
 53140  1  0
 53141  1  0
 54142  1  0
 55143  1  0
 57144  1  0
 58145  1  0
 61146  1  0
 61147  1  0
 61148  1  0
 62149  1  0
 63150  1  0
 70151  1  0
 70152  1  0
 71153  1  0
 71154  1  0
 71155  1  0
 80156  1  0
 85157  1  0
 85158  1  0
 86159  1  0
 86160  1  0
 86161  1  0
 89162  1  0
 94163  1  0
 97164  1  0
105165  1  0
106166  1  0
107167  1  0
108168  1  0
109169  1  0
110170  1  0
110171  1  0
111172  1  0
M  END

