
     RDKit          3D

234257  0  0  0  0  0  0  0  0999 V2000
    5.5289    2.1515   -3.5695 C   0  0  0  0  0  0  0  0  0  0  0  0
    6.5726    2.3057   -2.7436 C   0  0  0  0  0  0  0  0  0  0  0  0
    6.5660    3.2190   -1.6008 C   0  0  0  0  0  0  0  0  0  0  0  0
    5.5630    3.8349   -1.1513 O   0  0  0  0  0  0  0  0  0  0  0  0
    7.9289    3.5340   -1.2257 C   0  0  0  0  0  0  0  0  0  0  0  0
    8.3465    4.2651   -0.0894 C   0  0  0  0  0  0  0  0  0  0  0  0
    9.7197    4.3897    0.0150 C   0  0  0  0  0  0  0  0  0  0  0  0
   10.6307    3.8627   -0.9588 C   0  0  0  0  0  0  0  0  0  0  0  0
   10.2230    3.1461   -2.0720 C   0  0  0  0  0  0  0  0  0  0  0  0
    8.8124    2.9782   -2.1812 C   0  0  0  0  0  0  0  0  0  0  0  0
    8.0094    2.1911   -3.1639 C   0  0  0  0  0  0  0  0  0  0  0  0
    8.4851    1.3769   -4.1452 C   0  0  0  0  0  0  0  0  0  0  0  0
    7.6411    0.4181   -4.8114 C   0  0  0  0  0  0  0  0  0  0  0  0
    6.9707   -0.3555   -5.3534 N   0  0  0  0  0  0  0  0  0  0  0  0
    9.8566    1.3990   -4.5827 C   0  0  0  0  0  0  0  0  0  0  0  0
   10.9495    1.4109   -4.9683 N   0  0  0  0  0  0  0  0  0  0  0  0
   11.7999    4.3664   -0.1640 C   0  0  0  0  0  0  0  0  0  0  0  0
   12.6378    3.3148    0.6235 C   0  0  0  0  0  0  0  0  0  0  0  0
   11.7616    2.1488    1.0265 C   0  0  0  0  0  0  0  0  0  0  0  0
   10.9067    2.6144    1.9348 C   0  0  0  0  0  0  0  0  0  0  0  0
   11.2272    4.0800    2.1286 C   0  0  0  0  0  0  0  0  0  0  0  0
   12.7388    4.0076    1.9709 C   0  0  0  0  0  0  0  0  0  0  0  0
   10.8678    4.8904    0.8455 C   0  0  0  0  0  0  0  0  0  0  0  0
    4.3517    1.3141   -3.2400 C   0  0  0  0  0  0  0  0  0  0  0  0
    3.7849    0.9876   -1.9893 C   0  0  0  0  0  0  0  0  0  0  0  0
    3.8646    1.7697   -0.7901 N   0  0  0  0  0  0  0  0  0  0  0  0
    4.7252    1.3769    0.3138 C   0  0  0  0  0  0  0  0  0  0  0  0
    4.8809    2.2202    1.4340 C   0  0  0  0  0  0  0  0  0  0  0  0
    5.6950    1.8505    2.5032 C   0  0  0  0  0  0  0  0  0  0  0  0
    6.3747    0.6308    2.4758 C   0  0  0  0  0  0  0  0  0  0  0  0
    7.4315    0.1673    3.8512 S   0  0  0  0  0  0  0  0  0  0  0  0
    6.0896   -0.6224    4.7988 C   0  0  0  0  0  0  0  0  0  0  0  0
    6.2481   -0.2117    1.3676 C   0  0  0  0  0  0  0  0  0  0  0  0
    5.4372    0.1609    0.2869 C   0  0  0  0  0  0  0  0  0  0  0  0
    2.7552    2.6689   -0.5770 C   0  0  0  0  0  0  0  0  0  0  0  0
    1.8537    2.4407    0.4762 C   0  0  0  0  0  0  0  0  0  0  0  0
    0.7352    3.2617    0.6365 C   0  0  0  0  0  0  0  0  0  0  0  0
    0.5086    4.3177   -0.2500 C   0  0  0  0  0  0  0  0  0  0  0  0
   -0.9292    5.3709   -0.0497 S   0  0  0  0  0  0  0  0  0  0  0  0
   -0.0951    6.5077    1.1046 C   0  0  0  0  0  0  0  0  0  0  0  0
    1.3951    4.5426   -1.3098 C   0  0  0  0  0  0  0  0  0  0  0  0
    2.5051    3.7132   -1.4816 C   0  0  0  0  0  0  0  0  0  0  0  0
    2.8182    0.0030   -2.1283 C   0  0  0  0  0  0  0  0  0  0  0  0
    1.8215   -0.7757   -1.0476 S   0  0  0  0  0  0  0  0  0  0  0  0
    1.0523   -1.7418   -2.2277 C   0  0  0  0  0  0  0  0  0  0  0  0
    1.5784   -1.4122   -3.4902 C   0  0  0  0  0  0  0  0  0  0  0  0
    1.2408   -2.0295   -4.7375 N   0  0  0  0  0  0  0  0  0  0  0  0
    0.5527   -1.2574   -5.7667 C   0  0  0  0  0  0  0  0  0  0  0  0
    0.4017   -1.7643   -7.0763 C   0  0  0  0  0  0  0  0  0  0  0  0
   -0.2776   -1.0387   -8.0548 C   0  0  0  0  0  0  0  0  0  0  0  0
   -0.8403    0.2010   -7.7458 C   0  0  0  0  0  0  0  0  0  0  0  0
   -1.7785    1.0877   -8.9852 S   0  0  0  0  0  0  0  0  0  0  0  0
   -0.3443    2.0044   -9.6118 C   0  0  0  0  0  0  0  0  0  0  0  0
   -0.7115    0.7178   -6.4528 C   0  0  0  0  0  0  0  0  0  0  0  0
   -0.0228    0.0013   -5.4725 C   0  0  0  0  0  0  0  0  0  0  0  0
    1.9988   -3.2063   -5.0724 C   0  0  0  0  0  0  0  0  0  0  0  0
    3.0342   -3.1365   -6.0193 C   0  0  0  0  0  0  0  0  0  0  0  0
    3.7877   -4.2691   -6.3262 C   0  0  0  0  0  0  0  0  0  0  0  0
    3.5551   -5.4686   -5.6485 C   0  0  0  0  0  0  0  0  0  0  0  0
    4.5517   -6.9102   -6.0196 S   0  0  0  0  0  0  0  0  0  0  0  0
    5.9526   -6.3491   -4.9944 C   0  0  0  0  0  0  0  0  0  0  0  0
    2.5472   -5.5435   -4.6812 C   0  0  0  0  0  0  0  0  0  0  0  0
    1.7690   -4.4147   -4.3951 C   0  0  0  0  0  0  0  0  0  0  0  0
    2.5806   -0.4458   -3.3783 C   0  0  0  0  0  0  0  0  0  0  0  0
    3.5922    0.3552   -4.4405 S   0  0  0  0  0  0  0  0  0  0  0  0
    0.0109   -2.7076   -1.8409 C   0  0  0  0  0  0  0  0  0  0  0  0
   -1.3631   -2.4013   -1.9377 C   0  0  0  0  0  0  0  0  0  0  0  0
   -2.0089   -1.8868   -3.1153 N   0  0  0  0  0  0  0  0  0  0  0  0
   -2.1062   -2.7253   -4.2953 C   0  0  0  0  0  0  0  0  0  0  0  0
   -2.5695   -2.1960   -5.5186 C   0  0  0  0  0  0  0  0  0  0  0  0
   -2.6521   -3.0028   -6.6630 C   0  0  0  0  0  0  0  0  0  0  0  0
   -2.2651   -4.3432   -6.5999 C   0  0  0  0  0  0  0  0  0  0  0  0
   -2.3330   -5.3737   -8.0694 S   0  0  0  0  0  0  0  0  0  0  0  0
   -0.5889   -5.0982   -8.5021 C   0  0  0  0  0  0  0  0  0  0  0  0
   -1.8300   -4.8879   -5.3958 C   0  0  0  0  0  0  0  0  0  0  0  0
   -1.7605   -4.0929   -4.2520 C   0  0  0  0  0  0  0  0  0  0  0  0
   -2.8738   -0.7476   -2.9536 C   0  0  0  0  0  0  0  0  0  0  0  0
   -2.3566    0.4835   -2.5182 C   0  0  0  0  0  0  0  0  0  0  0  0
   -3.2083    1.5808   -2.3436 C   0  0  0  0  0  0  0  0  0  0  0  0
   -4.5791    1.4523   -2.5828 C   0  0  0  0  0  0  0  0  0  0  0  0
   -5.6785    2.8531   -2.3507 S   0  0  0  0  0  0  0  0  0  0  0  0
   -5.6378    3.3503   -4.1027 C   0  0  0  0  0  0  0  0  0  0  0  0
   -5.1059    0.2204   -2.9856 C   0  0  0  0  0  0  0  0  0  0  0  0
   -4.2572   -0.8728   -3.1736 C   0  0  0  0  0  0  0  0  0  0  0  0
   -2.0796   -2.8473   -0.8251 C   0  0  0  0  0  0  0  0  0  0  0  0
   -3.4998   -2.3008   -0.1266 S   0  0  0  0  0  0  0  0  0  0  0  0
   -3.1696   -2.9254    1.4240 C   0  0  0  0  0  0  0  0  0  0  0  0
   -1.9280   -3.5872    1.3707 C   0  0  0  0  0  0  0  0  0  0  0  0
   -1.3713   -4.3895    2.4240 N   0  0  0  0  0  0  0  0  0  0  0  0
   -1.1421   -5.7796    2.1580 C   0  0  0  0  0  0  0  0  0  0  0  0
    0.1585   -6.3116    2.1931 C   0  0  0  0  0  0  0  0  0  0  0  0
    0.3893   -7.6377    1.8080 C   0  0  0  0  0  0  0  0  0  0  0  0
   -0.6835   -8.4532    1.4243 C   0  0  0  0  0  0  0  0  0  0  0  0
   -0.3845  -10.1370    0.8827 S   0  0  0  0  0  0  0  0  0  0  0  0
   -0.3802  -10.8233    2.5670 C   0  0  0  0  0  0  0  0  0  0  0  0
   -1.9847   -7.9386    1.4136 C   0  0  0  0  0  0  0  0  0  0  0  0
   -2.2110   -6.6027    1.7700 C   0  0  0  0  0  0  0  0  0  0  0  0
   -0.9169   -3.8038    3.6520 C   0  0  0  0  0  0  0  0  0  0  0  0
   -0.0939   -2.6666    3.6413 C   0  0  0  0  0  0  0  0  0  0  0  0
    0.3084   -2.0788    4.8458 C   0  0  0  0  0  0  0  0  0  0  0  0
   -0.0945   -2.6351    6.0631 C   0  0  0  0  0  0  0  0  0  0  0  0
    0.4142   -1.8877    7.6096 S   0  0  0  0  0  0  0  0  0  0  0  0
   -1.1047   -0.9023    7.7756 C   0  0  0  0  0  0  0  0  0  0  0  0
   -0.8949   -3.7876    6.0785 C   0  0  0  0  0  0  0  0  0  0  0  0
   -1.3065   -4.3658    4.8790 C   0  0  0  0  0  0  0  0  0  0  0  0
   -1.3641   -3.5194    0.1015 C   0  0  0  0  0  0  0  0  0  0  0  0
    0.2328   -3.5909   -0.3957 S   0  0  0  0  0  0  0  0  0  0  0  0
   -3.7363   -2.2611    2.6032 C   0  0  0  0  0  0  0  0  0  0  0  0
   -5.0894   -1.9393    2.7108 C   0  0  0  0  0  0  0  0  0  0  0  0
   -5.3288   -0.7618    3.4525 C   0  0  0  0  0  0  0  0  0  0  0  0
   -6.5794   -0.1381    3.6190 C   0  0  0  0  0  0  0  0  0  0  0  0
   -7.8257   -0.7563    3.1330 C   0  0  0  0  0  0  0  0  0  0  0  0
   -8.2938   -2.0208    3.4595 C   0  0  0  0  0  0  0  0  0  0  0  0
   -9.5319   -2.3216    2.8742 C   0  0  0  0  0  0  0  0  0  0  0  0
  -10.0209   -1.2883    2.0777 C   0  0  0  0  0  0  0  0  0  0  0  0
  -11.3831   -1.2324    1.4610 C   0  0  0  0  0  0  0  0  0  0  0  0
  -12.3817   -0.6017    2.4235 C   0  0  0  0  0  0  0  0  0  0  0  0
   -8.9373   -0.0065    2.1142 S   0  0  0  0  0  0  0  0  0  0  0  0
   -6.5799    1.1408    4.2009 C   0  0  0  0  0  0  0  0  0  0  0  0
   -5.4048    1.7972    4.5926 C   0  0  0  0  0  0  0  0  0  0  0  0
   -4.1558    1.1399    4.5024 C   0  0  0  0  0  0  0  0  0  0  0  0
   -2.9069    1.7564    5.0140 C   0  0  0  0  0  0  0  0  0  0  0  0
   -2.7477    2.3126    6.2813 C   0  0  0  0  0  0  0  0  0  0  0  0
   -1.4346    2.6847    6.5759 C   0  0  0  0  0  0  0  0  0  0  0  0
   -0.5420    2.4352    5.5403 C   0  0  0  0  0  0  0  0  0  0  0  0
    0.9551    2.5167    5.6566 C   0  0  0  0  0  0  0  0  0  0  0  0
    1.6130    2.9740    4.3543 C   0  0  0  0  0  0  0  0  0  0  0  0
   -1.3922    1.7254    4.2695 S   0  0  0  0  0  0  0  0  0  0  0  0
   -4.1651   -0.1412    3.9119 C   0  0  0  0  0  0  0  0  0  0  0  0
   -2.8660   -1.0758    3.4269 S   0  0  0  0  0  0  0  0  0  0  0  0
   -5.6341    3.1272    4.9959 C   0  0  0  0  0  0  0  0  0  0  0  0
   -6.9863    3.4763    4.9421 C   0  0  0  0  0  0  0  0  0  0  0  0
   -7.8944    2.1478    4.4581 S   0  0  0  0  0  0  0  0  0  0  0  0
   -7.5937    4.7631    5.2858 C   0  0  0  0  0  0  0  0  0  0  0  0
   -7.2169    5.9713    4.8314 C   0  0  0  0  0  0  0  0  0  0  0  0
   -7.7429    7.2075    5.4236 C   0  0  0  0  0  0  0  0  0  0  0  0
   -8.7483    7.3167    6.1680 O   0  0  0  0  0  0  0  0  0  0  0  0
   -6.9215    8.2820    4.9437 C   0  0  0  0  0  0  0  0  0  0  0  0
   -7.0618    9.9569    4.9272 S   0  0  0  0  0  0  0  0  0  0  0  0
   -5.8403   10.1438    3.7623 C   0  0  0  0  0  0  0  0  0  0  0  0
   -5.3756    8.8903    3.3488 C   0  0  0  0  0  0  0  0  0  0  0  0
   -6.0115    7.8488    4.0428 C   0  0  0  0  0  0  0  0  0  0  0  0
   -6.1523    6.3790    3.8393 C   0  0  0  0  0  0  0  0  0  0  0  0
   -5.7108    5.7090    2.7493 C   0  0  0  0  0  0  0  0  0  0  0  0
   -4.6780    6.2373    1.8988 C   0  0  0  0  0  0  0  0  0  0  0  0
   -3.8653    6.6451    1.1853 N   0  0  0  0  0  0  0  0  0  0  0  0
   -6.3783    4.5425    2.2306 C   0  0  0  0  0  0  0  0  0  0  0  0
   -6.8930    3.6096    1.7704 N   0  0  0  0  0  0  0  0  0  0  0  0
    5.7439    2.1752   -4.6350 H   0  0  0  0  0  0  0  0  0  0  0  0
    7.6613    4.6535    0.6497 H   0  0  0  0  0  0  0  0  0  0  0  0
   10.9512    2.7360   -2.7499 H   0  0  0  0  0  0  0  0  0  0  0  0
   12.3884    5.1594   -0.6777 H   0  0  0  0  0  0  0  0  0  0  0  0
   13.6072    3.0420    0.1586 H   0  0  0  0  0  0  0  0  0  0  0  0
   11.8513    1.1155    0.7039 H   0  0  0  0  0  0  0  0  0  0  0  0
   10.1719    2.0291    2.4739 H   0  0  0  0  0  0  0  0  0  0  0  0
   10.8608    4.5194    3.0760 H   0  0  0  0  0  0  0  0  0  0  0  0
   13.2209    5.0135    1.9193 H   0  0  0  0  0  0  0  0  0  0  0  0
   13.2345    3.3872    2.7553 H   0  0  0  0  0  0  0  0  0  0  0  0
   10.8943    5.9968    0.9562 H   0  0  0  0  0  0  0  0  0  0  0  0
    4.3707    3.1698    1.4788 H   0  0  0  0  0  0  0  0  0  0  0  0
    5.7979    2.5170    3.3504 H   0  0  0  0  0  0  0  0  0  0  0  0
    5.6158   -1.4296    4.1982 H   0  0  0  0  0  0  0  0  0  0  0  0
    5.3284    0.1370    5.0799 H   0  0  0  0  0  0  0  0  0  0  0  0
    6.5094   -1.0670    5.7272 H   0  0  0  0  0  0  0  0  0  0  0  0
    6.7812   -1.1549    1.3378 H   0  0  0  0  0  0  0  0  0  0  0  0
    5.3629   -0.5175   -0.5553 H   0  0  0  0  0  0  0  0  0  0  0  0
    2.0044    1.6081    1.1514 H   0  0  0  0  0  0  0  0  0  0  0  0
    0.0404    3.0697    1.4398 H   0  0  0  0  0  0  0  0  0  0  0  0
    0.8130    6.9408    0.6378 H   0  0  0  0  0  0  0  0  0  0  0  0
    0.1832    5.9657    2.0322 H   0  0  0  0  0  0  0  0  0  0  0  0
   -0.7898    7.3313    1.3676 H   0  0  0  0  0  0  0  0  0  0  0  0
    1.2190    5.3518   -2.0071 H   0  0  0  0  0  0  0  0  0  0  0  0
    3.1701    3.8810   -2.3234 H   0  0  0  0  0  0  0  0  0  0  0  0
    0.7884   -2.7357   -7.3488 H   0  0  0  0  0  0  0  0  0  0  0  0
   -0.3877   -1.4440   -9.0541 H   0  0  0  0  0  0  0  0  0  0  0  0
   -0.6421    2.5839  -10.5108 H   0  0  0  0  0  0  0  0  0  0  0  0
    0.4834    1.3050   -9.8753 H   0  0  0  0  0  0  0  0  0  0  0  0
    0.0197    2.7043   -8.8300 H   0  0  0  0  0  0  0  0  0  0  0  0
   -1.1624    1.6719   -6.2011 H   0  0  0  0  0  0  0  0  0  0  0  0
    0.0384    0.4194   -4.4777 H   0  0  0  0  0  0  0  0  0  0  0  0
    3.2465   -2.1977   -6.5189 H   0  0  0  0  0  0  0  0  0  0  0  0
    4.5730   -4.2031   -7.0727 H   0  0  0  0  0  0  0  0  0  0  0  0
    6.3624   -5.4068   -5.4115 H   0  0  0  0  0  0  0  0  0  0  0  0
    5.6247   -6.1826   -3.9473 H   0  0  0  0  0  0  0  0  0  0  0  0
    6.7486   -7.1218   -5.0133 H   0  0  0  0  0  0  0  0  0  0  0  0
    2.3639   -6.4644   -4.1478 H   0  0  0  0  0  0  0  0  0  0  0  0
    0.9993   -4.4846   -3.6433 H   0  0  0  0  0  0  0  0  0  0  0  0
   -2.8571   -1.1545   -5.6026 H   0  0  0  0  0  0  0  0  0  0  0  0
   -3.0015   -2.5757   -7.5940 H   0  0  0  0  0  0  0  0  0  0  0  0
   -0.2855   -5.8185   -9.2854 H   0  0  0  0  0  0  0  0  0  0  0  0
   -0.4653   -4.0688   -8.8977 H   0  0  0  0  0  0  0  0  0  0  0  0
    0.0710   -5.2425   -7.6139 H   0  0  0  0  0  0  0  0  0  0  0  0
   -1.5366   -5.9294   -5.3391 H   0  0  0  0  0  0  0  0  0  0  0  0
   -1.4413   -4.5615   -3.3332 H   0  0  0  0  0  0  0  0  0  0  0  0
   -1.2966    0.5880   -2.3152 H   0  0  0  0  0  0  0  0  0  0  0  0
   -2.7970    2.5317   -2.0233 H   0  0  0  0  0  0  0  0  0  0  0  0
   -5.9703    2.5106   -4.7490 H   0  0  0  0  0  0  0  0  0  0  0  0
   -4.6074    3.6509   -4.3874 H   0  0  0  0  0  0  0  0  0  0  0  0
   -6.3189    4.2107   -4.2522 H   0  0  0  0  0  0  0  0  0  0  0  0
   -6.1689    0.1082   -3.1599 H   0  0  0  0  0  0  0  0  0  0  0  0
   -4.6795   -1.8297   -3.4615 H   0  0  0  0  0  0  0  0  0  0  0  0
    0.9961   -5.6850    2.4704 H   0  0  0  0  0  0  0  0  0  0  0  0
    1.3982   -8.0285    1.7966 H   0  0  0  0  0  0  0  0  0  0  0  0
   -1.3289  -10.5729    3.0914 H   0  0  0  0  0  0  0  0  0  0  0  0
   -0.2768  -11.9261    2.5085 H   0  0  0  0  0  0  0  0  0  0  0  0
    0.4807  -10.4136    3.1388 H   0  0  0  0  0  0  0  0  0  0  0  0
   -2.8192   -8.5625    1.1139 H   0  0  0  0  0  0  0  0  0  0  0  0
   -3.2193   -6.2036    1.7307 H   0  0  0  0  0  0  0  0  0  0  0  0
    0.2211   -2.2273    2.7038 H   0  0  0  0  0  0  0  0  0  0  0  0
    0.9209   -1.1892    4.8282 H   0  0  0  0  0  0  0  0  0  0  0  0
   -1.1545   -0.1552    6.9539 H   0  0  0  0  0  0  0  0  0  0  0  0
   -1.9997   -1.5622    7.7291 H   0  0  0  0  0  0  0  0  0  0  0  0
   -1.0950   -0.3793    8.7511 H   0  0  0  0  0  0  0  0  0  0  0  0
   -1.2111   -4.2182    7.0183 H   0  0  0  0  0  0  0  0  0  0  0  0
   -1.9393   -5.2431    4.8970 H   0  0  0  0  0  0  0  0  0  0  0  0
   -5.8528   -2.4503    2.1448 H   0  0  0  0  0  0  0  0  0  0  0  0
   -7.7737   -2.7052    4.1194 H   0  0  0  0  0  0  0  0  0  0  0  0
  -10.0666   -3.2452    3.0514 H   0  0  0  0  0  0  0  0  0  0  0  0
  -11.3374   -0.6163    0.5326 H   0  0  0  0  0  0  0  0  0  0  0  0
  -11.7199   -2.2589    1.1830 H   0  0  0  0  0  0  0  0  0  0  0  0
  -13.3687   -0.4931    1.9306 H   0  0  0  0  0  0  0  0  0  0  0  0
  -12.4949   -1.2471    3.3250 H   0  0  0  0  0  0  0  0  0  0  0  0
  -12.0280    0.4046    2.7441 H   0  0  0  0  0  0  0  0  0  0  0  0
   -3.5561    2.3937    6.9962 H   0  0  0  0  0  0  0  0  0  0  0  0
   -1.1324    3.0675    7.5435 H   0  0  0  0  0  0  0  0  0  0  0  0
    1.3442    1.5147    5.9336 H   0  0  0  0  0  0  0  0  0  0  0  0
    1.2257    3.2320    6.4607 H   0  0  0  0  0  0  0  0  0  0  0  0
    1.4159    2.2404    3.5484 H   0  0  0  0  0  0  0  0  0  0  0  0
    1.2337    3.9753    4.0557 H   0  0  0  0  0  0  0  0  0  0  0  0
    2.7117    3.0344    4.5056 H   0  0  0  0  0  0  0  0  0  0  0  0
   -4.8560    3.8254    5.2792 H   0  0  0  0  0  0  0  0  0  0  0  0
   -8.4445    4.7113    5.9527 H   0  0  0  0  0  0  0  0  0  0  0  0
   -5.5135   11.0899    3.3562 H   0  0  0  0  0  0  0  0  0  0  0  0
   -4.6666    8.7749    2.5487 H   0  0  0  0  0  0  0  0  0  0  0  0
  1  2  2  3
  2  3  1  0
  3  4  2  0
  3  5  1  0
  5  6  2  0
  6  7  1  0
  7  8  2  0
  8  9  1  0
  9 10  2  0
 10 11  1  0
 11 12  2  3
 12 13  1  0
 13 14  3  0
 12 15  1  0
 15 16  3  0
  8 17  1  0
 17 18  1  0
 18 19  1  0
 19 20  2  0
 20 21  1  0
 21 22  1  0
 21 23  1  0
  1 24  1  0
 24 25  2  0
 25 26  1  0
 26 27  1  0
 27 28  2  0
 28 29  1  0
 29 30  2  0
 30 31  1  0
 31 32  1  0
 30 33  1  0
 33 34  2  0
 26 35  1  0
 35 36  2  0
 36 37  1  0
 37 38  2  0
 38 39  1  0
 39 40  1  0
 38 41  1  0
 41 42  2  0
 25 43  1  0
 43 44  1  0
 44 45  1  0
 45 46  2  0
 46 47  1  0
 47 48  1  0
 48 49  2  0
 49 50  1  0
 50 51  2  0
 51 52  1  0
 52 53  1  0
 51 54  1  0
 54 55  2  0
 47 56  1  0
 56 57  2  0
 57 58  1  0
 58 59  2  0
 59 60  1  0
 60 61  1  0
 59 62  1  0
 62 63  2  0
 46 64  1  0
 64 65  1  0
 45 66  1  0
 66 67  2  0
 67 68  1  0
 68 69  1  0
 69 70  2  0
 70 71  1  0
 71 72  2  0
 72 73  1  0
 73 74  1  0
 72 75  1  0
 75 76  2  0
 68 77  1  0
 77 78  2  0
 78 79  1  0
 79 80  2  0
 80 81  1  0
 81 82  1  0
 80 83  1  0
 83 84  2  0
 67 85  1  0
 85 86  1  0
 86 87  1  0
 87 88  2  0
 88 89  1  0
 89 90  1  0
 90 91  2  0
 91 92  1  0
 92 93  2  0
 93 94  1  0
 94 95  1  0
 93 96  1  0
 96 97  2  0
 89 98  1  0
 98 99  2  0
 99100  1  0
100101  2  0
101102  1  0
102103  1  0
101104  1  0
104105  2  0
 88106  1  0
106107  1  0
 87108  1  0
108109  2  0
109110  1  0
110111  2  0
111112  1  0
112113  2  0
113114  1  0
114115  2  0
115116  1  0
116117  1  0
115118  1  0
111119  1  0
119120  2  0
120121  1  0
121122  1  0
122123  2  0
123124  1  0
124125  2  0
125126  1  0
126127  1  0
125128  1  0
121129  2  0
129130  1  0
120131  1  0
131132  2  0
132133  1  0
132134  1  0
134135  2  3
135136  1  0
136137  2  0
136138  1  0
138139  1  0
139140  1  0
140141  2  0
141142  1  0
142143  1  0
143144  2  3
144145  1  0
145146  3  0
144147  1  0
147148  3  0
 11  2  1  0
 23 17  1  0
 65 24  1  0
107 66  1  0
130108  1  0
143135  1  0
 10  5  1  0
 22 18  1  0
 34 27  1  0
 42 35  1  0
 64 43  2  0
 76 69  1  0
 84 77  1  0
106 85  2  0
129110  1  0
142138  2  0
 23  7  1  0
 55 48  1  0
 63 56  1  0
 97 90  1  0
105 98  1  0
118112  1  0
133119  1  0
128122  1  0
  1149  1  0
  6150  1  0
  9151  1  0
 17152  1  0
 18153  1  0
 19154  1  0
 20155  1  0
 21156  1  0
 22157  1  0
 22158  1  0
 23159  1  0
 28160  1  0
 29161  1  0
 32162  1  0
 32163  1  0
 32164  1  0
 33165  1  0
 34166  1  0
 36167  1  0
 37168  1  0
 40169  1  0
 40170  1  0
 40171  1  0
 41172  1  0
 42173  1  0
 49174  1  0
 50175  1  0
 53176  1  0
 53177  1  0
 53178  1  0
 54179  1  0
 55180  1  0
 57181  1  0
 58182  1  0
 61183  1  0
 61184  1  0
 61185  1  0
 62186  1  0
 63187  1  0
 70188  1  0
 71189  1  0
 74190  1  0
 74191  1  0
 74192  1  0
 75193  1  0
 76194  1  0
 78195  1  0
 79196  1  0
 82197  1  0
 82198  1  0
 82199  1  0
 83200  1  0
 84201  1  0
 91202  1  0
 92203  1  0
 95204  1  0
 95205  1  0
 95206  1  0
 96207  1  0
 97208  1  0
 99209  1  0
100210  1  0
103211  1  0
103212  1  0
103213  1  0
104214  1  0
105215  1  0
109216  1  0
113217  1  0
114218  1  0
116219  1  0
116220  1  0
117221  1  0
117222  1  0
117223  1  0
123224  1  0
124225  1  0
126226  1  0
126227  1  0
127228  1  0
127229  1  0
127230  1  0
131231  1  0
134232  1  0
140233  1  0
141234  1  0
M  END

