
     RDKit          3D

252278  0  0  0  0  0  0  0  0999 V2000
   -5.0318   -4.3548   -0.2595 C   0  0  0  0  0  0  0  0  0  0  0  0
   -5.9708   -3.8317   -1.0809 C   0  0  0  0  0  0  0  0  0  0  0  0
   -6.4712   -2.4498   -1.0150 C   0  0  0  0  0  0  0  0  0  0  0  0
   -6.4746   -1.6987   -0.0032 O   0  0  0  0  0  0  0  0  0  0  0  0
   -6.9964   -2.0724   -2.3005 C   0  0  0  0  0  0  0  0  0  0  0  0
   -7.3783   -0.7725   -2.6964 C   0  0  0  0  0  0  0  0  0  0  0  0
   -7.6779   -0.6679   -4.0385 C   0  0  0  0  0  0  0  0  0  0  0  0
   -7.5981   -1.7700   -4.9496 C   0  0  0  0  0  0  0  0  0  0  0  0
   -7.2211   -3.0491   -4.5623 C   0  0  0  0  0  0  0  0  0  0  0  0
   -6.9359   -3.1867   -3.1718 C   0  0  0  0  0  0  0  0  0  0  0  0
   -6.4076   -4.3648   -2.4143 C   0  0  0  0  0  0  0  0  0  0  0  0
   -6.4510   -5.6614   -2.8072 C   0  0  0  0  0  0  0  0  0  0  0  0
   -6.0310   -6.7379   -1.9495 C   0  0  0  0  0  0  0  0  0  0  0  0
   -5.6940   -7.6046   -1.2629 N   0  0  0  0  0  0  0  0  0  0  0  0
   -7.0551   -6.0722   -4.0502 C   0  0  0  0  0  0  0  0  0  0  0  0
   -7.5557   -6.4205   -5.0332 N   0  0  0  0  0  0  0  0  0  0  0  0
   -7.9824   -0.8702   -6.0896 C   0  0  0  0  0  0  0  0  0  0  0  0
   -6.8648   -0.4274   -7.0888 C   0  0  0  0  0  0  0  0  0  0  0  0
   -5.5313   -0.3680   -6.3807 C   0  0  0  0  0  0  0  0  0  0  0  0
   -5.6011    0.6460   -5.5218 C   0  0  0  0  0  0  0  0  0  0  0  0
   -6.9792    1.2455   -5.6758 C   0  0  0  0  0  0  0  0  0  0  0  0
   -7.1561    1.0602   -7.1704 C   0  0  0  0  0  0  0  0  0  0  0  0
   -8.0626    0.2527   -5.1561 C   0  0  0  0  0  0  0  0  0  0  0  0
   -4.3059   -3.4969    0.6888 C   0  0  0  0  0  0  0  0  0  0  0  0
   -3.4000   -2.5076    0.2607 C   0  0  0  0  0  0  0  0  0  0  0  0
   -2.4000   -2.6844   -0.7661 N   0  0  0  0  0  0  0  0  0  0  0  0
   -2.7452   -3.3206   -2.0043 C   0  0  0  0  0  0  0  0  0  0  0  0
   -2.4014   -4.6629   -2.2246 C   0  0  0  0  0  0  0  0  0  0  0  0
   -2.7542   -5.2898   -3.4221 C   0  0  0  0  0  0  0  0  0  0  0  0
   -3.4026   -4.5623   -4.4257 C   0  0  0  0  0  0  0  0  0  0  0  0
   -3.8048   -5.3396   -5.9887 S   0  0  0  0  0  0  0  0  0  0  0  0
   -2.1294   -5.1012   -6.6743 C   0  0  0  0  0  0  0  0  0  0  0  0
   -3.7262   -3.2148   -4.2162 C   0  0  0  0  0  0  0  0  0  0  0  0
   -3.4171   -2.5998   -2.9995 C   0  0  0  0  0  0  0  0  0  0  0  0
   -1.0058   -2.4157   -0.4788 C   0  0  0  0  0  0  0  0  0  0  0  0
   -0.4942   -2.5597    0.8287 C   0  0  0  0  0  0  0  0  0  0  0  0
    0.8387   -2.2409    1.1133 C   0  0  0  0  0  0  0  0  0  0  0  0
    1.6773   -1.7770    0.0982 C   0  0  0  0  0  0  0  0  0  0  0  0
    3.3757   -1.3443    0.4745 S   0  0  0  0  0  0  0  0  0  0  0  0
    3.0035    0.4293    0.5944 C   0  0  0  0  0  0  0  0  0  0  0  0
    1.1866   -1.6440   -1.2061 C   0  0  0  0  0  0  0  0  0  0  0  0
   -0.1369   -1.9886   -1.4988 C   0  0  0  0  0  0  0  0  0  0  0  0
   -3.4137   -1.4283    1.1296 C   0  0  0  0  0  0  0  0  0  0  0  0
   -2.7799    0.1124    1.0507 S   0  0  0  0  0  0  0  0  0  0  0  0
   -3.4547    0.6009    2.5366 C   0  0  0  0  0  0  0  0  0  0  0  0
   -4.1445   -0.4789    3.1142 C   0  0  0  0  0  0  0  0  0  0  0  0
   -4.4855   -0.5744    4.5039 N   0  0  0  0  0  0  0  0  0  0  0  0
   -3.6566   -1.4122    5.3532 C   0  0  0  0  0  0  0  0  0  0  0  0
   -4.2160   -2.1535    6.4132 C   0  0  0  0  0  0  0  0  0  0  0  0
   -3.4170   -2.9810    7.2058 C   0  0  0  0  0  0  0  0  0  0  0  0
   -2.0480   -3.1038    6.9401 C   0  0  0  0  0  0  0  0  0  0  0  0
   -1.0271   -4.1856    7.9419 S   0  0  0  0  0  0  0  0  0  0  0  0
   -1.3852   -5.6553    6.9313 C   0  0  0  0  0  0  0  0  0  0  0  0
   -1.4805   -2.3902    5.8806 C   0  0  0  0  0  0  0  0  0  0  0  0
   -2.2762   -1.5562    5.0901 C   0  0  0  0  0  0  0  0  0  0  0  0
   -5.7031    0.0384    4.9810 C   0  0  0  0  0  0  0  0  0  0  0  0
   -5.7631    0.5985    6.2707 C   0  0  0  0  0  0  0  0  0  0  0  0
   -6.9609    1.1293    6.7560 C   0  0  0  0  0  0  0  0  0  0  0  0
   -8.1113    1.1140    5.9607 C   0  0  0  0  0  0  0  0  0  0  0  0
   -9.6505    1.7753    6.5935 S   0  0  0  0  0  0  0  0  0  0  0  0
  -10.2211    0.1778    7.2516 C   0  0  0  0  0  0  0  0  0  0  0  0
   -8.0525    0.5917    4.6633 C   0  0  0  0  0  0  0  0  0  0  0  0
   -6.8570    0.0572    4.1751 C   0  0  0  0  0  0  0  0  0  0  0  0
   -4.1398   -1.5778    2.2602 C   0  0  0  0  0  0  0  0  0  0  0  0
   -4.9415   -3.0526    2.2196 S   0  0  0  0  0  0  0  0  0  0  0  0
   -3.1585    1.9178    3.0991 C   0  0  0  0  0  0  0  0  0  0  0  0
   -2.0272    2.0768    3.8954 C   0  0  0  0  0  0  0  0  0  0  0  0
   -1.2231    3.1683    3.5246 C   0  0  0  0  0  0  0  0  0  0  0  0
    0.1269    3.3290    3.8859 C   0  0  0  0  0  0  0  0  0  0  0  0
    0.7133    2.5222    4.9707 C   0  0  0  0  0  0  0  0  0  0  0  0
    1.4098    1.3374    4.6924 C   0  0  0  0  0  0  0  0  0  0  0  0
    1.8575    0.5224    5.7365 C   0  0  0  0  0  0  0  0  0  0  0  0
    1.6252    0.8892    7.0754 C   0  0  0  0  0  0  0  0  0  0  0  0
    2.0727    0.0005    8.2043 C   0  0  0  0  0  0  0  0  0  0  0  0
    0.9447   -0.9265    8.6473 C   0  0  0  0  0  0  0  0  0  0  0  0
    0.9146    2.0703    7.3474 C   0  0  0  0  0  0  0  0  0  0  0  0
    0.4628    2.8783    6.3042 C   0  0  0  0  0  0  0  0  0  0  0  0
    0.9064    4.1535    3.0577 C   0  0  0  0  0  0  0  0  0  0  0  0
    0.3673    4.8688    1.9796 C   0  0  0  0  0  0  0  0  0  0  0  0
   -1.0196    4.8443    1.7388 C   0  0  0  0  0  0  0  0  0  0  0  0
   -1.6248    5.5826    0.6180 C   0  0  0  0  0  0  0  0  0  0  0  0
   -1.9911    6.9274    0.7881 C   0  0  0  0  0  0  0  0  0  0  0  0
   -2.5993    7.6278   -0.2532 C   0  0  0  0  0  0  0  0  0  0  0  0
   -2.8372    6.9987   -1.4895 C   0  0  0  0  0  0  0  0  0  0  0  0
   -3.5423    7.7328   -2.5942 C   0  0  0  0  0  0  0  0  0  0  0  0
   -5.0215    7.3568   -2.6349 C   0  0  0  0  0  0  0  0  0  0  0  0
   -2.4737    5.6524   -1.6571 C   0  0  0  0  0  0  0  0  0  0  0  0
   -1.8856    4.9481   -0.6060 C   0  0  0  0  0  0  0  0  0  0  0  0
   -1.7773    3.9442    2.5032 C   0  0  0  0  0  0  0  0  0  0  0  0
   -3.2422    3.2575    2.0695 S   0  0  0  0  0  0  0  0  0  0  0  0
    1.3461    5.3431    1.0793 C   0  0  0  0  0  0  0  0  0  0  0  0
    2.6458    4.9600    1.4199 C   0  0  0  0  0  0  0  0  0  0  0  0
    2.5720    4.1226    2.8918 S   0  0  0  0  0  0  0  0  0  0  0  0
    3.7322    4.6755    0.4539 C   0  0  0  0  0  0  0  0  0  0  0  0
    3.4967    4.1022   -0.8184 C   0  0  0  0  0  0  0  0  0  0  0  0
    2.4257    4.4810   -1.7024 N   0  0  0  0  0  0  0  0  0  0  0  0
    1.4172    3.5119   -2.0600 C   0  0  0  0  0  0  0  0  0  0  0  0
    0.9545    3.4161   -3.3835 C   0  0  0  0  0  0  0  0  0  0  0  0
   -0.0389    2.4959   -3.7233 C   0  0  0  0  0  0  0  0  0  0  0  0
   -0.5763    1.6450   -2.7499 C   0  0  0  0  0  0  0  0  0  0  0  0
   -1.6825    0.7049   -3.1200 C   0  0  0  0  0  0  0  0  0  0  0  0
   -0.0962    1.7149   -1.4309 C   0  0  0  0  0  0  0  0  0  0  0  0
    0.8858    2.6468   -1.0891 C   0  0  0  0  0  0  0  0  0  0  0  0
    2.4950    5.7634   -2.3694 C   0  0  0  0  0  0  0  0  0  0  0  0
    1.3271    6.5118   -2.6042 C   0  0  0  0  0  0  0  0  0  0  0  0
    1.3885    7.7293   -3.2882 C   0  0  0  0  0  0  0  0  0  0  0  0
    2.6160    8.2116   -3.7687 C   0  0  0  0  0  0  0  0  0  0  0  0
    2.6845    9.5259   -4.5007 C   0  0  0  0  0  0  0  0  0  0  0  0
    3.7871    7.4859   -3.5123 C   0  0  0  0  0  0  0  0  0  0  0  0
    3.7297    6.2698   -2.8232 C   0  0  0  0  0  0  0  0  0  0  0  0
    4.4898    3.1843   -1.1675 C   0  0  0  0  0  0  0  0  0  0  0  0
    4.6345    1.9687   -2.3189 S   0  0  0  0  0  0  0  0  0  0  0  0
    6.0438    1.2819   -1.6277 C   0  0  0  0  0  0  0  0  0  0  0  0
    6.4191    2.0786   -0.5316 C   0  0  0  0  0  0  0  0  0  0  0  0
    7.7222    2.0611    0.0711 N   0  0  0  0  0  0  0  0  0  0  0  0
    8.6181    3.1156   -0.3305 C   0  0  0  0  0  0  0  0  0  0  0  0
    8.8320    3.3615   -1.6986 C   0  0  0  0  0  0  0  0  0  0  0  0
    9.5000    4.5128   -2.1130 C   0  0  0  0  0  0  0  0  0  0  0  0
    9.9696    5.4357   -1.1679 C   0  0  0  0  0  0  0  0  0  0  0  0
   10.5717    6.7371   -1.6217 C   0  0  0  0  0  0  0  0  0  0  0  0
    9.7778    5.1811    0.2002 C   0  0  0  0  0  0  0  0  0  0  0  0
    9.1135    4.0231    0.6159 C   0  0  0  0  0  0  0  0  0  0  0  0
    8.0744    1.0927    1.0842 C   0  0  0  0  0  0  0  0  0  0  0  0
    7.0815    0.5081    1.8903 C   0  0  0  0  0  0  0  0  0  0  0  0
    7.4164   -0.4449    2.8534 C   0  0  0  0  0  0  0  0  0  0  0  0
    8.7507   -0.8396    3.0236 C   0  0  0  0  0  0  0  0  0  0  0  0
    9.1152   -1.8387    4.0846 C   0  0  0  0  0  0  0  0  0  0  0  0
    9.7496   -0.2477    2.2345 C   0  0  0  0  0  0  0  0  0  0  0  0
    9.4144    0.7068    1.2698 C   0  0  0  0  0  0  0  0  0  0  0  0
    5.5154    3.0997   -0.2982 C   0  0  0  0  0  0  0  0  0  0  0  0
    5.2492    4.1116    1.0063 S   0  0  0  0  0  0  0  0  0  0  0  0
    6.8094    0.0780   -2.0350 C   0  0  0  0  0  0  0  0  0  0  0  0
    6.3291   -1.0750   -2.5515 C   0  0  0  0  0  0  0  0  0  0  0  0
    4.9309   -1.4095   -2.8722 C   0  0  0  0  0  0  0  0  0  0  0  0
    4.0607   -0.6213   -3.3343 O   0  0  0  0  0  0  0  0  0  0  0  0
    4.7505   -2.8432   -2.7587 C   0  0  0  0  0  0  0  0  0  0  0  0
    3.5417   -3.5738   -2.8480 C   0  0  0  0  0  0  0  0  0  0  0  0
    3.6749   -4.9225   -2.5801 C   0  0  0  0  0  0  0  0  0  0  0  0
    4.9255   -5.5330   -2.2559 C   0  0  0  0  0  0  0  0  0  0  0  0
    6.1151   -4.8308   -2.1836 C   0  0  0  0  0  0  0  0  0  0  0  0
    6.0066   -3.4412   -2.4804 C   0  0  0  0  0  0  0  0  0  0  0  0
    7.0566   -2.3873   -2.4994 C   0  0  0  0  0  0  0  0  0  0  0  0
    8.3950   -2.5888   -2.6482 C   0  0  0  0  0  0  0  0  0  0  0  0
    8.9765   -3.9023   -2.7352 C   0  0  0  0  0  0  0  0  0  0  0  0
    9.4599   -4.9506   -2.7899 N   0  0  0  0  0  0  0  0  0  0  0  0
    9.3349   -1.5044   -2.7859 C   0  0  0  0  0  0  0  0  0  0  0  0
   10.1116   -0.6429   -2.8656 N   0  0  0  0  0  0  0  0  0  0  0  0
    4.2603   -6.8695   -2.1235 C   0  0  0  0  0  0  0  0  0  0  0  0
    4.0571   -7.4062   -0.6763 C   0  0  0  0  0  0  0  0  0  0  0  0
    3.0459   -8.5191   -0.7919 C   0  0  0  0  0  0  0  0  0  0  0  0
    1.8703   -7.9404   -1.0743 C   0  0  0  0  0  0  0  0  0  0  0  0
    2.1312   -6.4557   -1.1493 C   0  0  0  0  0  0  0  0  0  0  0  0
    3.1662   -6.3512   -0.0403 C   0  0  0  0  0  0  0  0  0  0  0  0
    2.9736   -6.2370   -2.4434 C   0  0  0  0  0  0  0  0  0  0  0  0
   -4.5918   -5.3177   -0.4556 H   0  0  0  0  0  0  0  0  0  0  0  0
   -7.3857    0.0798   -2.0279 H   0  0  0  0  0  0  0  0  0  0  0  0
   -7.0975   -3.8297   -5.2934 H   0  0  0  0  0  0  0  0  0  0  0  0
   -8.9548   -1.1277   -6.5640 H   0  0  0  0  0  0  0  0  0  0  0  0
   -6.8569   -0.9630   -8.0635 H   0  0  0  0  0  0  0  0  0  0  0  0
   -4.6473   -0.9558   -6.6028 H   0  0  0  0  0  0  0  0  0  0  0  0
   -4.7855    1.0149   -4.9058 H   0  0  0  0  0  0  0  0  0  0  0  0
   -7.0809    2.2921   -5.3091 H   0  0  0  0  0  0  0  0  0  0  0  0
   -6.4144    1.6293   -7.7822 H   0  0  0  0  0  0  0  0  0  0  0  0
   -8.1841    1.2958   -7.5278 H   0  0  0  0  0  0  0  0  0  0  0  0
   -9.0841    0.6826   -5.0536 H   0  0  0  0  0  0  0  0  0  0  0  0
   -1.8840   -5.2256   -1.4588 H   0  0  0  0  0  0  0  0  0  0  0  0
   -2.5073   -6.3307   -3.5745 H   0  0  0  0  0  0  0  0  0  0  0  0
   -1.4665   -5.8941   -6.2763 H   0  0  0  0  0  0  0  0  0  0  0  0
   -1.7244   -4.1045   -6.4075 H   0  0  0  0  0  0  0  0  0  0  0  0
   -2.1643   -5.1955   -7.7804 H   0  0  0  0  0  0  0  0  0  0  0  0
   -4.2305   -2.6487   -4.9872 H   0  0  0  0  0  0  0  0  0  0  0  0
   -3.6979   -1.5674   -2.8357 H   0  0  0  0  0  0  0  0  0  0  0  0
   -1.1226   -2.9170    1.6333 H   0  0  0  0  0  0  0  0  0  0  0  0
    1.2071   -2.3369    2.1238 H   0  0  0  0  0  0  0  0  0  0  0  0
    2.8083    0.8125   -0.4250 H   0  0  0  0  0  0  0  0  0  0  0  0
    2.1174    0.6076    1.2379 H   0  0  0  0  0  0  0  0  0  0  0  0
    3.8732    0.9631    1.0202 H   0  0  0  0  0  0  0  0  0  0  0  0
    1.8163   -1.2468   -1.9878 H   0  0  0  0  0  0  0  0  0  0  0  0
   -0.4858   -1.8884   -2.5171 H   0  0  0  0  0  0  0  0  0  0  0  0
   -5.2788   -2.1112    6.6156 H   0  0  0  0  0  0  0  0  0  0  0  0
   -3.8638   -3.5445    8.0151 H   0  0  0  0  0  0  0  0  0  0  0  0
   -1.0971   -5.4744    5.8754 H   0  0  0  0  0  0  0  0  0  0  0  0
   -0.7987   -6.5137    7.3244 H   0  0  0  0  0  0  0  0  0  0  0  0
   -2.4661   -5.8983    6.9909 H   0  0  0  0  0  0  0  0  0  0  0  0
   -0.4223   -2.4858    5.6629 H   0  0  0  0  0  0  0  0  0  0  0  0
   -1.8090   -1.0371    4.2665 H   0  0  0  0  0  0  0  0  0  0  0  0
   -4.8866    0.6115    6.9058 H   0  0  0  0  0  0  0  0  0  0  0  0
   -6.9946    1.5403    7.7584 H   0  0  0  0  0  0  0  0  0  0  0  0
  -11.2055    0.3143    7.7459 H   0  0  0  0  0  0  0  0  0  0  0  0
   -9.4944   -0.2076    7.9963 H   0  0  0  0  0  0  0  0  0  0  0  0
  -10.3341   -0.5552    6.4269 H   0  0  0  0  0  0  0  0  0  0  0  0
   -8.9380    0.5830    4.0393 H   0  0  0  0  0  0  0  0  0  0  0  0
   -6.8447   -0.3682    3.1804 H   0  0  0  0  0  0  0  0  0  0  0  0
   -1.6636    1.2898    4.5415 H   0  0  0  0  0  0  0  0  0  0  0  0
    1.5759    1.0264    3.6669 H   0  0  0  0  0  0  0  0  0  0  0  0
    2.3783   -0.3999    5.5054 H   0  0  0  0  0  0  0  0  0  0  0  0
    2.3966    0.6196    9.0684 H   0  0  0  0  0  0  0  0  0  0  0  0
    2.9455   -0.6126    7.8939 H   0  0  0  0  0  0  0  0  0  0  0  0
    0.0642   -0.3375    8.9847 H   0  0  0  0  0  0  0  0  0  0  0  0
    0.6422   -1.5872    7.8103 H   0  0  0  0  0  0  0  0  0  0  0  0
    1.2920   -1.5606    9.4912 H   0  0  0  0  0  0  0  0  0  0  0  0
    0.7010    2.3553    8.3711 H   0  0  0  0  0  0  0  0  0  0  0  0
   -0.1054    3.7733    6.5328 H   0  0  0  0  0  0  0  0  0  0  0  0
   -1.8169    7.4233    1.7378 H   0  0  0  0  0  0  0  0  0  0  0  0
   -2.8953    8.6578   -0.0949 H   0  0  0  0  0  0  0  0  0  0  0  0
   -3.4495    8.8318   -2.4563 H   0  0  0  0  0  0  0  0  0  0  0  0
   -3.0727    7.4842   -3.5711 H   0  0  0  0  0  0  0  0  0  0  0  0
   -5.5394    7.9608   -3.4080 H   0  0  0  0  0  0  0  0  0  0  0  0
   -5.4981    7.5510   -1.6489 H   0  0  0  0  0  0  0  0  0  0  0  0
   -5.1335    6.2824   -2.8927 H   0  0  0  0  0  0  0  0  0  0  0  0
   -2.6657    5.1447   -2.5964 H   0  0  0  0  0  0  0  0  0  0  0  0
   -1.6346    3.9055   -0.7426 H   0  0  0  0  0  0  0  0  0  0  0  0
    1.0900    5.7978    0.1339 H   0  0  0  0  0  0  0  0  0  0  0  0
    1.3606    4.0531   -4.1594 H   0  0  0  0  0  0  0  0  0  0  0  0
   -0.3928    2.4473   -4.7464 H   0  0  0  0  0  0  0  0  0  0  0  0
   -1.3616    0.0692   -3.9711 H   0  0  0  0  0  0  0  0  0  0  0  0
   -1.9592    0.0553   -2.2659 H   0  0  0  0  0  0  0  0  0  0  0  0
   -2.5782    1.2877   -3.4162 H   0  0  0  0  0  0  0  0  0  0  0  0
   -0.4949    1.0634   -0.6647 H   0  0  0  0  0  0  0  0  0  0  0  0
    1.2175    2.7052   -0.0614 H   0  0  0  0  0  0  0  0  0  0  0  0
    0.3670    6.1531   -2.2589 H   0  0  0  0  0  0  0  0  0  0  0  0
    0.4782    8.2931   -3.4520 H   0  0  0  0  0  0  0  0  0  0  0  0
    2.8883   10.3413   -3.7781 H   0  0  0  0  0  0  0  0  0  0  0  0
    3.4938    9.5023   -5.2634 H   0  0  0  0  0  0  0  0  0  0  0  0
    1.7310    9.7344   -5.0247 H   0  0  0  0  0  0  0  0  0  0  0  0
    4.7444    7.8521   -3.8616 H   0  0  0  0  0  0  0  0  0  0  0  0
    4.6458    5.7148   -2.6717 H   0  0  0  0  0  0  0  0  0  0  0  0
    8.4337    2.6821   -2.4445 H   0  0  0  0  0  0  0  0  0  0  0  0
    9.6129    4.7011   -3.1746 H   0  0  0  0  0  0  0  0  0  0  0  0
   11.0391    6.6248   -2.6241 H   0  0  0  0  0  0  0  0  0  0  0  0
    9.7716    7.5028   -1.6833 H   0  0  0  0  0  0  0  0  0  0  0  0
   11.3436    7.0773   -0.9073 H   0  0  0  0  0  0  0  0  0  0  0  0
   10.1056    5.8969    0.9439 H   0  0  0  0  0  0  0  0  0  0  0  0
    8.9204    3.8652    1.6706 H   0  0  0  0  0  0  0  0  0  0  0  0
    6.0494    0.8011    1.7892 H   0  0  0  0  0  0  0  0  0  0  0  0
    6.6371   -0.8746    3.4710 H   0  0  0  0  0  0  0  0  0  0  0  0
    9.2178   -1.3217    5.0612 H   0  0  0  0  0  0  0  0  0  0  0  0
    8.3250   -2.6149    4.1710 H   0  0  0  0  0  0  0  0  0  0  0  0
   10.0734   -2.3452    3.8433 H   0  0  0  0  0  0  0  0  0  0  0  0
   10.7892   -0.5268    2.3622 H   0  0  0  0  0  0  0  0  0  0  0  0
   10.1991    1.1380    0.6607 H   0  0  0  0  0  0  0  0  0  0  0  0
    7.8084    0.0676   -1.6358 H   0  0  0  0  0  0  0  0  0  0  0  0
    2.5927   -3.1258   -3.1041 H   0  0  0  0  0  0  0  0  0  0  0  0
    7.0254   -5.3195   -1.8855 H   0  0  0  0  0  0  0  0  0  0  0  0
    4.6170   -7.6136   -2.8720 H   0  0  0  0  0  0  0  0  0  0  0  0
    4.9855   -7.6588   -0.1199 H   0  0  0  0  0  0  0  0  0  0  0  0
    3.2043   -9.5745   -0.5956 H   0  0  0  0  0  0  0  0  0  0  0  0
    0.9101   -8.4435   -1.1360 H   0  0  0  0  0  0  0  0  0  0  0  0
    1.2362   -5.8108   -1.0408 H   0  0  0  0  0  0  0  0  0  0  0  0
    2.7719   -6.6533    0.9635 H   0  0  0  0  0  0  0  0  0  0  0  0
    3.6401   -5.3492    0.0472 H   0  0  0  0  0  0  0  0  0  0  0  0
    2.5049   -6.5844   -3.3893 H   0  0  0  0  0  0  0  0  0  0  0  0
  1  2  2  3
  2  3  1  0
  3  4  2  0
  3  5  1  0
  5  6  2  0
  6  7  1  0
  7  8  2  0
  8  9  1  0
  9 10  2  0
 10 11  1  0
 11 12  2  3
 12 13  1  0
 13 14  3  0
 12 15  1  0
 15 16  3  0
  8 17  1  0
 17 18  1  0
 18 19  1  0
 19 20  2  0
 20 21  1  0
 21 22  1  0
 21 23  1  0
  1 24  1  0
 24 25  2  0
 25 26  1  0
 26 27  1  0
 27 28  2  0
 28 29  1  0
 29 30  2  0
 30 31  1  0
 31 32  1  0
 30 33  1  0
 33 34  2  0
 26 35  1  0
 35 36  2  0
 36 37  1  0
 37 38  2  0
 38 39  1  0
 39 40  1  0
 38 41  1  0
 41 42  2  0
 25 43  1  0
 43 44  1  0
 44 45  1  0
 45 46  2  0
 46 47  1  0
 47 48  1  0
 48 49  2  0
 49 50  1  0
 50 51  2  0
 51 52  1  0
 52 53  1  0
 51 54  1  0
 54 55  2  0
 47 56  1  0
 56 57  2  0
 57 58  1  0
 58 59  2  0
 59 60  1  0
 60 61  1  0
 59 62  1  0
 62 63  2  0
 46 64  1  0
 64 65  1  0
 45 66  1  0
 66 67  2  0
 67 68  1  0
 68 69  2  0
 69 70  1  0
 70 71  2  0
 71 72  1  0
 72 73  2  0
 73 74  1  0
 74 75  1  0
 73 76  1  0
 76 77  2  0
 69 78  1  0
 78 79  2  0
 79 80  1  0
 80 81  1  0
 81 82  2  0
 82 83  1  0
 83 84  2  0
 84 85  1  0
 85 86  1  0
 84 87  1  0
 87 88  2  0
 80 89  2  0
 89 90  1  0
 79 91  1  0
 91 92  2  0
 92 93  1  0
 92 94  1  0
 94 95  2  0
 95 96  1  0
 96 97  1  0
 97 98  2  0
 98 99  1  0
 99100  2  0
100101  1  0
100102  1  0
102103  2  0
 96104  1  0
104105  2  0
105106  1  0
106107  2  0
107108  1  0
107109  1  0
109110  2  0
 95111  1  0
111112  1  0
112113  1  0
113114  2  0
114115  1  0
115116  1  0
116117  2  0
117118  1  0
118119  2  0
119120  1  0
119121  1  0
121122  2  0
115123  1  0
123124  2  0
124125  1  0
125126  2  0
126127  1  0
126128  1  0
128129  2  0
114130  1  0
130131  1  0
113132  1  0
132133  2  3
133134  1  0
134135  2  0
134136  1  0
136137  2  0
137138  1  0
138139  2  0
139140  1  0
140141  2  0
141142  1  0
142143  2  3
143144  1  0
144145  3  0
143146  1  0
146147  3  0
139148  1  0
148149  1  0
149150  1  0
150151  2  0
151152  1  0
152153  1  0
152154  1  0
 11  2  1  0
 23 17  1  0
 65 24  1  0
 90 66  1  0
131 94  1  0
142133  1  0
154148  1  0
 10  5  1  0
 22 18  1  0
 34 27  1  0
 42 35  1  0
 64 43  2  0
 89 68  1  0
103 97  1  0
110104  1  0
130111  2  0
141136  1  0
153149  1  0
 23  7  1  0
 55 48  1  0
 63 56  1  0
 77 70  1  0
 93 78  1  0
122116  1  0
129123  1  0
154138  1  0
 88 81  1  0
  1155  1  0
  6156  1  0
  9157  1  0
 17158  1  0
 18159  1  0
 19160  1  0
 20161  1  0
 21162  1  0
 22163  1  0
 22164  1  0
 23165  1  0
 28166  1  0
 29167  1  0
 32168  1  0
 32169  1  0
 32170  1  0
 33171  1  0
 34172  1  0
 36173  1  0
 37174  1  0
 40175  1  0
 40176  1  0
 40177  1  0
 41178  1  0
 42179  1  0
 49180  1  0
 50181  1  0
 53182  1  0
 53183  1  0
 53184  1  0
 54185  1  0
 55186  1  0
 57187  1  0
 58188  1  0
 61189  1  0
 61190  1  0
 61191  1  0
 62192  1  0
 63193  1  0
 67194  1  0
 71195  1  0
 72196  1  0
 74197  1  0
 74198  1  0
 75199  1  0
 75200  1  0
 75201  1  0
 76202  1  0
 77203  1  0
 82204  1  0
 83205  1  0
 85206  1  0
 85207  1  0
 86208  1  0
 86209  1  0
 86210  1  0
 87211  1  0
 88212  1  0
 91213  1  0
 98214  1  0
 99215  1  0
101216  1  0
101217  1  0
101218  1  0
102219  1  0
103220  1  0
105221  1  0
106222  1  0
108223  1  0
108224  1  0
108225  1  0
109226  1  0
110227  1  0
117228  1  0
118229  1  0
120230  1  0
120231  1  0
120232  1  0
121233  1  0
122234  1  0
124235  1  0
125236  1  0
127237  1  0
127238  1  0
127239  1  0
128240  1  0
129241  1  0
132242  1  0
137243  1  0
140244  1  0
148245  1  0
149246  1  0
150247  1  0
151248  1  0
152249  1  0
153250  1  0
153251  1  0
154252  1  0
M  END

