
     RDKit          3D

166184  0  0  0  0  0  0  0  0999 V2000
   -0.4257    4.3551   -3.1129 C   0  0  0  0  0  0  0  0  0  0  0  0
   -1.6514    4.2194   -3.6437 C   0  0  0  0  0  0  0  0  0  0  0  0
   -2.8512    3.8512   -2.8874 C   0  0  0  0  0  0  0  0  0  0  0  0
   -2.9002    3.5630   -1.6605 O   0  0  0  0  0  0  0  0  0  0  0  0
   -3.9985    3.9505   -3.7596 C   0  0  0  0  0  0  0  0  0  0  0  0
   -5.3307    3.5862   -3.4513 C   0  0  0  0  0  0  0  0  0  0  0  0
   -6.2052    3.6997   -4.5153 C   0  0  0  0  0  0  0  0  0  0  0  0
   -5.8013    4.1387   -5.8129 C   0  0  0  0  0  0  0  0  0  0  0  0
   -4.4954    4.4767   -6.1275 C   0  0  0  0  0  0  0  0  0  0  0  0
   -3.5737    4.3865   -5.0416 C   0  0  0  0  0  0  0  0  0  0  0  0
   -2.0909    4.5704   -5.0332 C   0  0  0  0  0  0  0  0  0  0  0  0
   -1.2982    4.8599   -6.0997 C   0  0  0  0  0  0  0  0  0  0  0  0
   -1.8204    5.3834   -7.3314 C   0  0  0  0  0  0  0  0  0  0  0  0
   -2.2255    5.8191   -8.3221 N   0  0  0  0  0  0  0  0  0  0  0  0
    0.1293    4.6731   -6.0824 C   0  0  0  0  0  0  0  0  0  0  0  0
    1.2762    4.5202   -6.0833 N   0  0  0  0  0  0  0  0  0  0  0  0
   -7.2009    3.9713   -6.3255 C   0  0  0  0  0  0  0  0  0  0  0  0
   -7.5023    2.7526   -7.2514 C   0  0  0  0  0  0  0  0  0  0  0  0
   -6.5904    1.5985   -6.9001 C   0  0  0  0  0  0  0  0  0  0  0  0
   -6.9574    1.1828   -5.6884 C   0  0  0  0  0  0  0  0  0  0  0  0
   -8.1090    2.0603   -5.2561 C   0  0  0  0  0  0  0  0  0  0  0  0
   -8.7801    2.2513   -6.6045 C   0  0  0  0  0  0  0  0  0  0  0  0
   -7.6111    3.5128   -4.9974 C   0  0  0  0  0  0  0  0  0  0  0  0
    0.0005    3.7029   -1.8699 C   0  0  0  0  0  0  0  0  0  0  0  0
    0.0701    2.3025   -1.7039 C   0  0  0  0  0  0  0  0  0  0  0  0
   -0.3933    1.3474   -2.6786 N   0  0  0  0  0  0  0  0  0  0  0  0
    0.3931    1.0852   -3.8773 C   0  0  0  0  0  0  0  0  0  0  0  0
   -0.0598    0.1934   -4.8768 C   0  0  0  0  0  0  0  0  0  0  0  0
    0.6800   -0.0095   -6.0443 C   0  0  0  0  0  0  0  0  0  0  0  0
    1.8998    0.6425   -6.2275 C   0  0  0  0  0  0  0  0  0  0  0  0
    2.8346    0.3972   -7.7360 S   0  0  0  0  0  0  0  0  0  0  0  0
    3.7784   -1.0080   -7.0708 C   0  0  0  0  0  0  0  0  0  0  0  0
    2.3838    1.4982   -5.2342 C   0  0  0  0  0  0  0  0  0  0  0  0
    1.6419    1.7173   -4.0727 C   0  0  0  0  0  0  0  0  0  0  0  0
   -1.5955    0.6050   -2.3720 C   0  0  0  0  0  0  0  0  0  0  0  0
   -2.7319    0.7151   -3.1922 C   0  0  0  0  0  0  0  0  0  0  0  0
   -3.8968    0.0017   -2.8951 C   0  0  0  0  0  0  0  0  0  0  0  0
   -3.9312   -0.8519   -1.7899 C   0  0  0  0  0  0  0  0  0  0  0  0
   -5.3954   -1.8312   -1.4514 S   0  0  0  0  0  0  0  0  0  0  0  0
   -6.0678   -0.6595   -0.2278 C   0  0  0  0  0  0  0  0  0  0  0  0
   -2.8063   -0.9649   -0.9652 C   0  0  0  0  0  0  0  0  0  0  0  0
   -1.6542   -0.2363   -1.2467 C   0  0  0  0  0  0  0  0  0  0  0  0
    0.9927    1.9696   -0.7131 C   0  0  0  0  0  0  0  0  0  0  0  0
    1.7959    0.5481   -0.3726 S   0  0  0  0  0  0  0  0  0  0  0  0
    2.9258    1.2689    0.6734 C   0  0  0  0  0  0  0  0  0  0  0  0
    2.6844    2.6568    0.7586 C   0  0  0  0  0  0  0  0  0  0  0  0
    3.4536    3.6024    1.5453 N   0  0  0  0  0  0  0  0  0  0  0  0
    4.8017    3.3005    1.9567 C   0  0  0  0  0  0  0  0  0  0  0  0
    5.7879    3.0078    1.0009 C   0  0  0  0  0  0  0  0  0  0  0  0
    7.0623    2.5996    1.4039 C   0  0  0  0  0  0  0  0  0  0  0  0
    7.3697    2.5193    2.7688 C   0  0  0  0  0  0  0  0  0  0  0  0
    8.9704    1.9051    3.3028 S   0  0  0  0  0  0  0  0  0  0  0  0
    9.8043    3.5149    3.1914 C   0  0  0  0  0  0  0  0  0  0  0  0
    6.4062    2.8585    3.7232 C   0  0  0  0  0  0  0  0  0  0  0  0
    5.1315    3.2617    3.3209 C   0  0  0  0  0  0  0  0  0  0  0  0
    2.8628    4.8468    1.9710 C   0  0  0  0  0  0  0  0  0  0  0  0
    3.5352    6.0564    1.7504 C   0  0  0  0  0  0  0  0  0  0  0  0
    2.9161    7.2760    2.0560 C   0  0  0  0  0  0  0  0  0  0  0  0
    1.6279    7.2879    2.5954 C   0  0  0  0  0  0  0  0  0  0  0  0
    0.7971    8.8506    2.8892 S   0  0  0  0  0  0  0  0  0  0  0  0
    0.0861    8.9088    1.2107 C   0  0  0  0  0  0  0  0  0  0  0  0
    0.9678    6.0832    2.8630 C   0  0  0  0  0  0  0  0  0  0  0  0
    1.5802    4.8666    2.5511 C   0  0  0  0  0  0  0  0  0  0  0  0
    1.6002    3.0054   -0.0701 C   0  0  0  0  0  0  0  0  0  0  0  0
    1.0824    4.4415   -0.7764 S   0  0  0  0  0  0  0  0  0  0  0  0
    3.9688    0.4593    1.3056 C   0  0  0  0  0  0  0  0  0  0  0  0
    3.8204    0.0176    2.6166 C   0  0  0  0  0  0  0  0  0  0  0  0
    3.0078    0.4956    3.5785 N   0  0  0  0  0  0  0  0  0  0  0  0
    3.1100   -0.3832    4.5715 N   0  0  0  0  0  0  0  0  0  0  0  0
    2.3842   -0.2484    5.8334 C   0  0  0  0  0  0  0  0  0  0  0  0
    3.3623   -0.2285    7.0042 C   0  0  0  0  0  0  0  0  0  0  0  0
    3.9003   -1.4156    4.2793 N   0  0  0  0  0  0  0  0  0  0  0  0
    4.3758   -1.1489    3.0496 C   0  0  0  0  0  0  0  0  0  0  0  0
    5.1368   -1.9703    2.2073 C   0  0  0  0  0  0  0  0  0  0  0  0
    5.4665   -1.4464    0.9395 C   0  0  0  0  0  0  0  0  0  0  0  0
    4.8772   -0.2510    0.4854 C   0  0  0  0  0  0  0  0  0  0  0  0
    5.0809    0.1331   -0.7985 F   0  0  0  0  0  0  0  0  0  0  0  0
    6.2378   -2.1670    0.0820 F   0  0  0  0  0  0  0  0  0  0  0  0
    5.2251   -3.4246    2.4677 C   0  0  0  0  0  0  0  0  0  0  0  0
    4.6308   -4.3207    1.5563 C   0  0  0  0  0  0  0  0  0  0  0  0
    4.0921   -3.8759    0.3877 F   0  0  0  0  0  0  0  0  0  0  0  0
    4.4640   -5.6606    1.8926 C   0  0  0  0  0  0  0  0  0  0  0  0
    4.8526   -6.1218    3.1542 C   0  0  0  0  0  0  0  0  0  0  0  0
    5.5219   -5.2583    4.0349 C   0  0  0  0  0  0  0  0  0  0  0  0
    5.7154   -3.9154    3.6911 C   0  0  0  0  0  0  0  0  0  0  0  0
    4.3681   -7.4302    3.6062 C   0  0  0  0  0  0  0  0  0  0  0  0
    3.1740   -7.5577    4.2213 C   0  0  0  0  0  0  0  0  0  0  0  0
    2.2373   -6.4543    4.4868 C   0  0  0  0  0  0  0  0  0  0  0  0
    2.4940   -5.2199    4.4406 O   0  0  0  0  0  0  0  0  0  0  0  0
    0.9372   -7.0085    4.7889 C   0  0  0  0  0  0  0  0  0  0  0  0
   -0.2684   -6.2938    4.9907 C   0  0  0  0  0  0  0  0  0  0  0  0
   -1.3732   -7.1061    5.1500 C   0  0  0  0  0  0  0  0  0  0  0  0
   -1.3164   -8.5347    5.0843 C   0  0  0  0  0  0  0  0  0  0  0  0
   -0.1368   -9.2376    4.8838 C   0  0  0  0  0  0  0  0  0  0  0  0
    1.0245   -8.4227    4.7678 C   0  0  0  0  0  0  0  0  0  0  0  0
    2.4462   -8.8249    4.5389 C   0  0  0  0  0  0  0  0  0  0  0  0
    2.9966  -10.0329    4.8206 C   0  0  0  0  0  0  0  0  0  0  0  0
    4.4197  -10.2528    4.7885 C   0  0  0  0  0  0  0  0  0  0  0  0
    5.5611  -10.4396    4.7793 N   0  0  0  0  0  0  0  0  0  0  0  0
    2.2262  -11.1153    5.3724 C   0  0  0  0  0  0  0  0  0  0  0  0
    1.6298  -11.9886    5.8352 N   0  0  0  0  0  0  0  0  0  0  0  0
   -2.8006   -8.6198    5.2687 C   0  0  0  0  0  0  0  0  0  0  0  0
   -3.6436   -8.9498    4.0030 C   0  0  0  0  0  0  0  0  0  0  0  0
   -5.0697   -8.5899    4.3500 C   0  0  0  0  0  0  0  0  0  0  0  0
   -5.1213   -7.2597    4.4288 C   0  0  0  0  0  0  0  0  0  0  0  0
   -3.7295   -6.7572    4.1196 C   0  0  0  0  0  0  0  0  0  0  0  0
   -3.3361   -7.7855    3.0712 C   0  0  0  0  0  0  0  0  0  0  0  0
   -2.8557   -7.1553    5.3456 C   0  0  0  0  0  0  0  0  0  0  0  0
    0.3403    4.8966   -3.6229 H   0  0  0  0  0  0  0  0  0  0  0  0
   -5.6325    3.2298   -2.4743 H   0  0  0  0  0  0  0  0  0  0  0  0
   -4.2324    4.7484   -7.1344 H   0  0  0  0  0  0  0  0  0  0  0  0
   -7.6801    4.9245   -6.6417 H   0  0  0  0  0  0  0  0  0  0  0  0
   -7.5734    2.9757   -8.3345 H   0  0  0  0  0  0  0  0  0  0  0  0
   -5.8466    1.1341   -7.5371 H   0  0  0  0  0  0  0  0  0  0  0  0
   -6.5758    0.3058   -5.1794 H   0  0  0  0  0  0  0  0  0  0  0  0
   -8.7519    1.6317   -4.4610 H   0  0  0  0  0  0  0  0  0  0  0  0
   -9.6024    3.0067   -6.5955 H   0  0  0  0  0  0  0  0  0  0  0  0
   -9.1604    1.3009   -7.0496 H   0  0  0  0  0  0  0  0  0  0  0  0
   -8.3474    4.1818   -4.5002 H   0  0  0  0  0  0  0  0  0  0  0  0
   -0.9824   -0.3592   -4.7649 H   0  0  0  0  0  0  0  0  0  0  0  0
    0.3040   -0.6805   -6.8101 H   0  0  0  0  0  0  0  0  0  0  0  0
    4.4369   -0.6620   -6.2475 H   0  0  0  0  0  0  0  0  0  0  0  0
    4.4056   -1.4412   -7.8770 H   0  0  0  0  0  0  0  0  0  0  0  0
    3.0832   -1.7908   -6.6941 H   0  0  0  0  0  0  0  0  0  0  0  0
    3.3304    2.0046   -5.3648 H   0  0  0  0  0  0  0  0  0  0  0  0
    2.0643    2.3766   -3.3275 H   0  0  0  0  0  0  0  0  0  0  0  0
   -2.7094    1.3489   -4.0694 H   0  0  0  0  0  0  0  0  0  0  0  0
   -4.7594    0.0920   -3.5411 H   0  0  0  0  0  0  0  0  0  0  0  0
   -6.9997   -1.0762    0.1946 H   0  0  0  0  0  0  0  0  0  0  0  0
   -6.2902    0.3085   -0.7186 H   0  0  0  0  0  0  0  0  0  0  0  0
   -5.3380   -0.5072    0.5931 H   0  0  0  0  0  0  0  0  0  0  0  0
   -2.8277   -1.6253   -0.1067 H   0  0  0  0  0  0  0  0  0  0  0  0
   -0.8016   -0.3493   -0.5944 H   0  0  0  0  0  0  0  0  0  0  0  0
    5.5490    3.0616   -0.0509 H   0  0  0  0  0  0  0  0  0  0  0  0
    7.8028    2.3340    0.6622 H   0  0  0  0  0  0  0  0  0  0  0  0
    9.9795    3.7708    2.1254 H   0  0  0  0  0  0  0  0  0  0  0  0
    9.2072    4.3129    3.6813 H   0  0  0  0  0  0  0  0  0  0  0  0
   10.7896    3.4446    3.7032 H   0  0  0  0  0  0  0  0  0  0  0  0
    6.6444    2.8039    4.7784 H   0  0  0  0  0  0  0  0  0  0  0  0
    4.3876    3.4965    4.0779 H   0  0  0  0  0  0  0  0  0  0  0  0
    4.5183    6.0591    1.2976 H   0  0  0  0  0  0  0  0  0  0  0  0
    3.4304    8.2065    1.8430 H   0  0  0  0  0  0  0  0  0  0  0  0
    0.8986    8.8864    0.4508 H   0  0  0  0  0  0  0  0  0  0  0  0
   -0.6016    8.0461    1.0594 H   0  0  0  0  0  0  0  0  0  0  0  0
   -0.4897    9.8490    1.0945 H   0  0  0  0  0  0  0  0  0  0  0  0
   -0.0312    6.0924    3.2820 H   0  0  0  0  0  0  0  0  0  0  0  0
    1.0403    3.9470    2.7331 H   0  0  0  0  0  0  0  0  0  0  0  0
    1.6784   -1.0998    5.9405 H   0  0  0  0  0  0  0  0  0  0  0  0
    1.8011    0.6997    5.8344 H   0  0  0  0  0  0  0  0  0  0  0  0
    2.8129   -0.0782    7.9614 H   0  0  0  0  0  0  0  0  0  0  0  0
    3.9162   -1.1894    7.0586 H   0  0  0  0  0  0  0  0  0  0  0  0
    4.0893    0.6043    6.8798 H   0  0  0  0  0  0  0  0  0  0  0  0
    3.9302   -6.3112    1.2091 H   0  0  0  0  0  0  0  0  0  0  0  0
    5.8420   -5.6117    5.0074 H   0  0  0  0  0  0  0  0  0  0  0  0
    6.1884   -3.2449    4.3983 H   0  0  0  0  0  0  0  0  0  0  0  0
    4.9131   -8.2939    3.2641 H   0  0  0  0  0  0  0  0  0  0  0  0
   -0.3263   -5.2117    4.9870 H   0  0  0  0  0  0  0  0  0  0  0  0
   -0.1415  -10.3092    4.7859 H   0  0  0  0  0  0  0  0  0  0  0  0
   -3.1033   -9.1472    6.1963 H   0  0  0  0  0  0  0  0  0  0  0  0
   -3.5013   -9.9632    3.5728 H   0  0  0  0  0  0  0  0  0  0  0  0
   -5.9138   -9.2649    4.4378 H   0  0  0  0  0  0  0  0  0  0  0  0
   -6.0173   -6.6629    4.5821 H   0  0  0  0  0  0  0  0  0  0  0  0
   -3.6628   -5.6966    3.8080 H   0  0  0  0  0  0  0  0  0  0  0  0
   -2.2759   -7.7279    2.7442 H   0  0  0  0  0  0  0  0  0  0  0  0
   -3.9882   -7.7585    2.1638 H   0  0  0  0  0  0  0  0  0  0  0  0
   -3.1878   -6.7582    6.3295 H   0  0  0  0  0  0  0  0  0  0  0  0
  1  2  2  3
  2  3  1  0
  3  4  2  0
  3  5  1  0
  5  6  2  0
  6  7  1  0
  7  8  2  0
  8  9  1  0
  9 10  2  0
 10 11  1  0
 11 12  2  3
 12 13  1  0
 13 14  3  0
 12 15  1  0
 15 16  3  0
  8 17  1  0
 17 18  1  0
 18 19  1  0
 19 20  2  0
 20 21  1  0
 21 22  1  0
 21 23  1  0
  1 24  1  0
 24 25  2  0
 25 26  1  0
 26 27  1  0
 27 28  2  0
 28 29  1  0
 29 30  2  0
 30 31  1  0
 31 32  1  0
 30 33  1  0
 33 34  2  0
 26 35  1  0
 35 36  2  0
 36 37  1  0
 37 38  2  0
 38 39  1  0
 39 40  1  0
 38 41  1  0
 41 42  2  0
 25 43  1  0
 43 44  1  0
 44 45  1  0
 45 46  2  0
 46 47  1  0
 47 48  1  0
 48 49  2  0
 49 50  1  0
 50 51  2  0
 51 52  1  0
 52 53  1  0
 51 54  1  0
 54 55  2  0
 47 56  1  0
 56 57  2  0
 57 58  1  0
 58 59  2  0
 59 60  1  0
 60 61  1  0
 59 62  1  0
 62 63  2  0
 46 64  1  0
 64 65  1  0
 45 66  1  0
 66 67  1  0
 67 68  2  0
 68 69  1  0
 69 70  1  0
 70 71  1  0
 69 72  1  0
 72 73  2  0
 73 74  1  0
 74 75  2  0
 75 76  1  0
 76 77  1  0
 75 78  1  0
 74 79  1  0
 79 80  2  0
 80 81  1  0
 80 82  1  0
 82 83  2  0
 83 84  1  0
 84 85  2  0
 83 86  1  0
 86 87  2  3
 87 88  1  0
 88 89  2  0
 88 90  1  0
 90 91  2  0
 91 92  1  0
 92 93  2  0
 93 94  1  0
 94 95  2  0
 95 96  1  0
 96 97  2  3
 97 98  1  0
 98 99  3  0
 97100  1  0
100101  3  0
 93102  1  0
102103  1  0
103104  1  0
104105  2  0
105106  1  0
106107  1  0
106108  1  0
 11  2  1  0
 23 17  1  0
 65 24  1  0
 76 66  2  0
 85 79  1  0
 96 87  1  0
108102  1  0
 10  5  1  0
 22 18  1  0
 34 27  1  0
 42 35  1  0
 64 43  2  0
 73 67  1  0
 95 90  1  0
107103  1  0
 23  7  1  0
 55 48  1  0
 63 56  1  0
108 92  1  0
  1109  1  0
  6110  1  0
  9111  1  0
 17112  1  0
 18113  1  0
 19114  1  0
 20115  1  0
 21116  1  0
 22117  1  0
 22118  1  0
 23119  1  0
 28120  1  0
 29121  1  0
 32122  1  0
 32123  1  0
 32124  1  0
 33125  1  0
 34126  1  0
 36127  1  0
 37128  1  0
 40129  1  0
 40130  1  0
 40131  1  0
 41132  1  0
 42133  1  0
 49134  1  0
 50135  1  0
 53136  1  0
 53137  1  0
 53138  1  0
 54139  1  0
 55140  1  0
 57141  1  0
 58142  1  0
 61143  1  0
 61144  1  0
 61145  1  0
 62146  1  0
 63147  1  0
 70148  1  0
 70149  1  0
 71150  1  0
 71151  1  0
 71152  1  0
 82153  1  0
 84154  1  0
 85155  1  0
 86156  1  0
 91157  1  0
 94158  1  0
102159  1  0
103160  1  0
104161  1  0
105162  1  0
106163  1  0
107164  1  0
107165  1  0
108166  1  0
M  END

