
     RDKit          3D

188207  0  0  0  0  0  0  0  0999 V2000
   -2.2679    3.1937   -4.6479 C   0  0  0  0  0  0  0  0  0  0  0  0
   -1.0583    2.9617   -5.2047 C   0  0  0  0  0  0  0  0  0  0  0  0
   -0.1582    1.8565   -4.8457 C   0  0  0  0  0  0  0  0  0  0  0  0
   -0.4879    0.7473   -4.3424 O   0  0  0  0  0  0  0  0  0  0  0  0
    1.1958    2.2381   -5.1639 C   0  0  0  0  0  0  0  0  0  0  0  0
    2.3726    1.5294   -4.8360 C   0  0  0  0  0  0  0  0  0  0  0  0
    3.5357    2.1989   -5.1609 C   0  0  0  0  0  0  0  0  0  0  0  0
    3.5495    3.4966   -5.7644 C   0  0  0  0  0  0  0  0  0  0  0  0
    2.3985    4.1979   -6.0875 C   0  0  0  0  0  0  0  0  0  0  0  0
    1.1861    3.5101   -5.7884 C   0  0  0  0  0  0  0  0  0  0  0  0
   -0.2278    3.9507   -5.9591 C   0  0  0  0  0  0  0  0  0  0  0  0
   -0.6850    4.9246   -6.7906 C   0  0  0  0  0  0  0  0  0  0  0  0
    0.1976    5.7338   -7.5890 C   0  0  0  0  0  0  0  0  0  0  0  0
    0.8936    6.3821   -8.2504 N   0  0  0  0  0  0  0  0  0  0  0  0
   -2.0895    5.1143   -7.0430 C   0  0  0  0  0  0  0  0  0  0  0  0
   -3.2164    5.2676   -7.2585 N   0  0  0  0  0  0  0  0  0  0  0  0
    5.0506    3.4990   -5.7609 C   0  0  0  0  0  0  0  0  0  0  0  0
    5.7849    3.2738   -7.1180 C   0  0  0  0  0  0  0  0  0  0  0  0
    4.9366    2.4114   -8.0240 C   0  0  0  0  0  0  0  0  0  0  0  0
    4.9099    1.1952   -7.4792 C   0  0  0  0  0  0  0  0  0  0  0  0
    5.7458    1.2709   -6.2218 C   0  0  0  0  0  0  0  0  0  0  0  0
    6.8123    2.2377   -6.6985 C   0  0  0  0  0  0  0  0  0  0  0  0
    5.0355    2.1632   -5.1588 C   0  0  0  0  0  0  0  0  0  0  0  0
   -2.7831    2.3603   -3.5523 C   0  0  0  0  0  0  0  0  0  0  0  0
   -2.4789    2.6056   -2.2083 C   0  0  0  0  0  0  0  0  0  0  0  0
   -2.0395    3.8724   -1.6889 N   0  0  0  0  0  0  0  0  0  0  0  0
   -0.7560    4.0136   -1.0358 C   0  0  0  0  0  0  0  0  0  0  0  0
    0.3384    3.2166   -1.4241 C   0  0  0  0  0  0  0  0  0  0  0  0
    1.6059    3.4369   -0.8708 C   0  0  0  0  0  0  0  0  0  0  0  0
    1.7897    4.4424    0.0824 C   0  0  0  0  0  0  0  0  0  0  0  0
    3.4268    4.7968    0.7219 S   0  0  0  0  0  0  0  0  0  0  0  0
    3.7912    6.0398   -0.5558 C   0  0  0  0  0  0  0  0  0  0  0  0
    0.6950    5.1941    0.5245 C   0  0  0  0  0  0  0  0  0  0  0  0
   -0.5660    4.9822   -0.0283 C   0  0  0  0  0  0  0  0  0  0  0  0
   -2.9316    4.9956   -1.8329 C   0  0  0  0  0  0  0  0  0  0  0  0
   -2.4453    6.2430   -2.2527 C   0  0  0  0  0  0  0  0  0  0  0  0
   -3.3118    7.3330   -2.3993 C   0  0  0  0  0  0  0  0  0  0  0  0
   -4.6801    7.1827   -2.1300 C   0  0  0  0  0  0  0  0  0  0  0  0
   -5.8017    8.5642   -2.3826 S   0  0  0  0  0  0  0  0  0  0  0  0
   -5.6117    9.1980   -0.6871 C   0  0  0  0  0  0  0  0  0  0  0  0
   -5.1749    5.9437   -1.7041 C   0  0  0  0  0  0  0  0  0  0  0  0
   -4.3046    4.8573   -1.5530 C   0  0  0  0  0  0  0  0  0  0  0  0
   -2.7374    1.4940   -1.4240 C   0  0  0  0  0  0  0  0  0  0  0  0
   -2.4495    1.1081    0.1745 S   0  0  0  0  0  0  0  0  0  0  0  0
   -2.9630   -0.5152    0.0126 C   0  0  0  0  0  0  0  0  0  0  0  0
   -3.3886   -0.7250   -1.3141 C   0  0  0  0  0  0  0  0  0  0  0  0
   -4.1394   -1.8657   -1.7635 N   0  0  0  0  0  0  0  0  0  0  0  0
   -5.5834   -1.8847   -1.6014 C   0  0  0  0  0  0  0  0  0  0  0  0
   -6.2758   -0.7428   -1.1362 C   0  0  0  0  0  0  0  0  0  0  0  0
   -7.6557   -0.7725   -0.9317 C   0  0  0  0  0  0  0  0  0  0  0  0
   -8.3776   -1.9394   -1.1929 C   0  0  0  0  0  0  0  0  0  0  0  0
  -10.1465   -1.9678   -0.8950 S   0  0  0  0  0  0  0  0  0  0  0  0
  -10.5745   -1.3997   -2.5735 C   0  0  0  0  0  0  0  0  0  0  0  0
   -7.7121   -3.0847   -1.6447 C   0  0  0  0  0  0  0  0  0  0  0  0
   -6.3241   -3.0625   -1.8352 C   0  0  0  0  0  0  0  0  0  0  0  0
   -3.4746   -2.8243   -2.6000 C   0  0  0  0  0  0  0  0  0  0  0  0
   -3.8549   -2.9691   -3.9441 C   0  0  0  0  0  0  0  0  0  0  0  0
   -3.2395   -3.9267   -4.7566 C   0  0  0  0  0  0  0  0  0  0  0  0
   -2.2436   -4.7602   -4.2252 C   0  0  0  0  0  0  0  0  0  0  0  0
   -1.4899   -6.0285   -5.2459 S   0  0  0  0  0  0  0  0  0  0  0  0
   -0.0951   -4.9678   -5.7578 C   0  0  0  0  0  0  0  0  0  0  0  0
   -1.8599   -4.6189   -2.8837 C   0  0  0  0  0  0  0  0  0  0  0  0
   -2.4620   -3.6478   -2.0784 C   0  0  0  0  0  0  0  0  0  0  0  0
   -3.2312    0.4189   -2.0846 C   0  0  0  0  0  0  0  0  0  0  0  0
   -3.3958    0.7733   -3.7200 S   0  0  0  0  0  0  0  0  0  0  0  0
   -2.5072   -1.5807    0.9315 C   0  0  0  0  0  0  0  0  0  0  0  0
   -1.1663   -1.5701    1.3542 C   0  0  0  0  0  0  0  0  0  0  0  0
   -0.2982   -0.6099    0.9476 F   0  0  0  0  0  0  0  0  0  0  0  0
   -0.6744   -2.5782    2.1648 C   0  0  0  0  0  0  0  0  0  0  0  0
    0.6197   -2.5092    2.5726 F   0  0  0  0  0  0  0  0  0  0  0  0
   -1.4733   -3.6821    2.4969 C   0  0  0  0  0  0  0  0  0  0  0  0
   -2.8091   -3.7324    2.0572 C   0  0  0  0  0  0  0  0  0  0  0  0
   -3.5565   -4.8914    2.2825 O   0  0  0  0  0  0  0  0  0  0  0  0
   -4.0022   -5.7007    1.1952 C   0  0  0  0  0  0  0  0  0  0  0  0
   -4.8059   -6.8722    1.7255 C   0  0  0  0  0  0  0  0  0  0  0  0
   -3.3511   -2.6300    1.3471 C   0  0  0  0  0  0  0  0  0  0  0  0
   -4.7172   -2.5495    1.0558 O   0  0  0  0  0  0  0  0  0  0  0  0
   -5.7584   -2.7262    2.0214 C   0  0  0  0  0  0  0  0  0  0  0  0
   -5.6743   -1.6680    3.1117 C   0  0  0  0  0  0  0  0  0  0  0  0
   -0.8272   -4.7855    3.2347 C   0  0  0  0  0  0  0  0  0  0  0  0
    0.2210   -5.4628    2.5789 C   0  0  0  0  0  0  0  0  0  0  0  0
    1.3115   -5.9048    3.3363 C   0  0  0  0  0  0  0  0  0  0  0  0
    2.5779   -6.0722    2.8771 N   0  0  0  0  0  0  0  0  0  0  0  0
    3.0166   -6.0153    1.4794 C   0  0  0  0  0  0  0  0  0  0  0  0
    3.2066   -4.5730    1.0134 C   0  0  0  0  0  0  0  0  0  0  0  0
    3.3710   -5.9830    3.9764 C   0  0  0  0  0  0  0  0  0  0  0  0
    2.6096   -5.8541    5.1279 C   0  0  0  0  0  0  0  0  0  0  0  0
    1.2959   -5.7876    4.7155 C   0  0  0  0  0  0  0  0  0  0  0  0
    0.1898   -5.2757    5.3992 C   0  0  0  0  0  0  0  0  0  0  0  0
   -0.8822   -4.7759    4.6441 C   0  0  0  0  0  0  0  0  0  0  0  0
    3.1713   -5.4584    6.3425 C   0  0  0  0  0  0  0  0  0  0  0  0
    4.5293   -5.0946    6.3584 C   0  0  0  0  0  0  0  0  0  0  0  0
    5.2866   -5.1170    5.1638 C   0  0  0  0  0  0  0  0  0  0  0  0
    4.7323   -5.6476    3.9804 C   0  0  0  0  0  0  0  0  0  0  0  0
    6.4704   -4.2447    5.0577 C   0  0  0  0  0  0  0  0  0  0  0  0
    6.3564   -2.9743    4.6128 C   0  0  0  0  0  0  0  0  0  0  0  0
    5.0776   -2.2929    4.3459 C   0  0  0  0  0  0  0  0  0  0  0  0
    3.9368   -2.8265    4.2785 O   0  0  0  0  0  0  0  0  0  0  0  0
    5.3146   -0.8821    4.2246 C   0  0  0  0  0  0  0  0  0  0  0  0
    4.3297    0.1107    4.0448 C   0  0  0  0  0  0  0  0  0  0  0  0
    4.8359    1.3872    3.9626 C   0  0  0  0  0  0  0  0  0  0  0  0
    6.2298    1.6910    4.0687 C   0  0  0  0  0  0  0  0  0  0  0  0
    7.2038    0.7178    4.2640 C   0  0  0  0  0  0  0  0  0  0  0  0
    6.7023   -0.6193    4.3334 C   0  0  0  0  0  0  0  0  0  0  0  0
    7.4257   -1.9266    4.4980 C   0  0  0  0  0  0  0  0  0  0  0  0
    8.7615   -2.1370    4.3859 C   0  0  0  0  0  0  0  0  0  0  0  0
    9.7092   -1.0683    4.2195 C   0  0  0  0  0  0  0  0  0  0  0  0
   10.4857   -0.2202    4.0829 N   0  0  0  0  0  0  0  0  0  0  0  0
    9.3346   -3.4585    4.3387 C   0  0  0  0  0  0  0  0  0  0  0  0
    9.8109   -4.5108    4.3141 N   0  0  0  0  0  0  0  0  0  0  0  0
    5.9343    3.1533    3.8706 C   0  0  0  0  0  0  0  0  0  0  0  0
    6.0141    4.1034    5.1045 C   0  0  0  0  0  0  0  0  0  0  0  0
    5.6809    3.3398    6.3641 C   0  0  0  0  0  0  0  0  0  0  0  0
    4.3845    3.0320    6.2885 C   0  0  0  0  0  0  0  0  0  0  0  0
    3.8756    3.6011    4.9815 C   0  0  0  0  0  0  0  0  0  0  0  0
    4.7112    4.8678    4.9334 C   0  0  0  0  0  0  0  0  0  0  0  0
    4.5086    2.8318    3.7827 C   0  0  0  0  0  0  0  0  0  0  0  0
   -2.7559    4.1415   -4.7884 H   0  0  0  0  0  0  0  0  0  0  0  0
    2.3691    0.5602   -4.3564 H   0  0  0  0  0  0  0  0  0  0  0  0
    2.4539    5.1934   -6.4973 H   0  0  0  0  0  0  0  0  0  0  0  0
    5.5002    4.2781   -5.1044 H   0  0  0  0  0  0  0  0  0  0  0  0
    6.1926    4.1914   -7.5900 H   0  0  0  0  0  0  0  0  0  0  0  0
    4.5047    2.6858   -8.9810 H   0  0  0  0  0  0  0  0  0  0  0  0
    4.4403    0.3139   -7.9071 H   0  0  0  0  0  0  0  0  0  0  0  0
    6.1177    0.2937   -5.8492 H   0  0  0  0  0  0  0  0  0  0  0  0
    7.4894    2.5940   -5.8875 H   0  0  0  0  0  0  0  0  0  0  0  0
    7.4200    1.8481   -7.5484 H   0  0  0  0  0  0  0  0  0  0  0  0
    5.4774    2.1220   -4.1380 H   0  0  0  0  0  0  0  0  0  0  0  0
    0.2196    2.4478   -2.1714 H   0  0  0  0  0  0  0  0  0  0  0  0
    2.4371    2.8337   -1.1990 H   0  0  0  0  0  0  0  0  0  0  0  0
    4.8664    6.3063   -0.5131 H   0  0  0  0  0  0  0  0  0  0  0  0
    3.1878    6.9498   -0.3642 H   0  0  0  0  0  0  0  0  0  0  0  0
    3.5672    5.6419   -1.5656 H   0  0  0  0  0  0  0  0  0  0  0  0
    0.8273    5.9608    1.2761 H   0  0  0  0  0  0  0  0  0  0  0  0
   -1.3932    5.5908    0.3165 H   0  0  0  0  0  0  0  0  0  0  0  0
   -1.3935    6.3711   -2.4754 H   0  0  0  0  0  0  0  0  0  0  0  0
   -2.9207    8.2899   -2.7258 H   0  0  0  0  0  0  0  0  0  0  0  0
   -6.0317    8.4715    0.0431 H   0  0  0  0  0  0  0  0  0  0  0  0
   -6.1631   10.1575   -0.5862 H   0  0  0  0  0  0  0  0  0  0  0  0
   -4.5397    9.3813   -0.4625 H   0  0  0  0  0  0  0  0  0  0  0  0
   -6.2314    5.8174   -1.4994 H   0  0  0  0  0  0  0  0  0  0  0  0
   -4.7015    3.9039   -1.2244 H   0  0  0  0  0  0  0  0  0  0  0  0
   -5.7622    0.1785   -0.9142 H   0  0  0  0  0  0  0  0  0  0  0  0
   -8.1599    0.1128   -0.5644 H   0  0  0  0  0  0  0  0  0  0  0  0
   -9.8760   -0.6102   -2.9255 H   0  0  0  0  0  0  0  0  0  0  0  0
  -10.5441   -2.2606   -3.2734 H   0  0  0  0  0  0  0  0  0  0  0  0
  -11.6036   -0.9815   -2.5603 H   0  0  0  0  0  0  0  0  0  0  0  0
   -8.2649   -3.9946   -1.8355 H   0  0  0  0  0  0  0  0  0  0  0  0
   -5.8325   -3.9704   -2.1525 H   0  0  0  0  0  0  0  0  0  0  0  0
   -4.6369   -2.3461   -4.3575 H   0  0  0  0  0  0  0  0  0  0  0  0
   -3.5451   -4.0334   -5.7889 H   0  0  0  0  0  0  0  0  0  0  0  0
    0.4194   -4.5397   -4.8686 H   0  0  0  0  0  0  0  0  0  0  0  0
   -0.4546   -4.1425   -6.4121 H   0  0  0  0  0  0  0  0  0  0  0  0
    0.6367   -5.5826   -6.3213 H   0  0  0  0  0  0  0  0  0  0  0  0
   -1.1036   -5.2742   -2.4599 H   0  0  0  0  0  0  0  0  0  0  0  0
   -2.1539   -3.5546   -1.0502 H   0  0  0  0  0  0  0  0  0  0  0  0
   -4.6310   -5.1076    0.5001 H   0  0  0  0  0  0  0  0  0  0  0  0
   -3.1157   -6.0828    0.6326 H   0  0  0  0  0  0  0  0  0  0  0  0
   -4.1616   -7.4856    2.4019 H   0  0  0  0  0  0  0  0  0  0  0  0
   -5.1589   -7.5062    0.8813 H   0  0  0  0  0  0  0  0  0  0  0  0
   -5.6804   -6.5003    2.3010 H   0  0  0  0  0  0  0  0  0  0  0  0
   -5.7127   -3.7411    2.4719 H   0  0  0  0  0  0  0  0  0  0  0  0
   -6.7373   -2.6325    1.5038 H   0  0  0  0  0  0  0  0  0  0  0  0
   -4.7510   -1.8064    3.7118 H   0  0  0  0  0  0  0  0  0  0  0  0
   -5.6715   -0.6565    2.6561 H   0  0  0  0  0  0  0  0  0  0  0  0
   -6.5528   -1.7593    3.7859 H   0  0  0  0  0  0  0  0  0  0  0  0
    0.2885   -5.4233    1.4988 H   0  0  0  0  0  0  0  0  0  0  0  0
    2.2691   -6.5177    0.8305 H   0  0  0  0  0  0  0  0  0  0  0  0
    3.9700   -6.5718    1.3595 H   0  0  0  0  0  0  0  0  0  0  0  0
    2.2517   -4.0174    1.0881 H   0  0  0  0  0  0  0  0  0  0  0  0
    3.9679   -4.0552    1.6310 H   0  0  0  0  0  0  0  0  0  0  0  0
    3.5335   -4.5719   -0.0455 H   0  0  0  0  0  0  0  0  0  0  0  0
    0.2209   -5.1267    6.4746 H   0  0  0  0  0  0  0  0  0  0  0  0
   -1.6620   -4.2195    5.1482 H   0  0  0  0  0  0  0  0  0  0  0  0
    2.5592   -5.2896    7.2176 H   0  0  0  0  0  0  0  0  0  0  0  0
    4.9493   -4.6526    7.2573 H   0  0  0  0  0  0  0  0  0  0  0  0
    5.2883   -5.5820    3.0542 H   0  0  0  0  0  0  0  0  0  0  0  0
    7.3946   -4.6215    5.4589 H   0  0  0  0  0  0  0  0  0  0  0  0
    3.2714   -0.1067    3.9753 H   0  0  0  0  0  0  0  0  0  0  0  0
    8.2400    0.9998    4.3592 H   0  0  0  0  0  0  0  0  0  0  0  0
    6.3547    3.5706    2.9286 H   0  0  0  0  0  0  0  0  0  0  0  0
    6.9293    4.7338    5.1609 H   0  0  0  0  0  0  0  0  0  0  0  0
    6.3386    3.1353    7.2045 H   0  0  0  0  0  0  0  0  0  0  0  0
    3.8051    2.5345    7.0602 H   0  0  0  0  0  0  0  0  0  0  0  0
    2.7781    3.7467    4.9235 H   0  0  0  0  0  0  0  0  0  0  0  0
    4.4938    5.5732    5.7737 H   0  0  0  0  0  0  0  0  0  0  0  0
    4.6315    5.4126    3.9608 H   0  0  0  0  0  0  0  0  0  0  0  0
    4.0558    3.0559    2.7948 H   0  0  0  0  0  0  0  0  0  0  0  0
  1  2  2  3
  2  3  1  0
  3  4  2  0
  3  5  1  0
  5  6  2  0
  6  7  1  0
  7  8  2  0
  8  9  1  0
  9 10  2  0
 10 11  1  0
 11 12  2  3
 12 13  1  0
 13 14  3  0
 12 15  1  0
 15 16  3  0
  8 17  1  0
 17 18  1  0
 18 19  1  0
 19 20  2  0
 20 21  1  0
 21 22  1  0
 21 23  1  0
  1 24  1  0
 24 25  2  0
 25 26  1  0
 26 27  1  0
 27 28  2  0
 28 29  1  0
 29 30  2  0
 30 31  1  0
 31 32  1  0
 30 33  1  0
 33 34  2  0
 26 35  1  0
 35 36  2  0
 36 37  1  0
 37 38  2  0
 38 39  1  0
 39 40  1  0
 38 41  1  0
 41 42  2  0
 25 43  1  0
 43 44  1  0
 44 45  1  0
 45 46  2  0
 46 47  1  0
 47 48  1  0
 48 49  2  0
 49 50  1  0
 50 51  2  0
 51 52  1  0
 52 53  1  0
 51 54  1  0
 54 55  2  0
 47 56  1  0
 56 57  2  0
 57 58  1  0
 58 59  2  0
 59 60  1  0
 60 61  1  0
 59 62  1  0
 62 63  2  0
 46 64  1  0
 64 65  1  0
 45 66  1  0
 66 67  2  0
 67 68  1  0
 67 69  1  0
 69 70  1  0
 69 71  2  0
 71 72  1  0
 72 73  1  0
 73 74  1  0
 74 75  1  0
 72 76  2  0
 76 77  1  0
 77 78  1  0
 78 79  1  0
 71 80  1  0
 80 81  2  0
 81 82  1  0
 82 83  1  0
 83 84  1  0
 84 85  1  0
 83 86  1  0
 86 87  2  0
 87 88  1  0
 88 89  1  0
 89 90  2  0
 87 91  1  0
 91 92  2  0
 92 93  1  0
 93 94  2  0
 93 95  1  0
 95 96  2  3
 96 97  1  0
 97 98  2  0
 97 99  1  0
 99100  2  0
100101  1  0
101102  2  0
102103  1  0
103104  2  0
104105  1  0
105106  2  3
106107  1  0
107108  3  0
106109  1  0
109110  3  0
102111  1  0
111112  1  0
112113  1  0
113114  2  0
114115  1  0
115116  1  0
115117  1  0
 11  2  1  0
 23 17  1  0
 65 24  1  0
 76 66  1  0
 90 80  1  0
105 96  1  0
117111  1  0
 10  5  1  0
 22 18  1  0
 34 27  1  0
 42 35  1  0
 64 43  2  0
 88 82  2  0
104 99  1  0
116112  1  0
 23  7  1  0
 55 48  1  0
 63 56  1  0
 94 86  1  0
117101  1  0
  1118  1  0
  6119  1  0
  9120  1  0
 17121  1  0
 18122  1  0
 19123  1  0
 20124  1  0
 21125  1  0
 22126  1  0
 22127  1  0
 23128  1  0
 28129  1  0
 29130  1  0
 32131  1  0
 32132  1  0
 32133  1  0
 33134  1  0
 34135  1  0
 36136  1  0
 37137  1  0
 40138  1  0
 40139  1  0
 40140  1  0
 41141  1  0
 42142  1  0
 49143  1  0
 50144  1  0
 53145  1  0
 53146  1  0
 53147  1  0
 54148  1  0
 55149  1  0
 57150  1  0
 58151  1  0
 61152  1  0
 61153  1  0
 61154  1  0
 62155  1  0
 63156  1  0
 74157  1  0
 74158  1  0
 75159  1  0
 75160  1  0
 75161  1  0
 78162  1  0
 78163  1  0
 79164  1  0
 79165  1  0
 79166  1  0
 81167  1  0
 84168  1  0
 84169  1  0
 85170  1  0
 85171  1  0
 85172  1  0
 89173  1  0
 90174  1  0
 91175  1  0
 92176  1  0
 94177  1  0
 95178  1  0
100179  1  0
103180  1  0
111181  1  0
112182  1  0
113183  1  0
114184  1  0
115185  1  0
116186  1  0
116187  1  0
117188  1  0
M  END

