
     RDKit          3D

175195  0  0  0  0  0  0  0  0999 V2000
    6.9024    0.2402   -0.5055 C   0  0  0  0  0  0  0  0  0  0  0  0
    6.9411   -0.9820   -1.0747 C   0  0  0  0  0  0  0  0  0  0  0  0
    5.9628   -1.4953   -2.0492 C   0  0  0  0  0  0  0  0  0  0  0  0
    5.1798   -0.8125   -2.7616 O   0  0  0  0  0  0  0  0  0  0  0  0
    5.9932   -2.9351   -2.0129 C   0  0  0  0  0  0  0  0  0  0  0  0
    5.0985   -3.8095   -2.6715 C   0  0  0  0  0  0  0  0  0  0  0  0
    5.2563   -5.1330   -2.3165 C   0  0  0  0  0  0  0  0  0  0  0  0
    6.2304   -5.5833   -1.3677 C   0  0  0  0  0  0  0  0  0  0  0  0
    7.1182   -4.7316   -0.7288 C   0  0  0  0  0  0  0  0  0  0  0  0
    6.9896   -3.3627   -1.0955 C   0  0  0  0  0  0  0  0  0  0  0  0
    7.7040   -2.1664   -0.5683 C   0  0  0  0  0  0  0  0  0  0  0  0
    8.9250   -2.1365    0.0210 C   0  0  0  0  0  0  0  0  0  0  0  0
    9.6328   -0.9049    0.2494 C   0  0  0  0  0  0  0  0  0  0  0  0
   10.1971    0.0888    0.4308 N   0  0  0  0  0  0  0  0  0  0  0  0
    9.6545   -3.3357    0.3465 C   0  0  0  0  0  0  0  0  0  0  0  0
   10.2529   -4.2928    0.6136 N   0  0  0  0  0  0  0  0  0  0  0  0
    5.7124   -6.9893   -1.4841 C   0  0  0  0  0  0  0  0  0  0  0  0
    4.8385   -7.5324   -0.3121 C   0  0  0  0  0  0  0  0  0  0  0  0
    4.0761   -6.3996    0.3366 C   0  0  0  0  0  0  0  0  0  0  0  0
    3.1754   -5.9854   -0.5554 C   0  0  0  0  0  0  0  0  0  0  0  0
    3.3572   -6.8479   -1.7827 C   0  0  0  0  0  0  0  0  0  0  0  0
    3.7087   -8.1581   -1.1043 C   0  0  0  0  0  0  0  0  0  0  0  0
    4.7228   -6.5268   -2.4617 C   0  0  0  0  0  0  0  0  0  0  0  0
    5.8366    1.2058   -0.8084 C   0  0  0  0  0  0  0  0  0  0  0  0
    4.7273    1.2168    0.0296 C   0  0  0  0  0  0  0  0  0  0  0  0
    3.5511    1.7614   -0.3344 C   0  0  0  0  0  0  0  0  0  0  0  0
    2.6347    1.4578    0.5982 N   0  0  0  0  0  0  0  0  0  0  0  0
    3.2907    0.7582    1.4865 O   0  0  0  0  0  0  0  0  0  0  0  0
    4.5499    0.5690    1.1924 N   0  0  0  0  0  0  0  0  0  0  0  0
    3.3647    2.3852   -1.5664 C   0  0  0  0  0  0  0  0  0  0  0  0
    4.4829    2.5112   -2.4221 C   0  0  0  0  0  0  0  0  0  0  0  0
    4.2710    3.2136   -3.6290 O   0  0  0  0  0  0  0  0  0  0  0  0
    5.2653    3.7906   -4.4789 C   0  0  0  0  0  0  0  0  0  0  0  0
    6.0332    4.9014   -3.7667 C   0  0  0  0  0  0  0  0  0  0  0  0
    5.7419    1.9166   -2.0451 C   0  0  0  0  0  0  0  0  0  0  0  0
    6.8202    1.9922   -2.9401 O   0  0  0  0  0  0  0  0  0  0  0  0
    8.2046    1.9769   -2.5847 C   0  0  0  0  0  0  0  0  0  0  0  0
    9.0245    2.4810   -3.7606 C   0  0  0  0  0  0  0  0  0  0  0  0
    1.9907    2.7069   -1.9781 C   0  0  0  0  0  0  0  0  0  0  0  0
    1.2569    3.6847   -1.2904 C   0  0  0  0  0  0  0  0  0  0  0  0
    1.7074    5.0427   -1.1314 N   0  0  0  0  0  0  0  0  0  0  0  0
    1.6620    5.6676    0.1664 C   0  0  0  0  0  0  0  0  0  0  0  0
    1.0523    6.9210    0.3261 C   0  0  0  0  0  0  0  0  0  0  0  0
    1.0294    7.5439    1.5758 C   0  0  0  0  0  0  0  0  0  0  0  0
    1.6189    6.9163    2.6806 C   0  0  0  0  0  0  0  0  0  0  0  0
    1.6433    7.7419    4.2703 S   0  0  0  0  0  0  0  0  0  0  0  0
    0.1898    6.8576    4.9007 C   0  0  0  0  0  0  0  0  0  0  0  0
    2.2205    5.6627    2.5313 C   0  0  0  0  0  0  0  0  0  0  0  0
    2.2372    5.0376    1.2821 C   0  0  0  0  0  0  0  0  0  0  0  0
    2.0145    5.8158   -2.3142 C   0  0  0  0  0  0  0  0  0  0  0  0
    2.9963    6.8257   -2.2734 C   0  0  0  0  0  0  0  0  0  0  0  0
    3.2672    7.5920   -3.4177 C   0  0  0  0  0  0  0  0  0  0  0  0
    2.5817    7.3371   -4.6113 C   0  0  0  0  0  0  0  0  0  0  0  0
    2.9437    8.3035   -6.0795 S   0  0  0  0  0  0  0  0  0  0  0  0
    4.2480    7.1746   -6.6717 C   0  0  0  0  0  0  0  0  0  0  0  0
    1.5983    6.3461   -4.6533 C   0  0  0  0  0  0  0  0  0  0  0  0
    1.3165    5.5910   -3.5145 C   0  0  0  0  0  0  0  0  0  0  0  0
   -0.0528    3.2827   -1.0360 C   0  0  0  0  0  0  0  0  0  0  0  0
   -1.1397    3.7178    0.1686 S   0  0  0  0  0  0  0  0  0  0  0  0
   -2.1121    2.3305   -0.0196 C   0  0  0  0  0  0  0  0  0  0  0  0
   -1.5854    1.5319   -1.0514 C   0  0  0  0  0  0  0  0  0  0  0  0
   -2.2155    0.3116   -1.5114 N   0  0  0  0  0  0  0  0  0  0  0  0
   -1.4244   -0.7619   -2.0453 C   0  0  0  0  0  0  0  0  0  0  0  0
   -1.1950   -0.8440   -3.4257 C   0  0  0  0  0  0  0  0  0  0  0  0
   -0.3651   -1.8479   -3.9426 C   0  0  0  0  0  0  0  0  0  0  0  0
    0.1981   -2.8032   -3.0840 C   0  0  0  0  0  0  0  0  0  0  0  0
    1.3063   -4.0582   -3.7266 S   0  0  0  0  0  0  0  0  0  0  0  0
   -0.0278   -5.2266   -4.1347 C   0  0  0  0  0  0  0  0  0  0  0  0
   -0.0759   -2.7553   -1.7084 C   0  0  0  0  0  0  0  0  0  0  0  0
   -0.8805   -1.7349   -1.1876 C   0  0  0  0  0  0  0  0  0  0  0  0
   -3.6525    0.2619   -1.6445 C   0  0  0  0  0  0  0  0  0  0  0  0
   -4.3635    1.3874   -2.1001 C   0  0  0  0  0  0  0  0  0  0  0  0
   -5.7547    1.3549   -2.2103 C   0  0  0  0  0  0  0  0  0  0  0  0
   -6.4589    0.1988   -1.8492 C   0  0  0  0  0  0  0  0  0  0  0  0
   -8.2437    0.1561   -2.0035 S   0  0  0  0  0  0  0  0  0  0  0  0
   -8.5354    0.8724   -0.3598 C   0  0  0  0  0  0  0  0  0  0  0  0
   -5.7637   -0.9355   -1.4155 C   0  0  0  0  0  0  0  0  0  0  0  0
   -4.3624   -0.9086   -1.3206 C   0  0  0  0  0  0  0  0  0  0  0  0
   -0.4027    2.0781   -1.5562 C   0  0  0  0  0  0  0  0  0  0  0  0
    0.9342    1.4195   -2.3246 S   0  0  0  0  0  0  0  0  0  0  0  0
   -2.8657    1.7567    1.1030 C   0  0  0  0  0  0  0  0  0  0  0  0
   -4.1658    2.1741    1.4077 C   0  0  0  0  0  0  0  0  0  0  0  0
   -4.8886    1.5891    2.4789 C   0  0  0  0  0  0  0  0  0  0  0  0
   -6.2030    2.1245    2.6717 N   0  0  0  0  0  0  0  0  0  0  0  0
   -6.2413    3.2234    1.5103 S   0  0  0  0  0  4  0  0  0  0  0  0
   -4.8632    3.2058    0.7024 N   0  0  0  0  0  0  0  0  0  0  0  0
   -4.3273    0.5755    3.2668 C   0  0  0  0  0  0  0  0  0  0  0  0
   -3.0104    0.1758    2.9899 C   0  0  0  0  0  0  0  0  0  0  0  0
   -2.3624   -0.7771    3.7108 N   0  0  0  0  0  0  0  0  0  0  0  0
   -0.8961   -0.7936    2.9427 S   0  0  0  0  0  0  0  0  0  0  0  0
   -1.0052    0.3348    1.7392 N   0  0  0  0  0  0  0  0  0  0  0  0
   -2.2798    0.7741    1.9174 C   0  0  0  0  0  0  0  0  0  0  0  0
   -5.0909   -0.0608    4.3542 C   0  0  0  0  0  0  0  0  0  0  0  0
   -5.8395   -1.1622    4.1664 C   0  0  0  0  0  0  0  0  0  0  0  0
   -5.9165   -1.9275    2.9183 C   0  0  0  0  0  0  0  0  0  0  0  0
   -5.6817   -1.4842    1.7578 O   0  0  0  0  0  0  0  0  0  0  0  0
   -6.3354   -3.2758    3.2295 C   0  0  0  0  0  0  0  0  0  0  0  0
   -6.4764   -4.3593    2.3315 C   0  0  0  0  0  0  0  0  0  0  0  0
   -6.8378   -5.5487    2.9379 C   0  0  0  0  0  0  0  0  0  0  0  0
   -7.0506   -5.6693    4.3488 C   0  0  0  0  0  0  0  0  0  0  0  0
   -6.9255   -4.6130    5.2330 C   0  0  0  0  0  0  0  0  0  0  0  0
   -6.5809   -3.3707    4.6262 C   0  0  0  0  0  0  0  0  0  0  0  0
   -6.4051   -2.0252    5.2429 C   0  0  0  0  0  0  0  0  0  0  0  0
   -6.8673   -1.6045    6.4520 C   0  0  0  0  0  0  0  0  0  0  0  0
   -6.9236   -0.2032    6.7934 C   0  0  0  0  0  0  0  0  0  0  0  0
   -6.9734    0.9214    7.0747 N   0  0  0  0  0  0  0  0  0  0  0  0
   -7.4237   -2.5053    7.4272 C   0  0  0  0  0  0  0  0  0  0  0  0
   -7.8527   -3.2318    8.2235 N   0  0  0  0  0  0  0  0  0  0  0  0
   -7.3824   -7.1232    4.1915 C   0  0  0  0  0  0  0  0  0  0  0  0
   -8.8852   -7.5030    4.3303 C   0  0  0  0  0  0  0  0  0  0  0  0
   -9.0216   -8.8905    3.7486 C   0  0  0  0  0  0  0  0  0  0  0  0
   -8.8441   -8.7663    2.4280 C   0  0  0  0  0  0  0  0  0  0  0  0
   -8.5949   -7.3009    2.1593 C   0  0  0  0  0  0  0  0  0  0  0  0
   -9.5344   -6.7161    3.2027 C   0  0  0  0  0  0  0  0  0  0  0  0
   -7.1852   -6.9945    2.7428 C   0  0  0  0  0  0  0  0  0  0  0  0
    7.4833    0.4476    0.3791 H   0  0  0  0  0  0  0  0  0  0  0  0
    4.3203   -3.4755   -3.3427 H   0  0  0  0  0  0  0  0  0  0  0  0
    7.7898   -5.1025    0.0317 H   0  0  0  0  0  0  0  0  0  0  0  0
    6.4488   -7.7089   -1.8966 H   0  0  0  0  0  0  0  0  0  0  0  0
    5.3677   -8.2070    0.3942 H   0  0  0  0  0  0  0  0  0  0  0  0
    4.1767   -6.0285    1.3474 H   0  0  0  0  0  0  0  0  0  0  0  0
    2.4258   -5.2211   -0.3939 H   0  0  0  0  0  0  0  0  0  0  0  0
    2.4800   -6.8819   -2.4611 H   0  0  0  0  0  0  0  0  0  0  0  0
    2.8866   -8.5651   -0.4660 H   0  0  0  0  0  0  0  0  0  0  0  0
    4.0464   -8.9455   -1.8179 H   0  0  0  0  0  0  0  0  0  0  0  0
    4.8564   -6.9583   -3.4784 H   0  0  0  0  0  0  0  0  0  0  0  0
    5.9484    3.0144   -4.8767 H   0  0  0  0  0  0  0  0  0  0  0  0
    4.7595    4.2277   -5.3635 H   0  0  0  0  0  0  0  0  0  0  0  0
    6.8801    5.2308   -4.3989 H   0  0  0  0  0  0  0  0  0  0  0  0
    6.4377    4.5571   -2.7917 H   0  0  0  0  0  0  0  0  0  0  0  0
    5.3685    5.7653   -3.5867 H   0  0  0  0  0  0  0  0  0  0  0  0
    8.3840    2.6292   -1.7046 H   0  0  0  0  0  0  0  0  0  0  0  0
    8.5378    0.9441   -2.3627 H   0  0  0  0  0  0  0  0  0  0  0  0
   10.1088    2.4129   -3.5237 H   0  0  0  0  0  0  0  0  0  0  0  0
    8.8139    1.8723   -4.6622 H   0  0  0  0  0  0  0  0  0  0  0  0
    8.7818    3.5431   -3.9738 H   0  0  0  0  0  0  0  0  0  0  0  0
    0.5974    7.4159   -0.5200 H   0  0  0  0  0  0  0  0  0  0  0  0
    0.5642    8.5155    1.6771 H   0  0  0  0  0  0  0  0  0  0  0  0
   -0.6805    7.0303    4.2355 H   0  0  0  0  0  0  0  0  0  0  0  0
   -0.0423    7.2347    5.9123 H   0  0  0  0  0  0  0  0  0  0  0  0
    0.4064    5.7676    4.9664 H   0  0  0  0  0  0  0  0  0  0  0  0
    2.6764    5.1718    3.3833 H   0  0  0  0  0  0  0  0  0  0  0  0
    2.7271    4.0805    1.1791 H   0  0  0  0  0  0  0  0  0  0  0  0
    3.5515    7.0157   -1.3653 H   0  0  0  0  0  0  0  0  0  0  0  0
    4.0201    8.3689   -3.3838 H   0  0  0  0  0  0  0  0  0  0  0  0
    3.8315    6.1593   -6.8302 H   0  0  0  0  0  0  0  0  0  0  0  0
    5.0807    7.1339   -5.9339 H   0  0  0  0  0  0  0  0  0  0  0  0
    4.6452    7.5559   -7.6347 H   0  0  0  0  0  0  0  0  0  0  0  0
    1.0502    6.1572   -5.5685 H   0  0  0  0  0  0  0  0  0  0  0  0
    0.5371    4.8393   -3.5645 H   0  0  0  0  0  0  0  0  0  0  0  0
   -1.6232   -0.1039   -4.0910 H   0  0  0  0  0  0  0  0  0  0  0  0
   -0.1618   -1.8802   -5.0063 H   0  0  0  0  0  0  0  0  0  0  0  0
   -0.6087   -4.8489   -5.0011 H   0  0  0  0  0  0  0  0  0  0  0  0
    0.4158   -6.2074   -4.4014 H   0  0  0  0  0  0  0  0  0  0  0  0
   -0.7037   -5.3689   -3.2646 H   0  0  0  0  0  0  0  0  0  0  0  0
    0.3389   -3.5059   -1.0448 H   0  0  0  0  0  0  0  0  0  0  0  0
   -1.0765   -1.7000   -0.1231 H   0  0  0  0  0  0  0  0  0  0  0  0
   -3.8367    2.2934   -2.3859 H   0  0  0  0  0  0  0  0  0  0  0  0
   -6.2856    2.2307   -2.5710 H   0  0  0  0  0  0  0  0  0  0  0  0
   -8.0811    1.8882   -0.3266 H   0  0  0  0  0  0  0  0  0  0  0  0
   -9.6313    0.9699   -0.1961 H   0  0  0  0  0  0  0  0  0  0  0  0
   -8.1016    0.2163    0.4305 H   0  0  0  0  0  0  0  0  0  0  0  0
   -6.3063   -1.8380   -1.1566 H   0  0  0  0  0  0  0  0  0  0  0  0
   -3.8403   -1.7938   -0.9891 H   0  0  0  0  0  0  0  0  0  0  0  0
   -4.8756    0.2827    5.3532 H   0  0  0  0  0  0  0  0  0  0  0  0
   -6.3090   -4.2681    1.2671 H   0  0  0  0  0  0  0  0  0  0  0  0
   -7.0808   -4.7593    6.2905 H   0  0  0  0  0  0  0  0  0  0  0  0
   -6.6615   -7.8025    4.6944 H   0  0  0  0  0  0  0  0  0  0  0  0
   -9.3252   -7.3631    5.3435 H   0  0  0  0  0  0  0  0  0  0  0  0
   -9.3166   -9.7994    4.2578 H   0  0  0  0  0  0  0  0  0  0  0  0
   -8.9637   -9.5571    1.6912 H   0  0  0  0  0  0  0  0  0  0  0  0
   -8.7626   -6.9736    1.1121 H   0  0  0  0  0  0  0  0  0  0  0  0
  -10.6054   -6.9856    3.0331 H   0  0  0  0  0  0  0  0  0  0  0  0
   -9.4645   -5.6120    3.3156 H   0  0  0  0  0  0  0  0  0  0  0  0
   -6.3510   -7.6036    2.3232 H   0  0  0  0  0  0  0  0  0  0  0  0
  1  2  2  3
  2  3  1  0
  3  4  2  0
  3  5  1  0
  5  6  2  0
  6  7  1  0
  7  8  2  0
  8  9  1  0
  9 10  2  0
 10 11  1  0
 11 12  2  3
 12 13  1  0
 13 14  3  0
 12 15  1  0
 15 16  3  0
  8 17  1  0
 17 18  1  0
 18 19  1  0
 19 20  2  0
 20 21  1  0
 21 22  1  0
 21 23  1  0
  1 24  1  0
 24 25  1  0
 25 26  1  0
 26 27  2  0
 27 28  1  0
 28 29  1  0
 26 30  1  0
 30 31  2  0
 31 32  1  0
 32 33  1  0
 33 34  1  0
 31 35  1  0
 35 36  1  0
 36 37  1  0
 37 38  1  0
 30 39  1  0
 39 40  2  0
 40 41  1  0
 41 42  1  0
 42 43  2  0
 43 44  1  0
 44 45  2  0
 45 46  1  0
 46 47  1  0
 45 48  1  0
 48 49  2  0
 41 50  1  0
 50 51  2  0
 51 52  1  0
 52 53  2  0
 53 54  1  0
 54 55  1  0
 53 56  1  0
 56 57  2  0
 40 58  1  0
 58 59  1  0
 59 60  1  0
 60 61  2  0
 61 62  1  0
 62 63  1  0
 63 64  2  0
 64 65  1  0
 65 66  2  0
 66 67  1  0
 67 68  1  0
 66 69  1  0
 69 70  2  0
 62 71  1  0
 71 72  2  0
 72 73  1  0
 73 74  2  0
 74 75  1  0
 75 76  1  0
 74 77  1  0
 77 78  2  0
 61 79  1  0
 79 80  1  0
 60 81  1  0
 81 82  2  0
 82 83  1  0
 83 84  1  0
 84 85  2  0
 85 86  2  0
 83 87  2  0
 87 88  1  0
 88 89  2  0
 89 90  1  0
 90 91  1  0
 91 92  2  0
 87 93  1  0
 93 94  2  3
 94 95  1  0
 95 96  2  0
 95 97  1  0
 97 98  2  0
 98 99  1  0
 99100  2  0
100101  1  0
101102  2  0
102103  1  0
103104  2  3
104105  1  0
105106  3  0
104107  1  0
107108  3  0
100109  1  0
109110  1  0
110111  1  0
111112  2  0
112113  1  0
113114  1  0
113115  1  0
 11  2  1  0
 23 17  1  0
 35 24  2  0
 80 39  1  0
 92 81  1  0
103 94  1  0
115109  1  0
 10  5  1  0
 22 18  1  0
 29 25  2  0
 49 42  1  0
 57 50  1  0
 79 58  2  0
 86 82  1  0
 92 88  1  0
102 97  1  0
114110  1  0
 23  7  1  0
 70 63  1  0
 78 71  1  0
115 99  1  0
  1116  1  0
  6117  1  0
  9118  1  0
 17119  1  0
 18120  1  0
 19121  1  0
 20122  1  0
 21123  1  0
 22124  1  0
 22125  1  0
 23126  1  0
 33127  1  0
 33128  1  0
 34129  1  0
 34130  1  0
 34131  1  0
 37132  1  0
 37133  1  0
 38134  1  0
 38135  1  0
 38136  1  0
 43137  1  0
 44138  1  0
 47139  1  0
 47140  1  0
 47141  1  0
 48142  1  0
 49143  1  0
 51144  1  0
 52145  1  0
 55146  1  0
 55147  1  0
 55148  1  0
 56149  1  0
 57150  1  0
 64151  1  0
 65152  1  0
 68153  1  0
 68154  1  0
 68155  1  0
 69156  1  0
 70157  1  0
 72158  1  0
 73159  1  0
 76160  1  0
 76161  1  0
 76162  1  0
 77163  1  0
 78164  1  0
 93165  1  0
 98166  1  0
101167  1  0
109168  1  0
110169  1  0
111170  1  0
112171  1  0
113172  1  0
114173  1  0
114174  1  0
115175  1  0
M  END

