
     RDKit          3D

160181  0  0  0  0  0  0  0  0999 V2000
   -0.9258    0.5292    5.5123 C   0  0  0  0  0  0  0  0  0  0  0  0
    0.3130    0.0658    5.2468 C   0  0  0  0  0  0  0  0  0  0  0  0
    1.4355    0.2408    6.1659 C   0  0  0  0  0  0  0  0  0  0  0  0
    1.4694    1.0300    7.1475 O   0  0  0  0  0  0  0  0  0  0  0  0
    2.4863   -0.6824    5.7949 C   0  0  0  0  0  0  0  0  0  0  0  0
    3.7604   -0.8130    6.3928 C   0  0  0  0  0  0  0  0  0  0  0  0
    4.5765   -1.7404    5.7752 C   0  0  0  0  0  0  0  0  0  0  0  0
    4.1597   -2.5231    4.6493 C   0  0  0  0  0  0  0  0  0  0  0  0
    2.9098   -2.4090    4.0663 C   0  0  0  0  0  0  0  0  0  0  0  0
    2.0675   -1.4252    4.6547 C   0  0  0  0  0  0  0  0  0  0  0  0
    0.7609   -0.8875    4.1795 C   0  0  0  0  0  0  0  0  0  0  0  0
    0.3766   -0.8627    2.8794 C   0  0  0  0  0  0  0  0  0  0  0  0
    0.7620   -1.8837    1.9396 C   0  0  0  0  0  0  0  0  0  0  0  0
    1.0575   -2.7027    1.1767 N   0  0  0  0  0  0  0  0  0  0  0  0
   -0.2884    0.2774    2.3073 C   0  0  0  0  0  0  0  0  0  0  0  0
   -0.8035    1.1934    1.8248 N   0  0  0  0  0  0  0  0  0  0  0  0
    5.5074   -3.1799    4.5850 C   0  0  0  0  0  0  0  0  0  0  0  0
    6.4452   -2.7201    3.4297 C   0  0  0  0  0  0  0  0  0  0  0  0
    7.8318   -3.1837    3.8068 C   0  0  0  0  0  0  0  0  0  0  0  0
    8.2186   -2.4259    4.8400 C   0  0  0  0  0  0  0  0  0  0  0  0
    7.0790   -1.4826    5.1276 C   0  0  0  0  0  0  0  0  0  0  0  0
    6.6167   -1.2345    3.7020 C   0  0  0  0  0  0  0  0  0  0  0  0
    5.9378   -2.3634    5.7254 C   0  0  0  0  0  0  0  0  0  0  0  0
   -2.1287    0.1243    4.7766 C   0  0  0  0  0  0  0  0  0  0  0  0
   -2.4718   -1.1798    4.4307 C   0  0  0  0  0  0  0  0  0  0  0  0
   -3.4618   -1.2364    3.4346 C   0  0  0  0  0  0  0  0  0  0  0  0
   -3.8466   -2.3954    2.7327 C   0  0  0  0  0  0  0  0  0  0  0  0
   -3.5320   -3.7423    3.2474 C   0  0  0  0  0  0  0  0  0  0  0  0
   -3.9077   -4.2026    4.5112 C   0  0  0  0  0  0  0  0  0  0  0  0
   -3.5265   -5.5292    4.7312 C   0  0  0  0  0  0  0  0  0  0  0  0
   -3.7978   -6.2824    5.8778 C   0  0  0  0  0  0  0  0  0  0  0  0
   -3.3675   -7.6247    5.9336 C   0  0  0  0  0  0  0  0  0  0  0  0
   -3.6651   -8.4577    7.1491 C   0  0  0  0  0  0  0  0  0  0  0  0
   -2.6099   -8.2472    8.2286 C   0  0  0  0  0  0  0  0  0  0  0  0
   -2.6508   -8.1757    4.8463 C   0  0  0  0  0  0  0  0  0  0  0  0
   -2.3887   -7.4092    3.6974 C   0  0  0  0  0  0  0  0  0  0  0  0
   -2.8417   -6.0939    3.6681 C   0  0  0  0  0  0  0  0  0  0  0  0
   -2.7095   -4.9751    2.4193 S   0  0  0  0  0  0  0  0  0  0  0  0
   -4.5176   -2.1992    1.5126 C   0  0  0  0  0  0  0  0  0  0  0  0
   -4.8648   -0.9278    1.0468 C   0  0  0  0  0  0  0  0  0  0  0  0
   -4.5737    0.2248    1.8052 C   0  0  0  0  0  0  0  0  0  0  0  0
   -4.6673    1.5759    1.2223 C   0  0  0  0  0  0  0  0  0  0  0  0
   -3.7609    2.0951   -0.1126 S   0  0  0  0  0  0  0  0  0  0  0  0
   -4.2159    3.7050    0.0214 C   0  0  0  0  0  0  0  0  0  0  0  0
   -3.8036    4.7818   -0.7588 C   0  0  0  0  0  0  0  0  0  0  0  0
   -4.2769    6.0579   -0.4317 C   0  0  0  0  0  0  0  0  0  0  0  0
   -5.1423    6.2407    0.6710 C   0  0  0  0  0  0  0  0  0  0  0  0
   -5.5583    7.6265    1.0790 C   0  0  0  0  0  0  0  0  0  0  0  0
   -4.6027    8.1810    2.1317 C   0  0  0  0  0  0  0  0  0  0  0  0
   -5.5337    5.1309    1.4492 C   0  0  0  0  0  0  0  0  0  0  0  0
   -5.0616    3.8624    1.1080 C   0  0  0  0  0  0  0  0  0  0  0  0
   -5.3124    2.6706    1.8020 C   0  0  0  0  0  0  0  0  0  0  0  0
   -3.8828    0.0287    3.0123 C   0  0  0  0  0  0  0  0  0  0  0  0
   -3.0939    1.2020    3.9290 S   0  0  0  0  0  0  0  0  0  0  0  0
   -5.3207   -0.9324   -0.2780 C   0  0  0  0  0  0  0  0  0  0  0  0
   -5.2380   -2.1763   -0.9023 C   0  0  0  0  0  0  0  0  0  0  0  0
   -4.7311   -3.3012    0.2572 S   0  0  0  0  0  0  0  0  0  0  0  0
   -4.8808   -2.2178   -2.3372 C   0  0  0  0  0  0  0  0  0  0  0  0
   -5.7196   -1.5522   -3.2461 C   0  0  0  0  0  0  0  0  0  0  0  0
   -7.0386   -1.4018   -2.9652 F   0  0  0  0  0  0  0  0  0  0  0  0
   -5.1759   -0.8745   -4.3439 C   0  0  0  0  0  0  0  0  0  0  0  0
   -5.9990   -0.1469   -5.1401 F   0  0  0  0  0  0  0  0  0  0  0  0
   -3.7797   -0.8154   -4.5192 C   0  0  0  0  0  0  0  0  0  0  0  0
   -2.9672   -1.6757   -3.7501 C   0  0  0  0  0  0  0  0  0  0  0  0
   -1.6245   -1.7558   -3.9591 N   0  0  0  0  0  0  0  0  0  0  0  0
   -0.8199   -2.5756   -3.2289 C   0  0  0  0  0  0  0  0  0  0  0  0
    0.6498   -2.6080   -3.5530 C   0  0  0  0  0  0  0  0  0  0  0  0
    1.4220   -1.6479   -2.6574 C   0  0  0  0  0  0  0  0  0  0  0  0
   -1.3937   -3.3332   -2.1818 C   0  0  0  0  0  0  0  0  0  0  0  0
   -2.7231   -3.2048   -1.9409 N   0  0  0  0  0  0  0  0  0  0  0  0
   -3.5294   -2.4058   -2.6871 C   0  0  0  0  0  0  0  0  0  0  0  0
   -0.6302   -4.3494   -1.3718 C   0  0  0  0  0  0  0  0  0  0  0  0
   -0.7200   -5.7288   -2.0277 C   0  0  0  0  0  0  0  0  0  0  0  0
   -3.1778    0.3166   -5.2793 C   0  0  0  0  0  0  0  0  0  0  0  0
   -2.1613    0.1289   -6.2359 C   0  0  0  0  0  0  0  0  0  0  0  0
   -1.4583    1.2285   -6.7901 C   0  0  0  0  0  0  0  0  0  0  0  0
   -0.4481    0.8757   -7.7406 N   0  0  0  0  0  0  0  0  0  0  0  0
   -0.5965   -0.7129   -7.7446 S   0  0  0  0  0  4  0  0  0  0  0  0
   -1.7491   -1.1498   -6.7321 N   0  0  0  0  0  0  0  0  0  0  0  0
   -1.7703    2.5488   -6.4296 C   0  0  0  0  0  0  0  0  0  0  0  0
   -2.8462    2.7548   -5.5555 C   0  0  0  0  0  0  0  0  0  0  0  0
   -3.2419    3.9951   -5.1664 N   0  0  0  0  0  0  0  0  0  0  0  0
   -4.4234    3.6115   -4.0811 S   0  0  0  0  0  0  0  0  0  0  0  0
   -4.4794    1.9619   -4.0428 N   0  0  0  0  0  0  0  0  0  0  0  0
   -3.5237    1.6491   -4.9555 C   0  0  0  0  0  0  0  0  0  0  0  0
   -1.0293    3.7044   -6.9659 C   0  0  0  0  0  0  0  0  0  0  0  0
    0.2964    3.9126   -6.8642 C   0  0  0  0  0  0  0  0  0  0  0  0
    0.9709    4.9291   -7.6686 C   0  0  0  0  0  0  0  0  0  0  0  0
    0.4071    5.8331   -8.3461 O   0  0  0  0  0  0  0  0  0  0  0  0
    2.3970    4.7164   -7.5906 C   0  0  0  0  0  0  0  0  0  0  0  0
    3.4052    5.5187   -8.1757 C   0  0  0  0  0  0  0  0  0  0  0  0
    4.6883    5.1513   -7.8236 C   0  0  0  0  0  0  0  0  0  0  0  0
    4.9732    4.0470   -6.9596 C   0  0  0  0  0  0  0  0  0  0  0  0
    3.9950    3.2455   -6.4016 C   0  0  0  0  0  0  0  0  0  0  0  0
    2.6578    3.6115   -6.7370 C   0  0  0  0  0  0  0  0  0  0  0  0
    1.3619    3.1114   -6.1817 C   0  0  0  0  0  0  0  0  0  0  0  0
    1.2293    2.3611   -5.0588 C   0  0  0  0  0  0  0  0  0  0  0  0
    2.2698    1.4854   -4.5874 C   0  0  0  0  0  0  0  0  0  0  0  0
    3.1007    0.7732   -4.2030 N   0  0  0  0  0  0  0  0  0  0  0  0
    0.1297    2.5334   -4.1456 C   0  0  0  0  0  0  0  0  0  0  0  0
   -0.7291    2.6705   -3.3824 N   0  0  0  0  0  0  0  0  0  0  0  0
    6.4375    4.3518   -7.0208 C   0  0  0  0  0  0  0  0  0  0  0  0
    7.0909    5.0337   -5.7777 C   0  0  0  0  0  0  0  0  0  0  0  0
    6.0783    5.9067   -5.0739 C   0  0  0  0  0  0  0  0  0  0  0  0
    5.8220    6.9280   -5.8888 C   0  0  0  0  0  0  0  0  0  0  0  0
    6.6663    6.7170   -7.1245 C   0  0  0  0  0  0  0  0  0  0  0  0
    7.8981    6.1161   -6.4708 C   0  0  0  0  0  0  0  0  0  0  0  0
    6.1487    5.4787   -7.9156 C   0  0  0  0  0  0  0  0  0  0  0  0
   -1.0603    1.2402    6.3177 H   0  0  0  0  0  0  0  0  0  0  0  0
    4.0867   -0.2179    7.2331 H   0  0  0  0  0  0  0  0  0  0  0  0
    2.6444   -3.0205    3.2218 H   0  0  0  0  0  0  0  0  0  0  0  0
    5.4811   -4.2735    4.7828 H   0  0  0  0  0  0  0  0  0  0  0  0
    6.1174   -2.9927    2.4028 H   0  0  0  0  0  0  0  0  0  0  0  0
    8.4481   -3.9077    3.2824 H   0  0  0  0  0  0  0  0  0  0  0  0
    9.2013   -2.4268    5.2982 H   0  0  0  0  0  0  0  0  0  0  0  0
    7.3472   -0.5798    5.7148 H   0  0  0  0  0  0  0  0  0  0  0  0
    5.6759   -0.6468    3.6206 H   0  0  0  0  0  0  0  0  0  0  0  0
    7.3908   -0.7491    3.0596 H   0  0  0  0  0  0  0  0  0  0  0  0
    6.2025   -2.9511    6.6358 H   0  0  0  0  0  0  0  0  0  0  0  0
   -1.9361   -2.0450    4.7997 H   0  0  0  0  0  0  0  0  0  0  0  0
   -4.4592   -3.6094    5.2298 H   0  0  0  0  0  0  0  0  0  0  0  0
   -4.3408   -5.8383    6.7052 H   0  0  0  0  0  0  0  0  0  0  0  0
   -4.6623   -8.1877    7.5577 H   0  0  0  0  0  0  0  0  0  0  0  0
   -3.7027   -9.5344    6.8788 H   0  0  0  0  0  0  0  0  0  0  0  0
   -1.6038   -8.5325    7.8482 H   0  0  0  0  0  0  0  0  0  0  0  0
   -2.8472   -8.8795    9.1148 H   0  0  0  0  0  0  0  0  0  0  0  0
   -2.5899   -7.1807    8.5533 H   0  0  0  0  0  0  0  0  0  0  0  0
   -2.3099   -9.2034    4.8837 H   0  0  0  0  0  0  0  0  0  0  0  0
   -1.8580   -7.8318    2.8554 H   0  0  0  0  0  0  0  0  0  0  0  0
   -3.1209    4.6396   -1.5872 H   0  0  0  0  0  0  0  0  0  0  0  0
   -3.9572    6.9097   -1.0220 H   0  0  0  0  0  0  0  0  0  0  0  0
   -5.5641    8.3043    0.1964 H   0  0  0  0  0  0  0  0  0  0  0  0
   -6.5919    7.6109    1.4884 H   0  0  0  0  0  0  0  0  0  0  0  0
   -4.9018    9.2147    2.4030 H   0  0  0  0  0  0  0  0  0  0  0  0
   -4.6337    7.5533    3.0477 H   0  0  0  0  0  0  0  0  0  0  0  0
   -3.5629    8.2046    1.7387 H   0  0  0  0  0  0  0  0  0  0  0  0
   -6.1754    5.2607    2.3119 H   0  0  0  0  0  0  0  0  0  0  0  0
   -5.9077    2.6132    2.7048 H   0  0  0  0  0  0  0  0  0  0  0  0
   -5.5276   -0.0255   -0.8319 H   0  0  0  0  0  0  0  0  0  0  0  0
    0.7994   -2.3028   -4.6122 H   0  0  0  0  0  0  0  0  0  0  0  0
    1.0597   -3.6344   -3.4555 H   0  0  0  0  0  0  0  0  0  0  0  0
    1.2879   -1.9031   -1.5878 H   0  0  0  0  0  0  0  0  0  0  0  0
    1.0792   -0.6053   -2.8237 H   0  0  0  0  0  0  0  0  0  0  0  0
    2.5048   -1.7091   -2.8977 H   0  0  0  0  0  0  0  0  0  0  0  0
    0.4342   -4.0702   -1.2450 H   0  0  0  0  0  0  0  0  0  0  0  0
   -1.0734   -4.4122   -0.3566 H   0  0  0  0  0  0  0  0  0  0  0  0
   -0.2940   -6.4942   -1.3481 H   0  0  0  0  0  0  0  0  0  0  0  0
   -1.7817   -5.9899   -2.2285 H   0  0  0  0  0  0  0  0  0  0  0  0
   -0.1586   -5.7387   -2.9857 H   0  0  0  0  0  0  0  0  0  0  0  0
   -1.6261    4.4356   -7.5022 H   0  0  0  0  0  0  0  0  0  0  0  0
    3.1929    6.3776   -8.7942 H   0  0  0  0  0  0  0  0  0  0  0  0
    4.2731    2.4512   -5.7362 H   0  0  0  0  0  0  0  0  0  0  0  0
    7.0482    3.5514   -7.4933 H   0  0  0  0  0  0  0  0  0  0  0  0
    7.6669    4.3544   -5.1140 H   0  0  0  0  0  0  0  0  0  0  0  0
    5.6889    5.7844   -4.0686 H   0  0  0  0  0  0  0  0  0  0  0  0
    5.1848    7.7781   -5.6630 H   0  0  0  0  0  0  0  0  0  0  0  0
    6.8452    7.6283   -7.7312 H   0  0  0  0  0  0  0  0  0  0  0  0
    8.6404    5.7181   -7.1993 H   0  0  0  0  0  0  0  0  0  0  0  0
    8.4077    6.8102   -5.7610 H   0  0  0  0  0  0  0  0  0  0  0  0
    6.5763    5.3570   -8.9341 H   0  0  0  0  0  0  0  0  0  0  0  0
  1  2  2  3
  2  3  1  0
  3  4  2  0
  3  5  1  0
  5  6  2  0
  6  7  1  0
  7  8  2  0
  8  9  1  0
  9 10  2  0
 10 11  1  0
 11 12  2  3
 12 13  1  0
 13 14  3  0
 12 15  1  0
 15 16  3  0
  8 17  1  0
 17 18  1  0
 18 19  1  0
 19 20  2  0
 20 21  1  0
 21 22  1  0
 21 23  1  0
  1 24  1  0
 24 25  2  0
 25 26  1  0
 26 27  2  0
 27 28  1  0
 28 29  2  0
 29 30  1  0
 30 31  2  0
 31 32  1  0
 32 33  1  0
 33 34  1  0
 32 35  2  0
 35 36  1  0
 36 37  2  0
 37 38  1  0
 27 39  1  0
 39 40  2  0
 40 41  1  0
 41 42  1  0
 42 43  1  0
 43 44  1  0
 44 45  2  0
 45 46  1  0
 46 47  2  0
 47 48  1  0
 48 49  1  0
 47 50  1  0
 50 51  2  0
 51 52  1  0
 41 53  2  0
 53 54  1  0
 40 55  1  0
 55 56  2  0
 56 57  1  0
 56 58  1  0
 58 59  2  0
 59 60  1  0
 59 61  1  0
 61 62  1  0
 61 63  2  0
 63 64  1  0
 64 65  2  0
 65 66  1  0
 66 67  1  0
 67 68  1  0
 66 69  2  0
 69 70  1  0
 70 71  2  0
 69 72  1  0
 72 73  1  0
 63 74  1  0
 74 75  2  0
 75 76  1  0
 76 77  1  0
 77 78  2  0
 78 79  2  0
 76 80  2  0
 80 81  1  0
 81 82  2  0
 82 83  1  0
 83 84  1  0
 84 85  2  0
 80 86  1  0
 86 87  2  3
 87 88  1  0
 88 89  2  0
 88 90  1  0
 90 91  2  0
 91 92  1  0
 92 93  2  0
 93 94  1  0
 94 95  2  0
 95 96  1  0
 96 97  2  3
 97 98  1  0
 98 99  3  0
 97100  1  0
100101  3  0
 93102  1  0
102103  1  0
103104  1  0
104105  2  0
105106  1  0
106107  1  0
106108  1  0
 11  2  1  0
 23 17  1  0
 54 24  1  0
 71 58  1  0
 85 74  1  0
 96 87  1  0
108102  1  0
 10  5  1  0
 22 18  1  0
 53 26  1  0
 71 64  1  0
 79 75  1  0
 85 81  1  0
 95 90  1  0
107103  1  0
 23  7  1  0
 38 28  1  0
 57 39  1  0
108 92  1  0
 37 30  1  0
 52 42  2  0
 51 44  1  0
  1109  1  0
  6110  1  0
  9111  1  0
 17112  1  0
 18113  1  0
 19114  1  0
 20115  1  0
 21116  1  0
 22117  1  0
 22118  1  0
 23119  1  0
 25120  1  0
 29121  1  0
 31122  1  0
 33123  1  0
 33124  1  0
 34125  1  0
 34126  1  0
 34127  1  0
 35128  1  0
 36129  1  0
 45130  1  0
 46131  1  0
 48132  1  0
 48133  1  0
 49134  1  0
 49135  1  0
 49136  1  0
 50137  1  0
 52138  1  0
 55139  1  0
 67140  1  0
 67141  1  0
 68142  1  0
 68143  1  0
 68144  1  0
 72145  1  0
 72146  1  0
 73147  1  0
 73148  1  0
 73149  1  0
 86150  1  0
 91151  1  0
 94152  1  0
102153  1  0
103154  1  0
104155  1  0
105156  1  0
106157  1  0
107158  1  0
107159  1  0
108160  1  0
M  END

