
     RDKit          3D

172191  0  0  0  0  0  0  0  0999 V2000
    5.5112   -0.9629   -3.5012 C   0  0  0  0  0  0  0  0  0  0  0  0
    5.5819   -0.4137   -4.7316 C   0  0  0  0  0  0  0  0  0  0  0  0
    4.6643    0.6116   -5.2400 C   0  0  0  0  0  0  0  0  0  0  0  0
    3.9818    1.4103   -4.5451 O   0  0  0  0  0  0  0  0  0  0  0  0
    4.6365    0.5443   -6.6847 C   0  0  0  0  0  0  0  0  0  0  0  0
    3.6534    1.1193   -7.5268 C   0  0  0  0  0  0  0  0  0  0  0  0
    3.6677    0.6344   -8.8192 C   0  0  0  0  0  0  0  0  0  0  0  0
    4.6084   -0.3470   -9.2779 C   0  0  0  0  0  0  0  0  0  0  0  0
    5.5705   -0.9183   -8.4590 C   0  0  0  0  0  0  0  0  0  0  0  0
    5.5649   -0.4408   -7.1166 C   0  0  0  0  0  0  0  0  0  0  0  0
    6.2936   -0.9709   -5.9245 C   0  0  0  0  0  0  0  0  0  0  0  0
    7.4421   -1.6905   -5.9317 C   0  0  0  0  0  0  0  0  0  0  0  0
    8.1038   -2.0798   -7.1517 C   0  0  0  0  0  0  0  0  0  0  0  0
    8.6473   -2.3968   -8.1209 N   0  0  0  0  0  0  0  0  0  0  0  0
    8.1610   -1.9924   -4.7232 C   0  0  0  0  0  0  0  0  0  0  0  0
    8.7515   -2.2326   -3.7580 N   0  0  0  0  0  0  0  0  0  0  0  0
    3.9498   -0.3713  -10.6246 C   0  0  0  0  0  0  0  0  0  0  0  0
    4.6719    0.3681  -11.7910 C   0  0  0  0  0  0  0  0  0  0  0  0
    3.6370    0.5098  -12.8856 C   0  0  0  0  0  0  0  0  0  0  0  0
    2.7435    1.4110  -12.4465 C   0  0  0  0  0  0  0  0  0  0  0  0
    3.2100    1.8425  -11.0784 C   0  0  0  0  0  0  0  0  0  0  0  0
    4.7140    1.8131  -11.3191 C   0  0  0  0  0  0  0  0  0  0  0  0
    2.9733    0.6186  -10.1483 C   0  0  0  0  0  0  0  0  0  0  0  0
    4.3879   -0.6636   -2.6028 C   0  0  0  0  0  0  0  0  0  0  0  0
    3.0557   -1.0177   -2.8644 C   0  0  0  0  0  0  0  0  0  0  0  0
    2.6772   -2.0644   -3.7789 N   0  0  0  0  0  0  0  0  0  0  0  0
    3.3832   -3.3157   -3.7559 C   0  0  0  0  0  0  0  0  0  0  0  0
    3.4863   -4.0465   -2.5593 C   0  0  0  0  0  0  0  0  0  0  0  0
    4.1565   -5.2681   -2.5339 C   0  0  0  0  0  0  0  0  0  0  0  0
    4.7779   -5.7514   -3.6916 C   0  0  0  0  0  0  0  0  0  0  0  0
    5.6414   -7.3231   -3.6584 S   0  0  0  0  0  0  0  0  0  0  0  0
    7.1998   -6.5954   -3.0632 C   0  0  0  0  0  0  0  0  0  0  0  0
    4.7053   -5.0160   -4.8823 C   0  0  0  0  0  0  0  0  0  0  0  0
    4.0048   -3.8058   -4.9180 C   0  0  0  0  0  0  0  0  0  0  0  0
    1.5121   -1.9509   -4.6045 C   0  0  0  0  0  0  0  0  0  0  0  0
    0.2814   -2.4671   -4.1718 C   0  0  0  0  0  0  0  0  0  0  0  0
   -0.8553   -2.3561   -4.9798 C   0  0  0  0  0  0  0  0  0  0  0  0
   -0.7536   -1.7783   -6.2524 C   0  0  0  0  0  0  0  0  0  0  0  0
   -2.1850   -1.6901   -7.3292 S   0  0  0  0  0  0  0  0  0  0  0  0
   -1.9188   -3.3596   -8.0166 C   0  0  0  0  0  0  0  0  0  0  0  0
    0.4855   -1.3010   -6.7047 C   0  0  0  0  0  0  0  0  0  0  0  0
    1.6083   -1.3912   -5.8808 C   0  0  0  0  0  0  0  0  0  0  0  0
    2.1854   -0.3496   -2.0052 C   0  0  0  0  0  0  0  0  0  0  0  0
    0.5338   -0.3408   -1.7758 S   0  0  0  0  0  0  0  0  0  0  0  0
    0.5745    0.6757   -0.4116 C   0  0  0  0  0  0  0  0  0  0  0  0
    1.9179    1.0028   -0.1207 C   0  0  0  0  0  0  0  0  0  0  0  0
    2.3695    1.4205    1.1807 N   0  0  0  0  0  0  0  0  0  0  0  0
    2.5333    0.3615    2.1396 C   0  0  0  0  0  0  0  0  0  0  0  0
    1.4347   -0.1064    2.8689 C   0  0  0  0  0  0  0  0  0  0  0  0
    1.5754   -1.2041    3.7276 C   0  0  0  0  0  0  0  0  0  0  0  0
    2.8144   -1.8467    3.8497 C   0  0  0  0  0  0  0  0  0  0  0  0
    2.9780   -3.3204    4.8622 S   0  0  0  0  0  0  0  0  0  0  0  0
    3.6957   -2.4362    6.2807 C   0  0  0  0  0  0  0  0  0  0  0  0
    3.9143   -1.3775    3.1211 C   0  0  0  0  0  0  0  0  0  0  0  0
    3.7777   -0.2641    2.2873 C   0  0  0  0  0  0  0  0  0  0  0  0
    3.0197    2.6936    1.4037 C   0  0  0  0  0  0  0  0  0  0  0  0
    3.4405    3.5044    0.3275 C   0  0  0  0  0  0  0  0  0  0  0  0
    4.0964    4.7191    0.5652 C   0  0  0  0  0  0  0  0  0  0  0  0
    4.3453    5.1444    1.8740 C   0  0  0  0  0  0  0  0  0  0  0  0
    5.1708    6.7120    2.1690 S   0  0  0  0  0  0  0  0  0  0  0  0
    6.8244    5.9673    2.3192 C   0  0  0  0  0  0  0  0  0  0  0  0
    3.9065    4.3651    2.9479 C   0  0  0  0  0  0  0  0  0  0  0  0
    3.2558    3.1482    2.7155 C   0  0  0  0  0  0  0  0  0  0  0  0
    2.7788    0.4238   -1.0578 C   0  0  0  0  0  0  0  0  0  0  0  0
    4.4483    0.3874   -1.2626 S   0  0  0  0  0  0  0  0  0  0  0  0
   -0.6444    1.1136    0.3043 C   0  0  0  0  0  0  0  0  0  0  0  0
   -1.7434    0.2562    0.4292 C   0  0  0  0  0  0  0  0  0  0  0  0
   -1.8578   -1.0362    0.0793 N   0  0  0  0  0  0  0  0  0  0  0  0
   -3.1144   -1.3616    0.3702 N   0  0  0  0  0  0  0  0  0  0  0  0
   -3.6995   -2.6711    0.1009 C   0  0  0  0  0  0  0  0  0  0  0  0
   -2.9366   -3.7622    0.8394 C   0  0  0  0  0  0  0  0  0  0  0  0
   -3.8092   -0.3461    0.8714 N   0  0  0  0  0  0  0  0  0  0  0  0
   -2.9436    0.6773    0.9106 C   0  0  0  0  0  0  0  0  0  0  0  0
   -3.1768    1.9898    1.3045 C   0  0  0  0  0  0  0  0  0  0  0  0
   -2.0835    2.8806    1.2460 C   0  0  0  0  0  0  0  0  0  0  0  0
   -0.8262    2.4503    0.7447 C   0  0  0  0  0  0  0  0  0  0  0  0
    0.1711    3.3631    0.6157 F   0  0  0  0  0  0  0  0  0  0  0  0
   -2.2462    4.1783    1.6086 F   0  0  0  0  0  0  0  0  0  0  0  0
   -4.5313    2.4099    1.7006 C   0  0  0  0  0  0  0  0  0  0  0  0
   -5.0088    2.7265    3.2804 S   0  0  0  0  0  0  0  0  0  0  0  0
   -6.6760    2.7146    2.9868 C   0  0  0  0  0  0  0  0  0  0  0  0
   -6.8736    2.3883    1.6463 C   0  0  0  0  0  0  0  0  0  0  0  0
   -5.6738    2.2191    0.9257 C   0  0  0  0  0  0  0  0  0  0  0  0
   -5.5831    1.9021   -0.4341 O   0  0  0  0  0  0  0  0  0  0  0  0
   -6.4080    0.9476   -1.0904 C   0  0  0  0  0  0  0  0  0  0  0  0
   -7.8658    1.3870   -1.1450 C   0  0  0  0  0  0  0  0  0  0  0  0
   -8.5499    1.2352    0.2073 C   0  0  0  0  0  0  0  0  0  0  0  0
   -8.1624    2.2627    1.1114 O   0  0  0  0  0  0  0  0  0  0  0  0
   -7.7442    2.6630    4.0045 C   0  0  0  0  0  0  0  0  0  0  0  0
   -7.6219    3.0401    5.2881 C   0  0  0  0  0  0  0  0  0  0  0  0
   -8.3655    2.3912    6.3680 C   0  0  0  0  0  0  0  0  0  0  0  0
   -9.4353    1.7343    6.2406 O   0  0  0  0  0  0  0  0  0  0  0  0
   -7.5912    2.5123    7.5868 C   0  0  0  0  0  0  0  0  0  0  0  0
   -7.8033    1.8310    8.8055 C   0  0  0  0  0  0  0  0  0  0  0  0
   -6.7840    2.0037    9.7256 C   0  0  0  0  0  0  0  0  0  0  0  0
   -5.6159    2.7937    9.4659 C   0  0  0  0  0  0  0  0  0  0  0  0
   -5.4029    3.4680    8.2741 C   0  0  0  0  0  0  0  0  0  0  0  0
   -6.4442    3.3116    7.3220 C   0  0  0  0  0  0  0  0  0  0  0  0
   -6.5140    3.7999    5.9228 C   0  0  0  0  0  0  0  0  0  0  0  0
   -6.0052    4.9640    5.4610 C   0  0  0  0  0  0  0  0  0  0  0  0
   -6.5015    5.5697    4.2489 C   0  0  0  0  0  0  0  0  0  0  0  0
   -6.9064    6.0497    3.2777 N   0  0  0  0  0  0  0  0  0  0  0  0
   -5.0209    5.7243    6.1876 C   0  0  0  0  0  0  0  0  0  0  0  0
   -4.2245    6.3384    6.7620 N   0  0  0  0  0  0  0  0  0  0  0  0
   -5.0414    2.4114   10.7981 C   0  0  0  0  0  0  0  0  0  0  0  0
   -3.8828    1.3700   10.8135 C   0  0  0  0  0  0  0  0  0  0  0  0
   -4.0317    0.4154    9.6510 C   0  0  0  0  0  0  0  0  0  0  0  0
   -5.1134   -0.3248    9.8948 C   0  0  0  0  0  0  0  0  0  0  0  0
   -5.6689    0.1538   11.2182 C   0  0  0  0  0  0  0  0  0  0  0  0
   -4.3634    0.4591   11.9273 C   0  0  0  0  0  0  0  0  0  0  0  0
   -6.2353    1.6007   11.0639 C   0  0  0  0  0  0  0  0  0  0  0  0
    6.1137   -1.8176   -3.2378 H   0  0  0  0  0  0  0  0  0  0  0  0
    2.8824    1.7913   -7.1699 H   0  0  0  0  0  0  0  0  0  0  0  0
    6.1779   -1.7341   -8.8119 H   0  0  0  0  0  0  0  0  0  0  0  0
    3.5108   -1.3584  -10.8871 H   0  0  0  0  0  0  0  0  0  0  0  0
    5.6421   -0.0667  -12.1097 H   0  0  0  0  0  0  0  0  0  0  0  0
    3.6466    0.0530  -13.8651 H   0  0  0  0  0  0  0  0  0  0  0  0
    1.9038    1.8028  -13.0128 H   0  0  0  0  0  0  0  0  0  0  0  0
    2.7930    2.8090  -10.7133 H   0  0  0  0  0  0  0  0  0  0  0  0
    5.0492    2.5288  -12.1108 H   0  0  0  0  0  0  0  0  0  0  0  0
    5.3199    1.9749  -10.4000 H   0  0  0  0  0  0  0  0  0  0  0  0
    1.9244    0.2468  -10.0969 H   0  0  0  0  0  0  0  0  0  0  0  0
    3.0121   -3.6785   -1.6584 H   0  0  0  0  0  0  0  0  0  0  0  0
    4.1980   -5.8442   -1.6159 H   0  0  0  0  0  0  0  0  0  0  0  0
    7.0279   -6.0561   -2.1064 H   0  0  0  0  0  0  0  0  0  0  0  0
    7.9281   -7.4145   -2.8829 H   0  0  0  0  0  0  0  0  0  0  0  0
    7.6035   -5.8956   -3.8230 H   0  0  0  0  0  0  0  0  0  0  0  0
    5.1977   -5.3772   -5.7769 H   0  0  0  0  0  0  0  0  0  0  0  0
    3.9588   -3.2413   -5.8417 H   0  0  0  0  0  0  0  0  0  0  0  0
    0.2023   -2.9276   -3.1961 H   0  0  0  0  0  0  0  0  0  0  0  0
   -1.8028   -2.7441   -4.6248 H   0  0  0  0  0  0  0  0  0  0  0  0
   -0.9313   -3.4163   -8.5249 H   0  0  0  0  0  0  0  0  0  0  0  0
   -2.7146   -3.5758   -8.7568 H   0  0  0  0  0  0  0  0  0  0  0  0
   -1.9675   -4.1159   -7.2041 H   0  0  0  0  0  0  0  0  0  0  0  0
    0.5829   -0.8654   -7.6878 H   0  0  0  0  0  0  0  0  0  0  0  0
    2.5628   -1.0541   -6.2452 H   0  0  0  0  0  0  0  0  0  0  0  0
    0.4717    0.3757    2.7737 H   0  0  0  0  0  0  0  0  0  0  0  0
    0.7173   -1.5687    4.2736 H   0  0  0  0  0  0  0  0  0  0  0  0
    2.9897   -1.6630    6.6465 H   0  0  0  0  0  0  0  0  0  0  0  0
    3.8895   -3.1628    7.0947 H   0  0  0  0  0  0  0  0  0  0  0  0
    4.6568   -1.9643    5.9905 H   0  0  0  0  0  0  0  0  0  0  0  0
    4.8753   -1.8756    3.1969 H   0  0  0  0  0  0  0  0  0  0  0  0
    4.6349    0.0867    1.7260 H   0  0  0  0  0  0  0  0  0  0  0  0
    3.2718    3.2041   -0.6993 H   0  0  0  0  0  0  0  0  0  0  0  0
    4.4099    5.3309   -0.2728 H   0  0  0  0  0  0  0  0  0  0  0  0
    7.5788    6.7768    2.2972 H   0  0  0  0  0  0  0  0  0  0  0  0
    7.0199    5.2830    1.4679 H   0  0  0  0  0  0  0  0  0  0  0  0
    6.9045    5.4109    3.2741 H   0  0  0  0  0  0  0  0  0  0  0  0
    4.0702    4.6966    3.9663 H   0  0  0  0  0  0  0  0  0  0  0  0
    2.9280    2.5620    3.5685 H   0  0  0  0  0  0  0  0  0  0  0  0
   -3.6821   -2.8690   -0.9915 H   0  0  0  0  0  0  0  0  0  0  0  0
   -4.7598   -2.6830    0.4361 H   0  0  0  0  0  0  0  0  0  0  0  0
   -2.9191   -3.5477    1.9275 H   0  0  0  0  0  0  0  0  0  0  0  0
   -1.8983   -3.8318    0.4573 H   0  0  0  0  0  0  0  0  0  0  0  0
   -3.4376   -4.7374    0.6726 H   0  0  0  0  0  0  0  0  0  0  0  0
   -6.3063   -0.0434   -0.5962 H   0  0  0  0  0  0  0  0  0  0  0  0
   -6.0293    0.8340   -2.1280 H   0  0  0  0  0  0  0  0  0  0  0  0
   -7.9384    2.4367   -1.5039 H   0  0  0  0  0  0  0  0  0  0  0  0
   -8.3945    0.7349   -1.8718 H   0  0  0  0  0  0  0  0  0  0  0  0
   -9.6499    1.3138    0.0612 H   0  0  0  0  0  0  0  0  0  0  0  0
   -8.3410    0.2333    0.6552 H   0  0  0  0  0  0  0  0  0  0  0  0
   -8.6348    2.1080    3.7311 H   0  0  0  0  0  0  0  0  0  0  0  0
   -8.6448    1.1722    8.9823 H   0  0  0  0  0  0  0  0  0  0  0  0
   -4.4786    3.9922    8.0834 H   0  0  0  0  0  0  0  0  0  0  0  0
   -4.9193    3.2670   11.5002 H   0  0  0  0  0  0  0  0  0  0  0  0
   -2.8662    1.7959   10.9450 H   0  0  0  0  0  0  0  0  0  0  0  0
   -3.3654    0.3029    8.8002 H   0  0  0  0  0  0  0  0  0  0  0  0
   -5.4788   -1.1407    9.2824 H   0  0  0  0  0  0  0  0  0  0  0  0
   -6.3339   -0.5671   11.7401 H   0  0  0  0  0  0  0  0  0  0  0  0
   -4.5047    0.9810   12.9056 H   0  0  0  0  0  0  0  0  0  0  0  0
   -3.7154   -0.4420   12.0775 H   0  0  0  0  0  0  0  0  0  0  0  0
   -6.8393    1.9613   11.9275 H   0  0  0  0  0  0  0  0  0  0  0  0
  1  2  2  3
  2  3  1  0
  3  4  2  0
  3  5  1  0
  5  6  2  0
  6  7  1  0
  7  8  2  0
  8  9  1  0
  9 10  2  0
 10 11  1  0
 11 12  2  3
 12 13  1  0
 13 14  3  0
 12 15  1  0
 15 16  3  0
  8 17  1  0
 17 18  1  0
 18 19  1  0
 19 20  2  0
 20 21  1  0
 21 22  1  0
 21 23  1  0
  1 24  1  0
 24 25  2  0
 25 26  1  0
 26 27  1  0
 27 28  2  0
 28 29  1  0
 29 30  2  0
 30 31  1  0
 31 32  1  0
 30 33  1  0
 33 34  2  0
 26 35  1  0
 35 36  2  0
 36 37  1  0
 37 38  2  0
 38 39  1  0
 39 40  1  0
 38 41  1  0
 41 42  2  0
 25 43  1  0
 43 44  1  0
 44 45  1  0
 45 46  2  0
 46 47  1  0
 47 48  1  0
 48 49  2  0
 49 50  1  0
 50 51  2  0
 51 52  1  0
 52 53  1  0
 51 54  1  0
 54 55  2  0
 47 56  1  0
 56 57  2  0
 57 58  1  0
 58 59  2  0
 59 60  1  0
 60 61  1  0
 59 62  1  0
 62 63  2  0
 46 64  1  0
 64 65  1  0
 45 66  1  0
 66 67  1  0
 67 68  2  0
 68 69  1  0
 69 70  1  0
 70 71  1  0
 69 72  1  0
 72 73  2  0
 73 74  1  0
 74 75  2  0
 75 76  1  0
 76 77  1  0
 75 78  1  0
 74 79  1  0
 79 80  1  0
 80 81  1  0
 81 82  2  0
 82 83  1  0
 83 84  1  0
 84 85  1  0
 85 86  1  0
 86 87  1  0
 87 88  1  0
 81 89  1  0
 89 90  2  3
 90 91  1  0
 91 92  2  0
 91 93  1  0
 93 94  2  0
 94 95  1  0
 95 96  2  0
 96 97  1  0
 97 98  2  0
 98 99  1  0
 99100  2  3
100101  1  0
101102  3  0
100103  1  0
103104  3  0
 96105  1  0
105106  1  0
106107  1  0
107108  2  0
108109  1  0
109110  1  0
109111  1  0
 11  2  1  0
 23 17  1  0
 65 24  1  0
 76 66  2  0
 83 79  2  0
 99 90  1  0
111105  1  0
 10  5  1  0
 22 18  1  0
 34 27  1  0
 42 35  1  0
 64 43  2  0
 73 67  1  0
 88 82  1  0
 98 93  1  0
110106  1  0
 23  7  1  0
 55 48  1  0
 63 56  1  0
111 95  1  0
  1112  1  0
  6113  1  0
  9114  1  0
 17115  1  0
 18116  1  0
 19117  1  0
 20118  1  0
 21119  1  0
 22120  1  0
 22121  1  0
 23122  1  0
 28123  1  0
 29124  1  0
 32125  1  0
 32126  1  0
 32127  1  0
 33128  1  0
 34129  1  0
 36130  1  0
 37131  1  0
 40132  1  0
 40133  1  0
 40134  1  0
 41135  1  0
 42136  1  0
 49137  1  0
 50138  1  0
 53139  1  0
 53140  1  0
 53141  1  0
 54142  1  0
 55143  1  0
 57144  1  0
 58145  1  0
 61146  1  0
 61147  1  0
 61148  1  0
 62149  1  0
 63150  1  0
 70151  1  0
 70152  1  0
 71153  1  0
 71154  1  0
 71155  1  0
 85156  1  0
 85157  1  0
 86158  1  0
 86159  1  0
 87160  1  0
 87161  1  0
 89162  1  0
 94163  1  0
 97164  1  0
105165  1  0
106166  1  0
107167  1  0
108168  1  0
109169  1  0
110170  1  0
110171  1  0
111172  1  0
M  END

