
     RDKit          3D

229252  0  0  0  0  0  0  0  0999 V2000
   -2.9099   -4.7682    5.6361 C   0  0  0  0  0  0  0  0  0  0  0  0
   -2.7845   -5.5066    4.5315 C   0  0  0  0  0  0  0  0  0  0  0  0
   -1.6603   -6.4282    4.2814 C   0  0  0  0  0  0  0  0  0  0  0  0
   -0.8383   -6.7908    5.1539 O   0  0  0  0  0  0  0  0  0  0  0  0
   -1.8165   -6.9781    2.9535 C   0  0  0  0  0  0  0  0  0  0  0  0
   -0.8231   -7.7550    2.2546 C   0  0  0  0  0  0  0  0  0  0  0  0
   -1.1633   -7.9091    0.9371 C   0  0  0  0  0  0  0  0  0  0  0  0
   -2.2917   -7.4056    0.2997 C   0  0  0  0  0  0  0  0  0  0  0  0
   -3.2812   -6.6890    0.9963 C   0  0  0  0  0  0  0  0  0  0  0  0
   -3.0256   -6.5515    2.4004 C   0  0  0  0  0  0  0  0  0  0  0  0
   -3.7891   -5.7332    3.4015 C   0  0  0  0  0  0  0  0  0  0  0  0
   -5.0598   -5.3189    3.2756 C   0  0  0  0  0  0  0  0  0  0  0  0
   -5.9152   -5.5134    2.0242 C   0  0  0  0  0  0  0  0  0  0  0  0
   -6.5532   -5.6437    1.0795 N   0  0  0  0  0  0  0  0  0  0  0  0
   -5.7666   -4.5250    4.3257 C   0  0  0  0  0  0  0  0  0  0  0  0
   -6.4402   -3.9382    5.0576 N   0  0  0  0  0  0  0  0  0  0  0  0
   -1.9048   -8.0020   -1.0278 C   0  0  0  0  0  0  0  0  0  0  0  0
   -2.7171   -9.2199   -1.5325 C   0  0  0  0  0  0  0  0  0  0  0  0
   -3.3346   -9.9688   -0.3728 C   0  0  0  0  0  0  0  0  0  0  0  0
   -2.3184  -10.4616    0.3261 C   0  0  0  0  0  0  0  0  0  0  0  0
   -1.0445  -10.1281   -0.4361 C   0  0  0  0  0  0  0  0  0  0  0  0
   -1.5887  -10.1956   -1.8652 C   0  0  0  0  0  0  0  0  0  0  0  0
   -0.7491   -8.6142   -0.3419 C   0  0  0  0  0  0  0  0  0  0  0  0
   -2.1220   -3.4902    5.8626 C   0  0  0  0  0  0  0  0  0  0  0  0
   -2.7936   -2.3172    6.3934 C   0  0  0  0  0  0  0  0  0  0  0  0
   -4.0676   -2.4299    6.8470 N   0  0  0  0  0  0  0  0  0  0  0  0
   -4.7881   -1.3443    7.3161 C   0  0  0  0  0  0  0  0  0  0  0  0
   -4.1832   -0.1167    7.3896 C   0  0  0  0  0  0  0  0  0  0  0  0
   -4.8897    0.9742    7.8454 O   0  0  0  0  0  0  0  0  0  0  0  0
   -4.4647    2.2690    8.1484 C   0  0  0  0  0  0  0  0  0  0  0  0
   -4.3590    3.1681    6.9053 C   0  0  0  0  0  0  0  0  0  0  0  0
   -2.8476    0.0201    6.9199 N   0  0  0  0  0  0  0  0  0  0  0  0
   -2.2128   -1.0947    6.4182 C   0  0  0  0  0  0  0  0  0  0  0  0
   -0.9682   -0.9351    5.7900 C   0  0  0  0  0  0  0  0  0  0  0  0
   -0.1586   -2.0923    5.5285 C   0  0  0  0  0  0  0  0  0  0  0  0
   -0.7595   -3.3442    5.4912 C   0  0  0  0  0  0  0  0  0  0  0  0
    0.0253   -4.3709    5.0561 F   0  0  0  0  0  0  0  0  0  0  0  0
    1.1683   -2.0223    5.1660 F   0  0  0  0  0  0  0  0  0  0  0  0
   -0.8464    0.1650    4.7966 C   0  0  0  0  0  0  0  0  0  0  0  0
    0.3049    0.4536    4.0572 C   0  0  0  0  0  0  0  0  0  0  0  0
    1.5877    0.8219    4.7030 N   0  0  0  0  0  0  0  0  0  0  0  0
    2.8491    0.1483    4.5658 C   0  0  0  0  0  0  0  0  0  0  0  0
    3.6794   -0.0144    5.7130 C   0  0  0  0  0  0  0  0  0  0  0  0
    5.0314   -0.2885    5.5683 C   0  0  0  0  0  0  0  0  0  0  0  0
    5.5808   -0.4552    4.2944 C   0  0  0  0  0  0  0  0  0  0  0  0
    7.2964   -0.9672    4.1159 S   0  0  0  0  0  0  0  0  0  0  0  0
    8.0214    0.6756    3.8323 C   0  0  0  0  0  0  0  0  0  0  0  0
    4.7447   -0.4616    3.1753 C   0  0  0  0  0  0  0  0  0  0  0  0
    3.3922   -0.2180    3.3344 C   0  0  0  0  0  0  0  0  0  0  0  0
    1.6210    2.1353    5.3086 C   0  0  0  0  0  0  0  0  0  0  0  0
    2.6086    3.0872    4.9286 C   0  0  0  0  0  0  0  0  0  0  0  0
    2.7630    4.2654    5.6180 C   0  0  0  0  0  0  0  0  0  0  0  0
    1.9080    4.6029    6.6512 C   0  0  0  0  0  0  0  0  0  0  0  0
    2.0717    6.1953    7.4893 S   0  0  0  0  0  0  0  0  0  0  0  0
    3.1639    5.6255    8.7976 C   0  0  0  0  0  0  0  0  0  0  0  0
    0.8817    3.7272    7.0116 C   0  0  0  0  0  0  0  0  0  0  0  0
    0.7344    2.5161    6.3320 C   0  0  0  0  0  0  0  0  0  0  0  0
   -0.0061    1.0183    2.8289 C   0  0  0  0  0  0  0  0  0  0  0  0
    0.7904    1.0197    1.3747 S   0  0  0  0  0  0  0  0  0  0  0  0
   -0.4954    1.1900    0.3666 C   0  0  0  0  0  0  0  0  0  0  0  0
   -1.6676    1.3533    1.1459 C   0  0  0  0  0  0  0  0  0  0  0  0
   -3.0179    1.7065    0.6768 N   0  0  0  0  0  0  0  0  0  0  0  0
   -3.6903    3.0242    0.8999 C   0  0  0  0  0  0  0  0  0  0  0  0
   -3.7340    3.6038    2.1932 C   0  0  0  0  0  0  0  0  0  0  0  0
   -4.6608    4.6678    2.4578 C   0  0  0  0  0  0  0  0  0  0  0  0
   -5.5458    5.0935    1.4565 C   0  0  0  0  0  0  0  0  0  0  0  0
   -7.0194    6.0539    1.8559 S   0  0  0  0  0  0  0  0  0  0  0  0
   -6.2841    7.6642    2.0980 C   0  0  0  0  0  0  0  0  0  0  0  0
   -5.3684    4.6304    0.1666 C   0  0  0  0  0  0  0  0  0  0  0  0
   -4.4079    3.6790   -0.1582 C   0  0  0  0  0  0  0  0  0  0  0  0
   -3.8376    0.5479    0.2955 C   0  0  0  0  0  0  0  0  0  0  0  0
   -4.0994   -0.4874    1.1895 C   0  0  0  0  0  0  0  0  0  0  0  0
   -5.0841   -1.4815    0.9352 C   0  0  0  0  0  0  0  0  0  0  0  0
   -5.8685   -1.4000   -0.2253 C   0  0  0  0  0  0  0  0  0  0  0  0
   -7.0798   -2.6978   -0.5835 S   0  0  0  0  0  0  0  0  0  0  0  0
   -7.9021   -1.9858   -2.0652 C   0  0  0  0  0  0  0  0  0  0  0  0
   -5.5667   -0.4094   -1.1505 C   0  0  0  0  0  0  0  0  0  0  0  0
   -4.5055    0.4963   -0.9395 C   0  0  0  0  0  0  0  0  0  0  0  0
   -1.3200    1.1801    2.5145 C   0  0  0  0  0  0  0  0  0  0  0  0
   -2.1577    0.7218    3.8923 S   0  0  0  0  0  0  0  0  0  0  0  0
   -0.2151    0.9907   -1.0849 C   0  0  0  0  0  0  0  0  0  0  0  0
   -0.4112    1.8066   -2.1942 C   0  0  0  0  0  0  0  0  0  0  0  0
   -1.4233    2.8901   -2.3520 N   0  0  0  0  0  0  0  0  0  0  0  0
   -2.5365    2.5629   -3.2331 C   0  0  0  0  0  0  0  0  0  0  0  0
   -3.5099    3.5041   -3.7657 C   0  0  0  0  0  0  0  0  0  0  0  0
   -4.4224    3.1366   -4.7821 C   0  0  0  0  0  0  0  0  0  0  0  0
   -4.5038    1.8476   -5.2482 C   0  0  0  0  0  0  0  0  0  0  0  0
   -5.7722    1.4077   -6.4573 S   0  0  0  0  0  0  0  0  0  0  0  0
   -5.1469   -0.2143   -7.0036 C   0  0  0  0  0  0  0  0  0  0  0  0
   -3.7270    0.8410   -4.6367 C   0  0  0  0  0  0  0  0  0  0  0  0
   -2.7465    1.2285   -3.6986 C   0  0  0  0  0  0  0  0  0  0  0  0
   -1.0231    4.2197   -1.7890 C   0  0  0  0  0  0  0  0  0  0  0  0
   -1.3453    5.4484   -2.4419 C   0  0  0  0  0  0  0  0  0  0  0  0
   -1.0334    6.6698   -1.8485 C   0  0  0  0  0  0  0  0  0  0  0  0
   -0.3012    6.6905   -0.6498 C   0  0  0  0  0  0  0  0  0  0  0  0
    0.1284    8.1978    0.2663 S   0  0  0  0  0  0  0  0  0  0  0  0
    0.7098    9.1248   -1.1994 C   0  0  0  0  0  0  0  0  0  0  0  0
    0.1696    5.4876   -0.0898 C   0  0  0  0  0  0  0  0  0  0  0  0
   -0.2036    4.3074   -0.7076 C   0  0  0  0  0  0  0  0  0  0  0  0
    0.3821    1.3846   -3.2743 C   0  0  0  0  0  0  0  0  0  0  0  0
    0.4924    1.8473   -4.8925 S   0  0  0  0  0  0  0  0  0  0  0  0
    1.7278    0.7181   -5.2546 C   0  0  0  0  0  0  0  0  0  0  0  0
    1.9565   -0.0628   -4.1304 C   0  0  0  0  0  0  0  0  0  0  0  0
    2.8523   -1.2372   -4.0387 N   0  0  0  0  0  0  0  0  0  0  0  0
    2.2161   -2.4909   -4.3524 C   0  0  0  0  0  0  0  0  0  0  0  0
    2.3127   -3.5500   -3.4610 C   0  0  0  0  0  0  0  0  0  0  0  0
    1.9790   -4.8372   -3.8341 C   0  0  0  0  0  0  0  0  0  0  0  0
    1.5088   -5.0768   -5.1338 C   0  0  0  0  0  0  0  0  0  0  0  0
    1.0137   -6.7691   -5.6220 S   0  0  0  0  0  0  0  0  0  0  0  0
    2.4529   -7.7251   -4.9380 C   0  0  0  0  0  0  0  0  0  0  0  0
    1.2378   -4.0097   -5.9828 C   0  0  0  0  0  0  0  0  0  0  0  0
    1.5962   -2.7135   -5.5822 C   0  0  0  0  0  0  0  0  0  0  0  0
    4.1589   -1.2529   -3.3626 C   0  0  0  0  0  0  0  0  0  0  0  0
    4.4701   -0.5006   -2.2275 C   0  0  0  0  0  0  0  0  0  0  0  0
    5.6135   -0.7470   -1.4151 C   0  0  0  0  0  0  0  0  0  0  0  0
    6.4286   -1.8356   -1.7358 C   0  0  0  0  0  0  0  0  0  0  0  0
    7.9217   -2.1438   -0.7782 S   0  0  0  0  0  0  0  0  0  0  0  0
    7.2463   -2.8030    0.7619 C   0  0  0  0  0  0  0  0  0  0  0  0
    6.1429   -2.5769   -2.8389 C   0  0  0  0  0  0  0  0  0  0  0  0
    5.0843   -2.3141   -3.6961 C   0  0  0  0  0  0  0  0  0  0  0  0
    1.1580    0.3479   -3.0816 C   0  0  0  0  0  0  0  0  0  0  0  0
    0.9121   -0.2246   -1.5337 S   0  0  0  0  0  0  0  0  0  0  0  0
    2.5202    0.8862   -6.4458 C   0  0  0  0  0  0  0  0  0  0  0  0
    3.4528    1.8250   -6.3931 C   0  0  0  0  0  0  0  0  0  0  0  0
    4.0643    2.3004   -5.1427 C   0  0  0  0  0  0  0  0  0  0  0  0
    4.0412    1.7265   -3.9937 O   0  0  0  0  0  0  0  0  0  0  0  0
    4.8023    3.4411   -5.3428 C   0  0  0  0  0  0  0  0  0  0  0  0
    5.5680    4.1203   -4.3925 C   0  0  0  0  0  0  0  0  0  0  0  0
    5.8925    5.3872   -4.7230 C   0  0  0  0  0  0  0  0  0  0  0  0
    5.7269    5.8786   -6.0347 C   0  0  0  0  0  0  0  0  0  0  0  0
    5.1911    5.1676   -7.0955 C   0  0  0  0  0  0  0  0  0  0  0  0
    4.6426    3.8632   -6.7141 C   0  0  0  0  0  0  0  0  0  0  0  0
    3.8582    2.8306   -7.4701 C   0  0  0  0  0  0  0  0  0  0  0  0
    3.6278    2.8002   -8.8133 C   0  0  0  0  0  0  0  0  0  0  0  0
    4.1176    3.8491   -9.7527 C   0  0  0  0  0  0  0  0  0  0  0  0
    4.4964    4.7077  -10.4632 N   0  0  0  0  0  0  0  0  0  0  0  0
    2.8085    1.8351   -9.4206 C   0  0  0  0  0  0  0  0  0  0  0  0
    2.1081    1.0291   -9.9754 N   0  0  0  0  0  0  0  0  0  0  0  0
    5.8252    7.2834   -5.4476 C   0  0  0  0  0  0  0  0  0  0  0  0
    4.5812    8.1183   -5.0068 C   0  0  0  0  0  0  0  0  0  0  0  0
    3.5499    7.2683   -4.3465 C   0  0  0  0  0  0  0  0  0  0  0  0
    4.0128    6.9139   -3.1820 C   0  0  0  0  0  0  0  0  0  0  0  0
    5.3894    7.4233   -3.0958 C   0  0  0  0  0  0  0  0  0  0  0  0
    5.1940    8.7805   -3.7727 C   0  0  0  0  0  0  0  0  0  0  0  0
    6.2745    6.7303   -4.1668 C   0  0  0  0  0  0  0  0  0  0  0  0
   -3.9209   -4.6763    6.0098 H   0  0  0  0  0  0  0  0  0  0  0  0
    0.0463   -8.1603    2.6927 H   0  0  0  0  0  0  0  0  0  0  0  0
   -4.1435   -6.3896    0.4508 H   0  0  0  0  0  0  0  0  0  0  0  0
   -1.6233   -7.2364   -1.7815 H   0  0  0  0  0  0  0  0  0  0  0  0
   -3.3958   -9.0099   -2.3992 H   0  0  0  0  0  0  0  0  0  0  0  0
   -4.3924  -10.0232   -0.1375 H   0  0  0  0  0  0  0  0  0  0  0  0
   -2.4459  -10.9989    1.2443 H   0  0  0  0  0  0  0  0  0  0  0  0
   -0.1917  -10.8007   -0.2278 H   0  0  0  0  0  0  0  0  0  0  0  0
   -0.8637   -9.8335   -2.6338 H   0  0  0  0  0  0  0  0  0  0  0  0
   -1.9266  -11.2227   -2.1716 H   0  0  0  0  0  0  0  0  0  0  0  0
    0.2132   -8.3049   -0.7707 H   0  0  0  0  0  0  0  0  0  0  0  0
   -5.8074   -1.4135    7.5995 H   0  0  0  0  0  0  0  0  0  0  0  0
   -3.5110    2.2447    8.6960 H   0  0  0  0  0  0  0  0  0  0  0  0
   -5.2020    2.7828    8.8627 H   0  0  0  0  0  0  0  0  0  0  0  0
   -3.3765    3.6231    6.8127 H   0  0  0  0  0  0  0  0  0  0  0  0
   -5.0902    4.0026    6.9649 H   0  0  0  0  0  0  0  0  0  0  0  0
   -4.5512    2.5762    5.9709 H   0  0  0  0  0  0  0  0  0  0  0  0
    3.2777    0.2524    6.6787 H   0  0  0  0  0  0  0  0  0  0  0  0
    5.6346   -0.3798    6.4643 H   0  0  0  0  0  0  0  0  0  0  0  0
    9.0537    0.5118    3.4480 H   0  0  0  0  0  0  0  0  0  0  0  0
    8.0814    1.2026    4.8457 H   0  0  0  0  0  0  0  0  0  0  0  0
    7.4232    1.2385    3.0453 H   0  0  0  0  0  0  0  0  0  0  0  0
    5.1146   -0.6479    2.1626 H   0  0  0  0  0  0  0  0  0  0  0  0
    2.8153   -0.1346    2.4440 H   0  0  0  0  0  0  0  0  0  0  0  0
    3.2965    2.8041    4.1617 H   0  0  0  0  0  0  0  0  0  0  0  0
    3.5448    4.9531    5.2894 H   0  0  0  0  0  0  0  0  0  0  0  0
    2.5704    5.0943    9.5514 H   0  0  0  0  0  0  0  0  0  0  0  0
    3.6270    6.5162    9.2666 H   0  0  0  0  0  0  0  0  0  0  0  0
    3.9543    4.9757    8.3993 H   0  0  0  0  0  0  0  0  0  0  0  0
    0.1455    3.9989    7.8040 H   0  0  0  0  0  0  0  0  0  0  0  0
   -0.0583    1.8429    6.7471 H   0  0  0  0  0  0  0  0  0  0  0  0
   -3.1398    3.2803    2.9970 H   0  0  0  0  0  0  0  0  0  0  0  0
   -4.7057    4.9924    3.4896 H   0  0  0  0  0  0  0  0  0  0  0  0
   -5.4758    7.9372    1.3842 H   0  0  0  0  0  0  0  0  0  0  0  0
   -7.1413    8.3765    1.9533 H   0  0  0  0  0  0  0  0  0  0  0  0
   -6.0118    7.7413    3.1798 H   0  0  0  0  0  0  0  0  0  0  0  0
   -6.1093    4.8659   -0.6082 H   0  0  0  0  0  0  0  0  0  0  0  0
   -4.2261    3.4754   -1.2194 H   0  0  0  0  0  0  0  0  0  0  0  0
   -3.5912   -0.6089    2.1281 H   0  0  0  0  0  0  0  0  0  0  0  0
   -5.2417   -2.3044    1.6563 H   0  0  0  0  0  0  0  0  0  0  0  0
   -8.1793   -0.9271   -1.9241 H   0  0  0  0  0  0  0  0  0  0  0  0
   -8.8224   -2.5809   -2.2458 H   0  0  0  0  0  0  0  0  0  0  0  0
   -7.2752   -2.1275   -2.9654 H   0  0  0  0  0  0  0  0  0  0  0  0
   -6.0977   -0.2570   -2.1120 H   0  0  0  0  0  0  0  0  0  0  0  0
   -4.2399    1.0904   -1.7867 H   0  0  0  0  0  0  0  0  0  0  0  0
   -3.6782    4.4830   -3.3762 H   0  0  0  0  0  0  0  0  0  0  0  0
   -5.0444    3.9537   -5.1697 H   0  0  0  0  0  0  0  0  0  0  0  0
   -5.4046   -0.9771   -6.2361 H   0  0  0  0  0  0  0  0  0  0  0  0
   -5.6703   -0.4970   -7.9233 H   0  0  0  0  0  0  0  0  0  0  0  0
   -4.0672   -0.2460   -7.1822 H   0  0  0  0  0  0  0  0  0  0  0  0
   -3.7895   -0.2017   -4.9009 H   0  0  0  0  0  0  0  0  0  0  0  0
   -2.2205    0.3669   -3.2267 H   0  0  0  0  0  0  0  0  0  0  0  0
   -1.6868    5.5036   -3.4917 H   0  0  0  0  0  0  0  0  0  0  0  0
   -1.3348    7.6287   -2.3428 H   0  0  0  0  0  0  0  0  0  0  0  0
    1.1798   10.0461   -0.7997 H   0  0  0  0  0  0  0  0  0  0  0  0
    1.4578    8.5384   -1.7928 H   0  0  0  0  0  0  0  0  0  0  0  0
   -0.1494    9.3900   -1.8471 H   0  0  0  0  0  0  0  0  0  0  0  0
    0.7687    5.4468    0.7569 H   0  0  0  0  0  0  0  0  0  0  0  0
    0.2556    3.4503   -0.1987 H   0  0  0  0  0  0  0  0  0  0  0  0
    2.7600   -3.4462   -2.4602 H   0  0  0  0  0  0  0  0  0  0  0  0
    2.1845   -5.6813   -3.1188 H   0  0  0  0  0  0  0  0  0  0  0  0
    2.9973   -8.2600   -5.7511 H   0  0  0  0  0  0  0  0  0  0  0  0
    1.9844   -8.4666   -4.2935 H   0  0  0  0  0  0  0  0  0  0  0  0
    3.1652   -7.1422   -4.3247 H   0  0  0  0  0  0  0  0  0  0  0  0
    0.7661   -4.1277   -6.9438 H   0  0  0  0  0  0  0  0  0  0  0  0
    1.4759   -1.9597   -6.3326 H   0  0  0  0  0  0  0  0  0  0  0  0
    3.8354    0.3347   -1.9269 H   0  0  0  0  0  0  0  0  0  0  0  0
    5.8562   -0.0977   -0.6129 H   0  0  0  0  0  0  0  0  0  0  0  0
    7.1939   -3.9095    0.7180 H   0  0  0  0  0  0  0  0  0  0  0  0
    7.9563   -2.5542    1.5819 H   0  0  0  0  0  0  0  0  0  0  0  0
    6.2743   -2.3940    0.9873 H   0  0  0  0  0  0  0  0  0  0  0  0
    6.7388   -3.4676   -3.1020 H   0  0  0  0  0  0  0  0  0  0  0  0
    5.0746   -2.8881   -4.5908 H   0  0  0  0  0  0  0  0  0  0  0  0
    2.1509    0.5198   -7.3533 H   0  0  0  0  0  0  0  0  0  0  0  0
    5.3582    3.9693   -3.3518 H   0  0  0  0  0  0  0  0  0  0  0  0
    5.0013    5.6653   -8.0310 H   0  0  0  0  0  0  0  0  0  0  0  0
    6.5910    7.8193   -5.9320 H   0  0  0  0  0  0  0  0  0  0  0  0
    4.2111    8.8633   -5.7561 H   0  0  0  0  0  0  0  0  0  0  0  0
    2.5330    7.0951   -4.5959 H   0  0  0  0  0  0  0  0  0  0  0  0
    3.4333    6.4513   -2.4109 H   0  0  0  0  0  0  0  0  0  0  0  0
    5.8777    7.4770   -2.1188 H   0  0  0  0  0  0  0  0  0  0  0  0
    6.0996    9.4211   -3.9308 H   0  0  0  0  0  0  0  0  0  0  0  0
    4.4762    9.4632   -3.2137 H   0  0  0  0  0  0  0  0  0  0  0  0
    7.4042    6.8264   -4.0468 H   0  0  0  0  0  0  0  0  0  0  0  0
  1  2  2  3
  2  3  1  0
  3  4  2  0
  3  5  1  0
  5  6  2  0
  6  7  1  0
  7  8  2  0
  8  9  1  0
  9 10  2  0
 10 11  1  0
 11 12  2  3
 12 13  1  0
 13 14  3  0
 12 15  1  0
 15 16  3  0
  8 17  1  0
 17 18  1  0
 18 19  1  0
 19 20  2  0
 20 21  1  0
 21 22  1  0
 21 23  1  0
  1 24  1  0
 24 25  1  0
 25 26  2  0
 26 27  1  0
 27 28  2  0
 28 29  1  0
 29 30  1  0
 30 31  1  0
 28 32  1  0
 32 33  2  0
 33 34  1  0
 34 35  2  0
 35 36  1  0
 36 37  1  0
 35 38  1  0
 34 39  1  0
 39 40  2  0
 40 41  1  0
 41 42  1  0
 42 43  2  0
 43 44  1  0
 44 45  2  0
 45 46  1  0
 46 47  1  0
 45 48  1  0
 48 49  2  0
 41 50  1  0
 50 51  2  0
 51 52  1  0
 52 53  2  0
 53 54  1  0
 54 55  1  0
 53 56  1  0
 56 57  2  0
 40 58  1  0
 58 59  1  0
 59 60  1  0
 60 61  2  0
 61 62  1  0
 62 63  1  0
 63 64  2  0
 64 65  1  0
 65 66  2  0
 66 67  1  0
 67 68  1  0
 66 69  1  0
 69 70  2  0
 62 71  1  0
 71 72  2  0
 72 73  1  0
 73 74  2  0
 74 75  1  0
 75 76  1  0
 74 77  1  0
 77 78  2  0
 61 79  1  0
 79 80  1  0
 60 81  1  0
 81 82  2  0
 82 83  1  0
 83 84  1  0
 84 85  2  0
 85 86  1  0
 86 87  2  0
 87 88  1  0
 88 89  1  0
 87 90  1  0
 90 91  2  0
 83 92  1  0
 92 93  2  0
 93 94  1  0
 94 95  2  0
 95 96  1  0
 96 97  1  0
 95 98  1  0
 98 99  2  0
 82100  1  0
100101  1  0
101102  1  0
102103  2  0
103104  1  0
104105  1  0
105106  2  0
106107  1  0
107108  2  0
108109  1  0
109110  1  0
108111  1  0
111112  2  0
104113  1  0
113114  2  0
114115  1  0
115116  2  0
116117  1  0
117118  1  0
116119  1  0
119120  2  0
103121  1  0
121122  1  0
102123  1  0
123124  2  3
124125  1  0
125126  2  0
125127  1  0
127128  2  0
128129  1  0
129130  2  0
130131  1  0
131132  2  0
132133  1  0
133134  2  3
134135  1  0
135136  3  0
134137  1  0
137138  3  0
130139  1  0
139140  1  0
140141  1  0
141142  2  0
142143  1  0
143144  1  0
143145  1  0
 11  2  1  0
 23 17  1  0
 36 24  2  0
 80 39  1  0
122 81  1  0
133124  1  0
145139  1  0
 10  5  1  0
 22 18  1  0
 33 25  1  0
 49 42  1  0
 57 50  1  0
 79 58  2  0
 91 84  1  0
 99 92  1  0
121100  2  0
132127  1  0
144140  1  0
 23  7  1  0
 70 63  1  0
 78 71  1  0
112105  1  0
120113  1  0
145129  1  0
  1146  1  0
  6147  1  0
  9148  1  0
 17149  1  0
 18150  1  0
 19151  1  0
 20152  1  0
 21153  1  0
 22154  1  0
 22155  1  0
 23156  1  0
 27157  1  0
 30158  1  0
 30159  1  0
 31160  1  0
 31161  1  0
 31162  1  0
 43163  1  0
 44164  1  0
 47165  1  0
 47166  1  0
 47167  1  0
 48168  1  0
 49169  1  0
 51170  1  0
 52171  1  0
 55172  1  0
 55173  1  0
 55174  1  0
 56175  1  0
 57176  1  0
 64177  1  0
 65178  1  0
 68179  1  0
 68180  1  0
 68181  1  0
 69182  1  0
 70183  1  0
 72184  1  0
 73185  1  0
 76186  1  0
 76187  1  0
 76188  1  0
 77189  1  0
 78190  1  0
 85191  1  0
 86192  1  0
 89193  1  0
 89194  1  0
 89195  1  0
 90196  1  0
 91197  1  0
 93198  1  0
 94199  1  0
 97200  1  0
 97201  1  0
 97202  1  0
 98203  1  0
 99204  1  0
106205  1  0
107206  1  0
110207  1  0
110208  1  0
110209  1  0
111210  1  0
112211  1  0
114212  1  0
115213  1  0
118214  1  0
118215  1  0
118216  1  0
119217  1  0
120218  1  0
123219  1  0
128220  1  0
131221  1  0
139222  1  0
140223  1  0
141224  1  0
142225  1  0
143226  1  0
144227  1  0
144228  1  0
145229  1  0
M  END

