
     RDKit          3D

194217  0  0  0  0  0  0  0  0999 V2000
   -8.5495   -1.7945   -2.8002 C   0  0  0  0  0  0  0  0  0  0  0  0
   -8.7703   -2.5276   -1.6889 C   0  0  0  0  0  0  0  0  0  0  0  0
   -8.9275   -2.0074   -0.3150 C   0  0  0  0  0  0  0  0  0  0  0  0
   -9.7673   -1.1370    0.0534 O   0  0  0  0  0  0  0  0  0  0  0  0
   -8.2448   -2.8885    0.6042 C   0  0  0  0  0  0  0  0  0  0  0  0
   -7.9973   -2.6686    1.9790 C   0  0  0  0  0  0  0  0  0  0  0  0
   -7.1489   -3.6061    2.5376 C   0  0  0  0  0  0  0  0  0  0  0  0
   -6.5253   -4.6504    1.7781 C   0  0  0  0  0  0  0  0  0  0  0  0
   -6.8164   -4.8980    0.4438 C   0  0  0  0  0  0  0  0  0  0  0  0
   -7.7570   -3.9941   -0.1224 C   0  0  0  0  0  0  0  0  0  0  0  0
   -8.2369   -3.9110   -1.5228 C   0  0  0  0  0  0  0  0  0  0  0  0
   -8.4932   -4.9584   -2.3303 C   0  0  0  0  0  0  0  0  0  0  0  0
   -8.4589   -6.3024   -1.8199 C   0  0  0  0  0  0  0  0  0  0  0  0
   -8.4998   -7.3794   -1.3996 N   0  0  0  0  0  0  0  0  0  0  0  0
   -9.2255   -4.7901   -3.5600 C   0  0  0  0  0  0  0  0  0  0  0  0
   -9.8444   -4.6459   -4.5220 N   0  0  0  0  0  0  0  0  0  0  0  0
   -5.6795   -5.0217    2.9608 C   0  0  0  0  0  0  0  0  0  0  0  0
   -4.1958   -4.5201    2.9767 C   0  0  0  0  0  0  0  0  0  0  0  0
   -4.0782   -3.1768    2.2772 C   0  0  0  0  0  0  0  0  0  0  0  0
   -4.7016   -2.2850    3.0534 C   0  0  0  0  0  0  0  0  0  0  0  0
   -5.2333   -3.0547    4.2402 C   0  0  0  0  0  0  0  0  0  0  0  0
   -4.1053   -4.0451    4.4153 C   0  0  0  0  0  0  0  0  0  0  0  0
   -6.3758   -4.0042    3.7659 C   0  0  0  0  0  0  0  0  0  0  0  0
   -7.6476   -0.6057   -2.8071 C   0  0  0  0  0  0  0  0  0  0  0  0
   -6.4669   -0.6508   -3.5678 C   0  0  0  0  0  0  0  0  0  0  0  0
   -5.4311    0.3020   -3.3879 C   0  0  0  0  0  0  0  0  0  0  0  0
   -4.2979    0.1036   -4.2407 N   0  0  0  0  0  0  0  0  0  0  0  0
   -4.7382   -1.1996   -5.0416 S   0  0  0  0  0  4  0  0  0  0  0  0
   -6.1828   -1.6591   -4.5462 N   0  0  0  0  0  0  0  0  0  0  0  0
   -5.5123    1.3005   -2.3966 C   0  0  0  0  0  0  0  0  0  0  0  0
   -6.7657    1.4559   -1.7628 C   0  0  0  0  0  0  0  0  0  0  0  0
   -7.0325    2.4584   -0.8957 N   0  0  0  0  0  0  0  0  0  0  0  0
   -8.6321    2.1881   -0.5668 S   0  0  0  0  0  0  0  0  0  0  0  0
   -9.0337    0.8380   -1.4307 N   0  0  0  0  0  0  0  0  0  0  0  0
   -7.8460    0.5382   -2.0123 C   0  0  0  0  0  0  0  0  0  0  0  0
   -4.2495    1.9442   -1.9198 C   0  0  0  0  0  0  0  0  0  0  0  0
   -4.0489    3.1916   -1.2710 C   0  0  0  0  0  0  0  0  0  0  0  0
   -4.9580    4.3018   -1.3483 N   0  0  0  0  0  0  0  0  0  0  0  0
   -5.6258    4.8333   -0.1761 C   0  0  0  0  0  0  0  0  0  0  0  0
   -5.3031    4.3837    1.1257 C   0  0  0  0  0  0  0  0  0  0  0  0
   -6.0097    4.8518    2.2404 C   0  0  0  0  0  0  0  0  0  0  0  0
   -7.0602    5.7558    2.0751 C   0  0  0  0  0  0  0  0  0  0  0  0
   -7.9806    6.3397    3.5015 S   0  0  0  0  0  0  0  0  0  0  0  0
   -6.9618    7.8356    3.7006 C   0  0  0  0  0  0  0  0  0  0  0  0
   -7.3913    6.2089    0.7943 C   0  0  0  0  0  0  0  0  0  0  0  0
   -6.6770    5.7668   -0.3170 C   0  0  0  0  0  0  0  0  0  0  0  0
   -5.0017    5.0111   -2.5925 C   0  0  0  0  0  0  0  0  0  0  0  0
   -5.9468    4.6778   -3.5704 C   0  0  0  0  0  0  0  0  0  0  0  0
   -6.0138    5.3935   -4.7667 C   0  0  0  0  0  0  0  0  0  0  0  0
   -5.1482    6.4701   -4.9836 C   0  0  0  0  0  0  0  0  0  0  0  0
   -5.2530    7.4092   -6.5103 S   0  0  0  0  0  0  0  0  0  0  0  0
   -3.9999    6.3996   -7.3606 C   0  0  0  0  0  0  0  0  0  0  0  0
   -4.2283    6.8355   -3.9945 C   0  0  0  0  0  0  0  0  0  0  0  0
   -4.1473    6.1049   -2.8036 C   0  0  0  0  0  0  0  0  0  0  0  0
   -2.7254    3.3198   -0.8019 C   0  0  0  0  0  0  0  0  0  0  0  0
   -1.8225    4.5236   -0.0367 S   0  0  0  0  0  0  0  0  0  0  0  0
   -0.3544    3.6354   -0.0811 C   0  0  0  0  0  0  0  0  0  0  0  0
   -0.5758    2.3996   -0.7204 C   0  0  0  0  0  0  0  0  0  0  0  0
    0.4680    1.5605   -1.2683 N   0  0  0  0  0  0  0  0  0  0  0  0
    1.0664    1.8898   -2.5560 C   0  0  0  0  0  0  0  0  0  0  0  0
    1.9691    1.0051   -3.1901 C   0  0  0  0  0  0  0  0  0  0  0  0
    2.4638    1.2782   -4.4701 C   0  0  0  0  0  0  0  0  0  0  0  0
    2.0923    2.4556   -5.1294 C   0  0  0  0  0  0  0  0  0  0  0  0
    2.6867    2.7827   -6.7887 S   0  0  0  0  0  0  0  0  0  0  0  0
    1.2381    2.0064   -7.5788 C   0  0  0  0  0  0  0  0  0  0  0  0
    1.2471    3.3649   -4.4934 C   0  0  0  0  0  0  0  0  0  0  0  0
    0.7286    3.0858   -3.2323 C   0  0  0  0  0  0  0  0  0  0  0  0
    0.6104    0.2343   -0.7290 C   0  0  0  0  0  0  0  0  0  0  0  0
   -0.0399   -0.8542   -1.3335 C   0  0  0  0  0  0  0  0  0  0  0  0
    0.0713   -2.1327   -0.7863 C   0  0  0  0  0  0  0  0  0  0  0  0
    0.8587   -2.3426    0.3581 C   0  0  0  0  0  0  0  0  0  0  0  0
    0.9948   -3.9780    1.0820 S   0  0  0  0  0  0  0  0  0  0  0  0
   -0.2960   -3.6635    2.3230 C   0  0  0  0  0  0  0  0  0  0  0  0
    1.5558   -1.2729    0.9242 C   0  0  0  0  0  0  0  0  0  0  0  0
    1.4287    0.0074    0.3894 C   0  0  0  0  0  0  0  0  0  0  0  0
   -1.9156    2.2671   -1.0805 C   0  0  0  0  0  0  0  0  0  0  0  0
   -2.7680    1.0959   -1.8897 S   0  0  0  0  0  0  0  0  0  0  0  0
    0.9252    4.0560    0.5011 C   0  0  0  0  0  0  0  0  0  0  0  0
    1.5440    3.3214    1.5124 C   0  0  0  0  0  0  0  0  0  0  0  0
    2.9440    3.3204    1.4290 C   0  0  0  0  0  0  0  0  0  0  0  0
    3.7986    2.3839    2.0694 C   0  0  0  0  0  0  0  0  0  0  0  0
    3.3677    1.6294    3.2860 C   0  0  0  0  0  0  0  0  0  0  0  0
    2.6067    2.1621    4.3296 C   0  0  0  0  0  0  0  0  0  0  0  0
    2.4460    1.2880    5.4056 C   0  0  0  0  0  0  0  0  0  0  0  0
    1.7778    1.6160    6.5415 F   0  0  0  0  0  0  0  0  0  0  0  0
    3.0797    0.0690    5.2281 C   0  0  0  0  0  0  0  0  0  0  0  0
    3.2480   -1.2270    6.4549 S   0  0  0  0  0  0  0  0  0  0  0  0
    1.8375   -2.1850    5.8225 C   0  0  0  0  0  0  0  0  0  0  0  0
    1.8424   -3.5775    6.4362 C   0  0  0  0  0  0  0  0  0  0  0  0
    3.8384    0.0752    3.7378 S   0  0  0  0  0  0  0  0  0  0  0  0
    5.0315    2.1617    1.4320 C   0  0  0  0  0  0  0  0  0  0  0  0
    5.4947    2.9481    0.3723 C   0  0  0  0  0  0  0  0  0  0  0  0
    4.7381    4.0407   -0.0803 C   0  0  0  0  0  0  0  0  0  0  0  0
    5.3133    5.0523   -0.9627 C   0  0  0  0  0  0  0  0  0  0  0  0
    6.3712    6.2435   -0.4182 S   0  0  0  0  0  0  0  0  0  0  0  0
    6.8937    6.7058   -1.9335 C   0  0  0  0  0  0  0  0  0  0  0  0
    8.1800    7.9230   -2.2287 S   0  0  0  0  0  0  0  0  0  0  0  0
    9.5597    6.8342   -1.7401 C   0  0  0  0  0  0  0  0  0  0  0  0
    9.7999    5.7286   -2.7578 C   0  0  0  0  0  0  0  0  0  0  0  0
    6.2548    5.9230   -2.8923 C   0  0  0  0  0  0  0  0  0  0  0  0
    5.3640    4.9954   -2.3511 C   0  0  0  0  0  0  0  0  0  0  0  0
    6.5129    6.0165   -4.2161 F   0  0  0  0  0  0  0  0  0  0  0  0
    3.4259    4.1261    0.3948 C   0  0  0  0  0  0  0  0  0  0  0  0
    2.1261    4.8048   -0.4315 S   0  0  0  0  0  0  0  0  0  0  0  0
    6.6502    2.4482   -0.2534 C   0  0  0  0  0  0  0  0  0  0  0  0
    7.0475    1.2232    0.2715 C   0  0  0  0  0  0  0  0  0  0  0  0
    6.0894    0.8604    1.6103 S   0  0  0  0  0  0  0  0  0  0  0  0
    8.0539    0.3256   -0.3258 C   0  0  0  0  0  0  0  0  0  0  0  0
    7.8312   -0.9934   -0.5489 C   0  0  0  0  0  0  0  0  0  0  0  0
    6.5938   -1.7384   -0.2750 C   0  0  0  0  0  0  0  0  0  0  0  0
    5.4188   -1.2762   -0.3042 O   0  0  0  0  0  0  0  0  0  0  0  0
    6.9282   -3.1216   -0.0334 C   0  0  0  0  0  0  0  0  0  0  0  0
    6.0627   -4.1366    0.4300 C   0  0  0  0  0  0  0  0  0  0  0  0
    6.6935   -5.3422    0.6783 C   0  0  0  0  0  0  0  0  0  0  0  0
    8.1053   -5.5333    0.4875 C   0  0  0  0  0  0  0  0  0  0  0  0
    8.9502   -4.5404    0.0103 C   0  0  0  0  0  0  0  0  0  0  0  0
    8.3151   -3.3014   -0.2577 C   0  0  0  0  0  0  0  0  0  0  0  0
    8.8925   -2.0156   -0.7483 C   0  0  0  0  0  0  0  0  0  0  0  0
   10.0379   -1.8348   -1.4469 C   0  0  0  0  0  0  0  0  0  0  0  0
   11.0467   -2.8626   -1.5595 C   0  0  0  0  0  0  0  0  0  0  0  0
   11.8685   -3.6680   -1.6369 N   0  0  0  0  0  0  0  0  0  0  0  0
   10.2064   -0.6912   -2.3123 C   0  0  0  0  0  0  0  0  0  0  0  0
   10.3100    0.1938   -3.0402 N   0  0  0  0  0  0  0  0  0  0  0  0
    7.9909   -6.9401    0.9923 C   0  0  0  0  0  0  0  0  0  0  0  0
    8.0556   -8.0921   -0.0659 C   0  0  0  0  0  0  0  0  0  0  0  0
    7.5361   -9.3135    0.6403 C   0  0  0  0  0  0  0  0  0  0  0  0
    6.2176   -9.1321    0.8198 C   0  0  0  0  0  0  0  0  0  0  0  0
    5.9019   -7.7724    0.2318 C   0  0  0  0  0  0  0  0  0  0  0  0
    6.8583   -7.8074   -0.9490 C   0  0  0  0  0  0  0  0  0  0  0  0
    6.5543   -6.7398    1.1903 C   0  0  0  0  0  0  0  0  0  0  0  0
   -8.5084   -2.3400   -3.7324 H   0  0  0  0  0  0  0  0  0  0  0  0
   -8.3830   -1.8152    2.5301 H   0  0  0  0  0  0  0  0  0  0  0  0
   -6.3396   -5.6849   -0.1270 H   0  0  0  0  0  0  0  0  0  0  0  0
   -5.8308   -6.0581    3.3290 H   0  0  0  0  0  0  0  0  0  0  0  0
   -3.4330   -5.2730    2.6736 H   0  0  0  0  0  0  0  0  0  0  0  0
   -3.5483   -2.9582    1.3512 H   0  0  0  0  0  0  0  0  0  0  0  0
   -4.7370   -1.2143    2.8873 H   0  0  0  0  0  0  0  0  0  0  0  0
   -5.4772   -2.4297    5.1272 H   0  0  0  0  0  0  0  0  0  0  0  0
   -4.3343   -4.8468    5.1653 H   0  0  0  0  0  0  0  0  0  0  0  0
   -3.1288   -3.5453    4.6561 H   0  0  0  0  0  0  0  0  0  0  0  0
   -7.0090   -4.4215    4.5775 H   0  0  0  0  0  0  0  0  0  0  0  0
   -4.5270    3.6484    1.2829 H   0  0  0  0  0  0  0  0  0  0  0  0
   -5.7530    4.4971    3.2300 H   0  0  0  0  0  0  0  0  0  0  0  0
   -5.9298    7.5539    3.9958 H   0  0  0  0  0  0  0  0  0  0  0  0
   -7.4081    8.4753    4.4881 H   0  0  0  0  0  0  0  0  0  0  0  0
   -6.9442    8.4090    2.7502 H   0  0  0  0  0  0  0  0  0  0  0  0
   -8.2099    6.9076    0.6602 H   0  0  0  0  0  0  0  0  0  0  0  0
   -6.9759    6.1213   -1.2985 H   0  0  0  0  0  0  0  0  0  0  0  0
   -6.6306    3.8534   -3.4065 H   0  0  0  0  0  0  0  0  0  0  0  0
   -6.7413    5.1183   -5.5234 H   0  0  0  0  0  0  0  0  0  0  0  0
   -3.7908    6.8372   -8.3581 H   0  0  0  0  0  0  0  0  0  0  0  0
   -4.3534    5.3540   -7.4878 H   0  0  0  0  0  0  0  0  0  0  0  0
   -3.0599    6.3994   -6.7706 H   0  0  0  0  0  0  0  0  0  0  0  0
   -3.5719    7.6855   -4.1463 H   0  0  0  0  0  0  0  0  0  0  0  0
   -3.4324    6.3890   -2.0416 H   0  0  0  0  0  0  0  0  0  0  0  0
    2.2731    0.0763   -2.7269 H   0  0  0  0  0  0  0  0  0  0  0  0
    3.1198    0.5702   -4.9551 H   0  0  0  0  0  0  0  0  0  0  0  0
    1.1810    0.9270   -7.3017 H   0  0  0  0  0  0  0  0  0  0  0  0
    0.3065    2.5187   -7.2572 H   0  0  0  0  0  0  0  0  0  0  0  0
    1.3396    2.0872   -8.6749 H   0  0  0  0  0  0  0  0  0  0  0  0
    0.9696    4.2846   -4.9901 H   0  0  0  0  0  0  0  0  0  0  0  0
    0.0530    3.8059   -2.7953 H   0  0  0  0  0  0  0  0  0  0  0  0
   -0.6128   -0.7019   -2.2441 H   0  0  0  0  0  0  0  0  0  0  0  0
   -0.4540   -2.9628   -1.2421 H   0  0  0  0  0  0  0  0  0  0  0  0
   -0.4415   -4.5701    2.9405 H   0  0  0  0  0  0  0  0  0  0  0  0
   -1.2512   -3.4182    1.8207 H   0  0  0  0  0  0  0  0  0  0  0  0
    0.0090   -2.8262    2.9885 H   0  0  0  0  0  0  0  0  0  0  0  0
    2.1873   -1.4334    1.7861 H   0  0  0  0  0  0  0  0  0  0  0  0
    1.9811    0.8185    0.8231 H   0  0  0  0  0  0  0  0  0  0  0  0
    0.9802    2.6182    2.1177 H   0  0  0  0  0  0  0  0  0  0  0  0
    2.2118    3.1715    4.3333 H   0  0  0  0  0  0  0  0  0  0  0  0
    0.8949   -1.6563    6.0720 H   0  0  0  0  0  0  0  0  0  0  0  0
    1.8993   -2.2754    4.7126 H   0  0  0  0  0  0  0  0  0  0  0  0
    0.9737   -4.1444    6.0511 H   0  0  0  0  0  0  0  0  0  0  0  0
    1.7675   -3.5080    7.5418 H   0  0  0  0  0  0  0  0  0  0  0  0
    2.7791   -4.1029    6.1561 H   0  0  0  0  0  0  0  0  0  0  0  0
   10.4776    7.4504   -1.6514 H   0  0  0  0  0  0  0  0  0  0  0  0
    9.3634    6.3819   -0.7388 H   0  0  0  0  0  0  0  0  0  0  0  0
    9.9731    6.1720   -3.7645 H   0  0  0  0  0  0  0  0  0  0  0  0
    8.9342    5.0435   -2.8034 H   0  0  0  0  0  0  0  0  0  0  0  0
   10.6954    5.1414   -2.4739 H   0  0  0  0  0  0  0  0  0  0  0  0
    4.8101    4.2699   -2.9430 H   0  0  0  0  0  0  0  0  0  0  0  0
    7.1066    2.8872   -1.1388 H   0  0  0  0  0  0  0  0  0  0  0  0
    9.0295    0.7510   -0.5189 H   0  0  0  0  0  0  0  0  0  0  0  0
    5.0085   -3.9685    0.6141 H   0  0  0  0  0  0  0  0  0  0  0  0
   10.0080   -4.7089   -0.0742 H   0  0  0  0  0  0  0  0  0  0  0  0
    8.5684   -7.1216    1.9260 H   0  0  0  0  0  0  0  0  0  0  0  0
    9.0240   -8.2192   -0.5880 H   0  0  0  0  0  0  0  0  0  0  0  0
    8.0821  -10.2239    0.8821 H   0  0  0  0  0  0  0  0  0  0  0  0
    5.5226   -9.8304    1.2620 H   0  0  0  0  0  0  0  0  0  0  0  0
    4.8292   -7.6078   -0.0120 H   0  0  0  0  0  0  0  0  0  0  0  0
    6.6351   -8.6290   -1.6730 H   0  0  0  0  0  0  0  0  0  0  0  0
    6.9155   -6.8410   -1.5060 H   0  0  0  0  0  0  0  0  0  0  0  0
    6.2287   -6.8022    2.2544 H   0  0  0  0  0  0  0  0  0  0  0  0
  1  2  2  3
  2  3  1  0
  3  4  2  0
  3  5  1  0
  5  6  2  0
  6  7  1  0
  7  8  2  0
  8  9  1  0
  9 10  2  0
 10 11  1  0
 11 12  2  3
 12 13  1  0
 13 14  3  0
 12 15  1  0
 15 16  3  0
  8 17  1  0
 17 18  1  0
 18 19  1  0
 19 20  2  0
 20 21  1  0
 21 22  1  0
 21 23  1  0
  1 24  1  0
 24 25  2  0
 25 26  1  0
 26 27  1  0
 27 28  2  0
 28 29  2  0
 26 30  2  0
 30 31  1  0
 31 32  2  0
 32 33  1  0
 33 34  1  0
 34 35  2  0
 30 36  1  0
 36 37  2  0
 37 38  1  0
 38 39  1  0
 39 40  2  0
 40 41  1  0
 41 42  2  0
 42 43  1  0
 43 44  1  0
 42 45  1  0
 45 46  2  0
 38 47  1  0
 47 48  2  0
 48 49  1  0
 49 50  2  0
 50 51  1  0
 51 52  1  0
 50 53  1  0
 53 54  2  0
 37 55  1  0
 55 56  1  0
 56 57  1  0
 57 58  2  0
 58 59  1  0
 59 60  1  0
 60 61  2  0
 61 62  1  0
 62 63  2  0
 63 64  1  0
 64 65  1  0
 63 66  1  0
 66 67  2  0
 59 68  1  0
 68 69  2  0
 69 70  1  0
 70 71  2  0
 71 72  1  0
 72 73  1  0
 71 74  1  0
 74 75  2  0
 58 76  1  0
 76 77  1  0
 57 78  1  0
 78 79  2  0
 79 80  1  0
 80 81  2  0
 81 82  1  0
 82 83  2  0
 83 84  1  0
 84 85  1  0
 84 86  2  0
 86 87  1  0
 87 88  1  0
 88 89  1  0
 86 90  1  0
 81 91  1  0
 91 92  2  0
 92 93  1  0
 93 94  1  0
 94 95  1  0
 95 96  1  0
 96 97  1  0
 97 98  1  0
 98 99  1  0
 96100  2  0
100101  1  0
100102  1  0
 93103  2  0
103104  1  0
 92105  1  0
105106  2  0
106107  1  0
106108  1  0
108109  2  3
109110  1  0
110111  2  0
110112  1  0
112113  2  0
113114  1  0
114115  2  0
115116  1  0
116117  2  0
117118  1  0
118119  2  3
119120  1  0
120121  3  0
119122  1  0
122123  3  0
115124  1  0
124125  1  0
125126  1  0
126127  2  0
127128  1  0
128129  1  0
128130  1  0
 11  2  1  0
 23 17  1  0
 35 24  1  0
 77 36  1  0
104 78  1  0
118109  1  0
130124  1  0
 10  5  1  0
 22 18  1  0
 29 25  1  0
 35 31  1  0
 46 39  1  0
 54 47  1  0
 76 55  2  0
103 80  1  0
117112  1  0
129125  1  0
 23  7  1  0
 67 60  1  0
 75 68  1  0
 90 82  1  0
107 91  1  0
130114  1  0
101 94  2  0
  1131  1  0
  6132  1  0
  9133  1  0
 17134  1  0
 18135  1  0
 19136  1  0
 20137  1  0
 21138  1  0
 22139  1  0
 22140  1  0
 23141  1  0
 40142  1  0
 41143  1  0
 44144  1  0
 44145  1  0
 44146  1  0
 45147  1  0
 46148  1  0
 48149  1  0
 49150  1  0
 52151  1  0
 52152  1  0
 52153  1  0
 53154  1  0
 54155  1  0
 61156  1  0
 62157  1  0
 65158  1  0
 65159  1  0
 65160  1  0
 66161  1  0
 67162  1  0
 69163  1  0
 70164  1  0
 73165  1  0
 73166  1  0
 73167  1  0
 74168  1  0
 75169  1  0
 79170  1  0
 83171  1  0
 88172  1  0
 88173  1  0
 89174  1  0
 89175  1  0
 89176  1  0
 98177  1  0
 98178  1  0
 99179  1  0
 99180  1  0
 99181  1  0
101182  1  0
105183  1  0
108184  1  0
113185  1  0
116186  1  0
124187  1  0
125188  1  0
126189  1  0
127190  1  0
128191  1  0
129192  1  0
129193  1  0
130194  1  0
M  END

