
     RDKit          3D

231255  0  0  0  0  0  0  0  0999 V2000
    1.5579    4.9998    7.0062 C   0  0  0  0  0  0  0  0  0  0  0  0
    0.6944    5.6303    6.1838 C   0  0  0  0  0  0  0  0  0  0  0  0
   -0.2721    4.9768    5.2917 C   0  0  0  0  0  0  0  0  0  0  0  0
   -0.2145    3.7943    4.8664 O   0  0  0  0  0  0  0  0  0  0  0  0
   -1.2836    5.9367    4.9138 C   0  0  0  0  0  0  0  0  0  0  0  0
   -2.4783    5.6801    4.1943 C   0  0  0  0  0  0  0  0  0  0  0  0
   -3.3211    6.7719    4.1081 C   0  0  0  0  0  0  0  0  0  0  0  0
   -3.0158    8.0474    4.6891 C   0  0  0  0  0  0  0  0  0  0  0  0
   -1.8447    8.3064    5.3856 C   0  0  0  0  0  0  0  0  0  0  0  0
   -0.9505    7.1999    5.4694 C   0  0  0  0  0  0  0  0  0  0  0  0
    0.3739    7.0874    6.1536 C   0  0  0  0  0  0  0  0  0  0  0  0
    1.2354    8.1086    6.3950 C   0  0  0  0  0  0  0  0  0  0  0  0
    0.9111    9.4760    6.0983 C   0  0  0  0  0  0  0  0  0  0  0  0
    0.6654   10.5796    5.8575 N   0  0  0  0  0  0  0  0  0  0  0  0
    2.6061    7.8799    6.7862 C   0  0  0  0  0  0  0  0  0  0  0  0
    3.7077    7.7030    7.0855 N   0  0  0  0  0  0  0  0  0  0  0  0
   -4.3379    8.5961    4.2133 C   0  0  0  0  0  0  0  0  0  0  0  0
   -4.3345    9.5666    2.9882 C   0  0  0  0  0  0  0  0  0  0  0  0
   -3.1719    9.2454    2.0815 C   0  0  0  0  0  0  0  0  0  0  0  0
   -3.4321    8.0589    1.5328 C   0  0  0  0  0  0  0  0  0  0  0  0
   -4.7674    7.6113    2.0853 C   0  0  0  0  0  0  0  0  0  0  0  0
   -5.4582    8.9595    2.1650 C   0  0  0  0  0  0  0  0  0  0  0  0
   -4.6361    7.2903    3.6054 C   0  0  0  0  0  0  0  0  0  0  0  0
    1.6583    3.5333    7.0482 C   0  0  0  0  0  0  0  0  0  0  0  0
    2.6593    2.7654    6.4316 C   0  0  0  0  0  0  0  0  0  0  0  0
    3.8726    3.2805    5.8699 N   0  0  0  0  0  0  0  0  0  0  0  0
    3.8199    4.2641    4.8228 C   0  0  0  0  0  0  0  0  0  0  0  0
    2.9728    4.0795    3.7186 C   0  0  0  0  0  0  0  0  0  0  0  0
    2.9543    5.0136    2.6809 C   0  0  0  0  0  0  0  0  0  0  0  0
    3.7743    6.1480    2.7454 C   0  0  0  0  0  0  0  0  0  0  0  0
    3.7642    7.3423    1.4036 S   0  0  0  0  0  0  0  0  0  0  0  0
    5.1309    6.5415    0.5088 C   0  0  0  0  0  0  0  0  0  0  0  0
    4.6130    6.3428    3.8518 C   0  0  0  0  0  0  0  0  0  0  0  0
    4.6444    5.3995    4.8784 C   0  0  0  0  0  0  0  0  0  0  0  0
    5.1294    2.6922    6.2720 C   0  0  0  0  0  0  0  0  0  0  0  0
    6.1259    2.4100    5.3200 C   0  0  0  0  0  0  0  0  0  0  0  0
    7.3093    1.7698    5.7038 C   0  0  0  0  0  0  0  0  0  0  0  0
    7.5123    1.4133    7.0408 C   0  0  0  0  0  0  0  0  0  0  0  0
    9.0260    0.5757    7.5189 S   0  0  0  0  0  0  0  0  0  0  0  0
    8.3058   -1.0874    7.3783 C   0  0  0  0  0  0  0  0  0  0  0  0
    6.5369    1.7074    7.9991 C   0  0  0  0  0  0  0  0  0  0  0  0
    5.3483    2.3410    7.6162 C   0  0  0  0  0  0  0  0  0  0  0  0
    2.2925    1.4269    6.3652 C   0  0  0  0  0  0  0  0  0  0  0  0
    2.8006    0.1693    5.3961 S   0  0  0  0  0  0  0  0  0  0  0  0
    1.4339   -0.8193    5.6837 C   0  0  0  0  0  0  0  0  0  0  0  0
    0.5804   -0.1298    6.5816 C   0  0  0  0  0  0  0  0  0  0  0  0
   -0.6097   -0.6495    7.2005 N   0  0  0  0  0  0  0  0  0  0  0  0
   -1.9031   -0.4340    6.5824 C   0  0  0  0  0  0  0  0  0  0  0  0
   -2.1025    0.6019    5.6434 C   0  0  0  0  0  0  0  0  0  0  0  0
   -3.3455    0.7637    5.0268 C   0  0  0  0  0  0  0  0  0  0  0  0
   -4.4031   -0.0930    5.3313 C   0  0  0  0  0  0  0  0  0  0  0  0
   -5.9955    0.1299    4.5358 S   0  0  0  0  0  0  0  0  0  0  0  0
   -6.5011    1.4600    5.6643 C   0  0  0  0  0  0  0  0  0  0  0  0
   -4.2138   -1.1348    6.2438 C   0  0  0  0  0  0  0  0  0  0  0  0
   -2.9695   -1.3123    6.8567 C   0  0  0  0  0  0  0  0  0  0  0  0
   -0.5044   -0.9294    8.6222 C   0  0  0  0  0  0  0  0  0  0  0  0
   -1.4805   -0.4728    9.5297 C   0  0  0  0  0  0  0  0  0  0  0  0
   -1.2703   -0.5619   10.9108 C   0  0  0  0  0  0  0  0  0  0  0  0
   -0.0635   -1.0695   11.4048 C   0  0  0  0  0  0  0  0  0  0  0  0
    0.2904   -0.9998   13.1643 S   0  0  0  0  0  0  0  0  0  0  0  0
    0.7664    0.7588   13.1207 C   0  0  0  0  0  0  0  0  0  0  0  0
    0.8942   -1.5686   10.5216 C   0  0  0  0  0  0  0  0  0  0  0  0
    0.6685   -1.5256    9.1389 C   0  0  0  0  0  0  0  0  0  0  0  0
    1.0949    1.1214    6.9163 C   0  0  0  0  0  0  0  0  0  0  0  0
    0.3928    2.5017    7.5495 S   0  0  0  0  0  0  0  0  0  0  0  0
    1.1071   -1.9605    4.7952 C   0  0  0  0  0  0  0  0  0  0  0  0
    2.1447   -2.4674    3.5470 S   0  0  0  0  0  0  0  0  0  0  0  0
    0.9742   -3.2510    2.6416 C   0  0  0  0  0  0  0  0  0  0  0  0
    0.8646   -3.3838    1.1929 C   0  0  0  0  0  0  0  0  0  0  0  0
   -0.4102   -3.3011    0.7109 C   0  0  0  0  0  0  0  0  0  0  0  0
   -1.6367   -3.1150    2.0536 Si  0  0  0  0  0  4  0  0  0  0  0  0
   -2.7645   -4.6057    2.2167 C   0  0  0  0  0  0  0  0  0  0  0  0
   -1.9689   -5.8991    2.3551 C   0  0  0  0  0  0  0  0  0  0  0  0
   -2.5391   -1.4725    1.9778 C   0  0  0  0  0  0  0  0  0  0  0  0
   -3.6057   -1.4742    0.8907 C   0  0  0  0  0  0  0  0  0  0  0  0
   -0.2427   -3.0813    3.2647 C   0  0  0  0  0  0  0  0  0  0  0  0
   -0.1844   -2.3940    4.4738 C   0  0  0  0  0  0  0  0  0  0  0  0
   -0.5023   -3.2665   -0.6722 C   0  0  0  0  0  0  0  0  0  0  0  0
    0.7547   -3.3452   -1.2715 C   0  0  0  0  0  0  0  0  0  0  0  0
    1.9636   -3.4258   -0.0802 S   0  0  0  0  0  0  0  0  0  0  0  0
    0.9718   -3.3998   -2.7159 C   0  0  0  0  0  0  0  0  0  0  0  0
    0.3738   -2.5379   -3.6488 C   0  0  0  0  0  0  0  0  0  0  0  0
   -0.1949   -1.2590   -3.3339 N   0  0  0  0  0  0  0  0  0  0  0  0
    0.7169   -0.2124   -2.9539 C   0  0  0  0  0  0  0  0  0  0  0  0
    1.7915    0.1314   -3.7926 C   0  0  0  0  0  0  0  0  0  0  0  0
    2.6677    1.1576   -3.4346 C   0  0  0  0  0  0  0  0  0  0  0  0
    2.4862    1.8536   -2.2290 C   0  0  0  0  0  0  0  0  0  0  0  0
    3.4492    2.9372   -1.8422 C   0  0  0  0  0  0  0  0  0  0  0  0
    1.4255    1.4964   -1.3743 C   0  0  0  0  0  0  0  0  0  0  0  0
    0.5428    0.4713   -1.7386 C   0  0  0  0  0  0  0  0  0  0  0  0
   -1.5694   -0.9705   -3.6809 C   0  0  0  0  0  0  0  0  0  0  0  0
   -2.5249   -2.0023   -3.7020 C   0  0  0  0  0  0  0  0  0  0  0  0
   -3.8387   -1.7490   -4.0898 C   0  0  0  0  0  0  0  0  0  0  0  0
   -4.2279   -0.4701   -4.4938 C   0  0  0  0  0  0  0  0  0  0  0  0
   -5.6391   -0.2241   -4.9329 C   0  0  0  0  0  0  0  0  0  0  0  0
   -3.2918    0.5759   -4.4403 C   0  0  0  0  0  0  0  0  0  0  0  0
   -1.9783    0.3291   -4.0361 C   0  0  0  0  0  0  0  0  0  0  0  0
    0.4609   -3.0436   -4.9414 C   0  0  0  0  0  0  0  0  0  0  0  0
   -0.1463   -2.5826   -6.4309 S   0  0  0  0  0  0  0  0  0  0  0  0
    0.4489   -3.9540   -7.2595 C   0  0  0  0  0  0  0  0  0  0  0  0
    1.1112   -4.7803   -6.3342 C   0  0  0  0  0  0  0  0  0  0  0  0
    1.6926   -6.0570   -6.6467 N   0  0  0  0  0  0  0  0  0  0  0  0
    2.8773   -6.1053   -7.4681 C   0  0  0  0  0  0  0  0  0  0  0  0
    3.0512   -7.1413   -8.4003 C   0  0  0  0  0  0  0  0  0  0  0  0
    4.1904   -7.1773   -9.2111 C   0  0  0  0  0  0  0  0  0  0  0  0
    5.1692   -6.1787   -9.1006 C   0  0  0  0  0  0  0  0  0  0  0  0
    6.4030   -6.2184   -9.9538 C   0  0  0  0  0  0  0  0  0  0  0  0
    5.0075   -5.1524   -8.1570 C   0  0  0  0  0  0  0  0  0  0  0  0
    3.8690   -5.1123   -7.3489 C   0  0  0  0  0  0  0  0  0  0  0  0
    1.2009   -7.2358   -5.9700 C   0  0  0  0  0  0  0  0  0  0  0  0
   -0.1842   -7.4505   -5.8488 C   0  0  0  0  0  0  0  0  0  0  0  0
   -0.6713   -8.5487   -5.1346 C   0  0  0  0  0  0  0  0  0  0  0  0
    0.2225   -9.4391   -4.5164 C   0  0  0  0  0  0  0  0  0  0  0  0
   -0.2985  -10.6246   -3.7559 C   0  0  0  0  0  0  0  0  0  0  0  0
    1.5991   -9.2407   -4.6522 C   0  0  0  0  0  0  0  0  0  0  0  0
    2.0900   -8.1467   -5.3750 C   0  0  0  0  0  0  0  0  0  0  0  0
    1.0938   -4.2357   -5.0525 C   0  0  0  0  0  0  0  0  0  0  0  0
    1.5835   -4.7684   -3.5311 S   0  0  0  0  0  0  0  0  0  0  0  0
   -0.0118   -4.4063   -8.5858 C   0  0  0  0  0  0  0  0  0  0  0  0
   -0.5819   -3.6166   -9.5135 C   0  0  0  0  0  0  0  0  0  0  0  0
   -1.6390   -4.1092  -10.3970 C   0  0  0  0  0  0  0  0  0  0  0  0
   -1.8690   -5.3171  -10.6734 O   0  0  0  0  0  0  0  0  0  0  0  0
   -2.4731   -2.9940  -10.7847 C   0  0  0  0  0  0  0  0  0  0  0  0
   -3.7444   -3.0462  -11.4048 C   0  0  0  0  0  0  0  0  0  0  0  0
   -4.3883   -1.8254  -11.4695 C   0  0  0  0  0  0  0  0  0  0  0  0
   -3.8274   -0.6188  -10.9395 C   0  0  0  0  0  0  0  0  0  0  0  0
   -2.5851   -0.5579  -10.3261 C   0  0  0  0  0  0  0  0  0  0  0  0
   -1.8978   -1.7995  -10.2737 C   0  0  0  0  0  0  0  0  0  0  0  0
   -0.6183   -2.1304   -9.5960 C   0  0  0  0  0  0  0  0  0  0  0  0
    0.4373   -1.2963   -9.4467 C   0  0  0  0  0  0  0  0  0  0  0  0
    1.7321   -1.7862   -9.0542 C   0  0  0  0  0  0  0  0  0  0  0  0
    2.7814   -2.1737   -8.7491 N   0  0  0  0  0  0  0  0  0  0  0  0
    0.3834    0.0822   -9.8646 C   0  0  0  0  0  0  0  0  0  0  0  0
    0.3506    1.1875  -10.2105 N   0  0  0  0  0  0  0  0  0  0  0  0
   -5.0779    0.1314  -11.2904 C   0  0  0  0  0  0  0  0  0  0  0  0
   -6.0386    0.4826  -10.1127 C   0  0  0  0  0  0  0  0  0  0  0  0
   -7.3577    0.8572  -10.7475 C   0  0  0  0  0  0  0  0  0  0  0  0
   -7.8729   -0.2774  -11.2444 C   0  0  0  0  0  0  0  0  0  0  0  0
   -6.8860   -1.3716  -10.9297 C   0  0  0  0  0  0  0  0  0  0  0  0
   -6.4292   -0.8796   -9.5672 C   0  0  0  0  0  0  0  0  0  0  0  0
   -5.6495   -1.1045  -11.8378 C   0  0  0  0  0  0  0  0  0  0  0  0
    2.1779    5.5488    7.6921 H   0  0  0  0  0  0  0  0  0  0  0  0
   -2.7242    4.7119    3.7727 H   0  0  0  0  0  0  0  0  0  0  0  0
   -1.6731    9.2606    5.8559 H   0  0  0  0  0  0  0  0  0  0  0  0
   -5.0387    8.8772    5.0321 H   0  0  0  0  0  0  0  0  0  0  0  0
   -4.4582   10.6418    3.2307 H   0  0  0  0  0  0  0  0  0  0  0  0
   -2.3161    9.8755    1.8574 H   0  0  0  0  0  0  0  0  0  0  0  0
   -2.8351    7.5554    0.7840 H   0  0  0  0  0  0  0  0  0  0  0  0
   -5.2882    6.8386    1.4848 H   0  0  0  0  0  0  0  0  0  0  0  0
   -5.5916    9.4444    1.1676 H   0  0  0  0  0  0  0  0  0  0  0  0
   -6.4331    8.9339    2.7008 H   0  0  0  0  0  0  0  0  0  0  0  0
   -5.5183    6.7817    4.0555 H   0  0  0  0  0  0  0  0  0  0  0  0
    2.3490    3.1950    3.6469 H   0  0  0  0  0  0  0  0  0  0  0  0
    2.3155    4.8530    1.8182 H   0  0  0  0  0  0  0  0  0  0  0  0
    4.8491    5.5086    0.2203 H   0  0  0  0  0  0  0  0  0  0  0  0
    6.0410    6.5115    1.1408 H   0  0  0  0  0  0  0  0  0  0  0  0
    5.3549    7.1226   -0.4110 H   0  0  0  0  0  0  0  0  0  0  0  0
    5.2466    7.2174    3.9066 H   0  0  0  0  0  0  0  0  0  0  0  0
    5.3008    5.5536    5.7265 H   0  0  0  0  0  0  0  0  0  0  0  0
    5.9814    2.6669    4.2790 H   0  0  0  0  0  0  0  0  0  0  0  0
    8.0669    1.5516    4.9624 H   0  0  0  0  0  0  0  0  0  0  0  0
    7.5399   -1.2287    8.1658 H   0  0  0  0  0  0  0  0  0  0  0  0
    7.8425   -1.2317    6.3814 H   0  0  0  0  0  0  0  0  0  0  0  0
    9.1049   -1.8463    7.5145 H   0  0  0  0  0  0  0  0  0  0  0  0
    6.6945    1.4407    9.0360 H   0  0  0  0  0  0  0  0  0  0  0  0
    4.5985    2.5586    8.3687 H   0  0  0  0  0  0  0  0  0  0  0  0
   -1.3041    1.2844    5.3787 H   0  0  0  0  0  0  0  0  0  0  0  0
   -3.4867    1.5626    4.3079 H   0  0  0  0  0  0  0  0  0  0  0  0
   -5.8073    2.3222    5.5746 H   0  0  0  0  0  0  0  0  0  0  0  0
   -7.5218    1.7879    5.3920 H   0  0  0  0  0  0  0  0  0  0  0  0
   -6.5014    1.0880    6.7093 H   0  0  0  0  0  0  0  0  0  0  0  0
   -5.0227   -1.8172    6.4707 H   0  0  0  0  0  0  0  0  0  0  0  0
   -2.8257   -2.1437    7.5381 H   0  0  0  0  0  0  0  0  0  0  0  0
   -2.3794    0.0148    9.1755 H   0  0  0  0  0  0  0  0  0  0  0  0
   -2.0191   -0.1810   11.5930 H   0  0  0  0  0  0  0  0  0  0  0  0
    1.3582    1.0053   14.0221 H   0  0  0  0  0  0  0  0  0  0  0  0
   -0.1438    1.3870   13.1109 H   0  0  0  0  0  0  0  0  0  0  0  0
    1.3752    0.9956   12.2227 H   0  0  0  0  0  0  0  0  0  0  0  0
    1.8351   -1.9614   10.9002 H   0  0  0  0  0  0  0  0  0  0  0  0
    1.4357   -1.9034    8.4734 H   0  0  0  0  0  0  0  0  0  0  0  0
   -3.4113   -4.4752    3.1125 H   0  0  0  0  0  0  0  0  0  0  0  0
   -3.4134   -4.6621    1.3201 H   0  0  0  0  0  0  0  0  0  0  0  0
   -1.4841   -5.9345    3.3511 H   0  0  0  0  0  0  0  0  0  0  0  0
   -2.6564   -6.7639    2.2654 H   0  0  0  0  0  0  0  0  0  0  0  0
   -1.1956   -5.9811    1.5690 H   0  0  0  0  0  0  0  0  0  0  0  0
   -3.0153   -1.2802    2.9633 H   0  0  0  0  0  0  0  0  0  0  0  0
   -1.7996   -0.6712    1.7755 H   0  0  0  0  0  0  0  0  0  0  0  0
   -4.0446   -0.4526    0.7962 H   0  0  0  0  0  0  0  0  0  0  0  0
   -4.4183   -2.1853    1.1563 H   0  0  0  0  0  0  0  0  0  0  0  0
   -3.1636   -1.7634   -0.0899 H   0  0  0  0  0  0  0  0  0  0  0  0
   -1.0821   -2.0827    4.9656 H   0  0  0  0  0  0  0  0  0  0  0  0
   -1.4408   -3.1952   -1.2081 H   0  0  0  0  0  0  0  0  0  0  0  0
    1.9370   -0.3873   -4.7309 H   0  0  0  0  0  0  0  0  0  0  0  0
    3.4866    1.4168   -4.0957 H   0  0  0  0  0  0  0  0  0  0  0  0
    3.6363    3.6108   -2.7070 H   0  0  0  0  0  0  0  0  0  0  0  0
    3.0466    3.5529   -1.0092 H   0  0  0  0  0  0  0  0  0  0  0  0
    4.4131    2.4838   -1.5214 H   0  0  0  0  0  0  0  0  0  0  0  0
    1.2880    2.0152   -0.4273 H   0  0  0  0  0  0  0  0  0  0  0  0
   -0.2664    0.2076   -1.0699 H   0  0  0  0  0  0  0  0  0  0  0  0
   -2.2516   -3.0091   -3.4148 H   0  0  0  0  0  0  0  0  0  0  0  0
   -4.5527   -2.5616   -4.1010 H   0  0  0  0  0  0  0  0  0  0  0  0
   -5.9350   -0.9772   -5.6917 H   0  0  0  0  0  0  0  0  0  0  0  0
   -5.7525    0.7860   -5.3789 H   0  0  0  0  0  0  0  0  0  0  0  0
   -6.3107   -0.3069   -4.0568 H   0  0  0  0  0  0  0  0  0  0  0  0
   -3.5735    1.5747   -4.7342 H   0  0  0  0  0  0  0  0  0  0  0  0
   -1.2725    1.1452   -4.0273 H   0  0  0  0  0  0  0  0  0  0  0  0
    2.2974   -7.9143   -8.5044 H   0  0  0  0  0  0  0  0  0  0  0  0
    4.3109   -7.9871   -9.9232 H   0  0  0  0  0  0  0  0  0  0  0  0
    6.5964   -5.2161  -10.3949 H   0  0  0  0  0  0  0  0  0  0  0  0
    7.2758   -6.5142   -9.3319 H   0  0  0  0  0  0  0  0  0  0  0  0
    6.2975   -6.9435  -10.7875 H   0  0  0  0  0  0  0  0  0  0  0  0
    5.7664   -4.3897   -8.0370 H   0  0  0  0  0  0  0  0  0  0  0  0
    3.7617   -4.3221   -6.6201 H   0  0  0  0  0  0  0  0  0  0  0  0
   -0.8872   -6.7644   -6.3024 H   0  0  0  0  0  0  0  0  0  0  0  0
   -1.7404   -8.6965   -5.0475 H   0  0  0  0  0  0  0  0  0  0  0  0
   -0.1615  -11.5442   -4.3660 H   0  0  0  0  0  0  0  0  0  0  0  0
    0.2517  -10.7337   -2.7970 H   0  0  0  0  0  0  0  0  0  0  0  0
   -1.3805  -10.5049   -3.5215 H   0  0  0  0  0  0  0  0  0  0  0  0
    2.3012   -9.9228   -4.1853 H   0  0  0  0  0  0  0  0  0  0  0  0
    3.1561   -7.9896   -5.4369 H   0  0  0  0  0  0  0  0  0  0  0  0
   -0.1705   -5.4678   -8.6677 H   0  0  0  0  0  0  0  0  0  0  0  0
   -4.2060   -3.9706  -11.7404 H   0  0  0  0  0  0  0  0  0  0  0  0
   -2.2268    0.3578   -9.8754 H   0  0  0  0  0  0  0  0  0  0  0  0
   -4.9176    0.9411  -12.0386 H   0  0  0  0  0  0  0  0  0  0  0  0
   -5.6487    1.2110   -9.3712 H   0  0  0  0  0  0  0  0  0  0  0  0
   -7.8533    1.8236  -10.7230 H   0  0  0  0  0  0  0  0  0  0  0  0
   -8.8596   -0.3940  -11.6774 H   0  0  0  0  0  0  0  0  0  0  0  0
   -7.2944   -2.4017  -10.9656 H   0  0  0  0  0  0  0  0  0  0  0  0
   -5.5780   -1.4543   -9.1434 H   0  0  0  0  0  0  0  0  0  0  0  0
   -7.2487   -0.8376   -8.8112 H   0  0  0  0  0  0  0  0  0  0  0  0
   -5.8456   -1.0748  -12.9298 H   0  0  0  0  0  0  0  0  0  0  0  0
  1  2  2  3
  2  3  1  0
  3  4  2  0
  3  5  1  0
  5  6  2  0
  6  7  1  0
  7  8  2  0
  8  9  1  0
  9 10  2  0
 10 11  1  0
 11 12  2  3
 12 13  1  0
 13 14  3  0
 12 15  1  0
 15 16  3  0
  8 17  1  0
 17 18  1  0
 18 19  1  0
 19 20  2  0
 20 21  1  0
 21 22  1  0
 21 23  1  0
  1 24  1  0
 24 25  2  0
 25 26  1  0
 26 27  1  0
 27 28  2  0
 28 29  1  0
 29 30  2  0
 30 31  1  0
 31 32  1  0
 30 33  1  0
 33 34  2  0
 26 35  1  0
 35 36  2  0
 36 37  1  0
 37 38  2  0
 38 39  1  0
 39 40  1  0
 38 41  1  0
 41 42  2  0
 25 43  1  0
 43 44  1  0
 44 45  1  0
 45 46  2  0
 46 47  1  0
 47 48  1  0
 48 49  2  0
 49 50  1  0
 50 51  2  0
 51 52  1  0
 52 53  1  0
 51 54  1  0
 54 55  2  0
 47 56  1  0
 56 57  2  0
 57 58  1  0
 58 59  2  0
 59 60  1  0
 60 61  1  0
 59 62  1  0
 62 63  2  0
 46 64  1  0
 64 65  1  0
 45 66  1  0
 66 67  1  0
 67 68  1  0
 68 69  1  0
 69 70  2  0
 70 71  1  0
 71 72  1  0
 72 73  1  0
 71 74  1  0
 74 75  1  0
 71 76  1  0
 76 77  1  0
 70 78  1  0
 78 79  2  0
 79 80  1  0
 79 81  1  0
 81 82  2  0
 82 83  1  0
 83 84  1  0
 84 85  2  0
 85 86  1  0
 86 87  2  0
 87 88  1  0
 87 89  1  0
 89 90  2  0
 83 91  1  0
 91 92  2  0
 92 93  1  0
 93 94  2  0
 94 95  1  0
 94 96  1  0
 96 97  2  0
 82 98  1  0
 98 99  1  0
 99100  1  0
100101  2  0
101102  1  0
102103  1  0
103104  2  0
104105  1  0
105106  2  0
106107  1  0
106108  1  0
108109  2  0
102110  1  0
110111  2  0
111112  1  0
112113  2  0
113114  1  0
113115  1  0
115116  2  0
101117  1  0
117118  1  0
100119  1  0
119120  2  3
120121  1  0
121122  2  0
121123  1  0
123124  2  0
124125  1  0
125126  2  0
126127  1  0
127128  2  0
128129  1  0
129130  2  3
130131  1  0
131132  3  0
130133  1  0
133134  3  0
126135  1  0
135136  1  0
136137  1  0
137138  2  0
138139  1  0
139140  1  0
139141  1  0
 11  2  1  0
 23 17  1  0
 65 24  1  0
 77 66  2  0
118 81  1  0
129120  1  0
141135  1  0
 10  5  1  0
 22 18  1  0
 34 27  1  0
 42 35  1  0
 64 43  2  0
 76 68  2  0
 90 84  1  0
 97 91  1  0
117 98  2  0
128123  1  0
140136  1  0
 23  7  1  0
 55 48  1  0
 63 56  1  0
 80 69  1  0
109103  1  0
116110  1  0
141125  1  0
  1142  1  0
  6143  1  0
  9144  1  0
 17145  1  0
 18146  1  0
 19147  1  0
 20148  1  0
 21149  1  0
 22150  1  0
 22151  1  0
 23152  1  0
 28153  1  0
 29154  1  0
 32155  1  0
 32156  1  0
 32157  1  0
 33158  1  0
 34159  1  0
 36160  1  0
 37161  1  0
 40162  1  0
 40163  1  0
 40164  1  0
 41165  1  0
 42166  1  0
 49167  1  0
 50168  1  0
 53169  1  0
 53170  1  0
 53171  1  0
 54172  1  0
 55173  1  0
 57174  1  0
 58175  1  0
 61176  1  0
 61177  1  0
 61178  1  0
 62179  1  0
 63180  1  0
 72181  1  0
 72182  1  0
 73183  1  0
 73184  1  0
 73185  1  0
 74186  1  0
 74187  1  0
 75188  1  0
 75189  1  0
 75190  1  0
 77191  1  0
 78192  1  0
 85193  1  0
 86194  1  0
 88195  1  0
 88196  1  0
 88197  1  0
 89198  1  0
 90199  1  0
 92200  1  0
 93201  1  0
 95202  1  0
 95203  1  0
 95204  1  0
 96205  1  0
 97206  1  0
104207  1  0
105208  1  0
107209  1  0
107210  1  0
107211  1  0
108212  1  0
109213  1  0
111214  1  0
112215  1  0
114216  1  0
114217  1  0
114218  1  0
115219  1  0
116220  1  0
119221  1  0
124222  1  0
127223  1  0
135224  1  0
136225  1  0
137226  1  0
138227  1  0
139228  1  0
140229  1  0
140230  1  0
141231  1  0
M  END

