
     RDKit          3D

250276  0  0  0  0  0  0  0  0999 V2000
   -0.0072   -6.5978    3.3867 C   0  0  0  0  0  0  0  0  0  0  0  0
    1.1877   -5.9728    3.4053 C   0  0  0  0  0  0  0  0  0  0  0  0
    1.5481   -4.7999    2.5869 C   0  0  0  0  0  0  0  0  0  0  0  0
    0.8070   -4.1977    1.7664 O   0  0  0  0  0  0  0  0  0  0  0  0
    2.9375   -4.4860    2.7951 C   0  0  0  0  0  0  0  0  0  0  0  0
    3.6794   -3.4474    2.1801 C   0  0  0  0  0  0  0  0  0  0  0  0
    5.0233   -3.4557    2.4910 C   0  0  0  0  0  0  0  0  0  0  0  0
    5.6145   -4.4259    3.3509 C   0  0  0  0  0  0  0  0  0  0  0  0
    4.8992   -5.4373    3.9662 C   0  0  0  0  0  0  0  0  0  0  0  0
    3.5032   -5.4306    3.6892 C   0  0  0  0  0  0  0  0  0  0  0  0
    2.4148   -6.3388    4.1886 C   0  0  0  0  0  0  0  0  0  0  0  0
    2.4915   -7.1564    5.2828 C   0  0  0  0  0  0  0  0  0  0  0  0
    1.3570   -7.8619    5.8132 C   0  0  0  0  0  0  0  0  0  0  0  0
    0.4577   -8.4455    6.2568 N   0  0  0  0  0  0  0  0  0  0  0  0
    3.6814   -7.2694    6.0877 C   0  0  0  0  0  0  0  0  0  0  0  0
    4.6241   -7.3818    6.7494 N   0  0  0  0  0  0  0  0  0  0  0  0
    6.9615   -3.7920    3.1684 C   0  0  0  0  0  0  0  0  0  0  0  0
    7.5261   -2.9264    4.3388 C   0  0  0  0  0  0  0  0  0  0  0  0
    6.3897   -2.2823    5.1013 C   0  0  0  0  0  0  0  0  0  0  0  0
    5.8508   -1.3774    4.2828 C   0  0  0  0  0  0  0  0  0  0  0  0
    6.6282   -1.4421    2.9892 C   0  0  0  0  0  0  0  0  0  0  0  0
    8.0054   -1.7173    3.5616 C   0  0  0  0  0  0  0  0  0  0  0  0
    6.3558   -2.8003    2.2713 C   0  0  0  0  0  0  0  0  0  0  0  0
   -1.1693   -6.0995    2.6447 C   0  0  0  0  0  0  0  0  0  0  0  0
   -2.2448   -5.3842    3.1950 C   0  0  0  0  0  0  0  0  0  0  0  0
   -2.3903   -5.1087    4.6025 N   0  0  0  0  0  0  0  0  0  0  0  0
   -2.0271   -3.8161    5.1495 C   0  0  0  0  0  0  0  0  0  0  0  0
   -2.6335   -3.3558    6.3345 C   0  0  0  0  0  0  0  0  0  0  0  0
   -2.1693   -2.1970    6.9659 C   0  0  0  0  0  0  0  0  0  0  0  0
   -1.1140   -1.4665    6.4097 C   0  0  0  0  0  0  0  0  0  0  0  0
   -0.5252    0.0237    7.2197 S   0  0  0  0  0  0  0  0  0  0  0  0
   -1.6996    1.1035    6.3440 C   0  0  0  0  0  0  0  0  0  0  0  0
   -0.5255   -1.8958    5.2116 C   0  0  0  0  0  0  0  0  0  0  0  0
   -0.9958   -3.0522    4.5789 C   0  0  0  0  0  0  0  0  0  0  0  0
   -2.6467   -6.2232    5.4920 C   0  0  0  0  0  0  0  0  0  0  0  0
   -3.6034   -7.1947    5.1447 C   0  0  0  0  0  0  0  0  0  0  0  0
   -3.8800   -8.2569    6.0151 C   0  0  0  0  0  0  0  0  0  0  0  0
   -3.2149   -8.3495    7.2432 C   0  0  0  0  0  0  0  0  0  0  0  0
   -3.5688   -9.7024    8.3660 S   0  0  0  0  0  0  0  0  0  0  0  0
   -4.9865   -8.8663    9.1435 C   0  0  0  0  0  0  0  0  0  0  0  0
   -2.2484   -7.3969    7.5900 C   0  0  0  0  0  0  0  0  0  0  0  0
   -1.9543   -6.3491    6.7131 C   0  0  0  0  0  0  0  0  0  0  0  0
   -3.1204   -4.9502    2.1992 C   0  0  0  0  0  0  0  0  0  0  0  0
   -4.4072   -3.8798    2.1450 S   0  0  0  0  0  0  0  0  0  0  0  0
   -4.5124   -3.8183    0.4349 C   0  0  0  0  0  0  0  0  0  0  0  0
   -3.5333   -4.7050   -0.0857 C   0  0  0  0  0  0  0  0  0  0  0  0
   -3.1375   -4.8112   -1.4659 N   0  0  0  0  0  0  0  0  0  0  0  0
   -1.8063   -4.3818   -1.8420 C   0  0  0  0  0  0  0  0  0  0  0  0
   -1.2219   -3.2631   -1.2221 C   0  0  0  0  0  0  0  0  0  0  0  0
    0.0937   -2.8909   -1.5144 C   0  0  0  0  0  0  0  0  0  0  0  0
    0.8457   -3.6391   -2.4250 C   0  0  0  0  0  0  0  0  0  0  0  0
    2.5560   -3.2170   -2.7318 S   0  0  0  0  0  0  0  0  0  0  0  0
    3.1676   -4.2769   -1.3825 C   0  0  0  0  0  0  0  0  0  0  0  0
    0.2771   -4.7448   -3.0597 C   0  0  0  0  0  0  0  0  0  0  0  0
   -1.0364   -5.1256   -2.7646 C   0  0  0  0  0  0  0  0  0  0  0  0
   -3.9463   -5.5766   -2.3886 C   0  0  0  0  0  0  0  0  0  0  0  0
   -4.0587   -5.1742   -3.7310 C   0  0  0  0  0  0  0  0  0  0  0  0
   -4.7087   -5.9892   -4.6656 C   0  0  0  0  0  0  0  0  0  0  0  0
   -5.2607   -7.2098   -4.2664 C   0  0  0  0  0  0  0  0  0  0  0  0
   -6.0559   -8.2710   -5.4791 S   0  0  0  0  0  0  0  0  0  0  0  0
   -4.5355   -9.1930   -5.8767 C   0  0  0  0  0  0  0  0  0  0  0  0
   -5.1825   -7.6059   -2.9262 C   0  0  0  0  0  0  0  0  0  0  0  0
   -4.5311   -6.7956   -1.9887 C   0  0  0  0  0  0  0  0  0  0  0  0
   -2.7846   -5.3017    0.9331 C   0  0  0  0  0  0  0  0  0  0  0  0
   -1.3510   -6.1838    0.9464 S   0  0  0  0  0  0  0  0  0  0  0  0
   -5.1286   -2.6530   -0.2631 C   0  0  0  0  0  0  0  0  0  0  0  0
   -4.6585   -2.1155   -1.4660 C   0  0  0  0  0  0  0  0  0  0  0  0
   -4.7954   -0.7204   -1.5621 C   0  0  0  0  0  0  0  0  0  0  0  0
   -4.0753    0.0759   -2.4708 C   0  0  0  0  0  0  0  0  0  0  0  0
   -3.3615   -0.5273   -3.6100 C   0  0  0  0  0  0  0  0  0  0  0  0
   -1.9973   -0.7857   -3.6768 C   0  0  0  0  0  0  0  0  0  0  0  0
   -1.6196   -1.3491   -4.9003 C   0  0  0  0  0  0  0  0  0  0  0  0
   -0.3313   -1.6435   -5.2009 F   0  0  0  0  0  0  0  0  0  0  0  0
   -2.6757   -1.5425   -5.7834 C   0  0  0  0  0  0  0  0  0  0  0  0
   -2.5662   -1.9701   -7.2147 C   0  0  0  0  0  0  0  0  0  0  0  0
   -2.5961   -0.7573   -8.1385 C   0  0  0  0  0  0  0  0  0  0  0  0
   -4.0886   -1.0035   -5.0476 S   0  0  0  0  0  0  0  0  0  0  0  0
   -3.8455    1.4041   -2.0917 C   0  0  0  0  0  0  0  0  0  0  0  0
   -4.3920    1.9679   -0.9346 C   0  0  0  0  0  0  0  0  0  0  0  0
   -5.3718    1.2551   -0.1954 C   0  0  0  0  0  0  0  0  0  0  0  0
   -6.2707    1.9338    0.7928 C   0  0  0  0  0  0  0  0  0  0  0  0
   -7.3822    1.1892    1.8280 S   0  0  0  0  0  0  0  0  0  0  0  0
   -8.1048    2.5890    2.4118 C   0  0  0  0  0  0  0  0  0  0  0  0
   -9.2797    2.6479    3.3372 C   0  0  0  0  0  0  0  0  0  0  0  0
  -10.5898    2.6423    2.5542 C   0  0  0  0  0  0  0  0  0  0  0  0
   -7.5226    3.6661    1.7668 C   0  0  0  0  0  0  0  0  0  0  0  0
   -6.5187    3.3118    0.8556 C   0  0  0  0  0  0  0  0  0  0  0  0
   -7.9293    4.9478    1.9368 F   0  0  0  0  0  0  0  0  0  0  0  0
   -5.4670   -0.1343   -0.4816 C   0  0  0  0  0  0  0  0  0  0  0  0
   -5.8690   -1.3862    0.5803 S   0  0  0  0  0  0  0  0  0  0  0  0
   -3.6686    3.1094   -0.4942 C   0  0  0  0  0  0  0  0  0  0  0  0
   -2.6049    3.4573   -1.3343 C   0  0  0  0  0  0  0  0  0  0  0  0
   -2.5803    2.3693   -2.6198 S   0  0  0  0  0  0  0  0  0  0  0  0
   -1.3358    4.0362   -0.8603 C   0  0  0  0  0  0  0  0  0  0  0  0
   -0.1706    3.2680   -0.7263 C   0  0  0  0  0  0  0  0  0  0  0  0
   -0.1560    1.8510   -0.5041 N   0  0  0  0  0  0  0  0  0  0  0  0
   -0.9061    1.3535    0.6204 C   0  0  0  0  0  0  0  0  0  0  0  0
   -1.6991    0.2026    0.4873 C   0  0  0  0  0  0  0  0  0  0  0  0
   -2.6831   -0.0751    1.4440 C   0  0  0  0  0  0  0  0  0  0  0  0
   -2.9212    0.8153    2.5004 C   0  0  0  0  0  0  0  0  0  0  0  0
   -4.4162    0.7163    3.4885 S   0  0  0  0  0  0  0  0  0  0  0  0
   -3.9597   -0.7912    4.3853 C   0  0  0  0  0  0  0  0  0  0  0  0
   -2.0487    1.8858    2.7005 C   0  0  0  0  0  0  0  0  0  0  0  0
   -1.0314    2.1388    1.7824 C   0  0  0  0  0  0  0  0  0  0  0  0
    0.8561    1.0711   -1.1681 C   0  0  0  0  0  0  0  0  0  0  0  0
    1.1195    1.3018   -2.5324 C   0  0  0  0  0  0  0  0  0  0  0  0
    2.3161    0.8735   -3.1055 C   0  0  0  0  0  0  0  0  0  0  0  0
    3.2564    0.1917   -2.3260 C   0  0  0  0  0  0  0  0  0  0  0  0
    4.8625   -0.2067   -3.0212 S   0  0  0  0  0  0  0  0  0  0  0  0
    5.6345    1.3260   -2.4043 C   0  0  0  0  0  0  0  0  0  0  0  0
    2.9604   -0.1367   -1.0000 C   0  0  0  0  0  0  0  0  0  0  0  0
    1.7702    0.3061   -0.4155 C   0  0  0  0  0  0  0  0  0  0  0  0
    0.9467    4.0612   -0.5710 C   0  0  0  0  0  0  0  0  0  0  0  0
    2.5735    3.7101   -0.5372 S   0  0  0  0  0  0  0  0  0  0  0  0
    3.0499    5.3330   -0.4848 C   0  0  0  0  0  0  0  0  0  0  0  0
    1.9044    6.1583   -0.4021 C   0  0  0  0  0  0  0  0  0  0  0  0
    1.9280    7.5222    0.0754 N   0  0  0  0  0  0  0  0  0  0  0  0
    3.1303    8.2990   -0.0529 C   0  0  0  0  0  0  0  0  0  0  0  0
    3.9487    8.5226    1.0681 C   0  0  0  0  0  0  0  0  0  0  0  0
    5.1042    9.2999    0.9564 C   0  0  0  0  0  0  0  0  0  0  0  0
    5.4597    9.8558   -0.2780 C   0  0  0  0  0  0  0  0  0  0  0  0
    6.8836   10.9407   -0.3999 S   0  0  0  0  0  0  0  0  0  0  0  0
    8.0795    9.5854   -0.5973 C   0  0  0  0  0  0  0  0  0  0  0  0
    4.6557    9.6221   -1.4049 C   0  0  0  0  0  0  0  0  0  0  0  0
    3.4974    8.8447   -1.2946 C   0  0  0  0  0  0  0  0  0  0  0  0
    0.9712    7.9302    1.0791 C   0  0  0  0  0  0  0  0  0  0  0  0
    0.4453    9.2325    1.0639 C   0  0  0  0  0  0  0  0  0  0  0  0
   -0.4591    9.6417    2.0502 C   0  0  0  0  0  0  0  0  0  0  0  0
   -0.8458    8.7517    3.0626 C   0  0  0  0  0  0  0  0  0  0  0  0
   -1.9995    9.2706    4.3339 S   0  0  0  0  0  0  0  0  0  0  0  0
   -0.6807    9.7801    5.4845 C   0  0  0  0  0  0  0  0  0  0  0  0
   -0.3228    7.4566    3.0883 C   0  0  0  0  0  0  0  0  0  0  0  0
    0.5924    7.0526    2.1146 C   0  0  0  0  0  0  0  0  0  0  0  0
    0.7336    5.3935   -0.5245 C   0  0  0  0  0  0  0  0  0  0  0  0
   -0.9265    5.6944   -0.7249 S   0  0  0  0  0  0  0  0  0  0  0  0
    4.3291    5.6885   -1.1106 C   0  0  0  0  0  0  0  0  0  0  0  0
    4.4512    5.6867   -2.4536 C   0  0  0  0  0  0  0  0  0  0  0  0
    3.3163    5.5818   -3.3896 C   0  0  0  0  0  0  0  0  0  0  0  0
    2.1383    5.9775   -3.1901 O   0  0  0  0  0  0  0  0  0  0  0  0
    3.7633    5.0051   -4.6227 C   0  0  0  0  0  0  0  0  0  0  0  0
    2.9441    4.5143   -5.6628 C   0  0  0  0  0  0  0  0  0  0  0  0
    3.6433    3.8834   -6.6711 C   0  0  0  0  0  0  0  0  0  0  0  0
    5.0649    3.7501   -6.6713 C   0  0  0  0  0  0  0  0  0  0  0  0
    5.8739    4.2125   -5.6384 C   0  0  0  0  0  0  0  0  0  0  0  0
    5.1722    4.8684   -4.5849 C   0  0  0  0  0  0  0  0  0  0  0  0
    5.6742    5.3727   -3.2654 C   0  0  0  0  0  0  0  0  0  0  0  0
    6.9719    5.5807   -2.9170 C   0  0  0  0  0  0  0  0  0  0  0  0
    8.0498    5.4417   -3.8538 C   0  0  0  0  0  0  0  0  0  0  0  0
    8.9329    5.3359   -4.5974 N   0  0  0  0  0  0  0  0  0  0  0  0
    7.3659    5.9896   -1.5973 C   0  0  0  0  0  0  0  0  0  0  0  0
    7.6969    6.2892   -0.5250 N   0  0  0  0  0  0  0  0  0  0  0  0
    5.0110    3.0298   -7.9877 C   0  0  0  0  0  0  0  0  0  0  0  0
    5.4125    3.8136   -9.2736 C   0  0  0  0  0  0  0  0  0  0  0  0
    5.0785    5.2841   -9.1150 C   0  0  0  0  0  0  0  0  0  0  0  0
    3.7497    5.3714   -9.1072 C   0  0  0  0  0  0  0  0  0  0  0  0
    3.2240    3.9630   -9.2532 C   0  0  0  0  0  0  0  0  0  0  0  0
    4.2762    3.4077  -10.1900 C   0  0  0  0  0  0  0  0  0  0  0  0
    3.5475    3.1399   -7.9705 C   0  0  0  0  0  0  0  0  0  0  0  0
   -0.1811   -7.5000    3.9398 H   0  0  0  0  0  0  0  0  0  0  0  0
    3.2351   -2.7194    1.5138 H   0  0  0  0  0  0  0  0  0  0  0  0
    5.4000   -6.1677    4.5857 H   0  0  0  0  0  0  0  0  0  0  0  0
    7.7066   -4.4465    2.6651 H   0  0  0  0  0  0  0  0  0  0  0  0
    8.2893   -3.4274    4.9698 H   0  0  0  0  0  0  0  0  0  0  0  0
    6.1087   -2.4461    6.1371 H   0  0  0  0  0  0  0  0  0  0  0  0
    5.0601   -0.6812    4.5356 H   0  0  0  0  0  0  0  0  0  0  0  0
    6.5526   -0.5409    2.3417 H   0  0  0  0  0  0  0  0  0  0  0  0
    8.3892   -0.8942    4.2144 H   0  0  0  0  0  0  0  0  0  0  0  0
    8.7780   -1.9697    2.7901 H   0  0  0  0  0  0  0  0  0  0  0  0
    6.7162   -2.8571    1.2233 H   0  0  0  0  0  0  0  0  0  0  0  0
   -3.4456   -3.9092    6.7840 H   0  0  0  0  0  0  0  0  0  0  0  0
   -2.6407   -1.8670    7.8849 H   0  0  0  0  0  0  0  0  0  0  0  0
   -2.7351    0.8878    6.6774 H   0  0  0  0  0  0  0  0  0  0  0  0
   -1.4635    2.1626    6.5652 H   0  0  0  0  0  0  0  0  0  0  0  0
   -1.6136    0.9418    5.2539 H   0  0  0  0  0  0  0  0  0  0  0  0
    0.2741   -1.3275    4.7628 H   0  0  0  0  0  0  0  0  0  0  0  0
   -0.5386   -3.3540    3.6561 H   0  0  0  0  0  0  0  0  0  0  0  0
   -4.1448   -7.1172    4.2133 H   0  0  0  0  0  0  0  0  0  0  0  0
   -4.6205   -8.9926    5.7389 H   0  0  0  0  0  0  0  0  0  0  0  0
   -5.1888   -9.3376   10.1241 H   0  0  0  0  0  0  0  0  0  0  0  0
   -4.7826   -7.7870    9.3073 H   0  0  0  0  0  0  0  0  0  0  0  0
   -5.8821   -8.9764    8.4956 H   0  0  0  0  0  0  0  0  0  0  0  0
   -1.7249   -7.4707    8.5337 H   0  0  0  0  0  0  0  0  0  0  0  0
   -1.1865   -5.6364    6.9925 H   0  0  0  0  0  0  0  0  0  0  0  0
   -1.7850   -2.6892   -0.4956 H   0  0  0  0  0  0  0  0  0  0  0  0
    0.5308   -2.0398   -1.0111 H   0  0  0  0  0  0  0  0  0  0  0  0
    2.6393   -4.0343   -0.4411 H   0  0  0  0  0  0  0  0  0  0  0  0
    4.2519   -4.0987   -1.2369 H   0  0  0  0  0  0  0  0  0  0  0  0
    3.0045   -5.3453   -1.6340 H   0  0  0  0  0  0  0  0  0  0  0  0
    0.8610   -5.3389   -3.7532 H   0  0  0  0  0  0  0  0  0  0  0  0
   -1.4343   -6.0207   -3.2259 H   0  0  0  0  0  0  0  0  0  0  0  0
   -3.6078   -4.2505   -4.0647 H   0  0  0  0  0  0  0  0  0  0  0  0
   -4.7666   -5.6771   -5.6993 H   0  0  0  0  0  0  0  0  0  0  0  0
   -4.7468   -9.8831   -6.7197 H   0  0  0  0  0  0  0  0  0  0  0  0
   -3.7273   -8.4947   -6.1785 H   0  0  0  0  0  0  0  0  0  0  0  0
   -4.2146   -9.7915   -4.9996 H   0  0  0  0  0  0  0  0  0  0  0  0
   -5.6005   -8.5568   -2.6132 H   0  0  0  0  0  0  0  0  0  0  0  0
   -4.4433   -7.1372   -0.9668 H   0  0  0  0  0  0  0  0  0  0  0  0
   -4.0658   -2.6672   -2.1730 H   0  0  0  0  0  0  0  0  0  0  0  0
   -1.2966   -0.5578   -2.8807 H   0  0  0  0  0  0  0  0  0  0  0  0
   -3.4114   -2.6383   -7.4641 H   0  0  0  0  0  0  0  0  0  0  0  0
   -1.6173   -2.5286   -7.3736 H   0  0  0  0  0  0  0  0  0  0  0  0
   -2.4265   -1.0714   -9.1882 H   0  0  0  0  0  0  0  0  0  0  0  0
   -1.8052   -0.0320   -7.8531 H   0  0  0  0  0  0  0  0  0  0  0  0
   -3.5806   -0.2398   -8.0724 H   0  0  0  0  0  0  0  0  0  0  0  0
   -9.2582    1.7818    4.0282 H   0  0  0  0  0  0  0  0  0  0  0  0
   -9.2192    3.5725    3.9456 H   0  0  0  0  0  0  0  0  0  0  0  0
  -10.7553    1.6441    2.0934 H   0  0  0  0  0  0  0  0  0  0  0  0
  -10.5717    3.4205    1.7622 H   0  0  0  0  0  0  0  0  0  0  0  0
  -11.4307    2.8752    3.2385 H   0  0  0  0  0  0  0  0  0  0  0  0
   -6.0451    4.0460    0.2185 H   0  0  0  0  0  0  0  0  0  0  0  0
   -3.7840    3.5272    0.4992 H   0  0  0  0  0  0  0  0  0  0  0  0
   -1.6205   -0.4103   -0.3998 H   0  0  0  0  0  0  0  0  0  0  0  0
   -3.2948   -0.9534    1.3286 H   0  0  0  0  0  0  0  0  0  0  0  0
   -2.8665   -0.9493    4.3678 H   0  0  0  0  0  0  0  0  0  0  0  0
   -4.4757   -1.6582    3.9378 H   0  0  0  0  0  0  0  0  0  0  0  0
   -4.2930   -0.6974    5.4435 H   0  0  0  0  0  0  0  0  0  0  0  0
   -2.2068    2.5703    3.5210 H   0  0  0  0  0  0  0  0  0  0  0  0
   -0.4016    3.0131    1.9290 H   0  0  0  0  0  0  0  0  0  0  0  0
    0.4428    1.9010   -3.1254 H   0  0  0  0  0  0  0  0  0  0  0  0
    2.5473    1.1335   -4.1276 H   0  0  0  0  0  0  0  0  0  0  0  0
    5.7630    1.2482   -1.3051 H   0  0  0  0  0  0  0  0  0  0  0  0
    5.0141    2.2167   -2.6431 H   0  0  0  0  0  0  0  0  0  0  0  0
    6.6334    1.4464   -2.8723 H   0  0  0  0  0  0  0  0  0  0  0  0
    3.6838   -0.6679   -0.3988 H   0  0  0  0  0  0  0  0  0  0  0  0
    1.6020    0.1366    0.6352 H   0  0  0  0  0  0  0  0  0  0  0  0
    3.6875    8.0895    2.0263 H   0  0  0  0  0  0  0  0  0  0  0  0
    5.7248    9.4672    1.8283 H   0  0  0  0  0  0  0  0  0  0  0  0
    9.0961   10.0077   -0.7145 H   0  0  0  0  0  0  0  0  0  0  0  0
    7.8331    8.9889   -1.4988 H   0  0  0  0  0  0  0  0  0  0  0  0
    8.0678    8.9281    0.3005 H   0  0  0  0  0  0  0  0  0  0  0  0
    4.9232   10.0639   -2.3577 H   0  0  0  0  0  0  0  0  0  0  0  0
    2.8724    8.6848   -2.1679 H   0  0  0  0  0  0  0  0  0  0  0  0
    0.7351    9.9277    0.2868 H   0  0  0  0  0  0  0  0  0  0  0  0
   -0.8631   10.6448    2.0256 H   0  0  0  0  0  0  0  0  0  0  0  0
   -0.0378    8.9109    5.7322 H   0  0  0  0  0  0  0  0  0  0  0  0
   -1.1448   10.1571    6.4169 H   0  0  0  0  0  0  0  0  0  0  0  0
   -0.0687   10.5860    5.0319 H   0  0  0  0  0  0  0  0  0  0  0  0
   -0.6110    6.7634    3.8669 H   0  0  0  0  0  0  0  0  0  0  0  0
    1.0161    6.0588    2.1715 H   0  0  0  0  0  0  0  0  0  0  0  0
    5.1921    5.5766   -0.4777 H   0  0  0  0  0  0  0  0  0  0  0  0
    1.8654    4.5908   -5.6606 H   0  0  0  0  0  0  0  0  0  0  0  0
    6.9339    4.0172   -5.6432 H   0  0  0  0  0  0  0  0  0  0  0  0
    5.3767    1.9786   -7.9464 H   0  0  0  0  0  0  0  0  0  0  0  0
    6.4320    3.6090   -9.6577 H   0  0  0  0  0  0  0  0  0  0  0  0
    5.7730    6.1171   -9.0816 H   0  0  0  0  0  0  0  0  0  0  0  0
    3.1713    6.2884   -9.0589 H   0  0  0  0  0  0  0  0  0  0  0  0
    2.1734    3.8877   -9.6100 H   0  0  0  0  0  0  0  0  0  0  0  0
    4.2981    3.9176  -11.1828 H   0  0  0  0  0  0  0  0  0  0  0  0
    4.1984    2.3063  -10.3467 H   0  0  0  0  0  0  0  0  0  0  0  0
    3.0234    2.1588   -7.8939 H   0  0  0  0  0  0  0  0  0  0  0  0
  1  2  2  3
  2  3  1  0
  3  4  2  0
  3  5  1  0
  5  6  2  0
  6  7  1  0
  7  8  2  0
  8  9  1  0
  9 10  2  0
 10 11  1  0
 11 12  2  3
 12 13  1  0
 13 14  3  0
 12 15  1  0
 15 16  3  0
  8 17  1  0
 17 18  1  0
 18 19  1  0
 19 20  2  0
 20 21  1  0
 21 22  1  0
 21 23  1  0
  1 24  1  0
 24 25  2  0
 25 26  1  0
 26 27  1  0
 27 28  2  0
 28 29  1  0
 29 30  2  0
 30 31  1  0
 31 32  1  0
 30 33  1  0
 33 34  2  0
 26 35  1  0
 35 36  2  0
 36 37  1  0
 37 38  2  0
 38 39  1  0
 39 40  1  0
 38 41  1  0
 41 42  2  0
 25 43  1  0
 43 44  1  0
 44 45  1  0
 45 46  2  0
 46 47  1  0
 47 48  1  0
 48 49  2  0
 49 50  1  0
 50 51  2  0
 51 52  1  0
 52 53  1  0
 51 54  1  0
 54 55  2  0
 47 56  1  0
 56 57  2  0
 57 58  1  0
 58 59  2  0
 59 60  1  0
 60 61  1  0
 59 62  1  0
 62 63  2  0
 46 64  1  0
 64 65  1  0
 45 66  1  0
 66 67  2  0
 67 68  1  0
 68 69  2  0
 69 70  1  0
 70 71  2  0
 71 72  1  0
 72 73  1  0
 72 74  2  0
 74 75  1  0
 75 76  1  0
 74 77  1  0
 69 78  1  0
 78 79  2  0
 79 80  1  0
 80 81  1  0
 81 82  1  0
 82 83  1  0
 83 84  1  0
 84 85  1  0
 83 86  2  0
 86 87  1  0
 86 88  1  0
 80 89  2  0
 89 90  1  0
 79 91  1  0
 91 92  2  0
 92 93  1  0
 92 94  1  0
 94 95  2  0
 95 96  1  0
 96 97  1  0
 97 98  2  0
 98 99  1  0
 99100  2  0
100101  1  0
101102  1  0
100103  1  0
103104  2  0
 96105  1  0
105106  2  0
106107  1  0
107108  2  0
108109  1  0
109110  1  0
108111  1  0
111112  2  0
 95113  1  0
113114  1  0
114115  1  0
115116  2  0
116117  1  0
117118  1  0
118119  2  0
119120  1  0
120121  2  0
121122  1  0
122123  1  0
121124  1  0
124125  2  0
117126  1  0
126127  2  0
127128  1  0
128129  2  0
129130  1  0
130131  1  0
129132  1  0
132133  2  0
116134  1  0
134135  1  0
115136  1  0
136137  2  3
137138  1  0
138139  2  0
138140  1  0
140141  2  0
141142  1  0
142143  2  0
143144  1  0
144145  2  0
145146  1  0
146147  2  3
147148  1  0
148149  3  0
147150  1  0
150151  3  0
143152  1  0
152153  1  0
153154  1  0
154155  2  0
155156  1  0
156157  1  0
156158  1  0
 11  2  1  0
 23 17  1  0
 65 24  1  0
 90 66  1  0
135 94  1  0
146137  1  0
158152  1  0
 10  5  1  0
 22 18  1  0
 34 27  1  0
 42 35  1  0
 64 43  2  0
 89 68  1  0
104 97  1  0
112105  1  0
134113  2  0
145140  1  0
157153  1  0
 23  7  1  0
 55 48  1  0
 63 56  1  0
 77 70  1  0
 93 78  1  0
125118  1  0
133126  1  0
158142  1  0
 87 81  2  0
  1159  1  0
  6160  1  0
  9161  1  0
 17162  1  0
 18163  1  0
 19164  1  0
 20165  1  0
 21166  1  0
 22167  1  0
 22168  1  0
 23169  1  0
 28170  1  0
 29171  1  0
 32172  1  0
 32173  1  0
 32174  1  0
 33175  1  0
 34176  1  0
 36177  1  0
 37178  1  0
 40179  1  0
 40180  1  0
 40181  1  0
 41182  1  0
 42183  1  0
 49184  1  0
 50185  1  0
 53186  1  0
 53187  1  0
 53188  1  0
 54189  1  0
 55190  1  0
 57191  1  0
 58192  1  0
 61193  1  0
 61194  1  0
 61195  1  0
 62196  1  0
 63197  1  0
 67198  1  0
 71199  1  0
 75200  1  0
 75201  1  0
 76202  1  0
 76203  1  0
 76204  1  0
 84205  1  0
 84206  1  0
 85207  1  0
 85208  1  0
 85209  1  0
 87210  1  0
 91211  1  0
 98212  1  0
 99213  1  0
102214  1  0
102215  1  0
102216  1  0
103217  1  0
104218  1  0
106219  1  0
107220  1  0
110221  1  0
110222  1  0
110223  1  0
111224  1  0
112225  1  0
119226  1  0
120227  1  0
123228  1  0
123229  1  0
123230  1  0
124231  1  0
125232  1  0
127233  1  0
128234  1  0
131235  1  0
131236  1  0
131237  1  0
132238  1  0
133239  1  0
136240  1  0
141241  1  0
144242  1  0
152243  1  0
153244  1  0
154245  1  0
155246  1  0
156247  1  0
157248  1  0
157249  1  0
158250  1  0
M  END

