
     RDKit          3D

159174  0  0  0  0  0  0  0  0999 V2000
    5.5365    1.6761    0.6615 C   0  0  0  0  0  0  0  0  0  0  0  0
    5.0818    2.9171    0.9494 C   0  0  0  0  0  0  0  0  0  0  0  0
    3.7217    3.2235    1.4446 C   0  0  0  0  0  0  0  0  0  0  0  0
    2.7451    2.4299    1.5021 O   0  0  0  0  0  0  0  0  0  0  0  0
    3.6827    4.5812    1.9180 C   0  0  0  0  0  0  0  0  0  0  0  0
    2.5701    5.2355    2.4983 C   0  0  0  0  0  0  0  0  0  0  0  0
    2.7996    6.5618    2.7912 C   0  0  0  0  0  0  0  0  0  0  0  0
    4.0489    7.2109    2.5469 C   0  0  0  0  0  0  0  0  0  0  0  0
    5.1558    6.5658    2.0176 C   0  0  0  0  0  0  0  0  0  0  0  0
    4.9503    5.1897    1.7028 C   0  0  0  0  0  0  0  0  0  0  0  0
    5.8659    4.1887    1.0593 C   0  0  0  0  0  0  0  0  0  0  0  0
    7.0954    4.4391    0.5315 C   0  0  0  0  0  0  0  0  0  0  0  0
    7.7745    3.4995   -0.3181 C   0  0  0  0  0  0  0  0  0  0  0  0
    8.3290    2.7448   -1.0097 N   0  0  0  0  0  0  0  0  0  0  0  0
    7.7909    5.6902    0.6889 C   0  0  0  0  0  0  0  0  0  0  0  0
    8.3562    6.6976    0.7878 N   0  0  0  0  0  0  0  0  0  0  0  0
    3.4907    8.5089    3.0622 C   0  0  0  0  0  0  0  0  0  0  0  0
    3.1235    9.5802    1.9890 C   0  0  0  0  0  0  0  0  0  0  0  0
    2.2453   10.5895    2.7001 C   0  0  0  0  0  0  0  0  0  0  0  0
    1.0814    9.9726    2.9489 C   0  0  0  0  0  0  0  0  0  0  0  0
    1.2094    8.5730    2.3952 C   0  0  0  0  0  0  0  0  0  0  0  0
    2.0441    8.8865    1.1678 C   0  0  0  0  0  0  0  0  0  0  0  0
    2.2213    7.8342    3.3216 C   0  0  0  0  0  0  0  0  0  0  0  0
    4.6192    0.5572    0.4749 C   0  0  0  0  0  0  0  0  0  0  0  0
    3.7212    0.4846   -0.6013 C   0  0  0  0  0  0  0  0  0  0  0  0
    4.2150    0.4019   -1.9559 N   0  0  0  0  0  0  0  0  0  0  0  0
    3.8485    1.3648   -2.9798 C   0  0  0  0  0  0  0  0  0  0  0  0
    2.7765    2.2563   -2.7997 C   0  0  0  0  0  0  0  0  0  0  0  0
    2.3773    3.1082   -3.8432 C   0  0  0  0  0  0  0  0  0  0  0  0
    3.0477    3.1056   -5.0697 C   0  0  0  0  0  0  0  0  0  0  0  0
    2.5589    4.2432   -6.3539 S   0  0  0  0  0  0  0  0  0  0  0  0
    1.5813    3.0168   -7.2980 C   0  0  0  0  0  0  0  0  0  0  0  0
    4.1432    2.2572   -5.2504 C   0  0  0  0  0  0  0  0  0  0  0  0
    4.5405    1.3945   -4.2142 C   0  0  0  0  0  0  0  0  0  0  0  0
    4.8829   -0.8321   -2.3238 C   0  0  0  0  0  0  0  0  0  0  0  0
    6.0459   -1.2495   -1.6504 C   0  0  0  0  0  0  0  0  0  0  0  0
    6.5828   -2.5113   -1.8941 C   0  0  0  0  0  0  0  0  0  0  0  0
    5.9888   -3.3646   -2.8219 C   0  0  0  0  0  0  0  0  0  0  0  0
    6.5906   -5.0527   -3.0107 S   0  0  0  0  0  0  0  0  0  0  0  0
    5.5633   -5.6694   -1.6403 C   0  0  0  0  0  0  0  0  0  0  0  0
    4.8668   -2.9362   -3.5400 C   0  0  0  0  0  0  0  0  0  0  0  0
    4.3106   -1.6797   -3.2839 C   0  0  0  0  0  0  0  0  0  0  0  0
    2.6230   -0.2890   -0.2270 C   0  0  0  0  0  0  0  0  0  0  0  0
    1.0240   -0.1030   -0.6466 S   0  0  0  0  0  0  0  0  0  0  0  0
    0.3491   -0.8621    0.7247 C   0  0  0  0  0  0  0  0  0  0  0  0
    1.4401   -1.3528    1.5179 C   0  0  0  0  0  0  0  0  0  0  0  0
    1.3670   -2.3775    2.5568 N   0  0  0  0  0  0  0  0  0  0  0  0
    2.5526   -2.7150    3.3039 C   0  0  0  0  0  0  0  0  0  0  0  0
    3.4679   -3.6333    2.7747 C   0  0  0  0  0  0  0  0  0  0  0  0
    4.5978   -4.0033    3.5094 C   0  0  0  0  0  0  0  0  0  0  0  0
    4.7994   -3.4909    4.7966 C   0  0  0  0  0  0  0  0  0  0  0  0
    6.2691   -3.9614    5.7062 S   0  0  0  0  0  0  0  0  0  0  0  0
    5.4830   -5.4144    6.4908 C   0  0  0  0  0  0  0  0  0  0  0  0
    3.8666   -2.5992    5.3459 C   0  0  0  0  0  0  0  0  0  0  0  0
    2.7432   -2.2147    4.6053 C   0  0  0  0  0  0  0  0  0  0  0  0
    0.3040   -3.3590    2.5905 C   0  0  0  0  0  0  0  0  0  0  0  0
   -0.1972   -3.9255    1.3984 C   0  0  0  0  0  0  0  0  0  0  0  0
   -1.3337   -4.7393    1.4244 C   0  0  0  0  0  0  0  0  0  0  0  0
   -1.9695   -5.0099    2.6426 C   0  0  0  0  0  0  0  0  0  0  0  0
   -3.5182   -5.9266    2.6708 S   0  0  0  0  0  0  0  0  0  0  0  0
   -2.7034   -7.5367    2.8741 C   0  0  0  0  0  0  0  0  0  0  0  0
   -1.4132   -4.5347    3.8434 C   0  0  0  0  0  0  0  0  0  0  0  0
   -0.2746   -3.7305    3.8157 C   0  0  0  0  0  0  0  0  0  0  0  0
    2.6667   -0.8836    0.9971 C   0  0  0  0  0  0  0  0  0  0  0  0
    4.0795   -0.4044    1.7667 S   0  0  0  0  0  0  0  0  0  0  0  0
   -1.1291   -0.8575    1.0450 C   0  0  0  0  0  0  0  0  0  0  0  0
   -1.6033   -1.0882    2.3601 C   0  0  0  0  0  0  0  0  0  0  0  0
   -0.7793   -0.9393    3.4270 F   0  0  0  0  0  0  0  0  0  0  0  0
   -2.9404   -1.4634    2.5765 C   0  0  0  0  0  0  0  0  0  0  0  0
   -3.3222   -1.9015    3.8021 F   0  0  0  0  0  0  0  0  0  0  0  0
   -3.8582   -1.4364    1.5158 C   0  0  0  0  0  0  0  0  0  0  0  0
   -3.4675   -0.8264    0.3201 C   0  0  0  0  0  0  0  0  0  0  0  0
   -4.4073   -0.4497   -0.5901 N   0  0  0  0  0  0  0  0  0  0  0  0
   -4.0927    0.1943   -1.7404 C   0  0  0  0  0  0  0  0  0  0  0  0
   -5.2350    0.6910   -2.5913 C   0  0  0  0  0  0  0  0  0  0  0  0
   -6.1038    1.6907   -1.8165 C   0  0  0  0  0  0  0  0  0  0  0  0
   -2.7271    0.4078   -2.0387 C   0  0  0  0  0  0  0  0  0  0  0  0
   -1.7944    0.0134   -1.1228 N   0  0  0  0  0  0  0  0  0  0  0  0
   -2.1124   -0.5662    0.0617 C   0  0  0  0  0  0  0  0  0  0  0  0
   -2.2513    1.1508   -3.2602 C   0  0  0  0  0  0  0  0  0  0  0  0
   -2.2485    2.6573   -3.0228 C   0  0  0  0  0  0  0  0  0  0  0  0
   -5.1583   -2.1365    1.5645 C   0  0  0  0  0  0  0  0  0  0  0  0
   -5.3719   -3.1942    0.6756 C   0  0  0  0  0  0  0  0  0  0  0  0
   -6.6265   -3.6598    0.4800 N   0  0  0  0  0  0  0  0  0  0  0  0
   -7.6805   -3.1554    1.1659 C   0  0  0  0  0  0  0  0  0  0  0  0
   -7.4587   -2.1658    2.1344 C   0  0  0  0  0  0  0  0  0  0  0  0
   -6.2028   -1.6458    2.2836 N   0  0  0  0  0  0  0  0  0  0  0  0
   -9.0201   -3.6823    0.8614 C   0  0  0  0  0  0  0  0  0  0  0  0
   -9.4803   -3.6335   -0.3999 C   0  0  0  0  0  0  0  0  0  0  0  0
  -10.0378   -4.8054   -1.0792 C   0  0  0  0  0  0  0  0  0  0  0  0
  -10.5546   -5.8087   -0.5221 O   0  0  0  0  0  0  0  0  0  0  0  0
   -9.7476   -4.6769   -2.5036 C   0  0  0  0  0  0  0  0  0  0  0  0
   -9.9287   -5.6161   -3.5231 C   0  0  0  0  0  0  0  0  0  0  0  0
   -9.4458   -5.3115   -4.8083 C   0  0  0  0  0  0  0  0  0  0  0  0
   -9.6776   -6.5626   -6.2389 Br  0  0  0  0  0  0  0  0  0  0  0  0
   -8.7610   -4.0998   -5.0408 C   0  0  0  0  0  0  0  0  0  0  0  0
   -8.5948   -3.1716   -4.0049 C   0  0  0  0  0  0  0  0  0  0  0  0
   -9.1118   -3.4659   -2.7368 C   0  0  0  0  0  0  0  0  0  0  0  0
   -9.0400   -2.6898   -1.4711 C   0  0  0  0  0  0  0  0  0  0  0  0
   -9.0376   -1.3385   -1.3565 C   0  0  0  0  0  0  0  0  0  0  0  0
   -8.8973   -0.4770   -2.5021 C   0  0  0  0  0  0  0  0  0  0  0  0
   -8.8014    0.2002   -3.4392 N   0  0  0  0  0  0  0  0  0  0  0  0
   -9.4429   -0.7105   -0.1242 C   0  0  0  0  0  0  0  0  0  0  0  0
   -9.8032   -0.2014    0.8516 N   0  0  0  0  0  0  0  0  0  0  0  0
    6.5814    1.4765    0.5468 H   0  0  0  0  0  0  0  0  0  0  0  0
    1.6230    4.7408    2.6756 H   0  0  0  0  0  0  0  0  0  0  0  0
    6.0767    7.0987    1.8780 H   0  0  0  0  0  0  0  0  0  0  0  0
    4.0117    8.8880    3.9704 H   0  0  0  0  0  0  0  0  0  0  0  0
    3.9668   10.0046    1.4148 H   0  0  0  0  0  0  0  0  0  0  0  0
    2.4527   11.6391    2.8647 H   0  0  0  0  0  0  0  0  0  0  0  0
    0.1915   10.4372    3.3613 H   0  0  0  0  0  0  0  0  0  0  0  0
    0.2560    8.0399    2.2095 H   0  0  0  0  0  0  0  0  0  0  0  0
    2.4019    7.9839    0.6151 H   0  0  0  0  0  0  0  0  0  0  0  0
    1.5355    9.5566    0.4422 H   0  0  0  0  0  0  0  0  0  0  0  0
    1.9359    7.7853    4.3974 H   0  0  0  0  0  0  0  0  0  0  0  0
    2.2249    2.2833   -1.8703 H   0  0  0  0  0  0  0  0  0  0  0  0
    1.5218    3.7627   -3.6965 H   0  0  0  0  0  0  0  0  0  0  0  0
    0.7041    2.6949   -6.6982 H   0  0  0  0  0  0  0  0  0  0  0  0
    2.2162    2.1425   -7.5494 H   0  0  0  0  0  0  0  0  0  0  0  0
    1.2272    3.4835   -8.2407 H   0  0  0  0  0  0  0  0  0  0  0  0
    4.6731    2.2419   -6.1911 H   0  0  0  0  0  0  0  0  0  0  0  0
    5.3808    0.7297   -4.3938 H   0  0  0  0  0  0  0  0  0  0  0  0
    6.5196   -0.6185   -0.9184 H   0  0  0  0  0  0  0  0  0  0  0  0
    7.4262   -2.8560   -1.3079 H   0  0  0  0  0  0  0  0  0  0  0  0
    5.7062   -6.7650   -1.5368 H   0  0  0  0  0  0  0  0  0  0  0  0
    5.8535   -5.1737   -0.6881 H   0  0  0  0  0  0  0  0  0  0  0  0
    4.4873   -5.4685   -1.8465 H   0  0  0  0  0  0  0  0  0  0  0  0
    4.3904   -3.6008   -4.2441 H   0  0  0  0  0  0  0  0  0  0  0  0
    3.3982   -1.3904   -3.7971 H   0  0  0  0  0  0  0  0  0  0  0  0
    3.3180   -4.0391    1.7824 H   0  0  0  0  0  0  0  0  0  0  0  0
    5.2993   -4.7085    3.0862 H   0  0  0  0  0  0  0  0  0  0  0  0
    4.7600   -5.0726    7.2728 H   0  0  0  0  0  0  0  0  0  0  0  0
    4.9596   -6.0455    5.7324 H   0  0  0  0  0  0  0  0  0  0  0  0
    6.2841   -6.0201    6.9733 H   0  0  0  0  0  0  0  0  0  0  0  0
    3.9838   -2.2405    6.3572 H   0  0  0  0  0  0  0  0  0  0  0  0
    2.0085   -1.5564    5.0435 H   0  0  0  0  0  0  0  0  0  0  0  0
    0.2557   -3.6933    0.4413 H   0  0  0  0  0  0  0  0  0  0  0  0
   -1.7292   -5.1419    0.5046 H   0  0  0  0  0  0  0  0  0  0  0  0
   -3.4592   -8.3361    2.7847 H   0  0  0  0  0  0  0  0  0  0  0  0
   -2.2283   -7.5983    3.8729 H   0  0  0  0  0  0  0  0  0  0  0  0
   -1.9365   -7.6887    2.0883 H   0  0  0  0  0  0  0  0  0  0  0  0
   -1.9062   -4.7247    4.7828 H   0  0  0  0  0  0  0  0  0  0  0  0
    0.0837   -3.3017    4.7422 H   0  0  0  0  0  0  0  0  0  0  0  0
   -4.8974    1.1882   -3.5287 H   0  0  0  0  0  0  0  0  0  0  0  0
   -5.8606   -0.1806   -2.8878 H   0  0  0  0  0  0  0  0  0  0  0  0
   -5.4744    2.3981   -1.2310 H   0  0  0  0  0  0  0  0  0  0  0  0
   -6.7213    2.2705   -2.5370 H   0  0  0  0  0  0  0  0  0  0  0  0
   -6.7920    1.1466   -1.1372 H   0  0  0  0  0  0  0  0  0  0  0  0
   -2.8606    0.8896   -4.1581 H   0  0  0  0  0  0  0  0  0  0  0  0
   -1.2111    0.8265   -3.5069 H   0  0  0  0  0  0  0  0  0  0  0  0
   -2.1123    3.1882   -3.9913 H   0  0  0  0  0  0  0  0  0  0  0  0
   -3.1972    3.0109   -2.5636 H   0  0  0  0  0  0  0  0  0  0  0  0
   -1.4100    2.9312   -2.3572 H   0  0  0  0  0  0  0  0  0  0  0  0
   -4.5553   -3.6045    0.0904 H   0  0  0  0  0  0  0  0  0  0  0  0
   -8.2813   -1.7752    2.7208 H   0  0  0  0  0  0  0  0  0  0  0  0
   -9.4280   -4.4225    1.5463 H   0  0  0  0  0  0  0  0  0  0  0  0
  -10.4092   -6.5702   -3.3272 H   0  0  0  0  0  0  0  0  0  0  0  0
   -8.3579   -3.8779   -6.0291 H   0  0  0  0  0  0  0  0  0  0  0  0
   -8.0330   -2.2663   -4.1965 H   0  0  0  0  0  0  0  0  0  0  0  0
  1  2  2  3
  2  3  1  0
  3  4  2  0
  3  5  1  0
  5  6  2  0
  6  7  1  0
  7  8  2  0
  8  9  1  0
  9 10  2  0
 10 11  1  0
 11 12  2  3
 12 13  1  0
 13 14  3  0
 12 15  1  0
 15 16  3  0
  8 17  1  0
 17 18  1  0
 18 19  1  0
 19 20  2  0
 20 21  1  0
 21 22  1  0
 21 23  1  0
  1 24  1  0
 24 25  2  0
 25 26  1  0
 26 27  1  0
 27 28  2  0
 28 29  1  0
 29 30  2  0
 30 31  1  0
 31 32  1  0
 30 33  1  0
 33 34  2  0
 26 35  1  0
 35 36  2  0
 36 37  1  0
 37 38  2  0
 38 39  1  0
 39 40  1  0
 38 41  1  0
 41 42  2  0
 25 43  1  0
 43 44  1  0
 44 45  1  0
 45 46  2  0
 46 47  1  0
 47 48  1  0
 48 49  2  0
 49 50  1  0
 50 51  2  0
 51 52  1  0
 52 53  1  0
 51 54  1  0
 54 55  2  0
 47 56  1  0
 56 57  2  0
 57 58  1  0
 58 59  2  0
 59 60  1  0
 60 61  1  0
 59 62  1  0
 62 63  2  0
 46 64  1  0
 64 65  1  0
 45 66  1  0
 66 67  2  0
 67 68  1  0
 67 69  1  0
 69 70  1  0
 69 71  2  0
 71 72  1  0
 72 73  2  0
 73 74  1  0
 74 75  1  0
 75 76  1  0
 74 77  2  0
 77 78  1  0
 78 79  2  0
 77 80  1  0
 80 81  1  0
 71 82  1  0
 82 83  2  0
 83 84  1  0
 84 85  2  0
 85 86  1  0
 86 87  2  0
 85 88  1  0
 88 89  2  3
 89 90  1  0
 90 91  2  0
 90 92  1  0
 92 93  2  0
 93 94  1  0
 94 95  1  0
 94 96  2  0
 96 97  1  0
 97 98  2  0
 98 99  1  0
 99100  2  3
100101  1  0
101102  3  0
100103  1  0
103104  3  0
 11  2  1  0
 23 17  1  0
 65 24  1  0
 79 66  1  0
 87 82  1  0
 99 89  1  0
 10  5  1  0
 22 18  1  0
 34 27  1  0
 42 35  1  0
 64 43  2  0
 79 72  1  0
 98 92  1  0
 23  7  1  0
 55 48  1  0
 63 56  1  0
  1105  1  0
  6106  1  0
  9107  1  0
 17108  1  0
 18109  1  0
 19110  1  0
 20111  1  0
 21112  1  0
 22113  1  0
 22114  1  0
 23115  1  0
 28116  1  0
 29117  1  0
 32118  1  0
 32119  1  0
 32120  1  0
 33121  1  0
 34122  1  0
 36123  1  0
 37124  1  0
 40125  1  0
 40126  1  0
 40127  1  0
 41128  1  0
 42129  1  0
 49130  1  0
 50131  1  0
 53132  1  0
 53133  1  0
 53134  1  0
 54135  1  0
 55136  1  0
 57137  1  0
 58138  1  0
 61139  1  0
 61140  1  0
 61141  1  0
 62142  1  0
 63143  1  0
 75144  1  0
 75145  1  0
 76146  1  0
 76147  1  0
 76148  1  0
 80149  1  0
 80150  1  0
 81151  1  0
 81152  1  0
 81153  1  0
 83154  1  0
 86155  1  0
 88156  1  0
 93157  1  0
 96158  1  0
 97159  1  0
M  END

