
     RDKit          3D

184204  0  0  0  0  0  0  0  0999 V2000
    2.7977   -1.7904    4.3414 C   0  0  0  0  0  0  0  0  0  0  0  0
    3.2725   -2.2030    3.1538 C   0  0  0  0  0  0  0  0  0  0  0  0
    2.5609   -2.0629    1.8716 C   0  0  0  0  0  0  0  0  0  0  0  0
    1.7520   -1.1547    1.5578 O   0  0  0  0  0  0  0  0  0  0  0  0
    3.0483   -3.0680    0.9606 C   0  0  0  0  0  0  0  0  0  0  0  0
    2.5018   -3.4140   -0.2990 C   0  0  0  0  0  0  0  0  0  0  0  0
    3.1628   -4.4518   -0.9304 C   0  0  0  0  0  0  0  0  0  0  0  0
    4.2931   -5.1193   -0.3612 C   0  0  0  0  0  0  0  0  0  0  0  0
    4.8060   -4.8150    0.8867 C   0  0  0  0  0  0  0  0  0  0  0  0
    4.1364   -3.7464    1.5628 C   0  0  0  0  0  0  0  0  0  0  0  0
    4.3945   -3.1580    2.9141 C   0  0  0  0  0  0  0  0  0  0  0  0
    5.5035   -3.3078    3.6873 C   0  0  0  0  0  0  0  0  0  0  0  0
    6.5609   -4.2253    3.3655 C   0  0  0  0  0  0  0  0  0  0  0  0
    7.4206   -4.9563    3.1211 N   0  0  0  0  0  0  0  0  0  0  0  0
    5.7576   -2.4531    4.8075 C   0  0  0  0  0  0  0  0  0  0  0  0
    5.9748   -1.7678    5.7165 N   0  0  0  0  0  0  0  0  0  0  0  0
    4.4186   -5.9818   -1.5788 C   0  0  0  0  0  0  0  0  0  0  0  0
    5.5361   -5.5939   -2.5980 C   0  0  0  0  0  0  0  0  0  0  0  0
    5.2126   -6.3676   -3.8614 C   0  0  0  0  0  0  0  0  0  0  0  0
    4.1024   -5.8012   -4.3667 C   0  0  0  0  0  0  0  0  0  0  0  0
    3.7394   -4.6542   -3.4438 C   0  0  0  0  0  0  0  0  0  0  0  0
    5.1388   -4.2088   -3.0698 C   0  0  0  0  0  0  0  0  0  0  0  0
    3.2261   -5.3326   -2.1412 C   0  0  0  0  0  0  0  0  0  0  0  0
    1.4867   -1.1300    4.4604 C   0  0  0  0  0  0  0  0  0  0  0  0
    0.2795   -1.6649    3.9632 C   0  0  0  0  0  0  0  0  0  0  0  0
    0.0023   -3.0881    3.9327 N   0  0  0  0  0  0  0  0  0  0  0  0
    0.6148   -3.9075    4.9509 C   0  0  0  0  0  0  0  0  0  0  0  0
    0.5645   -3.4955    6.2976 C   0  0  0  0  0  0  0  0  0  0  0  0
    1.3513   -4.1348    7.2550 C   0  0  0  0  0  0  0  0  0  0  0  0
    2.1813   -5.1977    6.8822 C   0  0  0  0  0  0  0  0  0  0  0  0
    3.3354   -5.8791    8.0740 S   0  0  0  0  0  0  0  0  0  0  0  0
    4.7003   -4.7822    7.5570 C   0  0  0  0  0  0  0  0  0  0  0  0
    2.1636   -5.6689    5.5618 C   0  0  0  0  0  0  0  0  0  0  0  0
    1.3851   -5.0207    4.5929 C   0  0  0  0  0  0  0  0  0  0  0  0
   -1.0442   -3.6549    3.1183 C   0  0  0  0  0  0  0  0  0  0  0  0
   -1.9740   -4.5396    3.6890 C   0  0  0  0  0  0  0  0  0  0  0  0
   -3.0132   -5.0728    2.9132 C   0  0  0  0  0  0  0  0  0  0  0  0
   -3.1512   -4.6917    1.5742 C   0  0  0  0  0  0  0  0  0  0  0  0
   -4.5237   -5.3074    0.6043 S   0  0  0  0  0  0  0  0  0  0  0  0
   -5.7136   -4.1089    1.2873 C   0  0  0  0  0  0  0  0  0  0  0  0
   -2.2176   -3.8308    0.9985 C   0  0  0  0  0  0  0  0  0  0  0  0
   -1.1688   -3.3080    1.7637 C   0  0  0  0  0  0  0  0  0  0  0  0
   -0.6794   -0.6653    3.8618 C   0  0  0  0  0  0  0  0  0  0  0  0
   -2.1178   -0.4721    3.0453 S   0  0  0  0  0  0  0  0  0  0  0  0
   -2.2855    1.1952    3.3886 C   0  0  0  0  0  0  0  0  0  0  0  0
   -1.2335    1.5672    4.2559 C   0  0  0  0  0  0  0  0  0  0  0  0
   -1.4314    2.4757    5.3621 N   0  0  0  0  0  0  0  0  0  0  0  0
   -1.5807    1.9092    6.6881 C   0  0  0  0  0  0  0  0  0  0  0  0
   -0.9671    2.5066    7.8077 C   0  0  0  0  0  0  0  0  0  0  0  0
   -1.0781    1.9209    9.0681 C   0  0  0  0  0  0  0  0  0  0  0  0
   -1.8007    0.7301    9.2297 C   0  0  0  0  0  0  0  0  0  0  0  0
   -1.9172   -0.0621   10.8398 S   0  0  0  0  0  0  0  0  0  0  0  0
   -3.3515    0.9253   11.3841 C   0  0  0  0  0  0  0  0  0  0  0  0
   -2.4144    0.1263    8.1315 C   0  0  0  0  0  0  0  0  0  0  0  0
   -2.3111    0.7143    6.8729 C   0  0  0  0  0  0  0  0  0  0  0  0
   -1.8263    3.8358    5.1526 C   0  0  0  0  0  0  0  0  0  0  0  0
   -3.1310    4.1321    4.7459 C   0  0  0  0  0  0  0  0  0  0  0  0
   -3.5053    5.4524    4.4788 C   0  0  0  0  0  0  0  0  0  0  0  0
   -2.5963    6.4919    4.6782 C   0  0  0  0  0  0  0  0  0  0  0  0
   -3.0908    8.1755    4.3222 S   0  0  0  0  0  0  0  0  0  0  0  0
   -2.5449    8.1108    2.5790 C   0  0  0  0  0  0  0  0  0  0  0  0
   -1.3029    6.2068    5.1513 C   0  0  0  0  0  0  0  0  0  0  0  0
   -0.9208    4.8858    5.3840 C   0  0  0  0  0  0  0  0  0  0  0  0
   -0.3061    0.5328    4.3785 C   0  0  0  0  0  0  0  0  0  0  0  0
    1.2768    0.4913    4.9221 S   0  0  0  0  0  0  0  0  0  0  0  0
   -2.8496    2.0784    2.3324 C   0  0  0  0  0  0  0  0  0  0  0  0
   -4.0880    1.7491    1.7572 C   0  0  0  0  0  0  0  0  0  0  0  0
   -4.8998    0.8280    2.3373 F   0  0  0  0  0  0  0  0  0  0  0  0
   -4.4870    2.3126    0.5360 C   0  0  0  0  0  0  0  0  0  0  0  0
   -5.6929    1.9436    0.0283 F   0  0  0  0  0  0  0  0  0  0  0  0
   -3.6416    3.2085   -0.1574 C   0  0  0  0  0  0  0  0  0  0  0  0
   -2.4961    3.6856    0.5209 C   0  0  0  0  0  0  0  0  0  0  0  0
   -1.7315    4.6799    0.0003 N   0  0  0  0  0  0  0  0  0  0  0  0
   -0.5869    5.1223    0.5784 C   0  0  0  0  0  0  0  0  0  0  0  0
    0.1650    6.2321   -0.1068 C   0  0  0  0  0  0  0  0  0  0  0  0
    1.1769    5.6622   -1.0954 C   0  0  0  0  0  0  0  0  0  0  0  0
   -0.1339    4.4867    1.7500 C   0  0  0  0  0  0  0  0  0  0  0  0
   -0.9071    3.5101    2.2896 N   0  0  0  0  0  0  0  0  0  0  0  0
   -2.0796    3.1022    1.7354 C   0  0  0  0  0  0  0  0  0  0  0  0
    1.1229    4.9078    2.4750 C   0  0  0  0  0  0  0  0  0  0  0  0
    1.8018    3.7487    3.1972 C   0  0  0  0  0  0  0  0  0  0  0  0
   -3.8711    3.5260   -1.6184 C   0  0  0  0  0  0  0  0  0  0  0  0
   -2.9006    4.5743   -2.5826 S   0  0  0  0  0  0  0  0  0  0  0  0
   -3.5823    4.1328   -4.0270 C   0  0  0  0  0  0  0  0  0  0  0  0
   -3.1595    4.0368   -5.3200 C   0  0  0  0  0  0  0  0  0  0  0  0
   -3.8423    2.9989   -5.8601 C   0  0  0  0  0  0  0  0  0  0  0  0
   -4.6731    2.4025   -4.9697 N   0  0  0  0  0  0  0  0  0  0  0  0
   -5.4275    1.1593   -5.1422 C   0  0  0  0  0  0  0  0  0  0  0  0
   -6.8276    1.4709   -5.6589 C   0  0  0  0  0  0  0  0  0  0  0  0
   -4.4856    3.1327   -3.8381 C   0  0  0  0  0  0  0  0  0  0  0  0
   -4.6830    2.7703   -2.4987 C   0  0  0  0  0  0  0  0  0  0  0  0
   -3.2940    2.5029   -7.0407 C   0  0  0  0  0  0  0  0  0  0  0  0
   -2.1201    3.1964   -7.3648 C   0  0  0  0  0  0  0  0  0  0  0  0
   -1.7714    4.3861   -6.1915 S   0  0  0  0  0  0  0  0  0  0  0  0
   -1.2785    2.8982   -8.5268 C   0  0  0  0  0  0  0  0  0  0  0  0
   -0.5727    1.7572   -8.6523 C   0  0  0  0  0  0  0  0  0  0  0  0
   -0.4472    0.7301   -7.6079 C   0  0  0  0  0  0  0  0  0  0  0  0
   -0.8785    0.8053   -6.4269 O   0  0  0  0  0  0  0  0  0  0  0  0
    0.2991   -0.3968   -8.1297 C   0  0  0  0  0  0  0  0  0  0  0  0
    0.6692   -1.5738   -7.4236 C   0  0  0  0  0  0  0  0  0  0  0  0
    1.3509   -2.4942   -8.1850 C   0  0  0  0  0  0  0  0  0  0  0  0
    1.6618   -2.2830   -9.5685 C   0  0  0  0  0  0  0  0  0  0  0  0
    1.3242   -1.1315  -10.2581 C   0  0  0  0  0  0  0  0  0  0  0  0
    0.6487   -0.1441   -9.4815 C   0  0  0  0  0  0  0  0  0  0  0  0
    0.1874    1.2367   -9.8525 C   0  0  0  0  0  0  0  0  0  0  0  0
    0.5076    1.9050  -10.9976 C   0  0  0  0  0  0  0  0  0  0  0  0
    0.0944    3.2533  -11.2762 C   0  0  0  0  0  0  0  0  0  0  0  0
   -0.2409    4.3356  -11.5266 N   0  0  0  0  0  0  0  0  0  0  0  0
    1.2700    1.3183  -12.0655 C   0  0  0  0  0  0  0  0  0  0  0  0
    1.8752    0.8647  -12.9477 N   0  0  0  0  0  0  0  0  0  0  0  0
    2.3247   -3.6267   -9.6428 C   0  0  0  0  0  0  0  0  0  0  0  0
    3.8826   -3.6273   -9.7029 C   0  0  0  0  0  0  0  0  0  0  0  0
    4.3001   -5.0403   -9.3708 C   0  0  0  0  0  0  0  0  0  0  0  0
    4.0325   -5.2246   -8.0690 C   0  0  0  0  0  0  0  0  0  0  0  0
    3.4358   -3.9327   -7.5663 C   0  0  0  0  0  0  0  0  0  0  0  0
    4.2669   -2.9545   -8.3852 C   0  0  0  0  0  0  0  0  0  0  0  0
    2.0250   -3.8295   -8.2236 C   0  0  0  0  0  0  0  0  0  0  0  0
    3.2847   -2.0564    5.2638 H   0  0  0  0  0  0  0  0  0  0  0  0
    1.6640   -2.8952   -0.7459 H   0  0  0  0  0  0  0  0  0  0  0  0
    5.6170   -5.3942    1.2917 H   0  0  0  0  0  0  0  0  0  0  0  0
    4.2896   -7.0609   -1.3793 H   0  0  0  0  0  0  0  0  0  0  0  0
    6.5780   -5.7125   -2.2256 H   0  0  0  0  0  0  0  0  0  0  0  0
    5.8006   -7.1467   -4.3250 H   0  0  0  0  0  0  0  0  0  0  0  0
    3.6012   -6.0813   -5.2837 H   0  0  0  0  0  0  0  0  0  0  0  0
    3.0784   -3.8848   -3.8826 H   0  0  0  0  0  0  0  0  0  0  0  0
    5.1755   -3.4279   -2.2734 H   0  0  0  0  0  0  0  0  0  0  0  0
    5.7375   -3.8465   -3.9493 H   0  0  0  0  0  0  0  0  0  0  0  0
    2.3422   -6.0125   -2.2559 H   0  0  0  0  0  0  0  0  0  0  0  0
   -0.0317   -2.6403    6.5969 H   0  0  0  0  0  0  0  0  0  0  0  0
    1.3652   -3.7603    8.2756 H   0  0  0  0  0  0  0  0  0  0  0  0
    5.4294   -4.6861    8.3779 H   0  0  0  0  0  0  0  0  0  0  0  0
    4.3198   -3.7682    7.3124 H   0  0  0  0  0  0  0  0  0  0  0  0
    5.2026   -5.2053    6.6597 H   0  0  0  0  0  0  0  0  0  0  0  0
    2.7952   -6.5010    5.2687 H   0  0  0  0  0  0  0  0  0  0  0  0
    1.4332   -5.3401    3.5652 H   0  0  0  0  0  0  0  0  0  0  0  0
   -1.9065   -4.8158    4.7303 H   0  0  0  0  0  0  0  0  0  0  0  0
   -3.7178   -5.7476    3.3763 H   0  0  0  0  0  0  0  0  0  0  0  0
   -5.9247   -4.3578    2.3415 H   0  0  0  0  0  0  0  0  0  0  0  0
   -5.3148   -3.0693    1.2256 H   0  0  0  0  0  0  0  0  0  0  0  0
   -6.6531   -4.1670    0.7020 H   0  0  0  0  0  0  0  0  0  0  0  0
   -2.3200   -3.5344   -0.0421 H   0  0  0  0  0  0  0  0  0  0  0  0
   -0.4580   -2.6303    1.3013 H   0  0  0  0  0  0  0  0  0  0  0  0
   -0.3774    3.4149    7.7028 H   0  0  0  0  0  0  0  0  0  0  0  0
   -0.5743    2.3782    9.9155 H   0  0  0  0  0  0  0  0  0  0  0  0
   -3.0007    1.8608   11.8808 H   0  0  0  0  0  0  0  0  0  0  0  0
   -3.9247    0.3160   12.1123 H   0  0  0  0  0  0  0  0  0  0  0  0
   -4.0252    1.1807   10.5394 H   0  0  0  0  0  0  0  0  0  0  0  0
   -2.9722   -0.7933    8.2421 H   0  0  0  0  0  0  0  0  0  0  0  0
   -2.7886    0.2202    6.0432 H   0  0  0  0  0  0  0  0  0  0  0  0
   -3.8510    3.3373    4.5953 H   0  0  0  0  0  0  0  0  0  0  0  0
   -4.5063    5.6590    4.1244 H   0  0  0  0  0  0  0  0  0  0  0  0
   -1.4325    8.2004    2.5339 H   0  0  0  0  0  0  0  0  0  0  0  0
   -2.8466    7.1517    2.0906 H   0  0  0  0  0  0  0  0  0  0  0  0
   -3.0095    8.9555    2.0196 H   0  0  0  0  0  0  0  0  0  0  0  0
   -0.6035    7.0084    5.3457 H   0  0  0  0  0  0  0  0  0  0  0  0
    0.0853    4.6752    5.7224 H   0  0  0  0  0  0  0  0  0  0  0  0
   -0.5613    6.8592   -0.6781 H   0  0  0  0  0  0  0  0  0  0  0  0
    0.6546    6.9066    0.6280 H   0  0  0  0  0  0  0  0  0  0  0  0
    1.5684    6.4762   -1.7314 H   0  0  0  0  0  0  0  0  0  0  0  0
    0.6955    4.9027   -1.7422 H   0  0  0  0  0  0  0  0  0  0  0  0
    2.0233    5.1901   -0.5629 H   0  0  0  0  0  0  0  0  0  0  0  0
    0.8642    5.6947    3.2124 H   0  0  0  0  0  0  0  0  0  0  0  0
    1.8686    5.3260    1.7759 H   0  0  0  0  0  0  0  0  0  0  0  0
    2.7188    4.1068    3.7067 H   0  0  0  0  0  0  0  0  0  0  0  0
    2.0823    2.9571    2.4708 H   0  0  0  0  0  0  0  0  0  0  0  0
    1.1320    3.3170    3.9682 H   0  0  0  0  0  0  0  0  0  0  0  0
   -4.9094    0.5030   -5.8689 H   0  0  0  0  0  0  0  0  0  0  0  0
   -5.4910    0.6045   -4.1888 H   0  0  0  0  0  0  0  0  0  0  0  0
   -7.3302    0.5215   -5.9477 H   0  0  0  0  0  0  0  0  0  0  0  0
   -7.4212    1.9722   -4.8556 H   0  0  0  0  0  0  0  0  0  0  0  0
   -6.7716    2.1440   -6.5366 H   0  0  0  0  0  0  0  0  0  0  0  0
   -5.2760    1.9067   -2.2198 H   0  0  0  0  0  0  0  0  0  0  0  0
   -3.6641    1.6373   -7.5873 H   0  0  0  0  0  0  0  0  0  0  0  0
   -1.3023    3.6386   -9.3002 H   0  0  0  0  0  0  0  0  0  0  0  0
    0.4168   -1.7542   -6.3900 H   0  0  0  0  0  0  0  0  0  0  0  0
    1.5550   -1.0436  -11.3016 H   0  0  0  0  0  0  0  0  0  0  0  0
    1.8196   -4.3318  -10.3430 H   0  0  0  0  0  0  0  0  0  0  0  0
    4.3413   -3.1988  -10.6132 H   0  0  0  0  0  0  0  0  0  0  0  0
    4.7999   -5.7505  -10.0196 H   0  0  0  0  0  0  0  0  0  0  0  0
    4.3001   -6.1044   -7.4983 H   0  0  0  0  0  0  0  0  0  0  0  0
    3.4629   -3.7928   -6.4705 H   0  0  0  0  0  0  0  0  0  0  0  0
    3.9407   -1.8994   -8.2963 H   0  0  0  0  0  0  0  0  0  0  0  0
    5.3607   -3.0162   -8.1594 H   0  0  0  0  0  0  0  0  0  0  0  0
    1.3309   -4.6738   -8.0144 H   0  0  0  0  0  0  0  0  0  0  0  0
  1  2  2  3
  2  3  1  0
  3  4  2  0
  3  5  1  0
  5  6  2  0
  6  7  1  0
  7  8  2  0
  8  9  1  0
  9 10  2  0
 10 11  1  0
 11 12  2  3
 12 13  1  0
 13 14  3  0
 12 15  1  0
 15 16  3  0
  8 17  1  0
 17 18  1  0
 18 19  1  0
 19 20  2  0
 20 21  1  0
 21 22  1  0
 21 23  1  0
  1 24  1  0
 24 25  2  0
 25 26  1  0
 26 27  1  0
 27 28  2  0
 28 29  1  0
 29 30  2  0
 30 31  1  0
 31 32  1  0
 30 33  1  0
 33 34  2  0
 26 35  1  0
 35 36  2  0
 36 37  1  0
 37 38  2  0
 38 39  1  0
 39 40  1  0
 38 41  1  0
 41 42  2  0
 25 43  1  0
 43 44  1  0
 44 45  1  0
 45 46  2  0
 46 47  1  0
 47 48  1  0
 48 49  2  0
 49 50  1  0
 50 51  2  0
 51 52  1  0
 52 53  1  0
 51 54  1  0
 54 55  2  0
 47 56  1  0
 56 57  2  0
 57 58  1  0
 58 59  2  0
 59 60  1  0
 60 61  1  0
 59 62  1  0
 62 63  2  0
 46 64  1  0
 64 65  1  0
 45 66  1  0
 66 67  2  0
 67 68  1  0
 67 69  1  0
 69 70  1  0
 69 71  2  0
 71 72  1  0
 72 73  2  0
 73 74  1  0
 74 75  1  0
 75 76  1  0
 74 77  2  0
 77 78  1  0
 78 79  2  0
 77 80  1  0
 80 81  1  0
 71 82  1  0
 82 83  1  0
 83 84  1  0
 84 85  1  0
 85 86  2  0
 86 87  1  0
 87 88  1  0
 88 89  1  0
 87 90  1  0
 90 91  1  0
 86 92  1  0
 92 93  2  0
 93 94  1  0
 93 95  1  0
 95 96  2  3
 96 97  1  0
 97 98  2  0
 97 99  1  0
 99100  2  0
100101  1  0
101102  2  0
102103  1  0
103104  2  0
104105  1  0
105106  2  3
106107  1  0
107108  3  0
106109  1  0
109110  3  0
102111  1  0
111112  1  0
112113  1  0
113114  2  0
114115  1  0
115116  1  0
115117  1  0
 11  2  1  0
 23 17  1  0
 65 24  1  0
 79 66  1  0
 91 82  2  0
105 96  1  0
117111  1  0
 10  5  1  0
 22 18  1  0
 34 27  1  0
 42 35  1  0
 64 43  2  0
 79 72  1  0
 90 84  2  0
104 99  1  0
116112  1  0
 23  7  1  0
 55 48  1  0
 63 56  1  0
 94 85  1  0
117101  1  0
  1118  1  0
  6119  1  0
  9120  1  0
 17121  1  0
 18122  1  0
 19123  1  0
 20124  1  0
 21125  1  0
 22126  1  0
 22127  1  0
 23128  1  0
 28129  1  0
 29130  1  0
 32131  1  0
 32132  1  0
 32133  1  0
 33134  1  0
 34135  1  0
 36136  1  0
 37137  1  0
 40138  1  0
 40139  1  0
 40140  1  0
 41141  1  0
 42142  1  0
 49143  1  0
 50144  1  0
 53145  1  0
 53146  1  0
 53147  1  0
 54148  1  0
 55149  1  0
 57150  1  0
 58151  1  0
 61152  1  0
 61153  1  0
 61154  1  0
 62155  1  0
 63156  1  0
 75157  1  0
 75158  1  0
 76159  1  0
 76160  1  0
 76161  1  0
 80162  1  0
 80163  1  0
 81164  1  0
 81165  1  0
 81166  1  0
 88167  1  0
 88168  1  0
 89169  1  0
 89170  1  0
 89171  1  0
 91172  1  0
 92173  1  0
 95174  1  0
100175  1  0
103176  1  0
111177  1  0
112178  1  0
113179  1  0
114180  1  0
115181  1  0
116182  1  0
116183  1  0
117184  1  0
M  END

