
     RDKit          3D

208230  0  0  0  0  0  0  0  0999 V2000
    6.8260   -4.4660    4.3600 C   0  0  0  0  0  0  0  0  0  0  0  0
    5.9531   -4.9286    5.2820 C   0  0  0  0  0  0  0  0  0  0  0  0
    4.9594   -4.2750    6.0535 C   0  0  0  0  0  0  0  0  0  0  0  0
    5.0459   -3.0529    6.4222 O   0  0  0  0  0  0  0  0  0  0  0  0
    3.8581   -5.1578    6.3662 C   0  0  0  0  0  0  0  0  0  0  0  0
    2.7495   -4.8638    7.1686 C   0  0  0  0  0  0  0  0  0  0  0  0
    1.8595   -5.9014    7.3871 C   0  0  0  0  0  0  0  0  0  0  0  0
    2.0346   -7.1065    6.8566 C   0  0  0  0  0  0  0  0  0  0  0  0
    3.1728   -7.3950    6.0462 C   0  0  0  0  0  0  0  0  0  0  0  0
    4.0866   -6.3836    5.8228 C   0  0  0  0  0  0  0  0  0  0  0  0
    5.4198   -6.3236    5.1112 C   0  0  0  0  0  0  0  0  0  0  0  0
    6.0476   -7.4447    4.7695 C   0  0  0  0  0  0  0  0  0  0  0  0
    7.3324   -7.7319    4.5195 C   0  0  0  0  0  0  0  0  0  0  0  0
    8.5467   -8.0016    4.2691 N   0  0  0  0  0  0  0  0  0  0  0  0
    5.0864   -8.5230    4.3017 C   0  0  0  0  0  0  0  0  0  0  0  0
    4.2884   -9.3857    3.9207 N   0  0  0  0  0  0  0  0  0  0  0  0
    0.8059   -7.7141    7.3580 C   0  0  0  0  0  0  0  0  0  0  0  0
   -0.3358   -7.6358    6.3519 C   0  0  0  0  0  0  0  0  0  0  0  0
   -0.1940   -6.3875    5.5811 C   0  0  0  0  0  0  0  0  0  0  0  0
   -0.6801   -5.3911    6.3200 C   0  0  0  0  0  0  0  0  0  0  0  0
   -0.6900   -5.9242    7.7283 C   0  0  0  0  0  0  0  0  0  0  0  0
   -1.4164   -7.2509    7.3782 C   0  0  0  0  0  0  0  0  0  0  0  0
    0.6521   -6.3727    8.0933 C   0  0  0  0  0  0  0  0  0  0  0  0
    6.7991   -3.0227    3.9653 C   0  0  0  0  0  0  0  0  0  0  0  0
    6.6205   -1.8196    4.5119 C   0  0  0  0  0  0  0  0  0  0  0  0
    6.2500   -0.7569    3.7352 C   0  0  0  0  0  0  0  0  0  0  0  0
    5.6840    0.4569    4.1284 C   0  0  0  0  0  0  0  0  0  0  0  0
    6.0481    1.1488    5.3529 C   0  0  0  0  0  0  0  0  0  0  0  0
    7.0061    1.0159    6.3113 C   0  0  0  0  0  0  0  0  0  0  0  0
    7.1298    1.8829    7.3160 C   0  0  0  0  0  0  0  0  0  0  0  0
    6.3470    2.9480    7.4926 C   0  0  0  0  0  0  0  0  0  0  0  0
    6.1842    4.2726    8.6386 S   0  0  0  0  0  0  0  0  0  0  0  0
    5.1372    5.5257    7.8199 C   0  0  0  0  0  0  0  0  0  0  0  0
    5.9207    6.0658    6.6241 C   0  0  0  0  0  0  0  0  0  0  0  0
    5.1588    2.7417    5.9448 Se  0  0  0  0  0  2  0  0  0  0  0  0
    5.0025    1.2737    3.1968 C   0  0  0  0  0  0  0  0  0  0  0  0
    4.8512    1.0156    1.8859 C   0  0  0  0  0  0  0  0  0  0  0  0
    5.4697   -0.2026    1.4699 C   0  0  0  0  0  0  0  0  0  0  0  0
    5.5405   -0.4710    0.0526 C   0  0  0  0  0  0  0  0  0  0  0  0
    5.6480   -0.7306   -1.0028 C   0  0  0  0  0  0  0  0  0  0  0  0
    5.7484   -1.0265   -2.3056 C   0  0  0  0  0  0  0  0  0  0  0  0
    6.9231   -1.8914   -2.1729 C   0  0  0  0  0  0  0  0  0  0  0  0
    7.8812   -2.7857   -3.3265 S   0  0  0  0  0  0  0  0  0  0  0  0
    6.9089   -4.2237   -3.9199 C   0  0  0  0  0  0  0  0  0  0  0  0
    5.7704   -3.5979   -4.7039 C   0  0  0  0  0  0  0  0  0  0  0  0
    7.3116   -1.8468   -0.2191 Se  0  0  0  0  0  2  0  0  0  0  0  0
    6.1059   -1.0007    2.3979 C   0  0  0  0  0  0  0  0  0  0  0  0
    6.4813   -2.6820    2.2528 S   0  0  0  0  0  0  0  0  0  0  0  0
    3.9467    1.6770    1.1728 C   0  0  0  0  0  0  0  0  0  0  0  0
    3.1679    2.6311    1.8718 C   0  0  0  0  0  0  0  0  0  0  0  0
    3.8085    2.5207    3.4313 S   0  0  0  0  0  0  0  0  0  0  0  0
    1.8227    3.0151    1.3110 C   0  0  0  0  0  0  0  0  0  0  0  0
    0.7472    2.7221    2.1528 C   0  0  0  0  0  0  0  0  0  0  0  0
    0.9704    2.5837    3.4845 F   0  0  0  0  0  0  0  0  0  0  0  0
   -0.5232    2.5855    1.6121 C   0  0  0  0  0  0  0  0  0  0  0  0
   -1.5946    2.3064    2.3917 F   0  0  0  0  0  0  0  0  0  0  0  0
   -0.6858    2.7402    0.2528 C   0  0  0  0  0  0  0  0  0  0  0  0
    0.3708    3.0596   -0.5848 C   0  0  0  0  0  0  0  0  0  0  0  0
    0.1514    3.4121   -1.8559 N   0  0  0  0  0  0  0  0  0  0  0  0
    1.1836    3.9396   -2.6076 C   0  0  0  0  0  0  0  0  0  0  0  0
    0.8714    4.3284   -4.0086 C   0  0  0  0  0  0  0  0  0  0  0  0
   -0.6096    4.5544   -4.1548 C   0  0  0  0  0  0  0  0  0  0  0  0
    2.4297    4.0987   -2.0635 C   0  0  0  0  0  0  0  0  0  0  0  0
    2.6230    3.6986   -0.7326 N   0  0  0  0  0  0  0  0  0  0  0  0
    1.6467    3.1922    0.0097 C   0  0  0  0  0  0  0  0  0  0  0  0
    3.5050    4.8144   -2.7263 C   0  0  0  0  0  0  0  0  0  0  0  0
    4.1791    4.0799   -3.8181 C   0  0  0  0  0  0  0  0  0  0  0  0
   -1.9789    2.2920   -0.3231 C   0  0  0  0  0  0  0  0  0  0  0  0
   -2.0969    1.3734   -1.3314 C   0  0  0  0  0  0  0  0  0  0  0  0
   -1.0385    0.5813   -1.8432 N   0  0  0  0  0  0  0  0  0  0  0  0
   -0.8650   -0.6816   -1.0490 C   0  0  0  0  0  0  0  0  0  0  0  0
   -0.6438   -1.8408   -1.7299 C   0  0  0  0  0  0  0  0  0  0  0  0
   -0.4992   -3.0659   -1.0457 C   0  0  0  0  0  0  0  0  0  0  0  0
   -0.5968   -3.0225    0.3385 C   0  0  0  0  0  0  0  0  0  0  0  0
   -0.4908   -4.4823    1.3791 S   0  0  0  0  0  0  0  0  0  0  0  0
   -2.1944   -5.0953    1.7285 C   0  0  0  0  0  0  0  0  0  0  0  0
   -0.8218   -1.8479    0.9914 C   0  0  0  0  0  0  0  0  0  0  0  0
   -0.9583   -0.6344    0.2759 C   0  0  0  0  0  0  0  0  0  0  0  0
   -0.2517    0.5274   -2.9808 C   0  0  0  0  0  0  0  0  0  0  0  0
    1.1279    0.4270   -2.8061 C   0  0  0  0  0  0  0  0  0  0  0  0
    1.9399    0.0380   -3.8797 C   0  0  0  0  0  0  0  0  0  0  0  0
    1.4401   -0.2510   -5.1021 C   0  0  0  0  0  0  0  0  0  0  0  0
    2.3987   -0.8798   -6.4324 S   0  0  0  0  0  0  0  0  0  0  0  0
    2.9418    0.3248   -7.6431 C   0  0  0  0  0  0  0  0  0  0  0  0
    0.0402   -0.1377   -5.2674 C   0  0  0  0  0  0  0  0  0  0  0  0
   -0.7492    0.2454   -4.2268 C   0  0  0  0  0  0  0  0  0  0  0  0
   -3.4471    1.0264   -1.6210 C   0  0  0  0  0  0  0  0  0  0  0  0
   -4.1989    0.0592   -2.7985 S   0  0  0  0  0  0  0  0  0  0  0  0
   -5.9505    0.3872   -2.3074 C   0  0  0  0  0  0  0  0  0  0  0  0
   -5.7774    1.1600   -1.3237 C   0  0  0  0  0  0  0  0  0  0  0  0
   -6.7931    1.5602   -0.3640 N   0  0  0  0  0  0  0  0  0  0  0  0
   -6.8599    0.6509    0.7723 C   0  0  0  0  0  0  0  0  0  0  0  0
   -6.6425    1.3475    1.9866 C   0  0  0  0  0  0  0  0  0  0  0  0
   -6.6211    0.5972    3.1650 C   0  0  0  0  0  0  0  0  0  0  0  0
   -6.8041   -0.7221    3.1314 C   0  0  0  0  0  0  0  0  0  0  0  0
   -6.6895   -1.7007    4.6349 S   0  0  0  0  0  0  0  0  0  0  0  0
   -5.0368   -2.4271    4.8337 C   0  0  0  0  0  0  0  0  0  0  0  0
   -7.0321   -1.4333    1.9733 C   0  0  0  0  0  0  0  0  0  0  0  0
   -7.0415   -0.6470    0.7859 C   0  0  0  0  0  0  0  0  0  0  0  0
   -7.5951    2.6500   -0.3337 C   0  0  0  0  0  0  0  0  0  0  0  0
   -7.2028    3.9614   -0.5479 C   0  0  0  0  0  0  0  0  0  0  0  0
   -8.0307    5.0431   -0.3909 C   0  0  0  0  0  0  0  0  0  0  0  0
   -9.3297    4.8819   -0.0070 C   0  0  0  0  0  0  0  0  0  0  0  0
  -10.3675    6.2992    0.3006 S   0  0  0  0  0  0  0  0  0  0  0  0
  -10.4460    6.6045    2.0928 C   0  0  0  0  0  0  0  0  0  0  0  0
   -9.7808    3.6064    0.2187 C   0  0  0  0  0  0  0  0  0  0  0  0
   -8.9413    2.5267    0.0618 C   0  0  0  0  0  0  0  0  0  0  0  0
   -4.4241    1.5282   -0.9439 C   0  0  0  0  0  0  0  0  0  0  0  0
   -3.5726    2.5769    0.1547 S   0  0  0  0  0  0  0  0  0  0  0  0
   -6.7925   -0.3004   -3.3371 C   0  0  0  0  0  0  0  0  0  0  0  0
   -6.7363    0.5214   -4.4677 C   0  0  0  0  0  0  0  0  0  0  0  0
   -6.1229    1.8076   -4.6563 C   0  0  0  0  0  0  0  0  0  0  0  0
   -6.2136    2.7059   -3.7447 O   0  0  0  0  0  0  0  0  0  0  0  0
   -5.4357    1.9661   -5.9100 C   0  0  0  0  0  0  0  0  0  0  0  0
   -4.7257    2.9817   -6.4848 C   0  0  0  0  0  0  0  0  0  0  0  0
   -4.1317    2.9173   -7.7040 C   0  0  0  0  0  0  0  0  0  0  0  0
   -4.2679    1.7318   -8.4111 C   0  0  0  0  0  0  0  0  0  0  0  0
   -4.9907    0.6815   -7.8390 C   0  0  0  0  0  0  0  0  0  0  0  0
   -5.5779    0.7756   -6.5949 C   0  0  0  0  0  0  0  0  0  0  0  0
   -6.3738   -0.1614   -5.7518 C   0  0  0  0  0  0  0  0  0  0  0  0
   -6.7203   -1.3982   -6.0962 C   0  0  0  0  0  0  0  0  0  0  0  0
   -7.2616   -2.4158   -5.9325 C   0  0  0  0  0  0  0  0  0  0  0  0
   -7.8865   -3.6297   -5.7233 N   0  0  0  0  0  0  0  0  0  0  0  0
   -5.1742   -1.8405   -6.5934 C   0  0  0  0  0  0  0  0  0  0  0  0
   -4.0360   -2.1446   -6.9521 N   0  0  0  0  0  0  0  0  0  0  0  0
   -3.5122    2.1912   -9.5866 C   0  0  0  0  0  0  0  0  0  0  0  0
   -2.1361    1.6887   -9.7948 C   0  0  0  0  0  0  0  0  0  0  0  0
   -1.5902    1.2430   -8.4811 C   0  0  0  0  0  0  0  0  0  0  0  0
   -1.4934    2.3433   -7.7228 C   0  0  0  0  0  0  0  0  0  0  0  0
   -1.8376    3.5180   -8.5486 C   0  0  0  0  0  0  0  0  0  0  0  0
   -1.3467    3.0140   -9.9319 C   0  0  0  0  0  0  0  0  0  0  0  0
   -3.3300    3.4843   -8.8090 C   0  0  0  0  0  0  0  0  0  0  0  0
    7.5174   -5.1151    3.8966 H   0  0  0  0  0  0  0  0  0  0  0  0
    2.6151   -3.8889    7.5654 H   0  0  0  0  0  0  0  0  0  0  0  0
    3.2777   -8.3593    5.6822 H   0  0  0  0  0  0  0  0  0  0  0  0
    0.8671   -8.5903    7.9869 H   0  0  0  0  0  0  0  0  0  0  0  0
   -0.5335   -8.5153    5.7874 H   0  0  0  0  0  0  0  0  0  0  0  0
    0.2253   -6.3117    4.5919 H   0  0  0  0  0  0  0  0  0  0  0  0
   -1.0108   -4.4231    6.0397 H   0  0  0  0  0  0  0  0  0  0  0  0
   -1.2521   -5.3360    8.4460 H   0  0  0  0  0  0  0  0  0  0  0  0
   -1.3399   -7.9518    8.2553 H   0  0  0  0  0  0  0  0  0  0  0  0
   -2.3868   -7.1038    6.9511 H   0  0  0  0  0  0  0  0  0  0  0  0
    0.8131   -6.4974    9.2014 H   0  0  0  0  0  0  0  0  0  0  0  0
    6.8175   -1.6940    5.6049 H   0  0  0  0  0  0  0  0  0  0  0  0
    7.7317    0.1503    6.1836 H   0  0  0  0  0  0  0  0  0  0  0  0
    7.9635    1.7184    8.0915 H   0  0  0  0  0  0  0  0  0  0  0  0
    4.2453    5.0360    7.3822 H   0  0  0  0  0  0  0  0  0  0  0  0
    4.8530    6.3487    8.4932 H   0  0  0  0  0  0  0  0  0  0  0  0
    5.3113    5.9256    5.7132 H   0  0  0  0  0  0  0  0  0  0  0  0
    6.8383    5.4596    6.4390 H   0  0  0  0  0  0  0  0  0  0  0  0
    6.1594    7.1176    6.7358 H   0  0  0  0  0  0  0  0  0  0  0  0
    4.3927    0.0135   -1.3315 H   0  0  0  0  0  0  0  0  0  0  0  0
    5.3473   -0.8550   -3.2443 H   0  0  0  0  0  0  0  0  0  0  0  0
    6.5238   -4.7838   -3.0467 H   0  0  0  0  0  0  0  0  0  0  0  0
    7.5310   -4.8570   -4.5475 H   0  0  0  0  0  0  0  0  0  0  0  0
    6.0131   -2.4915   -4.8377 H   0  0  0  0  0  0  0  0  0  0  0  0
    5.5470   -4.0497   -5.6491 H   0  0  0  0  0  0  0  0  0  0  0  0
    4.8560   -3.5843   -4.0323 H   0  0  0  0  0  0  0  0  0  0  0  0
    3.7277    1.5738    0.1079 H   0  0  0  0  0  0  0  0  0  0  0  0
    1.3454    5.3552   -4.2503 H   0  0  0  0  0  0  0  0  0  0  0  0
    1.2815    3.6451   -4.7250 H   0  0  0  0  0  0  0  0  0  0  0  0
   -0.9932    4.6080   -5.1675 H   0  0  0  0  0  0  0  0  0  0  0  0
   -0.9114    5.5304   -3.6492 H   0  0  0  0  0  0  0  0  0  0  0  0
   -1.1745    3.7855   -3.5947 H   0  0  0  0  0  0  0  0  0  0  0  0
    4.2678    5.1216   -1.9148 H   0  0  0  0  0  0  0  0  0  0  0  0
    3.1050    5.7748   -3.1642 H   0  0  0  0  0  0  0  0  0  0  0  0
    5.1691    3.6749   -3.4347 H   0  0  0  0  0  0  0  0  0  0  0  0
    4.4246    4.7834   -4.6716 H   0  0  0  0  0  0  0  0  0  0  0  0
    3.5574    3.2498   -4.1858 H   0  0  0  0  0  0  0  0  0  0  0  0
   -0.5638   -1.9160   -2.8083 H   0  0  0  0  0  0  0  0  0  0  0  0
   -0.3194   -3.9969   -1.5364 H   0  0  0  0  0  0  0  0  0  0  0  0
   -2.4945   -4.5484    2.6615 H   0  0  0  0  0  0  0  0  0  0  0  0
   -2.8295   -4.7919    0.8879 H   0  0  0  0  0  0  0  0  0  0  0  0
   -2.2441   -6.1640    1.8927 H   0  0  0  0  0  0  0  0  0  0  0  0
   -0.8986   -1.7869    2.0564 H   0  0  0  0  0  0  0  0  0  0  0  0
   -1.1676    0.1919    0.8884 H   0  0  0  0  0  0  0  0  0  0  0  0
    1.5260    0.6695   -1.8432 H   0  0  0  0  0  0  0  0  0  0  0  0
    3.0314   -0.0260   -3.7324 H   0  0  0  0  0  0  0  0  0  0  0  0
    3.1394    1.3030   -7.1859 H   0  0  0  0  0  0  0  0  0  0  0  0
    2.1484    0.3864   -8.4528 H   0  0  0  0  0  0  0  0  0  0  0  0
    3.8477   -0.1077   -8.1627 H   0  0  0  0  0  0  0  0  0  0  0  0
   -0.3628   -0.3711   -6.2251 H   0  0  0  0  0  0  0  0  0  0  0  0
   -1.8409    0.3678   -4.3453 H   0  0  0  0  0  0  0  0  0  0  0  0
   -6.4983    2.3920    2.0022 H   0  0  0  0  0  0  0  0  0  0  0  0
   -6.4442    1.1819    4.0846 H   0  0  0  0  0  0  0  0  0  0  0  0
   -4.7666   -3.1382    4.0197 H   0  0  0  0  0  0  0  0  0  0  0  0
   -5.0523   -3.0420    5.7450 H   0  0  0  0  0  0  0  0  0  0  0  0
   -4.3035   -1.6262    4.9968 H   0  0  0  0  0  0  0  0  0  0  0  0
   -7.1915   -2.4487    1.9357 H   0  0  0  0  0  0  0  0  0  0  0  0
   -7.2433   -1.1777   -0.1597 H   0  0  0  0  0  0  0  0  0  0  0  0
   -6.1793    4.1016   -0.8630 H   0  0  0  0  0  0  0  0  0  0  0  0
   -7.6532    5.9983   -0.5773 H   0  0  0  0  0  0  0  0  0  0  0  0
   -9.4780    6.4865    2.5902 H   0  0  0  0  0  0  0  0  0  0  0  0
  -11.1269    5.8161    2.5215 H   0  0  0  0  0  0  0  0  0  0  0  0
  -10.8571    7.5945    2.2888 H   0  0  0  0  0  0  0  0  0  0  0  0
  -10.8267    3.4908    0.5247 H   0  0  0  0  0  0  0  0  0  0  0  0
   -9.3093    1.5056    0.2505 H   0  0  0  0  0  0  0  0  0  0  0  0
   -7.2713   -1.1483   -3.1890 H   0  0  0  0  0  0  0  0  0  0  0  0
   -4.6436    3.9030   -5.8918 H   0  0  0  0  0  0  0  0  0  0  0  0
   -5.1092   -0.2307   -8.4027 H   0  0  0  0  0  0  0  0  0  0  0  0
   -4.1715    2.3275  -10.4847 H   0  0  0  0  0  0  0  0  0  0  0  0
   -1.9646    1.0464  -10.6303 H   0  0  0  0  0  0  0  0  0  0  0  0
   -1.3554    0.2257   -8.2930 H   0  0  0  0  0  0  0  0  0  0  0  0
   -1.2129    2.3123   -6.6843 H   0  0  0  0  0  0  0  0  0  0  0  0
   -1.4258    4.4492   -8.2422 H   0  0  0  0  0  0  0  0  0  0  0  0
   -0.2685    2.8591   -9.9086 H   0  0  0  0  0  0  0  0  0  0  0  0
   -1.7153    3.6293  -10.7513 H   0  0  0  0  0  0  0  0  0  0  0  0
   -3.7785    4.4013   -9.2372 H   0  0  0  0  0  0  0  0  0  0  0  0
  1  2  2  3
  2  3  1  0
  3  4  2  0
  3  5  1  0
  5  6  2  0
  6  7  1  0
  7  8  2  0
  8  9  1  0
  9 10  2  0
 10 11  1  0
 11 12  2  3
 12 13  1  0
 13 14  3  0
 12 15  1  0
 15 16  3  0
  8 17  1  0
 17 18  1  0
 18 19  1  0
 19 20  2  0
 20 21  1  0
 21 22  1  0
 21 23  1  0
  1 24  1  0
 24 25  2  0
 25 26  1  0
 26 27  2  0
 27 28  1  0
 28 29  2  0
 29 30  1  0
 30 31  2  0
 31 32  1  0
 32 33  1  0
 33 34  1  0
 31 35  1  0
 27 36  1  0
 36 37  2  0
 37 38  1  0
 38 39  1  0
 39 40  2  0
 40 41  1  0
 41 42  2  0
 42 43  1  0
 43 44  1  0
 44 45  1  0
 42 46  1  0
 38 47  2  0
 47 48  1  0
 37 49  1  0
 49 50  2  0
 50 51  1  0
 50 52  1  0
 52 53  2  0
 53 54  1  0
 53 55  1  0
 55 56  1  0
 55 57  2  0
 57 58  1  0
 58 59  2  0
 59 60  1  0
 60 61  1  0
 61 62  1  0
 60 63  2  0
 63 64  1  0
 64 65  2  0
 63 66  1  0
 66 67  1  0
 57 68  1  0
 68 69  2  0
 69 70  1  0
 70 71  1  0
 71 72  2  0
 72 73  1  0
 73 74  2  0
 74 75  1  0
 75 76  1  0
 74 77  1  0
 77 78  2  0
 70 79  1  0
 79 80  2  0
 80 81  1  0
 81 82  2  0
 82 83  1  0
 83 84  1  0
 82 85  1  0
 85 86  2  0
 69 87  1  0
 87 88  1  0
 88 89  1  0
 89 90  2  0
 90 91  1  0
 91 92  1  0
 92 93  2  0
 93 94  1  0
 94 95  2  0
 95 96  1  0
 96 97  1  0
 95 98  1  0
 98 99  2  0
 91100  1  0
100101  2  0
101102  1  0
102103  2  0
103104  1  0
104105  1  0
103106  1  0
106107  2  0
 90108  1  0
108109  1  0
 89110  1  0
110111  2  3
111112  1  0
112113  2  0
112114  1  0
114115  2  0
115116  1  0
116117  2  0
117118  1  0
118119  2  0
119120  1  0
120121  2  3
121122  1  0
122123  3  0
121124  1  0
124125  3  0
117126  1  0
126127  1  0
127128  1  0
128129  2  0
129130  1  0
130131  1  0
130132  1  0
 11  2  1  0
 23 17  1  0
 48 24  1  0
 65 52  1  0
109 68  1  0
120111  1  0
132126  1  0
 10  5  1  0
 22 18  1  0
 47 26  1  0
 65 58  1  0
 78 71  1  0
 86 79  1  0
108 87  2  0
119114  1  0
131127  1  0
 23  7  1  0
 35 28  1  0
 51 36  1  0
 99 92  1  0
107100  1  0
132116  1  0
 46 39  1  0
  1133  1  0
  6134  1  0
  9135  1  0
 17136  1  0
 18137  1  0
 19138  1  0
 20139  1  0
 21140  1  0
 22141  1  0
 22142  1  0
 23143  1  0
 25144  1  0
 29145  1  0
 30146  1  0
 33147  1  0
 33148  1  0
 34149  1  0
 34150  1  0
 34151  1  0
 40152  1  0
 41153  1  0
 44154  1  0
 44155  1  0
 45156  1  0
 45157  1  0
 45158  1  0
 49159  1  0
 61160  1  0
 61161  1  0
 62162  1  0
 62163  1  0
 62164  1  0
 66165  1  0
 66166  1  0
 67167  1  0
 67168  1  0
 67169  1  0
 72170  1  0
 73171  1  0
 76172  1  0
 76173  1  0
 76174  1  0
 77175  1  0
 78176  1  0
 80177  1  0
 81178  1  0
 84179  1  0
 84180  1  0
 84181  1  0
 85182  1  0
 86183  1  0
 93184  1  0
 94185  1  0
 97186  1  0
 97187  1  0
 97188  1  0
 98189  1  0
 99190  1  0
101191  1  0
102192  1  0
105193  1  0
105194  1  0
105195  1  0
106196  1  0
107197  1  0
110198  1  0
115199  1  0
118200  1  0
126201  1  0
127202  1  0
128203  1  0
129204  1  0
130205  1  0
131206  1  0
131207  1  0
132208  1  0
M  END

