
     RDKit          3D

168186  0  0  0  0  0  0  0  0999 V2000
    0.4699   -5.3526   -3.0073 C   0  0  0  0  0  0  0  0  0  0  0  0
   -0.4184   -5.0937   -3.9847 C   0  0  0  0  0  0  0  0  0  0  0  0
   -0.0431   -5.0443   -5.3974 C   0  0  0  0  0  0  0  0  0  0  0  0
    1.0149   -5.5071   -5.8988 O   0  0  0  0  0  0  0  0  0  0  0  0
   -1.0319   -4.2580   -6.1096 C   0  0  0  0  0  0  0  0  0  0  0  0
   -0.9905   -3.8480   -7.4626 C   0  0  0  0  0  0  0  0  0  0  0  0
   -2.0263   -3.0044   -7.8255 C   0  0  0  0  0  0  0  0  0  0  0  0
   -3.0401   -2.5754   -6.9097 C   0  0  0  0  0  0  0  0  0  0  0  0
   -3.0858   -2.9735   -5.5834 C   0  0  0  0  0  0  0  0  0  0  0  0
   -2.0463   -3.8634   -5.1998 C   0  0  0  0  0  0  0  0  0  0  0  0
   -1.7855   -4.5005   -3.8805 C   0  0  0  0  0  0  0  0  0  0  0  0
   -2.7268   -4.8392   -2.9653 C   0  0  0  0  0  0  0  0  0  0  0  0
   -4.0757   -4.3450   -3.0244 C   0  0  0  0  0  0  0  0  0  0  0  0
   -5.1658   -3.9551   -3.0606 N   0  0  0  0  0  0  0  0  0  0  0  0
   -2.4832   -5.8479   -1.9641 C   0  0  0  0  0  0  0  0  0  0  0  0
   -2.2916   -6.6589   -1.1607 N   0  0  0  0  0  0  0  0  0  0  0  0
   -3.6841   -1.7510   -7.9814 C   0  0  0  0  0  0  0  0  0  0  0  0
   -4.9996   -2.3196   -8.5899 C   0  0  0  0  0  0  0  0  0  0  0  0
   -5.2300   -1.5467   -9.8669 C   0  0  0  0  0  0  0  0  0  0  0  0
   -4.2865   -1.9436  -10.7249 C   0  0  0  0  0  0  0  0  0  0  0  0
   -3.4514   -2.9741  -10.0017 C   0  0  0  0  0  0  0  0  0  0  0  0
   -4.5546   -3.6404   -9.1967 C   0  0  0  0  0  0  0  0  0  0  0  0
   -2.6491   -2.1924   -8.9214 C   0  0  0  0  0  0  0  0  0  0  0  0
    0.3306   -4.8719   -1.6162 C   0  0  0  0  0  0  0  0  0  0  0  0
   -0.2845   -3.3635   -1.1915 S   0  0  0  0  0  0  0  0  0  0  0  0
    0.0078   -3.4762    0.4555 C   0  0  0  0  0  0  0  0  0  0  0  0
    0.6240   -4.7011    0.7108 C   0  0  0  0  0  0  0  0  0  0  0  0
    1.0307   -5.2042    2.0417 C   0  0  0  0  0  0  0  0  0  0  0  0
    0.8367   -4.5073    3.0704 O   0  0  0  0  0  0  0  0  0  0  0  0
    1.6380   -6.5536    2.1323 C   0  0  0  0  0  0  0  0  0  0  0  0
    2.0317   -7.2039    3.3121 C   0  0  0  0  0  0  0  0  0  0  0  0
    2.0201   -6.6713    4.7174 C   0  0  0  0  0  0  0  0  0  0  0  0
    3.2521   -5.8092    4.9835 C   0  0  0  0  0  0  0  0  0  0  0  0
    2.6120   -8.7269    2.9034 S   0  0  0  0  0  0  0  0  0  0  0  0
    2.3806   -8.5956    1.2409 C   0  0  0  0  0  0  0  0  0  0  0  0
    2.6409   -9.7163    0.2794 C   0  0  0  0  0  0  0  0  0  0  0  0
    1.3479  -10.4477   -0.0751 C   0  0  0  0  0  0  0  0  0  0  0  0
    1.8312   -7.3344    0.9693 C   0  0  0  0  0  0  0  0  0  0  0  0
    1.4502   -6.8145   -0.3663 C   0  0  0  0  0  0  0  0  0  0  0  0
    1.6521   -7.4943   -1.4068 O   0  0  0  0  0  0  0  0  0  0  0  0
    0.8183   -5.4795   -0.4512 C   0  0  0  0  0  0  0  0  0  0  0  0
   -0.2139   -2.3544    1.3695 C   0  0  0  0  0  0  0  0  0  0  0  0
    0.7890   -1.5205    1.8948 C   0  0  0  0  0  0  0  0  0  0  0  0
    2.1908   -1.8414    1.9508 N   0  0  0  0  0  0  0  0  0  0  0  0
    2.9089   -1.6523    3.1914 C   0  0  0  0  0  0  0  0  0  0  0  0
    4.2339   -1.1803    3.1843 C   0  0  0  0  0  0  0  0  0  0  0  0
    4.9207   -0.9791    4.3825 C   0  0  0  0  0  0  0  0  0  0  0  0
    4.2953   -1.2437    5.6044 C   0  0  0  0  0  0  0  0  0  0  0  0
    5.1661   -0.9478    7.1437 S   0  0  0  0  0  0  0  0  0  0  0  0
    4.6208    0.7853    7.2565 C   0  0  0  0  0  0  0  0  0  0  0  0
    2.9805   -1.7166    5.6254 C   0  0  0  0  0  0  0  0  0  0  0  0
    2.2887   -1.9155    4.4275 C   0  0  0  0  0  0  0  0  0  0  0  0
    2.8878   -2.2832    0.7683 C   0  0  0  0  0  0  0  0  0  0  0  0
    2.7100   -1.6132   -0.4558 C   0  0  0  0  0  0  0  0  0  0  0  0
    3.4493   -1.9925   -1.5784 C   0  0  0  0  0  0  0  0  0  0  0  0
    4.3675   -3.0469   -1.4917 C   0  0  0  0  0  0  0  0  0  0  0  0
    5.3853   -3.4687   -2.9055 S   0  0  0  0  0  0  0  0  0  0  0  0
    6.7152   -2.3118   -2.4393 C   0  0  0  0  0  0  0  0  0  0  0  0
    4.5208   -3.7425   -0.2869 C   0  0  0  0  0  0  0  0  0  0  0  0
    3.7862   -3.3625    0.8382 C   0  0  0  0  0  0  0  0  0  0  0  0
    0.2556   -0.3075    2.3303 C   0  0  0  0  0  0  0  0  0  0  0  0
    0.9461    1.1829    2.6548 S   0  0  0  0  0  0  0  0  0  0  0  0
   -0.5362    2.0266    2.6673 C   0  0  0  0  0  0  0  0  0  0  0  0
   -1.5977    1.1166    2.4497 C   0  0  0  0  0  0  0  0  0  0  0  0
   -3.0047    1.4431    2.5640 N   0  0  0  0  0  0  0  0  0  0  0  0
   -3.9996    0.5131    2.1124 C   0  0  0  0  0  0  0  0  0  0  0  0
   -4.5695   -0.3930    3.0232 C   0  0  0  0  0  0  0  0  0  0  0  0
   -5.5020   -1.3333    2.5848 C   0  0  0  0  0  0  0  0  0  0  0  0
   -5.8842   -1.3661    1.2374 C   0  0  0  0  0  0  0  0  0  0  0  0
   -7.0670   -2.5908    0.6763 S   0  0  0  0  0  0  0  0  0  0  0  0
   -8.5120   -1.5623    1.0913 C   0  0  0  0  0  0  0  0  0  0  0  0
   -5.3286   -0.4540    0.3284 C   0  0  0  0  0  0  0  0  0  0  0  0
   -4.3851    0.4834    0.7625 C   0  0  0  0  0  0  0  0  0  0  0  0
   -3.4597    2.4882    3.4471 C   0  0  0  0  0  0  0  0  0  0  0  0
   -2.8734    2.6722    4.7142 C   0  0  0  0  0  0  0  0  0  0  0  0
   -3.3181    3.6963    5.5556 C   0  0  0  0  0  0  0  0  0  0  0  0
   -4.3601    4.5359    5.1483 C   0  0  0  0  0  0  0  0  0  0  0  0
   -4.9239    5.8524    6.2235 S   0  0  0  0  0  0  0  0  0  0  0  0
   -3.8108    7.0896    5.4881 C   0  0  0  0  0  0  0  0  0  0  0  0
   -4.9653    4.3446    3.9017 C   0  0  0  0  0  0  0  0  0  0  0  0
   -4.5208    3.3240    3.0578 C   0  0  0  0  0  0  0  0  0  0  0  0
   -1.0917   -0.1704    2.2110 C   0  0  0  0  0  0  0  0  0  0  0  0
   -1.7098   -1.5580    1.4907 S   0  0  0  0  0  0  0  0  0  0  0  0
   -0.6030    3.4905    2.5144 C   0  0  0  0  0  0  0  0  0  0  0  0
    0.5824    4.5709    3.0691 S   0  0  0  0  0  0  0  0  0  0  0  0
   -0.0465    5.8965    2.2547 C   0  0  0  0  0  0  0  0  0  0  0  0
    0.4511    7.1796    2.1164 C   0  0  0  0  0  0  0  0  0  0  0  0
   -0.1772    8.0492    1.2371 C   0  0  0  0  0  0  0  0  0  0  0  0
   -1.2743    7.6885    0.5676 O   0  0  0  0  0  0  0  0  0  0  0  0
   -1.7921    6.4585    0.6821 C   0  0  0  0  0  0  0  0  0  0  0  0
   -2.8189    6.1465    0.0243 O   0  0  0  0  0  0  0  0  0  0  0  0
   -1.1660    5.5193    1.5274 C   0  0  0  0  0  0  0  0  0  0  0  0
   -1.4889    4.1665    1.6691 C   0  0  0  0  0  0  0  0  0  0  0  0
    0.4776    9.2710    1.0950 C   0  0  0  0  0  0  0  0  0  0  0  0
    1.6430    9.3297    1.8640 C   0  0  0  0  0  0  0  0  0  0  0  0
    1.8445    7.8880    2.7331 S   0  0  0  0  0  0  0  0  0  0  0  0
    2.6245   10.4188    1.8091 C   0  0  0  0  0  0  0  0  0  0  0  0
    3.3156   10.7082    0.6884 C   0  0  0  0  0  0  0  0  0  0  0  0
    3.4484    9.8185   -0.4771 C   0  0  0  0  0  0  0  0  0  0  0  0
    2.8333    8.7375   -0.6702 O   0  0  0  0  0  0  0  0  0  0  0  0
    4.5100   10.3238   -1.3171 C   0  0  0  0  0  0  0  0  0  0  0  0
    5.0383    9.7450   -2.4715 C   0  0  0  0  0  0  0  0  0  0  0  0
    6.1280   10.3681   -3.0899 C   0  0  0  0  0  0  0  0  0  0  0  0
    6.6808   11.5356   -2.5385 C   0  0  0  0  0  0  0  0  0  0  0  0
    7.7570   12.1119   -3.1259 F   0  0  0  0  0  0  0  0  0  0  0  0
    6.1440   12.0923   -1.3653 C   0  0  0  0  0  0  0  0  0  0  0  0
    5.0288   11.4816   -0.7658 C   0  0  0  0  0  0  0  0  0  0  0  0
    4.2696   11.8400    0.4694 C   0  0  0  0  0  0  0  0  0  0  0  0
    4.2655   13.0429    1.1061 C   0  0  0  0  0  0  0  0  0  0  0  0
    3.3025   13.3697    2.1259 C   0  0  0  0  0  0  0  0  0  0  0  0
    2.5287   13.6481    2.9418 N   0  0  0  0  0  0  0  0  0  0  0  0
    5.0948   14.1433    0.6895 C   0  0  0  0  0  0  0  0  0  0  0  0
    5.7477   15.0413    0.3621 N   0  0  0  0  0  0  0  0  0  0  0  0
    1.4239   -5.7866   -3.2785 H   0  0  0  0  0  0  0  0  0  0  0  0
   -0.2038   -4.1373   -8.1469 H   0  0  0  0  0  0  0  0  0  0  0  0
   -3.8395   -2.5914   -4.9139 H   0  0  0  0  0  0  0  0  0  0  0  0
   -3.6823   -0.6592   -7.7662 H   0  0  0  0  0  0  0  0  0  0  0  0
   -5.8689   -2.3710   -7.8998 H   0  0  0  0  0  0  0  0  0  0  0  0
   -6.0496   -0.8689  -10.0940 H   0  0  0  0  0  0  0  0  0  0  0  0
   -4.2122   -1.6493  -11.7684 H   0  0  0  0  0  0  0  0  0  0  0  0
   -2.8548   -3.6422  -10.6564 H   0  0  0  0  0  0  0  0  0  0  0  0
   -5.3346   -4.1222   -9.8363 H   0  0  0  0  0  0  0  0  0  0  0  0
   -4.1916   -4.3861   -8.4549 H   0  0  0  0  0  0  0  0  0  0  0  0
   -1.9895   -1.3828   -9.3050 H   0  0  0  0  0  0  0  0  0  0  0  0
    2.0205   -7.5225    5.4312 H   0  0  0  0  0  0  0  0  0  0  0  0
    1.0967   -6.0937    4.9109 H   0  0  0  0  0  0  0  0  0  0  0  0
    3.2981   -4.9625    4.2652 H   0  0  0  0  0  0  0  0  0  0  0  0
    3.2059   -5.4003    6.0152 H   0  0  0  0  0  0  0  0  0  0  0  0
    4.1741   -6.4189    4.8879 H   0  0  0  0  0  0  0  0  0  0  0  0
    3.3476  -10.4410    0.7373 H   0  0  0  0  0  0  0  0  0  0  0  0
    3.1249   -9.3279   -0.6394 H   0  0  0  0  0  0  0  0  0  0  0  0
    0.6129   -9.7530   -0.5347 H   0  0  0  0  0  0  0  0  0  0  0  0
    0.8952  -10.8971    0.8375 H   0  0  0  0  0  0  0  0  0  0  0  0
    1.5708  -11.2574   -0.8007 H   0  0  0  0  0  0  0  0  0  0  0  0
    4.7300   -0.9455    2.2496 H   0  0  0  0  0  0  0  0  0  0  0  0
    5.9386   -0.6015    4.3608 H   0  0  0  0  0  0  0  0  0  0  0  0
    3.5179    0.8313    7.3769 H   0  0  0  0  0  0  0  0  0  0  0  0
    5.0990    1.2603    8.1384 H   0  0  0  0  0  0  0  0  0  0  0  0
    4.9150    1.3442    6.3430 H   0  0  0  0  0  0  0  0  0  0  0  0
    2.4897   -1.9197    6.5705 H   0  0  0  0  0  0  0  0  0  0  0  0
    1.2698   -2.2790    4.4684 H   0  0  0  0  0  0  0  0  0  0  0  0
    2.0254   -0.7776   -0.5279 H   0  0  0  0  0  0  0  0  0  0  0  0
    3.3256   -1.4531   -2.5112 H   0  0  0  0  0  0  0  0  0  0  0  0
    6.3279   -1.2712   -2.4260 H   0  0  0  0  0  0  0  0  0  0  0  0
    7.1167   -2.5735   -1.4373 H   0  0  0  0  0  0  0  0  0  0  0  0
    7.5342   -2.3806   -3.1844 H   0  0  0  0  0  0  0  0  0  0  0  0
    5.2220   -4.5641   -0.2179 H   0  0  0  0  0  0  0  0  0  0  0  0
    3.9227   -3.9014    1.7684 H   0  0  0  0  0  0  0  0  0  0  0  0
   -4.2735   -0.3791    4.0659 H   0  0  0  0  0  0  0  0  0  0  0  0
   -5.9239   -2.0387    3.2908 H   0  0  0  0  0  0  0  0  0  0  0  0
   -9.4388   -2.1408    0.8965 H   0  0  0  0  0  0  0  0  0  0  0  0
   -8.4848   -1.2813    2.1652 H   0  0  0  0  0  0  0  0  0  0  0  0
   -8.5233   -0.6428    0.4677 H   0  0  0  0  0  0  0  0  0  0  0  0
   -5.6191   -0.4776   -0.7151 H   0  0  0  0  0  0  0  0  0  0  0  0
   -3.9460    1.1798    0.0592 H   0  0  0  0  0  0  0  0  0  0  0  0
   -2.0719    2.0236    5.0484 H   0  0  0  0  0  0  0  0  0  0  0  0
   -2.8561    3.8359    6.5251 H   0  0  0  0  0  0  0  0  0  0  0  0
   -3.9699    8.0656    5.9925 H   0  0  0  0  0  0  0  0  0  0  0  0
   -2.7521    6.7814    5.6202 H   0  0  0  0  0  0  0  0  0  0  0  0
   -4.0345    7.2044    4.4061 H   0  0  0  0  0  0  0  0  0  0  0  0
   -5.7742    4.9924    3.5835 H   0  0  0  0  0  0  0  0  0  0  0  0
   -4.9919    3.1955    2.0893 H   0  0  0  0  0  0  0  0  0  0  0  0
   -2.2776    3.6827    1.1091 H   0  0  0  0  0  0  0  0  0  0  0  0
    0.1544   10.0547    0.4200 H   0  0  0  0  0  0  0  0  0  0  0  0
    2.7948   10.9645    2.7232 H   0  0  0  0  0  0  0  0  0  0  0  0
    4.6332    8.8262   -2.8694 H   0  0  0  0  0  0  0  0  0  0  0  0
    6.5587    9.9336   -3.9840 H   0  0  0  0  0  0  0  0  0  0  0  0
    6.6278   12.9554   -0.9404 H   0  0  0  0  0  0  0  0  0  0  0  0
  1  2  2  3
  2  3  1  0
  3  4  2  0
  3  5  1  0
  5  6  2  0
  6  7  1  0
  7  8  2  0
  8  9  1  0
  9 10  2  0
 10 11  1  0
 11 12  2  3
 12 13  1  0
 13 14  3  0
 12 15  1  0
 15 16  3  0
  8 17  1  0
 17 18  1  0
 18 19  1  0
 19 20  2  0
 20 21  1  0
 21 22  1  0
 21 23  1  0
  1 24  1  0
 24 25  1  0
 25 26  1  0
 26 27  2  0
 27 28  1  0
 28 29  2  0
 28 30  1  0
 30 31  2  0
 31 32  1  0
 32 33  1  0
 31 34  1  0
 34 35  1  0
 35 36  1  0
 36 37  1  0
 35 38  2  0
 38 39  1  0
 39 40  2  0
 39 41  1  0
 26 42  1  0
 42 43  2  0
 43 44  1  0
 44 45  1  0
 45 46  2  0
 46 47  1  0
 47 48  2  0
 48 49  1  0
 49 50  1  0
 48 51  1  0
 51 52  2  0
 44 53  1  0
 53 54  2  0
 54 55  1  0
 55 56  2  0
 56 57  1  0
 57 58  1  0
 56 59  1  0
 59 60  2  0
 43 61  1  0
 61 62  1  0
 62 63  1  0
 63 64  2  0
 64 65  1  0
 65 66  1  0
 66 67  2  0
 67 68  1  0
 68 69  2  0
 69 70  1  0
 70 71  1  0
 69 72  1  0
 72 73  2  0
 65 74  1  0
 74 75  2  0
 75 76  1  0
 76 77  2  0
 77 78  1  0
 78 79  1  0
 77 80  1  0
 80 81  2  0
 64 82  1  0
 82 83  1  0
 63 84  1  0
 84 85  1  0
 85 86  1  0
 86 87  1  0
 87 88  2  0
 88 89  1  0
 89 90  1  0
 90 91  2  0
 90 92  1  0
 92 93  1  0
 88 94  1  0
 94 95  2  0
 95 96  1  0
 95 97  1  0
 97 98  2  3
 98 99  1  0
 99100  2  0
 99101  1  0
101102  2  0
102103  1  0
103104  2  0
104105  1  0
104106  1  0
106107  2  0
107108  1  0
108109  2  3
109110  1  0
110111  3  0
109112  1  0
112113  3  0
 11  2  1  0
 23 17  1  0
 41 24  2  0
 83 42  1  0
 93 84  2  0
108 98  1  0
 10  5  1  0
 22 18  1  0
 41 27  1  0
 52 45  1  0
 60 53  1  0
 82 61  2  0
 92 86  2  0
107101  1  0
 23  7  1  0
 38 30  1  0
 73 66  1  0
 81 74  1  0
 96 87  1  0
  1114  1  0
  6115  1  0
  9116  1  0
 17117  1  0
 18118  1  0
 19119  1  0
 20120  1  0
 21121  1  0
 22122  1  0
 22123  1  0
 23124  1  0
 32125  1  0
 32126  1  0
 33127  1  0
 33128  1  0
 33129  1  0
 36130  1  0
 36131  1  0
 37132  1  0
 37133  1  0
 37134  1  0
 46135  1  0
 47136  1  0
 50137  1  0
 50138  1  0
 50139  1  0
 51140  1  0
 52141  1  0
 54142  1  0
 55143  1  0
 58144  1  0
 58145  1  0
 58146  1  0
 59147  1  0
 60148  1  0
 67149  1  0
 68150  1  0
 71151  1  0
 71152  1  0
 71153  1  0
 72154  1  0
 73155  1  0
 75156  1  0
 76157  1  0
 79158  1  0
 79159  1  0
 79160  1  0
 80161  1  0
 81162  1  0
 93163  1  0
 94164  1  0
 97165  1  0
102166  1  0
103167  1  0
106168  1  0
M  END

