
     RDKit          3D

230250  0  0  0  0  0  0  0  0999 V2000
   -4.3074   -0.1452   -3.7689 C   0  0  0  0  0  0  0  0  0  0  0  0
   -4.9543    0.4691   -2.7453 C   0  0  0  0  0  0  0  0  0  0  0  0
   -4.9241    0.1051   -1.3131 C   0  0  0  0  0  0  0  0  0  0  0  0
   -4.3624   -0.8910   -0.7908 O   0  0  0  0  0  0  0  0  0  0  0  0
   -5.7140    1.0473   -0.5690 C   0  0  0  0  0  0  0  0  0  0  0  0
   -5.8304    1.1646    0.8352 C   0  0  0  0  0  0  0  0  0  0  0  0
   -6.5259    2.2830    1.2420 C   0  0  0  0  0  0  0  0  0  0  0  0
   -7.1084    3.2275    0.3386 C   0  0  0  0  0  0  0  0  0  0  0  0
   -6.9805    3.1310   -1.0350 C   0  0  0  0  0  0  0  0  0  0  0  0
   -6.3085    1.9754   -1.4576 C   0  0  0  0  0  0  0  0  0  0  0  0
   -5.8801    1.6478   -2.8343 C   0  0  0  0  0  0  0  0  0  0  0  0
   -6.2986    2.2494   -3.9536 C   0  0  0  0  0  0  0  0  0  0  0  0
   -5.4135    3.2769   -4.4973 C   0  0  0  0  0  0  0  0  0  0  0  0
   -4.7489    4.1338   -4.9312 N   0  0  0  0  0  0  0  0  0  0  0  0
   -7.7118    2.5151   -4.1156 C   0  0  0  0  0  0  0  0  0  0  0  0
   -8.8569    2.6895   -4.1709 N   0  0  0  0  0  0  0  0  0  0  0  0
   -7.6022    4.0723    1.4737 C   0  0  0  0  0  0  0  0  0  0  0  0
   -6.8364    5.3992    1.7954 C   0  0  0  0  0  0  0  0  0  0  0  0
   -7.2467    5.7911    3.1874 C   0  0  0  0  0  0  0  0  0  0  0  0
   -6.6835    4.9028    4.0180 C   0  0  0  0  0  0  0  0  0  0  0  0
   -5.9143    3.9441    3.1500 C   0  0  0  0  0  0  0  0  0  0  0  0
   -5.4338    4.9410    2.1091 C   0  0  0  0  0  0  0  0  0  0  0  0
   -7.0000    3.1089    2.4055 C   0  0  0  0  0  0  0  0  0  0  0  0
   -3.2117   -1.1205   -3.5512 C   0  0  0  0  0  0  0  0  0  0  0  0
   -3.3037   -2.3431   -2.8346 C   0  0  0  0  0  0  0  0  0  0  0  0
   -4.1770   -3.3989   -3.3360 N   0  0  0  0  0  0  0  0  0  0  0  0
   -3.6839   -4.2759   -4.4132 C   0  0  0  0  0  0  0  0  0  0  0  0
   -2.3217   -4.2564   -4.8054 C   0  0  0  0  0  0  0  0  0  0  0  0
   -1.9362   -4.7223   -6.0656 C   0  0  0  0  0  0  0  0  0  0  0  0
   -2.8987   -5.1296   -6.9831 C   0  0  0  0  0  0  0  0  0  0  0  0
   -2.4386   -5.5072   -8.6784 S   0  0  0  0  0  0  0  0  0  0  0  0
   -2.5408   -3.7604   -9.2083 C   0  0  0  0  0  0  0  0  0  0  0  0
   -4.2128   -5.3377   -6.5546 C   0  0  0  0  0  0  0  0  0  0  0  0
   -4.6024   -4.8844   -5.2880 C   0  0  0  0  0  0  0  0  0  0  0  0
   -5.5900   -3.0923   -3.3382 C   0  0  0  0  0  0  0  0  0  0  0  0
   -6.4344   -3.5245   -2.2996 C   0  0  0  0  0  0  0  0  0  0  0  0
   -7.8264   -3.3862   -2.4308 C   0  0  0  0  0  0  0  0  0  0  0  0
   -8.3872   -2.8078   -3.5756 C   0  0  0  0  0  0  0  0  0  0  0  0
  -10.1704   -2.7775   -3.7899 S   0  0  0  0  0  0  0  0  0  0  0  0
  -10.3286   -0.9863   -4.1704 C   0  0  0  0  0  0  0  0  0  0  0  0
   -7.5452   -2.3856   -4.6097 C   0  0  0  0  0  0  0  0  0  0  0  0
   -6.1690   -2.4824   -4.4687 C   0  0  0  0  0  0  0  0  0  0  0  0
   -2.0905   -2.5710   -2.1578 C   0  0  0  0  0  0  0  0  0  0  0  0
   -1.5041   -3.6370   -0.9761 S   0  0  0  0  0  0  0  0  0  0  0  0
    0.0853   -2.9587   -0.9538 C   0  0  0  0  0  0  0  0  0  0  0  0
    0.1429   -1.9422   -1.9217 C   0  0  0  0  0  0  0  0  0  0  0  0
    1.3582   -1.6154   -2.6183 N   0  0  0  0  0  0  0  0  0  0  0  0
    1.7437   -2.5281   -3.6750 C   0  0  0  0  0  0  0  0  0  0  0  0
    2.1801   -3.8201   -3.3763 C   0  0  0  0  0  0  0  0  0  0  0  0
    2.5237   -4.7101   -4.3967 C   0  0  0  0  0  0  0  0  0  0  0  0
    2.4884   -4.2800   -5.7360 C   0  0  0  0  0  0  0  0  0  0  0  0
    3.0829   -5.3697   -7.0316 S   0  0  0  0  0  0  0  0  0  0  0  0
    1.4389   -6.0807   -7.3958 C   0  0  0  0  0  0  0  0  0  0  0  0
    2.0898   -2.9712   -6.0331 C   0  0  0  0  0  0  0  0  0  0  0  0
    1.7005   -2.1018   -5.0060 C   0  0  0  0  0  0  0  0  0  0  0  0
    2.0042   -0.3349   -2.5157 C   0  0  0  0  0  0  0  0  0  0  0  0
    1.2945    0.8155   -2.1139 C   0  0  0  0  0  0  0  0  0  0  0  0
    1.9163    2.0734   -2.1659 C   0  0  0  0  0  0  0  0  0  0  0  0
    3.2479    2.1828   -2.5696 C   0  0  0  0  0  0  0  0  0  0  0  0
    4.0379    3.7866   -2.7407 S   0  0  0  0  0  0  0  0  0  0  0  0
    3.5656    3.9729   -4.4966 C   0  0  0  0  0  0  0  0  0  0  0  0
    3.9790    1.0338   -2.8689 C   0  0  0  0  0  0  0  0  0  0  0  0
    3.3700   -0.2152   -2.8326 C   0  0  0  0  0  0  0  0  0  0  0  0
   -1.0931   -1.7212   -2.4956 C   0  0  0  0  0  0  0  0  0  0  0  0
   -1.6145   -0.5354   -3.5389 S   0  0  0  0  0  0  0  0  0  0  0  0
    1.1367   -3.1022    0.0995 C   0  0  0  0  0  0  0  0  0  0  0  0
    1.2492   -3.9537    1.2130 C   0  0  0  0  0  0  0  0  0  0  0  0
    0.3725   -5.1470    1.4414 C   0  0  0  0  0  0  0  0  0  0  0  0
    0.2988   -6.1846    0.4607 C   0  0  0  0  0  0  0  0  0  0  0  0
   -0.7126   -7.1641    0.5816 C   0  0  0  0  0  0  0  0  0  0  0  0
   -1.5170   -7.2356    1.7146 C   0  0  0  0  0  0  0  0  0  0  0  0
   -2.5254   -8.3603    1.8435 C   0  0  0  0  0  0  0  0  0  0  0  0
   -1.8461   -9.6294    2.3339 C   0  0  0  0  0  0  0  0  0  0  0  0
   -1.3509   -6.3056    2.7360 C   0  0  0  0  0  0  0  0  0  0  0  0
   -0.4305   -5.2428    2.6256 C   0  0  0  0  0  0  0  0  0  0  0  0
   -0.4404   -4.2043    3.7398 C   0  0  0  0  0  0  0  0  0  0  0  0
   -1.2935   -2.9988    3.3612 C   0  0  0  0  0  0  0  0  0  0  0  0
    1.1994   -6.2154   -0.7740 C   0  0  0  0  0  0  0  0  0  0  0  0
    1.7247   -7.6005   -1.1758 C   0  0  0  0  0  0  0  0  0  0  0  0
    2.2406   -3.5232    2.1222 C   0  0  0  0  0  0  0  0  0  0  0  0
    2.8760   -2.3411    1.7924 C   0  0  0  0  0  0  0  0  0  0  0  0
    2.2565   -1.8616    0.3156 S   0  0  0  0  0  0  0  0  0  0  0  0
    3.3330   -1.2980    2.7270 C   0  0  0  0  0  0  0  0  0  0  0  0
    4.4964   -0.5180    2.5425 C   0  0  0  0  0  0  0  0  0  0  0  0
    5.7769   -1.0141    2.0533 N   0  0  0  0  0  0  0  0  0  0  0  0
    5.9330   -2.3566    1.5613 C   0  0  0  0  0  0  0  0  0  0  0  0
    6.3747   -2.5728    0.2423 C   0  0  0  0  0  0  0  0  0  0  0  0
    6.7422   -3.8563   -0.1719 C   0  0  0  0  0  0  0  0  0  0  0  0
    6.6077   -4.9463    0.7025 C   0  0  0  0  0  0  0  0  0  0  0  0
    7.1782   -6.5710    0.2203 S   0  0  0  0  0  0  0  0  0  0  0  0
    5.6709   -7.0132   -0.7080 C   0  0  0  0  0  0  0  0  0  0  0  0
    6.1216   -4.7348    1.9967 C   0  0  0  0  0  0  0  0  0  0  0  0
    5.7867   -3.4503    2.4235 C   0  0  0  0  0  0  0  0  0  0  0  0
    6.9852   -0.3367    2.4696 C   0  0  0  0  0  0  0  0  0  0  0  0
    7.1993   -0.0334    3.8315 C   0  0  0  0  0  0  0  0  0  0  0  0
    8.3132    0.7088    4.2296 C   0  0  0  0  0  0  0  0  0  0  0  0
    9.2632    1.1112    3.2803 C   0  0  0  0  0  0  0  0  0  0  0  0
   10.7194    2.0171    3.7901 S   0  0  0  0  0  0  0  0  0  0  0  0
    9.9834    3.6664    3.5167 C   0  0  0  0  0  0  0  0  0  0  0  0
    9.0763    0.7783    1.9345 C   0  0  0  0  0  0  0  0  0  0  0  0
    7.9413    0.0732    1.5306 C   0  0  0  0  0  0  0  0  0  0  0  0
    4.2967    0.8110    2.9531 C   0  0  0  0  0  0  0  0  0  0  0  0
    5.1731    2.2333    2.7431 S   0  0  0  0  0  0  0  0  0  0  0  0
    3.9436    3.2661    3.3238 C   0  0  0  0  0  0  0  0  0  0  0  0
    2.8003    2.4712    3.6494 C   0  0  0  0  0  0  0  0  0  0  0  0
    1.5038    2.9838    4.0310 N   0  0  0  0  0  0  0  0  0  0  0  0
    1.4543    3.9204    5.1229 C   0  0  0  0  0  0  0  0  0  0  0  0
    1.4514    3.4506    6.4426 C   0  0  0  0  0  0  0  0  0  0  0  0
    1.1871    4.3348    7.5060 C   0  0  0  0  0  0  0  0  0  0  0  0
    0.9207    5.6826    7.2506 C   0  0  0  0  0  0  0  0  0  0  0  0
    0.5447    6.7977    8.5996 S   0  0  0  0  0  0  0  0  0  0  0  0
   -1.2697    6.5696    8.5070 C   0  0  0  0  0  0  0  0  0  0  0  0
    0.9569    6.1620    5.9357 C   0  0  0  0  0  0  0  0  0  0  0  0
    1.2102    5.2814    4.8783 C   0  0  0  0  0  0  0  0  0  0  0  0
    0.3177    2.7713    3.2053 C   0  0  0  0  0  0  0  0  0  0  0  0
    0.3947    2.1622    1.9347 C   0  0  0  0  0  0  0  0  0  0  0  0
   -0.5692    2.4336    0.9660 C   0  0  0  0  0  0  0  0  0  0  0  0
   -1.6804    3.2140    1.2804 C   0  0  0  0  0  0  0  0  0  0  0  0
   -2.6944    3.8454   -0.0549 S   0  0  0  0  0  0  0  0  0  0  0  0
   -2.0734    5.5639    0.0216 C   0  0  0  0  0  0  0  0  0  0  0  0
   -1.8961    3.5964    2.6114 C   0  0  0  0  0  0  0  0  0  0  0  0
   -0.9134    3.3599    3.5704 C   0  0  0  0  0  0  0  0  0  0  0  0
    3.0742    1.1052    3.4527 C   0  0  0  0  0  0  0  0  0  0  0  0
    2.1417   -0.2845    3.4408 S   0  0  0  0  0  0  0  0  0  0  0  0
    4.1085    4.7544    3.2554 C   0  0  0  0  0  0  0  0  0  0  0  0
    3.7103    5.4880    2.1823 C   0  0  0  0  0  0  0  0  0  0  0  0
    2.8411    5.0093    1.1056 C   0  0  0  0  0  0  0  0  0  0  0  0
    2.1717    3.9578    1.0995 O   0  0  0  0  0  0  0  0  0  0  0  0
    2.9007    5.8942   -0.0157 C   0  0  0  0  0  0  0  0  0  0  0  0
    2.0645    5.9473   -1.1212 C   0  0  0  0  0  0  0  0  0  0  0  0
    2.2935    6.9278   -2.0866 C   0  0  0  0  0  0  0  0  0  0  0  0
    1.3592    6.9395   -3.5876 Cl  0  0  0  0  0  0  0  0  0  0  0  0
    3.2526    7.9323   -1.8649 C   0  0  0  0  0  0  0  0  0  0  0  0
    3.9446    7.9806   -0.6409 C   0  0  0  0  0  0  0  0  0  0  0  0
    3.6964    6.9749    0.3058 C   0  0  0  0  0  0  0  0  0  0  0  0
    4.1566    6.8484    1.7187 C   0  0  0  0  0  0  0  0  0  0  0  0
    4.5418    7.8946    2.5053 C   0  0  0  0  0  0  0  0  0  0  0  0
    5.0950    7.7673    3.8248 C   0  0  0  0  0  0  0  0  0  0  0  0
    5.6050    7.7578    4.8798 N   0  0  0  0  0  0  0  0  0  0  0  0
    4.3001    9.2555    2.1065 C   0  0  0  0  0  0  0  0  0  0  0  0
    4.0220   10.3312    1.7344 N   0  0  0  0  0  0  0  0  0  0  0  0
   -4.3907    0.2715   -4.7660 H   0  0  0  0  0  0  0  0  0  0  0  0
   -5.3823    0.4855    1.5396 H   0  0  0  0  0  0  0  0  0  0  0  0
   -7.3165    3.9140   -1.7115 H   0  0  0  0  0  0  0  0  0  0  0  0
   -8.7134    4.1241    1.5484 H   0  0  0  0  0  0  0  0  0  0  0  0
   -6.9328    6.1967    1.0353 H   0  0  0  0  0  0  0  0  0  0  0  0
   -7.8037    6.6729    3.4770 H   0  0  0  0  0  0  0  0  0  0  0  0
   -6.7005    4.9507    5.0919 H   0  0  0  0  0  0  0  0  0  0  0  0
   -5.1199    3.3557    3.6756 H   0  0  0  0  0  0  0  0  0  0  0  0
   -4.9018    4.4793    1.2579 H   0  0  0  0  0  0  0  0  0  0  0  0
   -4.7938    5.7435    2.5261 H   0  0  0  0  0  0  0  0  0  0  0  0
   -7.7258    2.5780    3.0787 H   0  0  0  0  0  0  0  0  0  0  0  0
   -1.5375   -4.0261   -4.1127 H   0  0  0  0  0  0  0  0  0  0  0  0
   -0.8934   -4.6959   -6.3370 H   0  0  0  0  0  0  0  0  0  0  0  0
   -3.3762   -3.2181   -8.7052 H   0  0  0  0  0  0  0  0  0  0  0  0
   -1.5797   -3.2483   -8.9714 H   0  0  0  0  0  0  0  0  0  0  0  0
   -2.7074   -3.7091  -10.3067 H   0  0  0  0  0  0  0  0  0  0  0  0
   -4.9521   -5.7183   -7.2421 H   0  0  0  0  0  0  0  0  0  0  0  0
   -5.6261   -5.1053   -4.9744 H   0  0  0  0  0  0  0  0  0  0  0  0
   -6.0118   -3.9843   -1.4043 H   0  0  0  0  0  0  0  0  0  0  0  0
   -8.4712   -3.7352   -1.6230 H   0  0  0  0  0  0  0  0  0  0  0  0
  -10.5063   -0.8640   -5.2706 H   0  0  0  0  0  0  0  0  0  0  0  0
  -11.2122   -0.5682   -3.6321 H   0  0  0  0  0  0  0  0  0  0  0  0
   -9.4175   -0.3965   -3.8912 H   0  0  0  0  0  0  0  0  0  0  0  0
   -7.9615   -1.9626   -5.5136 H   0  0  0  0  0  0  0  0  0  0  0  0
   -5.5350   -2.1548   -5.2829 H   0  0  0  0  0  0  0  0  0  0  0  0
    2.2902   -4.1247   -2.3554 H   0  0  0  0  0  0  0  0  0  0  0  0
    2.8697   -5.7055   -4.1510 H   0  0  0  0  0  0  0  0  0  0  0  0
    1.5678   -7.0106   -7.9934 H   0  0  0  0  0  0  0  0  0  0  0  0
    0.8939   -6.3376   -6.4545 H   0  0  0  0  0  0  0  0  0  0  0  0
    0.8381   -5.3549   -7.9954 H   0  0  0  0  0  0  0  0  0  0  0  0
    2.1120   -2.6201   -7.0630 H   0  0  0  0  0  0  0  0  0  0  0  0
    1.4015   -1.0958   -5.2551 H   0  0  0  0  0  0  0  0  0  0  0  0
    0.2564    0.7595   -1.8232 H   0  0  0  0  0  0  0  0  0  0  0  0
    1.3452    2.9524   -1.9094 H   0  0  0  0  0  0  0  0  0  0  0  0
    4.0109    4.9116   -4.9007 H   0  0  0  0  0  0  0  0  0  0  0  0
    2.4587    4.0221   -4.5989 H   0  0  0  0  0  0  0  0  0  0  0  0
    3.9569    3.1082   -5.0972 H   0  0  0  0  0  0  0  0  0  0  0  0
    5.0146    1.0995   -3.1667 H   0  0  0  0  0  0  0  0  0  0  0  0
    3.9492   -1.0977   -3.0757 H   0  0  0  0  0  0  0  0  0  0  0  0
   -0.8682   -7.8811   -0.2131 H   0  0  0  0  0  0  0  0  0  0  0  0
   -3.0056   -8.5438    0.8558 H   0  0  0  0  0  0  0  0  0  0  0  0
   -3.3267   -8.0682    2.5512 H   0  0  0  0  0  0  0  0  0  0  0  0
   -1.0017   -9.9027    1.6676 H   0  0  0  0  0  0  0  0  0  0  0  0
   -2.5867  -10.4603    2.3372 H   0  0  0  0  0  0  0  0  0  0  0  0
   -1.4589   -9.4866    3.3655 H   0  0  0  0  0  0  0  0  0  0  0  0
   -1.9664   -6.3930    3.6304 H   0  0  0  0  0  0  0  0  0  0  0  0
    0.5764   -3.8783    4.0148 H   0  0  0  0  0  0  0  0  0  0  0  0
   -0.8380   -4.6495    4.6725 H   0  0  0  0  0  0  0  0  0  0  0  0
   -2.3632   -3.3024    3.3757 H   0  0  0  0  0  0  0  0  0  0  0  0
   -1.0296   -2.6121    2.3551 H   0  0  0  0  0  0  0  0  0  0  0  0
   -1.1545   -2.2008    4.1211 H   0  0  0  0  0  0  0  0  0  0  0  0
    0.6134   -5.7873   -1.6155 H   0  0  0  0  0  0  0  0  0  0  0  0
    2.0850   -5.5663   -0.6156 H   0  0  0  0  0  0  0  0  0  0  0  0
    1.1815   -8.4537   -0.7071 H   0  0  0  0  0  0  0  0  0  0  0  0
    2.8098   -7.6989   -0.9337 H   0  0  0  0  0  0  0  0  0  0  0  0
    1.6315   -7.7159   -2.2878 H   0  0  0  0  0  0  0  0  0  0  0  0
    2.4724   -4.0473    3.0517 H   0  0  0  0  0  0  0  0  0  0  0  0
    6.4899   -1.7398   -0.4500 H   0  0  0  0  0  0  0  0  0  0  0  0
    7.1388   -4.0052   -1.1680 H   0  0  0  0  0  0  0  0  0  0  0  0
    5.7753   -6.6703   -1.7645 H   0  0  0  0  0  0  0  0  0  0  0  0
    5.5494   -8.1209   -0.7002 H   0  0  0  0  0  0  0  0  0  0  0  0
    4.7644   -6.5451   -0.2578 H   0  0  0  0  0  0  0  0  0  0  0  0
    6.0297   -5.5573    2.6845 H   0  0  0  0  0  0  0  0  0  0  0  0
    5.4736   -3.2875    3.4474 H   0  0  0  0  0  0  0  0  0  0  0  0
    6.4664   -0.3302    4.5779 H   0  0  0  0  0  0  0  0  0  0  0  0
    8.4443    0.9530    5.2764 H   0  0  0  0  0  0  0  0  0  0  0  0
    9.3534    3.9435    4.3905 H   0  0  0  0  0  0  0  0  0  0  0  0
   10.8066    4.4085    3.4128 H   0  0  0  0  0  0  0  0  0  0  0  0
    9.3733    3.6905    2.5865 H   0  0  0  0  0  0  0  0  0  0  0  0
    9.8084    1.0850    1.1996 H   0  0  0  0  0  0  0  0  0  0  0  0
    7.8039   -0.1318    0.4762 H   0  0  0  0  0  0  0  0  0  0  0  0
    1.6300    2.3996    6.6576 H   0  0  0  0  0  0  0  0  0  0  0  0
    1.1706    3.9566    8.5269 H   0  0  0  0  0  0  0  0  0  0  0  0
   -1.5313    5.5017    8.3255 H   0  0  0  0  0  0  0  0  0  0  0  0
   -1.7404    6.8839    9.4661 H   0  0  0  0  0  0  0  0  0  0  0  0
   -1.6917    7.2009    7.6916 H   0  0  0  0  0  0  0  0  0  0  0  0
    0.7699    7.2006    5.7148 H   0  0  0  0  0  0  0  0  0  0  0  0
    1.1886    5.6384    3.8594 H   0  0  0  0  0  0  0  0  0  0  0  0
    1.2929    1.6586    1.6082 H   0  0  0  0  0  0  0  0  0  0  0  0
   -0.3939    2.1149   -0.0486 H   0  0  0  0  0  0  0  0  0  0  0  0
   -2.9418    6.2479   -0.0653 H   0  0  0  0  0  0  0  0  0  0  0  0
   -1.3789    5.7512   -0.8305 H   0  0  0  0  0  0  0  0  0  0  0  0
   -1.5153    5.7707    0.9639 H   0  0  0  0  0  0  0  0  0  0  0  0
   -2.7559    4.1950    2.8585 H   0  0  0  0  0  0  0  0  0  0  0  0
   -1.0757    3.7523    4.5669 H   0  0  0  0  0  0  0  0  0  0  0  0
    4.9291    5.1379    3.8333 H   0  0  0  0  0  0  0  0  0  0  0  0
    1.2379    5.2706   -1.2159 H   0  0  0  0  0  0  0  0  0  0  0  0
    3.4318    8.7010   -2.6045 H   0  0  0  0  0  0  0  0  0  0  0  0
    4.6193    8.8115   -0.4488 H   0  0  0  0  0  0  0  0  0  0  0  0
  1  2  2  3
  2  3  1  0
  3  4  2  0
  3  5  1  0
  5  6  2  0
  6  7  1  0
  7  8  2  0
  8  9  1  0
  9 10  2  0
 10 11  1  0
 11 12  2  3
 12 13  1  0
 13 14  3  0
 12 15  1  0
 15 16  3  0
  8 17  1  0
 17 18  1  0
 18 19  1  0
 19 20  2  0
 20 21  1  0
 21 22  1  0
 21 23  1  0
  1 24  1  0
 24 25  2  0
 25 26  1  0
 26 27  1  0
 27 28  2  0
 28 29  1  0
 29 30  2  0
 30 31  1  0
 31 32  1  0
 30 33  1  0
 33 34  2  0
 26 35  1  0
 35 36  2  0
 36 37  1  0
 37 38  2  0
 38 39  1  0
 39 40  1  0
 38 41  1  0
 41 42  2  0
 25 43  1  0
 43 44  1  0
 44 45  1  0
 45 46  2  0
 46 47  1  0
 47 48  1  0
 48 49  2  0
 49 50  1  0
 50 51  2  0
 51 52  1  0
 52 53  1  0
 51 54  1  0
 54 55  2  0
 47 56  1  0
 56 57  2  0
 57 58  1  0
 58 59  2  0
 59 60  1  0
 60 61  1  0
 59 62  1  0
 62 63  2  0
 46 64  1  0
 64 65  1  0
 45 66  1  0
 66 67  2  0
 67 68  1  0
 68 69  2  0
 69 70  1  0
 70 71  2  0
 71 72  1  0
 72 73  1  0
 71 74  1  0
 74 75  2  0
 75 76  1  0
 76 77  1  0
 69 78  1  0
 78 79  1  0
 67 80  1  0
 80 81  2  0
 81 82  1  0
 81 83  1  0
 83 84  2  0
 84 85  1  0
 85 86  1  0
 86 87  2  0
 87 88  1  0
 88 89  2  0
 89 90  1  0
 90 91  1  0
 89 92  1  0
 92 93  2  0
 85 94  1  0
 94 95  2  0
 95 96  1  0
 96 97  2  0
 97 98  1  0
 98 99  1  0
 97100  1  0
100101  2  0
 84102  1  0
102103  1  0
103104  1  0
104105  2  0
105106  1  0
106107  1  0
107108  2  0
108109  1  0
109110  2  0
110111  1  0
111112  1  0
110113  1  0
113114  2  0
106115  1  0
115116  2  0
116117  1  0
117118  2  0
118119  1  0
119120  1  0
118121  1  0
121122  2  0
105123  1  0
123124  1  0
104125  1  0
125126  2  3
126127  1  0
127128  2  0
127129  1  0
129130  2  0
130131  1  0
131132  1  0
131133  2  0
133134  1  0
134135  2  0
135136  1  0
136137  2  3
137138  1  0
138139  3  0
137140  1  0
140141  3  0
 11  2  1  0
 23 17  1  0
 65 24  1  0
 82 66  1  0
124 83  1  0
136126  1  0
 10  5  1  0
 22 18  1  0
 34 27  1  0
 42 35  1  0
 64 43  2  0
 75 68  1  0
 93 86  1  0
101 94  1  0
123102  2  0
135129  1  0
 23  7  1  0
 55 48  1  0
 63 56  1  0
114107  1  0
122115  1  0
  1142  1  0
  6143  1  0
  9144  1  0
 17145  1  0
 18146  1  0
 19147  1  0
 20148  1  0
 21149  1  0
 22150  1  0
 22151  1  0
 23152  1  0
 28153  1  0
 29154  1  0
 32155  1  0
 32156  1  0
 32157  1  0
 33158  1  0
 34159  1  0
 36160  1  0
 37161  1  0
 40162  1  0
 40163  1  0
 40164  1  0
 41165  1  0
 42166  1  0
 49167  1  0
 50168  1  0
 53169  1  0
 53170  1  0
 53171  1  0
 54172  1  0
 55173  1  0
 57174  1  0
 58175  1  0
 61176  1  0
 61177  1  0
 61178  1  0
 62179  1  0
 63180  1  0
 70181  1  0
 72182  1  0
 72183  1  0
 73184  1  0
 73185  1  0
 73186  1  0
 74187  1  0
 76188  1  0
 76189  1  0
 77190  1  0
 77191  1  0
 77192  1  0
 78193  1  0
 78194  1  0
 79195  1  0
 79196  1  0
 79197  1  0
 80198  1  0
 87199  1  0
 88200  1  0
 91201  1  0
 91202  1  0
 91203  1  0
 92204  1  0
 93205  1  0
 95206  1  0
 96207  1  0
 99208  1  0
 99209  1  0
 99210  1  0
100211  1  0
101212  1  0
108213  1  0
109214  1  0
112215  1  0
112216  1  0
112217  1  0
113218  1  0
114219  1  0
116220  1  0
117221  1  0
120222  1  0
120223  1  0
120224  1  0
121225  1  0
122226  1  0
125227  1  0
130228  1  0
133229  1  0
134230  1  0
M  END

