
     RDKit          3D

153170  0  0  0  0  0  0  0  0999 V2000
   -0.1870   -2.3074   -6.5238 C   0  0  0  0  0  0  0  0  0  0  0  0
   -0.5639   -1.0252   -6.7146 C   0  0  0  0  0  0  0  0  0  0  0  0
   -0.6753   -0.0148   -5.6501 C   0  0  0  0  0  0  0  0  0  0  0  0
   -0.2102   -0.0912   -4.4823 O   0  0  0  0  0  0  0  0  0  0  0  0
   -1.4558    1.0918   -6.1359 C   0  0  0  0  0  0  0  0  0  0  0  0
   -1.8968    2.2032   -5.3833 C   0  0  0  0  0  0  0  0  0  0  0  0
   -2.7281    3.0520   -6.0821 C   0  0  0  0  0  0  0  0  0  0  0  0
   -3.1133    2.8297   -7.4453 C   0  0  0  0  0  0  0  0  0  0  0  0
   -2.6840    1.7385   -8.1873 C   0  0  0  0  0  0  0  0  0  0  0  0
   -1.8062    0.8577   -7.4899 C   0  0  0  0  0  0  0  0  0  0  0  0
   -1.1770   -0.4204   -7.9400 C   0  0  0  0  0  0  0  0  0  0  0  0
   -0.9909   -0.8258   -9.2242 C   0  0  0  0  0  0  0  0  0  0  0  0
   -1.4581   -0.0625  -10.3513 C   0  0  0  0  0  0  0  0  0  0  0  0
   -1.8101    0.5432  -11.2683 N   0  0  0  0  0  0  0  0  0  0  0  0
   -0.1656   -1.9585   -9.5593 C   0  0  0  0  0  0  0  0  0  0  0  0
    0.4971   -2.8657   -9.8447 N   0  0  0  0  0  0  0  0  0  0  0  0
   -3.9411    4.0826   -7.4296 C   0  0  0  0  0  0  0  0  0  0  0  0
   -3.3506    5.3219   -8.1672 C   0  0  0  0  0  0  0  0  0  0  0  0
   -4.1368    6.5114   -7.6758 C   0  0  0  0  0  0  0  0  0  0  0  0
   -3.7748    6.7062   -6.4012 C   0  0  0  0  0  0  0  0  0  0  0  0
   -2.7581    5.6393   -6.0757 C   0  0  0  0  0  0  0  0  0  0  0  0
   -2.0503    5.5762   -7.4205 C   0  0  0  0  0  0  0  0  0  0  0  0
   -3.5490    4.3011   -6.0316 C   0  0  0  0  0  0  0  0  0  0  0  0
    0.3000   -2.7792   -5.2151 C   0  0  0  0  0  0  0  0  0  0  0  0
   -0.5707   -3.4374   -4.3349 C   0  0  0  0  0  0  0  0  0  0  0  0
   -0.2627   -3.5600   -2.9562 C   0  0  0  0  0  0  0  0  0  0  0  0
   -1.3189   -4.1014   -2.1563 N   0  0  0  0  0  0  0  0  0  0  0  0
   -2.4348   -4.3454   -3.2725 S   0  0  0  0  0  4  0  0  0  0  0  0
   -1.8850   -3.8798   -4.6978 N   0  0  0  0  0  0  0  0  0  0  0  0
    0.9164   -3.0079   -2.4304 C   0  0  0  0  0  0  0  0  0  0  0  0
    1.8517   -2.4687   -3.3303 C   0  0  0  0  0  0  0  0  0  0  0  0
    3.0514   -1.9726   -2.9342 N   0  0  0  0  0  0  0  0  0  0  0  0
    3.6381   -1.4171   -4.3724 S   0  0  0  0  0  0  0  0  0  0  0  0
    2.4788   -1.7504   -5.5013 N   0  0  0  0  0  0  0  0  0  0  0  0
    1.5474   -2.3579   -4.7211 C   0  0  0  0  0  0  0  0  0  0  0  0
    1.0458   -2.7582   -0.9860 C   0  0  0  0  0  0  0  0  0  0  0  0
    1.0971   -1.4865   -0.3986 C   0  0  0  0  0  0  0  0  0  0  0  0
    0.9283   -0.2329   -1.0852 N   0  0  0  0  0  0  0  0  0  0  0  0
    2.0753    0.5992   -1.3896 C   0  0  0  0  0  0  0  0  0  0  0  0
    3.2953    0.4573   -0.6963 C   0  0  0  0  0  0  0  0  0  0  0  0
    4.3390    1.3624   -0.9043 C   0  0  0  0  0  0  0  0  0  0  0  0
    4.1942    2.4047   -1.8226 C   0  0  0  0  0  0  0  0  0  0  0  0
    5.5013    3.6166   -2.0191 S   0  0  0  0  0  0  0  0  0  0  0  0
    4.7655    4.7660   -0.8113 C   0  0  0  0  0  0  0  0  0  0  0  0
    3.0169    2.5156   -2.5663 C   0  0  0  0  0  0  0  0  0  0  0  0
    1.9650    1.6209   -2.3508 C   0  0  0  0  0  0  0  0  0  0  0  0
   -0.3844    0.3653   -1.0326 C   0  0  0  0  0  0  0  0  0  0  0  0
   -0.5811    1.5915   -0.3705 C   0  0  0  0  0  0  0  0  0  0  0  0
   -1.8551    2.1597   -0.2967 C   0  0  0  0  0  0  0  0  0  0  0  0
   -2.9468    1.5136   -0.8867 C   0  0  0  0  0  0  0  0  0  0  0  0
   -4.5758    2.2580   -0.8236 S   0  0  0  0  0  0  0  0  0  0  0  0
   -4.3351    3.1836   -2.3742 C   0  0  0  0  0  0  0  0  0  0  0  0
   -2.7627    0.2840   -1.5287 C   0  0  0  0  0  0  0  0  0  0  0  0
   -1.4893   -0.2908   -1.5979 C   0  0  0  0  0  0  0  0  0  0  0  0
    1.1574   -1.5787    0.9783 C   0  0  0  0  0  0  0  0  0  0  0  0
    1.2632   -0.4342    2.1791 S   0  0  0  0  0  0  0  0  0  0  0  0
    1.3207   -1.5812    3.4295 C   0  0  0  0  0  0  0  0  0  0  0  0
    1.2183   -2.8826    2.9008 C   0  0  0  0  0  0  0  0  0  0  0  0
    1.1880   -4.0941    3.6796 N   0  0  0  0  0  0  0  0  0  0  0  0
    0.2787   -5.1606    3.3240 C   0  0  0  0  0  0  0  0  0  0  0  0
   -1.0218   -4.8704    2.8684 C   0  0  0  0  0  0  0  0  0  0  0  0
   -1.8986   -5.9018    2.5190 C   0  0  0  0  0  0  0  0  0  0  0  0
   -1.4845   -7.2356    2.6121 C   0  0  0  0  0  0  0  0  0  0  0  0
   -2.6114   -8.5593    2.1696 S   0  0  0  0  0  0  0  0  0  0  0  0
   -2.1242   -8.5548    0.4134 C   0  0  0  0  0  0  0  0  0  0  0  0
   -0.1919   -7.5353    3.0564 C   0  0  0  0  0  0  0  0  0  0  0  0
    0.6856   -6.5060    3.4099 C   0  0  0  0  0  0  0  0  0  0  0  0
    2.1033   -4.2543    4.7819 C   0  0  0  0  0  0  0  0  0  0  0  0
    3.4602   -3.9186    4.6309 C   0  0  0  0  0  0  0  0  0  0  0  0
    4.3516   -4.1043    5.6890 C   0  0  0  0  0  0  0  0  0  0  0  0
    3.9017   -4.6293    6.9064 C   0  0  0  0  0  0  0  0  0  0  0  0
    5.0597   -4.9131    8.2476 S   0  0  0  0  0  0  0  0  0  0  0  0
    5.3627   -6.6415    7.7672 C   0  0  0  0  0  0  0  0  0  0  0  0
    2.5476   -4.9502    7.0687 C   0  0  0  0  0  0  0  0  0  0  0  0
    1.6530   -4.7680    6.0105 C   0  0  0  0  0  0  0  0  0  0  0  0
    1.1471   -2.8307    1.5004 C   0  0  0  0  0  0  0  0  0  0  0  0
    1.0594   -3.9512    0.2439 S   0  0  0  0  0  0  0  0  0  0  0  0
    1.3818   -1.1287    4.8290 C   0  0  0  0  0  0  0  0  0  0  0  0
    0.1730   -0.8879    5.5201 C   0  0  0  0  0  0  0  0  0  0  0  0
   -0.9948   -1.6853    5.2162 C   0  0  0  0  0  0  0  0  0  0  0  0
   -1.9316   -2.3217    4.9774 N   0  0  0  0  0  0  0  0  0  0  0  0
    0.0673    0.2203    6.3972 C   0  0  0  0  0  0  0  0  0  0  0  0
   -1.2082    0.5553    7.0014 C   0  0  0  0  0  0  0  0  0  0  0  0
   -2.2250    0.8254    7.4836 N   0  0  0  0  0  0  0  0  0  0  0  0
    1.1736    1.0802    6.5871 C   0  0  0  0  0  0  0  0  0  0  0  0
    2.4202    0.7010    6.0815 C   0  0  0  0  0  0  0  0  0  0  0  0
    2.5259   -0.4122    5.2055 C   0  0  0  0  0  0  0  0  0  0  0  0
    3.7404   -0.6231    4.6306 N   0  0  0  0  0  0  0  0  0  0  0  0
    4.6090    0.6058    5.3084 S   0  0  0  0  0  0  0  0  0  0  0  0
    3.5482    1.4366    6.2668 N   0  0  0  0  0  0  0  0  0  0  0  0
    0.9857    2.4769    7.0350 C   0  0  0  0  0  0  0  0  0  0  0  0
    0.5485    3.4323    6.1863 C   0  0  0  0  0  0  0  0  0  0  0  0
    0.2848    3.2494    4.7471 C   0  0  0  0  0  0  0  0  0  0  0  0
    0.1408    2.1561    4.1404 O   0  0  0  0  0  0  0  0  0  0  0  0
    0.2675    4.5489    4.1142 C   0  0  0  0  0  0  0  0  0  0  0  0
    0.1551    4.8349    2.7529 C   0  0  0  0  0  0  0  0  0  0  0  0
    0.2469    6.1712    2.3454 C   0  0  0  0  0  0  0  0  0  0  0  0
    0.4688    7.1955    3.2916 C   0  0  0  0  0  0  0  0  0  0  0  0
    0.6512    8.6089    2.8253 C   0  0  0  0  0  0  0  0  0  0  0  0
    0.5968    6.8710    4.6609 C   0  0  0  0  0  0  0  0  0  0  0  0
    0.4602    5.5321    5.0674 C   0  0  0  0  0  0  0  0  0  0  0  0
    0.5322    4.9117    6.4236 C   0  0  0  0  0  0  0  0  0  0  0  0
    0.3514    5.5330    7.6144 C   0  0  0  0  0  0  0  0  0  0  0  0
    0.2367    6.9617    7.7329 C   0  0  0  0  0  0  0  0  0  0  0  0
    0.1483    8.1138    7.8381 N   0  0  0  0  0  0  0  0  0  0  0  0
    0.1475    4.7968    8.8366 C   0  0  0  0  0  0  0  0  0  0  0  0
   -0.0181    4.2035    9.8168 N   0  0  0  0  0  0  0  0  0  0  0  0
   -0.3542   -3.0550   -7.2839 H   0  0  0  0  0  0  0  0  0  0  0  0
   -1.6313    2.3647   -4.3471 H   0  0  0  0  0  0  0  0  0  0  0  0
   -3.0424    1.5786   -9.1906 H   0  0  0  0  0  0  0  0  0  0  0  0
   -5.0273    3.9015   -7.5776 H   0  0  0  0  0  0  0  0  0  0  0  0
   -3.2677    5.2284   -9.2694 H   0  0  0  0  0  0  0  0  0  0  0  0
   -4.7945    7.1500   -8.2536 H   0  0  0  0  0  0  0  0  0  0  0  0
   -4.0854    7.5308   -5.7694 H   0  0  0  0  0  0  0  0  0  0  0  0
   -2.1122    5.8508   -5.1967 H   0  0  0  0  0  0  0  0  0  0  0  0
   -1.3031    4.7528   -7.5072 H   0  0  0  0  0  0  0  0  0  0  0  0
   -1.5543    6.5374   -7.7050 H   0  0  0  0  0  0  0  0  0  0  0  0
   -4.3855    4.2598   -5.2958 H   0  0  0  0  0  0  0  0  0  0  0  0
    3.4383   -0.3231    0.0390 H   0  0  0  0  0  0  0  0  0  0  0  0
    5.2505    1.2705   -0.3273 H   0  0  0  0  0  0  0  0  0  0  0  0
    5.4558    5.6233   -0.6578 H   0  0  0  0  0  0  0  0  0  0  0  0
    3.7978    5.1427   -1.1933 H   0  0  0  0  0  0  0  0  0  0  0  0
    4.6197    4.2510    0.1624 H   0  0  0  0  0  0  0  0  0  0  0  0
    2.8963    3.3196   -3.2819 H   0  0  0  0  0  0  0  0  0  0  0  0
    1.0505    1.7462   -2.9155 H   0  0  0  0  0  0  0  0  0  0  0  0
    0.2508    2.0983    0.1035 H   0  0  0  0  0  0  0  0  0  0  0  0
   -1.9923    3.1033    0.2167 H   0  0  0  0  0  0  0  0  0  0  0  0
   -5.2750    3.7243   -2.6184 H   0  0  0  0  0  0  0  0  0  0  0  0
   -4.1043    2.4854   -3.2045 H   0  0  0  0  0  0  0  0  0  0  0  0
   -3.5123    3.9174   -2.2553 H   0  0  0  0  0  0  0  0  0  0  0  0
   -3.6060   -0.2250   -1.9741 H   0  0  0  0  0  0  0  0  0  0  0  0
   -1.3669   -1.2367   -2.1007 H   0  0  0  0  0  0  0  0  0  0  0  0
   -1.3565   -3.8455    2.7817 H   0  0  0  0  0  0  0  0  0  0  0  0
   -2.8936   -5.6635    2.1670 H   0  0  0  0  0  0  0  0  0  0  0  0
   -2.4211   -7.5962   -0.0591 H   0  0  0  0  0  0  0  0  0  0  0  0
   -2.6407   -9.3879   -0.1060 H   0  0  0  0  0  0  0  0  0  0  0  0
   -1.0273   -8.6954    0.3211 H   0  0  0  0  0  0  0  0  0  0  0  0
    0.1340   -8.5660    3.1192 H   0  0  0  0  0  0  0  0  0  0  0  0
    1.6859   -6.7560    3.7390 H   0  0  0  0  0  0  0  0  0  0  0  0
    3.8264   -3.5321    3.6865 H   0  0  0  0  0  0  0  0  0  0  0  0
    5.3980   -3.8528    5.5577 H   0  0  0  0  0  0  0  0  0  0  0  0
    5.8091   -6.6723    6.7473 H   0  0  0  0  0  0  0  0  0  0  0  0
    4.4181   -7.2224    7.7925 H   0  0  0  0  0  0  0  0  0  0  0  0
    6.0832   -7.0956    8.4830 H   0  0  0  0  0  0  0  0  0  0  0  0
    2.1953   -5.3616    8.0071 H   0  0  0  0  0  0  0  0  0  0  0  0
    0.6116   -5.0282    6.1453 H   0  0  0  0  0  0  0  0  0  0  0  0
    1.3838    2.7392    8.0037 H   0  0  0  0  0  0  0  0  0  0  0  0
    0.0149    4.0452    2.0249 H   0  0  0  0  0  0  0  0  0  0  0  0
    0.1769    6.4093    1.2915 H   0  0  0  0  0  0  0  0  0  0  0  0
    0.4353    9.3278    3.6443 H   0  0  0  0  0  0  0  0  0  0  0  0
   -0.0365    8.8310    1.9834 H   0  0  0  0  0  0  0  0  0  0  0  0
    1.6980    8.7545    2.4842 H   0  0  0  0  0  0  0  0  0  0  0  0
    0.8389    7.6506    5.3621 H   0  0  0  0  0  0  0  0  0  0  0  0
  1  2  2  3
  2  3  1  0
  3  4  2  0
  3  5  1  0
  5  6  2  0
  6  7  1  0
  7  8  2  0
  8  9  1  0
  9 10  2  0
 10 11  1  0
 11 12  2  3
 12 13  1  0
 13 14  3  0
 12 15  1  0
 15 16  3  0
  8 17  1  0
 17 18  1  0
 18 19  1  0
 19 20  2  0
 20 21  1  0
 21 22  1  0
 21 23  1  0
  1 24  1  0
 24 25  2  0
 25 26  1  0
 26 27  1  0
 27 28  2  0
 28 29  2  0
 26 30  2  0
 30 31  1  0
 31 32  2  0
 32 33  1  0
 33 34  1  0
 34 35  2  0
 30 36  1  0
 36 37  2  0
 37 38  1  0
 38 39  1  0
 39 40  2  0
 40 41  1  0
 41 42  2  0
 42 43  1  0
 43 44  1  0
 42 45  1  0
 45 46  2  0
 38 47  1  0
 47 48  2  0
 48 49  1  0
 49 50  2  0
 50 51  1  0
 51 52  1  0
 50 53  1  0
 53 54  2  0
 37 55  1  0
 55 56  1  0
 56 57  1  0
 57 58  2  0
 58 59  1  0
 59 60  1  0
 60 61  2  0
 61 62  1  0
 62 63  2  0
 63 64  1  0
 64 65  1  0
 63 66  1  0
 66 67  2  0
 59 68  1  0
 68 69  2  0
 69 70  1  0
 70 71  2  0
 71 72  1  0
 72 73  1  0
 71 74  1  0
 74 75  2  0
 58 76  1  0
 76 77  1  0
 57 78  1  0
 78 79  2  0
 79 80  1  0
 80 81  3  0
 79 82  1  0
 82 83  1  0
 83 84  3  0
 82 85  2  0
 85 86  1  0
 86 87  1  0
 87 88  2  0
 88 89  1  0
 89 90  1  0
 85 91  1  0
 91 92  2  3
 92 93  1  0
 93 94  2  0
 93 95  1  0
 95 96  2  0
 96 97  1  0
 97 98  2  0
 98 99  1  0
 98100  1  0
100101  2  0
101102  1  0
102103  2  3
103104  1  0
104105  3  0
103106  1  0
106107  3  0
 11  2  1  0
 23 17  1  0
 35 24  1  0
 77 36  1  0
 87 78  1  0
102 92  1  0
 10  5  1  0
 22 18  1  0
 29 25  1  0
 35 31  1  0
 46 39  1  0
 54 47  1  0
 76 55  2  0
 90 86  2  0
101 95  1  0
 23  7  1  0
 67 60  1  0
 75 68  1  0
  1108  1  0
  6109  1  0
  9110  1  0
 17111  1  0
 18112  1  0
 19113  1  0
 20114  1  0
 21115  1  0
 22116  1  0
 22117  1  0
 23118  1  0
 40119  1  0
 41120  1  0
 44121  1  0
 44122  1  0
 44123  1  0
 45124  1  0
 46125  1  0
 48126  1  0
 49127  1  0
 52128  1  0
 52129  1  0
 52130  1  0
 53131  1  0
 54132  1  0
 61133  1  0
 62134  1  0
 65135  1  0
 65136  1  0
 65137  1  0
 66138  1  0
 67139  1  0
 69140  1  0
 70141  1  0
 73142  1  0
 73143  1  0
 73144  1  0
 74145  1  0
 75146  1  0
 91147  1  0
 96148  1  0
 97149  1  0
 99150  1  0
 99151  1  0
 99152  1  0
100153  1  0
M  END

