
     RDKit          3D

158176  0  0  0  0  0  0  0  0999 V2000
   -3.1281    0.2871    3.0340 C   0  0  0  0  0  0  0  0  0  0  0  0
   -4.1080    1.2126    3.0587 C   0  0  0  0  0  0  0  0  0  0  0  0
   -4.4305    2.0812    4.2011 C   0  0  0  0  0  0  0  0  0  0  0  0
   -3.9978    1.9570    5.3773 O   0  0  0  0  0  0  0  0  0  0  0  0
   -5.3607    3.0987    3.7653 C   0  0  0  0  0  0  0  0  0  0  0  0
   -5.8273    4.2019    4.5188 C   0  0  0  0  0  0  0  0  0  0  0  0
   -6.6356    5.0645    3.8053 C   0  0  0  0  0  0  0  0  0  0  0  0
   -6.9728    4.8624    2.4311 C   0  0  0  0  0  0  0  0  0  0  0  0
   -6.5136    3.7901    1.6869 C   0  0  0  0  0  0  0  0  0  0  0  0
   -5.6972    2.8711    2.4079 C   0  0  0  0  0  0  0  0  0  0  0  0
   -5.0137    1.6284    1.9332 C   0  0  0  0  0  0  0  0  0  0  0  0
   -5.3182    0.9224    0.8076 C   0  0  0  0  0  0  0  0  0  0  0  0
   -6.3627    1.3257   -0.1005 C   0  0  0  0  0  0  0  0  0  0  0  0
   -7.2072    1.6287   -0.8328 N   0  0  0  0  0  0  0  0  0  0  0  0
   -4.7273   -0.3524    0.4921 C   0  0  0  0  0  0  0  0  0  0  0  0
   -4.2655   -1.3770    0.2191 N   0  0  0  0  0  0  0  0  0  0  0  0
   -7.7716    6.1334    2.4213 C   0  0  0  0  0  0  0  0  0  0  0  0
   -7.1625    7.3690    1.6949 C   0  0  0  0  0  0  0  0  0  0  0  0
   -5.6528    7.3126    1.7555 C   0  0  0  0  0  0  0  0  0  0  0  0
   -5.3170    7.4990    3.0330 C   0  0  0  0  0  0  0  0  0  0  0  0
   -6.6117    7.6841    3.7964 C   0  0  0  0  0  0  0  0  0  0  0  0
   -7.4051    8.4361    2.7455 C   0  0  0  0  0  0  0  0  0  0  0  0
   -7.4113    6.3473    3.8275 C   0  0  0  0  0  0  0  0  0  0  0  0
   -2.2270   -0.0058    4.1576 C   0  0  0  0  0  0  0  0  0  0  0  0
   -1.3586    0.9036    4.6039 C   0  0  0  0  0  0  0  0  0  0  0  0
   -0.2275    0.4984    5.4523 C   0  0  0  0  0  0  0  0  0  0  0  0
    1.0678    0.7066    5.1732 C   0  0  0  0  0  0  0  0  0  0  0  0
    1.6269    1.2555    3.8984 C   0  0  0  0  0  0  0  0  0  0  0  0
    2.9802    1.1546    3.4656 C   0  0  0  0  0  0  0  0  0  0  0  0
    4.1036    0.8053    4.3192 N   0  0  0  0  0  0  0  0  0  0  0  0
    5.3050    0.2434    3.7624 C   0  0  0  0  0  0  0  0  0  0  0  0
    5.2886   -1.0354    3.1847 C   0  0  0  0  0  0  0  0  0  0  0  0
    6.4485   -1.5590    2.6069 C   0  0  0  0  0  0  0  0  0  0  0  0
    7.6340   -0.8136    2.6051 C   0  0  0  0  0  0  0  0  0  0  0  0
    9.1140   -1.4859    1.8484 S   0  0  0  0  0  0  0  0  0  0  0  0
    8.7268   -0.8063    0.2057 C   0  0  0  0  0  0  0  0  0  0  0  0
    7.6601    0.4548    3.2040 C   0  0  0  0  0  0  0  0  0  0  0  0
    6.5024    0.9787    3.7845 C   0  0  0  0  0  0  0  0  0  0  0  0
    4.1122    1.1421    5.7187 C   0  0  0  0  0  0  0  0  0  0  0  0
    3.6801    2.4070    6.1546 C   0  0  0  0  0  0  0  0  0  0  0  0
    3.5333    2.6641    7.5230 C   0  0  0  0  0  0  0  0  0  0  0  0
    3.8245    1.6682    8.4594 C   0  0  0  0  0  0  0  0  0  0  0  0
    3.5300    1.9633   10.2081 S   0  0  0  0  0  0  0  0  0  0  0  0
    1.8144    1.3450   10.1399 C   0  0  0  0  0  0  0  0  0  0  0  0
    4.3121    0.4298    8.0340 C   0  0  0  0  0  0  0  0  0  0  0  0
    4.4601    0.1682    6.6691 C   0  0  0  0  0  0  0  0  0  0  0  0
    3.0803    1.4085    2.0804 C   0  0  0  0  0  0  0  0  0  0  0  0
    4.2010    0.9925    0.8836 S   0  0  0  0  0  0  0  0  0  0  0  0
    3.1431    1.2763   -0.4232 C   0  0  0  0  0  0  0  0  0  0  0  0
    1.9043    1.6869    0.0824 C   0  0  0  0  0  0  0  0  0  0  0  0
    0.6963    1.7273   -0.6962 N   0  0  0  0  0  0  0  0  0  0  0  0
    0.0938    0.4842   -1.1188 C   0  0  0  0  0  0  0  0  0  0  0  0
   -0.2922    0.2973   -2.4570 C   0  0  0  0  0  0  0  0  0  0  0  0
   -0.9450   -0.8729   -2.8500 C   0  0  0  0  0  0  0  0  0  0  0  0
   -1.2107   -1.8775   -1.9122 C   0  0  0  0  0  0  0  0  0  0  0  0
   -2.1571   -3.3257   -2.3821 S   0  0  0  0  0  0  0  0  0  0  0  0
   -0.6956   -4.3325   -2.7731 C   0  0  0  0  0  0  0  0  0  0  0  0
   -0.7877   -1.7204   -0.5905 C   0  0  0  0  0  0  0  0  0  0  0  0
   -0.1296   -0.5538   -0.1958 C   0  0  0  0  0  0  0  0  0  0  0  0
    0.1149    3.0069   -1.0566 C   0  0  0  0  0  0  0  0  0  0  0  0
    0.8999    4.1798   -1.0777 C   0  0  0  0  0  0  0  0  0  0  0  0
    0.3558    5.3914   -1.5128 C   0  0  0  0  0  0  0  0  0  0  0  0
   -0.9777    5.4553   -1.9288 C   0  0  0  0  0  0  0  0  0  0  0  0
   -1.6433    6.9807   -2.5987 S   0  0  0  0  0  0  0  0  0  0  0  0
   -2.2870    7.5644   -1.0016 C   0  0  0  0  0  0  0  0  0  0  0  0
   -1.7789    4.3125   -1.8633 C   0  0  0  0  0  0  0  0  0  0  0  0
   -1.2460    3.1045   -1.4107 C   0  0  0  0  0  0  0  0  0  0  0  0
    1.9188    1.7575    1.4674 C   0  0  0  0  0  0  0  0  0  0  0  0
    0.6790    1.7410    2.5662 S   0  0  0  0  0  0  0  0  0  0  0  0
    3.2856    0.6828   -1.7603 C   0  0  0  0  0  0  0  0  0  0  0  0
    3.1228   -0.7008   -1.9049 C   0  0  0  0  0  0  0  0  0  0  0  0
    2.7519   -1.2734   -3.1477 C   0  0  0  0  0  0  0  0  0  0  0  0
    2.3901   -2.6571   -3.0686 N   0  0  0  0  0  0  0  0  0  0  0  0
    2.6196   -2.9456   -1.5204 S   0  0  0  0  0  4  0  0  0  0  0  0
    3.0985   -1.6113   -0.7970 N   0  0  0  0  0  0  0  0  0  0  0  0
    2.6052   -0.4803   -4.3032 C   0  0  0  0  0  0  0  0  0  0  0  0
    2.8306    0.9039   -4.1747 C   0  0  0  0  0  0  0  0  0  0  0  0
    2.6635    1.7735   -5.2061 N   0  0  0  0  0  0  0  0  0  0  0  0
    2.9634    3.2078   -4.4476 S   0  0  0  0  0  0  0  0  0  0  0  0
    3.2893    2.8326   -2.8732 N   0  0  0  0  0  0  0  0  0  0  0  0
    3.1697    1.4807   -2.9074 C   0  0  0  0  0  0  0  0  0  0  0  0
    1.9728   -1.0053   -5.5359 C   0  0  0  0  0  0  0  0  0  0  0  0
    2.3160   -2.1423   -6.1657 C   0  0  0  0  0  0  0  0  0  0  0  0
    3.3731   -3.0654   -5.7532 C   0  0  0  0  0  0  0  0  0  0  0  0
    4.4349   -2.7590   -5.1457 O   0  0  0  0  0  0  0  0  0  0  0  0
    3.0067   -4.4002   -6.1768 C   0  0  0  0  0  0  0  0  0  0  0  0
    3.5814   -5.6185   -5.7478 C   0  0  0  0  0  0  0  0  0  0  0  0
    2.8751   -6.7360   -6.1452 C   0  0  0  0  0  0  0  0  0  0  0  0
    1.6761   -6.6719   -6.9265 C   0  0  0  0  0  0  0  0  0  0  0  0
    1.1071   -5.4836   -7.3489 C   0  0  0  0  0  0  0  0  0  0  0  0
    1.8228   -4.3190   -6.9569 C   0  0  0  0  0  0  0  0  0  0  0  0
    1.4443   -2.8915   -7.1117 C   0  0  0  0  0  0  0  0  0  0  0  0
    0.6304   -2.3623   -8.0599 C   0  0  0  0  0  0  0  0  0  0  0  0
   -0.0833   -3.1812   -9.0046 C   0  0  0  0  0  0  0  0  0  0  0  0
   -0.6625   -3.8267   -9.7721 N   0  0  0  0  0  0  0  0  0  0  0  0
    0.5527   -0.9447   -8.2902 C   0  0  0  0  0  0  0  0  0  0  0  0
    0.4947    0.1969   -8.4891 N   0  0  0  0  0  0  0  0  0  0  0  0
    1.5217   -8.1614   -6.8441 C   0  0  0  0  0  0  0  0  0  0  0  0
    0.4166   -8.7244   -5.8984 C   0  0  0  0  0  0  0  0  0  0  0  0
    0.1958   -7.7757   -4.7430 C   0  0  0  0  0  0  0  0  0  0  0  0
    1.3023   -7.8178   -4.0000 C   0  0  0  0  0  0  0  0  0  0  0  0
    2.2378   -8.8021   -4.6711 C   0  0  0  0  0  0  0  0  0  0  0  0
    1.2100   -9.7982   -5.1763 C   0  0  0  0  0  0  0  0  0  0  0  0
    2.7401   -8.2252   -6.0312 C   0  0  0  0  0  0  0  0  0  0  0  0
   -2.9023   -0.2610    2.1381 H   0  0  0  0  0  0  0  0  0  0  0  0
   -5.5470    4.3780    5.5514 H   0  0  0  0  0  0  0  0  0  0  0  0
   -6.7435    3.7185    0.6350 H   0  0  0  0  0  0  0  0  0  0  0  0
   -8.8615    5.9812    2.2602 H   0  0  0  0  0  0  0  0  0  0  0  0
   -7.5845    7.5814    0.6927 H   0  0  0  0  0  0  0  0  0  0  0  0
   -4.9647    7.2490    0.9229 H   0  0  0  0  0  0  0  0  0  0  0  0
   -4.3069    7.5976    3.4133 H   0  0  0  0  0  0  0  0  0  0  0  0
   -6.5074    8.1995    4.7713 H   0  0  0  0  0  0  0  0  0  0  0  0
   -8.4795    8.5654    3.0081 H   0  0  0  0  0  0  0  0  0  0  0  0
   -6.9623    9.4267    2.4784 H   0  0  0  0  0  0  0  0  0  0  0  0
   -8.2852    6.3407    4.5189 H   0  0  0  0  0  0  0  0  0  0  0  0
   -2.1160   -1.0371    4.4620 H   0  0  0  0  0  0  0  0  0  0  0  0
   -1.4214    1.9321    4.2588 H   0  0  0  0  0  0  0  0  0  0  0  0
   -0.4638   -0.0576    6.3540 H   0  0  0  0  0  0  0  0  0  0  0  0
    1.7568    0.3007    5.8969 H   0  0  0  0  0  0  0  0  0  0  0  0
    4.3743   -1.6140    3.1725 H   0  0  0  0  0  0  0  0  0  0  0  0
    6.4262   -2.5417    2.1582 H   0  0  0  0  0  0  0  0  0  0  0  0
    7.7441   -1.1859   -0.1444 H   0  0  0  0  0  0  0  0  0  0  0  0
    8.7054    0.3033    0.2520 H   0  0  0  0  0  0  0  0  0  0  0  0
    9.5101   -1.1206   -0.5160 H   0  0  0  0  0  0  0  0  0  0  0  0
    8.5701    1.0366    3.2091 H   0  0  0  0  0  0  0  0  0  0  0  0
    6.5280    1.9612    4.2329 H   0  0  0  0  0  0  0  0  0  0  0  0
    3.4195    3.1743    5.4400 H   0  0  0  0  0  0  0  0  0  0  0  0
    3.1719    3.6318    7.8470 H   0  0  0  0  0  0  0  0  0  0  0  0
    1.3476    1.4682   11.1394 H   0  0  0  0  0  0  0  0  0  0  0  0
    1.8090    0.2664    9.8735 H   0  0  0  0  0  0  0  0  0  0  0  0
    1.2288    1.9201    9.3934 H   0  0  0  0  0  0  0  0  0  0  0  0
    4.5378   -0.3457    8.7537 H   0  0  0  0  0  0  0  0  0  0  0  0
    4.7818   -0.8123    6.3518 H   0  0  0  0  0  0  0  0  0  0  0  0
   -0.0993    1.0705   -3.1924 H   0  0  0  0  0  0  0  0  0  0  0  0
   -1.2588   -0.9904   -3.8798 H   0  0  0  0  0  0  0  0  0  0  0  0
   -1.0221   -5.3706   -2.9849 H   0  0  0  0  0  0  0  0  0  0  0  0
   -0.1816   -3.9199   -3.6632 H   0  0  0  0  0  0  0  0  0  0  0  0
   -0.0020   -4.3577   -1.9077 H   0  0  0  0  0  0  0  0  0  0  0  0
   -0.9806   -2.4982    0.1388 H   0  0  0  0  0  0  0  0  0  0  0  0
    0.1719   -0.4528    0.8347 H   0  0  0  0  0  0  0  0  0  0  0  0
    1.9414    4.1576   -0.7845 H   0  0  0  0  0  0  0  0  0  0  0  0
    0.9792    6.2762   -1.5482 H   0  0  0  0  0  0  0  0  0  0  0  0
   -1.4464    7.7638   -0.3072 H   0  0  0  0  0  0  0  0  0  0  0  0
   -2.8514    8.5051   -1.1667 H   0  0  0  0  0  0  0  0  0  0  0  0
   -2.9696    6.8056   -0.5673 H   0  0  0  0  0  0  0  0  0  0  0  0
   -2.8155    4.3579   -2.1735 H   0  0  0  0  0  0  0  0  0  0  0  0
   -1.8982    2.2433   -1.3562 H   0  0  0  0  0  0  0  0  0  0  0  0
    1.1000   -0.4628   -5.8586 H   0  0  0  0  0  0  0  0  0  0  0  0
    4.4447   -5.6723   -5.1006 H   0  0  0  0  0  0  0  0  0  0  0  0
    0.1584   -5.4736   -7.8571 H   0  0  0  0  0  0  0  0  0  0  0  0
    1.6079   -8.6804   -7.8263 H   0  0  0  0  0  0  0  0  0  0  0  0
   -0.5084   -9.0725   -6.4015 H   0  0  0  0  0  0  0  0  0  0  0  0
   -0.7102   -7.2290   -4.5116 H   0  0  0  0  0  0  0  0  0  0  0  0
    1.4530   -7.3029   -3.0567 H   0  0  0  0  0  0  0  0  0  0  0  0
    3.0285   -9.2214   -4.0140 H   0  0  0  0  0  0  0  0  0  0  0  0
    1.6353  -10.5708   -5.8594 H   0  0  0  0  0  0  0  0  0  0  0  0
    0.6388  -10.2988   -4.3569 H   0  0  0  0  0  0  0  0  0  0  0  0
    3.5670   -8.7962   -6.5082 H   0  0  0  0  0  0  0  0  0  0  0  0
  1  2  2  3
  2  3  1  0
  3  4  2  0
  3  5  1  0
  5  6  2  0
  6  7  1  0
  7  8  2  0
  8  9  1  0
  9 10  2  0
 10 11  1  0
 11 12  2  3
 12 13  1  0
 13 14  3  0
 12 15  1  0
 15 16  3  0
  8 17  1  0
 17 18  1  0
 18 19  1  0
 19 20  2  0
 20 21  1  0
 21 22  1  0
 21 23  1  0
  1 24  1  0
 24 25  2  3
 25 26  1  0
 26 27  2  3
 27 28  1  0
 28 29  2  0
 29 30  1  0
 30 31  1  0
 31 32  2  0
 32 33  1  0
 33 34  2  0
 34 35  1  0
 35 36  1  0
 34 37  1  0
 37 38  2  0
 30 39  1  0
 39 40  2  0
 40 41  1  0
 41 42  2  0
 42 43  1  0
 43 44  1  0
 42 45  1  0
 45 46  2  0
 29 47  1  0
 47 48  1  0
 48 49  1  0
 49 50  2  0
 50 51  1  0
 51 52  1  0
 52 53  2  0
 53 54  1  0
 54 55  2  0
 55 56  1  0
 56 57  1  0
 55 58  1  0
 58 59  2  0
 51 60  1  0
 60 61  2  0
 61 62  1  0
 62 63  2  0
 63 64  1  0
 64 65  1  0
 63 66  1  0
 66 67  2  0
 50 68  1  0
 68 69  1  0
 49 70  1  0
 70 71  2  0
 71 72  1  0
 72 73  1  0
 73 74  2  0
 74 75  2  0
 72 76  2  0
 76 77  1  0
 77 78  2  0
 78 79  1  0
 79 80  1  0
 80 81  2  0
 76 82  1  0
 82 83  2  3
 83 84  1  0
 84 85  2  0
 84 86  1  0
 86 87  2  0
 87 88  1  0
 88 89  2  0
 89 90  1  0
 90 91  2  0
 91 92  1  0
 92 93  2  3
 93 94  1  0
 94 95  3  0
 93 96  1  0
 96 97  3  0
 89 98  1  0
 98 99  1  0
 99100  1  0
100101  2  0
101102  1  0
102103  1  0
102104  1  0
 11  2  1  0
 23 17  1  0
 69 28  1  0
 81 70  1  0
 92 83  1  0
104 98  1  0
 10  5  1  0
 22 18  1  0
 38 31  1  0
 46 39  1  0
 68 47  2  0
 75 71  1  0
 81 77  1  0
 91 86  1  0
103 99  1  0
 23  7  1  0
 59 52  1  0
 67 60  1  0
104 88  1  0
  1105  1  0
  6106  1  0
  9107  1  0
 17108  1  0
 18109  1  0
 19110  1  0
 20111  1  0
 21112  1  0
 22113  1  0
 22114  1  0
 23115  1  0
 24116  1  0
 25117  1  0
 26118  1  0
 27119  1  0
 32120  1  0
 33121  1  0
 36122  1  0
 36123  1  0
 36124  1  0
 37125  1  0
 38126  1  0
 40127  1  0
 41128  1  0
 44129  1  0
 44130  1  0
 44131  1  0
 45132  1  0
 46133  1  0
 53134  1  0
 54135  1  0
 57136  1  0
 57137  1  0
 57138  1  0
 58139  1  0
 59140  1  0
 61141  1  0
 62142  1  0
 65143  1  0
 65144  1  0
 65145  1  0
 66146  1  0
 67147  1  0
 82148  1  0
 87149  1  0
 90150  1  0
 98151  1  0
 99152  1  0
100153  1  0
101154  1  0
102155  1  0
103156  1  0
103157  1  0
104158  1  0
M  END

