
     RDKit          3D

188207  0  0  0  0  0  0  0  0999 V2000
    3.0652    1.0066   -6.6517 C   0  0  0  0  0  0  0  0  0  0  0  0
    4.2586    0.7675   -6.0902 C   0  0  0  0  0  0  0  0  0  0  0  0
    4.5306    0.8428   -4.6496 C   0  0  0  0  0  0  0  0  0  0  0  0
    3.9301    1.5698   -3.8158 O   0  0  0  0  0  0  0  0  0  0  0  0
    5.5745   -0.1055   -4.3272 C   0  0  0  0  0  0  0  0  0  0  0  0
    5.9566   -0.5273   -3.0359 C   0  0  0  0  0  0  0  0  0  0  0  0
    6.7555   -1.6519   -3.0264 C   0  0  0  0  0  0  0  0  0  0  0  0
    7.1791   -2.3205   -4.2208 C   0  0  0  0  0  0  0  0  0  0  0  0
    6.8280   -1.8966   -5.4940 C   0  0  0  0  0  0  0  0  0  0  0  0
    6.0105   -0.7313   -5.5229 C   0  0  0  0  0  0  0  0  0  0  0  0
    5.3194   -0.0994   -6.6778 C   0  0  0  0  0  0  0  0  0  0  0  0
    5.7029   -0.1348   -7.9712 C   0  0  0  0  0  0  0  0  0  0  0  0
    5.0837    0.6927   -8.9762 C   0  0  0  0  0  0  0  0  0  0  0  0
    4.5933    1.3611   -9.7850 N   0  0  0  0  0  0  0  0  0  0  0  0
    6.8131   -0.9343   -8.4199 C   0  0  0  0  0  0  0  0  0  0  0  0
    7.7121   -1.5667   -8.7930 N   0  0  0  0  0  0  0  0  0  0  0  0
    7.8313   -3.3955   -3.4040 C   0  0  0  0  0  0  0  0  0  0  0  0
    7.0834   -4.7612   -3.3426 C   0  0  0  0  0  0  0  0  0  0  0  0
    7.6910   -5.5136   -2.1821 C   0  0  0  0  0  0  0  0  0  0  0  0
    7.2879   -4.8888   -1.0703 C   0  0  0  0  0  0  0  0  0  0  0  0
    6.4272   -3.7331   -1.5173 C   0  0  0  0  0  0  0  0  0  0  0  0
    5.7509   -4.3998   -2.7051 C   0  0  0  0  0  0  0  0  0  0  0  0
    7.3975   -2.7100   -2.1835 C   0  0  0  0  0  0  0  0  0  0  0  0
    1.8698    1.2608   -5.8275 C   0  0  0  0  0  0  0  0  0  0  0  0
    1.0813    0.1739   -5.4207 C   0  0  0  0  0  0  0  0  0  0  0  0
    1.4047   -1.1045   -5.8992 O   0  0  0  0  0  0  0  0  0  0  0  0
    0.4917   -1.9225   -6.6325 C   0  0  0  0  0  0  0  0  0  0  0  0
    0.2838   -1.3622   -8.0319 C   0  0  0  0  0  0  0  0  0  0  0  0
    0.0039    0.3652   -4.5276 C   0  0  0  0  0  0  0  0  0  0  0  0
   -0.6873   -0.7423   -4.0220 O   0  0  0  0  0  0  0  0  0  0  0  0
   -0.0677   -1.7213   -3.1897 C   0  0  0  0  0  0  0  0  0  0  0  0
   -0.9651   -2.9341   -3.0692 C   0  0  0  0  0  0  0  0  0  0  0  0
   -0.3665    1.6653   -4.1140 C   0  0  0  0  0  0  0  0  0  0  0  0
    0.3893    2.7566   -4.5785 C   0  0  0  0  0  0  0  0  0  0  0  0
    1.5201    2.5496   -5.4193 C   0  0  0  0  0  0  0  0  0  0  0  0
    2.2147    3.6555   -5.7999 N   0  0  0  0  0  0  0  0  0  0  0  0
    1.3399    4.8320   -5.0383 S   0  0  0  0  0  0  0  0  0  0  0  0
    0.1156    4.0472   -4.2517 N   0  0  0  0  0  0  0  0  0  0  0  0
   -1.4851    1.8674   -3.1571 C   0  0  0  0  0  0  0  0  0  0  0  0
   -1.4526    2.6638   -1.9899 C   0  0  0  0  0  0  0  0  0  0  0  0
   -0.2420    3.1968   -1.4093 N   0  0  0  0  0  0  0  0  0  0  0  0
   -0.3246    4.4767   -0.7406 C   0  0  0  0  0  0  0  0  0  0  0  0
    0.1055    4.6185    0.5942 C   0  0  0  0  0  0  0  0  0  0  0  0
   -0.0764    5.8235    1.2748 C   0  0  0  0  0  0  0  0  0  0  0  0
   -0.6966    6.9033    0.6370 C   0  0  0  0  0  0  0  0  0  0  0  0
   -0.9813    8.4269    1.5337 S   0  0  0  0  0  0  0  0  0  0  0  0
    0.5585    9.2030    0.9580 C   0  0  0  0  0  0  0  0  0  0  0  0
   -1.1231    6.7746   -0.6897 C   0  0  0  0  0  0  0  0  0  0  0  0
   -0.9439    5.5698   -1.3721 C   0  0  0  0  0  0  0  0  0  0  0  0
    0.8522    2.2987   -1.0981 C   0  0  0  0  0  0  0  0  0  0  0  0
    0.6002    0.9629   -0.7428 C   0  0  0  0  0  0  0  0  0  0  0  0
    1.6416    0.1203   -0.3535 C   0  0  0  0  0  0  0  0  0  0  0  0
    2.9473    0.6062   -0.2822 C   0  0  0  0  0  0  0  0  0  0  0  0
    4.2677   -0.4731    0.2788 S   0  0  0  0  0  0  0  0  0  0  0  0
    3.9399   -0.1767    2.0431 C   0  0  0  0  0  0  0  0  0  0  0  0
    3.2144    1.9345   -0.6354 C   0  0  0  0  0  0  0  0  0  0  0  0
    2.1736    2.7737   -1.0555 C   0  0  0  0  0  0  0  0  0  0  0  0
   -2.5975    2.4578   -1.2138 C   0  0  0  0  0  0  0  0  0  0  0  0
   -2.8416    2.6682    0.4107 S   0  0  0  0  0  0  0  0  0  0  0  0
   -4.0713    1.5005    0.6190 C   0  0  0  0  0  0  0  0  0  0  0  0
   -4.2403    0.8871   -0.6571 C   0  0  0  0  0  0  0  0  0  0  0  0
   -4.8224   -0.4050   -0.9033 N   0  0  0  0  0  0  0  0  0  0  0  0
   -5.8693   -0.4278   -1.8952 C   0  0  0  0  0  0  0  0  0  0  0  0
   -5.6694   -1.0716   -3.1275 C   0  0  0  0  0  0  0  0  0  0  0  0
   -6.5871   -0.9087   -4.1679 C   0  0  0  0  0  0  0  0  0  0  0  0
   -7.7159   -0.0972   -3.9878 C   0  0  0  0  0  0  0  0  0  0  0  0
   -8.8250    0.2212   -5.3603 S   0  0  0  0  0  0  0  0  0  0  0  0
   -7.9421    1.7367   -5.8607 C   0  0  0  0  0  0  0  0  0  0  0  0
   -7.9492    0.4998   -2.7443 C   0  0  0  0  0  0  0  0  0  0  0  0
   -7.0285    0.3422   -1.7060 C   0  0  0  0  0  0  0  0  0  0  0  0
   -4.1381   -1.6235   -0.4962 C   0  0  0  0  0  0  0  0  0  0  0  0
   -2.8595   -1.5850    0.1023 C   0  0  0  0  0  0  0  0  0  0  0  0
   -2.2495   -2.7554    0.5617 C   0  0  0  0  0  0  0  0  0  0  0  0
   -2.8889   -3.9870    0.4125 C   0  0  0  0  0  0  0  0  0  0  0  0
   -2.1275   -5.4877    1.0367 S   0  0  0  0  0  0  0  0  0  0  0  0
   -1.2280   -5.8365   -0.5047 C   0  0  0  0  0  0  0  0  0  0  0  0
   -4.1476   -4.0453   -0.1883 C   0  0  0  0  0  0  0  0  0  0  0  0
   -4.7742   -2.8735   -0.6241 C   0  0  0  0  0  0  0  0  0  0  0  0
   -3.4473    1.4965   -1.6457 C   0  0  0  0  0  0  0  0  0  0  0  0
   -2.8894    0.9038   -3.1108 S   0  0  0  0  0  0  0  0  0  0  0  0
   -4.4270    0.9885    1.9886 C   0  0  0  0  0  0  0  0  0  0  0  0
   -3.7077    1.4997    3.0924 C   0  0  0  0  0  0  0  0  0  0  0  0
   -3.4967    2.8803    3.2013 O   0  0  0  0  0  0  0  0  0  0  0  0
   -4.5569    3.7985    3.4934 C   0  0  0  0  0  0  0  0  0  0  0  0
   -5.3011    4.2300    2.2344 C   0  0  0  0  0  0  0  0  0  0  0  0
   -3.1760    0.6037    4.0654 C   0  0  0  0  0  0  0  0  0  0  0  0
   -2.1425    0.9803    4.9496 O   0  0  0  0  0  0  0  0  0  0  0  0
   -1.5329    2.2681    5.0247 C   0  0  0  0  0  0  0  0  0  0  0  0
   -0.4323    2.2595    6.0731 C   0  0  0  0  0  0  0  0  0  0  0  0
   -3.6632   -0.7273    4.1089 C   0  0  0  0  0  0  0  0  0  0  0  0
   -4.7386   -1.0652    3.2747 C   0  0  0  0  0  0  0  0  0  0  0  0
   -5.1348   -0.2006    2.2124 C   0  0  0  0  0  0  0  0  0  0  0  0
   -6.1938   -0.5974    1.4658 N   0  0  0  0  0  0  0  0  0  0  0  0
   -6.5262   -2.0535    2.1765 S   0  0  0  0  0  0  0  0  0  0  0  0
   -5.4197   -2.2333    3.3901 N   0  0  0  0  0  0  0  0  0  0  0  0
   -2.8563   -1.8378    4.6738 C   0  0  0  0  0  0  0  0  0  0  0  0
   -2.2945   -1.9015    5.8909 C   0  0  0  0  0  0  0  0  0  0  0  0
   -2.4358   -0.9330    6.9845 C   0  0  0  0  0  0  0  0  0  0  0  0
   -3.4487   -0.2137    7.2108 O   0  0  0  0  0  0  0  0  0  0  0  0
   -1.2028   -0.9291    7.7527 C   0  0  0  0  0  0  0  0  0  0  0  0
   -0.8111   -0.0075    8.7550 C   0  0  0  0  0  0  0  0  0  0  0  0
    0.5352   -0.0688    9.0768 C   0  0  0  0  0  0  0  0  0  0  0  0
    1.4432   -0.9888    8.4618 C   0  0  0  0  0  0  0  0  0  0  0  0
    1.0527   -1.9389    7.5357 C   0  0  0  0  0  0  0  0  0  0  0  0
   -0.3295   -1.9037    7.2065 C   0  0  0  0  0  0  0  0  0  0  0  0
   -1.0562   -2.6793    6.1784 C   0  0  0  0  0  0  0  0  0  0  0  0
   -0.7776   -3.9436    5.7696 C   0  0  0  0  0  0  0  0  0  0  0  0
    0.4159   -4.6405    6.1776 C   0  0  0  0  0  0  0  0  0  0  0  0
    1.3772   -5.2044    6.4909 N   0  0  0  0  0  0  0  0  0  0  0  0
   -1.7304   -4.7252    5.0193 C   0  0  0  0  0  0  0  0  0  0  0  0
   -2.4854   -5.3575    4.4135 N   0  0  0  0  0  0  0  0  0  0  0  0
    2.5958   -0.3710    9.1945 C   0  0  0  0  0  0  0  0  0  0  0  0
    3.2010   -1.1982   10.3629 C   0  0  0  0  0  0  0  0  0  0  0  0
    4.0259   -0.2303   11.1750 C   0  0  0  0  0  0  0  0  0  0  0  0
    3.1608    0.5879   11.7857 C   0  0  0  0  0  0  0  0  0  0  0  0
    1.7809    0.1450   11.3627 C   0  0  0  0  0  0  0  0  0  0  0  0
    2.0259   -1.3529   11.3136 C   0  0  0  0  0  0  0  0  0  0  0  0
    1.6619    0.5403    9.8596 C   0  0  0  0  0  0  0  0  0  0  0  0
    2.8695    0.6977   -7.6698 H   0  0  0  0  0  0  0  0  0  0  0  0
    5.5812   -0.0690   -2.1348 H   0  0  0  0  0  0  0  0  0  0  0  0
    7.0883   -2.4811   -6.3624 H   0  0  0  0  0  0  0  0  0  0  0  0
    8.9324   -3.4563   -3.5405 H   0  0  0  0  0  0  0  0  0  0  0  0
    7.0291   -5.3218   -4.2993 H   0  0  0  0  0  0  0  0  0  0  0  0
    8.2469   -6.4440   -2.2188 H   0  0  0  0  0  0  0  0  0  0  0  0
    7.4550   -5.2292   -0.0542 H   0  0  0  0  0  0  0  0  0  0  0  0
    5.7464   -3.3197   -0.7450 H   0  0  0  0  0  0  0  0  0  0  0  0
    5.1216   -3.7102   -3.3108 H   0  0  0  0  0  0  0  0  0  0  0  0
    5.1361   -5.2869   -2.4264 H   0  0  0  0  0  0  0  0  0  0  0  0
    8.2218   -2.3403   -1.5325 H   0  0  0  0  0  0  0  0  0  0  0  0
   -0.4831   -2.0044   -6.1162 H   0  0  0  0  0  0  0  0  0  0  0  0
    0.9207   -2.9413   -6.7162 H   0  0  0  0  0  0  0  0  0  0  0  0
   -0.2217   -0.3719   -7.9829 H   0  0  0  0  0  0  0  0  0  0  0  0
    1.2616   -1.2518   -8.5486 H   0  0  0  0  0  0  0  0  0  0  0  0
   -0.3563   -2.0549   -8.6159 H   0  0  0  0  0  0  0  0  0  0  0  0
    0.0928   -1.2916   -2.1841 H   0  0  0  0  0  0  0  0  0  0  0  0
    0.9167   -2.0252   -3.5973 H   0  0  0  0  0  0  0  0  0  0  0  0
   -1.1565   -3.3724   -4.0736 H   0  0  0  0  0  0  0  0  0  0  0  0
   -0.4692   -3.6985   -2.4387 H   0  0  0  0  0  0  0  0  0  0  0  0
   -1.9336   -2.6473   -2.6067 H   0  0  0  0  0  0  0  0  0  0  0  0
    0.5431    3.7849    1.1266 H   0  0  0  0  0  0  0  0  0  0  0  0
    0.2406    5.9109    2.3071 H   0  0  0  0  0  0  0  0  0  0  0  0
    1.4306    8.5770    1.2345 H   0  0  0  0  0  0  0  0  0  0  0  0
    0.5270    9.3360   -0.1440 H   0  0  0  0  0  0  0  0  0  0  0  0
    0.6598   10.1970    1.4385 H   0  0  0  0  0  0  0  0  0  0  0  0
   -1.6033    7.6072   -1.1849 H   0  0  0  0  0  0  0  0  0  0  0  0
   -1.3016    5.4785   -2.3885 H   0  0  0  0  0  0  0  0  0  0  0  0
   -0.4084    0.5767   -0.7371 H   0  0  0  0  0  0  0  0  0  0  0  0
    1.4243   -0.9046   -0.0796 H   0  0  0  0  0  0  0  0  0  0  0  0
    4.6950   -0.7153    2.6510 H   0  0  0  0  0  0  0  0  0  0  0  0
    4.0044    0.9089    2.2633 H   0  0  0  0  0  0  0  0  0  0  0  0
    2.9318   -0.5581    2.3054 H   0  0  0  0  0  0  0  0  0  0  0  0
    4.2244    2.3189   -0.5861 H   0  0  0  0  0  0  0  0  0  0  0  0
    2.3907    3.8021   -1.3187 H   0  0  0  0  0  0  0  0  0  0  0  0
   -4.7715   -1.6475   -3.3043 H   0  0  0  0  0  0  0  0  0  0  0  0
   -6.3954   -1.3711   -5.1275 H   0  0  0  0  0  0  0  0  0  0  0  0
   -8.4647    2.1954   -6.7261 H   0  0  0  0  0  0  0  0  0  0  0  0
   -7.9281    2.4673   -5.0244 H   0  0  0  0  0  0  0  0  0  0  0  0
   -6.8987    1.4903   -6.1550 H   0  0  0  0  0  0  0  0  0  0  0  0
   -8.8206    1.1258   -2.5964 H   0  0  0  0  0  0  0  0  0  0  0  0
   -7.1938    0.8511   -0.7677 H   0  0  0  0  0  0  0  0  0  0  0  0
   -2.3313   -0.6522    0.2368 H   0  0  0  0  0  0  0  0  0  0  0  0
   -1.2787   -2.7013    1.0384 H   0  0  0  0  0  0  0  0  0  0  0  0
   -1.8991   -5.7403   -1.3860 H   0  0  0  0  0  0  0  0  0  0  0  0
   -0.8389   -6.8743   -0.4633 H   0  0  0  0  0  0  0  0  0  0  0  0
   -0.3710   -5.1355   -0.5969 H   0  0  0  0  0  0  0  0  0  0  0  0
   -4.6563   -4.9953   -0.2922 H   0  0  0  0  0  0  0  0  0  0  0  0
   -5.7700   -2.9519   -1.0402 H   0  0  0  0  0  0  0  0  0  0  0  0
   -5.2691    3.3485    4.2208 H   0  0  0  0  0  0  0  0  0  0  0  0
   -4.1198    4.7000    3.9683 H   0  0  0  0  0  0  0  0  0  0  0  0
   -4.5999    4.6976    1.5132 H   0  0  0  0  0  0  0  0  0  0  0  0
   -6.0765    4.9828    2.5001 H   0  0  0  0  0  0  0  0  0  0  0  0
   -5.8106    3.3688    1.7613 H   0  0  0  0  0  0  0  0  0  0  0  0
   -2.2910    3.0247    5.3299 H   0  0  0  0  0  0  0  0  0  0  0  0
   -1.0922    2.5400    4.0385 H   0  0  0  0  0  0  0  0  0  0  0  0
   -0.8891    2.1692    7.0809 H   0  0  0  0  0  0  0  0  0  0  0  0
    0.1333    3.2149    6.0310 H   0  0  0  0  0  0  0  0  0  0  0  0
    0.2688    1.4147    5.8985 H   0  0  0  0  0  0  0  0  0  0  0  0
   -2.5621   -2.5679    3.9370 H   0  0  0  0  0  0  0  0  0  0  0  0
   -1.4761    0.7420    9.1640 H   0  0  0  0  0  0  0  0  0  0  0  0
    1.7718   -2.5865    7.0572 H   0  0  0  0  0  0  0  0  0  0  0  0
    3.3289    0.1292    8.5256 H   0  0  0  0  0  0  0  0  0  0  0  0
    3.7217   -2.1334   10.0714 H   0  0  0  0  0  0  0  0  0  0  0  0
    5.0979   -0.2504   11.3372 H   0  0  0  0  0  0  0  0  0  0  0  0
    3.4129    1.3519   12.5128 H   0  0  0  0  0  0  0  0  0  0  0  0
    0.9529    0.4820   12.0194 H   0  0  0  0  0  0  0  0  0  0  0  0
    2.3140   -1.7892   12.3009 H   0  0  0  0  0  0  0  0  0  0  0  0
    1.1782   -1.9428   10.8976 H   0  0  0  0  0  0  0  0  0  0  0  0
    1.8306    1.6148    9.6264 H   0  0  0  0  0  0  0  0  0  0  0  0
  1  2  2  3
  2  3  1  0
  3  4  2  0
  3  5  1  0
  5  6  2  0
  6  7  1  0
  7  8  2  0
  8  9  1  0
  9 10  2  0
 10 11  1  0
 11 12  2  3
 12 13  1  0
 13 14  3  0
 12 15  1  0
 15 16  3  0
  8 17  1  0
 17 18  1  0
 18 19  1  0
 19 20  2  0
 20 21  1  0
 21 22  1  0
 21 23  1  0
  1 24  1  0
 24 25  2  0
 25 26  1  0
 26 27  1  0
 27 28  1  0
 25 29  1  0
 29 30  1  0
 30 31  1  0
 31 32  1  0
 29 33  2  0
 33 34  1  0
 34 35  1  0
 35 36  2  0
 36 37  1  0
 37 38  1  0
 33 39  1  0
 39 40  2  0
 40 41  1  0
 41 42  1  0
 42 43  2  0
 43 44  1  0
 44 45  2  0
 45 46  1  0
 46 47  1  0
 45 48  1  0
 48 49  2  0
 41 50  1  0
 50 51  2  0
 51 52  1  0
 52 53  2  0
 53 54  1  0
 54 55  1  0
 53 56  1  0
 56 57  2  0
 40 58  1  0
 58 59  1  0
 59 60  1  0
 60 61  2  0
 61 62  1  0
 62 63  1  0
 63 64  2  0
 64 65  1  0
 65 66  2  0
 66 67  1  0
 67 68  1  0
 66 69  1  0
 69 70  2  0
 62 71  1  0
 71 72  2  0
 72 73  1  0
 73 74  2  0
 74 75  1  0
 75 76  1  0
 74 77  1  0
 77 78  2  0
 61 79  1  0
 79 80  1  0
 60 81  1  0
 81 82  2  0
 82 83  1  0
 83 84  1  0
 84 85  1  0
 82 86  1  0
 86 87  1  0
 87 88  1  0
 88 89  1  0
 86 90  2  0
 90 91  1  0
 91 92  1  0
 92 93  2  0
 93 94  1  0
 94 95  1  0
 90 96  1  0
 96 97  2  3
 97 98  1  0
 98 99  2  0
 98100  1  0
100101  2  0
101102  1  0
102103  2  0
103104  1  0
104105  2  0
105106  1  0
106107  2  3
107108  1  0
108109  3  0
107110  1  0
110111  3  0
103112  1  0
112113  1  0
113114  1  0
114115  2  0
115116  1  0
116117  1  0
116118  1  0
 11  2  1  0
 23 17  1  0
 35 24  1  0
 80 39  1  0
 92 81  1  0
106 97  1  0
118112  1  0
 10  5  1  0
 22 18  1  0
 38 34  2  0
 49 42  1  0
 57 50  1  0
 79 58  2  0
 95 91  2  0
105100  1  0
117113  1  0
 23  7  1  0
 70 63  1  0
 78 71  1  0
118102  1  0
  1119  1  0
  6120  1  0
  9121  1  0
 17122  1  0
 18123  1  0
 19124  1  0
 20125  1  0
 21126  1  0
 22127  1  0
 22128  1  0
 23129  1  0
 27130  1  0
 27131  1  0
 28132  1  0
 28133  1  0
 28134  1  0
 31135  1  0
 31136  1  0
 32137  1  0
 32138  1  0
 32139  1  0
 43140  1  0
 44141  1  0
 47142  1  0
 47143  1  0
 47144  1  0
 48145  1  0
 49146  1  0
 51147  1  0
 52148  1  0
 55149  1  0
 55150  1  0
 55151  1  0
 56152  1  0
 57153  1  0
 64154  1  0
 65155  1  0
 68156  1  0
 68157  1  0
 68158  1  0
 69159  1  0
 70160  1  0
 72161  1  0
 73162  1  0
 76163  1  0
 76164  1  0
 76165  1  0
 77166  1  0
 78167  1  0
 84168  1  0
 84169  1  0
 85170  1  0
 85171  1  0
 85172  1  0
 88173  1  0
 88174  1  0
 89175  1  0
 89176  1  0
 89177  1  0
 96178  1  0
101179  1  0
104180  1  0
112181  1  0
113182  1  0
114183  1  0
115184  1  0
116185  1  0
117186  1  0
117187  1  0
118188  1  0
M  END

