
     RDKit          3D

213235  0  0  0  0  0  0  0  0999 V2000
   -3.2316    5.4066   -1.2460 C   0  0  0  0  0  0  0  0  0  0  0  0
   -2.1868    5.3431   -2.1061 C   0  0  0  0  0  0  0  0  0  0  0  0
   -1.3607    4.1454   -2.3522 C   0  0  0  0  0  0  0  0  0  0  0  0
   -1.4634    3.0290   -1.7803 O   0  0  0  0  0  0  0  0  0  0  0  0
   -0.5364    4.3743   -3.5116 C   0  0  0  0  0  0  0  0  0  0  0  0
    0.3344    3.4370   -4.1173 C   0  0  0  0  0  0  0  0  0  0  0  0
    0.9046    3.8863   -5.2890 C   0  0  0  0  0  0  0  0  0  0  0  0
    0.6361    5.1770   -5.8435 C   0  0  0  0  0  0  0  0  0  0  0  0
   -0.2116    6.1000   -5.2504 C   0  0  0  0  0  0  0  0  0  0  0  0
   -0.8023    5.6651   -4.0291 C   0  0  0  0  0  0  0  0  0  0  0  0
   -1.7790    6.3579   -3.1321 C   0  0  0  0  0  0  0  0  0  0  0  0
   -2.0570    7.6881   -3.1074 C   0  0  0  0  0  0  0  0  0  0  0  0
   -2.8095    8.3011   -2.0448 C   0  0  0  0  0  0  0  0  0  0  0  0
   -3.4112    8.8070   -1.1926 N   0  0  0  0  0  0  0  0  0  0  0  0
   -1.5198    8.6162   -4.0663 C   0  0  0  0  0  0  0  0  0  0  0  0
   -1.0966    9.3797   -4.8273 N   0  0  0  0  0  0  0  0  0  0  0  0
    1.5308    4.8779   -7.0102 C   0  0  0  0  0  0  0  0  0  0  0  0
    2.9339    5.5566   -7.0523 C   0  0  0  0  0  0  0  0  0  0  0  0
    3.4370    5.7932   -5.6463 C   0  0  0  0  0  0  0  0  0  0  0  0
    3.6853    4.5928   -5.1268 C   0  0  0  0  0  0  0  0  0  0  0  0
    3.3479    3.5775   -6.1919 C   0  0  0  0  0  0  0  0  0  0  0  0
    3.7938    4.3582   -7.4136 C   0  0  0  0  0  0  0  0  0  0  0  0
    1.8082    3.5556   -6.4381 C   0  0  0  0  0  0  0  0  0  0  0  0
   -3.4347    4.4147   -0.1768 C   0  0  0  0  0  0  0  0  0  0  0  0
   -4.6957    3.8546    0.0722 C   0  0  0  0  0  0  0  0  0  0  0  0
   -4.7990    2.7604    0.9430 C   0  0  0  0  0  0  0  0  0  0  0  0
   -3.6494    2.2435    1.5649 C   0  0  0  0  0  0  0  0  0  0  0  0
   -2.4288    2.9010    1.3453 C   0  0  0  0  0  0  0  0  0  0  0  0
   -2.3555    3.9575    0.5064 N   0  0  0  0  0  0  0  0  0  0  0  0
   -3.6393    0.8859    2.1549 C   0  0  0  0  0  0  0  0  0  0  0  0
   -2.5687    0.3939    2.9348 C   0  0  0  0  0  0  0  0  0  0  0  0
   -1.9596    1.1530    4.0049 N   0  0  0  0  0  0  0  0  0  0  0  0
   -0.5396    1.3455    4.1459 C   0  0  0  0  0  0  0  0  0  0  0  0
    0.2720    0.3412    4.6967 C   0  0  0  0  0  0  0  0  0  0  0  0
    1.6356    0.5738    4.9150 C   0  0  0  0  0  0  0  0  0  0  0  0
    2.1944    1.8221    4.6152 C   0  0  0  0  0  0  0  0  0  0  0  0
    3.9284    2.1509    4.9546 S   0  0  0  0  0  0  0  0  0  0  0  0
    4.4845    2.0438    3.2199 C   0  0  0  0  0  0  0  0  0  0  0  0
    1.3760    2.8471    4.1326 C   0  0  0  0  0  0  0  0  0  0  0  0
    0.0179    2.6131    3.9076 C   0  0  0  0  0  0  0  0  0  0  0  0
   -2.8207    1.7085    5.0051 C   0  0  0  0  0  0  0  0  0  0  0  0
   -3.2278    0.9178    6.0895 C   0  0  0  0  0  0  0  0  0  0  0  0
   -4.0923    1.4410    7.0553 C   0  0  0  0  0  0  0  0  0  0  0  0
   -4.5592    2.7565    6.9419 C   0  0  0  0  0  0  0  0  0  0  0  0
   -5.6886    3.4203    8.1653 S   0  0  0  0  0  0  0  0  0  0  0  0
   -4.3530    4.0291    9.2408 C   0  0  0  0  0  0  0  0  0  0  0  0
   -4.1495    3.5501    5.8634 C   0  0  0  0  0  0  0  0  0  0  0  0
   -3.2804    3.0301    4.9015 C   0  0  0  0  0  0  0  0  0  0  0  0
   -2.3525   -0.9706    2.6964 C   0  0  0  0  0  0  0  0  0  0  0  0
   -0.9417   -1.8585    2.6450 S   0  0  0  0  0  0  0  0  0  0  0  0
   -1.4833   -3.0528    1.5567 C   0  0  0  0  0  0  0  0  0  0  0  0
   -2.8183   -2.7453    1.2297 C   0  0  0  0  0  0  0  0  0  0  0  0
   -3.7489   -3.6584    0.6139 N   0  0  0  0  0  0  0  0  0  0  0  0
   -3.4471   -4.3407   -0.6090 C   0  0  0  0  0  0  0  0  0  0  0  0
   -3.1799   -5.7175   -0.5901 C   0  0  0  0  0  0  0  0  0  0  0  0
   -2.9482   -6.4030   -1.7840 C   0  0  0  0  0  0  0  0  0  0  0  0
   -2.9825   -5.7171   -3.0048 C   0  0  0  0  0  0  0  0  0  0  0  0
   -2.7056   -6.6090   -4.5370 S   0  0  0  0  0  0  0  0  0  0  0  0
   -0.8976   -6.4184   -4.4628 C   0  0  0  0  0  0  0  0  0  0  0  0
   -3.2614   -4.3448   -3.0281 C   0  0  0  0  0  0  0  0  0  0  0  0
   -3.5007   -3.6585   -1.8325 C   0  0  0  0  0  0  0  0  0  0  0  0
   -4.9838   -3.9622    1.2942 C   0  0  0  0  0  0  0  0  0  0  0  0
   -6.1883   -4.0554    0.5762 C   0  0  0  0  0  0  0  0  0  0  0  0
   -7.3933   -4.2805    1.2467 C   0  0  0  0  0  0  0  0  0  0  0  0
   -7.4071   -4.4124    2.6396 C   0  0  0  0  0  0  0  0  0  0  0  0
   -8.9627   -4.6327    3.5022 S   0  0  0  0  0  0  0  0  0  0  0  0
   -9.2628   -2.8433    3.6511 C   0  0  0  0  0  0  0  0  0  0  0  0
   -6.2084   -4.3609    3.3583 C   0  0  0  0  0  0  0  0  0  0  0  0
   -5.0025   -4.1399    2.6907 C   0  0  0  0  0  0  0  0  0  0  0  0
   -3.2408   -1.5668    1.8521 C   0  0  0  0  0  0  0  0  0  0  0  0
   -4.3225   -0.4178    1.2944 S   0  0  0  0  0  0  0  0  0  0  0  0
   -0.5108   -3.7001    0.6548 C   0  0  0  0  0  0  0  0  0  0  0  0
    0.7974   -4.0349    1.0636 C   0  0  0  0  0  0  0  0  0  0  0  0
    1.1307   -4.3814    2.4263 N   0  0  0  0  0  0  0  0  0  0  0  0
    2.2799   -3.8093    3.0845 C   0  0  0  0  0  0  0  0  0  0  0  0
    3.1023   -4.6068    3.8981 C   0  0  0  0  0  0  0  0  0  0  0  0
    4.1918   -4.0459    4.5711 C   0  0  0  0  0  0  0  0  0  0  0  0
    4.4665   -2.6759    4.4451 C   0  0  0  0  0  0  0  0  0  0  0  0
    5.6339   -2.0591    5.1569 C   0  0  0  0  0  0  0  0  0  0  0  0
    3.6662   -1.8876    3.6111 C   0  0  0  0  0  0  0  0  0  0  0  0
    2.5694   -2.4421    2.9517 C   0  0  0  0  0  0  0  0  0  0  0  0
    0.2359   -5.2494    3.1603 C   0  0  0  0  0  0  0  0  0  0  0  0
   -0.0638   -4.9938    4.5109 C   0  0  0  0  0  0  0  0  0  0  0  0
   -0.9544   -5.8173    5.2064 C   0  0  0  0  0  0  0  0  0  0  0  0
   -1.5762   -6.8951    4.5597 C   0  0  0  0  0  0  0  0  0  0  0  0
   -2.5091   -7.7968    5.3098 C   0  0  0  0  0  0  0  0  0  0  0  0
   -1.2724   -7.1585    3.2167 C   0  0  0  0  0  0  0  0  0  0  0  0
   -0.3764   -6.3441    2.5232 C   0  0  0  0  0  0  0  0  0  0  0  0
    1.7301   -3.8603    0.0266 C   0  0  0  0  0  0  0  0  0  0  0  0
    3.3854   -3.5765    0.0222 S   0  0  0  0  0  0  0  0  0  0  0  0
    3.4173   -2.8897   -1.5330 C   0  0  0  0  0  0  0  0  0  0  0  0
    2.1210   -2.9188   -2.0848 C   0  0  0  0  0  0  0  0  0  0  0  0
    1.7933   -2.3884   -3.3960 N   0  0  0  0  0  0  0  0  0  0  0  0
    2.7340   -2.5298   -4.4810 C   0  0  0  0  0  0  0  0  0  0  0  0
    2.9330   -1.4715   -5.3854 C   0  0  0  0  0  0  0  0  0  0  0  0
    3.7944   -1.6260   -6.4758 C   0  0  0  0  0  0  0  0  0  0  0  0
    4.4794   -2.8346   -6.6715 C   0  0  0  0  0  0  0  0  0  0  0  0
    5.3558   -3.0169   -7.8750 C   0  0  0  0  0  0  0  0  0  0  0  0
    4.2840   -3.8927   -5.7720 C   0  0  0  0  0  0  0  0  0  0  0  0
    3.4171   -3.7416   -4.6842 C   0  0  0  0  0  0  0  0  0  0  0  0
    0.4897   -1.8532   -3.6981 C   0  0  0  0  0  0  0  0  0  0  0  0
   -0.0137   -0.7492   -2.9935 C   0  0  0  0  0  0  0  0  0  0  0  0
   -1.2555   -0.2032   -3.3289 C   0  0  0  0  0  0  0  0  0  0  0  0
   -2.0093   -0.7477   -4.3801 C   0  0  0  0  0  0  0  0  0  0  0  0
   -3.3123   -0.1261   -4.7844 C   0  0  0  0  0  0  0  0  0  0  0  0
   -1.4935   -1.8304   -5.1062 C   0  0  0  0  0  0  0  0  0  0  0  0
   -0.2544   -2.3791   -4.7663 C   0  0  0  0  0  0  0  0  0  0  0  0
    1.2075   -3.4542   -1.1683 C   0  0  0  0  0  0  0  0  0  0  0  0
   -0.4365   -3.2571   -0.9846 S   0  0  0  0  0  0  0  0  0  0  0  0
    4.4438   -1.9122   -1.9293 C   0  0  0  0  0  0  0  0  0  0  0  0
    4.2307   -0.5821   -1.8276 C   0  0  0  0  0  0  0  0  0  0  0  0
    3.1234    0.0388   -1.0760 C   0  0  0  0  0  0  0  0  0  0  0  0
    2.2774   -0.5574   -0.3565 O   0  0  0  0  0  0  0  0  0  0  0  0
    3.2586    1.4700   -1.1381 C   0  0  0  0  0  0  0  0  0  0  0  0
    2.3746    2.4292   -0.5878 C   0  0  0  0  0  0  0  0  0  0  0  0
    2.8017    3.7324   -0.7383 C   0  0  0  0  0  0  0  0  0  0  0  0
    4.0448    4.0788   -1.3569 C   0  0  0  0  0  0  0  0  0  0  0  0
    4.9162    3.1428   -1.8907 C   0  0  0  0  0  0  0  0  0  0  0  0
    4.4630    1.7945   -1.8123 C   0  0  0  0  0  0  0  0  0  0  0  0
    5.0781    0.5413   -2.3517 C   0  0  0  0  0  0  0  0  0  0  0  0
    6.0295    0.4683   -3.3229 C   0  0  0  0  0  0  0  0  0  0  0  0
    6.6511    1.6346   -3.8892 C   0  0  0  0  0  0  0  0  0  0  0  0
    7.1579    2.5635   -4.3600 N   0  0  0  0  0  0  0  0  0  0  0  0
    6.3765   -0.7606   -3.9833 C   0  0  0  0  0  0  0  0  0  0  0  0
    6.6623   -1.7342   -4.5344 N   0  0  0  0  0  0  0  0  0  0  0  0
    3.7953    5.5336   -1.0834 C   0  0  0  0  0  0  0  0  0  0  0  0
    4.6029    6.1704    0.0878 C   0  0  0  0  0  0  0  0  0  0  0  0
    3.9098    7.4712    0.4145 C   0  0  0  0  0  0  0  0  0  0  0  0
    2.7374    7.1471    0.9749 C   0  0  0  0  0  0  0  0  0  0  0  0
    2.6862    5.6380    1.0168 C   0  0  0  0  0  0  0  0  0  0  0  0
    4.1537    5.3631    1.2931 C   0  0  0  0  0  0  0  0  0  0  0  0
    2.5159    5.1776   -0.4604 C   0  0  0  0  0  0  0  0  0  0  0  0
   -3.9759    6.1800   -1.3409 H   0  0  0  0  0  0  0  0  0  0  0  0
    0.5161    2.4455   -3.7216 H   0  0  0  0  0  0  0  0  0  0  0  0
   -0.4161    7.0386   -5.7303 H   0  0  0  0  0  0  0  0  0  0  0  0
    1.0044    4.8364   -7.9880 H   0  0  0  0  0  0  0  0  0  0  0  0
    3.0189    6.4297   -7.7304 H   0  0  0  0  0  0  0  0  0  0  0  0
    3.6588    6.7448   -5.1742 H   0  0  0  0  0  0  0  0  0  0  0  0
    4.1478    4.4048   -4.1702 H   0  0  0  0  0  0  0  0  0  0  0  0
    3.8198    2.5812   -6.0589 H   0  0  0  0  0  0  0  0  0  0  0  0
    4.8881    4.5816   -7.4222 H   0  0  0  0  0  0  0  0  0  0  0  0
    3.5058    3.8762   -8.3780 H   0  0  0  0  0  0  0  0  0  0  0  0
    1.4458    2.7113   -7.0662 H   0  0  0  0  0  0  0  0  0  0  0  0
   -5.5711    4.2068   -0.4608 H   0  0  0  0  0  0  0  0  0  0  0  0
   -5.7573    2.2729    1.0690 H   0  0  0  0  0  0  0  0  0  0  0  0
   -1.5042    2.4945    1.7148 H   0  0  0  0  0  0  0  0  0  0  0  0
   -0.1602   -0.6024    5.0030 H   0  0  0  0  0  0  0  0  0  0  0  0
    2.2462   -0.2036    5.3533 H   0  0  0  0  0  0  0  0  0  0  0  0
    5.2247    2.8503    3.0368 H   0  0  0  0  0  0  0  0  0  0  0  0
    3.6477    2.1584    2.4991 H   0  0  0  0  0  0  0  0  0  0  0  0
    4.9923    1.0753    3.0457 H   0  0  0  0  0  0  0  0  0  0  0  0
    1.7875    3.8300    3.9411 H   0  0  0  0  0  0  0  0  0  0  0  0
   -0.6024    3.4341    3.5767 H   0  0  0  0  0  0  0  0  0  0  0  0
   -2.8740   -0.1021    6.1797 H   0  0  0  0  0  0  0  0  0  0  0  0
   -4.3993    0.8263    7.8906 H   0  0  0  0  0  0  0  0  0  0  0  0
   -3.7196    4.7561    8.6893 H   0  0  0  0  0  0  0  0  0  0  0  0
   -4.7969    4.5362   10.1221 H   0  0  0  0  0  0  0  0  0  0  0  0
   -3.7301    3.1790    9.5891 H   0  0  0  0  0  0  0  0  0  0  0  0
   -4.5008    4.5703    5.7713 H   0  0  0  0  0  0  0  0  0  0  0  0
   -2.9800    3.6512    4.0680 H   0  0  0  0  0  0  0  0  0  0  0  0
   -3.1573   -6.2543    0.3503 H   0  0  0  0  0  0  0  0  0  0  0  0
   -2.7440   -7.4659   -1.7610 H   0  0  0  0  0  0  0  0  0  0  0  0
   -0.5035   -6.8377   -3.5126 H   0  0  0  0  0  0  0  0  0  0  0  0
   -0.6271   -5.3458   -4.5389 H   0  0  0  0  0  0  0  0  0  0  0  0
   -0.4424   -6.9665   -5.3135 H   0  0  0  0  0  0  0  0  0  0  0  0
   -3.3000   -3.8122   -3.9679 H   0  0  0  0  0  0  0  0  0  0  0  0
   -3.7233   -2.5998   -1.8549 H   0  0  0  0  0  0  0  0  0  0  0  0
   -6.1966   -3.9265   -0.4984 H   0  0  0  0  0  0  0  0  0  0  0  0
   -8.3158   -4.3299    0.6849 H   0  0  0  0  0  0  0  0  0  0  0  0
   -9.3420   -2.3862    2.6426 H   0  0  0  0  0  0  0  0  0  0  0  0
  -10.2149   -2.6790    4.1974 H   0  0  0  0  0  0  0  0  0  0  0  0
   -8.4349   -2.3589    4.2123 H   0  0  0  0  0  0  0  0  0  0  0  0
   -6.2089   -4.4787    4.4338 H   0  0  0  0  0  0  0  0  0  0  0  0
   -4.0845   -4.0949    3.2623 H   0  0  0  0  0  0  0  0  0  0  0  0
    2.8973   -5.6631    4.0083 H   0  0  0  0  0  0  0  0  0  0  0  0
    4.8109   -4.6780    5.1939 H   0  0  0  0  0  0  0  0  0  0  0  0
    6.4567   -1.8809    4.4333 H   0  0  0  0  0  0  0  0  0  0  0  0
    5.3338   -1.0896    5.6108 H   0  0  0  0  0  0  0  0  0  0  0  0
    6.0060   -2.7198    5.9692 H   0  0  0  0  0  0  0  0  0  0  0  0
    3.8750   -0.8360    3.4883 H   0  0  0  0  0  0  0  0  0  0  0  0
    1.9532   -1.8046    2.3300 H   0  0  0  0  0  0  0  0  0  0  0  0
    0.3817   -4.1499    5.0247 H   0  0  0  0  0  0  0  0  0  0  0  0
   -1.1617   -5.6105    6.2506 H   0  0  0  0  0  0  0  0  0  0  0  0
   -3.3373   -8.1278    4.6496 H   0  0  0  0  0  0  0  0  0  0  0  0
   -1.9526   -8.6873    5.6672 H   0  0  0  0  0  0  0  0  0  0  0  0
   -2.9526   -7.2726    6.1820 H   0  0  0  0  0  0  0  0  0  0  0  0
   -1.7286   -7.9966    2.7066 H   0  0  0  0  0  0  0  0  0  0  0  0
   -0.1554   -6.5669    1.4867 H   0  0  0  0  0  0  0  0  0  0  0  0
    2.4138   -0.5315   -5.2487 H   0  0  0  0  0  0  0  0  0  0  0  0
    3.9222   -0.8054   -7.1704 H   0  0  0  0  0  0  0  0  0  0  0  0
    5.8856   -2.0711   -8.1160 H   0  0  0  0  0  0  0  0  0  0  0  0
    6.1177   -3.8024   -7.6960 H   0  0  0  0  0  0  0  0  0  0  0  0
    4.7303   -3.3116   -8.7423 H   0  0  0  0  0  0  0  0  0  0  0  0
    4.7898   -4.8375   -5.9179 H   0  0  0  0  0  0  0  0  0  0  0  0
    3.2586   -4.5786   -4.0162 H   0  0  0  0  0  0  0  0  0  0  0  0
    0.5577   -0.3037   -2.1951 H   0  0  0  0  0  0  0  0  0  0  0  0
   -1.6262    0.6496   -2.7770 H   0  0  0  0  0  0  0  0  0  0  0  0
   -3.7693    0.4278   -3.9365 H   0  0  0  0  0  0  0  0  0  0  0  0
   -4.0295   -0.9112   -5.1094 H   0  0  0  0  0  0  0  0  0  0  0  0
   -3.1414    0.5771   -5.6266 H   0  0  0  0  0  0  0  0  0  0  0  0
   -2.0464   -2.2474   -5.9399 H   0  0  0  0  0  0  0  0  0  0  0  0
    0.1358   -3.2054   -5.3454 H   0  0  0  0  0  0  0  0  0  0  0  0
    5.3736   -2.3103   -2.2964 H   0  0  0  0  0  0  0  0  0  0  0  0
    1.4538    2.1689   -0.0798 H   0  0  0  0  0  0  0  0  0  0  0  0
    5.8567    3.4507   -2.3110 H   0  0  0  0  0  0  0  0  0  0  0  0
    3.7098    6.1530   -2.0052 H   0  0  0  0  0  0  0  0  0  0  0  0
    5.7010    6.2381   -0.0660 H   0  0  0  0  0  0  0  0  0  0  0  0
    4.3122    8.4758    0.3183 H   0  0  0  0  0  0  0  0  0  0  0  0
    2.0220    7.8436    1.4055 H   0  0  0  0  0  0  0  0  0  0  0  0
    1.9639    5.2075    1.7406 H   0  0  0  0  0  0  0  0  0  0  0  0
    4.4318    4.2880    1.2454 H   0  0  0  0  0  0  0  0  0  0  0  0
    4.5093    5.7837    2.2656 H   0  0  0  0  0  0  0  0  0  0  0  0
    1.6166    5.5660   -0.9899 H   0  0  0  0  0  0  0  0  0  0  0  0
  1  2  2  3
  2  3  1  0
  3  4  2  0
  3  5  1  0
  5  6  2  0
  6  7  1  0
  7  8  2  0
  8  9  1  0
  9 10  2  0
 10 11  1  0
 11 12  2  3
 12 13  1  0
 13 14  3  0
 12 15  1  0
 15 16  3  0
  8 17  1  0
 17 18  1  0
 18 19  1  0
 19 20  2  0
 20 21  1  0
 21 22  1  0
 21 23  1  0
  1 24  1  0
 24 25  2  0
 25 26  1  0
 26 27  2  0
 27 28  1  0
 28 29  2  0
 27 30  1  0
 30 31  2  0
 31 32  1  0
 32 33  1  0
 33 34  2  0
 34 35  1  0
 35 36  2  0
 36 37  1  0
 37 38  1  0
 36 39  1  0
 39 40  2  0
 32 41  1  0
 41 42  2  0
 42 43  1  0
 43 44  2  0
 44 45  1  0
 45 46  1  0
 44 47  1  0
 47 48  2  0
 31 49  1  0
 49 50  1  0
 50 51  1  0
 51 52  2  0
 52 53  1  0
 53 54  1  0
 54 55  2  0
 55 56  1  0
 56 57  2  0
 57 58  1  0
 58 59  1  0
 57 60  1  0
 60 61  2  0
 53 62  1  0
 62 63  2  0
 63 64  1  0
 64 65  2  0
 65 66  1  0
 66 67  1  0
 65 68  1  0
 68 69  2  0
 52 70  1  0
 70 71  1  0
 51 72  1  0
 72 73  2  0
 73 74  1  0
 74 75  1  0
 75 76  2  0
 76 77  1  0
 77 78  2  0
 78 79  1  0
 78 80  1  0
 80 81  2  0
 74 82  1  0
 82 83  2  0
 83 84  1  0
 84 85  2  0
 85 86  1  0
 85 87  1  0
 87 88  2  0
 73 89  1  0
 89 90  1  0
 90 91  1  0
 91 92  2  0
 92 93  1  0
 93 94  1  0
 94 95  2  0
 95 96  1  0
 96 97  2  0
 97 98  1  0
 97 99  1  0
 99100  2  0
 93101  1  0
101102  2  0
102103  1  0
103104  2  0
104105  1  0
104106  1  0
106107  2  0
 92108  1  0
108109  1  0
 91110  1  0
110111  2  3
111112  1  0
112113  2  0
112114  1  0
114115  2  0
115116  1  0
116117  2  0
117118  1  0
118119  2  0
119120  1  0
120121  2  3
121122  1  0
122123  3  0
121124  1  0
124125  3  0
117126  1  0
126127  1  0
127128  1  0
128129  2  0
129130  1  0
130131  1  0
130132  1  0
 11  2  1  0
 23 17  1  0
 29 24  1  0
 71 30  1  0
109 72  1  0
120111  1  0
132126  1  0
 10  5  1  0
 22 18  1  0
 40 33  1  0
 48 41  1  0
 70 49  2  0
 81 75  1  0
 88 82  1  0
108 89  2  0
119114  1  0
131127  1  0
 23  7  1  0
 61 54  1  0
 69 62  1  0
100 94  1  0
107101  1  0
132116  1  0
  1133  1  0
  6134  1  0
  9135  1  0
 17136  1  0
 18137  1  0
 19138  1  0
 20139  1  0
 21140  1  0
 22141  1  0
 22142  1  0
 23143  1  0
 25144  1  0
 26145  1  0
 28146  1  0
 34147  1  0
 35148  1  0
 38149  1  0
 38150  1  0
 38151  1  0
 39152  1  0
 40153  1  0
 42154  1  0
 43155  1  0
 46156  1  0
 46157  1  0
 46158  1  0
 47159  1  0
 48160  1  0
 55161  1  0
 56162  1  0
 59163  1  0
 59164  1  0
 59165  1  0
 60166  1  0
 61167  1  0
 63168  1  0
 64169  1  0
 67170  1  0
 67171  1  0
 67172  1  0
 68173  1  0
 69174  1  0
 76175  1  0
 77176  1  0
 79177  1  0
 79178  1  0
 79179  1  0
 80180  1  0
 81181  1  0
 83182  1  0
 84183  1  0
 86184  1  0
 86185  1  0
 86186  1  0
 87187  1  0
 88188  1  0
 95189  1  0
 96190  1  0
 98191  1  0
 98192  1  0
 98193  1  0
 99194  1  0
100195  1  0
102196  1  0
103197  1  0
105198  1  0
105199  1  0
105200  1  0
106201  1  0
107202  1  0
110203  1  0
115204  1  0
118205  1  0
126206  1  0
127207  1  0
128208  1  0
129209  1  0
130210  1  0
131211  1  0
131212  1  0
132213  1  0
M  END

