
     RDKit          3D

236259  0  0  0  0  0  0  0  0999 V2000
    0.7617   -5.4023    5.2400 C   0  0  0  0  0  0  0  0  0  0  0  0
    1.1233   -4.2557    5.8628 C   0  0  0  0  0  0  0  0  0  0  0  0
    1.1989   -2.9319    5.2135 C   0  0  0  0  0  0  0  0  0  0  0  0
    0.5554   -2.5616    4.1972 O   0  0  0  0  0  0  0  0  0  0  0  0
    2.1432   -2.1162    5.9349 C   0  0  0  0  0  0  0  0  0  0  0  0
    2.6487   -0.8677    5.5208 C   0  0  0  0  0  0  0  0  0  0  0  0
    3.6678   -0.3870    6.3175 C   0  0  0  0  0  0  0  0  0  0  0  0
    4.1757   -1.1026    7.4477 C   0  0  0  0  0  0  0  0  0  0  0  0
    3.6858   -2.3383    7.8547 C   0  0  0  0  0  0  0  0  0  0  0  0
    2.6142   -2.8325    7.0634 C   0  0  0  0  0  0  0  0  0  0  0  0
    1.8894   -4.1374    7.1370 C   0  0  0  0  0  0  0  0  0  0  0  0
    1.8112   -4.9715    8.2062 C   0  0  0  0  0  0  0  0  0  0  0  0
    2.5932   -4.7686    9.3969 C   0  0  0  0  0  0  0  0  0  0  0  0
    3.2579   -4.6214   10.3497 N   0  0  0  0  0  0  0  0  0  0  0  0
    0.8818   -6.0626    8.2650 C   0  0  0  0  0  0  0  0  0  0  0  0
    0.1221   -6.9397    8.3167 N   0  0  0  0  0  0  0  0  0  0  0  0
    5.1889   -0.0211    7.6933 C   0  0  0  0  0  0  0  0  0  0  0  0
    4.9497    0.9685    8.8858 C   0  0  0  0  0  0  0  0  0  0  0  0
    3.4646    1.1434    9.1275 C   0  0  0  0  0  0  0  0  0  0  0  0
    2.9955    1.8073    8.0726 C   0  0  0  0  0  0  0  0  0  0  0  0
    4.1714    2.0592    7.1504 C   0  0  0  0  0  0  0  0  0  0  0  0
    5.2481    2.2892    8.1923 C   0  0  0  0  0  0  0  0  0  0  0  0
    4.6674    0.7085    6.5352 C   0  0  0  0  0  0  0  0  0  0  0  0
    0.6230   -5.4570    3.7757 C   0  0  0  0  0  0  0  0  0  0  0  0
   -0.5688   -5.6025    3.0376 C   0  0  0  0  0  0  0  0  0  0  0  0
   -1.8610   -5.9077    3.5912 N   0  0  0  0  0  0  0  0  0  0  0  0
   -2.6801   -6.8920    2.9327 C   0  0  0  0  0  0  0  0  0  0  0  0
   -4.0086   -6.5960    2.5780 C   0  0  0  0  0  0  0  0  0  0  0  0
   -4.7910   -7.5448    1.9132 C   0  0  0  0  0  0  0  0  0  0  0  0
   -4.2564   -8.8000    1.5977 C   0  0  0  0  0  0  0  0  0  0  0  0
   -5.2986  -10.0311    0.8178 S   0  0  0  0  0  0  0  0  0  0  0  0
   -4.8874   -9.5207   -0.8764 C   0  0  0  0  0  0  0  0  0  0  0  0
   -2.9296   -9.0950    1.9207 C   0  0  0  0  0  0  0  0  0  0  0  0
   -2.1454   -8.1480    2.6005 C   0  0  0  0  0  0  0  0  0  0  0  0
   -2.4332   -5.0709    4.6109 C   0  0  0  0  0  0  0  0  0  0  0  0
   -3.0687   -5.6623    5.7128 C   0  0  0  0  0  0  0  0  0  0  0  0
   -3.7230   -4.8674    6.6654 C   0  0  0  0  0  0  0  0  0  0  0  0
   -3.7503   -3.4749    6.5034 C   0  0  0  0  0  0  0  0  0  0  0  0
   -4.6573   -2.4767    7.6847 S   0  0  0  0  0  0  0  0  0  0  0  0
   -6.2383   -2.6277    6.7875 C   0  0  0  0  0  0  0  0  0  0  0  0
   -3.0964   -2.8789    5.4184 C   0  0  0  0  0  0  0  0  0  0  0  0
   -2.4461   -3.6694    4.4726 C   0  0  0  0  0  0  0  0  0  0  0  0
   -0.3705   -5.2806    1.6932 C   0  0  0  0  0  0  0  0  0  0  0  0
   -1.4199   -4.7172    0.5214 S   0  0  0  0  0  0  0  0  0  0  0  0
   -0.2299   -3.9530   -0.4287 C   0  0  0  0  0  0  0  0  0  0  0  0
    1.0240   -4.1562    0.1998 C   0  0  0  0  0  0  0  0  0  0  0  0
    2.3046   -3.6593   -0.2542 N   0  0  0  0  0  0  0  0  0  0  0  0
    2.4920   -2.2763   -0.6067 C   0  0  0  0  0  0  0  0  0  0  0  0
    2.0102   -1.2518    0.2270 C   0  0  0  0  0  0  0  0  0  0  0  0
    2.2224    0.0915   -0.1109 C   0  0  0  0  0  0  0  0  0  0  0  0
    2.9665    0.4212   -1.2499 C   0  0  0  0  0  0  0  0  0  0  0  0
    3.2665    2.1416   -1.6685 S   0  0  0  0  0  0  0  0  0  0  0  0
    1.9427    2.1979   -2.9219 C   0  0  0  0  0  0  0  0  0  0  0  0
    3.5126   -0.5946   -2.0389 C   0  0  0  0  0  0  0  0  0  0  0  0
    3.2784   -1.9367   -1.7211 C   0  0  0  0  0  0  0  0  0  0  0  0
    3.4545   -4.5205   -0.0958 C   0  0  0  0  0  0  0  0  0  0  0  0
    4.6353   -4.0346    0.5037 C   0  0  0  0  0  0  0  0  0  0  0  0
    5.6729   -4.9044    0.8278 C   0  0  0  0  0  0  0  0  0  0  0  0
    5.5571   -6.2746    0.5552 C   0  0  0  0  0  0  0  0  0  0  0  0
    6.8881   -7.3848    0.9886 S   0  0  0  0  0  0  0  0  0  0  0  0
    6.1924   -7.7747    2.6275 C   0  0  0  0  0  0  0  0  0  0  0  0
    4.4028   -6.7652   -0.0575 C   0  0  0  0  0  0  0  0  0  0  0  0
    3.3616   -5.8907   -0.3951 C   0  0  0  0  0  0  0  0  0  0  0  0
    0.8874   -4.9016    1.3726 C   0  0  0  0  0  0  0  0  0  0  0  0
    1.8786   -4.9995    2.7239 S   0  0  0  0  0  0  0  0  0  0  0  0
   -0.6099   -2.7329   -1.1386 C   0  0  0  0  0  0  0  0  0  0  0  0
   -1.1211   -2.6603   -2.4489 C   0  0  0  0  0  0  0  0  0  0  0  0
   -0.9131   -3.6581   -3.4598 N   0  0  0  0  0  0  0  0  0  0  0  0
   -1.9500   -3.9950   -4.3924 C   0  0  0  0  0  0  0  0  0  0  0  0
   -3.1380   -4.5842   -3.9305 C   0  0  0  0  0  0  0  0  0  0  0  0
   -4.1096   -5.0040   -4.8482 C   0  0  0  0  0  0  0  0  0  0  0  0
   -3.8986   -4.8451   -6.2231 C   0  0  0  0  0  0  0  0  0  0  0  0
   -5.1211   -5.4555   -7.3844 S   0  0  0  0  0  0  0  0  0  0  0  0
   -6.0184   -3.8692   -7.5150 C   0  0  0  0  0  0  0  0  0  0  0  0
   -2.7318   -4.2403   -6.6820 C   0  0  0  0  0  0  0  0  0  0  0  0
   -1.7563   -3.8092   -5.7730 C   0  0  0  0  0  0  0  0  0  0  0  0
    0.3864   -4.2336   -3.6516 C   0  0  0  0  0  0  0  0  0  0  0  0
    0.5924   -5.6001   -3.4483 C   0  0  0  0  0  0  0  0  0  0  0  0
    1.8249   -6.1893   -3.7700 C   0  0  0  0  0  0  0  0  0  0  0  0
    2.8447   -5.4090   -4.3211 C   0  0  0  0  0  0  0  0  0  0  0  0
    4.3448   -6.1808   -4.9436 S   0  0  0  0  0  0  0  0  0  0  0  0
    5.2473   -6.0922   -3.3688 C   0  0  0  0  0  0  0  0  0  0  0  0
    2.6488   -4.0297   -4.5044 C   0  0  0  0  0  0  0  0  0  0  0  0
    1.4303   -3.4444   -4.1598 C   0  0  0  0  0  0  0  0  0  0  0  0
   -1.8555   -1.4782   -2.6369 C   0  0  0  0  0  0  0  0  0  0  0  0
   -2.7233   -0.7615   -3.8974 S   0  0  0  0  0  0  0  0  0  0  0  0
   -3.2154    0.6042   -2.9777 C   0  0  0  0  0  0  0  0  0  0  0  0
   -2.6538    0.4994   -1.6791 C   0  0  0  0  0  0  0  0  0  0  0  0
   -2.7003    1.4955   -0.6313 N   0  0  0  0  0  0  0  0  0  0  0  0
   -1.5868    2.4113   -0.5229 C   0  0  0  0  0  0  0  0  0  0  0  0
   -1.3182    3.3461   -1.5421 C   0  0  0  0  0  0  0  0  0  0  0  0
   -0.2752    4.2672   -1.3917 C   0  0  0  0  0  0  0  0  0  0  0  0
    0.5209    4.2570   -0.2489 C   0  0  0  0  0  0  0  0  0  0  0  0
    1.8778    5.4308   -0.1019 S   0  0  0  0  0  0  0  0  0  0  0  0
    0.8436    6.7468    0.6156 C   0  0  0  0  0  0  0  0  0  0  0  0
    0.2675    3.3293    0.7642 C   0  0  0  0  0  0  0  0  0  0  0  0
   -0.7765    2.4117    0.6290 C   0  0  0  0  0  0  0  0  0  0  0  0
   -3.5951    1.3288    0.5044 C   0  0  0  0  0  0  0  0  0  0  0  0
   -4.2399    0.0962    0.7676 C   0  0  0  0  0  0  0  0  0  0  0  0
   -5.1557   -0.0170    1.8189 C   0  0  0  0  0  0  0  0  0  0  0  0
   -5.4322    1.0874    2.6368 C   0  0  0  0  0  0  0  0  0  0  0  0
   -6.7173    0.9759    3.8937 S   0  0  0  0  0  0  0  0  0  0  0  0
   -5.5581    0.4877    5.2064 C   0  0  0  0  0  0  0  0  0  0  0  0
   -4.7738    2.2963    2.4128 C   0  0  0  0  0  0  0  0  0  0  0  0
   -3.8641    2.4187    1.3570 C   0  0  0  0  0  0  0  0  0  0  0  0
   -1.9215   -0.6719   -1.5496 C   0  0  0  0  0  0  0  0  0  0  0  0
   -1.1128   -1.3665   -0.2646 S   0  0  0  0  0  0  0  0  0  0  0  0
   -3.8632    1.8033   -3.5644 C   0  0  0  0  0  0  0  0  0  0  0  0
   -4.5974    2.7727   -2.8525 C   0  0  0  0  0  0  0  0  0  0  0  0
   -5.4875    2.5105   -1.7143 C   0  0  0  0  0  0  0  0  0  0  0  0
   -5.8652    1.3285   -1.4878 O   0  0  0  0  0  0  0  0  0  0  0  0
   -5.9899    3.5796   -0.9530 O   0  0  0  0  0  0  0  0  0  0  0  0
   -7.0580    3.4032   -0.0240 C   0  0  0  0  0  0  0  0  0  0  0  0
   -7.2552    4.6767    0.7757 C   0  0  0  0  0  0  0  0  0  0  0  0
   -4.5169    4.0042   -3.5083 C   0  0  0  0  0  0  0  0  0  0  0  0
   -3.8958    4.0004   -4.7168 C   0  0  0  0  0  0  0  0  0  0  0  0
   -3.2960    2.4687   -5.0252 S   0  0  0  0  0  0  0  0  0  0  0  0
   -3.5847    5.2541   -5.2397 C   0  0  0  0  0  0  0  0  0  0  0  0
   -3.0088    5.4649   -6.5877 C   0  0  0  0  0  0  0  0  0  0  0  0
   -2.8724    6.6312   -7.0466 O   0  0  0  0  0  0  0  0  0  0  0  0
   -2.6939    4.3549   -7.3772 O   0  0  0  0  0  0  0  0  0  0  0  0
   -2.2393    4.4505   -8.7252 C   0  0  0  0  0  0  0  0  0  0  0  0
   -0.7936    4.9295   -8.7870 C   0  0  0  0  0  0  0  0  0  0  0  0
   -3.8732    6.2717   -4.3037 C   0  0  0  0  0  0  0  0  0  0  0  0
   -4.6333    5.5849   -2.9410 S   0  0  0  0  0  0  0  0  0  0  0  0
   -3.3120    7.6405   -4.2661 C   0  0  0  0  0  0  0  0  0  0  0  0
   -1.9841    7.9050   -4.3743 C   0  0  0  0  0  0  0  0  0  0  0  0
   -0.9398    6.9147   -4.7226 C   0  0  0  0  0  0  0  0  0  0  0  0
   -0.9167    5.7295   -4.3157 O   0  0  0  0  0  0  0  0  0  0  0  0
    0.2537    7.6265   -5.1551 C   0  0  0  0  0  0  0  0  0  0  0  0
    1.5043    7.0557   -5.4799 C   0  0  0  0  0  0  0  0  0  0  0  0
    2.5582    7.9427   -5.3904 C   0  0  0  0  0  0  0  0  0  0  0  0
    2.4041    9.2976   -4.9414 C   0  0  0  0  0  0  0  0  0  0  0  0
    1.1695    9.8877   -4.7330 C   0  0  0  0  0  0  0  0  0  0  0  0
    0.0658    9.0077   -4.9156 C   0  0  0  0  0  0  0  0  0  0  0  0
   -1.3307    9.2451   -4.4877 C   0  0  0  0  0  0  0  0  0  0  0  0
   -1.9155   10.4495   -4.3778 C   0  0  0  0  0  0  0  0  0  0  0  0
   -3.0430   10.6782   -3.5141 C   0  0  0  0  0  0  0  0  0  0  0  0
   -3.9409   10.8610   -2.8066 N   0  0  0  0  0  0  0  0  0  0  0  0
   -1.4694   11.5542   -5.1943 C   0  0  0  0  0  0  0  0  0  0  0  0
   -1.1682   12.4105   -5.9136 N   0  0  0  0  0  0  0  0  0  0  0  0
    3.8940    9.4352   -4.8173 C   0  0  0  0  0  0  0  0  0  0  0  0
    4.5376    9.2668   -3.4069 C   0  0  0  0  0  0  0  0  0  0  0  0
    3.7872    8.2480   -2.5741 C   0  0  0  0  0  0  0  0  0  0  0  0
    4.0140    7.0543   -3.1393 C   0  0  0  0  0  0  0  0  0  0  0  0
    4.8760    7.3158   -4.3413 C   0  0  0  0  0  0  0  0  0  0  0  0
    5.7447    8.4283   -3.7911 C   0  0  0  0  0  0  0  0  0  0  0  0
    4.0556    8.1025   -5.4166 C   0  0  0  0  0  0  0  0  0  0  0  0
    0.8159   -6.3542    5.7538 H   0  0  0  0  0  0  0  0  0  0  0  0
    2.3047   -0.3428    4.6408 H   0  0  0  0  0  0  0  0  0  0  0  0
    4.1425   -2.8594    8.6748 H   0  0  0  0  0  0  0  0  0  0  0  0
    6.2442   -0.3496    7.5603 H   0  0  0  0  0  0  0  0  0  0  0  0
    5.5603    0.7620    9.7951 H   0  0  0  0  0  0  0  0  0  0  0  0
    2.9003    0.8736   10.0125 H   0  0  0  0  0  0  0  0  0  0  0  0
    1.9816    2.1728    7.9559 H   0  0  0  0  0  0  0  0  0  0  0  0
    4.0243    2.8863    6.4226 H   0  0  0  0  0  0  0  0  0  0  0  0
    6.2689    2.3527    7.7648 H   0  0  0  0  0  0  0  0  0  0  0  0
    5.0537    3.1746    8.8401 H   0  0  0  0  0  0  0  0  0  0  0  0
    5.4013    0.8245    5.7057 H   0  0  0  0  0  0  0  0  0  0  0  0
   -4.4277   -5.6235    2.7939 H   0  0  0  0  0  0  0  0  0  0  0  0
   -5.8049   -7.3023    1.6420 H   0  0  0  0  0  0  0  0  0  0  0  0
   -3.8279   -9.7687   -1.1012 H   0  0  0  0  0  0  0  0  0  0  0  0
   -5.0639   -8.4347   -1.0111 H   0  0  0  0  0  0  0  0  0  0  0  0
   -5.5489  -10.0758   -1.5844 H   0  0  0  0  0  0  0  0  0  0  0  0
   -2.5108  -10.0570    1.6612 H   0  0  0  0  0  0  0  0  0  0  0  0
   -1.1200   -8.3934    2.8645 H   0  0  0  0  0  0  0  0  0  0  0  0
   -3.0801   -6.7390    5.8195 H   0  0  0  0  0  0  0  0  0  0  0  0
   -4.2316   -5.3342    7.4927 H   0  0  0  0  0  0  0  0  0  0  0  0
   -6.6765   -3.6424    6.9419 H   0  0  0  0  0  0  0  0  0  0  0  0
   -6.0987   -2.4536    5.7035 H   0  0  0  0  0  0  0  0  0  0  0  0
   -6.9527   -1.8744    7.1814 H   0  0  0  0  0  0  0  0  0  0  0  0
   -3.1169   -1.8070    5.2936 H   0  0  0  0  0  0  0  0  0  0  0  0
   -1.9916   -3.2060    3.6092 H   0  0  0  0  0  0  0  0  0  0  0  0
    1.4757   -1.4909    1.1391 H   0  0  0  0  0  0  0  0  0  0  0  0
    1.8216    0.8687    0.5206 H   0  0  0  0  0  0  0  0  0  0  0  0
    2.2171    1.5682   -3.7846 H   0  0  0  0  0  0  0  0  0  0  0  0
    1.8128    3.2464   -3.2627 H   0  0  0  0  0  0  0  0  0  0  0  0
    0.9822    1.8404   -2.4873 H   0  0  0  0  0  0  0  0  0  0  0  0
    4.1110   -0.3495   -2.8967 H   0  0  0  0  0  0  0  0  0  0  0  0
    3.7151   -2.7078   -2.3357 H   0  0  0  0  0  0  0  0  0  0  0  0
    4.7266   -2.9862    0.7658 H   0  0  0  0  0  0  0  0  0  0  0  0
    6.5534   -4.5187    1.3225 H   0  0  0  0  0  0  0  0  0  0  0  0
    5.2222   -8.2903    2.5003 H   0  0  0  0  0  0  0  0  0  0  0  0
    6.0592   -6.8467    3.2202 H   0  0  0  0  0  0  0  0  0  0  0  0
    6.8867   -8.4503    3.1635 H   0  0  0  0  0  0  0  0  0  0  0  0
    4.3073   -7.8182   -0.2749 H   0  0  0  0  0  0  0  0  0  0  0  0
    2.4637   -6.2946   -0.8531 H   0  0  0  0  0  0  0  0  0  0  0  0
   -3.2844   -4.7601   -2.8703 H   0  0  0  0  0  0  0  0  0  0  0  0
   -5.0159   -5.4780   -4.4880 H   0  0  0  0  0  0  0  0  0  0  0  0
   -5.9909   -3.3059   -6.5538 H   0  0  0  0  0  0  0  0  0  0  0  0
   -7.0817   -4.0727   -7.7557 H   0  0  0  0  0  0  0  0  0  0  0  0
   -5.5637   -3.2461   -8.3165 H   0  0  0  0  0  0  0  0  0  0  0  0
   -2.5556   -4.1138   -7.7408 H   0  0  0  0  0  0  0  0  0  0  0  0
   -0.8405   -3.3592   -6.1350 H   0  0  0  0  0  0  0  0  0  0  0  0
   -0.2106   -6.2148   -3.0563 H   0  0  0  0  0  0  0  0  0  0  0  0
    1.9627   -7.2518   -3.6281 H   0  0  0  0  0  0  0  0  0  0  0  0
    6.3301   -6.2395   -3.5626 H   0  0  0  0  0  0  0  0  0  0  0  0
    4.8946   -6.9030   -2.7037 H   0  0  0  0  0  0  0  0  0  0  0  0
    5.1068   -5.1015   -2.8790 H   0  0  0  0  0  0  0  0  0  0  0  0
    3.4318   -3.4268   -4.9432 H   0  0  0  0  0  0  0  0  0  0  0  0
    1.2749   -2.3889   -4.3408 H   0  0  0  0  0  0  0  0  0  0  0  0
   -1.9216    3.3779   -2.4307 H   0  0  0  0  0  0  0  0  0  0  0  0
   -0.0867    4.9895   -2.1596 H   0  0  0  0  0  0  0  0  0  0  0  0
    0.4368    6.4096    1.5986 H   0  0  0  0  0  0  0  0  0  0  0  0
    1.4702    7.6486    0.7706 H   0  0  0  0  0  0  0  0  0  0  0  0
    0.0065    7.0070   -0.0677 H   0  0  0  0  0  0  0  0  0  0  0  0
    0.8888    3.3192    1.6559 H   0  0  0  0  0  0  0  0  0  0  0  0
   -0.9644    1.7047    1.4297 H   0  0  0  0  0  0  0  0  0  0  0  0
   -4.0709   -0.7670    0.1421 H   0  0  0  0  0  0  0  0  0  0  0  0
   -5.6733   -0.9464    1.9786 H   0  0  0  0  0  0  0  0  0  0  0  0
   -5.0611   -0.4718    4.9389 H   0  0  0  0  0  0  0  0  0  0  0  0
   -4.7859    1.2737    5.3610 H   0  0  0  0  0  0  0  0  0  0  0  0
   -6.1210    0.3446    6.1525 H   0  0  0  0  0  0  0  0  0  0  0  0
   -4.9900    3.1569    3.0309 H   0  0  0  0  0  0  0  0  0  0  0  0
   -3.4038    3.3810    1.1794 H   0  0  0  0  0  0  0  0  0  0  0  0
   -7.9883    3.1807   -0.5697 H   0  0  0  0  0  0  0  0  0  0  0  0
   -6.8434    2.5657    0.6647 H   0  0  0  0  0  0  0  0  0  0  0  0
   -8.0667    4.5388    1.5275 H   0  0  0  0  0  0  0  0  0  0  0  0
   -6.3090    4.9444    1.3172 H   0  0  0  0  0  0  0  0  0  0  0  0
   -7.5324    5.5155    0.1025 H   0  0  0  0  0  0  0  0  0  0  0  0
   -2.9011    5.1287   -9.3045 H   0  0  0  0  0  0  0  0  0  0  0  0
   -2.2996    3.4447   -9.1818 H   0  0  0  0  0  0  0  0  0  0  0  0
   -0.1642    4.3001   -8.1228 H   0  0  0  0  0  0  0  0  0  0  0  0
   -0.7231    5.9908   -8.4830 H   0  0  0  0  0  0  0  0  0  0  0  0
   -0.4275    4.8340   -9.8341 H   0  0  0  0  0  0  0  0  0  0  0  0
   -4.0120    8.4411   -4.1195 H   0  0  0  0  0  0  0  0  0  0  0  0
    1.6495    5.9983   -5.6423 H   0  0  0  0  0  0  0  0  0  0  0  0
    1.0830   10.8842   -4.3014 H   0  0  0  0  0  0  0  0  0  0  0  0
    4.3281   10.2670   -5.4302 H   0  0  0  0  0  0  0  0  0  0  0  0
    4.7748   10.2119   -2.8523 H   0  0  0  0  0  0  0  0  0  0  0  0
    3.2013    8.4298   -1.6775 H   0  0  0  0  0  0  0  0  0  0  0  0
    3.6703    6.0968   -2.7747 H   0  0  0  0  0  0  0  0  0  0  0  0
    5.4273    6.4386   -4.7383 H   0  0  0  0  0  0  0  0  0  0  0  0
    6.3691    8.1028   -2.9252 H   0  0  0  0  0  0  0  0  0  0  0  0
    6.3956    8.9049   -4.5655 H   0  0  0  0  0  0  0  0  0  0  0  0
    4.5004    8.1200   -6.4386 H   0  0  0  0  0  0  0  0  0  0  0  0
  1  2  2  3
  2  3  1  0
  3  4  2  0
  3  5  1  0
  5  6  2  0
  6  7  1  0
  7  8  2  0
  8  9  1  0
  9 10  2  0
 10 11  1  0
 11 12  2  3
 12 13  1  0
 13 14  3  0
 12 15  1  0
 15 16  3  0
  8 17  1  0
 17 18  1  0
 18 19  1  0
 19 20  2  0
 20 21  1  0
 21 22  1  0
 21 23  1  0
  1 24  1  0
 24 25  2  0
 25 26  1  0
 26 27  1  0
 27 28  2  0
 28 29  1  0
 29 30  2  0
 30 31  1  0
 31 32  1  0
 30 33  1  0
 33 34  2  0
 26 35  1  0
 35 36  2  0
 36 37  1  0
 37 38  2  0
 38 39  1  0
 39 40  1  0
 38 41  1  0
 41 42  2  0
 25 43  1  0
 43 44  1  0
 44 45  1  0
 45 46  2  0
 46 47  1  0
 47 48  1  0
 48 49  2  0
 49 50  1  0
 50 51  2  0
 51 52  1  0
 52 53  1  0
 51 54  1  0
 54 55  2  0
 47 56  1  0
 56 57  2  0
 57 58  1  0
 58 59  2  0
 59 60  1  0
 60 61  1  0
 59 62  1  0
 62 63  2  0
 46 64  1  0
 64 65  1  0
 45 66  1  0
 66 67  2  0
 67 68  1  0
 68 69  1  0
 69 70  2  0
 70 71  1  0
 71 72  2  0
 72 73  1  0
 73 74  1  0
 72 75  1  0
 75 76  2  0
 68 77  1  0
 77 78  2  0
 78 79  1  0
 79 80  2  0
 80 81  1  0
 81 82  1  0
 80 83  1  0
 83 84  2  0
 67 85  1  0
 85 86  1  0
 86 87  1  0
 87 88  2  0
 88 89  1  0
 89 90  1  0
 90 91  2  0
 91 92  1  0
 92 93  2  0
 93 94  1  0
 94 95  1  0
 93 96  1  0
 96 97  2  0
 89 98  1  0
 98 99  2  0
 99100  1  0
100101  2  0
101102  1  0
102103  1  0
101104  1  0
104105  2  0
 88106  1  0
106107  1  0
 87108  1  0
108109  2  0
109110  1  0
110111  2  0
110112  1  0
112113  1  0
113114  1  0
109115  1  0
115116  2  0
116117  1  0
116118  1  0
118119  1  0
119120  2  0
119121  1  0
121122  1  0
122123  1  0
118124  2  0
124125  1  0
124126  1  0
126127  2  3
127128  1  0
128129  2  0
128130  1  0
130131  2  0
131132  1  0
132133  2  0
133134  1  0
134135  2  0
135136  1  0
136137  2  3
137138  1  0
138139  3  0
137140  1  0
140141  3  0
133142  1  0
142143  1  0
143144  1  0
144145  2  0
145146  1  0
146147  1  0
146148  1  0
 11  2  1  0
 23 17  1  0
 65 24  1  0
107 66  1  0
117108  1  0
136127  1  0
148142  1  0
 10  5  1  0
 22 18  1  0
 34 27  1  0
 42 35  1  0
 64 43  2  0
 76 69  1  0
 84 77  1  0
106 85  2  0
125115  1  0
135130  1  0
147143  1  0
 23  7  1  0
 55 48  1  0
 63 56  1  0
 97 90  1  0
105 98  1  0
148132  1  0
  1149  1  0
  6150  1  0
  9151  1  0
 17152  1  0
 18153  1  0
 19154  1  0
 20155  1  0
 21156  1  0
 22157  1  0
 22158  1  0
 23159  1  0
 28160  1  0
 29161  1  0
 32162  1  0
 32163  1  0
 32164  1  0
 33165  1  0
 34166  1  0
 36167  1  0
 37168  1  0
 40169  1  0
 40170  1  0
 40171  1  0
 41172  1  0
 42173  1  0
 49174  1  0
 50175  1  0
 53176  1  0
 53177  1  0
 53178  1  0
 54179  1  0
 55180  1  0
 57181  1  0
 58182  1  0
 61183  1  0
 61184  1  0
 61185  1  0
 62186  1  0
 63187  1  0
 70188  1  0
 71189  1  0
 74190  1  0
 74191  1  0
 74192  1  0
 75193  1  0
 76194  1  0
 78195  1  0
 79196  1  0
 82197  1  0
 82198  1  0
 82199  1  0
 83200  1  0
 84201  1  0
 91202  1  0
 92203  1  0
 95204  1  0
 95205  1  0
 95206  1  0
 96207  1  0
 97208  1  0
 99209  1  0
100210  1  0
103211  1  0
103212  1  0
103213  1  0
104214  1  0
105215  1  0
113216  1  0
113217  1  0
114218  1  0
114219  1  0
114220  1  0
122221  1  0
122222  1  0
123223  1  0
123224  1  0
123225  1  0
126226  1  0
131227  1  0
134228  1  0
142229  1  0
143230  1  0
144231  1  0
145232  1  0
146233  1  0
147234  1  0
147235  1  0
148236  1  0
M  END

