
     RDKit          3D

217237  0  0  0  0  0  0  0  0999 V2000
    0.3864   -6.1845    3.2115 C   0  0  0  0  0  0  0  0  0  0  0  0
   -0.2556   -7.1025    2.4496 C   0  0  0  0  0  0  0  0  0  0  0  0
   -1.4220   -6.7650    1.7061 C   0  0  0  0  0  0  0  0  0  0  0  0
   -2.4723   -6.1933    2.1959 O   0  0  0  0  0  0  0  0  0  0  0  0
   -1.2712   -7.1037    0.3429 C   0  0  0  0  0  0  0  0  0  0  0  0
   -2.0002   -6.6103   -0.7397 C   0  0  0  0  0  0  0  0  0  0  0  0
   -1.5999   -7.0905   -1.9627 C   0  0  0  0  0  0  0  0  0  0  0  0
   -0.5678   -8.0914   -2.1053 C   0  0  0  0  0  0  0  0  0  0  0  0
    0.1993   -8.5255   -1.0402 C   0  0  0  0  0  0  0  0  0  0  0  0
   -0.1106   -7.9371    0.2038 C   0  0  0  0  0  0  0  0  0  0  0  0
    0.4918   -8.0859    1.5454 C   0  0  0  0  0  0  0  0  0  0  0  0
    1.2720   -9.1069    1.9424 C   0  0  0  0  0  0  0  0  0  0  0  0
    2.0982   -9.8377    1.0332 C   0  0  0  0  0  0  0  0  0  0  0  0
    2.7883  -10.4129    0.3103 N   0  0  0  0  0  0  0  0  0  0  0  0
    0.9844   -9.7881    3.1312 C   0  0  0  0  0  0  0  0  0  0  0  0
    0.6503  -10.4367    4.0608 N   0  0  0  0  0  0  0  0  0  0  0  0
   -0.8594   -8.1742   -3.5969 C   0  0  0  0  0  0  0  0  0  0  0  0
   -1.7581   -9.3404   -4.1230 C   0  0  0  0  0  0  0  0  0  0  0  0
   -2.7797   -9.7514   -3.0804 C   0  0  0  0  0  0  0  0  0  0  0  0
   -3.6475   -8.7395   -2.9842 C   0  0  0  0  0  0  0  0  0  0  0  0
   -3.1786   -7.6765   -3.9461 C   0  0  0  0  0  0  0  0  0  0  0  0
   -2.6590   -8.5564   -5.0612 C   0  0  0  0  0  0  0  0  0  0  0  0
   -1.8226   -7.0801   -3.4299 C   0  0  0  0  0  0  0  0  0  0  0  0
    0.0855   -4.7534    3.0264 C   0  0  0  0  0  0  0  0  0  0  0  0
   -0.8505   -3.8244    3.5973 C   0  0  0  0  0  0  0  0  0  0  0  0
   -1.5636   -4.1470    4.8350 N   0  0  0  0  0  0  0  0  0  0  0  0
   -1.0090   -3.6586    6.0692 C   0  0  0  0  0  0  0  0  0  0  0  0
   -0.2633   -4.6195    6.8336 C   0  0  0  0  0  0  0  0  0  0  0  0
    0.6609   -4.2689    7.8604 C   0  0  0  0  0  0  0  0  0  0  0  0
    1.0538   -2.9041    7.8501 C   0  0  0  0  0  0  0  0  0  0  0  0
    2.0764   -2.3767    9.2194 S   0  0  0  0  0  0  0  0  0  0  0  0
    0.7740   -1.3061    9.9477 C   0  0  0  0  0  0  0  0  0  0  0  0
    0.4926   -1.9592    6.9400 C   0  0  0  0  0  0  0  0  0  0  0  0
   -0.6391   -2.3098    6.0911 C   0  0  0  0  0  0  0  0  0  0  0  0
   -2.9655   -4.5322    4.7208 C   0  0  0  0  0  0  0  0  0  0  0  0
   -3.7346   -4.0816    3.6569 C   0  0  0  0  0  0  0  0  0  0  0  0
   -5.1187   -4.0923    3.6750 C   0  0  0  0  0  0  0  0  0  0  0  0
   -5.7727   -4.5924    4.8238 C   0  0  0  0  0  0  0  0  0  0  0  0
   -7.4957   -4.2191    5.0084 S   0  0  0  0  0  0  0  0  0  0  0  0
   -8.1619   -5.2803    3.6987 C   0  0  0  0  0  0  0  0  0  0  0  0
   -5.0199   -5.2241    5.8165 C   0  0  0  0  0  0  0  0  0  0  0  0
   -3.5782   -5.1832    5.7828 C   0  0  0  0  0  0  0  0  0  0  0  0
   -0.8967   -2.4948    3.0786 C   0  0  0  0  0  0  0  0  0  0  0  0
   -0.7873   -1.6389    1.5175 S   0  0  0  0  0  0  0  0  0  0  0  0
   -0.4354    0.0424    1.6270 C   0  0  0  0  0  0  0  0  0  0  0  0
    0.1709   -1.2082    1.0954 C   0  0  0  0  0  0  0  0  0  0  0  0
    1.3187   -1.1472    0.1379 N   0  0  0  0  0  0  0  0  0  0  0  0
    2.6807   -0.8356    0.6327 C   0  0  0  0  0  0  0  0  0  0  0  0
    3.7331   -0.5027   -0.2750 C   0  0  0  0  0  0  0  0  0  0  0  0
    5.0088   -0.2268    0.2060 C   0  0  0  0  0  0  0  0  0  0  0  0
    5.3255   -0.3620    1.5712 C   0  0  0  0  0  0  0  0  0  0  0  0
    6.9024    0.0775    2.2938 S   0  0  0  0  0  0  0  0  0  0  0  0
    8.0458   -0.2961    0.9301 C   0  0  0  0  0  0  0  0  0  0  0  0
    4.2946   -0.7148    2.4756 C   0  0  0  0  0  0  0  0  0  0  0  0
    3.0026   -0.9022    1.9902 C   0  0  0  0  0  0  0  0  0  0  0  0
    1.1350   -1.7298   -1.1937 C   0  0  0  0  0  0  0  0  0  0  0  0
    1.1923   -0.9187   -2.3518 C   0  0  0  0  0  0  0  0  0  0  0  0
    1.1838   -1.5361   -3.6096 C   0  0  0  0  0  0  0  0  0  0  0  0
    0.9955   -2.9113   -3.7300 C   0  0  0  0  0  0  0  0  0  0  0  0
    1.3837   -3.7365   -5.2804 S   0  0  0  0  0  0  0  0  0  0  0  0
    0.2578   -2.8568   -6.4018 C   0  0  0  0  0  0  0  0  0  0  0  0
    0.8928   -3.6878   -2.5970 C   0  0  0  0  0  0  0  0  0  0  0  0
    1.0891   -3.0975   -1.3474 C   0  0  0  0  0  0  0  0  0  0  0  0
   -0.1105   -2.3721    1.9356 C   0  0  0  0  0  0  0  0  0  0  0  0
    0.8761   -3.8838    1.8557 S   0  0  0  0  0  0  0  0  0  0  0  0
   -0.6830    1.1890    0.7483 C   0  0  0  0  0  0  0  0  0  0  0  0
   -1.5964    1.2360   -0.4540 C   0  0  0  0  0  0  0  0  0  0  0  0
   -2.7279    0.4225   -0.5354 N   0  0  0  0  0  0  0  0  0  0  0  0
   -3.2564    0.1097   -1.8198 C   0  0  0  0  0  0  0  0  0  0  0  0
   -4.5932    0.4956   -2.1684 C   0  0  0  0  0  0  0  0  0  0  0  0
   -5.1116    0.1633   -3.4555 C   0  0  0  0  0  0  0  0  0  0  0  0
   -4.3095   -0.5165   -4.3804 C   0  0  0  0  0  0  0  0  0  0  0  0
   -4.7999   -0.6378   -6.1303 S   0  0  0  0  0  0  0  0  0  0  0  0
   -6.2681   -1.7033   -5.9046 C   0  0  0  0  0  0  0  0  0  0  0  0
   -3.0185   -0.9490   -4.0409 C   0  0  0  0  0  0  0  0  0  0  0  0
   -2.4984   -0.6249   -2.7523 C   0  0  0  0  0  0  0  0  0  0  0  0
   -3.6511    0.3649    0.5747 C   0  0  0  0  0  0  0  0  0  0  0  0
   -4.3367   -0.8458    0.7840 C   0  0  0  0  0  0  0  0  0  0  0  0
   -5.3440   -0.9049    1.7420 C   0  0  0  0  0  0  0  0  0  0  0  0
   -5.6089    0.2164    2.5360 C   0  0  0  0  0  0  0  0  0  0  0  0
   -7.0871    0.1865    3.5583 S   0  0  0  0  0  0  0  0  0  0  0  0
   -6.2294   -0.2526    5.0799 C   0  0  0  0  0  0  0  0  0  0  0  0
   -4.8239    1.3714    2.4285 C   0  0  0  0  0  0  0  0  0  0  0  0
   -3.8511    1.4346    1.4419 C   0  0  0  0  0  0  0  0  0  0  0  0
   -1.4378    2.3449   -1.4409 C   0  0  0  0  0  0  0  0  0  0  0  0
   -0.3890    3.6668   -1.5289 S   0  0  0  0  0  0  0  0  0  0  0  0
    0.2617    4.5710   -2.7704 C   0  0  0  0  0  0  0  0  0  0  0  0
   -0.7694    4.5443   -1.6720 C   0  0  0  0  0  0  0  0  0  0  0  0
   -2.1793    5.3795   -1.8261 N   0  0  0  0  0  0  0  0  0  0  0  0
   -2.6845    5.9405   -3.0503 C   0  0  0  0  0  0  0  0  0  0  0  0
   -2.7807    7.3416   -3.2781 C   0  0  0  0  0  0  0  0  0  0  0  0
   -2.7242    7.8943   -4.5583 C   0  0  0  0  0  0  0  0  0  0  0  0
   -3.3230    7.0745   -5.6247 C   0  0  0  0  0  0  0  0  0  0  0  0
   -3.5390    7.7989   -7.2488 S   0  0  0  0  0  0  0  0  0  0  0  0
   -1.9401    7.1945   -7.8791 C   0  0  0  0  0  0  0  0  0  0  0  0
   -3.7651    5.7462   -5.2589 C   0  0  0  0  0  0  0  0  0  0  0  0
   -3.3175    5.1622   -4.0751 C   0  0  0  0  0  0  0  0  0  0  0  0
   -2.8493    5.8511   -0.5731 C   0  0  0  0  0  0  0  0  0  0  0  0
   -3.9440    5.0927   -0.0824 C   0  0  0  0  0  0  0  0  0  0  0  0
   -4.6318    5.5855    1.0267 C   0  0  0  0  0  0  0  0  0  0  0  0
   -4.3318    6.8034    1.6251 C   0  0  0  0  0  0  0  0  0  0  0  0
   -5.3578    7.5702    2.8203 S   0  0  0  0  0  0  0  0  0  0  0  0
   -6.3146    8.4234    1.5348 C   0  0  0  0  0  0  0  0  0  0  0  0
   -3.2283    7.5765    1.0903 C   0  0  0  0  0  0  0  0  0  0  0  0
   -2.6244    7.1141   -0.0891 C   0  0  0  0  0  0  0  0  0  0  0  0
   -0.6048    3.2979   -0.8178 C   0  0  0  0  0  0  0  0  0  0  0  0
    0.0910    2.7459    0.9329 S   0  0  0  0  0  0  0  0  0  0  0  0
    1.8149    4.2938   -2.8189 C   0  0  0  0  0  0  0  0  0  0  0  0
    2.4590    5.5055   -2.4816 C   0  0  0  0  0  0  0  0  0  0  0  0
    1.8282    6.5320   -1.9776 N   0  0  0  0  0  0  0  0  0  0  0  0
    2.4740    7.5552   -2.4052 N   0  0  0  0  0  0  0  0  0  0  0  0
    2.1708    8.8109   -1.6811 C   0  0  0  0  0  0  0  0  0  0  0  0
    2.0647    8.5057   -0.1481 C   0  0  0  0  0  0  0  0  0  0  0  0
    3.6458    7.2979   -2.9922 N   0  0  0  0  0  0  0  0  0  0  0  0
    3.6448    5.9136   -3.0689 C   0  0  0  0  0  0  0  0  0  0  0  0
    4.7151    5.0628   -3.0419 C   0  0  0  0  0  0  0  0  0  0  0  0
    4.3402    3.6931   -2.7019 C   0  0  0  0  0  0  0  0  0  0  0  0
    2.9332    3.3005   -2.5697 C   0  0  0  0  0  0  0  0  0  0  0  0
    6.0376    5.6345   -2.7333 C   0  0  0  0  0  0  0  0  0  0  0  0
    6.3873    5.7675   -1.4327 C   0  0  0  0  0  0  0  0  0  0  0  0
    5.4591    5.3635   -0.3774 C   0  0  0  0  0  0  0  0  0  0  0  0
    4.3003    5.8714   -0.1091 O   0  0  0  0  0  0  0  0  0  0  0  0
    6.1735    4.6394    0.6062 C   0  0  0  0  0  0  0  0  0  0  0  0
    5.6333    3.9591    1.6802 C   0  0  0  0  0  0  0  0  0  0  0  0
    6.4814    3.3658    2.6256 C   0  0  0  0  0  0  0  0  0  0  0  0
    7.8704    3.4911    2.4413 C   0  0  0  0  0  0  0  0  0  0  0  0
    8.4333    4.1311    1.3531 C   0  0  0  0  0  0  0  0  0  0  0  0
    9.8265    4.1794    1.1580 O   0  0  0  0  0  0  0  0  0  0  0  0
   10.7452    3.5035    1.9999 C   0  0  0  0  0  0  0  0  0  0  0  0
    7.5531    4.7409    0.3993 C   0  0  0  0  0  0  0  0  0  0  0  0
    7.7752    5.4284   -0.9005 C   0  0  0  0  0  0  0  0  0  0  0  0
    8.9787    5.7765   -1.4829 C   0  0  0  0  0  0  0  0  0  0  0  0
   10.1659    4.9143   -1.4155 C   0  0  0  0  0  0  0  0  0  0  0  0
   11.0719    4.1839   -1.4015 N   0  0  0  0  0  0  0  0  0  0  0  0
    9.0814    6.9546   -2.3310 C   0  0  0  0  0  0  0  0  0  0  0  0
    9.1550    7.9054   -3.0043 N   0  0  0  0  0  0  0  0  0  0  0  0
    1.4061   -6.4095    3.5311 H   0  0  0  0  0  0  0  0  0  0  0  0
   -2.8168   -5.8946   -0.6660 H   0  0  0  0  0  0  0  0  0  0  0  0
    1.0079   -9.2297   -1.2136 H   0  0  0  0  0  0  0  0  0  0  0  0
    0.0058   -7.9235   -4.2390 H   0  0  0  0  0  0  0  0  0  0  0  0
   -1.2000  -10.1907   -4.5957 H   0  0  0  0  0  0  0  0  0  0  0  0
   -2.8927  -10.7262   -2.6184 H   0  0  0  0  0  0  0  0  0  0  0  0
   -4.5758   -8.7401   -2.4149 H   0  0  0  0  0  0  0  0  0  0  0  0
   -3.9357   -6.9161   -4.2263 H   0  0  0  0  0  0  0  0  0  0  0  0
   -2.1079   -7.9888   -5.8541 H   0  0  0  0  0  0  0  0  0  0  0  0
   -3.4746   -9.1772   -5.5262 H   0  0  0  0  0  0  0  0  0  0  0  0
   -1.5050   -6.1222   -3.9212 H   0  0  0  0  0  0  0  0  0  0  0  0
   -0.5594   -5.6552    6.7714 H   0  0  0  0  0  0  0  0  0  0  0  0
    1.1012   -5.0847    8.4990 H   0  0  0  0  0  0  0  0  0  0  0  0
    0.9302   -1.1666   11.0465 H   0  0  0  0  0  0  0  0  0  0  0  0
   -0.2092   -1.8046    9.7531 H   0  0  0  0  0  0  0  0  0  0  0  0
    0.7773   -0.3182    9.4099 H   0  0  0  0  0  0  0  0  0  0  0  0
    0.9222   -1.0048    6.9652 H   0  0  0  0  0  0  0  0  0  0  0  0
    0.4174   -2.5637    5.8500 H   0  0  0  0  0  0  0  0  0  0  0  0
   -3.2598   -3.6421    2.7847 H   0  0  0  0  0  0  0  0  0  0  0  0
   -5.6412   -3.6851    2.8235 H   0  0  0  0  0  0  0  0  0  0  0  0
   -8.9683   -4.7125    3.1904 H   0  0  0  0  0  0  0  0  0  0  0  0
   -7.4020   -5.5571    2.9497 H   0  0  0  0  0  0  0  0  0  0  0  0
   -8.5963   -6.1818    4.1625 H   0  0  0  0  0  0  0  0  0  0  0  0
   -5.5159   -5.6672    6.6733 H   0  0  0  0  0  0  0  0  0  0  0  0
   -3.0724   -5.5984    6.6181 H   0  0  0  0  0  0  0  0  0  0  0  0
    3.5416   -0.4336   -1.3131 H   0  0  0  0  0  0  0  0  0  0  0  0
    5.8003    0.0091   -0.5028 H   0  0  0  0  0  0  0  0  0  0  0  0
    7.7543   -1.2236    0.4101 H   0  0  0  0  0  0  0  0  0  0  0  0
    9.0688   -0.4143    1.3393 H   0  0  0  0  0  0  0  0  0  0  0  0
    8.0789    0.5647    0.2367 H   0  0  0  0  0  0  0  0  0  0  0  0
    4.4829   -0.7802    3.5349 H   0  0  0  0  0  0  0  0  0  0  0  0
    2.2249   -1.1546    2.7201 H   0  0  0  0  0  0  0  0  0  0  0  0
    1.2593    0.1345   -2.2752 H   0  0  0  0  0  0  0  0  0  0  0  0
    1.3788   -0.9283   -4.4817 H   0  0  0  0  0  0  0  0  0  0  0  0
    0.3596   -3.2693   -7.4341 H   0  0  0  0  0  0  0  0  0  0  0  0
    0.5704   -1.7981   -6.4322 H   0  0  0  0  0  0  0  0  0  0  0  0
   -0.8016   -2.9331   -6.0782 H   0  0  0  0  0  0  0  0  0  0  0  0
    0.8499   -4.7573   -2.6572 H   0  0  0  0  0  0  0  0  0  0  0  0
    1.3625   -3.7133   -0.5280 H   0  0  0  0  0  0  0  0  0  0  0  0
   -5.2066    1.0824   -1.5115 H   0  0  0  0  0  0  0  0  0  0  0  0
   -6.0898    0.4827   -3.7457 H   0  0  0  0  0  0  0  0  0  0  0  0
   -7.0358   -1.4025   -6.6549 H   0  0  0  0  0  0  0  0  0  0  0  0
   -5.9950   -2.7668   -6.0800 H   0  0  0  0  0  0  0  0  0  0  0  0
   -6.7298   -1.6057   -4.8910 H   0  0  0  0  0  0  0  0  0  0  0  0
   -2.4503   -1.4935   -4.7357 H   0  0  0  0  0  0  0  0  0  0  0  0
   -1.4812   -0.8805   -2.5375 H   0  0  0  0  0  0  0  0  0  0  0  0
   -4.1430   -1.6324    0.0787 H   0  0  0  0  0  0  0  0  0  0  0  0
   -5.9239   -1.8034    1.7208 H   0  0  0  0  0  0  0  0  0  0  0  0
   -5.6928   -1.2141    4.9839 H   0  0  0  0  0  0  0  0  0  0  0  0
   -7.0323   -0.3613    5.8327 H   0  0  0  0  0  0  0  0  0  0  0  0
   -5.5482    0.5599    5.3947 H   0  0  0  0  0  0  0  0  0  0  0  0
   -4.9977    2.2352    3.0318 H   0  0  0  0  0  0  0  0  0  0  0  0
   -3.3013    2.3658    1.2839 H   0  0  0  0  0  0  0  0  0  0  0  0
   -3.8445    7.6916   -3.1251 H   0  0  0  0  0  0  0  0  0  0  0  0
   -2.6759    8.9667   -4.8000 H   0  0  0  0  0  0  0  0  0  0  0  0
   -1.3899    8.0605   -8.3076 H   0  0  0  0  0  0  0  0  0  0  0  0
   -1.3257    6.7466   -7.0644 H   0  0  0  0  0  0  0  0  0  0  0  0
   -2.0751    6.4631   -8.7103 H   0  0  0  0  0  0  0  0  0  0  0  0
   -4.2161    5.1092   -5.9702 H   0  0  0  0  0  0  0  0  0  0  0  0
   -3.6238    4.0922   -3.9591 H   0  0  0  0  0  0  0  0  0  0  0  0
   -4.4041    4.3137   -0.5993 H   0  0  0  0  0  0  0  0  0  0  0  0
   -5.4563    5.0590    1.5176 H   0  0  0  0  0  0  0  0  0  0  0  0
   -5.5657    8.8176    0.7931 H   0  0  0  0  0  0  0  0  0  0  0  0
   -6.9020    9.2879    1.9514 H   0  0  0  0  0  0  0  0  0  0  0  0
   -6.9855    7.6561    1.0452 H   0  0  0  0  0  0  0  0  0  0  0  0
   -3.0335    8.5168    1.5764 H   0  0  0  0  0  0  0  0  0  0  0  0
   -1.9728    7.8633   -0.5779 H   0  0  0  0  0  0  0  0  0  0  0  0
    2.9101    9.5991   -1.8493 H   0  0  0  0  0  0  0  0  0  0  0  0
    1.1560    9.1885   -2.0864 H   0  0  0  0  0  0  0  0  0  0  0  0
    3.0529    8.0937    0.2269 H   0  0  0  0  0  0  0  0  0  0  0  0
    1.6269    9.3774    0.4481 H   0  0  0  0  0  0  0  0  0  0  0  0
    1.2941    7.7425    0.0107 H   0  0  0  0  0  0  0  0  0  0  0  0
    5.0769    2.9573   -2.4095 H   0  0  0  0  0  0  0  0  0  0  0  0
    2.9324    2.1900   -2.2750 H   0  0  0  0  0  0  0  0  0  0  0  0
    6.5788    6.2696   -3.4418 H   0  0  0  0  0  0  0  0  0  0  0  0
    4.5495    3.9863    1.8291 H   0  0  0  0  0  0  0  0  0  0  0  0
    6.0416    2.9048    3.4725 H   0  0  0  0  0  0  0  0  0  0  0  0
    8.4942    3.0308    3.2318 H   0  0  0  0  0  0  0  0  0  0  0  0
   11.7603    3.7044    1.6215 H   0  0  0  0  0  0  0  0  0  0  0  0
   10.5752    2.4173    1.9957 H   0  0  0  0  0  0  0  0  0  0  0  0
   10.7011    3.8956    3.0266 H   0  0  0  0  0  0  0  0  0  0  0  0
  1  2  2  3
  2  3  1  0
  3  4  2  0
  3  5  1  0
  5  6  2  0
  6  7  1  0
  7  8  2  0
  8  9  1  0
  9 10  2  0
 10 11  1  0
 11 12  2  3
 12 13  1  0
 13 14  3  0
 12 15  1  0
 15 16  3  0
  8 17  1  0
 17 18  1  0
 18 19  1  0
 19 20  2  0
 20 21  1  0
 21 22  1  0
 21 23  1  0
  1 24  1  0
 24 25  2  0
 25 26  1  0
 26 27  1  0
 27 28  2  0
 28 29  1  0
 29 30  2  0
 30 31  1  0
 31 32  1  0
 30 33  1  0
 33 34  2  0
 26 35  1  0
 35 36  2  0
 36 37  1  0
 37 38  2  0
 38 39  1  0
 39 40  1  0
 38 41  1  0
 41 42  2  0
 25 43  1  0
 43 44  1  0
 44 45  1  0
 45 46  2  0
 46 47  1  0
 47 48  1  0
 48 49  2  0
 49 50  1  0
 50 51  2  0
 51 52  1  0
 52 53  1  0
 51 54  1  0
 54 55  2  0
 47 56  1  0
 56 57  2  0
 57 58  1  0
 58 59  2  0
 59 60  1  0
 60 61  1  0
 59 62  1  0
 62 63  2  0
 46 64  1  0
 64 65  1  0
 45 66  1  0
 66 67  2  0
 67 68  1  0
 68 69  1  0
 69 70  2  0
 70 71  1  0
 71 72  2  0
 72 73  1  0
 73 74  1  0
 72 75  1  0
 75 76  2  0
 68 77  1  0
 77 78  2  0
 78 79  1  0
 79 80  2  0
 80 81  1  0
 81 82  1  0
 80 83  1  0
 83 84  2  0
 67 85  1  0
 85 86  1  0
 86 87  1  0
 87 88  2  0
 88 89  1  0
 89 90  1  0
 90 91  2  0
 91 92  1  0
 92 93  2  0
 93 94  1  0
 94 95  1  0
 93 96  1  0
 96 97  2  0
 89 98  1  0
 98 99  2  0
 99100  1  0
100101  2  0
101102  1  0
102103  1  0
101104  1  0
104105  2  0
 88106  1  0
106107  1  0
 87108  1  0
108109  1  0
109110  2  0
110111  1  0
111112  1  0
112113  1  0
111114  1  0
114115  2  0
115116  1  0
116117  2  0
117118  1  0
116119  1  0
119120  2  3
120121  1  0
121122  2  0
121123  1  0
123124  2  0
124125  1  0
125126  2  0
126127  1  0
127128  1  0
128129  1  0
127130  2  0
130131  1  0
131132  2  3
132133  1  0
133134  3  0
132135  1  0
135136  3  0
 11  2  1  0
 23 17  1  0
 65 24  1  0
107 66  1  0
118108  2  0
131120  1  0
 10  5  1  0
 22 18  1  0
 34 27  1  0
 42 35  1  0
 64 43  2  0
 76 69  1  0
 84 77  1  0
106 85  2  0
115109  1  0
130123  1  0
 23  7  1  0
 55 48  1  0
 63 56  1  0
 97 90  1  0
105 98  1  0
  1137  1  0
  6138  1  0
  9139  1  0
 17140  1  0
 18141  1  0
 19142  1  0
 20143  1  0
 21144  1  0
 22145  1  0
 22146  1  0
 23147  1  0
 28148  1  0
 29149  1  0
 32150  1  0
 32151  1  0
 32152  1  0
 33153  1  0
 34154  1  0
 36155  1  0
 37156  1  0
 40157  1  0
 40158  1  0
 40159  1  0
 41160  1  0
 42161  1  0
 49162  1  0
 50163  1  0
 53164  1  0
 53165  1  0
 53166  1  0
 54167  1  0
 55168  1  0
 57169  1  0
 58170  1  0
 61171  1  0
 61172  1  0
 61173  1  0
 62174  1  0
 63175  1  0
 70176  1  0
 71177  1  0
 74178  1  0
 74179  1  0
 74180  1  0
 75181  1  0
 76182  1  0
 78183  1  0
 79184  1  0
 82185  1  0
 82186  1  0
 82187  1  0
 83188  1  0
 84189  1  0
 91190  1  0
 92191  1  0
 95192  1  0
 95193  1  0
 95194  1  0
 96195  1  0
 97196  1  0
 99197  1  0
100198  1  0
103199  1  0
103200  1  0
103201  1  0
104202  1  0
105203  1  0
112204  1  0
112205  1  0
113206  1  0
113207  1  0
113208  1  0
117209  1  0
118210  1  0
119211  1  0
124212  1  0
125213  1  0
126214  1  0
129215  1  0
129216  1  0
129217  1  0
M  END

