
     RDKit          3D

209231  0  0  0  0  0  0  0  0999 V2000
   -2.1346    1.2368    8.3143 C   0  0  0  0  0  0  0  0  0  0  0  0
   -2.0138   -0.1083    8.4036 C   0  0  0  0  0  0  0  0  0  0  0  0
   -2.5077   -1.0701    7.4134 C   0  0  0  0  0  0  0  0  0  0  0  0
   -3.5781   -0.9647    6.7694 O   0  0  0  0  0  0  0  0  0  0  0  0
   -1.6377   -2.2306    7.3969 C   0  0  0  0  0  0  0  0  0  0  0  0
   -1.6253   -3.2939    6.4643 C   0  0  0  0  0  0  0  0  0  0  0  0
   -0.5636   -4.1619    6.6157 C   0  0  0  0  0  0  0  0  0  0  0  0
    0.4378   -4.0063    7.6283 C   0  0  0  0  0  0  0  0  0  0  0  0
    0.4210   -2.9825    8.5603 C   0  0  0  0  0  0  0  0  0  0  0  0
   -0.6805   -2.0837    8.4332 C   0  0  0  0  0  0  0  0  0  0  0  0
   -0.9777   -0.8339    9.1934 C   0  0  0  0  0  0  0  0  0  0  0  0
   -0.5720   -0.5343   10.4493 C   0  0  0  0  0  0  0  0  0  0  0  0
    0.3051   -1.3982   11.1982 C   0  0  0  0  0  0  0  0  0  0  0  0
    1.0044   -2.0930   11.8065 N   0  0  0  0  0  0  0  0  0  0  0  0
   -1.1071    0.5856   11.1763 C   0  0  0  0  0  0  0  0  0  0  0  0
   -1.5395    1.4808   11.7720 N   0  0  0  0  0  0  0  0  0  0  0  0
    1.1755   -5.2075    7.1016 C   0  0  0  0  0  0  0  0  0  0  0  0
    1.0912   -6.5345    7.9139 C   0  0  0  0  0  0  0  0  0  0  0  0
   -0.2347   -6.6071    8.6368 C   0  0  0  0  0  0  0  0  0  0  0  0
   -1.1731   -6.7574    7.7003 C   0  0  0  0  0  0  0  0  0  0  0  0
   -0.4555   -6.7729    6.3699 C   0  0  0  0  0  0  0  0  0  0  0  0
    0.8026   -7.5114    6.7878 C   0  0  0  0  0  0  0  0  0  0  0  0
    0.1460   -5.3670    6.0709 C   0  0  0  0  0  0  0  0  0  0  0  0
   -2.6041    1.9195    7.0875 C   0  0  0  0  0  0  0  0  0  0  0  0
   -3.8607    1.8312    6.4774 C   0  0  0  0  0  0  0  0  0  0  0  0
   -3.8503    2.2614    5.1322 C   0  0  0  0  0  0  0  0  0  0  0  0
   -4.8901    2.0778    4.1838 C   0  0  0  0  0  0  0  0  0  0  0  0
   -6.3286    1.9984    4.5817 C   0  0  0  0  0  0  0  0  0  0  0  0
   -6.8847    2.5083    5.7585 C   0  0  0  0  0  0  0  0  0  0  0  0
   -8.2814    2.4175    5.8277 C   0  0  0  0  0  0  0  0  0  0  0  0
   -8.8487    1.8737    4.6876 C   0  0  0  0  0  0  0  0  0  0  0  0
  -10.5956    1.6002    4.4131 S   0  0  0  0  0  0  0  0  0  0  0  0
  -10.9163    3.2656    3.7375 C   0  0  0  0  0  0  0  0  0  0  0  0
  -10.5867    3.3234    2.2502 C   0  0  0  0  0  0  0  0  0  0  0  0
   -7.6212    1.4960    3.6093 S   0  0  0  0  0  0  0  0  0  0  0  0
   -4.4621    1.9833    2.8377 C   0  0  0  0  0  0  0  0  0  0  0  0
   -3.1520    2.3070    2.4482 C   0  0  0  0  0  0  0  0  0  0  0  0
   -2.2515    2.9021    3.3624 C   0  0  0  0  0  0  0  0  0  0  0  0
   -1.0983    3.7819    2.9468 C   0  0  0  0  0  0  0  0  0  0  0  0
   -0.6829    4.1075    1.6458 C   0  0  0  0  0  0  0  0  0  0  0  0
    0.2710    5.1330    1.5839 C   0  0  0  0  0  0  0  0  0  0  0  0
    0.5640    5.6768    2.8145 C   0  0  0  0  0  0  0  0  0  0  0  0
    1.5718    7.1354    3.0860 S   0  0  0  0  0  0  0  0  0  0  0  0
    3.0924    6.2184    3.5030 C   0  0  0  0  0  0  0  0  0  0  0  0
    3.1830    6.0274    5.0101 C   0  0  0  0  0  0  0  0  0  0  0  0
   -0.3265    4.8714    3.9806 S   0  0  0  0  0  0  0  0  0  0  0  0
   -2.5888    2.7175    4.7172 C   0  0  0  0  0  0  0  0  0  0  0  0
   -1.5171    2.5809    5.9924 S   0  0  0  0  0  0  0  0  0  0  0  0
   -2.8181    1.7973    1.1867 C   0  0  0  0  0  0  0  0  0  0  0  0
   -3.8680    1.1545    0.5501 C   0  0  0  0  0  0  0  0  0  0  0  0
   -5.2179    1.1929    1.5490 S   0  0  0  0  0  0  0  0  0  0  0  0
   -3.6718    0.3294   -0.6454 C   0  0  0  0  0  0  0  0  0  0  0  0
   -2.8572   -0.8279   -0.5923 C   0  0  0  0  0  0  0  0  0  0  0  0
   -2.9723   -1.9041    0.3683 N   0  0  0  0  0  0  0  0  0  0  0  0
   -3.9170   -1.8600    1.4464 C   0  0  0  0  0  0  0  0  0  0  0  0
   -3.4569   -1.8350    2.7643 C   0  0  0  0  0  0  0  0  0  0  0  0
   -4.3491   -2.0793    3.8102 C   0  0  0  0  0  0  0  0  0  0  0  0
   -5.7014   -2.3115    3.5623 C   0  0  0  0  0  0  0  0  0  0  0  0
   -6.7670   -2.8876    4.8940 S   0  0  0  0  0  0  0  0  0  0  0  0
   -6.9689   -1.2822    5.7287 C   0  0  0  0  0  0  0  0  0  0  0  0
   -6.1814   -2.2662    2.2523 C   0  0  0  0  0  0  0  0  0  0  0  0
   -5.2877   -2.0599    1.1902 C   0  0  0  0  0  0  0  0  0  0  0  0
   -2.5946   -3.2309   -0.0410 C   0  0  0  0  0  0  0  0  0  0  0  0
   -1.6808   -3.9830    0.7148 C   0  0  0  0  0  0  0  0  0  0  0  0
   -1.3609   -5.2878    0.3303 C   0  0  0  0  0  0  0  0  0  0  0  0
   -1.9535   -5.8537   -0.8069 C   0  0  0  0  0  0  0  0  0  0  0  0
   -1.5531   -7.5336   -1.2881 S   0  0  0  0  0  0  0  0  0  0  0  0
   -2.9075   -8.2578   -0.3158 C   0  0  0  0  0  0  0  0  0  0  0  0
   -2.8579   -5.1034   -1.5659 C   0  0  0  0  0  0  0  0  0  0  0  0
   -3.1836   -3.8038   -1.1804 C   0  0  0  0  0  0  0  0  0  0  0  0
   -1.9643   -0.8590   -1.6645 C   0  0  0  0  0  0  0  0  0  0  0  0
   -0.4683   -1.5825   -1.9044 S   0  0  0  0  0  0  0  0  0  0  0  0
   -0.0893   -0.6798   -3.2983 C   0  0  0  0  0  0  0  0  0  0  0  0
   -1.1532    0.2063   -3.5675 C   0  0  0  0  0  0  0  0  0  0  0  0
   -1.4644    0.6733   -4.8894 N   0  0  0  0  0  0  0  0  0  0  0  0
   -2.5099   -0.0192   -5.5849 C   0  0  0  0  0  0  0  0  0  0  0  0
   -3.7910    0.5482   -5.6829 C   0  0  0  0  0  0  0  0  0  0  0  0
   -4.8511   -0.2094   -6.1905 C   0  0  0  0  0  0  0  0  0  0  0  0
   -4.6328   -1.5255   -6.6162 C   0  0  0  0  0  0  0  0  0  0  0  0
   -5.9972   -2.5292   -7.1958 S   0  0  0  0  0  0  0  0  0  0  0  0
   -6.2940   -3.2910   -5.5662 C   0  0  0  0  0  0  0  0  0  0  0  0
   -3.3426   -2.0708   -6.5675 C   0  0  0  0  0  0  0  0  0  0  0  0
   -2.2923   -1.3281   -6.0430 C   0  0  0  0  0  0  0  0  0  0  0  0
   -0.5414    1.4476   -5.6625 C   0  0  0  0  0  0  0  0  0  0  0  0
   -0.7227    2.8328   -5.7769 C   0  0  0  0  0  0  0  0  0  0  0  0
    0.0532    3.5746   -6.6763 C   0  0  0  0  0  0  0  0  0  0  0  0
    1.0194    2.9323   -7.4613 C   0  0  0  0  0  0  0  0  0  0  0  0
    1.9428    3.8567   -8.6893 S   0  0  0  0  0  0  0  0  0  0  0  0
    0.8047    3.4306  -10.0535 C   0  0  0  0  0  0  0  0  0  0  0  0
    1.2244    1.5523   -7.3236 C   0  0  0  0  0  0  0  0  0  0  0  0
    0.4267    0.8101   -6.4558 C   0  0  0  0  0  0  0  0  0  0  0  0
   -2.1526    0.0857   -2.6093 C   0  0  0  0  0  0  0  0  0  0  0  0
   -3.3524    1.1317   -2.1133 S   0  0  0  0  0  0  0  0  0  0  0  0
    1.3027   -0.3538   -3.6223 C   0  0  0  0  0  0  0  0  0  0  0  0
    1.8960    0.8511   -3.2729 C   0  0  0  0  0  0  0  0  0  0  0  0
    3.2434    0.9212   -3.6409 C   0  0  0  0  0  0  0  0  0  0  0  0
    4.1019    2.0033   -3.3800 C   0  0  0  0  0  0  0  0  0  0  0  0
    3.7178    3.0931   -2.4531 C   0  0  0  0  0  0  0  0  0  0  0  0
    3.2526    2.8937   -1.1544 C   0  0  0  0  0  0  0  0  0  0  0  0
    3.1496    4.0734   -0.4141 C   0  0  0  0  0  0  0  0  0  0  0  0
    3.5436    5.1945   -1.1241 C   0  0  0  0  0  0  0  0  0  0  0  0
    3.6877    6.8519   -0.4565 S   0  0  0  0  0  0  0  0  0  0  0  0
    5.2518    6.5355    0.4464 C   0  0  0  0  0  0  0  0  0  0  0  0
    6.4287    6.3276   -0.4997 C   0  0  0  0  0  0  0  0  0  0  0  0
    4.0024    4.7389   -2.6784 S   0  0  0  0  0  0  0  0  0  0  0  0
    5.3913    1.9267   -3.9219 C   0  0  0  0  0  0  0  0  0  0  0  0
    5.8539    0.8099   -4.6294 C   0  0  0  0  0  0  0  0  0  0  0  0
    5.0257   -0.3316   -4.7896 C   0  0  0  0  0  0  0  0  0  0  0  0
    5.5348   -1.6022   -5.3474 C   0  0  0  0  0  0  0  0  0  0  0  0
    4.8751   -2.4444   -6.2472 C   0  0  0  0  0  0  0  0  0  0  0  0
    5.5926   -3.6103   -6.5410 C   0  0  0  0  0  0  0  0  0  0  0  0
    6.8011   -3.6911   -5.8658 C   0  0  0  0  0  0  0  0  0  0  0  0
    8.0174   -4.9935   -6.0380 S   0  0  0  0  0  0  0  0  0  0  0  0
    7.4550   -5.9334   -4.5750 C   0  0  0  0  0  0  0  0  0  0  0  0
    6.3379   -6.8918   -4.9516 C   0  0  0  0  0  0  0  0  0  0  0  0
    6.9928   -2.3282   -4.9076 S   0  0  0  0  0  0  0  0  0  0  0  0
    3.7021   -0.2233   -4.3069 C   0  0  0  0  0  0  0  0  0  0  0  0
    2.4393   -1.3572   -4.3590 S   0  0  0  0  0  0  0  0  0  0  0  0
    7.1697    0.9793   -5.1115 C   0  0  0  0  0  0  0  0  0  0  0  0
    7.7184    2.2152   -4.7666 C   0  0  0  0  0  0  0  0  0  0  0  0
    6.6176    3.0616   -3.8238 S   0  0  0  0  0  0  0  0  0  0  0  0
    9.0973    2.6535   -5.0396 C   0  0  0  0  0  0  0  0  0  0  0  0
    9.4322    3.9198   -5.3313 C   0  0  0  0  0  0  0  0  0  0  0  0
    8.5625    5.0557   -5.6809 C   0  0  0  0  0  0  0  0  0  0  0  0
    7.3353    5.0095   -5.9469 O   0  0  0  0  0  0  0  0  0  0  0  0
    9.4044    6.2389   -5.8176 C   0  0  0  0  0  0  0  0  0  0  0  0
    9.0356    7.5587   -6.0853 C   0  0  0  0  0  0  0  0  0  0  0  0
   10.0417    8.5435   -6.1346 C   0  0  0  0  0  0  0  0  0  0  0  0
    9.5849   10.2087   -6.4516 Cl  0  0  0  0  0  0  0  0  0  0  0  0
   11.3975    8.1819   -5.9209 C   0  0  0  0  0  0  0  0  0  0  0  0
   12.6727    9.3929   -5.9573 Cl  0  0  0  0  0  0  0  0  0  0  0  0
   11.7433    6.8409   -5.6605 C   0  0  0  0  0  0  0  0  0  0  0  0
   10.7241    5.8899   -5.6175 C   0  0  0  0  0  0  0  0  0  0  0  0
   10.7986    4.4582   -5.3382 C   0  0  0  0  0  0  0  0  0  0  0  0
   11.8488    3.8113   -5.0904 O   0  0  0  0  0  0  0  0  0  0  0  0
   -1.5291    1.8485    8.9687 H   0  0  0  0  0  0  0  0  0  0  0  0
   -2.3430   -3.4059    5.6691 H   0  0  0  0  0  0  0  0  0  0  0  0
    1.2238   -2.8623    9.2728 H   0  0  0  0  0  0  0  0  0  0  0  0
    2.1816   -4.9740    6.6958 H   0  0  0  0  0  0  0  0  0  0  0  0
    1.9781   -6.7707    8.5344 H   0  0  0  0  0  0  0  0  0  0  0  0
   -0.3980   -6.6379    9.7065 H   0  0  0  0  0  0  0  0  0  0  0  0
   -2.2285   -6.9329    7.8752 H   0  0  0  0  0  0  0  0  0  0  0  0
   -1.0239   -7.2382    5.5362 H   0  0  0  0  0  0  0  0  0  0  0  0
    1.5911   -7.5306    5.9949 H   0  0  0  0  0  0  0  0  0  0  0  0
    0.6088   -8.5549    7.1413 H   0  0  0  0  0  0  0  0  0  0  0  0
    0.5235   -5.2337    5.0341 H   0  0  0  0  0  0  0  0  0  0  0  0
   -4.6983    1.3412    6.9518 H   0  0  0  0  0  0  0  0  0  0  0  0
   -6.3122    2.9800    6.5417 H   0  0  0  0  0  0  0  0  0  0  0  0
   -8.8587    2.7604    6.6762 H   0  0  0  0  0  0  0  0  0  0  0  0
  -10.3361    4.0350    4.2898 H   0  0  0  0  0  0  0  0  0  0  0  0
  -11.9961    3.4918    3.8762 H   0  0  0  0  0  0  0  0  0  0  0  0
  -11.1547    2.5413    1.7053 H   0  0  0  0  0  0  0  0  0  0  0  0
   -9.5001    3.1700    2.0873 H   0  0  0  0  0  0  0  0  0  0  0  0
  -10.8660    4.3199    1.8507 H   0  0  0  0  0  0  0  0  0  0  0  0
   -1.0848    3.7025    0.7332 H   0  0  0  0  0  0  0  0  0  0  0  0
    0.6656    5.5242    0.6520 H   0  0  0  0  0  0  0  0  0  0  0  0
    3.9608    6.8182    3.1639 H   0  0  0  0  0  0  0  0  0  0  0  0
    3.1312    5.2373    2.9870 H   0  0  0  0  0  0  0  0  0  0  0  0
    2.3409    5.4058    5.3730 H   0  0  0  0  0  0  0  0  0  0  0  0
    4.1431    5.5321    5.2627 H   0  0  0  0  0  0  0  0  0  0  0  0
    3.1440    7.0232    5.5127 H   0  0  0  0  0  0  0  0  0  0  0  0
   -1.8082    1.7208    0.8143 H   0  0  0  0  0  0  0  0  0  0  0  0
   -2.4034   -1.6997    2.9708 H   0  0  0  0  0  0  0  0  0  0  0  0
   -3.9735   -2.1605    4.8029 H   0  0  0  0  0  0  0  0  0  0  0  0
   -7.1396   -1.4724    6.8071 H   0  0  0  0  0  0  0  0  0  0  0  0
   -7.8579   -0.7653    5.3150 H   0  0  0  0  0  0  0  0  0  0  0  0
   -6.0681   -0.6474    5.6261 H   0  0  0  0  0  0  0  0  0  0  0  0
   -7.2214   -2.4733    2.0459 H   0  0  0  0  0  0  0  0  0  0  0  0
   -5.6522   -2.1173    0.1734 H   0  0  0  0  0  0  0  0  0  0  0  0
   -1.2116   -3.5513    1.5902 H   0  0  0  0  0  0  0  0  0  0  0  0
   -0.6564   -5.8675    0.9177 H   0  0  0  0  0  0  0  0  0  0  0  0
   -3.8777   -7.8218   -0.6397 H   0  0  0  0  0  0  0  0  0  0  0  0
   -2.7420   -8.0631    0.7639 H   0  0  0  0  0  0  0  0  0  0  0  0
   -2.9319   -9.3505   -0.4876 H   0  0  0  0  0  0  0  0  0  0  0  0
   -3.3296   -5.5343   -2.4412 H   0  0  0  0  0  0  0  0  0  0  0  0
   -3.9073   -3.2432   -1.7573 H   0  0  0  0  0  0  0  0  0  0  0  0
   -3.9798    1.5432   -5.3084 H   0  0  0  0  0  0  0  0  0  0  0  0
   -5.8456    0.2197   -6.2202 H   0  0  0  0  0  0  0  0  0  0  0  0
   -6.9673   -4.1626   -5.6823 H   0  0  0  0  0  0  0  0  0  0  0  0
   -5.3405   -3.6330   -5.1127 H   0  0  0  0  0  0  0  0  0  0  0  0
   -6.7724   -2.5468   -4.8963 H   0  0  0  0  0  0  0  0  0  0  0  0
   -3.1720   -3.0874   -6.8974 H   0  0  0  0  0  0  0  0  0  0  0  0
   -1.3119   -1.7812   -5.9454 H   0  0  0  0  0  0  0  0  0  0  0  0
   -1.4871    3.3257   -5.1962 H   0  0  0  0  0  0  0  0  0  0  0  0
   -0.1143    4.6394   -6.7877 H   0  0  0  0  0  0  0  0  0  0  0  0
    0.5921    2.3400  -10.0635 H   0  0  0  0  0  0  0  0  0  0  0  0
   -0.1469    3.9906   -9.9482 H   0  0  0  0  0  0  0  0  0  0  0  0
    1.2786    3.7048  -11.0208 H   0  0  0  0  0  0  0  0  0  0  0  0
    1.9469    1.0466   -7.9514 H   0  0  0  0  0  0  0  0  0  0  0  0
    0.5472   -0.2649   -6.4161 H   0  0  0  0  0  0  0  0  0  0  0  0
    1.3630    1.6467   -2.7675 H   0  0  0  0  0  0  0  0  0  0  0  0
    3.0472    1.9178   -0.7372 H   0  0  0  0  0  0  0  0  0  0  0  0
    2.8539    4.0953    0.6217 H   0  0  0  0  0  0  0  0  0  0  0  0
    5.4621    7.4155    1.0848 H   0  0  0  0  0  0  0  0  0  0  0  0
    5.1429    5.6523    1.1107 H   0  0  0  0  0  0  0  0  0  0  0  0
    7.3752    6.2831    0.0827 H   0  0  0  0  0  0  0  0  0  0  0  0
    6.4924    7.1748   -1.2214 H   0  0  0  0  0  0  0  0  0  0  0  0
    6.3225    5.3720   -1.0507 H   0  0  0  0  0  0  0  0  0  0  0  0
    3.9158   -2.2153   -6.6939 H   0  0  0  0  0  0  0  0  0  0  0  0
    5.2401   -4.3664   -7.2303 H   0  0  0  0  0  0  0  0  0  0  0  0
    8.3185   -6.5171   -4.1927 H   0  0  0  0  0  0  0  0  0  0  0  0
    7.1223   -5.2475   -3.7638 H   0  0  0  0  0  0  0  0  0  0  0  0
    5.4512   -6.3303   -5.3133 H   0  0  0  0  0  0  0  0  0  0  0  0
    6.6848   -7.5869   -5.7449 H   0  0  0  0  0  0  0  0  0  0  0  0
    6.0453   -7.4861   -4.0587 H   0  0  0  0  0  0  0  0  0  0  0  0
    7.6992    0.2543   -5.7181 H   0  0  0  0  0  0  0  0  0  0  0  0
    9.8858    1.9161   -4.9173 H   0  0  0  0  0  0  0  0  0  0  0  0
    7.9988    7.8219   -6.2300 H   0  0  0  0  0  0  0  0  0  0  0  0
   12.7723    6.5550   -5.4881 H   0  0  0  0  0  0  0  0  0  0  0  0
  1  2  2  3
  2  3  1  0
  3  4  2  0
  3  5  1  0
  5  6  2  0
  6  7  1  0
  7  8  2  0
  8  9  1  0
  9 10  2  0
 10 11  1  0
 11 12  2  3
 12 13  1  0
 13 14  3  0
 12 15  1  0
 15 16  3  0
  8 17  1  0
 17 18  1  0
 18 19  1  0
 19 20  2  0
 20 21  1  0
 21 22  1  0
 21 23  1  0
  1 24  1  0
 24 25  2  0
 25 26  1  0
 26 27  2  0
 27 28  1  0
 28 29  2  0
 29 30  1  0
 30 31  2  0
 31 32  1  0
 32 33  1  0
 33 34  1  0
 31 35  1  0
 27 36  1  0
 36 37  2  0
 37 38  1  0
 38 39  1  0
 39 40  2  0
 40 41  1  0
 41 42  2  0
 42 43  1  0
 43 44  1  0
 44 45  1  0
 42 46  1  0
 38 47  2  0
 47 48  1  0
 37 49  1  0
 49 50  2  0
 50 51  1  0
 50 52  1  0
 52 53  2  0
 53 54  1  0
 54 55  1  0
 55 56  2  0
 56 57  1  0
 57 58  2  0
 58 59  1  0
 59 60  1  0
 58 61  1  0
 61 62  2  0
 54 63  1  0
 63 64  2  0
 64 65  1  0
 65 66  2  0
 66 67  1  0
 67 68  1  0
 66 69  1  0
 69 70  2  0
 53 71  1  0
 71 72  1  0
 72 73  1  0
 73 74  2  0
 74 75  1  0
 75 76  1  0
 76 77  2  0
 77 78  1  0
 78 79  2  0
 79 80  1  0
 80 81  1  0
 79 82  1  0
 82 83  2  0
 75 84  1  0
 84 85  2  0
 85 86  1  0
 86 87  2  0
 87 88  1  0
 88 89  1  0
 87 90  1  0
 90 91  2  0
 74 92  1  0
 92 93  1  0
 73 94  1  0
 94 95  2  0
 95 96  1  0
 96 97  2  0
 97 98  1  0
 98 99  2  0
 99100  1  0
100101  2  0
101102  1  0
102103  1  0
103104  1  0
101105  1  0
 97106  1  0
106107  2  0
107108  1  0
108109  1  0
109110  2  0
110111  1  0
111112  2  0
112113  1  0
113114  1  0
114115  1  0
112116  1  0
108117  2  0
117118  1  0
107119  1  0
119120  2  0
120121  1  0
120122  1  0
122123  2  3
123124  1  0
124125  2  0
124126  1  0
126127  2  0
127128  1  0
128129  1  0
128130  2  0
130131  1  0
130132  1  0
132133  2  0
133134  1  0
134135  2  0
 11  2  1  0
 23 17  1  0
 48 24  1  0
 93 52  1  0
118 94  1  0
134123  1  0
 10  5  1  0
 22 18  1  0
 47 26  1  0
 62 55  1  0
 70 63  1  0
 92 71  2  0
117 96  1  0
133126  1  0
 23  7  1  0
 35 28  1  0
 51 36  1  0
 83 76  1  0
 91 84  1  0
105 98  1  0
121106  1  0
 46 39  1  0
116109  1  0
  1136  1  0
  6137  1  0
  9138  1  0
 17139  1  0
 18140  1  0
 19141  1  0
 20142  1  0
 21143  1  0
 22144  1  0
 22145  1  0
 23146  1  0
 25147  1  0
 29148  1  0
 30149  1  0
 33150  1  0
 33151  1  0
 34152  1  0
 34153  1  0
 34154  1  0
 40155  1  0
 41156  1  0
 44157  1  0
 44158  1  0
 45159  1  0
 45160  1  0
 45161  1  0
 49162  1  0
 56163  1  0
 57164  1  0
 60165  1  0
 60166  1  0
 60167  1  0
 61168  1  0
 62169  1  0
 64170  1  0
 65171  1  0
 68172  1  0
 68173  1  0
 68174  1  0
 69175  1  0
 70176  1  0
 77177  1  0
 78178  1  0
 81179  1  0
 81180  1  0
 81181  1  0
 82182  1  0
 83183  1  0
 85184  1  0
 86185  1  0
 89186  1  0
 89187  1  0
 89188  1  0
 90189  1  0
 91190  1  0
 95191  1  0
 99192  1  0
100193  1  0
103194  1  0
103195  1  0
104196  1  0
104197  1  0
104198  1  0
110199  1  0
111200  1  0
114201  1  0
114202  1  0
115203  1  0
115204  1  0
115205  1  0
119206  1  0
122207  1  0
127208  1  0
132209  1  0
M  END

