
     RDKit          3D

156171  0  0  0  0  0  0  0  0999 V2000
    0.2312    0.7676    6.7254 C   0  0  0  0  0  0  0  0  0  0  0  0
   -0.3167    0.1992    7.8195 C   0  0  0  0  0  0  0  0  0  0  0  0
   -1.2146   -0.9693    7.8509 C   0  0  0  0  0  0  0  0  0  0  0  0
   -1.9034   -1.4160    6.8982 O   0  0  0  0  0  0  0  0  0  0  0  0
   -1.1172   -1.5914    9.1513 C   0  0  0  0  0  0  0  0  0  0  0  0
   -1.6794   -2.8247    9.5436 C   0  0  0  0  0  0  0  0  0  0  0  0
   -1.2261   -3.2733   10.7695 C   0  0  0  0  0  0  0  0  0  0  0  0
   -0.2777   -2.5577   11.5706 C   0  0  0  0  0  0  0  0  0  0  0  0
    0.2564   -1.3333   11.2003 C   0  0  0  0  0  0  0  0  0  0  0  0
   -0.2264   -0.8355    9.9540 C   0  0  0  0  0  0  0  0  0  0  0  0
    0.1804    0.3867    9.2158 C   0  0  0  0  0  0  0  0  0  0  0  0
    0.6890    1.5212    9.7585 C   0  0  0  0  0  0  0  0  0  0  0  0
    0.8311    2.7395    8.9997 C   0  0  0  0  0  0  0  0  0  0  0  0
    0.9539    3.7227    8.3959 N   0  0  0  0  0  0  0  0  0  0  0  0
    0.9561    1.6472   11.1657 C   0  0  0  0  0  0  0  0  0  0  0  0
    1.1586    1.7638   12.2994 N   0  0  0  0  0  0  0  0  0  0  0  0
   -0.2423   -3.6827   12.5663 C   0  0  0  0  0  0  0  0  0  0  0  0
    1.0066   -4.6192   12.5228 C   0  0  0  0  0  0  0  0  0  0  0  0
    0.6284   -5.8557   13.3029 C   0  0  0  0  0  0  0  0  0  0  0  0
   -0.2891   -6.5051   12.5742 C   0  0  0  0  0  0  0  0  0  0  0  0
   -0.4835   -5.6920   11.3113 C   0  0  0  0  0  0  0  0  0  0  0  0
    0.9439   -5.2104   11.1187 C   0  0  0  0  0  0  0  0  0  0  0  0
   -1.2321   -4.4009   11.7559 C   0  0  0  0  0  0  0  0  0  0  0  0
   -0.0394    0.3716    5.3332 C   0  0  0  0  0  0  0  0  0  0  0  0
   -1.3260    0.3734    4.7756 C   0  0  0  0  0  0  0  0  0  0  0  0
   -1.4940    0.0107    3.4353 C   0  0  0  0  0  0  0  0  0  0  0  0
   -0.3745   -0.3090    2.6368 C   0  0  0  0  0  0  0  0  0  0  0  0
    0.9000   -0.2265    3.2274 C   0  0  0  0  0  0  0  0  0  0  0  0
    1.0295    0.1057    4.5351 N   0  0  0  0  0  0  0  0  0  0  0  0
   -0.5165   -0.5683    1.1807 C   0  0  0  0  0  0  0  0  0  0  0  0
    0.4928   -1.0656    0.3273 C   0  0  0  0  0  0  0  0  0  0  0  0
    1.4997   -2.0057    0.7476 N   0  0  0  0  0  0  0  0  0  0  0  0
    1.1165   -3.0727    1.6400 C   0  0  0  0  0  0  0  0  0  0  0  0
    1.8956   -3.3611    2.7743 C   0  0  0  0  0  0  0  0  0  0  0  0
    1.4208   -4.2395    3.7543 C   0  0  0  0  0  0  0  0  0  0  0  0
    0.1783   -4.8678    3.5848 C   0  0  0  0  0  0  0  0  0  0  0  0
   -0.5336   -5.8125    4.9295 S   0  0  0  0  0  0  0  0  0  0  0  0
   -1.4606   -4.3920    5.5782 C   0  0  0  0  0  0  0  0  0  0  0  0
   -0.5593   -4.6547    2.4164 C   0  0  0  0  0  0  0  0  0  0  0  0
   -0.0957   -3.7608    1.4527 C   0  0  0  0  0  0  0  0  0  0  0  0
    2.8271   -1.9632    0.1878 C   0  0  0  0  0  0  0  0  0  0  0  0
    3.4891   -0.7341    0.0166 C   0  0  0  0  0  0  0  0  0  0  0  0
    4.7726   -0.6997   -0.5456 C   0  0  0  0  0  0  0  0  0  0  0  0
    5.3937   -1.8823   -0.9612 C   0  0  0  0  0  0  0  0  0  0  0  0
    7.0175   -1.8296   -1.7197 S   0  0  0  0  0  0  0  0  0  0  0  0
    6.3495   -1.5094   -3.3824 C   0  0  0  0  0  0  0  0  0  0  0  0
    4.7284   -3.1038   -0.8093 C   0  0  0  0  0  0  0  0  0  0  0  0
    3.4584   -3.1471   -0.2275 C   0  0  0  0  0  0  0  0  0  0  0  0
    0.1668   -0.8632   -1.0105 C   0  0  0  0  0  0  0  0  0  0  0  0
    1.0014   -1.0042   -2.4480 S   0  0  0  0  0  0  0  0  0  0  0  0
   -0.2660   -0.4117   -3.4199 C   0  0  0  0  0  0  0  0  0  0  0  0
   -1.3908   -0.1675   -2.5953 C   0  0  0  0  0  0  0  0  0  0  0  0
   -2.7433    0.0293   -3.0755 N   0  0  0  0  0  0  0  0  0  0  0  0
   -3.6892    0.7886   -2.3000 C   0  0  0  0  0  0  0  0  0  0  0  0
   -3.4199    2.1216   -1.9533 C   0  0  0  0  0  0  0  0  0  0  0  0
   -4.3527    2.8597   -1.2183 C   0  0  0  0  0  0  0  0  0  0  0  0
   -5.5474    2.2656   -0.8012 C   0  0  0  0  0  0  0  0  0  0  0  0
   -6.7155    3.1924    0.1944 S   0  0  0  0  0  0  0  0  0  0  0  0
   -7.7242    3.7269   -1.2208 C   0  0  0  0  0  0  0  0  0  0  0  0
   -5.8146    0.9313   -1.1320 C   0  0  0  0  0  0  0  0  0  0  0  0
   -4.8985    0.1985   -1.8873 C   0  0  0  0  0  0  0  0  0  0  0  0
   -3.2223   -0.7207   -4.2173 C   0  0  0  0  0  0  0  0  0  0  0  0
   -2.8210   -2.0503   -4.4310 C   0  0  0  0  0  0  0  0  0  0  0  0
   -3.2544   -2.7538   -5.5612 C   0  0  0  0  0  0  0  0  0  0  0  0
   -4.1073   -2.1363   -6.4837 C   0  0  0  0  0  0  0  0  0  0  0  0
   -4.6248   -3.0058   -7.9700 S   0  0  0  0  0  0  0  0  0  0  0  0
   -6.1573   -3.6436   -7.2154 C   0  0  0  0  0  0  0  0  0  0  0  0
   -4.5369   -0.8236   -6.2658 C   0  0  0  0  0  0  0  0  0  0  0  0
   -4.1069   -0.1235   -5.1325 C   0  0  0  0  0  0  0  0  0  0  0  0
   -1.0709   -0.3606   -1.2475 C   0  0  0  0  0  0  0  0  0  0  0  0
   -1.8291   -0.0422    0.2204 S   0  0  0  0  0  0  0  0  0  0  0  0
   -0.0866    0.1429   -4.7882 C   0  0  0  0  0  0  0  0  0  0  0  0
   -1.0721    1.3753   -5.4234 S   0  0  0  0  0  0  0  0  0  0  0  0
   -0.1532    1.7706   -6.7679 C   0  0  0  0  0  0  0  0  0  0  0  0
    0.9587    0.9611   -6.7115 C   0  0  0  0  0  0  0  0  0  0  0  0
    2.3552    0.9176   -7.6325 S   0  0  0  0  0  0  0  0  0  0  0  0
    3.0908   -0.2679   -6.6812 C   0  0  0  0  0  0  0  0  0  0  0  0
    4.4367   -0.7876   -6.9489 C   0  0  0  0  0  0  0  0  0  0  0  0
    4.9553   -1.6419   -6.1835 O   0  0  0  0  0  0  0  0  0  0  0  0
    5.1239   -0.3332   -8.0799 O   0  0  0  0  0  0  0  0  0  0  0  0
    6.4371   -0.7553   -8.4324 C   0  0  0  0  0  0  0  0  0  0  0  0
    7.4821   -0.0043   -7.6236 C   0  0  0  0  0  0  0  0  0  0  0  0
    2.2393   -0.6366   -5.6219 C   0  0  0  0  0  0  0  0  0  0  0  0
    1.0294    0.0783   -5.6448 C   0  0  0  0  0  0  0  0  0  0  0  0
    2.5632   -1.5983   -4.7265 F   0  0  0  0  0  0  0  0  0  0  0  0
   -0.3874    2.9128   -7.6561 C   0  0  0  0  0  0  0  0  0  0  0  0
    0.3175    4.0547   -7.5760 C   0  0  0  0  0  0  0  0  0  0  0  0
    1.4724    4.2889   -6.7012 C   0  0  0  0  0  0  0  0  0  0  0  0
    1.8136    3.6033   -5.6946 O   0  0  0  0  0  0  0  0  0  0  0  0
    2.1861    5.4484   -7.1807 C   0  0  0  0  0  0  0  0  0  0  0  0
    3.4310    5.9217   -6.7663 C   0  0  0  0  0  0  0  0  0  0  0  0
    4.0021    7.0150   -7.4473 C   0  0  0  0  0  0  0  0  0  0  0  0
    5.3898    7.4759   -7.0913 C   0  0  0  0  0  0  0  0  0  0  0  0
    5.6045    7.3583   -5.7275 F   0  0  0  0  0  0  0  0  0  0  0  0
    5.5854    8.7984   -7.4465 F   0  0  0  0  0  0  0  0  0  0  0  0
    6.3099    6.6918   -7.7599 F   0  0  0  0  0  0  0  0  0  0  0  0
    3.3206    7.5704   -8.5559 C   0  0  0  0  0  0  0  0  0  0  0  0
    2.0733    7.0673   -8.9580 C   0  0  0  0  0  0  0  0  0  0  0  0
    1.5004    6.0074   -8.2454 C   0  0  0  0  0  0  0  0  0  0  0  0
    0.2410    5.2368   -8.4892 C   0  0  0  0  0  0  0  0  0  0  0  0
   -0.8358    5.6391   -9.2127 C   0  0  0  0  0  0  0  0  0  0  0  0
   -2.0942    4.9384   -9.1896 C   0  0  0  0  0  0  0  0  0  0  0  0
   -3.1115    4.3858   -9.1724 N   0  0  0  0  0  0  0  0  0  0  0  0
   -0.8530    6.8748   -9.9536 C   0  0  0  0  0  0  0  0  0  0  0  0
   -0.8772    7.8670  -10.5554 N   0  0  0  0  0  0  0  0  0  0  0  0
    1.0900    1.4130    6.8543 H   0  0  0  0  0  0  0  0  0  0  0  0
   -2.3548   -3.3996    8.9186 H   0  0  0  0  0  0  0  0  0  0  0  0
    1.0342   -0.8643   11.7887 H   0  0  0  0  0  0  0  0  0  0  0  0
   -0.5918   -3.3938   13.5830 H   0  0  0  0  0  0  0  0  0  0  0  0
    1.9742   -4.1538   12.8075 H   0  0  0  0  0  0  0  0  0  0  0  0
    1.0662   -6.2110   14.2320 H   0  0  0  0  0  0  0  0  0  0  0  0
   -0.7210   -7.4735   12.8075 H   0  0  0  0  0  0  0  0  0  0  0  0
   -0.9301   -6.2413   10.4589 H   0  0  0  0  0  0  0  0  0  0  0  0
    1.0710   -4.4626   10.3027 H   0  0  0  0  0  0  0  0  0  0  0  0
    1.6697   -6.0462   10.9562 H   0  0  0  0  0  0  0  0  0  0  0  0
   -2.2157   -4.5614   12.2548 H   0  0  0  0  0  0  0  0  0  0  0  0
   -2.1854    0.6587    5.3661 H   0  0  0  0  0  0  0  0  0  0  0  0
   -2.4895    0.0064    3.0168 H   0  0  0  0  0  0  0  0  0  0  0  0
    1.7958   -0.3771    2.6462 H   0  0  0  0  0  0  0  0  0  0  0  0
    2.8265   -2.8383    2.9420 H   0  0  0  0  0  0  0  0  0  0  0  0
    1.9776   -4.3790    4.6662 H   0  0  0  0  0  0  0  0  0  0  0  0
   -2.1975   -4.0421    4.8264 H   0  0  0  0  0  0  0  0  0  0  0  0
   -0.7623   -3.5692    5.8183 H   0  0  0  0  0  0  0  0  0  0  0  0
   -2.0031   -4.6856    6.5010 H   0  0  0  0  0  0  0  0  0  0  0  0
   -1.5264   -5.1230    2.2893 H   0  0  0  0  0  0  0  0  0  0  0  0
   -0.7052   -3.5631    0.5781 H   0  0  0  0  0  0  0  0  0  0  0  0
    3.0166    0.1940    0.3135 H   0  0  0  0  0  0  0  0  0  0  0  0
    5.2780    0.2515   -0.6648 H   0  0  0  0  0  0  0  0  0  0  0  0
    5.6447   -2.3143   -3.6723 H   0  0  0  0  0  0  0  0  0  0  0  0
    5.8235   -0.5339   -3.3997 H   0  0  0  0  0  0  0  0  0  0  0  0
    7.1862   -1.4839   -4.1147 H   0  0  0  0  0  0  0  0  0  0  0  0
    5.1959   -4.0202   -1.1468 H   0  0  0  0  0  0  0  0  0  0  0  0
    2.9483   -4.0979   -0.1338 H   0  0  0  0  0  0  0  0  0  0  0  0
   -2.4907    2.5772   -2.2666 H   0  0  0  0  0  0  0  0  0  0  0  0
   -4.1334    3.8894   -0.9597 H   0  0  0  0  0  0  0  0  0  0  0  0
   -8.5645    4.3563   -0.8487 H   0  0  0  0  0  0  0  0  0  0  0  0
   -8.1523    2.8449   -1.7375 H   0  0  0  0  0  0  0  0  0  0  0  0
   -7.1134    4.3194   -1.9340 H   0  0  0  0  0  0  0  0  0  0  0  0
   -6.7377    0.4579   -0.8128 H   0  0  0  0  0  0  0  0  0  0  0  0
   -5.1150   -0.8354   -2.1289 H   0  0  0  0  0  0  0  0  0  0  0  0
   -2.1727   -2.5531   -3.7222 H   0  0  0  0  0  0  0  0  0  0  0  0
   -2.9236   -3.7748   -5.7181 H   0  0  0  0  0  0  0  0  0  0  0  0
   -6.7785   -2.8028   -6.8344 H   0  0  0  0  0  0  0  0  0  0  0  0
   -5.9088   -4.3318   -6.3782 H   0  0  0  0  0  0  0  0  0  0  0  0
   -6.7327   -4.2015   -7.9871 H   0  0  0  0  0  0  0  0  0  0  0  0
   -5.1963   -0.3384   -6.9741 H   0  0  0  0  0  0  0  0  0  0  0  0
   -4.4357    0.8976   -4.9881 H   0  0  0  0  0  0  0  0  0  0  0  0
    6.5527   -1.8549   -8.2930 H   0  0  0  0  0  0  0  0  0  0  0  0
    6.5923   -0.5378   -9.5096 H   0  0  0  0  0  0  0  0  0  0  0  0
    7.4455   -0.2926   -6.5553 H   0  0  0  0  0  0  0  0  0  0  0  0
    8.4915   -0.2237   -8.0198 H   0  0  0  0  0  0  0  0  0  0  0  0
    7.3128    1.0927   -7.7126 H   0  0  0  0  0  0  0  0  0  0  0  0
   -1.1312    2.7705   -8.4211 H   0  0  0  0  0  0  0  0  0  0  0  0
    3.9536    5.4259   -5.9615 H   0  0  0  0  0  0  0  0  0  0  0  0
    3.7686    8.3687   -9.1262 H   0  0  0  0  0  0  0  0  0  0  0  0
    1.6136    7.4854   -9.8375 H   0  0  0  0  0  0  0  0  0  0  0  0
  1  2  2  3
  2  3  1  0
  3  4  2  0
  3  5  1  0
  5  6  2  0
  6  7  1  0
  7  8  2  0
  8  9  1  0
  9 10  2  0
 10 11  1  0
 11 12  2  3
 12 13  1  0
 13 14  3  0
 12 15  1  0
 15 16  3  0
  8 17  1  0
 17 18  1  0
 18 19  1  0
 19 20  2  0
 20 21  1  0
 21 22  1  0
 21 23  1  0
  1 24  1  0
 24 25  2  0
 25 26  1  0
 26 27  2  0
 27 28  1  0
 28 29  2  0
 27 30  1  0
 30 31  2  0
 31 32  1  0
 32 33  1  0
 33 34  2  0
 34 35  1  0
 35 36  2  0
 36 37  1  0
 37 38  1  0
 36 39  1  0
 39 40  2  0
 32 41  1  0
 41 42  2  0
 42 43  1  0
 43 44  2  0
 44 45  1  0
 45 46  1  0
 44 47  1  0
 47 48  2  0
 31 49  1  0
 49 50  1  0
 50 51  1  0
 51 52  2  0
 52 53  1  0
 53 54  1  0
 54 55  2  0
 55 56  1  0
 56 57  2  0
 57 58  1  0
 58 59  1  0
 57 60  1  0
 60 61  2  0
 53 62  1  0
 62 63  2  0
 63 64  1  0
 64 65  2  0
 65 66  1  0
 66 67  1  0
 65 68  1  0
 68 69  2  0
 52 70  1  0
 70 71  1  0
 51 72  1  0
 72 73  1  0
 73 74  1  0
 74 75  2  0
 75 76  1  0
 76 77  1  0
 77 78  1  0
 78 79  2  0
 78 80  1  0
 80 81  1  0
 81 82  1  0
 77 83  2  0
 83 84  1  0
 83 85  1  0
 74 86  1  0
 86 87  2  3
 87 88  1  0
 88 89  2  0
 88 90  1  0
 90 91  2  0
 91 92  1  0
 92 93  1  0
 93 94  1  0
 93 95  1  0
 93 96  1  0
 92 97  2  0
 97 98  1  0
 98 99  2  0
 99100  1  0
100101  2  3
101102  1  0
102103  3  0
101104  1  0
104105  3  0
 11  2  1  0
 23 17  1  0
 29 24  1  0
 71 30  1  0
 84 72  2  0
100 87  1  0
 10  5  1  0
 22 18  1  0
 40 33  1  0
 48 41  1  0
 70 49  2  0
 84 75  1  0
 99 90  1  0
 23  7  1  0
 61 54  1  0
 69 62  1  0
  1106  1  0
  6107  1  0
  9108  1  0
 17109  1  0
 18110  1  0
 19111  1  0
 20112  1  0
 21113  1  0
 22114  1  0
 22115  1  0
 23116  1  0
 25117  1  0
 26118  1  0
 28119  1  0
 34120  1  0
 35121  1  0
 38122  1  0
 38123  1  0
 38124  1  0
 39125  1  0
 40126  1  0
 42127  1  0
 43128  1  0
 46129  1  0
 46130  1  0
 46131  1  0
 47132  1  0
 48133  1  0
 55134  1  0
 56135  1  0
 59136  1  0
 59137  1  0
 59138  1  0
 60139  1  0
 61140  1  0
 63141  1  0
 64142  1  0
 67143  1  0
 67144  1  0
 67145  1  0
 68146  1  0
 69147  1  0
 81148  1  0
 81149  1  0
 82150  1  0
 82151  1  0
 82152  1  0
 86153  1  0
 91154  1  0
 97155  1  0
 98156  1  0
M  END

