
     RDKit          3D

178196  0  0  0  0  0  0  0  0999 V2000
   -1.5007   -3.3613    7.3438 C   0  0  0  0  0  0  0  0  0  0  0  0
   -2.0167   -2.1126    7.3018 C   0  0  0  0  0  0  0  0  0  0  0  0
   -1.6085   -1.0562    6.3576 C   0  0  0  0  0  0  0  0  0  0  0  0
   -0.5514   -1.0228    5.6725 O   0  0  0  0  0  0  0  0  0  0  0  0
   -2.6589   -0.0734    6.2779 C   0  0  0  0  0  0  0  0  0  0  0  0
   -2.7072    1.0349    5.4041 C   0  0  0  0  0  0  0  0  0  0  0  0
   -3.9000    1.7265    5.4517 C   0  0  0  0  0  0  0  0  0  0  0  0
   -4.9961    1.3468    6.2909 C   0  0  0  0  0  0  0  0  0  0  0  0
   -4.9517    0.2630    7.1569 C   0  0  0  0  0  0  0  0  0  0  0  0
   -3.7131   -0.4448    7.1531 C   0  0  0  0  0  0  0  0  0  0  0  0
   -3.3027   -1.6628    7.9152 C   0  0  0  0  0  0  0  0  0  0  0  0
   -3.8630   -2.1363    9.0564 C   0  0  0  0  0  0  0  0  0  0  0  0
   -5.0555   -1.5699    9.6279 C   0  0  0  0  0  0  0  0  0  0  0  0
   -6.0125   -1.1249   10.1049 N   0  0  0  0  0  0  0  0  0  0  0  0
   -3.2307   -3.1537    9.8537 C   0  0  0  0  0  0  0  0  0  0  0  0
   -2.7231   -3.9681   10.5016 N   0  0  0  0  0  0  0  0  0  0  0  0
   -5.8301    2.4592    5.7263 C   0  0  0  0  0  0  0  0  0  0  0  0
   -6.9277    2.0545    4.6979 C   0  0  0  0  0  0  0  0  0  0  0  0
   -7.3359    3.3332    4.0041 C   0  0  0  0  0  0  0  0  0  0  0  0
   -6.3036    3.6932    3.2317 C   0  0  0  0  0  0  0  0  0  0  0  0
   -5.2349    2.6461    3.4309 C   0  0  0  0  0  0  0  0  0  0  0  0
   -6.1270    1.4231    3.5692 C   0  0  0  0  0  0  0  0  0  0  0  0
   -4.7007    2.8531    4.8780 C   0  0  0  0  0  0  0  0  0  0  0  0
   -0.4165   -3.7785    6.4351 C   0  0  0  0  0  0  0  0  0  0  0  0
   -0.7254   -4.5033    5.2682 C   0  0  0  0  0  0  0  0  0  0  0  0
   -2.0075   -5.0272    5.0700 O   0  0  0  0  0  0  0  0  0  0  0  0
   -3.0953   -4.2038    4.6509 C   0  0  0  0  0  0  0  0  0  0  0  0
   -4.1829   -5.0669    4.0402 C   0  0  0  0  0  0  0  0  0  0  0  0
    0.2272   -4.6661    4.2445 C   0  0  0  0  0  0  0  0  0  0  0  0
   -0.1267   -5.5247    3.1828 O   0  0  0  0  0  0  0  0  0  0  0  0
   -0.0671   -5.2488    1.7838 C   0  0  0  0  0  0  0  0  0  0  0  0
   -1.0961   -4.1910    1.3936 C   0  0  0  0  0  0  0  0  0  0  0  0
    1.4923   -4.0256    4.3499 C   0  0  0  0  0  0  0  0  0  0  0  0
    1.8365   -3.4104    5.5631 C   0  0  0  0  0  0  0  0  0  0  0  0
    0.8858   -3.3037    6.6163 C   0  0  0  0  0  0  0  0  0  0  0  0
    1.2722   -2.6170    7.7206 N   0  0  0  0  0  0  0  0  0  0  0  0
    2.8081   -2.1953    7.2885 S   0  0  0  0  0  0  0  0  0  0  0  0
    3.0327   -2.8034    5.7701 N   0  0  0  0  0  0  0  0  0  0  0  0
    2.2372   -3.6158    3.1572 C   0  0  0  0  0  0  0  0  0  0  0  0
    3.5141   -3.9964    2.7606 C   0  0  0  0  0  0  0  0  0  0  0  0
    3.9983   -3.2494    1.6589 C   0  0  0  0  0  0  0  0  0  0  0  0
    5.3284   -3.4701    1.0361 C   0  0  0  0  0  0  0  0  0  0  0  0
    5.8062   -2.5984    0.2606 O   0  0  0  0  0  0  0  0  0  0  0  0
    6.1275   -4.7192    1.2872 C   0  0  0  0  0  0  0  0  0  0  0  0
    5.4993   -5.9205    0.5859 C   0  0  0  0  0  0  0  0  0  0  0  0
    3.0991   -2.2511    1.2539 C   0  0  0  0  0  0  0  0  0  0  0  0
    1.7408   -2.3252    2.2258 S   0  0  0  0  0  0  0  0  0  0  0  0
    3.1338   -1.3847    0.0682 C   0  0  0  0  0  0  0  0  0  0  0  0
    2.5303   -0.1064    0.0467 C   0  0  0  0  0  0  0  0  0  0  0  0
    2.3305    0.7137    1.2242 N   0  0  0  0  0  0  0  0  0  0  0  0
    3.2901    0.6767    2.2990 C   0  0  0  0  0  0  0  0  0  0  0  0
    2.8566    0.5899    3.6324 C   0  0  0  0  0  0  0  0  0  0  0  0
    3.7909    0.4822    4.6695 C   0  0  0  0  0  0  0  0  0  0  0  0
    5.1615    0.4823    4.3836 C   0  0  0  0  0  0  0  0  0  0  0  0
    6.3648    0.3659    5.7107 S   0  0  0  0  0  0  0  0  0  0  0  0
    6.6366   -1.4181    5.4756 C   0  0  0  0  0  0  0  0  0  0  0  0
    5.5957    0.6084    3.0580 C   0  0  0  0  0  0  0  0  0  0  0  0
    4.6662    0.6956    2.0208 C   0  0  0  0  0  0  0  0  0  0  0  0
    1.3686    1.7786    1.2264 C   0  0  0  0  0  0  0  0  0  0  0  0
    1.7596    3.0763    0.8606 C   0  0  0  0  0  0  0  0  0  0  0  0
    0.8102    4.0970    0.7729 C   0  0  0  0  0  0  0  0  0  0  0  0
   -0.5323    3.8360    1.0836 C   0  0  0  0  0  0  0  0  0  0  0  0
   -1.7637    5.1344    0.9007 S   0  0  0  0  0  0  0  0  0  0  0  0
   -1.5070    5.8004    2.5724 C   0  0  0  0  0  0  0  0  0  0  0  0
   -0.9165    2.5541    1.5000 C   0  0  0  0  0  0  0  0  0  0  0  0
    0.0316    1.5255    1.5650 C   0  0  0  0  0  0  0  0  0  0  0  0
    2.1058    0.2136   -1.2489 C   0  0  0  0  0  0  0  0  0  0  0  0
    0.9887    1.2917   -1.8836 S   0  0  0  0  0  0  0  0  0  0  0  0
    0.9293    0.5844   -3.4349 C   0  0  0  0  0  0  0  0  0  0  0  0
    1.7675   -0.5374   -3.4261 C   0  0  0  0  0  0  0  0  0  0  0  0
    1.8512   -1.4938   -4.4877 N   0  0  0  0  0  0  0  0  0  0  0  0
    0.8966   -2.5777   -4.5979 C   0  0  0  0  0  0  0  0  0  0  0  0
    0.0536   -2.9190   -3.5183 C   0  0  0  0  0  0  0  0  0  0  0  0
   -0.8406   -3.9870   -3.6220 C   0  0  0  0  0  0  0  0  0  0  0  0
   -0.9123   -4.7288   -4.8052 C   0  0  0  0  0  0  0  0  0  0  0  0
   -2.0209   -6.1330   -4.9234 S   0  0  0  0  0  0  0  0  0  0  0  0
   -0.7348   -7.3287   -4.4482 C   0  0  0  0  0  0  0  0  0  0  0  0
   -0.1116   -4.3787   -5.8954 C   0  0  0  0  0  0  0  0  0  0  0  0
    0.7847   -3.3130   -5.7955 C   0  0  0  0  0  0  0  0  0  0  0  0
    3.0349   -1.4457   -5.2989 C   0  0  0  0  0  0  0  0  0  0  0  0
    3.3533   -0.2741   -6.0017 C   0  0  0  0  0  0  0  0  0  0  0  0
    4.5468   -0.1877   -6.7224 C   0  0  0  0  0  0  0  0  0  0  0  0
    5.4404   -1.2672   -6.7297 C   0  0  0  0  0  0  0  0  0  0  0  0
    6.9984   -1.1429   -7.6143 S   0  0  0  0  0  0  0  0  0  0  0  0
    7.8756   -0.3659   -6.2211 C   0  0  0  0  0  0  0  0  0  0  0  0
    5.1261   -2.4400   -6.0308 C   0  0  0  0  0  0  0  0  0  0  0  0
    3.9295   -2.5293   -5.3179 C   0  0  0  0  0  0  0  0  0  0  0  0
    2.4076   -0.7075   -2.2020 C   0  0  0  0  0  0  0  0  0  0  0  0
    3.1577   -2.0313   -1.5079 S   0  0  0  0  0  0  0  0  0  0  0  0
   -0.1174    0.8321   -4.4497 C   0  0  0  0  0  0  0  0  0  0  0  0
   -0.7914    1.9864   -4.5826 C   0  0  0  0  0  0  0  0  0  0  0  0
   -0.3080    3.3112   -4.1727 C   0  0  0  0  0  0  0  0  0  0  0  0
    0.8246    3.5774   -3.6934 O   0  0  0  0  0  0  0  0  0  0  0  0
   -1.2633    4.3037   -4.5951 C   0  0  0  0  0  0  0  0  0  0  0  0
   -1.1716    5.6990   -4.3964 C   0  0  0  0  0  0  0  0  0  0  0  0
   -2.2215    6.4125   -4.9423 C   0  0  0  0  0  0  0  0  0  0  0  0
   -3.2932    5.7959   -5.6570 C   0  0  0  0  0  0  0  0  0  0  0  0
   -3.3790    4.4318   -5.8754 C   0  0  0  0  0  0  0  0  0  0  0  0
   -2.3210    3.6719   -5.2985 C   0  0  0  0  0  0  0  0  0  0  0  0
   -2.1159    2.1911   -5.2623 C   0  0  0  0  0  0  0  0  0  0  0  0
   -3.0493    1.2352   -5.5397 C   0  0  0  0  0  0  0  0  0  0  0  0
   -2.8585   -0.1581   -5.2387 C   0  0  0  0  0  0  0  0  0  0  0  0
   -2.7194   -1.2764   -4.9845 N   0  0  0  0  0  0  0  0  0  0  0  0
   -4.3874    1.5545   -5.9607 C   0  0  0  0  0  0  0  0  0  0  0  0
   -5.4801    1.7965   -6.2671 N   0  0  0  0  0  0  0  0  0  0  0  0
   -3.9530    7.1287   -5.8543 C   0  0  0  0  0  0  0  0  0  0  0  0
   -5.1986    7.4588   -4.9737 C   0  0  0  0  0  0  0  0  0  0  0  0
   -5.0960    6.7573   -3.6367 C   0  0  0  0  0  0  0  0  0  0  0  0
   -4.0909    7.3399   -2.9818 C   0  0  0  0  0  0  0  0  0  0  0  0
   -3.5445    8.4152   -3.8923 C   0  0  0  0  0  0  0  0  0  0  0  0
   -4.8421    8.8662   -4.5312 C   0  0  0  0  0  0  0  0  0  0  0  0
   -2.8487    7.7625   -5.1281 C   0  0  0  0  0  0  0  0  0  0  0  0
   -2.0155   -4.1490    7.8704 H   0  0  0  0  0  0  0  0  0  0  0  0
   -1.9050    1.2951    4.7275 H   0  0  0  0  0  0  0  0  0  0  0  0
   -5.8185   -0.0225    7.7298 H   0  0  0  0  0  0  0  0  0  0  0  0
   -6.1320    3.2207    6.4810 H   0  0  0  0  0  0  0  0  0  0  0  0
   -7.7635    1.4452    5.1013 H   0  0  0  0  0  0  0  0  0  0  0  0
   -8.3037    3.8225    4.0375 H   0  0  0  0  0  0  0  0  0  0  0  0
   -6.2915    4.5204    2.5312 H   0  0  0  0  0  0  0  0  0  0  0  0
   -4.4616    2.5998    2.6334 H   0  0  0  0  0  0  0  0  0  0  0  0
   -6.7382    1.2161    2.6560 H   0  0  0  0  0  0  0  0  0  0  0  0
   -5.5869    0.4934    3.8502 H   0  0  0  0  0  0  0  0  0  0  0  0
   -4.2752    3.8571    5.0979 H   0  0  0  0  0  0  0  0  0  0  0  0
   -3.5149   -3.6515    5.5157 H   0  0  0  0  0  0  0  0  0  0  0  0
   -2.7428   -3.4689    3.8951 H   0  0  0  0  0  0  0  0  0  0  0  0
   -5.0324   -4.4302    3.7203 H   0  0  0  0  0  0  0  0  0  0  0  0
   -4.5438   -5.8091    4.7861 H   0  0  0  0  0  0  0  0  0  0  0  0
   -3.7879   -5.6091    3.1564 H   0  0  0  0  0  0  0  0  0  0  0  0
   -0.3145   -6.1837    1.2403 H   0  0  0  0  0  0  0  0  0  0  0  0
    0.9498   -4.9647    1.4655 H   0  0  0  0  0  0  0  0  0  0  0  0
   -0.9822   -3.9426    0.3161 H   0  0  0  0  0  0  0  0  0  0  0  0
   -2.1229   -4.5816    1.5659 H   0  0  0  0  0  0  0  0  0  0  0  0
   -0.9517   -3.2685    1.9933 H   0  0  0  0  0  0  0  0  0  0  0  0
    4.0659   -4.7802    3.2585 H   0  0  0  0  0  0  0  0  0  0  0  0
    6.2062   -4.9107    2.3792 H   0  0  0  0  0  0  0  0  0  0  0  0
    7.1655   -4.5847    0.9070 H   0  0  0  0  0  0  0  0  0  0  0  0
    5.3795   -5.7150   -0.4974 H   0  0  0  0  0  0  0  0  0  0  0  0
    4.5056   -6.1472    1.0249 H   0  0  0  0  0  0  0  0  0  0  0  0
    6.1533   -6.8080    0.7118 H   0  0  0  0  0  0  0  0  0  0  0  0
    1.7974    0.5678    3.8643 H   0  0  0  0  0  0  0  0  0  0  0  0
    3.4485    0.3976    5.6925 H   0  0  0  0  0  0  0  0  0  0  0  0
    6.9614   -1.6244    4.4357 H   0  0  0  0  0  0  0  0  0  0  0  0
    5.7027   -1.9776    5.6898 H   0  0  0  0  0  0  0  0  0  0  0  0
    7.4328   -1.7620    6.1675 H   0  0  0  0  0  0  0  0  0  0  0  0
    6.6548    0.6188    2.8312 H   0  0  0  0  0  0  0  0  0  0  0  0
    5.0175    0.7736    0.9998 H   0  0  0  0  0  0  0  0  0  0  0  0
    2.7928    3.2776    0.6062 H   0  0  0  0  0  0  0  0  0  0  0  0
    1.1167    5.0872    0.4554 H   0  0  0  0  0  0  0  0  0  0  0  0
   -1.7626    5.0339    3.3348 H   0  0  0  0  0  0  0  0  0  0  0  0
   -0.4514    6.1221    2.6932 H   0  0  0  0  0  0  0  0  0  0  0  0
   -2.1682    6.6811    2.7118 H   0  0  0  0  0  0  0  0  0  0  0  0
   -1.9501    2.3479    1.7461 H   0  0  0  0  0  0  0  0  0  0  0  0
   -0.2730    0.5298    1.8633 H   0  0  0  0  0  0  0  0  0  0  0  0
    0.0953   -2.3742   -2.5845 H   0  0  0  0  0  0  0  0  0  0  0  0
   -1.4743   -4.2417   -2.7804 H   0  0  0  0  0  0  0  0  0  0  0  0
   -0.3645   -7.1066   -3.4262 H   0  0  0  0  0  0  0  0  0  0  0  0
   -1.1656   -8.3531   -4.4656 H   0  0  0  0  0  0  0  0  0  0  0  0
    0.1106   -7.2835   -5.1679 H   0  0  0  0  0  0  0  0  0  0  0  0
   -0.1683   -4.9461   -6.8164 H   0  0  0  0  0  0  0  0  0  0  0  0
    1.3879   -3.0600   -6.6568 H   0  0  0  0  0  0  0  0  0  0  0  0
    2.6806    0.5733   -5.9847 H   0  0  0  0  0  0  0  0  0  0  0  0
    4.7885    0.7220   -7.2569 H   0  0  0  0  0  0  0  0  0  0  0  0
    7.7429   -0.9630   -5.2955 H   0  0  0  0  0  0  0  0  0  0  0  0
    8.9546   -0.3112   -6.4658 H   0  0  0  0  0  0  0  0  0  0  0  0
    7.4914    0.6619   -6.0650 H   0  0  0  0  0  0  0  0  0  0  0  0
    5.8239   -3.2721   -6.0229 H   0  0  0  0  0  0  0  0  0  0  0  0
    3.7071   -3.4294   -4.7584 H   0  0  0  0  0  0  0  0  0  0  0  0
   -0.3905   -0.0138   -5.0583 H   0  0  0  0  0  0  0  0  0  0  0  0
   -0.3623    6.1708   -3.8547 H   0  0  0  0  0  0  0  0  0  0  0  0
   -4.1945    4.0213   -6.4477 H   0  0  0  0  0  0  0  0  0  0  0  0
   -4.0305    7.4448   -6.9176 H   0  0  0  0  0  0  0  0  0  0  0  0
   -6.1785    7.3539   -5.4842 H   0  0  0  0  0  0  0  0  0  0  0  0
   -5.7548    5.9944   -3.2418 H   0  0  0  0  0  0  0  0  0  0  0  0
   -3.7862    7.1249   -1.9616 H   0  0  0  0  0  0  0  0  0  0  0  0
   -2.9535    9.2017   -3.3823 H   0  0  0  0  0  0  0  0  0  0  0  0
   -4.6946    9.5763   -5.3731 H   0  0  0  0  0  0  0  0  0  0  0  0
   -5.5671    9.2999   -3.8016 H   0  0  0  0  0  0  0  0  0  0  0  0
   -2.2473    8.4596   -5.7512 H   0  0  0  0  0  0  0  0  0  0  0  0
  1  2  2  3
  2  3  1  0
  3  4  2  0
  3  5  1  0
  5  6  2  0
  6  7  1  0
  7  8  2  0
  8  9  1  0
  9 10  2  0
 10 11  1  0
 11 12  2  3
 12 13  1  0
 13 14  3  0
 12 15  1  0
 15 16  3  0
  8 17  1  0
 17 18  1  0
 18 19  1  0
 19 20  2  0
 20 21  1  0
 21 22  1  0
 21 23  1  0
  1 24  1  0
 24 25  2  0
 25 26  1  0
 26 27  1  0
 27 28  1  0
 25 29  1  0
 29 30  1  0
 30 31  1  0
 31 32  1  0
 29 33  2  0
 33 34  1  0
 34 35  1  0
 35 36  2  0
 36 37  1  0
 37 38  1  0
 33 39  1  0
 39 40  2  0
 40 41  1  0
 41 42  1  0
 42 43  2  0
 42 44  1  0
 44 45  1  0
 41 46  2  0
 46 47  1  0
 46 48  1  0
 48 49  2  0
 49 50  1  0
 50 51  1  0
 51 52  2  0
 52 53  1  0
 53 54  2  0
 54 55  1  0
 55 56  1  0
 54 57  1  0
 57 58  2  0
 50 59  1  0
 59 60  2  0
 60 61  1  0
 61 62  2  0
 62 63  1  0
 63 64  1  0
 62 65  1  0
 65 66  2  0
 49 67  1  0
 67 68  1  0
 68 69  1  0
 69 70  2  0
 70 71  1  0
 71 72  1  0
 72 73  2  0
 73 74  1  0
 74 75  2  0
 75 76  1  0
 76 77  1  0
 75 78  1  0
 78 79  2  0
 71 80  1  0
 80 81  2  0
 81 82  1  0
 82 83  2  0
 83 84  1  0
 84 85  1  0
 83 86  1  0
 86 87  2  0
 70 88  1  0
 88 89  1  0
 69 90  1  0
 90 91  2  3
 91 92  1  0
 92 93  2  0
 92 94  1  0
 94 95  2  0
 95 96  1  0
 96 97  2  0
 97 98  1  0
 98 99  2  0
 99100  1  0
100101  2  3
101102  1  0
102103  3  0
101104  1  0
104105  3  0
 97106  1  0
106107  1  0
107108  1  0
108109  2  0
109110  1  0
110111  1  0
110112  1  0
 11  2  1  0
 23 17  1  0
 35 24  1  0
 47 39  1  0
 89 48  1  0
100 91  1  0
112106  1  0
 10  5  1  0
 22 18  1  0
 38 34  2  0
 58 51  1  0
 66 59  1  0
 88 67  2  0
 99 94  1  0
111107  1  0
 23  7  1  0
 79 72  1  0
 87 80  1  0
112 96  1  0
  1113  1  0
  6114  1  0
  9115  1  0
 17116  1  0
 18117  1  0
 19118  1  0
 20119  1  0
 21120  1  0
 22121  1  0
 22122  1  0
 23123  1  0
 27124  1  0
 27125  1  0
 28126  1  0
 28127  1  0
 28128  1  0
 31129  1  0
 31130  1  0
 32131  1  0
 32132  1  0
 32133  1  0
 40134  1  0
 44135  1  0
 44136  1  0
 45137  1  0
 45138  1  0
 45139  1  0
 52140  1  0
 53141  1  0
 56142  1  0
 56143  1  0
 56144  1  0
 57145  1  0
 58146  1  0
 60147  1  0
 61148  1  0
 64149  1  0
 64150  1  0
 64151  1  0
 65152  1  0
 66153  1  0
 73154  1  0
 74155  1  0
 77156  1  0
 77157  1  0
 77158  1  0
 78159  1  0
 79160  1  0
 81161  1  0
 82162  1  0
 85163  1  0
 85164  1  0
 85165  1  0
 86166  1  0
 87167  1  0
 90168  1  0
 95169  1  0
 98170  1  0
106171  1  0
107172  1  0
108173  1  0
109174  1  0
110175  1  0
111176  1  0
111177  1  0
112178  1  0
M  END

