
     RDKit          3D

174192  0  0  0  0  0  0  0  0999 V2000
   -6.3381    3.0969    2.2670 C   0  0  0  0  0  0  0  0  0  0  0  0
   -5.5848    3.7291    1.3364 C   0  0  0  0  0  0  0  0  0  0  0  0
   -4.1620    3.4491    1.0797 C   0  0  0  0  0  0  0  0  0  0  0  0
   -3.5486    2.3855    1.3639 O   0  0  0  0  0  0  0  0  0  0  0  0
   -3.5675    4.5845    0.4231 C   0  0  0  0  0  0  0  0  0  0  0  0
   -2.1940    4.7865    0.1626 C   0  0  0  0  0  0  0  0  0  0  0  0
   -1.9036    6.0238   -0.3755 C   0  0  0  0  0  0  0  0  0  0  0  0
   -2.9019    7.0147   -0.6390 C   0  0  0  0  0  0  0  0  0  0  0  0
   -4.2501    6.8282   -0.3745 C   0  0  0  0  0  0  0  0  0  0  0  0
   -4.5776    5.5460    0.1604 C   0  0  0  0  0  0  0  0  0  0  0  0
   -5.8968    5.0048    0.6123 C   0  0  0  0  0  0  0  0  0  0  0  0
   -7.1258    5.4756    0.2863 C   0  0  0  0  0  0  0  0  0  0  0  0
   -8.3338    4.7668    0.6150 C   0  0  0  0  0  0  0  0  0  0  0  0
   -9.3095    4.2041    0.8809 N   0  0  0  0  0  0  0  0  0  0  0  0
   -7.3178    6.6585   -0.5133 C   0  0  0  0  0  0  0  0  0  0  0  0
   -7.4932    7.5988   -1.1644 N   0  0  0  0  0  0  0  0  0  0  0  0
   -1.8540    7.9549   -1.1566 C   0  0  0  0  0  0  0  0  0  0  0  0
   -1.7731    8.1274   -2.7035 C   0  0  0  0  0  0  0  0  0  0  0  0
   -0.4379    8.7783   -2.9770 C   0  0  0  0  0  0  0  0  0  0  0  0
    0.4934    7.8538   -2.7164 C   0  0  0  0  0  0  0  0  0  0  0  0
   -0.2453    6.6112   -2.2799 C   0  0  0  0  0  0  0  0  0  0  0  0
   -1.4542    6.7226   -3.1948 C   0  0  0  0  0  0  0  0  0  0  0  0
   -0.8316    6.9421   -0.8768 C   0  0  0  0  0  0  0  0  0  0  0  0
   -5.7319    2.1072    3.1797 C   0  0  0  0  0  0  0  0  0  0  0  0
   -6.0183    0.7459    3.0924 C   0  0  0  0  0  0  0  0  0  0  0  0
   -5.1821   -0.2189    3.7190 C   0  0  0  0  0  0  0  0  0  0  0  0
   -5.6961   -1.5569    3.6676 N   0  0  0  0  0  0  0  0  0  0  0  0
   -7.0260   -1.3350    2.8106 S   0  0  0  0  0  4  0  0  0  0  0  0
   -7.1730    0.2127    2.4372 N   0  0  0  0  0  0  0  0  0  0  0  0
   -3.9813    0.1609    4.3646 C   0  0  0  0  0  0  0  0  0  0  0  0
   -3.8952    1.5352    4.7133 C   0  0  0  0  0  0  0  0  0  0  0  0
   -2.9919    2.0342    5.5888 N   0  0  0  0  0  0  0  0  0  0  0  0
   -3.3157    3.6490    5.5031 S   0  0  0  0  0  0  0  0  0  0  0  0
   -4.5510    3.7999    4.4275 N   0  0  0  0  0  0  0  0  0  0  0  0
   -4.7551    2.5000    4.1001 C   0  0  0  0  0  0  0  0  0  0  0  0
   -2.7320   -0.6930    4.3474 C   0  0  0  0  0  0  0  0  0  0  0  0
   -2.4275   -1.7572    3.4537 C   0  0  0  0  0  0  0  0  0  0  0  0
   -3.3614   -2.6146    2.7804 N   0  0  0  0  0  0  0  0  0  0  0  0
   -3.3909   -3.9678    3.2778 C   0  0  0  0  0  0  0  0  0  0  0  0
   -2.8507   -5.0150    2.5116 C   0  0  0  0  0  0  0  0  0  0  0  0
   -2.6844   -6.2850    3.0705 C   0  0  0  0  0  0  0  0  0  0  0  0
   -3.0544   -6.5175    4.4017 C   0  0  0  0  0  0  0  0  0  0  0  0
   -2.7602   -8.1211    5.1463 S   0  0  0  0  0  0  0  0  0  0  0  0
   -1.1147   -7.6565    5.7675 C   0  0  0  0  0  0  0  0  0  0  0  0
   -3.6286   -5.4897    5.1557 C   0  0  0  0  0  0  0  0  0  0  0  0
   -3.7885   -4.2190    4.5991 C   0  0  0  0  0  0  0  0  0  0  0  0
   -3.8779   -2.2803    1.4651 C   0  0  0  0  0  0  0  0  0  0  0  0
   -4.8627   -3.0879    0.8613 C   0  0  0  0  0  0  0  0  0  0  0  0
   -5.4398   -2.7195   -0.3526 C   0  0  0  0  0  0  0  0  0  0  0  0
   -5.0538   -1.5388   -0.9897 C   0  0  0  0  0  0  0  0  0  0  0  0
   -5.8560   -1.0352   -2.5159 S   0  0  0  0  0  0  0  0  0  0  0  0
   -7.1046   -0.0248   -1.6596 C   0  0  0  0  0  0  0  0  0  0  0  0
   -4.0577   -0.7383   -0.4179 C   0  0  0  0  0  0  0  0  0  0  0  0
   -3.4777   -1.0990    0.8007 C   0  0  0  0  0  0  0  0  0  0  0  0
   -1.0575   -1.9061    3.2297 C   0  0  0  0  0  0  0  0  0  0  0  0
   -0.2334   -2.6100    1.9547 S   0  0  0  0  0  0  0  0  0  0  0  0
    1.2227   -1.7841    2.2529 C   0  0  0  0  0  0  0  0  0  0  0  0
    1.0654   -0.9505    3.3832 C   0  0  0  0  0  0  0  0  0  0  0  0
    2.0988   -0.0656    3.8765 N   0  0  0  0  0  0  0  0  0  0  0  0
    1.7934    1.0212    4.7629 C   0  0  0  0  0  0  0  0  0  0  0  0
    1.0834    2.1417    4.3037 C   0  0  0  0  0  0  0  0  0  0  0  0
    0.7540    3.1759    5.1904 C   0  0  0  0  0  0  0  0  0  0  0  0
    1.1434    3.0986    6.5331 C   0  0  0  0  0  0  0  0  0  0  0  0
    0.7625    4.4293    7.6769 S   0  0  0  0  0  0  0  0  0  0  0  0
   -0.8066    3.7116    8.2588 C   0  0  0  0  0  0  0  0  0  0  0  0
    1.8721    1.9929    6.9848 C   0  0  0  0  0  0  0  0  0  0  0  0
    2.1952    0.9592    6.1059 C   0  0  0  0  0  0  0  0  0  0  0  0
    3.4861   -0.3800    3.6416 C   0  0  0  0  0  0  0  0  0  0  0  0
    3.9691   -1.6782    3.8771 C   0  0  0  0  0  0  0  0  0  0  0  0
    5.2919   -2.0064    3.5701 C   0  0  0  0  0  0  0  0  0  0  0  0
    6.1413   -1.0438    3.0170 C   0  0  0  0  0  0  0  0  0  0  0  0
    7.8322   -1.4875    2.6125 S   0  0  0  0  0  0  0  0  0  0  0  0
    7.4513   -2.1350    0.9507 C   0  0  0  0  0  0  0  0  0  0  0  0
    5.6756    0.2592    2.8013 C   0  0  0  0  0  0  0  0  0  0  0  0
    4.3580    0.5928    3.1283 C   0  0  0  0  0  0  0  0  0  0  0  0
   -0.2390   -1.0582    3.8949 C   0  0  0  0  0  0  0  0  0  0  0  0
   -1.2079   -0.0833    4.8402 S   0  0  0  0  0  0  0  0  0  0  0  0
    2.1331   -1.4989    1.1444 C   0  0  0  0  0  0  0  0  0  0  0  0
    2.7707   -2.4461    0.3486 C   0  0  0  0  0  0  0  0  0  0  0  0
    3.2532   -1.9154   -0.8584 C   0  0  0  0  0  0  0  0  0  0  0  0
    4.1461   -2.6658   -1.7807 C   0  0  0  0  0  0  0  0  0  0  0  0
    5.3869   -2.0981   -2.1608 C   0  0  0  0  0  0  0  0  0  0  0  0
    5.7499   -0.8470   -1.6369 O   0  0  0  0  0  0  0  0  0  0  0  0
    6.7980   -0.0126   -2.1406 C   0  0  0  0  0  0  0  0  0  0  0  0
    6.9205    1.2222   -1.2699 C   0  0  0  0  0  0  0  0  0  0  0  0
    6.2408   -2.8101   -3.0229 C   0  0  0  0  0  0  0  0  0  0  0  0
    5.8983   -4.0877   -3.4550 C   0  0  0  0  0  0  0  0  0  0  0  0
    4.6935   -4.6628   -3.0616 C   0  0  0  0  0  0  0  0  0  0  0  0
    3.7910   -3.9511   -2.2458 C   0  0  0  0  0  0  0  0  0  0  0  0
    2.5336   -4.4799   -1.8941 O   0  0  0  0  0  0  0  0  0  0  0  0
    2.0662   -5.7845   -2.2425 C   0  0  0  0  0  0  0  0  0  0  0  0
    1.7070   -5.8739   -3.7297 C   0  0  0  0  0  0  0  0  0  0  0  0
    2.9121   -0.5684   -1.0300 C   0  0  0  0  0  0  0  0  0  0  0  0
    2.1493   -0.0145    0.3534 S   0  0  0  0  0  0  0  0  0  0  0  0
    3.0259    0.2104   -2.2740 C   0  0  0  0  0  0  0  0  0  0  0  0
    2.4888   -0.1910   -3.4409 C   0  0  0  0  0  0  0  0  0  0  0  0
    3.0138    0.2253   -4.7377 C   0  0  0  0  0  0  0  0  0  0  0  0
    3.7790    1.2064   -4.9473 O   0  0  0  0  0  0  0  0  0  0  0  0
    2.5692   -0.7287   -5.7328 C   0  0  0  0  0  0  0  0  0  0  0  0
    2.8678   -0.7543   -7.0932 C   0  0  0  0  0  0  0  0  0  0  0  0
    2.3150   -1.7757   -7.8840 C   0  0  0  0  0  0  0  0  0  0  0  0
    2.5705   -1.8274   -9.2623 C   0  0  0  0  0  0  0  0  0  0  0  0
    2.0015   -2.8377  -10.0463 C   0  0  0  0  0  0  0  0  0  0  0  0
    1.1783   -3.8044   -9.4616 C   0  0  0  0  0  0  0  0  0  0  0  0
    0.6284   -4.7751  -10.2291 F   0  0  0  0  0  0  0  0  0  0  0  0
    0.9160   -3.7711   -8.0909 C   0  0  0  0  0  0  0  0  0  0  0  0
    1.4816   -2.7649   -7.2871 C   0  0  0  0  0  0  0  0  0  0  0  0
    1.2145   -2.7214   -5.9047 C   0  0  0  0  0  0  0  0  0  0  0  0
    1.7590   -1.6816   -5.1358 C   0  0  0  0  0  0  0  0  0  0  0  0
    1.5611   -1.3320   -3.6984 C   0  0  0  0  0  0  0  0  0  0  0  0
    0.4688   -1.6493   -2.9568 C   0  0  0  0  0  0  0  0  0  0  0  0
   -0.3846   -2.7675   -3.2500 C   0  0  0  0  0  0  0  0  0  0  0  0
   -1.0896   -3.6612   -3.4624 N   0  0  0  0  0  0  0  0  0  0  0  0
   -0.0620   -0.7400   -1.9695 C   0  0  0  0  0  0  0  0  0  0  0  0
   -0.5212   -0.0216   -1.1885 N   0  0  0  0  0  0  0  0  0  0  0  0
   -7.3398    3.4128    2.4938 H   0  0  0  0  0  0  0  0  0  0  0  0
   -1.4322    4.0516    0.3814 H   0  0  0  0  0  0  0  0  0  0  0  0
   -4.9586    7.6246   -0.5433 H   0  0  0  0  0  0  0  0  0  0  0  0
   -1.7529    8.8895   -0.5611 H   0  0  0  0  0  0  0  0  0  0  0  0
   -2.6445    8.6220   -3.1762 H   0  0  0  0  0  0  0  0  0  0  0  0
   -0.2575    9.7645   -3.3945 H   0  0  0  0  0  0  0  0  0  0  0  0
    1.5626    7.9588   -2.8870 H   0  0  0  0  0  0  0  0  0  0  0  0
    0.3326    5.6651   -2.3468 H   0  0  0  0  0  0  0  0  0  0  0  0
   -1.1943    6.6786   -4.2823 H   0  0  0  0  0  0  0  0  0  0  0  0
   -2.2538    5.9749   -2.9898 H   0  0  0  0  0  0  0  0  0  0  0  0
   -0.0900    7.2352   -0.0960 H   0  0  0  0  0  0  0  0  0  0  0  0
   -2.5095   -4.8314    1.5004 H   0  0  0  0  0  0  0  0  0  0  0  0
   -2.2356   -7.0743    2.4847 H   0  0  0  0  0  0  0  0  0  0  0  0
   -1.1829   -6.7459    6.3969 H   0  0  0  0  0  0  0  0  0  0  0  0
   -0.7164   -8.4850    6.3851 H   0  0  0  0  0  0  0  0  0  0  0  0
   -0.4241   -7.4720    4.9180 H   0  0  0  0  0  0  0  0  0  0  0  0
   -3.9162   -5.6643    6.1862 H   0  0  0  0  0  0  0  0  0  0  0  0
   -4.1833   -3.4183    5.2089 H   0  0  0  0  0  0  0  0  0  0  0  0
   -5.2232   -3.9831    1.3526 H   0  0  0  0  0  0  0  0  0  0  0  0
   -6.2173   -3.3384   -0.7826 H   0  0  0  0  0  0  0  0  0  0  0  0
   -6.6103    0.8394   -1.1701 H   0  0  0  0  0  0  0  0  0  0  0  0
   -7.6388   -0.6353   -0.9003 H   0  0  0  0  0  0  0  0  0  0  0  0
   -7.8425    0.3599   -2.3943 H   0  0  0  0  0  0  0  0  0  0  0  0
   -3.7495    0.1758   -0.9056 H   0  0  0  0  0  0  0  0  0  0  0  0
   -2.7345   -0.4399    1.2297 H   0  0  0  0  0  0  0  0  0  0  0  0
    0.7713    2.1997    3.2690 H   0  0  0  0  0  0  0  0  0  0  0  0
    0.1866    4.0272    4.8354 H   0  0  0  0  0  0  0  0  0  0  0  0
   -1.6385    4.2010    7.7235 H   0  0  0  0  0  0  0  0  0  0  0  0
   -0.8563    2.6120    8.1120 H   0  0  0  0  0  0  0  0  0  0  0  0
   -0.9155    3.9277    9.3415 H   0  0  0  0  0  0  0  0  0  0  0  0
    2.1846    1.9368    8.0206 H   0  0  0  0  0  0  0  0  0  0  0  0
    2.7475    0.1062    6.4723 H   0  0  0  0  0  0  0  0  0  0  0  0
    3.3174   -2.4382    4.2849 H   0  0  0  0  0  0  0  0  0  0  0  0
    5.6502   -3.0115    3.7506 H   0  0  0  0  0  0  0  0  0  0  0  0
    7.9825   -3.0984    0.8089 H   0  0  0  0  0  0  0  0  0  0  0  0
    7.8185   -1.4151    0.1948 H   0  0  0  0  0  0  0  0  0  0  0  0
    6.3656   -2.2994    0.7938 H   0  0  0  0  0  0  0  0  0  0  0  0
    6.3338    1.0093    2.3874 H   0  0  0  0  0  0  0  0  0  0  0  0
    4.0007    1.5974    2.9386 H   0  0  0  0  0  0  0  0  0  0  0  0
    2.8942   -3.4821    0.6423 H   0  0  0  0  0  0  0  0  0  0  0  0
    6.5569    0.2845   -3.1818 H   0  0  0  0  0  0  0  0  0  0  0  0
    7.7676   -0.5574   -2.1251 H   0  0  0  0  0  0  0  0  0  0  0  0
    7.3117    0.9488   -0.2651 H   0  0  0  0  0  0  0  0  0  0  0  0
    5.9319    1.7164   -1.1524 H   0  0  0  0  0  0  0  0  0  0  0  0
    7.6211    1.9461   -1.7408 H   0  0  0  0  0  0  0  0  0  0  0  0
    7.1866   -2.3940   -3.3427 H   0  0  0  0  0  0  0  0  0  0  0  0
    6.5751   -4.6424   -4.0921 H   0  0  0  0  0  0  0  0  0  0  0  0
    4.4688   -5.6562   -3.4133 H   0  0  0  0  0  0  0  0  0  0  0  0
    2.8346   -6.5417   -1.9775 H   0  0  0  0  0  0  0  0  0  0  0  0
    1.1623   -6.0112   -1.6376 H   0  0  0  0  0  0  0  0  0  0  0  0
    1.9505   -6.8889   -4.1144 H   0  0  0  0  0  0  0  0  0  0  0  0
    2.2691   -5.1240   -4.3302 H   0  0  0  0  0  0  0  0  0  0  0  0
    0.6183   -5.6971   -3.8743 H   0  0  0  0  0  0  0  0  0  0  0  0
    3.6838    1.0692   -2.2594 H   0  0  0  0  0  0  0  0  0  0  0  0
    3.5081    0.0065   -7.5257 H   0  0  0  0  0  0  0  0  0  0  0  0
    3.2024   -1.0868   -9.7363 H   0  0  0  0  0  0  0  0  0  0  0  0
    2.1973   -2.8657  -11.1120 H   0  0  0  0  0  0  0  0  0  0  0  0
    0.2722   -4.5254   -7.6573 H   0  0  0  0  0  0  0  0  0  0  0  0
    0.5968   -3.4853   -5.4653 H   0  0  0  0  0  0  0  0  0  0  0  0
  1  2  2  3
  2  3  1  0
  3  4  2  0
  3  5  1  0
  5  6  2  0
  6  7  1  0
  7  8  2  0
  8  9  1  0
  9 10  2  0
 10 11  1  0
 11 12  2  3
 12 13  1  0
 13 14  3  0
 12 15  1  0
 15 16  3  0
  8 17  1  0
 17 18  1  0
 18 19  1  0
 19 20  2  0
 20 21  1  0
 21 22  1  0
 21 23  1  0
  1 24  1  0
 24 25  2  0
 25 26  1  0
 26 27  1  0
 27 28  2  0
 28 29  2  0
 26 30  2  0
 30 31  1  0
 31 32  2  0
 32 33  1  0
 33 34  1  0
 34 35  2  0
 30 36  1  0
 36 37  2  0
 37 38  1  0
 38 39  1  0
 39 40  2  0
 40 41  1  0
 41 42  2  0
 42 43  1  0
 43 44  1  0
 42 45  1  0
 45 46  2  0
 38 47  1  0
 47 48  2  0
 48 49  1  0
 49 50  2  0
 50 51  1  0
 51 52  1  0
 50 53  1  0
 53 54  2  0
 37 55  1  0
 55 56  1  0
 56 57  1  0
 57 58  2  0
 58 59  1  0
 59 60  1  0
 60 61  2  0
 61 62  1  0
 62 63  2  0
 63 64  1  0
 64 65  1  0
 63 66  1  0
 66 67  2  0
 59 68  1  0
 68 69  2  0
 69 70  1  0
 70 71  2  0
 71 72  1  0
 72 73  1  0
 71 74  1  0
 74 75  2  0
 58 76  1  0
 76 77  1  0
 57 78  1  0
 78 79  2  0
 79 80  1  0
 80 81  1  0
 81 82  2  0
 82 83  1  0
 83 84  1  0
 84 85  1  0
 82 86  1  0
 86 87  2  0
 87 88  1  0
 88 89  2  0
 89 90  1  0
 90 91  1  0
 91 92  1  0
 80 93  2  0
 93 94  1  0
 93 95  1  0
 95 96  2  3
 96 97  1  0
 97 98  2  0
 97 99  1  0
 99100  2  0
100101  1  0
101102  2  0
102103  1  0
103104  2  0
104105  1  0
104106  1  0
106107  2  0
107108  1  0
108109  2  0
109110  1  0
110111  2  3
111112  1  0
112113  3  0
111114  1  0
114115  3  0
 11  2  1  0
 23 17  1  0
 35 24  1  0
 77 36  1  0
 94 78  1  0
110 96  1  0
 10  5  1  0
 22 18  1  0
 29 25  1  0
 35 31  1  0
 46 39  1  0
 54 47  1  0
 76 55  2  0
 89 81  1  0
109 99  1  0
 23  7  1  0
 67 60  1  0
 75 68  1  0
107101  1  0
  1116  1  0
  6117  1  0
  9118  1  0
 17119  1  0
 18120  1  0
 19121  1  0
 20122  1  0
 21123  1  0
 22124  1  0
 22125  1  0
 23126  1  0
 40127  1  0
 41128  1  0
 44129  1  0
 44130  1  0
 44131  1  0
 45132  1  0
 46133  1  0
 48134  1  0
 49135  1  0
 52136  1  0
 52137  1  0
 52138  1  0
 53139  1  0
 54140  1  0
 61141  1  0
 62142  1  0
 65143  1  0
 65144  1  0
 65145  1  0
 66146  1  0
 67147  1  0
 69148  1  0
 70149  1  0
 73150  1  0
 73151  1  0
 73152  1  0
 74153  1  0
 75154  1  0
 79155  1  0
 84156  1  0
 84157  1  0
 85158  1  0
 85159  1  0
 85160  1  0
 86161  1  0
 87162  1  0
 88163  1  0
 91164  1  0
 91165  1  0
 92166  1  0
 92167  1  0
 92168  1  0
 95169  1  0
100170  1  0
102171  1  0
103172  1  0
106173  1  0
108174  1  0
M  END

