
     RDKit          3D

203221  0  0  0  0  0  0  0  0999 V2000
    5.5425    4.9314    1.2168 C   0  0  0  0  0  0  0  0  0  0  0  0
    6.1128    4.7988    2.4277 C   0  0  0  0  0  0  0  0  0  0  0  0
    5.3988    4.4171    3.6504 C   0  0  0  0  0  0  0  0  0  0  0  0
    4.1889    4.0695    3.7310 O   0  0  0  0  0  0  0  0  0  0  0  0
    6.2803    4.5979    4.7797 C   0  0  0  0  0  0  0  0  0  0  0  0
    5.9911    4.2954    6.1272 C   0  0  0  0  0  0  0  0  0  0  0  0
    7.0634    4.4560    6.9781 C   0  0  0  0  0  0  0  0  0  0  0  0
    8.3569    4.8855    6.5341 C   0  0  0  0  0  0  0  0  0  0  0  0
    8.6364    5.2065    5.2170 C   0  0  0  0  0  0  0  0  0  0  0  0
    7.5448    5.0626    4.3197 C   0  0  0  0  0  0  0  0  0  0  0  0
    7.4957    5.2216    2.8323 C   0  0  0  0  0  0  0  0  0  0  0  0
    8.5399    5.5070    2.0104 C   0  0  0  0  0  0  0  0  0  0  0  0
    8.4768    5.3051    0.5799 C   0  0  0  0  0  0  0  0  0  0  0  0
    8.4492    5.1455   -0.5686 N   0  0  0  0  0  0  0  0  0  0  0  0
    9.8148    5.9793    2.4820 C   0  0  0  0  0  0  0  0  0  0  0  0
   10.8530    6.3498    2.8352 N   0  0  0  0  0  0  0  0  0  0  0  0
    8.9121    4.6929    7.9118 C   0  0  0  0  0  0  0  0  0  0  0  0
    9.7878    3.4275    8.1706 C   0  0  0  0  0  0  0  0  0  0  0  0
    9.3450    2.2853    7.2785 C   0  0  0  0  0  0  0  0  0  0  0  0
    8.1379    1.9103    7.7121 C   0  0  0  0  0  0  0  0  0  0  0  0
    7.7979    2.8172    8.8772 C   0  0  0  0  0  0  0  0  0  0  0  0
    9.1832    2.9530    9.4786 C   0  0  0  0  0  0  0  0  0  0  0  0
    7.5794    4.2788    8.3747 C   0  0  0  0  0  0  0  0  0  0  0  0
    4.3449    4.1898    0.7896 C   0  0  0  0  0  0  0  0  0  0  0  0
    3.3680    4.6337   -0.1247 C   0  0  0  0  0  0  0  0  0  0  0  0
    3.0058    6.0135   -0.3453 N   0  0  0  0  0  0  0  0  0  0  0  0
    4.0232    7.0254   -0.4765 C   0  0  0  0  0  0  0  0  0  0  0  0
    4.9392    6.9876   -1.5408 C   0  0  0  0  0  0  0  0  0  0  0  0
    5.9779    7.9243   -1.6097 C   0  0  0  0  0  0  0  0  0  0  0  0
    6.1180    8.8909   -0.6107 C   0  0  0  0  0  0  0  0  0  0  0  0
    7.5014   10.0294   -0.6542 S   0  0  0  0  0  0  0  0  0  0  0  0
    8.5623    9.0419    0.4511 C   0  0  0  0  0  0  0  0  0  0  0  0
    5.1899    8.9557    0.4361 C   0  0  0  0  0  0  0  0  0  0  0  0
    4.1445    8.0284    0.4979 C   0  0  0  0  0  0  0  0  0  0  0  0
    1.6367    6.4328   -0.1433 C   0  0  0  0  0  0  0  0  0  0  0  0
    1.0651    7.4134   -0.9752 C   0  0  0  0  0  0  0  0  0  0  0  0
   -0.2709    7.8011   -0.8055 C   0  0  0  0  0  0  0  0  0  0  0  0
   -1.0444    7.2225    0.2135 C   0  0  0  0  0  0  0  0  0  0  0  0
   -2.7722    7.6731    0.4139 S   0  0  0  0  0  0  0  0  0  0  0  0
   -2.4387    9.0394    1.5794 C   0  0  0  0  0  0  0  0  0  0  0  0
   -0.4773    6.2548    1.0537 C   0  0  0  0  0  0  0  0  0  0  0  0
    0.8574    5.8725    0.8842 C   0  0  0  0  0  0  0  0  0  0  0  0
    2.5748    3.5664   -0.5481 C   0  0  0  0  0  0  0  0  0  0  0  0
    1.2779    3.4224   -1.6099 S   0  0  0  0  0  0  0  0  0  0  0  0
    1.0891    1.7516   -1.3195 C   0  0  0  0  0  0  0  0  0  0  0  0
    2.0319    1.3179   -0.3818 C   0  0  0  0  0  0  0  0  0  0  0  0
    1.9344    0.0623    0.3042 N   0  0  0  0  0  0  0  0  0  0  0  0
    0.9806   -0.0888    1.3948 C   0  0  0  0  0  0  0  0  0  0  0  0
    0.4055    1.0426    2.0176 C   0  0  0  0  0  0  0  0  0  0  0  0
   -0.5497    0.8941    3.0303 C   0  0  0  0  0  0  0  0  0  0  0  0
   -0.9685   -0.3767    3.4221 C   0  0  0  0  0  0  0  0  0  0  0  0
   -2.2401   -0.5683    4.6785 S   0  0  0  0  0  0  0  0  0  0  0  0
   -1.0513   -0.9257    6.0099 C   0  0  0  0  0  0  0  0  0  0  0  0
   -0.4061   -1.5057    2.8237 C   0  0  0  0  0  0  0  0  0  0  0  0
    0.5803   -1.3664    1.8461 C   0  0  0  0  0  0  0  0  0  0  0  0
    2.5380   -1.0805   -0.3263 C   0  0  0  0  0  0  0  0  0  0  0  0
    1.7458   -2.0160   -1.0141 C   0  0  0  0  0  0  0  0  0  0  0  0
    2.3180   -3.1728   -1.5457 C   0  0  0  0  0  0  0  0  0  0  0  0
    3.6870   -3.4127   -1.3850 C   0  0  0  0  0  0  0  0  0  0  0  0
    4.3784   -4.9831   -1.8854 S   0  0  0  0  0  0  0  0  0  0  0  0
    3.9927   -5.7591   -0.2851 C   0  0  0  0  0  0  0  0  0  0  0  0
    4.4897   -2.4576   -0.7488 C   0  0  0  0  0  0  0  0  0  0  0  0
    3.9193   -1.2937   -0.2225 C   0  0  0  0  0  0  0  0  0  0  0  0
    2.8579    2.3625    0.0149 C   0  0  0  0  0  0  0  0  0  0  0  0
    4.1473    2.5107    1.0600 S   0  0  0  0  0  0  0  0  0  0  0  0
    0.1775    0.8674   -2.0521 C   0  0  0  0  0  0  0  0  0  0  0  0
    0.6833    0.0938   -3.1098 C   0  0  0  0  0  0  0  0  0  0  0  0
    1.9879    0.1922   -3.4715 F   0  0  0  0  0  0  0  0  0  0  0  0
   -0.1388   -0.8179   -3.7684 C   0  0  0  0  0  0  0  0  0  0  0  0
    0.3932   -1.6047   -4.7413 F   0  0  0  0  0  0  0  0  0  0  0  0
   -1.4988   -0.9400   -3.4203 C   0  0  0  0  0  0  0  0  0  0  0  0
   -2.0222   -0.1153   -2.4016 C   0  0  0  0  0  0  0  0  0  0  0  0
   -3.3526   -0.1021   -2.1179 N   0  0  0  0  0  0  0  0  0  0  0  0
   -3.8799    0.6838   -1.1354 C   0  0  0  0  0  0  0  0  0  0  0  0
   -5.3798    0.7101   -0.9744 C   0  0  0  0  0  0  0  0  0  0  0  0
   -5.8753   -0.4795   -0.1629 C   0  0  0  0  0  0  0  0  0  0  0  0
   -3.0031    1.4631   -0.3392 C   0  0  0  0  0  0  0  0  0  0  0  0
   -1.6835    1.4944   -0.6703 N   0  0  0  0  0  0  0  0  0  0  0  0
   -1.1736    0.7578   -1.6905 C   0  0  0  0  0  0  0  0  0  0  0  0
   -3.4573    2.2994    0.8270 C   0  0  0  0  0  0  0  0  0  0  0  0
   -3.7584    3.7299    0.3867 C   0  0  0  0  0  0  0  0  0  0  0  0
   -2.3594   -1.8881   -4.1702 C   0  0  0  0  0  0  0  0  0  0  0  0
   -2.4393   -1.7784   -5.5635 C   0  0  0  0  0  0  0  0  0  0  0  0
   -3.2669   -2.6280   -6.2961 C   0  0  0  0  0  0  0  0  0  0  0  0
   -4.0756   -3.5739   -5.6510 C   0  0  0  0  0  0  0  0  0  0  0  0
   -4.0324   -3.6711   -4.2436 C   0  0  0  0  0  0  0  0  0  0  0  0
   -4.8534   -4.5141   -3.5603 N   0  0  0  0  0  0  0  0  0  0  0  0
   -4.7494   -4.6947   -2.2151 C   0  0  0  0  0  0  0  0  0  0  0  0
   -5.8645   -5.3691   -1.5063 C   0  0  0  0  0  0  0  0  0  0  0  0
   -7.1761   -4.9300   -1.7439 C   0  0  0  0  0  0  0  0  0  0  0  0
   -8.2391   -5.4157   -0.9776 C   0  0  0  0  0  0  0  0  0  0  0  0
   -8.0046   -6.3576    0.0379 C   0  0  0  0  0  0  0  0  0  0  0  0
   -9.1257   -6.7623    0.9594 C   0  0  0  0  0  0  0  0  0  0  0  0
   -9.3061   -5.7251    2.0687 C   0  0  0  0  0  0  0  0  0  0  0  0
   -6.7066   -6.8471    0.2363 C   0  0  0  0  0  0  0  0  0  0  0  0
   -5.6457   -6.3756   -0.5482 C   0  0  0  0  0  0  0  0  0  0  0  0
   -3.6959   -4.0467   -1.5233 C   0  0  0  0  0  0  0  0  0  0  0  0
   -2.9461   -3.1285   -2.1901 N   0  0  0  0  0  0  0  0  0  0  0  0
   -3.1180   -2.8806   -3.5116 C   0  0  0  0  0  0  0  0  0  0  0  0
   -3.3509   -4.3317   -0.1201 C   0  0  0  0  0  0  0  0  0  0  0  0
   -3.8176   -3.5155    0.9195 C   0  0  0  0  0  0  0  0  0  0  0  0
   -3.5311   -3.8402    2.2503 C   0  0  0  0  0  0  0  0  0  0  0  0
   -2.8002   -4.9967    2.5574 C   0  0  0  0  0  0  0  0  0  0  0  0
   -2.6418   -5.4496    3.9916 C   0  0  0  0  0  0  0  0  0  0  0  0
   -1.2020   -5.3372    4.4784 C   0  0  0  0  0  0  0  0  0  0  0  0
   -2.2782   -5.7734    1.5129 C   0  0  0  0  0  0  0  0  0  0  0  0
   -2.5341   -5.4298    0.1814 C   0  0  0  0  0  0  0  0  0  0  0  0
   -4.8601   -4.4731   -6.5143 C   0  0  0  0  0  0  0  0  0  0  0  0
   -6.1631   -4.2726   -6.7395 C   0  0  0  0  0  0  0  0  0  0  0  0
   -7.2290   -3.4127   -5.7735 S   0  0  0  0  0  0  0  0  0  0  0  0
   -8.5248   -3.5089   -6.8620 C   0  0  0  0  0  0  0  0  0  0  0  0
   -9.7617   -3.0473   -6.5644 C   0  0  0  0  0  0  0  0  0  0  0  0
  -10.0483   -2.5104   -5.2558 C   0  0  0  0  0  0  0  0  0  0  0  0
  -10.3053   -2.1112   -4.1924 N   0  0  0  0  0  0  0  0  0  0  0  0
  -10.9273   -3.2456   -7.3856 C   0  0  0  0  0  0  0  0  0  0  0  0
  -11.8777   -3.4170   -8.0257 N   0  0  0  0  0  0  0  0  0  0  0  0
   -8.1234   -4.1451   -8.0143 N   0  0  0  0  0  0  0  0  0  0  0  0
   -8.7880   -4.0647   -9.3367 C   0  0  0  0  0  0  0  0  0  0  0  0
   -8.7576   -2.6454   -9.8688 C   0  0  0  0  0  0  0  0  0  0  0  0
   -7.5628   -1.8965   -9.8583 C   0  0  0  0  0  0  0  0  0  0  0  0
   -7.5409   -0.5832  -10.3404 C   0  0  0  0  0  0  0  0  0  0  0  0
   -8.7121   -0.0072  -10.8465 C   0  0  0  0  0  0  0  0  0  0  0  0
   -9.8934   -0.7473  -10.8898 C   0  0  0  0  0  0  0  0  0  0  0  0
   -9.9147   -2.0691  -10.4226 C   0  0  0  0  0  0  0  0  0  0  0  0
   -6.8416   -4.6217   -7.9055 C   0  0  0  0  0  0  0  0  0  0  0  0
   -6.2922   -5.2788   -8.8310 O   0  0  0  0  0  0  0  0  0  0  0  0
    6.0308    5.5138    0.4576 H   0  0  0  0  0  0  0  0  0  0  0  0
    5.0318    3.9244    6.4627 H   0  0  0  0  0  0  0  0  0  0  0  0
    9.6314    5.5013    4.9406 H   0  0  0  0  0  0  0  0  0  0  0  0
    9.2810    5.6247    8.3894 H   0  0  0  0  0  0  0  0  0  0  0  0
   10.8828    3.6026    8.1881 H   0  0  0  0  0  0  0  0  0  0  0  0
    9.9008    1.8232    6.4691 H   0  0  0  0  0  0  0  0  0  0  0  0
    7.5558    1.0828    7.3314 H   0  0  0  0  0  0  0  0  0  0  0  0
    7.0136    2.4282    9.5583 H   0  0  0  0  0  0  0  0  0  0  0  0
    9.6037    1.9796    9.8425 H   0  0  0  0  0  0  0  0  0  0  0  0
    9.2354    3.6949   10.3021 H   0  0  0  0  0  0  0  0  0  0  0  0
    7.1225    4.9753    9.1133 H   0  0  0  0  0  0  0  0  0  0  0  0
    4.8620    6.2117   -2.2876 H   0  0  0  0  0  0  0  0  0  0  0  0
    6.6926    7.8682   -2.4184 H   0  0  0  0  0  0  0  0  0  0  0  0
    8.7167    9.6021    1.3964 H   0  0  0  0  0  0  0  0  0  0  0  0
    9.5444    8.8758   -0.0339 H   0  0  0  0  0  0  0  0  0  0  0  0
    8.1257    8.0554    0.7010 H   0  0  0  0  0  0  0  0  0  0  0  0
    5.2846    9.7057    1.2112 H   0  0  0  0  0  0  0  0  0  0  0  0
    3.4482    8.0695    1.3270 H   0  0  0  0  0  0  0  0  0  0  0  0
    1.6495    7.8652   -1.7669 H   0  0  0  0  0  0  0  0  0  0  0  0
   -0.6999    8.5516   -1.4572 H   0  0  0  0  0  0  0  0  0  0  0  0
   -1.6773    8.7414    2.3303 H   0  0  0  0  0  0  0  0  0  0  0  0
   -2.0857    9.9340    1.0248 H   0  0  0  0  0  0  0  0  0  0  0  0
   -3.3727    9.2909    2.1182 H   0  0  0  0  0  0  0  0  0  0  0  0
   -1.0679    5.7894    1.8305 H   0  0  0  0  0  0  0  0  0  0  0  0
    1.2773    5.1314    1.5525 H   0  0  0  0  0  0  0  0  0  0  0  0
    0.6786    2.0446    1.7284 H   0  0  0  0  0  0  0  0  0  0  0  0
   -0.9805    1.7739    3.4953 H   0  0  0  0  0  0  0  0  0  0  0  0
   -1.6049   -1.0258    6.9645 H   0  0  0  0  0  0  0  0  0  0  0  0
   -0.3104   -0.1016    6.1049 H   0  0  0  0  0  0  0  0  0  0  0  0
   -0.5265   -1.8819    5.7969 H   0  0  0  0  0  0  0  0  0  0  0  0
   -0.7231   -2.4912    3.1173 H   0  0  0  0  0  0  0  0  0  0  0  0
    1.0069   -2.2723    1.4398 H   0  0  0  0  0  0  0  0  0  0  0  0
    0.6755   -1.8680   -1.0959 H   0  0  0  0  0  0  0  0  0  0  0  0
    1.6862   -3.9047   -2.0342 H   0  0  0  0  0  0  0  0  0  0  0  0
    2.8914   -5.7615   -0.1268 H   0  0  0  0  0  0  0  0  0  0  0  0
    4.4841   -5.2012    0.5457 H   0  0  0  0  0  0  0  0  0  0  0  0
    4.3563   -6.8049   -0.2797 H   0  0  0  0  0  0  0  0  0  0  0  0
    5.5475   -2.6423   -0.6175 H   0  0  0  0  0  0  0  0  0  0  0  0
    4.5455   -0.5871    0.3076 H   0  0  0  0  0  0  0  0  0  0  0  0
   -5.8576    0.6790   -1.9762 H   0  0  0  0  0  0  0  0  0  0  0  0
   -5.7229    1.6536   -0.4984 H   0  0  0  0  0  0  0  0  0  0  0  0
   -6.9732   -0.3927   -0.0171 H   0  0  0  0  0  0  0  0  0  0  0  0
   -5.6751   -1.4199   -0.7190 H   0  0  0  0  0  0  0  0  0  0  0  0
   -5.3900   -0.4972    0.8365 H   0  0  0  0  0  0  0  0  0  0  0  0
   -2.6409    2.3323    1.5849 H   0  0  0  0  0  0  0  0  0  0  0  0
   -4.3342    1.8525    1.3295 H   0  0  0  0  0  0  0  0  0  0  0  0
   -3.9749    4.3491    1.2840 H   0  0  0  0  0  0  0  0  0  0  0  0
   -2.8829    4.1711   -0.1391 H   0  0  0  0  0  0  0  0  0  0  0  0
   -4.6431    3.7566   -0.2774 H   0  0  0  0  0  0  0  0  0  0  0  0
   -1.8526   -1.0384   -6.0872 H   0  0  0  0  0  0  0  0  0  0  0  0
   -3.2867   -2.5466   -7.3801 H   0  0  0  0  0  0  0  0  0  0  0  0
   -7.3770   -4.1748   -2.4928 H   0  0  0  0  0  0  0  0  0  0  0  0
   -9.2339   -5.0428   -1.1550 H   0  0  0  0  0  0  0  0  0  0  0  0
   -8.9223   -7.7564    1.4149 H   0  0  0  0  0  0  0  0  0  0  0  0
  -10.0741   -6.8473    0.3864 H   0  0  0  0  0  0  0  0  0  0  0  0
   -8.4040   -5.7055    2.7221 H   0  0  0  0  0  0  0  0  0  0  0  0
  -10.2001   -5.9781    2.6748 H   0  0  0  0  0  0  0  0  0  0  0  0
   -9.4592   -4.7164    1.6317 H   0  0  0  0  0  0  0  0  0  0  0  0
   -6.5109   -7.5882    1.0020 H   0  0  0  0  0  0  0  0  0  0  0  0
   -4.6631   -6.7941   -0.4025 H   0  0  0  0  0  0  0  0  0  0  0  0
   -4.4071   -2.6437    0.7087 H   0  0  0  0  0  0  0  0  0  0  0  0
   -3.9141   -3.2073    3.0428 H   0  0  0  0  0  0  0  0  0  0  0  0
   -3.2960   -4.8524    4.6647 H   0  0  0  0  0  0  0  0  0  0  0  0
   -2.9705   -6.5083    4.0653 H   0  0  0  0  0  0  0  0  0  0  0  0
   -0.8859   -4.2754    4.5145 H   0  0  0  0  0  0  0  0  0  0  0  0
   -0.5142   -5.9109    3.8213 H   0  0  0  0  0  0  0  0  0  0  0  0
   -1.1336   -5.7526    5.5038 H   0  0  0  0  0  0  0  0  0  0  0  0
   -1.7123   -6.6697    1.7305 H   0  0  0  0  0  0  0  0  0  0  0  0
   -2.1371   -6.0510   -0.6154 H   0  0  0  0  0  0  0  0  0  0  0  0
   -4.2936   -5.0217   -7.2551 H   0  0  0  0  0  0  0  0  0  0  0  0
   -9.8140   -4.4712   -9.2769 H   0  0  0  0  0  0  0  0  0  0  0  0
   -8.2806   -4.7117  -10.0835 H   0  0  0  0  0  0  0  0  0  0  0  0
   -6.6448   -2.3334   -9.4830 H   0  0  0  0  0  0  0  0  0  0  0  0
   -6.6218   -0.0112  -10.3272 H   0  0  0  0  0  0  0  0  0  0  0  0
   -8.7021    1.0165  -11.1977 H   0  0  0  0  0  0  0  0  0  0  0  0
  -10.7948   -0.3106  -11.2995 H   0  0  0  0  0  0  0  0  0  0  0  0
  -10.8348   -2.6413  -10.5028 H   0  0  0  0  0  0  0  0  0  0  0  0
  1  2  2  3
  2  3  1  0
  3  4  2  0
  3  5  1  0
  5  6  2  0
  6  7  1  0
  7  8  2  0
  8  9  1  0
  9 10  2  0
 10 11  1  0
 11 12  2  3
 12 13  1  0
 13 14  3  0
 12 15  1  0
 15 16  3  0
  8 17  1  0
 17 18  1  0
 18 19  1  0
 19 20  2  0
 20 21  1  0
 21 22  1  0
 21 23  1  0
  1 24  1  0
 24 25  2  0
 25 26  1  0
 26 27  1  0
 27 28  2  0
 28 29  1  0
 29 30  2  0
 30 31  1  0
 31 32  1  0
 30 33  1  0
 33 34  2  0
 26 35  1  0
 35 36  2  0
 36 37  1  0
 37 38  2  0
 38 39  1  0
 39 40  1  0
 38 41  1  0
 41 42  2  0
 25 43  1  0
 43 44  1  0
 44 45  1  0
 45 46  2  0
 46 47  1  0
 47 48  1  0
 48 49  2  0
 49 50  1  0
 50 51  2  0
 51 52  1  0
 52 53  1  0
 51 54  1  0
 54 55  2  0
 47 56  1  0
 56 57  2  0
 57 58  1  0
 58 59  2  0
 59 60  1  0
 60 61  1  0
 59 62  1  0
 62 63  2  0
 46 64  1  0
 64 65  1  0
 45 66  1  0
 66 67  2  0
 67 68  1  0
 67 69  1  0
 69 70  1  0
 69 71  2  0
 71 72  1  0
 72 73  2  0
 73 74  1  0
 74 75  1  0
 75 76  1  0
 74 77  2  0
 77 78  1  0
 78 79  2  0
 77 80  1  0
 80 81  1  0
 71 82  1  0
 82 83  2  0
 83 84  1  0
 84 85  2  0
 85 86  1  0
 86 87  2  0
 87 88  1  0
 88 89  1  0
 89 90  2  0
 90 91  1  0
 91 92  2  0
 92 93  1  0
 93 94  1  0
 92 95  1  0
 95 96  2  0
 88 97  2  0
 97 98  1  0
 98 99  2  0
 97100  1  0
100101  2  0
101102  1  0
102103  2  0
103104  1  0
104105  1  0
103106  1  0
106107  2  0
 85108  1  0
108109  2  3
109110  1  0
110111  1  0
111112  2  3
112113  1  0
113114  3  0
112115  1  0
115116  3  0
111117  1  0
117118  1  0
118119  1  0
119120  2  0
120121  1  0
121122  2  0
122123  1  0
123124  2  0
117125  1  0
125126  2  0
 11  2  1  0
 23 17  1  0
 65 24  1  0
 79 66  1  0
 99 82  1  0
107100  1  0
125109  1  0
 10  5  1  0
 22 18  1  0
 34 27  1  0
 42 35  1  0
 64 43  2  0
 79 72  1  0
 99 86  1  0
124119  1  0
 23  7  1  0
 55 48  1  0
 63 56  1  0
 96 89  1  0
  1127  1  0
  6128  1  0
  9129  1  0
 17130  1  0
 18131  1  0
 19132  1  0
 20133  1  0
 21134  1  0
 22135  1  0
 22136  1  0
 23137  1  0
 28138  1  0
 29139  1  0
 32140  1  0
 32141  1  0
 32142  1  0
 33143  1  0
 34144  1  0
 36145  1  0
 37146  1  0
 40147  1  0
 40148  1  0
 40149  1  0
 41150  1  0
 42151  1  0
 49152  1  0
 50153  1  0
 53154  1  0
 53155  1  0
 53156  1  0
 54157  1  0
 55158  1  0
 57159  1  0
 58160  1  0
 61161  1  0
 61162  1  0
 61163  1  0
 62164  1  0
 63165  1  0
 75166  1  0
 75167  1  0
 76168  1  0
 76169  1  0
 76170  1  0
 80171  1  0
 80172  1  0
 81173  1  0
 81174  1  0
 81175  1  0
 83176  1  0
 84177  1  0
 90178  1  0
 91179  1  0
 93180  1  0
 93181  1  0
 94182  1  0
 94183  1  0
 94184  1  0
 95185  1  0
 96186  1  0
101187  1  0
102188  1  0
104189  1  0
104190  1  0
105191  1  0
105192  1  0
105193  1  0
106194  1  0
107195  1  0
108196  1  0
118197  1  0
118198  1  0
120199  1  0
121200  1  0
122201  1  0
123202  1  0
124203  1  0
M  END

