
     RDKit          3D

219239  0  0  0  0  0  0  0  0999 V2000
   -0.7004    5.0662   -3.5275 C   0  0  0  0  0  0  0  0  0  0  0  0
   -1.1282    6.3076   -3.2324 C   0  0  0  0  0  0  0  0  0  0  0  0
   -1.0791    6.9622   -1.9176 C   0  0  0  0  0  0  0  0  0  0  0  0
   -1.1067    6.3903   -0.7968 O   0  0  0  0  0  0  0  0  0  0  0  0
   -1.1133    8.3935   -2.1148 C   0  0  0  0  0  0  0  0  0  0  0  0
   -0.8755    9.4008   -1.1510 C   0  0  0  0  0  0  0  0  0  0  0  0
   -0.8323   10.6773   -1.6817 C   0  0  0  0  0  0  0  0  0  0  0  0
   -1.0095   10.9524   -3.0760 C   0  0  0  0  0  0  0  0  0  0  0  0
   -1.2489    9.9692   -4.0199 C   0  0  0  0  0  0  0  0  0  0  0  0
   -1.3202    8.6526   -3.4918 C   0  0  0  0  0  0  0  0  0  0  0  0
   -1.5014    7.3650   -4.2115 C   0  0  0  0  0  0  0  0  0  0  0  0
   -2.1676    7.1946   -5.3838 C   0  0  0  0  0  0  0  0  0  0  0  0
   -2.7568    8.2994   -6.0925 C   0  0  0  0  0  0  0  0  0  0  0  0
   -3.2393    9.1874   -6.6531 N   0  0  0  0  0  0  0  0  0  0  0  0
   -2.5261    5.8935   -5.8747 C   0  0  0  0  0  0  0  0  0  0  0  0
   -2.8338    4.8491   -6.2741 N   0  0  0  0  0  0  0  0  0  0  0  0
   -0.8036   12.4145   -2.8325 C   0  0  0  0  0  0  0  0  0  0  0  0
   -2.0744   13.3176   -2.8671 C   0  0  0  0  0  0  0  0  0  0  0  0
   -1.6720   14.6237   -2.2246 C   0  0  0  0  0  0  0  0  0  0  0  0
   -1.4970   14.3706   -0.9228 C   0  0  0  0  0  0  0  0  0  0  0  0
   -1.7935   12.9004   -0.7283 C   0  0  0  0  0  0  0  0  0  0  0  0
   -2.9203   12.7533   -1.7352 C   0  0  0  0  0  0  0  0  0  0  0  0
   -0.6199   12.1354   -1.4012 C   0  0  0  0  0  0  0  0  0  0  0  0
   -0.1936    4.1068   -2.5317 C   0  0  0  0  0  0  0  0  0  0  0  0
   -0.6727    2.8016   -2.3616 C   0  0  0  0  0  0  0  0  0  0  0  0
   -1.7630    2.2212   -3.0967 N   0  0  0  0  0  0  0  0  0  0  0  0
   -2.8947    1.7775   -2.3285 C   0  0  0  0  0  0  0  0  0  0  0  0
   -3.2162    0.4118   -2.2613 C   0  0  0  0  0  0  0  0  0  0  0  0
   -4.1673   -0.0388   -1.3442 C   0  0  0  0  0  0  0  0  0  0  0  0
   -4.8131    0.8713   -0.4995 C   0  0  0  0  0  0  0  0  0  0  0  0
   -5.9656    0.2876    0.7435 S   0  0  0  0  0  0  0  0  0  0  0  0
   -4.6891    0.1749    2.0378 C   0  0  0  0  0  0  0  0  0  0  0  0
   -4.5296    2.2371   -0.5964 C   0  0  0  0  0  0  0  0  0  0  0  0
   -3.5670    2.6864   -1.4980 C   0  0  0  0  0  0  0  0  0  0  0  0
   -1.6437    1.9253   -4.5086 C   0  0  0  0  0  0  0  0  0  0  0  0
   -2.7930    1.7306   -5.2959 C   0  0  0  0  0  0  0  0  0  0  0  0
   -2.6812    1.4491   -6.6612 C   0  0  0  0  0  0  0  0  0  0  0  0
   -1.4235    1.3621   -7.2640 C   0  0  0  0  0  0  0  0  0  0  0  0
   -1.2857    1.0251   -9.0200 S   0  0  0  0  0  0  0  0  0  0  0  0
   -1.2527   -0.7813   -8.7986 C   0  0  0  0  0  0  0  0  0  0  0  0
   -0.2723    1.5684   -6.4972 C   0  0  0  0  0  0  0  0  0  0  0  0
   -0.3795    1.8433   -5.1291 C   0  0  0  0  0  0  0  0  0  0  0  0
   -0.0704    2.1827   -1.2753 C   0  0  0  0  0  0  0  0  0  0  0  0
   -0.3099    0.7154   -0.5134 S   0  0  0  0  0  0  0  0  0  0  0  0
    0.8323    1.0202    0.7063 C   0  0  0  0  0  0  0  0  0  0  0  0
    1.3947    2.2992    0.5294 C   0  0  0  0  0  0  0  0  0  0  0  0
    2.2343    2.9679    1.4943 N   0  0  0  0  0  0  0  0  0  0  0  0
    1.9720    2.8357    2.9096 C   0  0  0  0  0  0  0  0  0  0  0  0
    0.6513    2.7442    3.3920 C   0  0  0  0  0  0  0  0  0  0  0  0
    0.4065    2.6015    4.7602 C   0  0  0  0  0  0  0  0  0  0  0  0
    1.4733    2.5616    5.6656 C   0  0  0  0  0  0  0  0  0  0  0  0
    1.1587    2.3599    7.4230 S   0  0  0  0  0  0  0  0  0  0  0  0
    1.1273    4.1496    7.7465 C   0  0  0  0  0  0  0  0  0  0  0  0
    2.7862    2.6659    5.1972 C   0  0  0  0  0  0  0  0  0  0  0  0
    3.0343    2.8159    3.8313 C   0  0  0  0  0  0  0  0  0  0  0  0
    3.2833    3.8427    1.0385 C   0  0  0  0  0  0  0  0  0  0  0  0
    3.3746    5.1576    1.5206 C   0  0  0  0  0  0  0  0  0  0  0  0
    4.3969    5.9992    1.0784 C   0  0  0  0  0  0  0  0  0  0  0  0
    5.3374    5.5380    0.1504 C   0  0  0  0  0  0  0  0  0  0  0  0
    6.6527    6.6194   -0.4057 S   0  0  0  0  0  0  0  0  0  0  0  0
    5.6718    7.3092   -1.7752 C   0  0  0  0  0  0  0  0  0  0  0  0
    5.2518    4.2275   -0.3317 C   0  0  0  0  0  0  0  0  0  0  0  0
    4.2273    3.3851    0.1117 C   0  0  0  0  0  0  0  0  0  0  0  0
    0.8706    2.9071   -0.6191 C   0  0  0  0  0  0  0  0  0  0  0  0
    1.0109    4.4158   -1.3505 S   0  0  0  0  0  0  0  0  0  0  0  0
    1.3023   -0.0358    1.6019 C   0  0  0  0  0  0  0  0  0  0  0  0
    2.4558   -0.8022    1.3597 C   0  0  0  0  0  0  0  0  0  0  0  0
    3.4126   -0.5364    0.3185 N   0  0  0  0  0  0  0  0  0  0  0  0
    3.0254   -0.6157   -1.0755 C   0  0  0  0  0  0  0  0  0  0  0  0
    1.9728   -1.4579   -1.4904 C   0  0  0  0  0  0  0  0  0  0  0  0
    1.6371   -1.5633   -2.8417 C   0  0  0  0  0  0  0  0  0  0  0  0
    2.3413   -0.8276   -3.8013 C   0  0  0  0  0  0  0  0  0  0  0  0
    1.9378   -1.0021   -5.5398 S   0  0  0  0  0  0  0  0  0  0  0  0
    3.2884   -2.1806   -5.8584 C   0  0  0  0  0  0  0  0  0  0  0  0
    3.3664    0.0342   -3.4002 C   0  0  0  0  0  0  0  0  0  0  0  0
    3.7158    0.1281   -2.0523 C   0  0  0  0  0  0  0  0  0  0  0  0
    4.8003   -0.4448    0.7019 C   0  0  0  0  0  0  0  0  0  0  0  0
    5.8006   -1.1114   -0.0298 C   0  0  0  0  0  0  0  0  0  0  0  0
    7.1376   -1.0206    0.3597 C   0  0  0  0  0  0  0  0  0  0  0  0
    7.4924   -0.2730    1.4859 C   0  0  0  0  0  0  0  0  0  0  0  0
    9.2097   -0.1570    1.9828 S   0  0  0  0  0  0  0  0  0  0  0  0
    9.5135    1.3458    1.0008 C   0  0  0  0  0  0  0  0  0  0  0  0
    6.5031    0.3693    2.2367 C   0  0  0  0  0  0  0  0  0  0  0  0
    5.1646    0.2812    1.8469 C   0  0  0  0  0  0  0  0  0  0  0  0
    2.3843   -2.0421    1.9842 C   0  0  0  0  0  0  0  0  0  0  0  0
    3.0885   -3.4957    1.5549 S   0  0  0  0  0  0  0  0  0  0  0  0
    1.8791   -4.4877    2.2421 C   0  0  0  0  0  0  0  0  0  0  0  0
    0.9328   -3.6332    2.8525 C   0  0  0  0  0  0  0  0  0  0  0  0
   -0.0778   -4.0870    3.7744 N   0  0  0  0  0  0  0  0  0  0  0  0
    0.3507   -4.4316    5.1104 C   0  0  0  0  0  0  0  0  0  0  0  0
   -0.1089   -5.6115    5.7195 C   0  0  0  0  0  0  0  0  0  0  0  0
    0.4054   -6.0113    6.9560 C   0  0  0  0  0  0  0  0  0  0  0  0
    1.3677   -5.2304    7.6023 C   0  0  0  0  0  0  0  0  0  0  0  0
    2.1166   -5.8069    9.1226 S   0  0  0  0  0  0  0  0  0  0  0  0
    3.5466   -6.5386    8.2596 C   0  0  0  0  0  0  0  0  0  0  0  0
    1.7772   -4.0181    7.0356 C   0  0  0  0  0  0  0  0  0  0  0  0
    1.2765   -3.6235    5.7948 C   0  0  0  0  0  0  0  0  0  0  0  0
   -1.4726   -4.1691    3.3994 C   0  0  0  0  0  0  0  0  0  0  0  0
   -2.4819   -3.9996    4.3695 C   0  0  0  0  0  0  0  0  0  0  0  0
   -3.8250   -4.2135    4.0468 C   0  0  0  0  0  0  0  0  0  0  0  0
   -4.1828   -4.5788    2.7470 C   0  0  0  0  0  0  0  0  0  0  0  0
   -5.8994   -4.8935    2.3369 S   0  0  0  0  0  0  0  0  0  0  0  0
   -6.2442   -3.1520    1.9484 C   0  0  0  0  0  0  0  0  0  0  0  0
   -3.1983   -4.6968    1.7605 C   0  0  0  0  0  0  0  0  0  0  0  0
   -1.8529   -4.4880    2.0836 C   0  0  0  0  0  0  0  0  0  0  0  0
    1.2386   -2.2850    2.6738 C   0  0  0  0  0  0  0  0  0  0  0  0
    0.2282   -0.9538    2.5557 S   0  0  0  0  0  0  0  0  0  0  0  0
    1.4336   -5.6614    1.4692 C   0  0  0  0  0  0  0  0  0  0  0  0
    1.0849   -5.4627    0.1129 C   0  0  0  0  0  0  0  0  0  0  0  0
    0.4813   -6.4789   -0.6388 C   0  0  0  0  0  0  0  0  0  0  0  0
    0.2258   -7.7298   -0.0640 C   0  0  0  0  0  0  0  0  0  0  0  0
    0.6551   -7.9517    1.2500 C   0  0  0  0  0  0  0  0  0  0  0  0
    0.5724   -9.1439    2.0848 C   0  0  0  0  0  0  0  0  0  0  0  0
    0.0749  -10.2512    1.7436 O   0  0  0  0  0  0  0  0  0  0  0  0
    1.1401   -8.8830    3.3682 N   0  0  0  0  0  0  0  0  0  0  0  0
    0.9984   -9.7323    4.5499 C   0  0  0  0  0  0  0  0  0  0  0  0
   -0.4034   -9.5940    5.1481 C   0  0  0  0  0  0  0  0  0  0  0  0
    1.5488   -7.5121    3.3186 C   0  0  0  0  0  0  0  0  0  0  0  0
    2.1540   -6.9217    4.2496 O   0  0  0  0  0  0  0  0  0  0  0  0
    1.2389   -6.9443    2.0034 C   0  0  0  0  0  0  0  0  0  0  0  0
   -0.5089   -8.7195   -0.8644 C   0  0  0  0  0  0  0  0  0  0  0  0
   -1.8298   -8.9160   -0.7211 C   0  0  0  0  0  0  0  0  0  0  0  0
   -2.6366   -8.5564    0.4519 C   0  0  0  0  0  0  0  0  0  0  0  0
   -2.2430   -7.9220    1.4698 O   0  0  0  0  0  0  0  0  0  0  0  0
   -3.9464   -9.1481    0.3050 C   0  0  0  0  0  0  0  0  0  0  0  0
   -4.9940   -9.1848    1.2313 C   0  0  0  0  0  0  0  0  0  0  0  0
   -4.8362   -8.5634    2.4788 O   0  0  0  0  0  0  0  0  0  0  0  0
   -5.8256   -8.5597    3.5036 C   0  0  0  0  0  0  0  0  0  0  0  0
   -6.1669   -9.8820    0.8696 C   0  0  0  0  0  0  0  0  0  0  0  0
   -6.2460  -10.5526   -0.3624 C   0  0  0  0  0  0  0  0  0  0  0  0
   -5.1618  -10.5361   -1.2512 C   0  0  0  0  0  0  0  0  0  0  0  0
   -4.0220   -9.7870   -0.9216 C   0  0  0  0  0  0  0  0  0  0  0  0
   -2.7570   -9.5914   -1.6810 C   0  0  0  0  0  0  0  0  0  0  0  0
   -2.6095   -9.6866   -3.0335 C   0  0  0  0  0  0  0  0  0  0  0  0
   -3.6883  -10.0765   -3.9009 C   0  0  0  0  0  0  0  0  0  0  0  0
   -4.5438  -10.3872   -4.6174 N   0  0  0  0  0  0  0  0  0  0  0  0
   -1.4230   -9.2530   -3.7239 C   0  0  0  0  0  0  0  0  0  0  0  0
   -0.4746   -8.9180   -4.2969 N   0  0  0  0  0  0  0  0  0  0  0  0
   -0.7016    4.7249   -4.5528 H   0  0  0  0  0  0  0  0  0  0  0  0
   -0.7007    9.1916   -0.1048 H   0  0  0  0  0  0  0  0  0  0  0  0
   -1.3176   10.2130   -5.0696 H   0  0  0  0  0  0  0  0  0  0  0  0
    0.0938   12.8242   -3.3529 H   0  0  0  0  0  0  0  0  0  0  0  0
   -2.5826   13.4101   -3.8512 H   0  0  0  0  0  0  0  0  0  0  0  0
   -1.6020   15.5963   -2.6979 H   0  0  0  0  0  0  0  0  0  0  0  0
   -1.2637   15.1037   -0.1583 H   0  0  0  0  0  0  0  0  0  0  0  0
   -2.0244   12.5964    0.3146 H   0  0  0  0  0  0  0  0  0  0  0  0
   -3.2593   11.7055   -1.8901 H   0  0  0  0  0  0  0  0  0  0  0  0
   -3.8089   13.3828   -1.4938 H   0  0  0  0  0  0  0  0  0  0  0  0
    0.3952   12.3695   -1.0176 H   0  0  0  0  0  0  0  0  0  0  0  0
   -2.6816   -0.3051   -2.8722 H   0  0  0  0  0  0  0  0  0  0  0  0
   -4.3775   -1.0972   -1.2655 H   0  0  0  0  0  0  0  0  0  0  0  0
   -4.2523    1.1782    2.2282 H   0  0  0  0  0  0  0  0  0  0  0  0
   -5.1535   -0.1950    2.9757 H   0  0  0  0  0  0  0  0  0  0  0  0
   -3.8888   -0.5280    1.7288 H   0  0  0  0  0  0  0  0  0  0  0  0
   -5.0293    2.9471    0.0506 H   0  0  0  0  0  0  0  0  0  0  0  0
   -3.3161    3.7401   -1.5303 H   0  0  0  0  0  0  0  0  0  0  0  0
   -3.7792    1.8151   -4.8602 H   0  0  0  0  0  0  0  0  0  0  0  0
   -3.5778    1.3033   -7.2505 H   0  0  0  0  0  0  0  0  0  0  0  0
   -1.2321   -1.2728   -9.7935 H   0  0  0  0  0  0  0  0  0  0  0  0
   -2.1616   -1.1180   -8.2570 H   0  0  0  0  0  0  0  0  0  0  0  0
   -0.3474   -1.0817   -8.2321 H   0  0  0  0  0  0  0  0  0  0  0  0
    0.7061    1.5131   -6.9584 H   0  0  0  0  0  0  0  0  0  0  0  0
    0.5294    1.9795   -4.5584 H   0  0  0  0  0  0  0  0  0  0  0  0
   -0.1886    2.7845    2.7131 H   0  0  0  0  0  0  0  0  0  0  0  0
   -0.6121    2.5251    5.1152 H   0  0  0  0  0  0  0  0  0  0  0  0
    0.3283    4.6310    7.1450 H   0  0  0  0  0  0  0  0  0  0  0  0
    0.9158    4.3226    8.8237 H   0  0  0  0  0  0  0  0  0  0  0  0
    2.1071    4.6034    7.4952 H   0  0  0  0  0  0  0  0  0  0  0  0
    3.6150    2.6440    5.8946 H   0  0  0  0  0  0  0  0  0  0  0  0
    4.0604    2.8950    3.4917 H   0  0  0  0  0  0  0  0  0  0  0  0
    2.6475    5.5299    2.2311 H   0  0  0  0  0  0  0  0  0  0  0  0
    4.4565    7.0091    1.4571 H   0  0  0  0  0  0  0  0  0  0  0  0
    4.7403    7.7735   -1.3916 H   0  0  0  0  0  0  0  0  0  0  0  0
    5.4130    6.5096   -2.5012 H   0  0  0  0  0  0  0  0  0  0  0  0
    6.2707    8.0876   -2.2941 H   0  0  0  0  0  0  0  0  0  0  0  0
    5.9749    3.8555   -1.0479 H   0  0  0  0  0  0  0  0  0  0  0  0
    4.1770    2.3721   -0.2494 H   0  0  0  0  0  0  0  0  0  0  0  0
    1.4116   -2.0404   -0.7709 H   0  0  0  0  0  0  0  0  0  0  0  0
    0.8350   -2.2221   -3.1437 H   0  0  0  0  0  0  0  0  0  0  0  0
    3.2241   -3.0431   -5.1611 H   0  0  0  0  0  0  0  0  0  0  0  0
    3.1969   -2.5566   -6.8986 H   0  0  0  0  0  0  0  0  0  0  0  0
    4.2646   -1.6724   -5.7454 H   0  0  0  0  0  0  0  0  0  0  0  0
    3.9176    0.6062   -4.1350 H   0  0  0  0  0  0  0  0  0  0  0  0
    4.5432    0.7658   -1.7751 H   0  0  0  0  0  0  0  0  0  0  0  0
    5.5444   -1.7069   -0.8942 H   0  0  0  0  0  0  0  0  0  0  0  0
    7.8973   -1.5324   -0.2149 H   0  0  0  0  0  0  0  0  0  0  0  0
   10.5707    1.6588    1.1314 H   0  0  0  0  0  0  0  0  0  0  0  0
    9.3289    1.1458   -0.0770 H   0  0  0  0  0  0  0  0  0  0  0  0
    8.8506    2.1667    1.3461 H   0  0  0  0  0  0  0  0  0  0  0  0
    6.7667    0.9402    3.1166 H   0  0  0  0  0  0  0  0  0  0  0  0
    4.4100    0.7799    2.4352 H   0  0  0  0  0  0  0  0  0  0  0  0
   -0.8237   -6.2419    5.2080 H   0  0  0  0  0  0  0  0  0  0  0  0
    0.0817   -6.9445    7.3964 H   0  0  0  0  0  0  0  0  0  0  0  0
    4.1129   -7.1810    8.9658 H   0  0  0  0  0  0  0  0  0  0  0  0
    4.2108   -5.7287    7.8967 H   0  0  0  0  0  0  0  0  0  0  0  0
    3.2098   -7.1626    7.4033 H   0  0  0  0  0  0  0  0  0  0  0  0
    2.5089   -3.4023    7.5377 H   0  0  0  0  0  0  0  0  0  0  0  0
    1.6224   -2.6920    5.3655 H   0  0  0  0  0  0  0  0  0  0  0  0
   -2.2311   -3.7214    5.3840 H   0  0  0  0  0  0  0  0  0  0  0  0
   -4.5833   -4.1060    4.8099 H   0  0  0  0  0  0  0  0  0  0  0  0
   -6.0961   -2.5311    2.8537 H   0  0  0  0  0  0  0  0  0  0  0  0
   -7.2963   -3.0520    1.6122 H   0  0  0  0  0  0  0  0  0  0  0  0
   -5.5721   -2.8017    1.1379 H   0  0  0  0  0  0  0  0  0  0  0  0
   -3.4683   -4.9634    0.7470 H   0  0  0  0  0  0  0  0  0  0  0  0
   -1.1133   -4.6084    1.3099 H   0  0  0  0  0  0  0  0  0  0  0  0
    1.2167   -4.4945   -0.3569 H   0  0  0  0  0  0  0  0  0  0  0  0
    0.1752   -6.2679   -1.6605 H   0  0  0  0  0  0  0  0  0  0  0  0
    1.1622  -10.7944    4.2582 H   0  0  0  0  0  0  0  0  0  0  0  0
    1.7596   -9.4568    5.3126 H   0  0  0  0  0  0  0  0  0  0  0  0
   -0.5203   -8.5884    5.6070 H   0  0  0  0  0  0  0  0  0  0  0  0
   -0.5564  -10.3618    5.9241 H   0  0  0  0  0  0  0  0  0  0  0  0
   -1.1855   -9.7252    4.3635 H   0  0  0  0  0  0  0  0  0  0  0  0
    0.0254   -9.1388   -1.7046 H   0  0  0  0  0  0  0  0  0  0  0  0
   -6.0749   -9.6048    3.7930 H   0  0  0  0  0  0  0  0  0  0  0  0
   -5.4267   -8.0237    4.3888 H   0  0  0  0  0  0  0  0  0  0  0  0
   -6.7341   -8.0302    3.1455 H   0  0  0  0  0  0  0  0  0  0  0  0
   -7.0125   -9.9331    1.5417 H   0  0  0  0  0  0  0  0  0  0  0  0
   -7.1439  -11.1048   -0.6183 H   0  0  0  0  0  0  0  0  0  0  0  0
   -5.2266  -11.1111   -2.1594 H   0  0  0  0  0  0  0  0  0  0  0  0
  1  2  2  3
  2  3  1  0
  3  4  2  0
  3  5  1  0
  5  6  2  0
  6  7  1  0
  7  8  2  0
  8  9  1  0
  9 10  2  0
 10 11  1  0
 11 12  2  3
 12 13  1  0
 13 14  3  0
 12 15  1  0
 15 16  3  0
  8 17  1  0
 17 18  1  0
 18 19  1  0
 19 20  2  0
 20 21  1  0
 21 22  1  0
 21 23  1  0
  1 24  1  0
 24 25  2  0
 25 26  1  0
 26 27  1  0
 27 28  2  0
 28 29  1  0
 29 30  2  0
 30 31  1  0
 31 32  1  0
 30 33  1  0
 33 34  2  0
 26 35  1  0
 35 36  2  0
 36 37  1  0
 37 38  2  0
 38 39  1  0
 39 40  1  0
 38 41  1  0
 41 42  2  0
 25 43  1  0
 43 44  1  0
 44 45  1  0
 45 46  2  0
 46 47  1  0
 47 48  1  0
 48 49  2  0
 49 50  1  0
 50 51  2  0
 51 52  1  0
 52 53  1  0
 51 54  1  0
 54 55  2  0
 47 56  1  0
 56 57  2  0
 57 58  1  0
 58 59  2  0
 59 60  1  0
 60 61  1  0
 59 62  1  0
 62 63  2  0
 46 64  1  0
 64 65  1  0
 45 66  1  0
 66 67  2  0
 67 68  1  0
 68 69  1  0
 69 70  2  0
 70 71  1  0
 71 72  2  0
 72 73  1  0
 73 74  1  0
 72 75  1  0
 75 76  2  0
 68 77  1  0
 77 78  2  0
 78 79  1  0
 79 80  2  0
 80 81  1  0
 81 82  1  0
 80 83  1  0
 83 84  2  0
 67 85  1  0
 85 86  1  0
 86 87  1  0
 87 88  2  0
 88 89  1  0
 89 90  1  0
 90 91  2  0
 91 92  1  0
 92 93  2  0
 93 94  1  0
 94 95  1  0
 93 96  1  0
 96 97  2  0
 89 98  1  0
 98 99  2  0
 99100  1  0
100101  2  0
101102  1  0
102103  1  0
101104  1  0
104105  2  0
 88106  1  0
106107  1  0
 87108  1  0
108109  2  0
109110  1  0
110111  2  0
111112  1  0
112113  1  0
113114  2  0
113115  1  0
115116  1  0
116117  1  0
115118  1  0
118119  2  0
118120  1  0
111121  1  0
121122  2  3
122123  1  0
123124  2  0
123125  1  0
125126  2  0
126127  1  0
127128  1  0
126129  1  0
129130  2  0
130131  1  0
131132  2  0
132133  1  0
133134  2  3
134135  1  0
135136  3  0
134137  1  0
137138  3  0
 11  2  1  0
 23 17  1  0
 65 24  1  0
107 66  1  0
120108  1  0
133122  1  0
 10  5  1  0
 22 18  1  0
 34 27  1  0
 42 35  1  0
 64 43  2  0
 76 69  1  0
 84 77  1  0
106 85  2  0
120112  2  0
132125  1  0
 23  7  1  0
 55 48  1  0
 63 56  1  0
 97 90  1  0
105 98  1  0
  1139  1  0
  6140  1  0
  9141  1  0
 17142  1  0
 18143  1  0
 19144  1  0
 20145  1  0
 21146  1  0
 22147  1  0
 22148  1  0
 23149  1  0
 28150  1  0
 29151  1  0
 32152  1  0
 32153  1  0
 32154  1  0
 33155  1  0
 34156  1  0
 36157  1  0
 37158  1  0
 40159  1  0
 40160  1  0
 40161  1  0
 41162  1  0
 42163  1  0
 49164  1  0
 50165  1  0
 53166  1  0
 53167  1  0
 53168  1  0
 54169  1  0
 55170  1  0
 57171  1  0
 58172  1  0
 61173  1  0
 61174  1  0
 61175  1  0
 62176  1  0
 63177  1  0
 70178  1  0
 71179  1  0
 74180  1  0
 74181  1  0
 74182  1  0
 75183  1  0
 76184  1  0
 78185  1  0
 79186  1  0
 82187  1  0
 82188  1  0
 82189  1  0
 83190  1  0
 84191  1  0
 91192  1  0
 92193  1  0
 95194  1  0
 95195  1  0
 95196  1  0
 96197  1  0
 97198  1  0
 99199  1  0
100200  1  0
103201  1  0
103202  1  0
103203  1  0
104204  1  0
105205  1  0
109206  1  0
110207  1  0
116208  1  0
116209  1  0
117210  1  0
117211  1  0
117212  1  0
121213  1  0
128214  1  0
128215  1  0
128216  1  0
129217  1  0
130218  1  0
131219  1  0
M  END

