
     RDKit          3D

174190  0  0  0  0  0  0  0  0999 V2000
   -0.2344    6.5345   -2.7311 C   0  0  0  0  0  0  0  0  0  0  0  0
   -1.5621    6.3011   -2.7259 C   0  0  0  0  0  0  0  0  0  0  0  0
   -2.1716    4.9654   -2.8023 C   0  0  0  0  0  0  0  0  0  0  0  0
   -1.6653    3.9408   -3.3350 O   0  0  0  0  0  0  0  0  0  0  0  0
   -3.4540    5.0033   -2.1398 C   0  0  0  0  0  0  0  0  0  0  0  0
   -4.2577    3.8949   -1.7929 C   0  0  0  0  0  0  0  0  0  0  0  0
   -5.3309    4.2133   -0.9895 C   0  0  0  0  0  0  0  0  0  0  0  0
   -5.6076    5.5447   -0.5399 C   0  0  0  0  0  0  0  0  0  0  0  0
   -4.8261    6.6398   -0.8774 C   0  0  0  0  0  0  0  0  0  0  0  0
   -3.7203    6.3343   -1.7227 C   0  0  0  0  0  0  0  0  0  0  0  0
   -2.6179    7.2184   -2.2020 C   0  0  0  0  0  0  0  0  0  0  0  0
   -2.6425    8.5683   -2.3088 C   0  0  0  0  0  0  0  0  0  0  0  0
   -1.6133    9.2916   -3.0131 C   0  0  0  0  0  0  0  0  0  0  0  0
   -0.7932    9.8741   -3.5826 N   0  0  0  0  0  0  0  0  0  0  0  0
   -3.7601    9.3585   -1.8631 C   0  0  0  0  0  0  0  0  0  0  0  0
   -4.6576   10.0021   -1.5099 N   0  0  0  0  0  0  0  0  0  0  0  0
   -6.7651    5.0440    0.2729 C   0  0  0  0  0  0  0  0  0  0  0  0
   -6.5443    4.9603    1.8119 C   0  0  0  0  0  0  0  0  0  0  0  0
   -7.6485    4.0759    2.3420 C   0  0  0  0  0  0  0  0  0  0  0  0
   -7.3766    2.8343    1.9212 C   0  0  0  0  0  0  0  0  0  0  0  0
   -6.1009    2.9244    1.1204 C   0  0  0  0  0  0  0  0  0  0  0  0
   -5.3834    3.9866    1.9395 C   0  0  0  0  0  0  0  0  0  0  0  0
   -6.4754    3.6827   -0.1880 C   0  0  0  0  0  0  0  0  0  0  0  0
    0.7280    5.4146   -2.7020 C   0  0  0  0  0  0  0  0  0  0  0  0
    1.4101    5.0298   -3.8658 C   0  0  0  0  0  0  0  0  0  0  0  0
    1.3328    5.7948   -4.9864 F   0  0  0  0  0  0  0  0  0  0  0  0
    2.0781    3.7993   -3.9129 C   0  0  0  0  0  0  0  0  0  0  0  0
    2.6453    3.3980   -5.0788 F   0  0  0  0  0  0  0  0  0  0  0  0
    2.0853    2.9488   -2.7953 C   0  0  0  0  0  0  0  0  0  0  0  0
    1.4705    3.3712   -1.5982 C   0  0  0  0  0  0  0  0  0  0  0  0
    1.4163    2.5601   -0.5041 N   0  0  0  0  0  0  0  0  0  0  0  0
    0.7577    2.9160    0.6360 C   0  0  0  0  0  0  0  0  0  0  0  0
    0.7045    1.9305    1.7775 C   0  0  0  0  0  0  0  0  0  0  0  0
   -0.3477    0.8602    1.5137 C   0  0  0  0  0  0  0  0  0  0  0  0
    0.0735    4.1553    0.6660 C   0  0  0  0  0  0  0  0  0  0  0  0
    0.1319    4.9565   -0.4263 N   0  0  0  0  0  0  0  0  0  0  0  0
    0.8031    4.6064   -1.5548 C   0  0  0  0  0  0  0  0  0  0  0  0
   -0.7093    4.6431    1.8560 C   0  0  0  0  0  0  0  0  0  0  0  0
    0.1966    5.3862    2.8324 C   0  0  0  0  0  0  0  0  0  0  0  0
    2.4662    1.5379   -2.9647 C   0  0  0  0  0  0  0  0  0  0  0  0
    3.4933    0.8687   -2.2739 C   0  0  0  0  0  0  0  0  0  0  0  0
    4.6418    1.5269   -1.7029 N   0  0  0  0  0  0  0  0  0  0  0  0
    5.1289    1.1822   -0.3845 C   0  0  0  0  0  0  0  0  0  0  0  0
    4.2362    0.8006    0.6284 C   0  0  0  0  0  0  0  0  0  0  0  0
    4.6948    0.5350    1.9220 C   0  0  0  0  0  0  0  0  0  0  0  0
    6.0589    0.6270    2.2117 C   0  0  0  0  0  0  0  0  0  0  0  0
    6.6402    0.3371    3.8801 S   0  0  0  0  0  0  0  0  0  0  0  0
    6.5951    2.1031    4.3193 C   0  0  0  0  0  0  0  0  0  0  0  0
    6.9664    0.9530    1.1998 C   0  0  0  0  0  0  0  0  0  0  0  0
    6.5063    1.2350   -0.0892 C   0  0  0  0  0  0  0  0  0  0  0  0
    5.3573    2.4715   -2.5242 C   0  0  0  0  0  0  0  0  0  0  0  0
    5.6771    2.1521   -3.8558 C   0  0  0  0  0  0  0  0  0  0  0  0
    6.4170    3.0428   -4.6370 C   0  0  0  0  0  0  0  0  0  0  0  0
    6.8481    4.2608   -4.0982 C   0  0  0  0  0  0  0  0  0  0  0  0
    7.8372    5.3816   -5.0914 S   0  0  0  0  0  0  0  0  0  0  0  0
    9.4143    4.6808   -4.5166 C   0  0  0  0  0  0  0  0  0  0  0  0
    6.5097    4.5977   -2.7820 C   0  0  0  0  0  0  0  0  0  0  0  0
    5.7672    3.7085   -1.9965 C   0  0  0  0  0  0  0  0  0  0  0  0
    3.2799   -0.5138   -2.2788 C   0  0  0  0  0  0  0  0  0  0  0  0
    3.8830   -1.8036   -1.3940 S   0  0  0  0  0  0  0  0  0  0  0  0
    2.6587   -2.9086   -1.8555 C   0  0  0  0  0  0  0  0  0  0  0  0
    1.7914   -2.2452   -2.7476 C   0  0  0  0  0  0  0  0  0  0  0  0
    0.6005   -2.7902   -3.3441 N   0  0  0  0  0  0  0  0  0  0  0  0
    0.5302   -2.7654   -4.7852 C   0  0  0  0  0  0  0  0  0  0  0  0
    1.5688   -3.3197   -5.5533 C   0  0  0  0  0  0  0  0  0  0  0  0
    1.5370   -3.2410   -6.9469 C   0  0  0  0  0  0  0  0  0  0  0  0
    0.4720   -2.5997   -7.5907 C   0  0  0  0  0  0  0  0  0  0  0  0
    0.4428   -2.4864   -9.3802 S   0  0  0  0  0  0  0  0  0  0  0  0
   -0.5701   -3.9848   -9.5747 C   0  0  0  0  0  0  0  0  0  0  0  0
   -0.5595   -2.0327   -6.8337 C   0  0  0  0  0  0  0  0  0  0  0  0
   -0.5284   -2.1116   -5.4382 C   0  0  0  0  0  0  0  0  0  0  0  0
   -0.5923   -3.0337   -2.5637 C   0  0  0  0  0  0  0  0  0  0  0  0
   -1.5609   -3.9491   -3.0239 C   0  0  0  0  0  0  0  0  0  0  0  0
   -2.7830   -4.0841   -2.3623 C   0  0  0  0  0  0  0  0  0  0  0  0
   -3.0459   -3.3341   -1.2116 C   0  0  0  0  0  0  0  0  0  0  0  0
   -4.6615   -3.4313   -0.4323 S   0  0  0  0  0  0  0  0  0  0  0  0
   -4.3821   -5.0281    0.4053 C   0  0  0  0  0  0  0  0  0  0  0  0
   -2.0718   -2.4601   -0.7130 C   0  0  0  0  0  0  0  0  0  0  0  0
   -0.8500   -2.3129   -1.3814 C   0  0  0  0  0  0  0  0  0  0  0  0
    2.1704   -0.9215   -2.9423 C   0  0  0  0  0  0  0  0  0  0  0  0
    1.3449    0.4018   -3.5500 S   0  0  0  0  0  0  0  0  0  0  0  0
    2.3312   -4.1332   -1.0845 C   0  0  0  0  0  0  0  0  0  0  0  0
    2.5433   -4.1375    0.3075 C   0  0  0  0  0  0  0  0  0  0  0  0
    1.9552   -5.1219    1.1226 C   0  0  0  0  0  0  0  0  0  0  0  0
    2.0843   -5.1151    2.5238 O   0  0  0  0  0  0  0  0  0  0  0  0
    2.7123   -4.0950    3.3019 C   0  0  0  0  0  0  0  0  0  0  0  0
    1.8160   -2.8637    3.4114 C   0  0  0  0  0  0  0  0  0  0  0  0
    1.1666   -6.1206    0.5228 C   0  0  0  0  0  0  0  0  0  0  0  0
    1.0872   -6.2096   -0.8722 C   0  0  0  0  0  0  0  0  0  0  0  0
    1.6750   -5.2285   -1.6753 C   0  0  0  0  0  0  0  0  0  0  0  0
    1.5654   -5.3344   -3.0230 F   0  0  0  0  0  0  0  0  0  0  0  0
    0.3081   -6.9925    1.3493 C   0  0  0  0  0  0  0  0  0  0  0  0
   -0.7637   -6.5142    2.0160 C   0  0  0  0  0  0  0  0  0  0  0  0
   -1.1504   -5.0972    2.0932 C   0  0  0  0  0  0  0  0  0  0  0  0
   -0.7281   -4.1593    1.3687 O   0  0  0  0  0  0  0  0  0  0  0  0
   -2.1366   -4.9436    3.1304 C   0  0  0  0  0  0  0  0  0  0  0  0
   -2.7296   -3.7637    3.5739 C   0  0  0  0  0  0  0  0  0  0  0  0
   -3.6593   -3.8330    4.6223 C   0  0  0  0  0  0  0  0  0  0  0  0
   -4.2845   -2.6693    5.0930 C   0  0  0  0  0  0  0  0  0  0  0  0
   -5.1941   -2.7422    6.1510 C   0  0  0  0  0  0  0  0  0  0  0  0
   -5.4825   -3.9726    6.7488 C   0  0  0  0  0  0  0  0  0  0  0  0
   -4.8671   -5.1398    6.2908 C   0  0  0  0  0  0  0  0  0  0  0  0
   -3.9580   -5.0865    5.2235 C   0  0  0  0  0  0  0  0  0  0  0  0
   -3.3435   -6.2639    4.7467 C   0  0  0  0  0  0  0  0  0  0  0  0
   -2.4452   -6.1807    3.6666 C   0  0  0  0  0  0  0  0  0  0  0  0
   -1.6882   -7.2479    2.9416 C   0  0  0  0  0  0  0  0  0  0  0  0
   -1.9604   -8.5802    2.9378 C   0  0  0  0  0  0  0  0  0  0  0  0
   -1.3171   -9.5022    2.0422 C   0  0  0  0  0  0  0  0  0  0  0  0
   -0.8085  -10.2541    1.3241 N   0  0  0  0  0  0  0  0  0  0  0  0
   -3.0138   -9.1558    3.7324 C   0  0  0  0  0  0  0  0  0  0  0  0
   -3.8621   -9.6365    4.3567 N   0  0  0  0  0  0  0  0  0  0  0  0
    0.1578    7.5108   -2.5020 H   0  0  0  0  0  0  0  0  0  0  0  0
   -4.0156    2.8764   -2.0720 H   0  0  0  0  0  0  0  0  0  0  0  0
   -5.0239    7.6111   -0.4568 H   0  0  0  0  0  0  0  0  0  0  0  0
   -7.7501    5.4461   -0.0566 H   0  0  0  0  0  0  0  0  0  0  0  0
   -6.4226    5.9334    2.3349 H   0  0  0  0  0  0  0  0  0  0  0  0
   -8.4560    4.3593    3.0094 H   0  0  0  0  0  0  0  0  0  0  0  0
   -7.9281    1.9365    2.1840 H   0  0  0  0  0  0  0  0  0  0  0  0
   -5.5556    1.9673    0.9840 H   0  0  0  0  0  0  0  0  0  0  0  0
   -4.4304    4.3485    1.4888 H   0  0  0  0  0  0  0  0  0  0  0  0
   -5.1815    3.6746    2.9922 H   0  0  0  0  0  0  0  0  0  0  0  0
   -7.2724    3.2130   -0.8075 H   0  0  0  0  0  0  0  0  0  0  0  0
    0.4962    2.4254    2.7485 H   0  0  0  0  0  0  0  0  0  0  0  0
    1.6923    1.4463    1.9011 H   0  0  0  0  0  0  0  0  0  0  0  0
   -0.4110    0.1732    2.3837 H   0  0  0  0  0  0  0  0  0  0  0  0
   -1.3438    1.3260    1.3586 H   0  0  0  0  0  0  0  0  0  0  0  0
   -0.0693    0.2702    0.6150 H   0  0  0  0  0  0  0  0  0  0  0  0
   -1.2302    3.8080    2.3695 H   0  0  0  0  0  0  0  0  0  0  0  0
   -1.5025    5.3402    1.5099 H   0  0  0  0  0  0  0  0  0  0  0  0
   -0.3904    5.7007    3.7198 H   0  0  0  0  0  0  0  0  0  0  0  0
    0.6191    6.2931    2.3518 H   0  0  0  0  0  0  0  0  0  0  0  0
    1.0333    4.7397    3.1721 H   0  0  0  0  0  0  0  0  0  0  0  0
    3.1839    0.7069    0.4088 H   0  0  0  0  0  0  0  0  0  0  0  0
    3.9863    0.2618    2.6943 H   0  0  0  0  0  0  0  0  0  0  0  0
    5.5786    2.5198    4.1555 H   0  0  0  0  0  0  0  0  0  0  0  0
    6.8619    2.2163    5.3905 H   0  0  0  0  0  0  0  0  0  0  0  0
    7.3308    2.6618    3.7057 H   0  0  0  0  0  0  0  0  0  0  0  0
    8.0257    1.0160    1.4158 H   0  0  0  0  0  0  0  0  0  0  0  0
    7.2286    1.4947   -0.8553 H   0  0  0  0  0  0  0  0  0  0  0  0
    5.3697    1.2047   -4.2805 H   0  0  0  0  0  0  0  0  0  0  0  0
    6.6687    2.7759   -5.6568 H   0  0  0  0  0  0  0  0  0  0  0  0
    9.5004    4.7908   -3.4141 H   0  0  0  0  0  0  0  0  0  0  0  0
   10.2514    5.2238   -4.9986 H   0  0  0  0  0  0  0  0  0  0  0  0
    9.4771    3.6049   -4.7894 H   0  0  0  0  0  0  0  0  0  0  0  0
    6.8364    5.5424   -2.3612 H   0  0  0  0  0  0  0  0  0  0  0  0
    5.5209    3.9790   -0.9761 H   0  0  0  0  0  0  0  0  0  0  0  0
    2.4121   -3.7989   -5.0693 H   0  0  0  0  0  0  0  0  0  0  0  0
    2.3484   -3.6669   -7.5266 H   0  0  0  0  0  0  0  0  0  0  0  0
   -0.0809   -4.8490   -9.0803 H   0  0  0  0  0  0  0  0  0  0  0  0
   -0.6810   -4.2084  -10.6567 H   0  0  0  0  0  0  0  0  0  0  0  0
   -1.5790   -3.8150   -9.1424 H   0  0  0  0  0  0  0  0  0  0  0  0
   -1.3775   -1.5214   -7.3226 H   0  0  0  0  0  0  0  0  0  0  0  0
   -1.3186   -1.6441   -4.8672 H   0  0  0  0  0  0  0  0  0  0  0  0
   -1.3818   -4.5354   -3.9153 H   0  0  0  0  0  0  0  0  0  0  0  0
   -3.5296   -4.7661   -2.7502 H   0  0  0  0  0  0  0  0  0  0  0  0
   -3.4067   -5.4834    0.1404 H   0  0  0  0  0  0  0  0  0  0  0  0
   -5.1859   -5.7310    0.1059 H   0  0  0  0  0  0  0  0  0  0  0  0
   -4.4381   -4.8786    1.5000 H   0  0  0  0  0  0  0  0  0  0  0  0
   -2.2703   -1.8711    0.1749 H   0  0  0  0  0  0  0  0  0  0  0  0
   -0.1302   -1.6003   -1.0042 H   0  0  0  0  0  0  0  0  0  0  0  0
    3.0814   -3.3209    0.7608 H   0  0  0  0  0  0  0  0  0  0  0  0
    3.7043   -3.8300    2.8861 H   0  0  0  0  0  0  0  0  0  0  0  0
    2.8792   -4.4969    4.3233 H   0  0  0  0  0  0  0  0  0  0  0  0
    2.3033   -2.1068    4.0621 H   0  0  0  0  0  0  0  0  0  0  0  0
    0.8384   -3.1474    3.8618 H   0  0  0  0  0  0  0  0  0  0  0  0
    1.6357   -2.4157    2.4131 H   0  0  0  0  0  0  0  0  0  0  0  0
    0.5079   -6.9980   -1.3366 H   0  0  0  0  0  0  0  0  0  0  0  0
    0.5962   -8.0232    1.4136 H   0  0  0  0  0  0  0  0  0  0  0  0
   -2.4728   -2.8184    3.1086 H   0  0  0  0  0  0  0  0  0  0  0  0
   -4.0713   -1.7059    4.6443 H   0  0  0  0  0  0  0  0  0  0  0  0
   -5.6711   -1.8390    6.5150 H   0  0  0  0  0  0  0  0  0  0  0  0
   -6.1820   -4.0178    7.5716 H   0  0  0  0  0  0  0  0  0  0  0  0
   -5.1046   -6.0848    6.7652 H   0  0  0  0  0  0  0  0  0  0  0  0
   -3.5528   -7.2005    5.2350 H   0  0  0  0  0  0  0  0  0  0  0  0
  1  2  2  3
  2  3  1  0
  3  4  2  0
  3  5  1  0
  5  6  2  0
  6  7  1  0
  7  8  2  0
  8  9  1  0
  9 10  2  0
 10 11  1  0
 11 12  2  3
 12 13  1  0
 13 14  3  0
 12 15  1  0
 15 16  3  0
  8 17  1  0
 17 18  1  0
 18 19  1  0
 19 20  2  0
 20 21  1  0
 21 22  1  0
 21 23  1  0
  1 24  1  0
 24 25  2  0
 25 26  1  0
 25 27  1  0
 27 28  1  0
 27 29  2  0
 29 30  1  0
 30 31  2  0
 31 32  1  0
 32 33  1  0
 33 34  1  0
 32 35  2  0
 35 36  1  0
 36 37  2  0
 35 38  1  0
 38 39  1  0
 29 40  1  0
 40 41  2  0
 41 42  1  0
 42 43  1  0
 43 44  2  0
 44 45  1  0
 45 46  2  0
 46 47  1  0
 47 48  1  0
 46 49  1  0
 49 50  2  0
 42 51  1  0
 51 52  2  0
 52 53  1  0
 53 54  2  0
 54 55  1  0
 55 56  1  0
 54 57  1  0
 57 58  2  0
 41 59  1  0
 59 60  1  0
 60 61  1  0
 61 62  2  0
 62 63  1  0
 63 64  1  0
 64 65  2  0
 65 66  1  0
 66 67  2  0
 67 68  1  0
 68 69  1  0
 67 70  1  0
 70 71  2  0
 63 72  1  0
 72 73  2  0
 73 74  1  0
 74 75  2  0
 75 76  1  0
 76 77  1  0
 75 78  1  0
 78 79  2  0
 62 80  1  0
 80 81  1  0
 61 82  1  0
 82 83  2  0
 83 84  1  0
 84 85  1  0
 85 86  1  0
 86 87  1  0
 84 88  2  0
 88 89  1  0
 89 90  2  0
 90 91  1  0
 88 92  1  0
 92 93  2  3
 93 94  1  0
 94 95  2  0
 94 96  1  0
 96 97  2  0
 97 98  1  0
 98 99  2  0
 99100  1  0
100101  2  0
101102  1  0
102103  2  0
103104  1  0
104105  2  0
105106  1  0
106107  2  3
107108  1  0
108109  3  0
107110  1  0
110111  3  0
 11  2  1  0
 23 17  1  0
 37 24  1  0
 81 40  1  0
 90 82  1  0
106 93  1  0
 10  5  1  0
 22 18  1  0
 37 30  1  0
 50 43  1  0
 58 51  1  0
 80 59  2  0
105 96  1  0
 23  7  1  0
 71 64  1  0
 79 72  1  0
103 98  1  0
  1112  1  0
  6113  1  0
  9114  1  0
 17115  1  0
 18116  1  0
 19117  1  0
 20118  1  0
 21119  1  0
 22120  1  0
 22121  1  0
 23122  1  0
 33123  1  0
 33124  1  0
 34125  1  0
 34126  1  0
 34127  1  0
 38128  1  0
 38129  1  0
 39130  1  0
 39131  1  0
 39132  1  0
 44133  1  0
 45134  1  0
 48135  1  0
 48136  1  0
 48137  1  0
 49138  1  0
 50139  1  0
 52140  1  0
 53141  1  0
 56142  1  0
 56143  1  0
 56144  1  0
 57145  1  0
 58146  1  0
 65147  1  0
 66148  1  0
 69149  1  0
 69150  1  0
 69151  1  0
 70152  1  0
 71153  1  0
 73154  1  0
 74155  1  0
 77156  1  0
 77157  1  0
 77158  1  0
 78159  1  0
 79160  1  0
 83161  1  0
 86162  1  0
 86163  1  0
 87164  1  0
 87165  1  0
 87166  1  0
 89167  1  0
 92168  1  0
 97169  1  0
 99170  1  0
100171  1  0
101172  1  0
102173  1  0
104174  1  0
M  END

