
     RDKit          3D

137152  0  0  0  0  0  0  0  0999 V2000
    3.5083   -0.8537   -4.7603 C   0  0  0  0  0  0  0  0  0  0  0  0
    2.4101   -1.6214   -4.9025 C   0  0  0  0  0  0  0  0  0  0  0  0
    1.3132   -1.6968   -3.9332 C   0  0  0  0  0  0  0  0  0  0  0  0
    1.1866   -1.0004   -2.8881 O   0  0  0  0  0  0  0  0  0  0  0  0
    0.4190   -2.7689   -4.3190 C   0  0  0  0  0  0  0  0  0  0  0  0
   -0.7343   -3.1936   -3.6305 C   0  0  0  0  0  0  0  0  0  0  0  0
   -1.4005   -4.2287   -4.2542 C   0  0  0  0  0  0  0  0  0  0  0  0
   -0.9559   -4.8249   -5.4761 C   0  0  0  0  0  0  0  0  0  0  0  0
    0.2015   -4.4418   -6.1339 C   0  0  0  0  0  0  0  0  0  0  0  0
    0.8884   -3.3465   -5.5320 C   0  0  0  0  0  0  0  0  0  0  0  0
    2.1206   -2.6251   -5.9784 C   0  0  0  0  0  0  0  0  0  0  0  0
    2.6711   -2.6712   -7.2227 C   0  0  0  0  0  0  0  0  0  0  0  0
    2.1832   -3.5273   -8.2738 C   0  0  0  0  0  0  0  0  0  0  0  0
    1.8016   -4.2007   -9.1401 N   0  0  0  0  0  0  0  0  0  0  0  0
    3.7211   -1.7730   -7.6418 C   0  0  0  0  0  0  0  0  0  0  0  0
    4.5575   -1.0529   -7.9840 N   0  0  0  0  0  0  0  0  0  0  0  0
   -2.1572   -5.7127   -5.5080 C   0  0  0  0  0  0  0  0  0  0  0  0
   -3.2960   -5.3504   -6.5114 C   0  0  0  0  0  0  0  0  0  0  0  0
   -3.3486   -3.8561   -6.7358 C   0  0  0  0  0  0  0  0  0  0  0  0
   -3.7635   -3.3184   -5.5881 C   0  0  0  0  0  0  0  0  0  0  0  0
   -3.9739   -4.4592   -4.6197 C   0  0  0  0  0  0  0  0  0  0  0  0
   -4.4981   -5.4994   -5.5935 C   0  0  0  0  0  0  0  0  0  0  0  0
   -2.6050   -5.1128   -4.2475 C   0  0  0  0  0  0  0  0  0  0  0  0
    3.5088    0.3135   -3.8640 C   0  0  0  0  0  0  0  0  0  0  0  0
    4.2021    0.3146   -2.6278 C   0  0  0  0  0  0  0  0  0  0  0  0
    4.9629   -0.8072   -2.2795 O   0  0  0  0  0  0  0  0  0  0  0  0
    4.3726   -2.0481   -1.8857 C   0  0  0  0  0  0  0  0  0  0  0  0
    5.4599   -3.0349   -1.4611 C   0  0  0  0  0  0  0  0  0  0  0  0
    4.1363    1.4731   -1.7863 C   0  0  0  0  0  0  0  0  0  0  0  0
    4.7877    1.5770   -0.5365 O   0  0  0  0  0  0  0  0  0  0  0  0
    5.1720    0.5167    0.3230 C   0  0  0  0  0  0  0  0  0  0  0  0
    6.6591    0.2107    0.1648 C   0  0  0  0  0  0  0  0  0  0  0  0
    3.3646    2.5990   -2.1862 C   0  0  0  0  0  0  0  0  0  0  0  0
    2.7565    2.6024   -3.4414 C   0  0  0  0  0  0  0  0  0  0  0  0
    2.8141    1.4604   -4.2765 C   0  0  0  0  0  0  0  0  0  0  0  0
    2.1512    1.5400   -5.4560 N   0  0  0  0  0  0  0  0  0  0  0  0
    1.5574    3.0860   -5.3796 S   0  0  0  0  0  0  0  0  0  0  0  0
    2.0646    3.6732   -3.9227 N   0  0  0  0  0  0  0  0  0  0  0  0
    2.9241    3.5653   -1.1587 C   0  0  0  0  0  0  0  0  0  0  0  0
    3.8261    4.4344   -0.5258 C   0  0  0  0  0  0  0  0  0  0  0  0
    5.1017    4.5472   -0.9915 F   0  0  0  0  0  0  0  0  0  0  0  0
    3.4659    5.0733    0.6721 C   0  0  0  0  0  0  0  0  0  0  0  0
    4.4055    5.8009    1.3308 F   0  0  0  0  0  0  0  0  0  0  0  0
    2.2193    4.8192    1.2712 C   0  0  0  0  0  0  0  0  0  0  0  0
    1.2417    4.1329    0.5168 C   0  0  0  0  0  0  0  0  0  0  0  0
   -0.0410    4.0191    0.9670 N   0  0  0  0  0  0  0  0  0  0  0  0
   -0.9850    3.3165    0.2756 C   0  0  0  0  0  0  0  0  0  0  0  0
   -2.4027    3.3542    0.7834 C   0  0  0  0  0  0  0  0  0  0  0  0
   -2.7032    2.1664    1.6912 C   0  0  0  0  0  0  0  0  0  0  0  0
   -0.5950    2.5951   -0.8796 C   0  0  0  0  0  0  0  0  0  0  0  0
    0.6866    2.7004   -1.3128 N   0  0  0  0  0  0  0  0  0  0  0  0
    1.6059    3.4855   -0.6795 C   0  0  0  0  0  0  0  0  0  0  0  0
   -1.5306    1.7379   -1.6916 C   0  0  0  0  0  0  0  0  0  0  0  0
   -1.9685    2.4696   -2.9537 C   0  0  0  0  0  0  0  0  0  0  0  0
    2.1018    4.8495    2.7539 C   0  0  0  0  0  0  0  0  0  0  0  0
    1.0063    5.4433    3.4059 C   0  0  0  0  0  0  0  0  0  0  0  0
    0.0629    6.2659    2.9118 N   0  0  0  0  0  0  0  0  0  0  0  0
   -0.7855    6.4701    3.9170 N   0  0  0  0  0  0  0  0  0  0  0  0
   -1.9969    7.2803    3.8189 C   0  0  0  0  0  0  0  0  0  0  0  0
   -3.1386    6.4590    3.2378 C   0  0  0  0  0  0  0  0  0  0  0  0
   -0.4593    5.7926    5.0135 N   0  0  0  0  0  0  0  0  0  0  0  0
    0.6775    5.1520    4.7030 C   0  0  0  0  0  0  0  0  0  0  0  0
    1.3852    4.2256    5.4603 C   0  0  0  0  0  0  0  0  0  0  0  0
    2.5689    3.6941    4.9001 C   0  0  0  0  0  0  0  0  0  0  0  0
    2.9196    3.9888    3.5576 C   0  0  0  0  0  0  0  0  0  0  0  0
    4.3227    3.1505    2.8686 Cl  0  0  0  0  0  0  0  0  0  0  0  0
    3.5583    2.5658    5.8466 Cl  0  0  0  0  0  0  0  0  0  0  0  0
    0.8669    3.6404    6.7183 C   0  0  0  0  0  0  0  0  0  0  0  0
    0.0703    2.5484    6.6795 C   0  0  0  0  0  0  0  0  0  0  0  0
   -0.8294    2.2234    5.5599 C   0  0  0  0  0  0  0  0  0  0  0  0
   -1.2127    3.0147    4.6698 O   0  0  0  0  0  0  0  0  0  0  0  0
   -1.3119    0.8759    5.7130 C   0  0  0  0  0  0  0  0  0  0  0  0
   -2.2578    0.2163    4.8945 C   0  0  0  0  0  0  0  0  0  0  0  0
   -2.5659   -1.0568    5.3057 C   0  0  0  0  0  0  0  0  0  0  0  0
   -2.0078   -1.6676    6.4751 C   0  0  0  0  0  0  0  0  0  0  0  0
   -1.1027   -1.0130    7.3004 C   0  0  0  0  0  0  0  0  0  0  0  0
   -0.7459    0.3062    6.8842 C   0  0  0  0  0  0  0  0  0  0  0  0
    0.1246    1.3274    7.5553 C   0  0  0  0  0  0  0  0  0  0  0  0
    0.9174    1.1136    8.6437 C   0  0  0  0  0  0  0  0  0  0  0  0
    1.6551    2.1524    9.3092 C   0  0  0  0  0  0  0  0  0  0  0  0
    2.2672    2.9606    9.8708 N   0  0  0  0  0  0  0  0  0  0  0  0
    1.1383   -0.1974    9.2077 C   0  0  0  0  0  0  0  0  0  0  0  0
    1.3316   -1.2513    9.6567 N   0  0  0  0  0  0  0  0  0  0  0  0
   -2.7860   -2.9173    6.2090 C   0  0  0  0  0  0  0  0  0  0  0  0
   -2.0011   -4.1244    5.6096 C   0  0  0  0  0  0  0  0  0  0  0  0
   -3.0610   -5.0765    5.1027 C   0  0  0  0  0  0  0  0  0  0  0  0
   -3.6145   -4.4934    4.0324 C   0  0  0  0  0  0  0  0  0  0  0  0
   -2.9133   -3.1733    3.8452 C   0  0  0  0  0  0  0  0  0  0  0  0
   -1.5116   -3.5895    4.2623 C   0  0  0  0  0  0  0  0  0  0  0  0
   -3.3803   -2.2776    5.0295 C   0  0  0  0  0  0  0  0  0  0  0  0
    4.3904   -1.0101   -5.3599 H   0  0  0  0  0  0  0  0  0  0  0  0
   -1.0816   -2.7360   -2.7138 H   0  0  0  0  0  0  0  0  0  0  0  0
    0.4988   -4.9422   -7.0373 H   0  0  0  0  0  0  0  0  0  0  0  0
   -1.9152   -6.7947   -5.4336 H   0  0  0  0  0  0  0  0  0  0  0  0
   -3.3215   -5.9630   -7.4377 H   0  0  0  0  0  0  0  0  0  0  0  0
   -3.1547   -3.3119   -7.6563 H   0  0  0  0  0  0  0  0  0  0  0  0
   -3.9445   -2.2627   -5.4170 H   0  0  0  0  0  0  0  0  0  0  0  0
   -4.6397   -4.2332   -3.7604 H   0  0  0  0  0  0  0  0  0  0  0  0
   -4.6006   -6.5197   -5.1536 H   0  0  0  0  0  0  0  0  0  0  0  0
   -5.4603   -5.2139   -6.0771 H   0  0  0  0  0  0  0  0  0  0  0  0
   -2.6357   -5.8218   -3.3954 H   0  0  0  0  0  0  0  0  0  0  0  0
    3.8052   -2.4939   -2.7221 H   0  0  0  0  0  0  0  0  0  0  0  0
    3.6503   -1.9102   -1.0519 H   0  0  0  0  0  0  0  0  0  0  0  0
    5.9905   -2.6533   -0.5686 H   0  0  0  0  0  0  0  0  0  0  0  0
    4.9926   -4.0069   -1.1936 H   0  0  0  0  0  0  0  0  0  0  0  0
    6.1751   -3.1889   -2.3020 H   0  0  0  0  0  0  0  0  0  0  0  0
    4.9858    0.8261    1.3644 H   0  0  0  0  0  0  0  0  0  0  0  0
    4.5430   -0.3775    0.1865 H   0  0  0  0  0  0  0  0  0  0  0  0
    7.2577    0.9884    0.6759 H   0  0  0  0  0  0  0  0  0  0  0  0
    6.9507    0.1743   -0.9010 H   0  0  0  0  0  0  0  0  0  0  0  0
    6.8779   -0.7703    0.6322 H   0  0  0  0  0  0  0  0  0  0  0  0
   -3.1377    3.3892   -0.0564 H   0  0  0  0  0  0  0  0  0  0  0  0
   -2.5468    4.2850    1.3674 H   0  0  0  0  0  0  0  0  0  0  0  0
   -2.9702    1.2637    1.0976 H   0  0  0  0  0  0  0  0  0  0  0  0
   -3.5561    2.4202    2.3644 H   0  0  0  0  0  0  0  0  0  0  0  0
   -1.8159    1.9295    2.3106 H   0  0  0  0  0  0  0  0  0  0  0  0
   -2.4282    1.4375   -1.1259 H   0  0  0  0  0  0  0  0  0  0  0  0
   -0.9995    0.8086   -1.9803 H   0  0  0  0  0  0  0  0  0  0  0  0
   -2.5690    1.7895   -3.5921 H   0  0  0  0  0  0  0  0  0  0  0  0
   -1.0862    2.8064   -3.5352 H   0  0  0  0  0  0  0  0  0  0  0  0
   -2.5925    3.3547   -2.7003 H   0  0  0  0  0  0  0  0  0  0  0  0
   -2.2870    7.6462    4.8310 H   0  0  0  0  0  0  0  0  0  0  0  0
   -1.8165    8.1713    3.1744 H   0  0  0  0  0  0  0  0  0  0  0  0
   -3.1337    5.4199    3.6505 H   0  0  0  0  0  0  0  0  0  0  0  0
   -3.0543    6.4089    2.1326 H   0  0  0  0  0  0  0  0  0  0  0  0
   -4.1191    6.9297    3.4913 H   0  0  0  0  0  0  0  0  0  0  0  0
    1.4834    3.8445    7.5655 H   0  0  0  0  0  0  0  0  0  0  0  0
   -2.6960    0.6660    4.0167 H   0  0  0  0  0  0  0  0  0  0  0  0
   -0.7617   -1.5045    8.1950 H   0  0  0  0  0  0  0  0  0  0  0  0
   -3.5026   -3.1557    7.0286 H   0  0  0  0  0  0  0  0  0  0  0  0
   -1.2320   -4.5724    6.2629 H   0  0  0  0  0  0  0  0  0  0  0  0
   -3.2772   -6.0739    5.4668 H   0  0  0  0  0  0  0  0  0  0  0  0
   -4.3519   -4.9490    3.3775 H   0  0  0  0  0  0  0  0  0  0  0  0
   -3.0038   -2.7208    2.8365 H   0  0  0  0  0  0  0  0  0  0  0  0
   -0.7869   -2.7576    4.3447 H   0  0  0  0  0  0  0  0  0  0  0  0
   -1.0670   -4.3798    3.6091 H   0  0  0  0  0  0  0  0  0  0  0  0
   -4.4705   -2.1085    5.1046 H   0  0  0  0  0  0  0  0  0  0  0  0
  1  2  2  3
  2  3  1  0
  3  4  2  0
  3  5  1  0
  5  6  2  0
  6  7  1  0
  7  8  2  0
  8  9  1  0
  9 10  2  0
 10 11  1  0
 11 12  2  3
 12 13  1  0
 13 14  3  0
 12 15  1  0
 15 16  3  0
  8 17  1  0
 17 18  1  0
 18 19  1  0
 19 20  2  0
 20 21  1  0
 21 22  1  0
 21 23  1  0
  1 24  1  0
 24 25  2  0
 25 26  1  0
 26 27  1  0
 27 28  1  0
 25 29  1  0
 29 30  1  0
 30 31  1  0
 31 32  1  0
 29 33  2  0
 33 34  1  0
 34 35  1  0
 35 36  2  0
 36 37  1  0
 37 38  1  0
 33 39  1  0
 39 40  2  0
 40 41  1  0
 40 42  1  0
 42 43  1  0
 42 44  2  0
 44 45  1  0
 45 46  2  0
 46 47  1  0
 47 48  1  0
 48 49  1  0
 47 50  2  0
 50 51  1  0
 51 52  2  0
 50 53  1  0
 53 54  1  0
 44 55  1  0
 55 56  1  0
 56 57  2  0
 57 58  1  0
 58 59  1  0
 59 60  1  0
 58 61  1  0
 61 62  2  0
 62 63  1  0
 63 64  2  0
 64 65  1  0
 65 66  1  0
 64 67  1  0
 63 68  1  0
 68 69  2  3
 69 70  1  0
 70 71  2  0
 70 72  1  0
 72 73  2  0
 73 74  1  0
 74 75  2  0
 75 76  1  0
 76 77  2  0
 77 78  1  0
 78 79  2  3
 79 80  1  0
 80 81  3  0
 79 82  1  0
 82 83  3  0
 75 84  1  0
 84 85  1  0
 85 86  1  0
 86 87  2  0
 87 88  1  0
 88 89  1  0
 88 90  1  0
 11  2  1  0
 23 17  1  0
 35 24  1  0
 52 39  1  0
 65 55  2  0
 78 69  1  0
 90 84  1  0
 10  5  1  0
 22 18  1  0
 38 34  2  0
 52 45  1  0
 62 56  1  0
 77 72  1  0
 89 85  1  0
 23  7  1  0
 90 74  1  0
  1 91  1  0
  6 92  1  0
  9 93  1  0
 17 94  1  0
 18 95  1  0
 19 96  1  0
 20 97  1  0
 21 98  1  0
 22 99  1  0
 22100  1  0
 23101  1  0
 27102  1  0
 27103  1  0
 28104  1  0
 28105  1  0
 28106  1  0
 31107  1  0
 31108  1  0
 32109  1  0
 32110  1  0
 32111  1  0
 48112  1  0
 48113  1  0
 49114  1  0
 49115  1  0
 49116  1  0
 53117  1  0
 53118  1  0
 54119  1  0
 54120  1  0
 54121  1  0
 59122  1  0
 59123  1  0
 60124  1  0
 60125  1  0
 60126  1  0
 68127  1  0
 73128  1  0
 76129  1  0
 84130  1  0
 85131  1  0
 86132  1  0
 87133  1  0
 88134  1  0
 89135  1  0
 89136  1  0
 90137  1  0
M  END

