
     RDKit          3D

146162  0  0  0  0  0  0  0  0999 V2000
   -0.3976   -5.1229    2.4739 C   0  0  0  0  0  0  0  0  0  0  0  0
   -1.0841   -6.2008    2.8726 C   0  0  0  0  0  0  0  0  0  0  0  0
   -2.4363   -6.5619    2.4254 C   0  0  0  0  0  0  0  0  0  0  0  0
   -3.2954   -5.7867    1.9244 O   0  0  0  0  0  0  0  0  0  0  0  0
   -2.6073   -7.9885    2.6094 C   0  0  0  0  0  0  0  0  0  0  0  0
   -3.6498   -8.7914    2.0924 C   0  0  0  0  0  0  0  0  0  0  0  0
   -3.4053  -10.1484    2.1774 C   0  0  0  0  0  0  0  0  0  0  0  0
   -2.1955  -10.6928    2.7300 C   0  0  0  0  0  0  0  0  0  0  0  0
   -1.1835   -9.9140    3.2600 C   0  0  0  0  0  0  0  0  0  0  0  0
   -1.4331   -8.5144    3.2092 C   0  0  0  0  0  0  0  0  0  0  0  0
   -0.5060   -7.4066    3.5383 C   0  0  0  0  0  0  0  0  0  0  0  0
    0.4899   -7.4304    4.4599 C   0  0  0  0  0  0  0  0  0  0  0  0
    1.2164   -6.2513    4.8526 C   0  0  0  0  0  0  0  0  0  0  0  0
    1.8009   -5.3062    5.1782 N   0  0  0  0  0  0  0  0  0  0  0  0
    0.8401   -8.6344    5.1724 C   0  0  0  0  0  0  0  0  0  0  0  0
    1.1192   -9.5971    5.7543 N   0  0  0  0  0  0  0  0  0  0  0  0
   -2.6263  -12.0750    2.3544 C   0  0  0  0  0  0  0  0  0  0  0  0
   -1.9464  -12.7364    1.1136 C   0  0  0  0  0  0  0  0  0  0  0  0
   -1.5391  -11.6752    0.1075 C   0  0  0  0  0  0  0  0  0  0  0  0
   -2.6731  -11.1745   -0.3912 C   0  0  0  0  0  0  0  0  0  0  0  0
   -3.8111  -11.9098    0.2916 C   0  0  0  0  0  0  0  0  0  0  0  0
   -3.1721  -13.2801    0.4049 C   0  0  0  0  0  0  0  0  0  0  0  0
   -3.8688  -11.5207    1.8014 C   0  0  0  0  0  0  0  0  0  0  0  0
   -0.9246   -4.1326    1.5182 C   0  0  0  0  0  0  0  0  0  0  0  0
   -1.1870   -2.8271    1.9330 C   0  0  0  0  0  0  0  0  0  0  0  0
   -1.4148   -1.7929    0.9954 C   0  0  0  0  0  0  0  0  0  0  0  0
   -1.5038   -0.4876    1.5808 N   0  0  0  0  0  0  0  0  0  0  0  0
   -1.3032   -0.8283    3.1229 S   0  0  0  0  0  4  0  0  0  0  0  0
   -1.0947   -2.3983    3.2966 N   0  0  0  0  0  0  0  0  0  0  0  0
   -1.3553   -2.0328   -0.3927 C   0  0  0  0  0  0  0  0  0  0  0  0
   -1.1849   -3.3614   -0.8128 C   0  0  0  0  0  0  0  0  0  0  0  0
   -1.1369   -3.7250   -2.1190 N   0  0  0  0  0  0  0  0  0  0  0  0
   -0.8354   -5.3440   -1.9847 S   0  0  0  0  0  0  0  0  0  0  0  0
   -0.7578   -5.6513   -0.3699 N   0  0  0  0  0  0  0  0  0  0  0  0
   -0.9809   -4.4123    0.1387 C   0  0  0  0  0  0  0  0  0  0  0  0
   -1.1023   -0.8884   -1.2935 C   0  0  0  0  0  0  0  0  0  0  0  0
    0.2243   -0.4619   -1.5008 C   0  0  0  0  0  0  0  0  0  0  0  0
    1.2966   -1.3459   -1.8813 N   0  0  0  0  0  0  0  0  0  0  0  0
    1.1890   -2.0731   -3.1368 C   0  0  0  0  0  0  0  0  0  0  0  0
    1.8092   -3.3323   -3.3010 C   0  0  0  0  0  0  0  0  0  0  0  0
    1.6759   -4.0425   -4.5002 C   0  0  0  0  0  0  0  0  0  0  0  0
    0.9016   -3.5205   -5.5431 C   0  0  0  0  0  0  0  0  0  0  0  0
    0.7474   -4.4125   -7.0972 S   0  0  0  0  0  0  0  0  0  0  0  0
   -0.6752   -5.4109   -6.5671 C   0  0  0  0  0  0  0  0  0  0  0  0
    0.2539   -2.2932   -5.3850 C   0  0  0  0  0  0  0  0  0  0  0  0
    0.4089   -1.5662   -4.1985 C   0  0  0  0  0  0  0  0  0  0  0  0
    2.4362   -1.5074   -1.0092 C   0  0  0  0  0  0  0  0  0  0  0  0
    2.2537   -1.6474    0.3798 C   0  0  0  0  0  0  0  0  0  0  0  0
    3.3333   -1.9224    1.2123 C   0  0  0  0  0  0  0  0  0  0  0  0
    4.6114   -2.0826    0.6686 C   0  0  0  0  0  0  0  0  0  0  0  0
    5.9793   -2.5873    1.7067 S   0  0  0  0  0  0  0  0  0  0  0  0
    5.7244   -4.3569    1.3573 C   0  0  0  0  0  0  0  0  0  0  0  0
    4.8139   -1.8950   -0.7000 C   0  0  0  0  0  0  0  0  0  0  0  0
    3.7348   -1.5933   -1.5360 C   0  0  0  0  0  0  0  0  0  0  0  0
    0.3327    0.9224   -1.5143 C   0  0  0  0  0  0  0  0  0  0  0  0
    1.6124    1.9684   -1.2125 S   0  0  0  0  0  0  0  0  0  0  0  0
    0.6135    3.3381   -1.0103 C   0  0  0  0  0  0  0  0  0  0  0  0
   -0.7321    2.9846   -1.2561 C   0  0  0  0  0  0  0  0  0  0  0  0
   -1.7991    3.9348   -1.4795 N   0  0  0  0  0  0  0  0  0  0  0  0
   -3.1714    3.5228   -1.3951 C   0  0  0  0  0  0  0  0  0  0  0  0
   -3.8523    3.1204   -2.5520 C   0  0  0  0  0  0  0  0  0  0  0  0
   -5.1899    2.7180   -2.4776 C   0  0  0  0  0  0  0  0  0  0  0  0
   -5.8545    2.7287   -1.2396 C   0  0  0  0  0  0  0  0  0  0  0  0
   -7.5645    2.1906   -1.1420 S   0  0  0  0  0  0  0  0  0  0  0  0
   -7.1212    0.4891   -0.6772 C   0  0  0  0  0  0  0  0  0  0  0  0
   -5.1780    3.1437   -0.0841 C   0  0  0  0  0  0  0  0  0  0  0  0
   -3.8330    3.5288   -0.1571 C   0  0  0  0  0  0  0  0  0  0  0  0
   -1.5354    5.1832   -2.1475 C   0  0  0  0  0  0  0  0  0  0  0  0
   -2.0923    6.3734   -1.6524 C   0  0  0  0  0  0  0  0  0  0  0  0
   -1.6768    7.6089   -2.1634 C   0  0  0  0  0  0  0  0  0  0  0  0
   -0.7526    7.6563   -3.2110 C   0  0  0  0  0  0  0  0  0  0  0  0
   -0.1627    9.2358   -3.8211 S   0  0  0  0  0  0  0  0  0  0  0  0
    1.3043    9.2371   -2.7405 C   0  0  0  0  0  0  0  0  0  0  0  0
   -0.2691    6.4708   -3.7713 C   0  0  0  0  0  0  0  0  0  0  0  0
   -0.6565    5.2396   -3.2384 C   0  0  0  0  0  0  0  0  0  0  0  0
   -0.8421    1.6044   -1.4575 C   0  0  0  0  0  0  0  0  0  0  0  0
   -2.0960    0.5050   -1.2833 S   0  0  0  0  0  0  0  0  0  0  0  0
    1.0506    4.6062   -0.3880 C   0  0  0  0  0  0  0  0  0  0  0  0
    2.3101    5.0893   -0.4170 N   0  0  0  0  0  0  0  0  0  0  0  0
    2.4453    6.2496    0.2295 N   0  0  0  0  0  0  0  0  0  0  0  0
    1.3061    6.6747    0.8202 C   0  0  0  0  0  0  0  0  0  0  0  0
    0.0608    5.5931    0.5571 S   0  0  0  0  0  0  0  0  0  0  0  0
    1.0920    8.0244    1.3652 C   0  0  0  0  0  0  0  0  0  0  0  0
    1.9791    8.6951    2.1223 C   0  0  0  0  0  0  0  0  0  0  0  0
    3.1508    8.1229    2.7929 C   0  0  0  0  0  0  0  0  0  0  0  0
    3.6455    6.9828    2.5984 O   0  0  0  0  0  0  0  0  0  0  0  0
    3.5866    9.0469    3.8163 C   0  0  0  0  0  0  0  0  0  0  0  0
    4.5052    8.8124    4.8314 C   0  0  0  0  0  0  0  0  0  0  0  0
    4.6252    9.7533    5.8581 C   0  0  0  0  0  0  0  0  0  0  0  0
    3.7888   10.8798    5.8852 C   0  0  0  0  0  0  0  0  0  0  0  0
    2.8197   11.0836    4.8756 C   0  0  0  0  0  0  0  0  0  0  0  0
    1.8606   12.1026    4.9740 O   0  0  0  0  0  0  0  0  0  0  0  0
    1.7723   13.0260    6.0520 C   0  0  0  0  0  0  0  0  0  0  0  0
    2.7845   10.1790    3.7923 C   0  0  0  0  0  0  0  0  0  0  0  0
    1.8316   10.0865    2.6478 C   0  0  0  0  0  0  0  0  0  0  0  0
    1.2620   11.1330    1.9993 C   0  0  0  0  0  0  0  0  0  0  0  0
    0.3707   10.9517    0.8782 C   0  0  0  0  0  0  0  0  0  0  0  0
   -0.3432   10.8144   -0.0230 N   0  0  0  0  0  0  0  0  0  0  0  0
    1.6420   12.4929    2.2671 C   0  0  0  0  0  0  0  0  0  0  0  0
    1.9660   13.5808    2.4705 N   0  0  0  0  0  0  0  0  0  0  0  0
    0.6439   -5.0109    2.7256 H   0  0  0  0  0  0  0  0  0  0  0  0
   -4.5144   -8.3810    1.5859 H   0  0  0  0  0  0  0  0  0  0  0  0
   -0.2500  -10.3530    3.5764 H   0  0  0  0  0  0  0  0  0  0  0  0
   -2.7808  -12.7567    3.2204 H   0  0  0  0  0  0  0  0  0  0  0  0
   -1.1594  -13.4810    1.3462 H   0  0  0  0  0  0  0  0  0  0  0  0
   -0.5374  -11.4083   -0.2021 H   0  0  0  0  0  0  0  0  0  0  0  0
   -2.7429  -10.4244   -1.1663 H   0  0  0  0  0  0  0  0  0  0  0  0
   -4.7796  -11.8644   -0.2465 H   0  0  0  0  0  0  0  0  0  0  0  0
   -3.7590  -13.9925    1.0237 H   0  0  0  0  0  0  0  0  0  0  0  0
   -2.9442  -13.7378   -0.5902 H   0  0  0  0  0  0  0  0  0  0  0  0
   -4.7897  -11.8505    2.3364 H   0  0  0  0  0  0  0  0  0  0  0  0
    2.3776   -3.7756   -2.4996 H   0  0  0  0  0  0  0  0  0  0  0  0
    2.1765   -4.9934   -4.6182 H   0  0  0  0  0  0  0  0  0  0  0  0
   -0.3667   -6.0927   -5.7426 H   0  0  0  0  0  0  0  0  0  0  0  0
   -1.4973   -4.7470   -6.2311 H   0  0  0  0  0  0  0  0  0  0  0  0
   -1.0329   -6.0246   -7.4307 H   0  0  0  0  0  0  0  0  0  0  0  0
   -0.3497   -1.8868   -6.1868 H   0  0  0  0  0  0  0  0  0  0  0  0
   -0.0989   -0.6159   -4.1124 H   0  0  0  0  0  0  0  0  0  0  0  0
    1.2725   -1.5558    0.8135 H   0  0  0  0  0  0  0  0  0  0  0  0
    3.1799   -2.0428    2.2762 H   0  0  0  0  0  0  0  0  0  0  0  0
    4.7049   -4.6678    1.6756 H   0  0  0  0  0  0  0  0  0  0  0  0
    6.4763   -4.9554    1.9130 H   0  0  0  0  0  0  0  0  0  0  0  0
    5.8434   -4.5489    0.2675 H   0  0  0  0  0  0  0  0  0  0  0  0
    5.8053   -1.9906   -1.1227 H   0  0  0  0  0  0  0  0  0  0  0  0
    3.9054   -1.4672   -2.5960 H   0  0  0  0  0  0  0  0  0  0  0  0
   -3.3393    3.1072   -3.5075 H   0  0  0  0  0  0  0  0  0  0  0  0
   -5.7039    2.3926   -3.3744 H   0  0  0  0  0  0  0  0  0  0  0  0
   -6.5460    0.4908    0.2774 H   0  0  0  0  0  0  0  0  0  0  0  0
   -6.5116    0.0216   -1.4789 H   0  0  0  0  0  0  0  0  0  0  0  0
   -8.0478   -0.1022   -0.5304 H   0  0  0  0  0  0  0  0  0  0  0  0
   -5.6940    3.1630    0.8663 H   0  0  0  0  0  0  0  0  0  0  0  0
   -3.3166    3.8530    0.7393 H   0  0  0  0  0  0  0  0  0  0  0  0
   -2.7629    6.3499   -0.8053 H   0  0  0  0  0  0  0  0  0  0  0  0
   -2.0482    8.5186   -1.7190 H   0  0  0  0  0  0  0  0  0  0  0  0
    0.9967    9.2393   -1.6741 H   0  0  0  0  0  0  0  0  0  0  0  0
    1.9369    8.3409   -2.9295 H   0  0  0  0  0  0  0  0  0  0  0  0
    1.9031   10.1481   -2.9396 H   0  0  0  0  0  0  0  0  0  0  0  0
    0.4336    6.5073   -4.5902 H   0  0  0  0  0  0  0  0  0  0  0  0
   -0.2369    4.3354   -3.6579 H   0  0  0  0  0  0  0  0  0  0  0  0
    0.1160    8.4557    1.1882 H   0  0  0  0  0  0  0  0  0  0  0  0
    5.1026    7.9061    4.8444 H   0  0  0  0  0  0  0  0  0  0  0  0
    5.3224    9.5870    6.6645 H   0  0  0  0  0  0  0  0  0  0  0  0
    3.8744   11.5622    6.7205 H   0  0  0  0  0  0  0  0  0  0  0  0
    1.5085   12.4987    6.9882 H   0  0  0  0  0  0  0  0  0  0  0  0
    2.7300   13.5719    6.1729 H   0  0  0  0  0  0  0  0  0  0  0  0
    0.9798   13.7704    5.8324 H   0  0  0  0  0  0  0  0  0  0  0  0
  1  2  2  3
  2  3  1  0
  3  4  2  0
  3  5  1  0
  5  6  2  0
  6  7  1  0
  7  8  2  0
  8  9  1  0
  9 10  2  0
 10 11  1  0
 11 12  2  3
 12 13  1  0
 13 14  3  0
 12 15  1  0
 15 16  3  0
  8 17  1  0
 17 18  1  0
 18 19  1  0
 19 20  2  0
 20 21  1  0
 21 22  1  0
 21 23  1  0
  1 24  1  0
 24 25  2  0
 25 26  1  0
 26 27  1  0
 27 28  2  0
 28 29  2  0
 26 30  2  0
 30 31  1  0
 31 32  2  0
 32 33  1  0
 33 34  1  0
 34 35  2  0
 30 36  1  0
 36 37  2  0
 37 38  1  0
 38 39  1  0
 39 40  2  0
 40 41  1  0
 41 42  2  0
 42 43  1  0
 43 44  1  0
 42 45  1  0
 45 46  2  0
 38 47  1  0
 47 48  2  0
 48 49  1  0
 49 50  2  0
 50 51  1  0
 51 52  1  0
 50 53  1  0
 53 54  2  0
 37 55  1  0
 55 56  1  0
 56 57  1  0
 57 58  2  0
 58 59  1  0
 59 60  1  0
 60 61  2  0
 61 62  1  0
 62 63  2  0
 63 64  1  0
 64 65  1  0
 63 66  1  0
 66 67  2  0
 59 68  1  0
 68 69  2  0
 69 70  1  0
 70 71  2  0
 71 72  1  0
 72 73  1  0
 71 74  1  0
 74 75  2  0
 58 76  1  0
 76 77  1  0
 57 78  1  0
 78 79  2  0
 79 80  1  0
 80 81  2  0
 81 82  1  0
 81 83  1  0
 83 84  2  3
 84 85  1  0
 85 86  2  0
 85 87  1  0
 87 88  2  0
 88 89  1  0
 89 90  2  0
 90 91  1  0
 91 92  1  0
 92 93  1  0
 91 94  2  0
 94 95  1  0
 95 96  2  3
 96 97  1  0
 97 98  3  0
 96 99  1  0
 99100  3  0
 11  2  1  0
 23 17  1  0
 35 24  1  0
 77 36  1  0
 82 78  1  0
 95 84  1  0
 10  5  1  0
 22 18  1  0
 29 25  1  0
 35 31  1  0
 46 39  1  0
 54 47  1  0
 76 55  2  0
 94 87  1  0
 23  7  1  0
 67 60  1  0
 75 68  1  0
  1101  1  0
  6102  1  0
  9103  1  0
 17104  1  0
 18105  1  0
 19106  1  0
 20107  1  0
 21108  1  0
 22109  1  0
 22110  1  0
 23111  1  0
 40112  1  0
 41113  1  0
 44114  1  0
 44115  1  0
 44116  1  0
 45117  1  0
 46118  1  0
 48119  1  0
 49120  1  0
 52121  1  0
 52122  1  0
 52123  1  0
 53124  1  0
 54125  1  0
 61126  1  0
 62127  1  0
 65128  1  0
 65129  1  0
 65130  1  0
 66131  1  0
 67132  1  0
 69133  1  0
 70134  1  0
 73135  1  0
 73136  1  0
 73137  1  0
 74138  1  0
 75139  1  0
 83140  1  0
 88141  1  0
 89142  1  0
 90143  1  0
 93144  1  0
 93145  1  0
 93146  1  0
M  END

