
     RDKit          3D

222242  0  0  0  0  0  0  0  0999 V2000
    6.9627    0.0552   -1.4599 C   0  0  0  0  0  0  0  0  0  0  0  0
    6.9520    0.9299   -0.4221 C   0  0  0  0  0  0  0  0  0  0  0  0
    5.7442    1.4586    0.2375 C   0  0  0  0  0  0  0  0  0  0  0  0
    4.5559    1.2775   -0.1226 O   0  0  0  0  0  0  0  0  0  0  0  0
    6.1258    2.3759    1.2823 C   0  0  0  0  0  0  0  0  0  0  0  0
    5.2530    2.9903    2.2101 C   0  0  0  0  0  0  0  0  0  0  0  0
    5.8984    3.7672    3.1507 C   0  0  0  0  0  0  0  0  0  0  0  0
    7.3221    3.9423    3.1737 C   0  0  0  0  0  0  0  0  0  0  0  0
    8.1785    3.3376    2.2660 C   0  0  0  0  0  0  0  0  0  0  0  0
    7.5317    2.5305    1.2783 C   0  0  0  0  0  0  0  0  0  0  0  0
    8.1140    1.6537    0.2102 C   0  0  0  0  0  0  0  0  0  0  0  0
    9.4369    1.4825   -0.0529 C   0  0  0  0  0  0  0  0  0  0  0  0
    9.9399    0.3979   -0.8530 C   0  0  0  0  0  0  0  0  0  0  0  0
   10.3648   -0.4687   -1.4948 N   0  0  0  0  0  0  0  0  0  0  0  0
   10.4520    2.3698    0.4559 C   0  0  0  0  0  0  0  0  0  0  0  0
   11.2824    3.0636    0.8563 N   0  0  0  0  0  0  0  0  0  0  0  0
    7.2104    4.8278    4.3791 C   0  0  0  0  0  0  0  0  0  0  0  0
    7.3706    6.3609    4.1383 C   0  0  0  0  0  0  0  0  0  0  0  0
    6.8584    7.0317    5.3899 C   0  0  0  0  0  0  0  0  0  0  0  0
    5.5304    6.8528    5.3978 C   0  0  0  0  0  0  0  0  0  0  0  0
    5.1961    6.0696    4.1456 C   0  0  0  0  0  0  0  0  0  0  0  0
    6.2114    6.6897    3.2078 C   0  0  0  0  0  0  0  0  0  0  0  0
    5.7586    4.6365    4.3707 C   0  0  0  0  0  0  0  0  0  0  0  0
    5.7681   -0.7172   -1.8614 C   0  0  0  0  0  0  0  0  0  0  0  0
    4.9875   -0.4150   -2.9991 C   0  0  0  0  0  0  0  0  0  0  0  0
    5.5088   -0.6388   -4.3309 N   0  0  0  0  0  0  0  0  0  0  0  0
    4.9265   -0.0269   -5.4997 C   0  0  0  0  0  0  0  0  0  0  0  0
    3.7385   -0.5291   -6.0614 C   0  0  0  0  0  0  0  0  0  0  0  0
    3.2552   -0.0245   -7.2742 C   0  0  0  0  0  0  0  0  0  0  0  0
    3.9688    0.9625   -7.9516 C   0  0  0  0  0  0  0  0  0  0  0  0
    3.3620    1.5663   -9.5267 S   0  0  0  0  0  0  0  0  0  0  0  0
    4.1502    0.2455  -10.5025 C   0  0  0  0  0  0  0  0  0  0  0  0
    5.1549    1.4678   -7.4055 C   0  0  0  0  0  0  0  0  0  0  0  0
    5.6194    0.9847   -6.1710 C   0  0  0  0  0  0  0  0  0  0  0  0
    6.2475   -1.8586   -4.5299 C   0  0  0  0  0  0  0  0  0  0  0  0
    5.5839   -3.0341   -4.9388 C   0  0  0  0  0  0  0  0  0  0  0  0
    6.2886   -4.2303   -5.0912 C   0  0  0  0  0  0  0  0  0  0  0  0
    7.6543   -4.2888   -4.7800 C   0  0  0  0  0  0  0  0  0  0  0  0
    8.5565   -5.8230   -4.9783 S   0  0  0  0  0  0  0  0  0  0  0  0
    7.8909   -6.5701   -3.4567 C   0  0  0  0  0  0  0  0  0  0  0  0
    8.3246   -3.1203   -4.3841 C   0  0  0  0  0  0  0  0  0  0  0  0
    7.6308   -1.9069   -4.2950 C   0  0  0  0  0  0  0  0  0  0  0  0
    3.6373   -0.6628   -2.7098 C   0  0  0  0  0  0  0  0  0  0  0  0
    2.1939   -0.0432   -3.2967 S   0  0  0  0  0  0  0  0  0  0  0  0
    1.2352   -0.6508   -2.0302 C   0  0  0  0  0  0  0  0  0  0  0  0
    2.0617   -1.3407   -1.1276 C   0  0  0  0  0  0  0  0  0  0  0  0
    1.6055   -2.2012   -0.0680 N   0  0  0  0  0  0  0  0  0  0  0  0
    0.7174   -3.2987   -0.4083 C   0  0  0  0  0  0  0  0  0  0  0  0
    0.7489   -3.8802   -1.6944 C   0  0  0  0  0  0  0  0  0  0  0  0
   -0.1093   -4.9366   -2.0245 C   0  0  0  0  0  0  0  0  0  0  0  0
   -1.0162   -5.4238   -1.0782 C   0  0  0  0  0  0  0  0  0  0  0  0
   -2.1597   -6.7353   -1.5289 S   0  0  0  0  0  0  0  0  0  0  0  0
   -1.1116   -8.0661   -0.8594 C   0  0  0  0  0  0  0  0  0  0  0  0
   -1.0486   -4.8642    0.2025 C   0  0  0  0  0  0  0  0  0  0  0  0
   -0.1795   -3.8234    0.5405 C   0  0  0  0  0  0  0  0  0  0  0  0
    2.2737   -2.1362    1.2144 C   0  0  0  0  0  0  0  0  0  0  0  0
    2.6127   -3.3092    1.9227 C   0  0  0  0  0  0  0  0  0  0  0  0
    3.3326   -3.2308    3.1189 C   0  0  0  0  0  0  0  0  0  0  0  0
    3.7300   -1.9851    3.6221 C   0  0  0  0  0  0  0  0  0  0  0  0
    4.6358   -1.8853    5.1658 S   0  0  0  0  0  0  0  0  0  0  0  0
    6.2645   -1.8581    4.3517 C   0  0  0  0  0  0  0  0  0  0  0  0
    3.4208   -0.8222    2.9161 C   0  0  0  0  0  0  0  0  0  0  0  0
    2.7130   -0.9009    1.7168 C   0  0  0  0  0  0  0  0  0  0  0  0
    3.3933   -1.2874   -1.5306 C   0  0  0  0  0  0  0  0  0  0  0  0
    4.8261   -1.5423   -0.7088 S   0  0  0  0  0  0  0  0  0  0  0  0
   -0.1734   -0.2735   -1.8461 C   0  0  0  0  0  0  0  0  0  0  0  0
   -0.7198    0.4779   -0.7817 C   0  0  0  0  0  0  0  0  0  0  0  0
   -0.0593    0.8560    0.4392 N   0  0  0  0  0  0  0  0  0  0  0  0
   -0.3730    0.1653    1.6886 C   0  0  0  0  0  0  0  0  0  0  0  0
   -1.3124   -0.8930    1.7333 C   0  0  0  0  0  0  0  0  0  0  0  0
   -1.5919   -1.5570    2.9291 C   0  0  0  0  0  0  0  0  0  0  0  0
   -0.9099   -1.2131    4.0995 C   0  0  0  0  0  0  0  0  0  0  0  0
   -1.1909   -2.1400    5.6067 S   0  0  0  0  0  0  0  0  0  0  0  0
    0.0859   -3.3755    5.2034 C   0  0  0  0  0  0  0  0  0  0  0  0
    0.0215   -0.1704    4.0811 C   0  0  0  0  0  0  0  0  0  0  0  0
    0.2837    0.5138    2.8947 C   0  0  0  0  0  0  0  0  0  0  0  0
    0.5326    2.1702    0.4688 C   0  0  0  0  0  0  0  0  0  0  0  0
    1.6470    2.4719   -0.3317 C   0  0  0  0  0  0  0  0  0  0  0  0
    2.3025    3.7011   -0.2016 C   0  0  0  0  0  0  0  0  0  0  0  0
    1.8403    4.6512    0.7159 C   0  0  0  0  0  0  0  0  0  0  0  0
    2.7657    6.1660    0.9798 S   0  0  0  0  0  0  0  0  0  0  0  0
    1.6445    7.2111    0.0025 C   0  0  0  0  0  0  0  0  0  0  0  0
    0.6924    4.3878    1.4694 C   0  0  0  0  0  0  0  0  0  0  0  0
    0.0241    3.1658    1.3249 C   0  0  0  0  0  0  0  0  0  0  0  0
   -2.0627    0.7350   -0.9988 C   0  0  0  0  0  0  0  0  0  0  0  0
   -3.2727    1.2977    0.0041 S   0  0  0  0  0  0  0  0  0  0  0  0
   -4.5247    0.8668   -1.0648 C   0  0  0  0  0  0  0  0  0  0  0  0
   -3.9768    0.2987   -2.2296 C   0  0  0  0  0  0  0  0  0  0  0  0
   -4.7500   -0.2595   -3.3021 N   0  0  0  0  0  0  0  0  0  0  0  0
   -5.0845    0.6308   -4.3776 C   0  0  0  0  0  0  0  0  0  0  0  0
   -4.0876    1.0912   -5.2496 C   0  0  0  0  0  0  0  0  0  0  0  0
   -4.3986    2.0164   -6.2501 C   0  0  0  0  0  0  0  0  0  0  0  0
   -5.7057    2.5039   -6.3714 C   0  0  0  0  0  0  0  0  0  0  0  0
   -6.0978    3.7143   -7.6365 S   0  0  0  0  0  0  0  0  0  0  0  0
   -5.7315    5.1349   -6.5606 C   0  0  0  0  0  0  0  0  0  0  0  0
   -6.7088    2.0312   -5.5175 C   0  0  0  0  0  0  0  0  0  0  0  0
   -6.4017    1.0992   -4.5234 C   0  0  0  0  0  0  0  0  0  0  0  0
   -5.1046   -1.6675   -3.3264 C   0  0  0  0  0  0  0  0  0  0  0  0
   -4.6173   -2.5560   -2.3396 C   0  0  0  0  0  0  0  0  0  0  0  0
   -4.9209   -3.9182   -2.3946 C   0  0  0  0  0  0  0  0  0  0  0  0
   -5.7279   -4.4204   -3.4194 C   0  0  0  0  0  0  0  0  0  0  0  0
   -6.1176   -6.1685   -3.4885 S   0  0  0  0  0  0  0  0  0  0  0  0
   -4.8156   -6.5296   -4.7082 C   0  0  0  0  0  0  0  0  0  0  0  0
   -6.2406   -3.5489   -4.3889 C   0  0  0  0  0  0  0  0  0  0  0  0
   -5.9216   -2.1911   -4.3501 C   0  0  0  0  0  0  0  0  0  0  0  0
   -2.5874    0.2333   -2.1446 C   0  0  0  0  0  0  0  0  0  0  0  0
   -1.3909   -0.5631   -3.0106 S   0  0  0  0  0  0  0  0  0  0  0  0
   -5.8762    0.6392   -0.5621 C   0  0  0  0  0  0  0  0  0  0  0  0
   -6.1222   -0.0015    0.6412 C   0  0  0  0  0  0  0  0  0  0  0  0
   -7.4246    0.1717    1.1187 C   0  0  0  0  0  0  0  0  0  0  0  0
   -7.8795   -0.4458    2.3896 C   0  0  0  0  0  0  0  0  0  0  0  0
   -8.9273   -1.4074    2.3889 C   0  0  0  0  0  0  0  0  0  0  0  0
   -9.4081   -1.9103    3.6058 C   0  0  0  0  0  0  0  0  0  0  0  0
   -8.8165   -1.5416    4.8154 C   0  0  0  0  0  0  0  0  0  0  0  0
   -9.3295   -2.0980    6.1144 C   0  0  0  0  0  0  0  0  0  0  0  0
   -7.7467   -0.6453    4.8174 C   0  0  0  0  0  0  0  0  0  0  0  0
   -7.2692   -0.0864    3.6200 C   0  0  0  0  0  0  0  0  0  0  0  0
   -6.0687    0.8247    3.6948 C   0  0  0  0  0  0  0  0  0  0  0  0
   -9.5497   -1.9214    1.1159 C   0  0  0  0  0  0  0  0  0  0  0  0
   -8.2122    0.9547    0.2669 C   0  0  0  0  0  0  0  0  0  0  0  0
   -7.2804    1.4008   -1.0717 S   0  0  0  0  0  0  0  0  0  0  0  0
   -9.6268    1.3272    0.4490 C   0  0  0  0  0  0  0  0  0  0  0  0
  -10.1420    1.7971    1.5971 C   0  0  0  0  0  0  0  0  0  0  0  0
  -11.5239    1.5333    2.0021 C   0  0  0  0  0  0  0  0  0  0  0  0
  -12.4526    1.1895    1.2273 O   0  0  0  0  0  0  0  0  0  0  0  0
  -11.5984    1.6176    3.4519 C   0  0  0  0  0  0  0  0  0  0  0  0
  -12.6511    1.2973    4.3280 C   0  0  0  0  0  0  0  0  0  0  0  0
  -13.9309    0.9592    3.8784 O   0  0  0  0  0  0  0  0  0  0  0  0
  -12.4031    1.3223    5.7086 C   0  0  0  0  0  0  0  0  0  0  0  0
  -11.1209    1.6348    6.1987 C   0  0  0  0  0  0  0  0  0  0  0  0
  -10.0876    1.9599    5.3145 C   0  0  0  0  0  0  0  0  0  0  0  0
  -10.3526    1.9789    3.9389 C   0  0  0  0  0  0  0  0  0  0  0  0
   -9.4351    2.2761    2.8145 C   0  0  0  0  0  0  0  0  0  0  0  0
   -8.4069    3.1541    2.8385 C   0  0  0  0  0  0  0  0  0  0  0  0
   -7.7803    3.6387    1.6404 C   0  0  0  0  0  0  0  0  0  0  0  0
   -7.2456    4.0399    0.6990 N   0  0  0  0  0  0  0  0  0  0  0  0
   -7.9484    3.7736    4.0558 C   0  0  0  0  0  0  0  0  0  0  0  0
   -7.5518    4.2825    5.0208 N   0  0  0  0  0  0  0  0  0  0  0  0
    7.8418   -0.0890   -2.0473 H   0  0  0  0  0  0  0  0  0  0  0  0
    4.1831    2.8492    2.2107 H   0  0  0  0  0  0  0  0  0  0  0  0
    9.2406    3.4619    2.3716 H   0  0  0  0  0  0  0  0  0  0  0  0
    7.7232    4.4243    5.2865 H   0  0  0  0  0  0  0  0  0  0  0  0
    8.3758    6.6919    3.7974 H   0  0  0  0  0  0  0  0  0  0  0  0
    7.4244    7.6274    6.0966 H   0  0  0  0  0  0  0  0  0  0  0  0
    4.8320    7.2799    6.1170 H   0  0  0  0  0  0  0  0  0  0  0  0
    4.1365    6.1247    3.8232 H   0  0  0  0  0  0  0  0  0  0  0  0
    6.2770    6.1986    2.2113 H   0  0  0  0  0  0  0  0  0  0  0  0
    6.0631    7.7853    3.0547 H   0  0  0  0  0  0  0  0  0  0  0  0
    5.3611    4.0985    5.2615 H   0  0  0  0  0  0  0  0  0  0  0  0
    3.1897   -1.3270   -5.5873 H   0  0  0  0  0  0  0  0  0  0  0  0
    2.3424   -0.4271   -7.6901 H   0  0  0  0  0  0  0  0  0  0  0  0
    5.2299    0.4633  -10.6193 H   0  0  0  0  0  0  0  0  0  0  0  0
    4.0098   -0.7448  -10.0172 H   0  0  0  0  0  0  0  0  0  0  0  0
    3.6779    0.2107  -11.5041 H   0  0  0  0  0  0  0  0  0  0  0  0
    5.7144    2.2297   -7.9294 H   0  0  0  0  0  0  0  0  0  0  0  0
    6.5582    1.3522   -5.7713 H   0  0  0  0  0  0  0  0  0  0  0  0
    4.5248   -3.0383   -5.1527 H   0  0  0  0  0  0  0  0  0  0  0  0
    5.7715   -5.1207   -5.4377 H   0  0  0  0  0  0  0  0  0  0  0  0
    8.0996   -5.9211   -2.5786 H   0  0  0  0  0  0  0  0  0  0  0  0
    8.3682   -7.5613   -3.3006 H   0  0  0  0  0  0  0  0  0  0  0  0
    6.7918   -6.7122   -3.5651 H   0  0  0  0  0  0  0  0  0  0  0  0
    9.3858   -3.1524   -4.1749 H   0  0  0  0  0  0  0  0  0  0  0  0
    8.1736   -1.0004   -4.0777 H   0  0  0  0  0  0  0  0  0  0  0  0
    1.4556   -3.5423   -2.4381 H   0  0  0  0  0  0  0  0  0  0  0  0
   -0.0733   -5.3579   -3.0246 H   0  0  0  0  0  0  0  0  0  0  0  0
   -1.5407   -9.0464   -1.1537 H   0  0  0  0  0  0  0  0  0  0  0  0
   -1.0963   -7.9992    0.2467 H   0  0  0  0  0  0  0  0  0  0  0  0
   -0.0772   -7.9940   -1.2543 H   0  0  0  0  0  0  0  0  0  0  0  0
   -1.7444   -5.2497    0.9382 H   0  0  0  0  0  0  0  0  0  0  0  0
   -0.1968   -3.4367    1.5437 H   0  0  0  0  0  0  0  0  0  0  0  0
    2.3542   -4.2865    1.5334 H   0  0  0  0  0  0  0  0  0  0  0  0
    3.5872   -4.1421    3.6501 H   0  0  0  0  0  0  0  0  0  0  0  0
    6.3953   -2.7647    3.7240 H   0  0  0  0  0  0  0  0  0  0  0  0
    6.3600   -0.9485    3.7211 H   0  0  0  0  0  0  0  0  0  0  0  0
    7.0613   -1.8412    5.1279 H   0  0  0  0  0  0  0  0  0  0  0  0
    3.7426    0.1427    3.2877 H   0  0  0  0  0  0  0  0  0  0  0  0
    2.5203    0.0122    1.1736 H   0  0  0  0  0  0  0  0  0  0  0  0
   -1.8315   -1.2268    0.8454 H   0  0  0  0  0  0  0  0  0  0  0  0
   -2.3053   -2.3719    2.9372 H   0  0  0  0  0  0  0  0  0  0  0  0
    0.1630   -4.1077    6.0342 H   0  0  0  0  0  0  0  0  0  0  0  0
    1.0698   -2.8786    5.0707 H   0  0  0  0  0  0  0  0  0  0  0  0
   -0.1866   -3.9155    4.2721 H   0  0  0  0  0  0  0  0  0  0  0  0
    0.5604    0.0864    4.9830 H   0  0  0  0  0  0  0  0  0  0  0  0
    1.0374    1.2864    2.9145 H   0  0  0  0  0  0  0  0  0  0  0  0
    2.0456    1.7373   -1.0075 H   0  0  0  0  0  0  0  0  0  0  0  0
    3.1908    3.8980   -0.7828 H   0  0  0  0  0  0  0  0  0  0  0  0
    1.2667    6.6802   -0.8948 H   0  0  0  0  0  0  0  0  0  0  0  0
    2.1913    8.1217   -0.3188 H   0  0  0  0  0  0  0  0  0  0  0  0
    0.7916    7.5085    0.6430 H   0  0  0  0  0  0  0  0  0  0  0  0
    0.3231    5.1241    2.1708 H   0  0  0  0  0  0  0  0  0  0  0  0
   -0.8569    2.9696    1.9272 H   0  0  0  0  0  0  0  0  0  0  0  0
   -3.0735    0.7256   -5.1547 H   0  0  0  0  0  0  0  0  0  0  0  0
   -3.6211    2.3682   -6.9125 H   0  0  0  0  0  0  0  0  0  0  0  0
   -4.6644    5.1244   -6.2704 H   0  0  0  0  0  0  0  0  0  0  0  0
   -6.3684    5.1035   -5.6538 H   0  0  0  0  0  0  0  0  0  0  0  0
   -5.9439    6.0720   -7.1141 H   0  0  0  0  0  0  0  0  0  0  0  0
   -7.7224    2.3981   -5.6144 H   0  0  0  0  0  0  0  0  0  0  0  0
   -7.1871    0.7334   -3.8729 H   0  0  0  0  0  0  0  0  0  0  0  0
   -3.9919   -2.2108   -1.5276 H   0  0  0  0  0  0  0  0  0  0  0  0
   -4.5302   -4.5848   -1.6324 H   0  0  0  0  0  0  0  0  0  0  0  0
   -5.0239   -5.9862   -5.6545 H   0  0  0  0  0  0  0  0  0  0  0  0
   -4.8131   -7.6198   -4.9261 H   0  0  0  0  0  0  0  0  0  0  0  0
   -3.8235   -6.2267   -4.3159 H   0  0  0  0  0  0  0  0  0  0  0  0
   -6.8763   -3.9291   -5.1788 H   0  0  0  0  0  0  0  0  0  0  0  0
   -6.3208   -1.5528   -5.1275 H   0  0  0  0  0  0  0  0  0  0  0  0
   -5.3645   -0.5461    1.1876 H   0  0  0  0  0  0  0  0  0  0  0  0
  -10.2282   -2.6163    3.6083 H   0  0  0  0  0  0  0  0  0  0  0  0
  -10.0794   -1.4009    6.5512 H   0  0  0  0  0  0  0  0  0  0  0  0
   -9.8082   -3.0868    5.9584 H   0  0  0  0  0  0  0  0  0  0  0  0
   -8.4947   -2.2340    6.8358 H   0  0  0  0  0  0  0  0  0  0  0  0
   -7.2820   -0.3725    5.7573 H   0  0  0  0  0  0  0  0  0  0  0  0
   -6.0521    1.3751    4.6581 H   0  0  0  0  0  0  0  0  0  0  0  0
   -5.1432    0.2204    3.6163 H   0  0  0  0  0  0  0  0  0  0  0  0
   -6.0732    1.5831    2.8921 H   0  0  0  0  0  0  0  0  0  0  0  0
  -10.4803   -1.3564    0.8997 H   0  0  0  0  0  0  0  0  0  0  0  0
   -8.8567   -1.8404    0.2530 H   0  0  0  0  0  0  0  0  0  0  0  0
   -9.8091   -2.9994    1.2181 H   0  0  0  0  0  0  0  0  0  0  0  0
  -10.3006    1.0396   -0.3541 H   0  0  0  0  0  0  0  0  0  0  0  0
  -14.1839    0.9509    2.9013 H   0  0  0  0  0  0  0  0  0  0  0  0
  -13.1931    1.0772    6.4061 H   0  0  0  0  0  0  0  0  0  0  0  0
  -10.9353    1.6202    7.2635 H   0  0  0  0  0  0  0  0  0  0  0  0
   -9.1015    2.1469    5.7039 H   0  0  0  0  0  0  0  0  0  0  0  0
  1  2  2  3
  2  3  1  0
  3  4  2  0
  3  5  1  0
  5  6  2  0
  6  7  1  0
  7  8  2  0
  8  9  1  0
  9 10  2  0
 10 11  1  0
 11 12  2  3
 12 13  1  0
 13 14  3  0
 12 15  1  0
 15 16  3  0
  8 17  1  0
 17 18  1  0
 18 19  1  0
 19 20  2  0
 20 21  1  0
 21 22  1  0
 21 23  1  0
  1 24  1  0
 24 25  2  0
 25 26  1  0
 26 27  1  0
 27 28  2  0
 28 29  1  0
 29 30  2  0
 30 31  1  0
 31 32  1  0
 30 33  1  0
 33 34  2  0
 26 35  1  0
 35 36  2  0
 36 37  1  0
 37 38  2  0
 38 39  1  0
 39 40  1  0
 38 41  1  0
 41 42  2  0
 25 43  1  0
 43 44  1  0
 44 45  1  0
 45 46  2  0
 46 47  1  0
 47 48  1  0
 48 49  2  0
 49 50  1  0
 50 51  2  0
 51 52  1  0
 52 53  1  0
 51 54  1  0
 54 55  2  0
 47 56  1  0
 56 57  2  0
 57 58  1  0
 58 59  2  0
 59 60  1  0
 60 61  1  0
 59 62  1  0
 62 63  2  0
 46 64  1  0
 64 65  1  0
 45 66  1  0
 66 67  2  0
 67 68  1  0
 68 69  1  0
 69 70  2  0
 70 71  1  0
 71 72  2  0
 72 73  1  0
 73 74  1  0
 72 75  1  0
 75 76  2  0
 68 77  1  0
 77 78  2  0
 78 79  1  0
 79 80  2  0
 80 81  1  0
 81 82  1  0
 80 83  1  0
 83 84  2  0
 67 85  1  0
 85 86  1  0
 86 87  1  0
 87 88  2  0
 88 89  1  0
 89 90  1  0
 90 91  2  0
 91 92  1  0
 92 93  2  0
 93 94  1  0
 94 95  1  0
 93 96  1  0
 96 97  2  0
 89 98  1  0
 98 99  2  0
 99100  1  0
100101  2  0
101102  1  0
102103  1  0
101104  1  0
104105  2  0
 88106  1  0
106107  1  0
 87108  1  0
108109  2  0
109110  1  0
110111  1  0
111112  2  0
112113  1  0
113114  2  0
114115  1  0
114116  1  0
116117  2  0
117118  1  0
112119  1  0
110120  2  0
120121  1  0
120122  1  0
122123  2  3
123124  1  0
124125  2  0
124126  1  0
126127  2  0
127128  1  0
127129  1  0
129130  2  0
130131  1  0
131132  2  0
132133  1  0
133134  2  3
134135  1  0
135136  3  0
134137  1  0
137138  3  0
 11  2  1  0
 23 17  1  0
 65 24  1  0
107 66  1  0
121108  1  0
133123  1  0
 10  5  1  0
 22 18  1  0
 34 27  1  0
 42 35  1  0
 64 43  2  0
 76 69  1  0
 84 77  1  0
106 85  2  0
117111  1  0
132126  1  0
 23  7  1  0
 55 48  1  0
 63 56  1  0
 97 90  1  0
105 98  1  0
  1139  1  0
  6140  1  0
  9141  1  0
 17142  1  0
 18143  1  0
 19144  1  0
 20145  1  0
 21146  1  0
 22147  1  0
 22148  1  0
 23149  1  0
 28150  1  0
 29151  1  0
 32152  1  0
 32153  1  0
 32154  1  0
 33155  1  0
 34156  1  0
 36157  1  0
 37158  1  0
 40159  1  0
 40160  1  0
 40161  1  0
 41162  1  0
 42163  1  0
 49164  1  0
 50165  1  0
 53166  1  0
 53167  1  0
 53168  1  0
 54169  1  0
 55170  1  0
 57171  1  0
 58172  1  0
 61173  1  0
 61174  1  0
 61175  1  0
 62176  1  0
 63177  1  0
 70178  1  0
 71179  1  0
 74180  1  0
 74181  1  0
 74182  1  0
 75183  1  0
 76184  1  0
 78185  1  0
 79186  1  0
 82187  1  0
 82188  1  0
 82189  1  0
 83190  1  0
 84191  1  0
 91192  1  0
 92193  1  0
 95194  1  0
 95195  1  0
 95196  1  0
 96197  1  0
 97198  1  0
 99199  1  0
100200  1  0
103201  1  0
103202  1  0
103203  1  0
104204  1  0
105205  1  0
109206  1  0
113207  1  0
115208  1  0
115209  1  0
115210  1  0
116211  1  0
118212  1  0
118213  1  0
118214  1  0
119215  1  0
119216  1  0
119217  1  0
122218  1  0
128219  1  0
129220  1  0
130221  1  0
131222  1  0
M  END

