
     RDKit          3D

133145  0  0  0  0  0  0  0  0999 V2000
   -3.0466   -3.7529    1.6266 C   0  0  0  0  0  0  0  0  0  0  0  0
   -3.5416   -4.7135    0.8203 C   0  0  0  0  0  0  0  0  0  0  0  0
   -2.9336   -5.1390   -0.4435 C   0  0  0  0  0  0  0  0  0  0  0  0
   -1.7574   -4.9021   -0.8275 O   0  0  0  0  0  0  0  0  0  0  0  0
   -3.9101   -5.8977   -1.1905 C   0  0  0  0  0  0  0  0  0  0  0  0
   -3.7390   -6.4801   -2.4697 C   0  0  0  0  0  0  0  0  0  0  0  0
   -4.8539   -7.1571   -2.9322 C   0  0  0  0  0  0  0  0  0  0  0  0
   -6.0706   -7.2551   -2.1867 C   0  0  0  0  0  0  0  0  0  0  0  0
   -6.2456   -6.6927   -0.9357 C   0  0  0  0  0  0  0  0  0  0  0  0
   -5.1067   -5.9997   -0.4299 C   0  0  0  0  0  0  0  0  0  0  0  0
   -4.9011   -5.3357    0.8929 C   0  0  0  0  0  0  0  0  0  0  0  0
   -5.7092   -5.4124    1.9836 C   0  0  0  0  0  0  0  0  0  0  0  0
   -7.0330   -5.9702    1.9414 C   0  0  0  0  0  0  0  0  0  0  0  0
   -8.1015   -6.4152    1.9302 N   0  0  0  0  0  0  0  0  0  0  0  0
   -5.2797   -5.0188    3.3008 C   0  0  0  0  0  0  0  0  0  0  0  0
   -4.9453   -4.7134    4.3665 N   0  0  0  0  0  0  0  0  0  0  0  0
   -6.6904   -8.0869   -3.2699 C   0  0  0  0  0  0  0  0  0  0  0  0
   -6.8444   -9.6168   -3.0095 C   0  0  0  0  0  0  0  0  0  0  0  0
   -5.7428  -10.0989   -2.0918 C   0  0  0  0  0  0  0  0  0  0  0  0
   -4.6075  -10.0122   -2.7851 C   0  0  0  0  0  0  0  0  0  0  0  0
   -4.9744   -9.4754   -4.1513 C   0  0  0  0  0  0  0  0  0  0  0  0
   -6.3171  -10.1606   -4.3237 C   0  0  0  0  0  0  0  0  0  0  0  0
   -5.4429   -7.9915   -4.0332 C   0  0  0  0  0  0  0  0  0  0  0  0
   -1.7992   -3.0200    1.3495 C   0  0  0  0  0  0  0  0  0  0  0  0
   -1.8571   -1.8543    0.5725 C   0  0  0  0  0  0  0  0  0  0  0  0
   -3.0267   -1.4720   -0.0061 F   0  0  0  0  0  0  0  0  0  0  0  0
   -0.7276   -1.0424    0.4338 C   0  0  0  0  0  0  0  0  0  0  0  0
   -0.8248    0.1183   -0.2670 F   0  0  0  0  0  0  0  0  0  0  0  0
    0.4742   -1.3812    1.0783 C   0  0  0  0  0  0  0  0  0  0  0  0
    0.5521   -2.5734    1.8131 C   0  0  0  0  0  0  0  0  0  0  0  0
    1.7134   -2.9430    2.4135 N   0  0  0  0  0  0  0  0  0  0  0  0
    1.8170   -4.0822    3.1475 C   0  0  0  0  0  0  0  0  0  0  0  0
    3.1505   -4.3922    3.7749 C   0  0  0  0  0  0  0  0  0  0  0  0
    3.3053   -3.6501    5.0988 C   0  0  0  0  0  0  0  0  0  0  0  0
    0.6642   -4.8870    3.3251 C   0  0  0  0  0  0  0  0  0  0  0  0
   -0.4945   -4.5185    2.7096 N   0  0  0  0  0  0  0  0  0  0  0  0
   -0.5853   -3.3920    1.9544 C   0  0  0  0  0  0  0  0  0  0  0  0
    0.6707   -6.1613    4.1296 C   0  0  0  0  0  0  0  0  0  0  0  0
    1.0395   -7.3604    3.2584 C   0  0  0  0  0  0  0  0  0  0  0  0
    1.5661   -0.3879    1.1201 C   0  0  0  0  0  0  0  0  0  0  0  0
    1.6055    0.5224    2.1862 C   0  0  0  0  0  0  0  0  0  0  0  0
    0.7565    0.3849    3.2385 F   0  0  0  0  0  0  0  0  0  0  0  0
    2.4294    1.6483    2.1191 C   0  0  0  0  0  0  0  0  0  0  0  0
    2.3356    2.5862    3.0947 F   0  0  0  0  0  0  0  0  0  0  0  0
    3.2432    1.8706    0.9967 C   0  0  0  0  0  0  0  0  0  0  0  0
    3.2972    0.8957   -0.0165 C   0  0  0  0  0  0  0  0  0  0  0  0
    4.1172    1.0491   -1.0899 N   0  0  0  0  0  0  0  0  0  0  0  0
    4.1615    0.1400   -2.1019 C   0  0  0  0  0  0  0  0  0  0  0  0
    5.1084    0.4143   -3.2431 C   0  0  0  0  0  0  0  0  0  0  0  0
    4.3935    1.1273   -4.3843 C   0  0  0  0  0  0  0  0  0  0  0  0
    3.2871   -0.9782   -2.0584 C   0  0  0  0  0  0  0  0  0  0  0  0
    2.4533   -1.1092   -0.9917 N   0  0  0  0  0  0  0  0  0  0  0  0
    2.4458   -0.2240    0.0380 C   0  0  0  0  0  0  0  0  0  0  0  0
    3.1825   -2.0034   -3.1639 C   0  0  0  0  0  0  0  0  0  0  0  0
    3.3154   -3.4251   -2.6136 C   0  0  0  0  0  0  0  0  0  0  0  0
    3.7416    3.2414    0.7629 C   0  0  0  0  0  0  0  0  0  0  0  0
    4.6941    3.8085    1.6240 C   0  0  0  0  0  0  0  0  0  0  0  0
    5.3885    3.0211    2.4850 F   0  0  0  0  0  0  0  0  0  0  0  0
    4.8592    5.1992    1.6757 C   0  0  0  0  0  0  0  0  0  0  0  0
    5.7092    5.7382    2.5883 F   0  0  0  0  0  0  0  0  0  0  0  0
    4.0674    6.0344    0.8704 C   0  0  0  0  0  0  0  0  0  0  0  0
    3.1978    5.4647   -0.0732 C   0  0  0  0  0  0  0  0  0  0  0  0
    2.4130    6.2505   -0.8612 N   0  0  0  0  0  0  0  0  0  0  0  0
    1.4806    5.7370   -1.7082 C   0  0  0  0  0  0  0  0  0  0  0  0
    0.6498    6.7080   -2.5053 C   0  0  0  0  0  0  0  0  0  0  0  0
    1.1522    6.8268   -3.9432 C   0  0  0  0  0  0  0  0  0  0  0  0
    1.3283    4.3289   -1.7757 C   0  0  0  0  0  0  0  0  0  0  0  0
    2.1040    3.5534   -0.9706 N   0  0  0  0  0  0  0  0  0  0  0  0
    3.0340    4.0731   -0.1263 C   0  0  0  0  0  0  0  0  0  0  0  0
    0.3362    3.6319   -2.6731 C   0  0  0  0  0  0  0  0  0  0  0  0
    1.0503    2.8008   -3.7348 C   0  0  0  0  0  0  0  0  0  0  0  0
    3.9671    7.4728    1.1760 C   0  0  0  0  0  0  0  0  0  0  0  0
    2.8949    7.9696    1.8317 C   0  0  0  0  0  0  0  0  0  0  0  0
    1.7654    7.1693    2.3240 C   0  0  0  0  0  0  0  0  0  0  0  0
    1.7892    5.9384    2.5904 O   0  0  0  0  0  0  0  0  0  0  0  0
    0.6167    8.0373    2.4735 C   0  0  0  0  0  0  0  0  0  0  0  0
   -0.7085    7.6952    2.7688 C   0  0  0  0  0  0  0  0  0  0  0  0
   -1.1879    6.0389    3.1074 Cl  0  0  0  0  0  0  0  0  0  0  0  0
   -1.6738    8.7118    2.7658 C   0  0  0  0  0  0  0  0  0  0  0  0
   -1.3113   10.0310    2.4520 C   0  0  0  0  0  0  0  0  0  0  0  0
    0.0208   10.3522    2.1458 C   0  0  0  0  0  0  0  0  0  0  0  0
    0.9925    9.3408    2.1862 C   0  0  0  0  0  0  0  0  0  0  0  0
    2.4567    9.3928    1.8962 C   0  0  0  0  0  0  0  0  0  0  0  0
    3.2566   10.4886    1.9116 C   0  0  0  0  0  0  0  0  0  0  0  0
    4.6940   10.3856    1.8879 C   0  0  0  0  0  0  0  0  0  0  0  0
    5.8493   10.3106    1.8740 N   0  0  0  0  0  0  0  0  0  0  0  0
    2.7427   11.8197    2.0977 C   0  0  0  0  0  0  0  0  0  0  0  0
    2.3432   12.8958    2.2469 N   0  0  0  0  0  0  0  0  0  0  0  0
   -3.6113   -3.3869    2.4653 H   0  0  0  0  0  0  0  0  0  0  0  0
   -2.8193   -6.4224   -3.0343 H   0  0  0  0  0  0  0  0  0  0  0  0
   -7.1837   -6.8028   -0.4297 H   0  0  0  0  0  0  0  0  0  0  0  0
   -7.5574   -7.6049   -3.7701 H   0  0  0  0  0  0  0  0  0  0  0  0
   -7.8672   -9.9495   -2.7328 H   0  0  0  0  0  0  0  0  0  0  0  0
   -5.8469  -10.5088   -1.0921 H   0  0  0  0  0  0  0  0  0  0  0  0
   -3.6328  -10.3501   -2.4515 H   0  0  0  0  0  0  0  0  0  0  0  0
   -4.2334   -9.6795   -4.9534 H   0  0  0  0  0  0  0  0  0  0  0  0
   -6.2483  -11.2756   -4.3428 H   0  0  0  0  0  0  0  0  0  0  0  0
   -6.8919   -9.8068   -5.2148 H   0  0  0  0  0  0  0  0  0  0  0  0
   -5.5508   -7.4554   -5.0020 H   0  0  0  0  0  0  0  0  0  0  0  0
    3.9606   -4.0652    3.0877 H   0  0  0  0  0  0  0  0  0  0  0  0
    3.2922   -5.4785    3.9336 H   0  0  0  0  0  0  0  0  0  0  0  0
    4.2682   -3.9356    5.5750 H   0  0  0  0  0  0  0  0  0  0  0  0
    3.3002   -2.5533    4.9255 H   0  0  0  0  0  0  0  0  0  0  0  0
    2.4727   -3.9086    5.7909 H   0  0  0  0  0  0  0  0  0  0  0  0
    1.3661   -6.0886    4.9923 H   0  0  0  0  0  0  0  0  0  0  0  0
   -0.3431   -6.3281    4.5574 H   0  0  0  0  0  0  0  0  0  0  0  0
    1.1700   -8.2575    3.8974 H   0  0  0  0  0  0  0  0  0  0  0  0
    1.9905   -7.1765    2.7155 H   0  0  0  0  0  0  0  0  0  0  0  0
    0.2344   -7.5621    2.5208 H   0  0  0  0  0  0  0  0  0  0  0  0
    5.9354    1.0667   -2.8852 H   0  0  0  0  0  0  0  0  0  0  0  0
    5.5926   -0.5141   -3.5978 H   0  0  0  0  0  0  0  0  0  0  0  0
    5.0445    1.1358   -5.2817 H   0  0  0  0  0  0  0  0  0  0  0  0
    3.4420    0.6172   -4.6419 H   0  0  0  0  0  0  0  0  0  0  0  0
    4.1739    2.1784   -4.0946 H   0  0  0  0  0  0  0  0  0  0  0  0
    3.9531   -1.8717   -3.9500 H   0  0  0  0  0  0  0  0  0  0  0  0
    2.1892   -1.8973   -3.6551 H   0  0  0  0  0  0  0  0  0  0  0  0
    4.2587   -3.5296   -2.0343 H   0  0  0  0  0  0  0  0  0  0  0  0
    3.3294   -4.1468   -3.4564 H   0  0  0  0  0  0  0  0  0  0  0  0
    2.4489   -3.6686   -1.9592 H   0  0  0  0  0  0  0  0  0  0  0  0
    0.7071    7.7145   -2.0340 H   0  0  0  0  0  0  0  0  0  0  0  0
   -0.4247    6.4248   -2.4906 H   0  0  0  0  0  0  0  0  0  0  0  0
    0.5500    7.5882   -4.4817 H   0  0  0  0  0  0  0  0  0  0  0  0
    1.0491    5.8580   -4.4783 H   0  0  0  0  0  0  0  0  0  0  0  0
    2.2178    7.1425   -3.9570 H   0  0  0  0  0  0  0  0  0  0  0  0
   -0.2824    2.9518   -2.0482 H   0  0  0  0  0  0  0  0  0  0  0  0
   -0.3646    4.3286   -3.1764 H   0  0  0  0  0  0  0  0  0  0  0  0
    0.3025    2.3683   -4.4316 H   0  0  0  0  0  0  0  0  0  0  0  0
    1.6097    1.9640   -3.2583 H   0  0  0  0  0  0  0  0  0  0  0  0
    1.7584    3.4299   -4.3160 H   0  0  0  0  0  0  0  0  0  0  0  0
    4.6864    8.1248    0.7055 H   0  0  0  0  0  0  0  0  0  0  0  0
   -2.7072    8.4761    2.9833 H   0  0  0  0  0  0  0  0  0  0  0  0
   -2.0674   10.8022    2.4260 H   0  0  0  0  0  0  0  0  0  0  0  0
    0.2537   11.3634    1.8508 H   0  0  0  0  0  0  0  0  0  0  0  0
  1  2  2  3
  2  3  1  0
  3  4  2  0
  3  5  1  0
  5  6  2  0
  6  7  1  0
  7  8  2  0
  8  9  1  0
  9 10  2  0
 10 11  1  0
 11 12  2  3
 12 13  1  0
 13 14  3  0
 12 15  1  0
 15 16  3  0
  8 17  1  0
 17 18  1  0
 18 19  1  0
 19 20  2  0
 20 21  1  0
 21 22  1  0
 21 23  1  0
  1 24  1  0
 24 25  2  0
 25 26  1  0
 25 27  1  0
 27 28  1  0
 27 29  2  0
 29 30  1  0
 30 31  2  0
 31 32  1  0
 32 33  1  0
 33 34  1  0
 32 35  2  0
 35 36  1  0
 36 37  2  0
 35 38  1  0
 38 39  1  0
 29 40  1  0
 40 41  2  0
 41 42  1  0
 41 43  1  0
 43 44  1  0
 43 45  2  0
 45 46  1  0
 46 47  2  0
 47 48  1  0
 48 49  1  0
 49 50  1  0
 48 51  2  0
 51 52  1  0
 52 53  2  0
 51 54  1  0
 54 55  1  0
 45 56  1  0
 56 57  2  0
 57 58  1  0
 57 59  1  0
 59 60  1  0
 59 61  2  0
 61 62  1  0
 62 63  2  0
 63 64  1  0
 64 65  1  0
 65 66  1  0
 64 67  2  0
 67 68  1  0
 68 69  2  0
 67 70  1  0
 70 71  1  0
 61 72  1  0
 72 73  2  3
 73 74  1  0
 74 75  2  0
 74 76  1  0
 76 77  2  0
 77 78  1  0
 77 79  1  0
 79 80  2  0
 80 81  1  0
 81 82  2  0
 82 83  1  0
 83 84  2  3
 84 85  1  0
 85 86  3  0
 84 87  1  0
 87 88  3  0
 11  2  1  0
 23 17  1  0
 37 24  1  0
 53 40  1  0
 69 56  1  0
 83 73  1  0
 10  5  1  0
 22 18  1  0
 37 30  1  0
 53 46  1  0
 69 62  1  0
 82 76  1  0
 23  7  1  0
  1 89  1  0
  6 90  1  0
  9 91  1  0
 17 92  1  0
 18 93  1  0
 19 94  1  0
 20 95  1  0
 21 96  1  0
 22 97  1  0
 22 98  1  0
 23 99  1  0
 33100  1  0
 33101  1  0
 34102  1  0
 34103  1  0
 34104  1  0
 38105  1  0
 38106  1  0
 39107  1  0
 39108  1  0
 39109  1  0
 49110  1  0
 49111  1  0
 50112  1  0
 50113  1  0
 50114  1  0
 54115  1  0
 54116  1  0
 55117  1  0
 55118  1  0
 55119  1  0
 65120  1  0
 65121  1  0
 66122  1  0
 66123  1  0
 66124  1  0
 70125  1  0
 70126  1  0
 71127  1  0
 71128  1  0
 71129  1  0
 72130  1  0
 79131  1  0
 80132  1  0
 81133  1  0
M  END

