
     RDKit          3D

160177  0  0  0  0  0  0  0  0999 V2000
   -0.5305    0.6134    6.0111 C   0  0  0  0  0  0  0  0  0  0  0  0
    0.6054   -0.0931    6.1906 C   0  0  0  0  0  0  0  0  0  0  0  0
    1.1531   -0.3781    7.5173 C   0  0  0  0  0  0  0  0  0  0  0  0
    0.5070   -0.3695    8.5988 O   0  0  0  0  0  0  0  0  0  0  0  0
    2.5931   -0.5275    7.3965 C   0  0  0  0  0  0  0  0  0  0  0  0
    3.5410   -0.6207    8.4419 C   0  0  0  0  0  0  0  0  0  0  0  0
    4.8564   -0.6220    8.0098 C   0  0  0  0  0  0  0  0  0  0  0  0
    5.2223   -0.5301    6.6268 C   0  0  0  0  0  0  0  0  0  0  0  0
    4.3030   -0.4138    5.5992 C   0  0  0  0  0  0  0  0  0  0  0  0
    2.9461   -0.4380    6.0226 C   0  0  0  0  0  0  0  0  0  0  0  0
    1.7088   -0.3218    5.2127 C   0  0  0  0  0  0  0  0  0  0  0  0
    1.5610   -0.7329    3.9269 C   0  0  0  0  0  0  0  0  0  0  0  0
    2.6783   -1.0877    3.0937 C   0  0  0  0  0  0  0  0  0  0  0  0
    3.5686   -1.3789    2.4147 N   0  0  0  0  0  0  0  0  0  0  0  0
    0.2722   -1.0620    3.3799 C   0  0  0  0  0  0  0  0  0  0  0  0
   -0.7555   -1.3428    2.9319 N   0  0  0  0  0  0  0  0  0  0  0  0
    6.6745   -0.6075    6.9880 C   0  0  0  0  0  0  0  0  0  0  0  0
    7.5186    0.6968    6.8988 C   0  0  0  0  0  0  0  0  0  0  0  0
    6.6501    1.9008    7.1818 C   0  0  0  0  0  0  0  0  0  0  0  0
    6.3261    1.8372    8.4734 C   0  0  0  0  0  0  0  0  0  0  0  0
    6.9698    0.5848    9.0227 C   0  0  0  0  0  0  0  0  0  0  0  0
    8.2571    0.6194    8.2224 C   0  0  0  0  0  0  0  0  0  0  0  0
    6.3046   -0.6847    8.4046 C   0  0  0  0  0  0  0  0  0  0  0  0
   -0.7753    1.4525    4.8257 C   0  0  0  0  0  0  0  0  0  0  0  0
    0.1683    2.2986    4.1960 C   0  0  0  0  0  0  0  0  0  0  0  0
    1.3545    2.8355    4.8336 N   0  0  0  0  0  0  0  0  0  0  0  0
    2.3345    3.5360    4.0526 C   0  0  0  0  0  0  0  0  0  0  0  0
    2.2526    4.9306    3.9313 C   0  0  0  0  0  0  0  0  0  0  0  0
    3.1898    5.6244    3.1637 C   0  0  0  0  0  0  0  0  0  0  0  0
    4.2219    4.9292    2.5203 C   0  0  0  0  0  0  0  0  0  0  0  0
    5.4191    5.8285    1.5335 S   0  0  0  0  0  0  0  0  0  0  0  0
    6.5417    6.1036    2.9402 C   0  0  0  0  0  0  0  0  0  0  0  0
    4.3091    3.5338    2.6436 C   0  0  0  0  0  0  0  0  0  0  0  0
    3.3677    2.8394    3.4118 C   0  0  0  0  0  0  0  0  0  0  0  0
    1.4163    3.0244    6.2633 C   0  0  0  0  0  0  0  0  0  0  0  0
    2.6158    2.7808    6.9534 C   0  0  0  0  0  0  0  0  0  0  0  0
    2.6717    2.9160    8.3422 C   0  0  0  0  0  0  0  0  0  0  0  0
    1.5411    3.3160    9.0581 C   0  0  0  0  0  0  0  0  0  0  0  0
    1.6320    3.4923   10.8400 S   0  0  0  0  0  0  0  0  0  0  0  0
    1.3099    1.7266   11.1551 C   0  0  0  0  0  0  0  0  0  0  0  0
    0.3523    3.6022    8.3780 C   0  0  0  0  0  0  0  0  0  0  0  0
    0.2939    3.4729    6.9876 C   0  0  0  0  0  0  0  0  0  0  0  0
   -0.2728    2.6304    2.9080 C   0  0  0  0  0  0  0  0  0  0  0  0
    0.4872    3.1536    1.5023 S   0  0  0  0  0  0  0  0  0  0  0  0
   -0.8465    2.8820    0.4781 C   0  0  0  0  0  0  0  0  0  0  0  0
   -1.8938    2.3646    1.2622 C   0  0  0  0  0  0  0  0  0  0  0  0
   -3.1836    1.9976    0.7494 N   0  0  0  0  0  0  0  0  0  0  0  0
   -3.5687    0.6100    0.6875 C   0  0  0  0  0  0  0  0  0  0  0  0
   -2.6276   -0.3789    0.3397 C   0  0  0  0  0  0  0  0  0  0  0  0
   -2.9834   -1.7287    0.3457 C   0  0  0  0  0  0  0  0  0  0  0  0
   -4.2807   -2.1104    0.7008 C   0  0  0  0  0  0  0  0  0  0  0  0
   -4.7202   -3.8474    0.7720 S   0  0  0  0  0  0  0  0  0  0  0  0
   -4.2977   -4.0062    2.5375 C   0  0  0  0  0  0  0  0  0  0  0  0
   -5.2314   -1.1343    1.0225 C   0  0  0  0  0  0  0  0  0  0  0  0
   -4.8786    0.2166    1.0196 C   0  0  0  0  0  0  0  0  0  0  0  0
   -4.1024    3.0540    0.4012 C   0  0  0  0  0  0  0  0  0  0  0  0
   -4.9329    2.9374   -0.7291 C   0  0  0  0  0  0  0  0  0  0  0  0
   -5.7357    4.0096   -1.1280 C   0  0  0  0  0  0  0  0  0  0  0  0
   -5.7267    5.2048   -0.3987 C   0  0  0  0  0  0  0  0  0  0  0  0
   -6.7029    6.6074   -0.9457 S   0  0  0  0  0  0  0  0  0  0  0  0
   -5.3464    7.3191   -1.9314 C   0  0  0  0  0  0  0  0  0  0  0  0
   -4.9361    5.3148    0.7495 C   0  0  0  0  0  0  0  0  0  0  0  0
   -4.1243    4.2493    1.1440 C   0  0  0  0  0  0  0  0  0  0  0  0
   -1.5232    2.2054    2.5961 C   0  0  0  0  0  0  0  0  0  0  0  0
   -2.1734    1.3173    3.8617 S   0  0  0  0  0  0  0  0  0  0  0  0
   -0.6932    2.5455   -0.9463 C   0  0  0  0  0  0  0  0  0  0  0  0
   -1.6591    2.9012   -1.8965 C   0  0  0  0  0  0  0  0  0  0  0  0
   -1.7118    2.2261   -3.0754 N   0  0  0  0  0  0  0  0  0  0  0  0
   -0.8072    1.2544   -3.3838 C   0  0  0  0  0  0  0  0  0  0  0  0
    0.2455    1.0078   -2.4899 C   0  0  0  0  0  0  0  0  0  0  0  0
    0.2566    1.6348   -1.2874 N   0  0  0  0  0  0  0  0  0  0  0  0
   -1.0703    0.3470   -4.5177 C   0  0  0  0  0  0  0  0  0  0  0  0
   -2.1631    0.4325   -5.3741 C   0  0  0  0  0  0  0  0  0  0  0  0
   -2.4000   -0.7467   -6.1007 C   0  0  0  0  0  0  0  0  0  0  0  0
   -3.8657   -0.9625   -7.1241 S   0  0  0  0  0  0  0  0  0  0  0  0
   -3.3013    0.1154   -8.4901 C   0  0  0  0  0  0  0  0  0  0  0  0
   -2.1270   -0.4855   -9.2496 C   0  0  0  0  0  0  0  0  0  0  0  0
   -1.4971   -1.7771   -5.8308 C   0  0  0  0  0  0  0  0  0  0  0  0
   -0.4369   -1.2073   -4.6595 S   0  0  0  0  0  0  0  0  0  0  0  0
   -1.8421   -3.2020   -5.9026 C   0  0  0  0  0  0  0  0  0  0  0  0
   -1.3707   -4.0546   -6.8237 C   0  0  0  0  0  0  0  0  0  0  0  0
   -0.6482   -3.6848   -8.0423 C   0  0  0  0  0  0  0  0  0  0  0  0
    0.0157   -2.6298   -8.2281 O   0  0  0  0  0  0  0  0  0  0  0  0
   -0.8311   -4.7467   -9.0141 C   0  0  0  0  0  0  0  0  0  0  0  0
   -0.5101   -4.7156  -10.3923 C   0  0  0  0  0  0  0  0  0  0  0  0
   -0.9806   -5.8078  -11.1033 C   0  0  0  0  0  0  0  0  0  0  0  0
   -1.7284   -6.8701  -10.4988 C   0  0  0  0  0  0  0  0  0  0  0  0
   -2.0367   -6.9163   -9.1493 C   0  0  0  0  0  0  0  0  0  0  0  0
   -1.5474   -5.8108   -8.4022 C   0  0  0  0  0  0  0  0  0  0  0  0
   -1.7807   -5.4781   -6.9756 C   0  0  0  0  0  0  0  0  0  0  0  0
   -2.0452   -6.3505   -5.9711 C   0  0  0  0  0  0  0  0  0  0  0  0
   -2.0040   -5.9593   -4.5857 C   0  0  0  0  0  0  0  0  0  0  0  0
   -1.9666   -5.6545   -3.4684 N   0  0  0  0  0  0  0  0  0  0  0  0
   -2.2228   -7.7605   -6.2006 C   0  0  0  0  0  0  0  0  0  0  0  0
   -2.3628   -8.8972   -6.3719 N   0  0  0  0  0  0  0  0  0  0  0  0
   -1.9273   -7.5171  -11.8363 C   0  0  0  0  0  0  0  0  0  0  0  0
   -3.3391   -7.3637  -12.4713 C   0  0  0  0  0  0  0  0  0  0  0  0
   -3.1781   -7.7368  -13.9237 C   0  0  0  0  0  0  0  0  0  0  0  0
   -2.4649   -6.7579  -14.4945 C   0  0  0  0  0  0  0  0  0  0  0  0
   -2.1759   -5.7531  -13.4051 C   0  0  0  0  0  0  0  0  0  0  0  0
   -3.4826   -5.8603  -12.6356 C   0  0  0  0  0  0  0  0  0  0  0  0
   -1.1497   -6.4381  -12.4550 C   0  0  0  0  0  0  0  0  0  0  0  0
   -1.2377    0.6987    6.8306 H   0  0  0  0  0  0  0  0  0  0  0  0
    3.2666   -0.6661    9.4879 H   0  0  0  0  0  0  0  0  0  0  0  0
    4.6219   -0.2843    4.5793 H   0  0  0  0  0  0  0  0  0  0  0  0
    7.1841   -1.5213    6.6089 H   0  0  0  0  0  0  0  0  0  0  0  0
    8.1616    0.7862    5.9975 H   0  0  0  0  0  0  0  0  0  0  0  0
    6.4409    2.7305    6.5135 H   0  0  0  0  0  0  0  0  0  0  0  0
    5.8482    2.6257    9.0407 H   0  0  0  0  0  0  0  0  0  0  0  0
    7.0906    0.5670   10.1266 H   0  0  0  0  0  0  0  0  0  0  0  0
    8.8897    1.5168    8.4332 H   0  0  0  0  0  0  0  0  0  0  0  0
    8.8761   -0.3025    8.3355 H   0  0  0  0  0  0  0  0  0  0  0  0
    6.5926   -1.6442    8.8903 H   0  0  0  0  0  0  0  0  0  0  0  0
    1.4496    5.4738    4.4137 H   0  0  0  0  0  0  0  0  0  0  0  0
    3.1175    6.6998    3.0690 H   0  0  0  0  0  0  0  0  0  0  0  0
    7.3762    6.7609    2.6218 H   0  0  0  0  0  0  0  0  0  0  0  0
    5.9985    6.5927    3.7747 H   0  0  0  0  0  0  0  0  0  0  0  0
    6.9558    5.1303    3.2784 H   0  0  0  0  0  0  0  0  0  0  0  0
    5.0993    2.9880    2.1475 H   0  0  0  0  0  0  0  0  0  0  0  0
    3.4389    1.7636    3.5081 H   0  0  0  0  0  0  0  0  0  0  0  0
    3.4972    2.4504    6.4180 H   0  0  0  0  0  0  0  0  0  0  0  0
    3.5846    2.6872    8.8659 H   0  0  0  0  0  0  0  0  0  0  0  0
    0.3121    1.4424   10.7626 H   0  0  0  0  0  0  0  0  0  0  0  0
    2.0920    1.1032   10.6714 H   0  0  0  0  0  0  0  0  0  0  0  0
    1.3310    1.5433   12.2486 H   0  0  0  0  0  0  0  0  0  0  0  0
   -0.5224    3.9269    8.9251 H   0  0  0  0  0  0  0  0  0  0  0  0
   -0.6325    3.7044    6.4764 H   0  0  0  0  0  0  0  0  0  0  0  0
   -1.6171   -0.1024    0.0704 H   0  0  0  0  0  0  0  0  0  0  0  0
   -2.2447   -2.4811    0.0900 H   0  0  0  0  0  0  0  0  0  0  0  0
   -4.7805   -3.1975    3.1242 H   0  0  0  0  0  0  0  0  0  0  0  0
   -3.1964   -3.9546    2.6703 H   0  0  0  0  0  0  0  0  0  0  0  0
   -4.6636   -4.9823    2.9165 H   0  0  0  0  0  0  0  0  0  0  0  0
   -6.2384   -1.4250    1.2983 H   0  0  0  0  0  0  0  0  0  0  0  0
   -5.6174    0.9524    1.3063 H   0  0  0  0  0  0  0  0  0  0  0  0
   -4.9207    2.0350   -1.3244 H   0  0  0  0  0  0  0  0  0  0  0  0
   -6.3470    3.9207   -2.0179 H   0  0  0  0  0  0  0  0  0  0  0  0
   -5.1120    6.6538   -2.7894 H   0  0  0  0  0  0  0  0  0  0  0  0
   -4.4374    7.4522   -1.3063 H   0  0  0  0  0  0  0  0  0  0  0  0
   -5.6628    8.3112   -2.3161 H   0  0  0  0  0  0  0  0  0  0  0  0
   -4.9264    6.2338    1.3226 H   0  0  0  0  0  0  0  0  0  0  0  0
   -3.5042    4.3635    2.0252 H   0  0  0  0  0  0  0  0  0  0  0  0
   -2.4106    3.6452   -1.6763 H   0  0  0  0  0  0  0  0  0  0  0  0
    0.9982    0.2565   -2.6986 H   0  0  0  0  0  0  0  0  0  0  0  0
   -2.8292    1.2851   -5.4075 H   0  0  0  0  0  0  0  0  0  0  0  0
   -3.0234    1.1172   -8.0958 H   0  0  0  0  0  0  0  0  0  0  0  0
   -4.1492    0.2520   -9.1958 H   0  0  0  0  0  0  0  0  0  0  0  0
   -2.3483   -1.5334   -9.5426 H   0  0  0  0  0  0  0  0  0  0  0  0
   -1.2154   -0.4474   -8.6210 H   0  0  0  0  0  0  0  0  0  0  0  0
   -1.9324    0.1110  -10.1658 H   0  0  0  0  0  0  0  0  0  0  0  0
   -2.5618   -3.5442   -5.1740 H   0  0  0  0  0  0  0  0  0  0  0  0
   -0.0042   -3.8845  -10.8638 H   0  0  0  0  0  0  0  0  0  0  0  0
   -2.6673   -7.6919   -8.7474 H   0  0  0  0  0  0  0  0  0  0  0  0
   -1.4645   -8.5238  -11.9163 H   0  0  0  0  0  0  0  0  0  0  0  0
   -4.1710   -7.8721  -11.9397 H   0  0  0  0  0  0  0  0  0  0  0  0
   -3.6359   -8.5745  -14.4391 H   0  0  0  0  0  0  0  0  0  0  0  0
   -2.2404   -6.6705  -15.5520 H   0  0  0  0  0  0  0  0  0  0  0  0
   -1.9024   -4.7364  -13.7562 H   0  0  0  0  0  0  0  0  0  0  0  0
   -4.3754   -5.5635  -13.2359 H   0  0  0  0  0  0  0  0  0  0  0  0
   -3.4982   -5.2959  -11.6776 H   0  0  0  0  0  0  0  0  0  0  0  0
   -0.1919   -6.7581  -12.9208 H   0  0  0  0  0  0  0  0  0  0  0  0
  1  2  2  3
  2  3  1  0
  3  4  2  0
  3  5  1  0
  5  6  2  0
  6  7  1  0
  7  8  2  0
  8  9  1  0
  9 10  2  0
 10 11  1  0
 11 12  2  3
 12 13  1  0
 13 14  3  0
 12 15  1  0
 15 16  3  0
  8 17  1  0
 17 18  1  0
 18 19  1  0
 19 20  2  0
 20 21  1  0
 21 22  1  0
 21 23  1  0
  1 24  1  0
 24 25  2  0
 25 26  1  0
 26 27  1  0
 27 28  2  0
 28 29  1  0
 29 30  2  0
 30 31  1  0
 31 32  1  0
 30 33  1  0
 33 34  2  0
 26 35  1  0
 35 36  2  0
 36 37  1  0
 37 38  2  0
 38 39  1  0
 39 40  1  0
 38 41  1  0
 41 42  2  0
 25 43  1  0
 43 44  1  0
 44 45  1  0
 45 46  2  0
 46 47  1  0
 47 48  1  0
 48 49  2  0
 49 50  1  0
 50 51  2  0
 51 52  1  0
 52 53  1  0
 51 54  1  0
 54 55  2  0
 47 56  1  0
 56 57  2  0
 57 58  1  0
 58 59  2  0
 59 60  1  0
 60 61  1  0
 59 62  1  0
 62 63  2  0
 46 64  1  0
 64 65  1  0
 45 66  1  0
 66 67  2  0
 67 68  1  0
 68 69  2  0
 69 70  1  0
 70 71  2  0
 69 72  1  0
 72 73  2  0
 73 74  1  0
 74 75  1  0
 75 76  1  0
 76 77  1  0
 74 78  2  0
 78 79  1  0
 78 80  1  0
 80 81  2  3
 81 82  1  0
 82 83  2  0
 82 84  1  0
 84 85  2  0
 85 86  1  0
 86 87  2  0
 87 88  1  0
 88 89  2  0
 89 90  1  0
 90 91  2  3
 91 92  1  0
 92 93  3  0
 91 94  1  0
 94 95  3  0
 87 96  1  0
 96 97  1  0
 97 98  1  0
 98 99  2  0
 99100  1  0
100101  1  0
100102  1  0
 11  2  1  0
 23 17  1  0
 65 24  1  0
 71 66  1  0
 79 72  1  0
 90 81  1  0
102 96  1  0
 10  5  1  0
 22 18  1  0
 34 27  1  0
 42 35  1  0
 64 43  2  0
 89 84  1  0
101 97  1  0
 23  7  1  0
 55 48  1  0
 63 56  1  0
102 86  1  0
  1103  1  0
  6104  1  0
  9105  1  0
 17106  1  0
 18107  1  0
 19108  1  0
 20109  1  0
 21110  1  0
 22111  1  0
 22112  1  0
 23113  1  0
 28114  1  0
 29115  1  0
 32116  1  0
 32117  1  0
 32118  1  0
 33119  1  0
 34120  1  0
 36121  1  0
 37122  1  0
 40123  1  0
 40124  1  0
 40125  1  0
 41126  1  0
 42127  1  0
 49128  1  0
 50129  1  0
 53130  1  0
 53131  1  0
 53132  1  0
 54133  1  0
 55134  1  0
 57135  1  0
 58136  1  0
 61137  1  0
 61138  1  0
 61139  1  0
 62140  1  0
 63141  1  0
 67142  1  0
 70143  1  0
 73144  1  0
 76145  1  0
 76146  1  0
 77147  1  0
 77148  1  0
 77149  1  0
 80150  1  0
 85151  1  0
 88152  1  0
 96153  1  0
 97154  1  0
 98155  1  0
 99156  1  0
100157  1  0
101158  1  0
101159  1  0
102160  1  0
M  END

