
     RDKit          3D

180199  0  0  0  0  0  0  0  0999 V2000
    2.3317    2.9831    4.9791 C   0  0  0  0  0  0  0  0  0  0  0  0
    1.2025    2.2534    5.1296 C   0  0  0  0  0  0  0  0  0  0  0  0
    0.4200    1.6780    4.0230 C   0  0  0  0  0  0  0  0  0  0  0  0
    0.7718    1.5847    2.8152 O   0  0  0  0  0  0  0  0  0  0  0  0
   -0.8529    1.2315    4.5316 C   0  0  0  0  0  0  0  0  0  0  0  0
   -1.9029    0.6508    3.7840 C   0  0  0  0  0  0  0  0  0  0  0  0
   -2.9824    0.2630    4.5472 C   0  0  0  0  0  0  0  0  0  0  0  0
   -3.0283    0.4163    5.9701 C   0  0  0  0  0  0  0  0  0  0  0  0
   -2.0126    1.0076    6.7064 C   0  0  0  0  0  0  0  0  0  0  0  0
   -0.8914    1.4369    5.9376 C   0  0  0  0  0  0  0  0  0  0  0  0
    0.4044    2.0445    6.3754 C   0  0  0  0  0  0  0  0  0  0  0  0
    0.8460    2.1958    7.6537 C   0  0  0  0  0  0  0  0  0  0  0  0
    2.2370    2.3887    7.9682 C   0  0  0  0  0  0  0  0  0  0  0  0
    3.3551    2.5337    8.2231 N   0  0  0  0  0  0  0  0  0  0  0  0
   -0.0176    2.0726    8.7966 C   0  0  0  0  0  0  0  0  0  0  0  0
   -0.6947    1.9831    9.7325 N   0  0  0  0  0  0  0  0  0  0  0  0
   -4.3728   -0.2503    6.0135 C   0  0  0  0  0  0  0  0  0  0  0  0
   -4.4419   -1.7321    6.5003 C   0  0  0  0  0  0  0  0  0  0  0  0
   -3.1626   -2.4623    6.1367 C   0  0  0  0  0  0  0  0  0  0  0  0
   -3.1548   -2.5762    4.8093 C   0  0  0  0  0  0  0  0  0  0  0  0
   -4.4188   -1.9121    4.3104 C   0  0  0  0  0  0  0  0  0  0  0  0
   -5.3569   -2.3095    5.4379 C   0  0  0  0  0  0  0  0  0  0  0  0
   -4.3424   -0.3761    4.5518 C   0  0  0  0  0  0  0  0  0  0  0  0
    3.0646    3.0008    3.6998 C   0  0  0  0  0  0  0  0  0  0  0  0
    3.9517    1.9548    3.4304 C   0  0  0  0  0  0  0  0  0  0  0  0
    4.3390    1.1207    4.4318 F   0  0  0  0  0  0  0  0  0  0  0  0
    4.3058    1.6494    2.1174 C   0  0  0  0  0  0  0  0  0  0  0  0
    4.9829    0.4916    1.9192 F   0  0  0  0  0  0  0  0  0  0  0  0
    3.8004    2.4101    1.0391 C   0  0  0  0  0  0  0  0  0  0  0  0
    3.0558    3.5757    1.3305 C   0  0  0  0  0  0  0  0  0  0  0  0
    2.5658    4.3569    0.3318 N   0  0  0  0  0  0  0  0  0  0  0  0
    1.7196    5.3942    0.5619 C   0  0  0  0  0  0  0  0  0  0  0  0
    1.2124    6.1666   -0.6280 C   0  0  0  0  0  0  0  0  0  0  0  0
    2.1725    7.2944   -0.9863 C   0  0  0  0  0  0  0  0  0  0  0  0
    1.3559    5.6907    1.8980 C   0  0  0  0  0  0  0  0  0  0  0  0
    1.8350    4.8983    2.8957 N   0  0  0  0  0  0  0  0  0  0  0  0
    2.6783    3.8625    2.6573 C   0  0  0  0  0  0  0  0  0  0  0  0
    0.3938    6.7878    2.2684 C   0  0  0  0  0  0  0  0  0  0  0  0
   -1.0360    6.2600    2.2911 C   0  0  0  0  0  0  0  0  0  0  0  0
    3.6930    1.7892   -0.3150 C   0  0  0  0  0  0  0  0  0  0  0  0
    4.4630    0.6963   -0.7736 C   0  0  0  0  0  0  0  0  0  0  0  0
    5.8985    0.6216   -0.6122 N   0  0  0  0  0  0  0  0  0  0  0  0
    6.6259   -0.5738   -0.9165 C   0  0  0  0  0  0  0  0  0  0  0  0
    6.8680   -0.9297   -2.2521 C   0  0  0  0  0  0  0  0  0  0  0  0
    7.5952   -2.0878   -2.5483 C   0  0  0  0  0  0  0  0  0  0  0  0
    8.1199   -2.8700   -1.5121 C   0  0  0  0  0  0  0  0  0  0  0  0
    9.0147   -4.3781   -1.8884 S   0  0  0  0  0  0  0  0  0  0  0  0
   10.6044   -3.5319   -2.1797 C   0  0  0  0  0  0  0  0  0  0  0  0
    7.9096   -2.4950   -0.1814 C   0  0  0  0  0  0  0  0  0  0  0  0
    7.1606   -1.3509    0.1170 C   0  0  0  0  0  0  0  0  0  0  0  0
    6.6395    1.8531   -0.6103 C   0  0  0  0  0  0  0  0  0  0  0  0
    6.5580    2.7212   -1.7125 C   0  0  0  0  0  0  0  0  0  0  0  0
    7.2277    3.9468   -1.6942 C   0  0  0  0  0  0  0  0  0  0  0  0
    7.9661    4.3268   -0.5665 C   0  0  0  0  0  0  0  0  0  0  0  0
    8.7472    5.9396   -0.5115 S   0  0  0  0  0  0  0  0  0  0  0  0
    7.2339    6.7656    0.0773 C   0  0  0  0  0  0  0  0  0  0  0  0
    8.0631    3.4562    0.5268 C   0  0  0  0  0  0  0  0  0  0  0  0
    7.4130    2.2150    0.5014 C   0  0  0  0  0  0  0  0  0  0  0  0
    3.7025   -0.1491   -1.5925 C   0  0  0  0  0  0  0  0  0  0  0  0
    3.7109   -1.8199   -1.7817 S   0  0  0  0  0  0  0  0  0  0  0  0
    2.1151   -1.9173   -2.3696 C   0  0  0  0  0  0  0  0  0  0  0  0
    1.5658   -0.6242   -2.4163 C   0  0  0  0  0  0  0  0  0  0  0  0
    0.3592   -0.2984   -3.1418 N   0  0  0  0  0  0  0  0  0  0  0  0
   -0.3491    0.9236   -2.8893 C   0  0  0  0  0  0  0  0  0  0  0  0
    0.0102    2.0989   -3.5698 C   0  0  0  0  0  0  0  0  0  0  0  0
   -0.6585    3.2969   -3.3120 C   0  0  0  0  0  0  0  0  0  0  0  0
   -1.7262    3.3244   -2.4031 C   0  0  0  0  0  0  0  0  0  0  0  0
   -2.5928    4.8599   -2.0840 S   0  0  0  0  0  0  0  0  0  0  0  0
   -3.7639    4.6238   -3.4593 C   0  0  0  0  0  0  0  0  0  0  0  0
   -2.0990    2.1505   -1.7316 C   0  0  0  0  0  0  0  0  0  0  0  0
   -1.4055    0.9546   -1.9672 C   0  0  0  0  0  0  0  0  0  0  0  0
    0.1873   -0.8940   -4.4378 C   0  0  0  0  0  0  0  0  0  0  0  0
    1.2484   -0.8692   -5.3620 C   0  0  0  0  0  0  0  0  0  0  0  0
    1.1239   -1.5118   -6.5914 C   0  0  0  0  0  0  0  0  0  0  0  0
   -0.0513   -2.2101   -6.9019 C   0  0  0  0  0  0  0  0  0  0  0  0
   -0.1567   -3.1168   -8.4460 S   0  0  0  0  0  0  0  0  0  0  0  0
    0.6850   -4.5869   -7.7693 C   0  0  0  0  0  0  0  0  0  0  0  0
   -1.1249   -2.2056   -6.0008 C   0  0  0  0  0  0  0  0  0  0  0  0
   -1.0122   -1.5391   -4.7737 C   0  0  0  0  0  0  0  0  0  0  0  0
    2.4661    0.3174   -1.9252 C   0  0  0  0  0  0  0  0  0  0  0  0
    2.1848    1.7295   -1.0909 S   0  0  0  0  0  0  0  0  0  0  0  0
    1.2885   -3.1346   -2.3005 C   0  0  0  0  0  0  0  0  0  0  0  0
   -0.3077   -3.1557   -1.7358 S   0  0  0  0  0  0  0  0  0  0  0  0
   -0.4990   -4.8265   -1.5201 C   0  0  0  0  0  0  0  0  0  0  0  0
    0.7436   -5.3726   -1.8299 C   0  0  0  0  0  0  0  0  0  0  0  0
    1.2234   -6.6778   -1.7016 C   0  0  0  0  0  0  0  0  0  0  0  0
    2.5759   -6.7567   -2.0474 C   0  0  0  0  0  0  0  0  0  0  0  0
    3.4151   -7.9946   -1.9547 C   0  0  0  0  0  0  0  0  0  0  0  0
    3.9568   -8.1756   -0.5390 C   0  0  0  0  0  0  0  0  0  0  0  0
    3.1759   -5.2233   -2.4711 S   0  0  0  0  0  0  0  0  0  0  0  0
    1.6952   -4.4575   -2.2548 C   0  0  0  0  0  0  0  0  0  0  0  0
   -1.5777   -5.4859   -0.7482 C   0  0  0  0  0  0  0  0  0  0  0  0
   -2.8550   -5.0490   -0.6974 C   0  0  0  0  0  0  0  0  0  0  0  0
   -3.4400   -3.9866   -1.5302 C   0  0  0  0  0  0  0  0  0  0  0  0
   -3.0566   -3.6459   -2.6813 O   0  0  0  0  0  0  0  0  0  0  0  0
   -4.6326   -3.4942   -0.8768 C   0  0  0  0  0  0  0  0  0  0  0  0
   -5.3763   -2.3392   -1.2098 C   0  0  0  0  0  0  0  0  0  0  0  0
   -6.3649   -2.0273   -0.2962 C   0  0  0  0  0  0  0  0  0  0  0  0
   -6.6136   -2.8035    0.8794 C   0  0  0  0  0  0  0  0  0  0  0  0
   -5.8927   -3.9386    1.2078 C   0  0  0  0  0  0  0  0  0  0  0  0
   -4.8874   -4.2914    0.2654 C   0  0  0  0  0  0  0  0  0  0  0  0
   -3.8859   -5.3915    0.3309 C   0  0  0  0  0  0  0  0  0  0  0  0
   -4.0301   -6.5573    1.0042 C   0  0  0  0  0  0  0  0  0  0  0  0
   -3.0727   -7.6262    0.9282 C   0  0  0  0  0  0  0  0  0  0  0  0
   -2.3029   -8.4882    0.8694 N   0  0  0  0  0  0  0  0  0  0  0  0
   -5.2411   -6.8849    1.7065 C   0  0  0  0  0  0  0  0  0  0  0  0
   -6.2163   -7.1637    2.2642 N   0  0  0  0  0  0  0  0  0  0  0  0
   -7.7091   -1.8650    1.2854 C   0  0  0  0  0  0  0  0  0  0  0  0
   -9.1681   -2.3755    1.0809 C   0  0  0  0  0  0  0  0  0  0  0  0
  -10.0543   -1.1569    1.1709 C   0  0  0  0  0  0  0  0  0  0  0  0
   -9.8174   -0.4361    0.0652 C   0  0  0  0  0  0  0  0  0  0  0  0
   -8.7856   -1.1918   -0.7313 C   0  0  0  0  0  0  0  0  0  0  0  0
   -9.2426   -2.6102   -0.4198 C   0  0  0  0  0  0  0  0  0  0  0  0
   -7.4558   -1.0703    0.0770 C   0  0  0  0  0  0  0  0  0  0  0  0
    2.7658    3.5276    5.8010 H   0  0  0  0  0  0  0  0  0  0  0  0
   -1.8593    0.5055    2.7124 H   0  0  0  0  0  0  0  0  0  0  0  0
   -2.1046    1.0938    7.7726 H   0  0  0  0  0  0  0  0  0  0  0  0
   -5.1942    0.4025    6.3907 H   0  0  0  0  0  0  0  0  0  0  0  0
   -4.7783   -1.8703    7.5489 H   0  0  0  0  0  0  0  0  0  0  0  0
   -2.4215   -2.8727    6.8127 H   0  0  0  0  0  0  0  0  0  0  0  0
   -2.4066   -3.0908    4.2118 H   0  0  0  0  0  0  0  0  0  0  0  0
   -4.7392   -2.2120    3.2903 H   0  0  0  0  0  0  0  0  0  0  0  0
   -6.3501   -1.8010    5.3843 H   0  0  0  0  0  0  0  0  0  0  0  0
   -5.5048   -3.4126    5.5226 H   0  0  0  0  0  0  0  0  0  0  0  0
   -5.1266    0.2209    4.0344 H   0  0  0  0  0  0  0  0  0  0  0  0
    1.1228    5.4788   -1.4968 H   0  0  0  0  0  0  0  0  0  0  0  0
    0.1990    6.5789   -0.4467 H   0  0  0  0  0  0  0  0  0  0  0  0
    2.2890    7.9936   -0.1307 H   0  0  0  0  0  0  0  0  0  0  0  0
    1.7751    7.8572   -1.8588 H   0  0  0  0  0  0  0  0  0  0  0  0
    3.1692    6.8800   -1.2538 H   0  0  0  0  0  0  0  0  0  0  0  0
    0.6488    7.1728    3.2776 H   0  0  0  0  0  0  0  0  0  0  0  0
    0.4747    7.6447    1.5665 H   0  0  0  0  0  0  0  0  0  0  0  0
   -1.1562    5.5078    3.1001 H   0  0  0  0  0  0  0  0  0  0  0  0
   -1.7371    7.0993    2.4879 H   0  0  0  0  0  0  0  0  0  0  0  0
   -1.3096    5.7948    1.3191 H   0  0  0  0  0  0  0  0  0  0  0  0
    6.4749   -0.3227   -3.0588 H   0  0  0  0  0  0  0  0  0  0  0  0
    7.7531   -2.3727   -3.5812 H   0  0  0  0  0  0  0  0  0  0  0  0
   10.5160   -2.8331   -3.0397 H   0  0  0  0  0  0  0  0  0  0  0  0
   11.3750   -4.2900   -2.4193 H   0  0  0  0  0  0  0  0  0  0  0  0
   10.9129   -2.9664   -1.2735 H   0  0  0  0  0  0  0  0  0  0  0  0
    8.3123   -3.0959    0.6244 H   0  0  0  0  0  0  0  0  0  0  0  0
    7.0006   -1.0717    1.1504 H   0  0  0  0  0  0  0  0  0  0  0  0
    5.9731    2.4467   -2.5808 H   0  0  0  0  0  0  0  0  0  0  0  0
    7.1576    4.6075   -2.5464 H   0  0  0  0  0  0  0  0  0  0  0  0
    6.4104    6.6333   -0.6581 H   0  0  0  0  0  0  0  0  0  0  0  0
    6.9264    6.3505    1.0629 H   0  0  0  0  0  0  0  0  0  0  0  0
    7.4341    7.8523    0.1916 H   0  0  0  0  0  0  0  0  0  0  0  0
    8.6300    3.7403    1.4035 H   0  0  0  0  0  0  0  0  0  0  0  0
    7.4773    1.5587    1.3587 H   0  0  0  0  0  0  0  0  0  0  0  0
    0.8271    2.0875   -4.2804 H   0  0  0  0  0  0  0  0  0  0  0  0
   -0.3560    4.2023   -3.8250 H   0  0  0  0  0  0  0  0  0  0  0  0
   -3.2166    4.6066   -4.4241 H   0  0  0  0  0  0  0  0  0  0  0  0
   -4.4839    5.4674   -3.4734 H   0  0  0  0  0  0  0  0  0  0  0  0
   -4.3234    3.6768   -3.3281 H   0  0  0  0  0  0  0  0  0  0  0  0
   -2.9135    2.1668   -1.0197 H   0  0  0  0  0  0  0  0  0  0  0  0
   -1.7030    0.0503   -1.4488 H   0  0  0  0  0  0  0  0  0  0  0  0
    2.1736   -0.3586   -5.1230 H   0  0  0  0  0  0  0  0  0  0  0  0
    1.9461   -1.4935   -7.2914 H   0  0  0  0  0  0  0  0  0  0  0  0
    0.0006   -5.1196   -7.0790 H   0  0  0  0  0  0  0  0  0  0  0  0
    0.9623   -5.2617   -8.6020 H   0  0  0  0  0  0  0  0  0  0  0  0
    1.6140   -4.3030   -7.2249 H   0  0  0  0  0  0  0  0  0  0  0  0
   -2.0328   -2.7399   -6.2387 H   0  0  0  0  0  0  0  0  0  0  0  0
   -1.8348   -1.5612   -4.0729 H   0  0  0  0  0  0  0  0  0  0  0  0
    0.6359   -7.5178   -1.3488 H   0  0  0  0  0  0  0  0  0  0  0  0
    2.8127   -8.8850   -2.2310 H   0  0  0  0  0  0  0  0  0  0  0  0
    4.2699   -7.9129   -2.6604 H   0  0  0  0  0  0  0  0  0  0  0  0
    4.5141   -7.2674   -0.2174 H   0  0  0  0  0  0  0  0  0  0  0  0
    3.1233   -8.3614    0.1723 H   0  0  0  0  0  0  0  0  0  0  0  0
    4.6487   -9.0446   -0.5084 H   0  0  0  0  0  0  0  0  0  0  0  0
   -1.2435   -6.2640   -0.0761 H   0  0  0  0  0  0  0  0  0  0  0  0
   -5.1614   -1.7259   -2.0796 H   0  0  0  0  0  0  0  0  0  0  0  0
   -6.0430   -4.4454    2.1480 H   0  0  0  0  0  0  0  0  0  0  0  0
   -7.5112   -1.3260    2.2420 H   0  0  0  0  0  0  0  0  0  0  0  0
   -9.4719   -3.2343    1.7204 H   0  0  0  0  0  0  0  0  0  0  0  0
  -10.7876   -0.9324    1.9365 H   0  0  0  0  0  0  0  0  0  0  0  0
  -10.3266    0.4749   -0.2180 H   0  0  0  0  0  0  0  0  0  0  0  0
   -8.7219   -0.9245   -1.8080 H   0  0  0  0  0  0  0  0  0  0  0  0
  -10.2786   -2.8282   -0.7812 H   0  0  0  0  0  0  0  0  0  0  0  0
   -8.5577   -3.4058   -0.7941 H   0  0  0  0  0  0  0  0  0  0  0  0
   -7.0972   -0.0351    0.2690 H   0  0  0  0  0  0  0  0  0  0  0  0
  1  2  2  3
  2  3  1  0
  3  4  2  0
  3  5  1  0
  5  6  2  0
  6  7  1  0
  7  8  2  0
  8  9  1  0
  9 10  2  0
 10 11  1  0
 11 12  2  3
 12 13  1  0
 13 14  3  0
 12 15  1  0
 15 16  3  0
  8 17  1  0
 17 18  1  0
 18 19  1  0
 19 20  2  0
 20 21  1  0
 21 22  1  0
 21 23  1  0
  1 24  1  0
 24 25  2  0
 25 26  1  0
 25 27  1  0
 27 28  1  0
 27 29  2  0
 29 30  1  0
 30 31  2  0
 31 32  1  0
 32 33  1  0
 33 34  1  0
 32 35  2  0
 35 36  1  0
 36 37  2  0
 35 38  1  0
 38 39  1  0
 29 40  1  0
 40 41  2  0
 41 42  1  0
 42 43  1  0
 43 44  2  0
 44 45  1  0
 45 46  2  0
 46 47  1  0
 47 48  1  0
 46 49  1  0
 49 50  2  0
 42 51  1  0
 51 52  2  0
 52 53  1  0
 53 54  2  0
 54 55  1  0
 55 56  1  0
 54 57  1  0
 57 58  2  0
 41 59  1  0
 59 60  1  0
 60 61  1  0
 61 62  2  0
 62 63  1  0
 63 64  1  0
 64 65  2  0
 65 66  1  0
 66 67  2  0
 67 68  1  0
 68 69  1  0
 67 70  1  0
 70 71  2  0
 63 72  1  0
 72 73  2  0
 73 74  1  0
 74 75  2  0
 75 76  1  0
 76 77  1  0
 75 78  1  0
 78 79  2  0
 62 80  1  0
 80 81  1  0
 61 82  1  0
 82 83  1  0
 83 84  1  0
 84 85  2  0
 85 86  1  0
 86 87  2  0
 87 88  1  0
 88 89  1  0
 87 90  1  0
 90 91  1  0
 84 92  1  0
 92 93  2  3
 93 94  1  0
 94 95  2  0
 94 96  1  0
 96 97  2  0
 97 98  1  0
 98 99  2  0
 99100  1  0
100101  2  0
101102  1  0
102103  2  3
103104  1  0
104105  3  0
103106  1  0
106107  3  0
 99108  1  0
108109  1  0
109110  1  0
110111  2  0
111112  1  0
112113  1  0
112114  1  0
 11  2  1  0
 23 17  1  0
 37 24  1  0
 81 40  1  0
 91 82  2  0
102 93  1  0
114108  1  0
 10  5  1  0
 22 18  1  0
 37 30  1  0
 50 43  1  0
 58 51  1  0
 80 59  2  0
 91 85  1  0
101 96  1  0
113109  1  0
 23  7  1  0
 71 64  1  0
 79 72  1  0
114 98  1  0
  1115  1  0
  6116  1  0
  9117  1  0
 17118  1  0
 18119  1  0
 19120  1  0
 20121  1  0
 21122  1  0
 22123  1  0
 22124  1  0
 23125  1  0
 33126  1  0
 33127  1  0
 34128  1  0
 34129  1  0
 34130  1  0
 38131  1  0
 38132  1  0
 39133  1  0
 39134  1  0
 39135  1  0
 44136  1  0
 45137  1  0
 48138  1  0
 48139  1  0
 48140  1  0
 49141  1  0
 50142  1  0
 52143  1  0
 53144  1  0
 56145  1  0
 56146  1  0
 56147  1  0
 57148  1  0
 58149  1  0
 65150  1  0
 66151  1  0
 69152  1  0
 69153  1  0
 69154  1  0
 70155  1  0
 71156  1  0
 73157  1  0
 74158  1  0
 77159  1  0
 77160  1  0
 77161  1  0
 78162  1  0
 79163  1  0
 86164  1  0
 88165  1  0
 88166  1  0
 89167  1  0
 89168  1  0
 89169  1  0
 92170  1  0
 97171  1  0
100172  1  0
108173  1  0
109174  1  0
110175  1  0
111176  1  0
112177  1  0
113178  1  0
113179  1  0
114180  1  0
M  END

