
     RDKit          3D

149167  0  0  0  0  0  0  0  0999 V2000
    1.6266    5.5636    4.7009 C   0  0  0  0  0  0  0  0  0  0  0  0
    2.9753    5.4873    4.6693 C   0  0  0  0  0  0  0  0  0  0  0  0
    3.7424    4.2348    4.6724 C   0  0  0  0  0  0  0  0  0  0  0  0
    3.2754    3.0671    4.5657 O   0  0  0  0  0  0  0  0  0  0  0  0
    5.1339    4.5404    4.8757 C   0  0  0  0  0  0  0  0  0  0  0  0
    6.1862    3.6109    5.0464 C   0  0  0  0  0  0  0  0  0  0  0  0
    7.4154    4.1969    5.2554 C   0  0  0  0  0  0  0  0  0  0  0  0
    7.6044    5.6143    5.3175 C   0  0  0  0  0  0  0  0  0  0  0  0
    6.5754    6.5296    5.1752 C   0  0  0  0  0  0  0  0  0  0  0  0
    5.2994    5.9504    4.9226 C   0  0  0  0  0  0  0  0  0  0  0  0
    3.9726    6.6063    4.7261 C   0  0  0  0  0  0  0  0  0  0  0  0
    3.7603    7.9157    4.3994 C   0  0  0  0  0  0  0  0  0  0  0  0
    2.4654    8.4314    4.0506 C   0  0  0  0  0  0  0  0  0  0  0  0
    1.4312    8.8699    3.7768 N   0  0  0  0  0  0  0  0  0  0  0  0
    4.8300    8.8763    4.2785 C   0  0  0  0  0  0  0  0  0  0  0  0
    5.6764    9.6606    4.1668 N   0  0  0  0  0  0  0  0  0  0  0  0
    9.0766    5.4233    5.5272 C   0  0  0  0  0  0  0  0  0  0  0  0
   10.0309    5.6931    4.3189 C   0  0  0  0  0  0  0  0  0  0  0  0
    9.3269    5.3816    3.0167 C   0  0  0  0  0  0  0  0  0  0  0  0
    9.1484    4.0621    2.9869 C   0  0  0  0  0  0  0  0  0  0  0  0
    9.7359    3.5160    4.2651 C   0  0  0  0  0  0  0  0  0  0  0  0
   10.9175    4.4606    4.4075 C   0  0  0  0  0  0  0  0  0  0  0  0
    8.8806    3.9731    5.4851 C   0  0  0  0  0  0  0  0  0  0  0  0
    0.7765    4.3905    4.4222 C   0  0  0  0  0  0  0  0  0  0  0  0
    0.4547    3.4655    5.4252 C   0  0  0  0  0  0  0  0  0  0  0  0
   -0.1299    2.2108    5.1082 C   0  0  0  0  0  0  0  0  0  0  0  0
   -0.2923    1.3289    6.2283 N   0  0  0  0  0  0  0  0  0  0  0  0
    0.3032    2.2358    7.4008 S   0  0  0  0  0  4  0  0  0  0  0  0
    0.7854    3.6365    6.8074 N   0  0  0  0  0  0  0  0  0  0  0  0
   -0.4159    1.8527    3.7795 C   0  0  0  0  0  0  0  0  0  0  0  0
   -0.1695    2.8130    2.7775 C   0  0  0  0  0  0  0  0  0  0  0  0
   -0.3906    2.5737    1.4588 N   0  0  0  0  0  0  0  0  0  0  0  0
    0.1578    3.9825    0.7932 S   0  0  0  0  0  0  0  0  0  0  0  0
    0.6866    4.9034    2.0563 N   0  0  0  0  0  0  0  0  0  0  0  0
    0.4222    4.0752    3.1010 C   0  0  0  0  0  0  0  0  0  0  0  0
   -0.7136    0.4490    3.4093 C   0  0  0  0  0  0  0  0  0  0  0  0
   -1.8492    0.1184    2.6446 C   0  0  0  0  0  0  0  0  0  0  0  0
   -2.8595    1.0122    2.4587 N   0  0  0  0  0  0  0  0  0  0  0  0
   -3.9299    0.7312    1.6623 C   0  0  0  0  0  0  0  0  0  0  0  0
   -5.0081    1.7337    1.5124 C   0  0  0  0  0  0  0  0  0  0  0  0
   -5.8430    2.0274    2.6088 C   0  0  0  0  0  0  0  0  0  0  0  0
   -6.9977    2.7942    2.4260 C   0  0  0  0  0  0  0  0  0  0  0  0
   -7.3596    3.2461    1.1505 C   0  0  0  0  0  0  0  0  0  0  0  0
   -8.5984    3.9062    1.0195 O   0  0  0  0  0  0  0  0  0  0  0  0
   -9.4109    3.9271   -0.1574 C   0  0  0  0  0  0  0  0  0  0  0  0
   -9.9141    2.5211   -0.4948 C   0  0  0  0  0  0  0  0  0  0  0  0
   -6.4761    3.0312    0.0672 C   0  0  0  0  0  0  0  0  0  0  0  0
   -5.3100    2.2782    0.2539 C   0  0  0  0  0  0  0  0  0  0  0  0
   -4.4872    2.0502   -0.8025 F   0  0  0  0  0  0  0  0  0  0  0  0
   -6.7284    3.5324   -1.1689 F   0  0  0  0  0  0  0  0  0  0  0  0
   -7.8222    3.0216    3.4814 F   0  0  0  0  0  0  0  0  0  0  0  0
   -5.5573    1.5319    3.8378 F   0  0  0  0  0  0  0  0  0  0  0  0
   -3.9785   -0.5123    0.9922 C   0  0  0  0  0  0  0  0  0  0  0  0
   -5.0582   -0.8761    0.0418 C   0  0  0  0  0  0  0  0  0  0  0  0
   -6.4074   -0.8952    0.4374 C   0  0  0  0  0  0  0  0  0  0  0  0
   -6.7452   -0.6920    1.7370 F   0  0  0  0  0  0  0  0  0  0  0  0
   -7.4157   -1.1770   -0.4947 C   0  0  0  0  0  0  0  0  0  0  0  0
   -8.6991   -1.2306   -0.0652 F   0  0  0  0  0  0  0  0  0  0  0  0
   -7.0796   -1.4655   -1.8323 C   0  0  0  0  0  0  0  0  0  0  0  0
   -8.0487   -1.7514   -2.8071 O   0  0  0  0  0  0  0  0  0  0  0  0
   -9.2631   -1.0231   -2.9943 C   0  0  0  0  0  0  0  0  0  0  0  0
   -8.9745    0.3750   -3.5266 C   0  0  0  0  0  0  0  0  0  0  0  0
   -5.7316   -1.5096   -2.2071 C   0  0  0  0  0  0  0  0  0  0  0  0
   -5.3987   -1.8250   -3.4845 F   0  0  0  0  0  0  0  0  0  0  0  0
   -4.7266   -1.2146   -1.2812 C   0  0  0  0  0  0  0  0  0  0  0  0
   -3.4279   -1.2273   -1.6813 F   0  0  0  0  0  0  0  0  0  0  0  0
   -2.9759   -1.4024    1.1933 N   0  0  0  0  0  0  0  0  0  0  0  0
   -1.9262   -1.1387    2.0121 C   0  0  0  0  0  0  0  0  0  0  0  0
   -0.8970   -2.0811    2.1725 C   0  0  0  0  0  0  0  0  0  0  0  0
    0.1816   -1.7862    3.0168 C   0  0  0  0  0  0  0  0  0  0  0  0
    0.2779   -0.5291    3.6212 C   0  0  0  0  0  0  0  0  0  0  0  0
    1.4054   -0.2240    4.3135 F   0  0  0  0  0  0  0  0  0  0  0  0
    1.1981   -2.6743    3.1640 F   0  0  0  0  0  0  0  0  0  0  0  0
   -0.8468   -3.2761    1.3037 C   0  0  0  0  0  0  0  0  0  0  0  0
   -1.0838   -4.5583    1.8188 C   0  0  0  0  0  0  0  0  0  0  0  0
   -1.3451   -4.7322    3.1413 F   0  0  0  0  0  0  0  0  0  0  0  0
   -1.0743   -5.6729    0.9691 C   0  0  0  0  0  0  0  0  0  0  0  0
   -0.8201   -5.5257   -0.4010 C   0  0  0  0  0  0  0  0  0  0  0  0
   -0.6151   -4.2375   -0.9292 C   0  0  0  0  0  0  0  0  0  0  0  0
   -0.4254   -4.0412   -2.2648 N   0  0  0  0  0  0  0  0  0  0  0  0
   -0.1636   -2.8069   -2.7730 C   0  0  0  0  0  0  0  0  0  0  0  0
   -0.0747   -1.7111   -1.9120 C   0  0  0  0  0  0  0  0  0  0  0  0
    0.2745   -0.4521   -2.4113 O   0  0  0  0  0  0  0  0  0  0  0  0
    0.4569    0.6994   -1.5867 C   0  0  0  0  0  0  0  0  0  0  0  0
    1.7152    0.5604   -0.7275 C   0  0  0  0  0  0  0  0  0  0  0  0
   -0.3135   -1.8953   -0.5875 N   0  0  0  0  0  0  0  0  0  0  0  0
   -0.5938   -3.1222   -0.0704 C   0  0  0  0  0  0  0  0  0  0  0  0
   -0.8775   -6.7228   -1.2648 C   0  0  0  0  0  0  0  0  0  0  0  0
    0.1093   -7.0934   -2.1033 C   0  0  0  0  0  0  0  0  0  0  0  0
    1.3881   -6.3958   -2.2810 C   0  0  0  0  0  0  0  0  0  0  0  0
    1.9700   -5.6695   -1.4316 O   0  0  0  0  0  0  0  0  0  0  0  0
    1.8764   -6.6712   -3.6131 C   0  0  0  0  0  0  0  0  0  0  0  0
    2.9068   -5.9854   -4.3010 C   0  0  0  0  0  0  0  0  0  0  0  0
    2.9813   -6.2940   -5.6456 C   0  0  0  0  0  0  0  0  0  0  0  0
    2.0934   -7.2150   -6.2891 C   0  0  0  0  0  0  0  0  0  0  0  0
    1.0892   -7.8958   -5.6255 C   0  0  0  0  0  0  0  0  0  0  0  0
    1.0078   -7.6098   -4.2330 C   0  0  0  0  0  0  0  0  0  0  0  0
   -0.0269   -8.0317   -3.2560 C   0  0  0  0  0  0  0  0  0  0  0  0
   -0.7677   -9.1647   -3.3063 C   0  0  0  0  0  0  0  0  0  0  0  0
   -1.5878   -9.5926   -2.2019 C   0  0  0  0  0  0  0  0  0  0  0  0
   -2.2471   -9.9448   -1.3181 N   0  0  0  0  0  0  0  0  0  0  0  0
   -0.6640  -10.1015   -4.3960 C   0  0  0  0  0  0  0  0  0  0  0  0
   -0.5815  -10.8688   -5.2580 N   0  0  0  0  0  0  0  0  0  0  0  0
    2.7171   -6.9157   -7.6175 C   0  0  0  0  0  0  0  0  0  0  0  0
    1.8844   -6.0084   -8.5739 C   0  0  0  0  0  0  0  0  0  0  0  0
    2.8498   -5.5416   -9.6381 C   0  0  0  0  0  0  0  0  0  0  0  0
    3.6832   -4.6822   -9.0382 C   0  0  0  0  0  0  0  0  0  0  0  0
    3.2587   -4.6014   -7.5948 C   0  0  0  0  0  0  0  0  0  0  0  0
    1.7531   -4.7080   -7.7907 C   0  0  0  0  0  0  0  0  0  0  0  0
    3.6300   -5.9769   -6.9600 C   0  0  0  0  0  0  0  0  0  0  0  0
    1.1173    6.4967    4.8585 H   0  0  0  0  0  0  0  0  0  0  0  0
    6.0506    2.5353    5.0121 H   0  0  0  0  0  0  0  0  0  0  0  0
    6.7723    7.5844    5.2597 H   0  0  0  0  0  0  0  0  0  0  0  0
    9.4450    5.8003    6.5067 H   0  0  0  0  0  0  0  0  0  0  0  0
   10.5674    6.6652    4.3337 H   0  0  0  0  0  0  0  0  0  0  0  0
    9.0919    6.0739    2.2149 H   0  0  0  0  0  0  0  0  0  0  0  0
    8.7336    3.4948    2.1616 H   0  0  0  0  0  0  0  0  0  0  0  0
    9.9821    2.4329    4.2431 H   0  0  0  0  0  0  0  0  0  0  0  0
   11.6523    4.3793    3.5700 H   0  0  0  0  0  0  0  0  0  0  0  0
   11.4504    4.3608    5.3838 H   0  0  0  0  0  0  0  0  0  0  0  0
    9.1140    3.4612    6.4453 H   0  0  0  0  0  0  0  0  0  0  0  0
  -10.2923    4.5753    0.0376 H   0  0  0  0  0  0  0  0  0  0  0  0
   -8.8703    4.3752   -1.0183 H   0  0  0  0  0  0  0  0  0  0  0  0
  -10.6012    2.1649    0.3048 H   0  0  0  0  0  0  0  0  0  0  0  0
   -9.0675    1.8082   -0.5713 H   0  0  0  0  0  0  0  0  0  0  0  0
  -10.4605    2.5308   -1.4634 H   0  0  0  0  0  0  0  0  0  0  0  0
   -9.8589   -0.9677   -2.0617 H   0  0  0  0  0  0  0  0  0  0  0  0
   -9.8810   -1.5645   -3.7413 H   0  0  0  0  0  0  0  0  0  0  0  0
   -9.9273    0.9166   -3.6967 H   0  0  0  0  0  0  0  0  0  0  0  0
   -8.4262    0.3030   -4.4898 H   0  0  0  0  0  0  0  0  0  0  0  0
   -8.3584    0.9469   -2.8045 H   0  0  0  0  0  0  0  0  0  0  0  0
   -1.2674   -6.6565    1.3838 H   0  0  0  0  0  0  0  0  0  0  0  0
    0.0110   -2.6824   -3.8335 H   0  0  0  0  0  0  0  0  0  0  0  0
   -0.4397    0.8588   -0.9474 H   0  0  0  0  0  0  0  0  0  0  0  0
    0.5686    1.5843   -2.2473 H   0  0  0  0  0  0  0  0  0  0  0  0
    1.5409   -0.1482    0.1092 H   0  0  0  0  0  0  0  0  0  0  0  0
    1.9838    1.5423   -0.2840 H   0  0  0  0  0  0  0  0  0  0  0  0
    2.5692    0.2077   -1.3439 H   0  0  0  0  0  0  0  0  0  0  0  0
   -1.8222   -7.2450   -1.2716 H   0  0  0  0  0  0  0  0  0  0  0  0
    3.5269   -5.2300   -3.8360 H   0  0  0  0  0  0  0  0  0  0  0  0
    0.3853   -8.5111   -6.1596 H   0  0  0  0  0  0  0  0  0  0  0  0
    3.2062   -7.8002   -8.0909 H   0  0  0  0  0  0  0  0  0  0  0  0
    0.9356   -6.4445   -8.9507 H   0  0  0  0  0  0  0  0  0  0  0  0
    2.8214   -5.7652  -10.6996 H   0  0  0  0  0  0  0  0  0  0  0  0
    4.4514   -4.0924   -9.5338 H   0  0  0  0  0  0  0  0  0  0  0  0
    3.6077   -3.7048   -7.0432 H   0  0  0  0  0  0  0  0  0  0  0  0
    1.1720   -4.8013   -6.8447 H   0  0  0  0  0  0  0  0  0  0  0  0
    1.3216   -3.8708   -8.3913 H   0  0  0  0  0  0  0  0  0  0  0  0
    4.7067   -6.2580   -7.0149 H   0  0  0  0  0  0  0  0  0  0  0  0
  1  2  2  3
  2  3  1  0
  3  4  2  0
  3  5  1  0
  5  6  2  0
  6  7  1  0
  7  8  2  0
  8  9  1  0
  9 10  2  0
 10 11  1  0
 11 12  2  3
 12 13  1  0
 13 14  3  0
 12 15  1  0
 15 16  3  0
  8 17  1  0
 17 18  1  0
 18 19  1  0
 19 20  2  0
 20 21  1  0
 21 22  1  0
 21 23  1  0
  1 24  1  0
 24 25  2  0
 25 26  1  0
 26 27  1  0
 27 28  2  0
 28 29  2  0
 26 30  2  0
 30 31  1  0
 31 32  2  0
 32 33  1  0
 33 34  1  0
 34 35  2  0
 30 36  1  0
 36 37  1  0
 37 38  2  0
 38 39  1  0
 39 40  1  0
 40 41  2  0
 41 42  1  0
 42 43  2  0
 43 44  1  0
 44 45  1  0
 45 46  1  0
 43 47  1  0
 47 48  2  0
 48 49  1  0
 47 50  1  0
 42 51  1  0
 41 52  1  0
 39 53  2  0
 53 54  1  0
 54 55  2  0
 55 56  1  0
 55 57  1  0
 57 58  1  0
 57 59  2  0
 59 60  1  0
 60 61  1  0
 61 62  1  0
 59 63  1  0
 63 64  1  0
 63 65  2  0
 65 66  1  0
 53 67  1  0
 67 68  2  0
 68 69  1  0
 69 70  2  0
 70 71  1  0
 71 72  1  0
 70 73  1  0
 69 74  1  0
 74 75  2  0
 75 76  1  0
 75 77  1  0
 77 78  2  0
 78 79  1  0
 79 80  2  0
 80 81  1  0
 81 82  2  0
 82 83  1  0
 83 84  1  0
 84 85  1  0
 82 86  1  0
 86 87  2  0
 78 88  1  0
 88 89  2  3
 89 90  1  0
 90 91  2  0
 90 92  1  0
 92 93  2  0
 93 94  1  0
 94 95  2  0
 95 96  1  0
 96 97  2  0
 97 98  1  0
 98 99  2  3
 99100  1  0
100101  3  0
 99102  1  0
102103  3  0
 95104  1  0
104105  1  0
105106  1  0
106107  2  0
107108  1  0
108109  1  0
108110  1  0
 11  2  1  0
 23 17  1  0
 35 24  1  0
 71 36  2  0
 87 74  1  0
 98 89  1  0
110104  1  0
 10  5  1  0
 22 18  1  0
 29 25  1  0
 35 31  1  0
 68 37  1  0
 87 79  1  0
 97 92  1  0
109105  1  0
 23  7  1  0
 48 40  1  0
 65 54  1  0
110 94  1  0
  1111  1  0
  6112  1  0
  9113  1  0
 17114  1  0
 18115  1  0
 19116  1  0
 20117  1  0
 21118  1  0
 22119  1  0
 22120  1  0
 23121  1  0
 45122  1  0
 45123  1  0
 46124  1  0
 46125  1  0
 46126  1  0
 61127  1  0
 61128  1  0
 62129  1  0
 62130  1  0
 62131  1  0
 77132  1  0
 81133  1  0
 84134  1  0
 84135  1  0
 85136  1  0
 85137  1  0
 85138  1  0
 88139  1  0
 93140  1  0
 96141  1  0
104142  1  0
105143  1  0
106144  1  0
107145  1  0
108146  1  0
109147  1  0
109148  1  0
110149  1  0
M  END

