
     RDKit          3D

174194  0  0  0  0  0  0  0  0999 V2000
   -1.4550    2.6636   -3.8365 C   0  0  0  0  0  0  0  0  0  0  0  0
   -2.3001    3.7009   -3.9022 C   0  0  0  0  0  0  0  0  0  0  0  0
   -3.6468    3.6139   -4.4764 C   0  0  0  0  0  0  0  0  0  0  0  0
   -4.2222    2.5630   -4.8777 O   0  0  0  0  0  0  0  0  0  0  0  0
   -4.1654    4.9617   -4.6446 C   0  0  0  0  0  0  0  0  0  0  0  0
   -5.3322    5.3677   -5.3463 C   0  0  0  0  0  0  0  0  0  0  0  0
   -5.4843    6.7409   -5.4084 C   0  0  0  0  0  0  0  0  0  0  0  0
   -4.5679    7.6618   -4.8060 C   0  0  0  0  0  0  0  0  0  0  0  0
   -3.4102    7.2782   -4.1680 C   0  0  0  0  0  0  0  0  0  0  0  0
   -3.2237    5.8745   -4.0960 C   0  0  0  0  0  0  0  0  0  0  0  0
   -2.0209    5.1448   -3.6264 C   0  0  0  0  0  0  0  0  0  0  0  0
   -1.0318    5.6520   -2.8465 C   0  0  0  0  0  0  0  0  0  0  0  0
    0.1858    4.9527   -2.5561 C   0  0  0  0  0  0  0  0  0  0  0  0
    1.1743    4.3987   -2.3209 N   0  0  0  0  0  0  0  0  0  0  0  0
   -1.2138    6.8778   -2.1156 C   0  0  0  0  0  0  0  0  0  0  0  0
   -1.3827    7.8592   -1.5008 N   0  0  0  0  0  0  0  0  0  0  0  0
   -5.3323    8.8231   -5.3558 C   0  0  0  0  0  0  0  0  0  0  0  0
   -4.6758    9.5933   -6.5432 C   0  0  0  0  0  0  0  0  0  0  0  0
   -3.8219    8.6555   -7.3730 C   0  0  0  0  0  0  0  0  0  0  0  0
   -4.6619    7.8100   -7.9662 C   0  0  0  0  0  0  0  0  0  0  0  0
   -6.0586    8.2039   -7.5304 C   0  0  0  0  0  0  0  0  0  0  0  0
   -5.8712    9.7070   -7.4707 C   0  0  0  0  0  0  0  0  0  0  0  0
   -6.2575    7.8935   -6.0099 C   0  0  0  0  0  0  0  0  0  0  0  0
   -1.8738    1.3470   -3.2978 C   0  0  0  0  0  0  0  0  0  0  0  0
   -2.4598    1.1473   -2.0200 C   0  0  0  0  0  0  0  0  0  0  0  0
   -2.8934    2.2070   -1.1495 N   0  0  0  0  0  0  0  0  0  0  0  0
   -4.3119    2.3809   -0.9947 C   0  0  0  0  0  0  0  0  0  0  0  0
   -5.0512    1.4713   -0.2304 C   0  0  0  0  0  0  0  0  0  0  0  0
   -6.4152    1.6895   -0.0048 C   0  0  0  0  0  0  0  0  0  0  0  0
   -7.0346    2.8203   -0.5358 C   0  0  0  0  0  0  0  0  0  0  0  0
   -8.7925    3.0623   -0.3066 S   0  0  0  0  0  0  0  0  0  0  0  0
   -9.2175    2.1049   -1.7931 C   0  0  0  0  0  0  0  0  0  0  0  0
   -6.2910    3.7501   -1.2668 C   0  0  0  0  0  0  0  0  0  0  0  0
   -4.9245    3.5530   -1.4619 C   0  0  0  0  0  0  0  0  0  0  0  0
   -1.9647    2.8749   -0.2490 C   0  0  0  0  0  0  0  0  0  0  0  0
   -0.5877    2.6081   -0.3098 C   0  0  0  0  0  0  0  0  0  0  0  0
    0.3024    3.2301    0.5689 C   0  0  0  0  0  0  0  0  0  0  0  0
   -0.1654    4.1421    1.5179 C   0  0  0  0  0  0  0  0  0  0  0  0
    0.9737    4.9680    2.6429 S   0  0  0  0  0  0  0  0  0  0  0  0
    1.5958    6.1274    1.3794 C   0  0  0  0  0  0  0  0  0  0  0  0
   -1.5374    4.3977    1.6104 C   0  0  0  0  0  0  0  0  0  0  0  0
   -2.4275    3.7700    0.7408 C   0  0  0  0  0  0  0  0  0  0  0  0
   -2.1683   -0.1350   -1.5358 C   0  0  0  0  0  0  0  0  0  0  0  0
   -2.1292   -0.7409    0.0117 S   0  0  0  0  0  0  0  0  0  0  0  0
   -1.0602   -2.0240   -0.3320 C   0  0  0  0  0  0  0  0  0  0  0  0
   -0.7596   -1.9821   -1.7157 C   0  0  0  0  0  0  0  0  0  0  0  0
   -0.1030   -3.0183   -2.4754 N   0  0  0  0  0  0  0  0  0  0  0  0
   -0.8333   -3.5391   -3.6109 C   0  0  0  0  0  0  0  0  0  0  0  0
   -0.2542   -3.5333   -4.8925 C   0  0  0  0  0  0  0  0  0  0  0  0
   -1.0062   -3.9492   -5.9994 C   0  0  0  0  0  0  0  0  0  0  0  0
   -2.3337   -4.3641   -5.8390 C   0  0  0  0  0  0  0  0  0  0  0  0
   -3.2878   -4.9197   -7.2527 S   0  0  0  0  0  0  0  0  0  0  0  0
   -3.8970   -3.2546   -7.6619 C   0  0  0  0  0  0  0  0  0  0  0  0
   -2.9060   -4.3804   -4.5602 C   0  0  0  0  0  0  0  0  0  0  0  0
   -2.1615   -3.9720   -3.4536 C   0  0  0  0  0  0  0  0  0  0  0  0
    1.2135   -3.5160   -2.1595 C   0  0  0  0  0  0  0  0  0  0  0  0
    1.6027   -4.8065   -2.5832 C   0  0  0  0  0  0  0  0  0  0  0  0
    2.8795   -5.2906   -2.3099 C   0  0  0  0  0  0  0  0  0  0  0  0
    3.7803   -4.5239   -1.5704 C   0  0  0  0  0  0  0  0  0  0  0  0
    5.4040   -5.1853   -1.1635 S   0  0  0  0  0  0  0  0  0  0  0  0
    4.7693   -6.4530   -0.0160 C   0  0  0  0  0  0  0  0  0  0  0  0
    3.4155   -3.2404   -1.1495 C   0  0  0  0  0  0  0  0  0  0  0  0
    2.1469   -2.7310   -1.4491 C   0  0  0  0  0  0  0  0  0  0  0  0
   -1.4059   -0.9146   -2.3430 C   0  0  0  0  0  0  0  0  0  0  0  0
   -1.0327   -0.0655   -3.7394 S   0  0  0  0  0  0  0  0  0  0  0  0
   -0.2621   -2.6350    0.7504 C   0  0  0  0  0  0  0  0  0  0  0  0
    0.0891   -1.9557    1.8380 C   0  0  0  0  0  0  0  0  0  0  0  0
    0.5221   -2.7806    2.8900 C   0  0  0  0  0  0  0  0  0  0  0  0
    0.5511   -4.1178    2.2999 C   0  0  0  0  0  0  0  0  0  0  0  0
    0.9893   -5.1662    2.8332 O   0  0  0  0  0  0  0  0  0  0  0  0
    0.0098   -4.0410    0.9625 N   0  0  0  0  0  0  0  0  0  0  0  0
   -0.7018   -5.1487    0.3180 C   0  0  0  0  0  0  0  0  0  0  0  0
   -2.1445   -5.2201    0.8050 C   0  0  0  0  0  0  0  0  0  0  0  0
    0.7486   -2.0520    3.9979 C   0  0  0  0  0  0  0  0  0  0  0  0
    0.4600   -0.6630    3.7251 N   0  0  0  0  0  0  0  0  0  0  0  0
   -0.0414    0.3062    4.7008 C   0  0  0  0  0  0  0  0  0  0  0  0
   -1.5695    0.3476    4.6834 C   0  0  0  0  0  0  0  0  0  0  0  0
    0.1101   -0.6151    2.3467 C   0  0  0  0  0  0  0  0  0  0  0  0
    0.0269    0.4497    1.6739 O   0  0  0  0  0  0  0  0  0  0  0  0
    1.5896   -2.4803    5.1450 C   0  0  0  0  0  0  0  0  0  0  0  0
    2.6483   -1.6490    5.5604 C   0  0  0  0  0  0  0  0  0  0  0  0
    3.7096   -2.1554    6.3563 C   0  0  0  0  0  0  0  0  0  0  0  0
    4.8178   -1.2542    6.5209 N   0  0  0  0  0  0  0  0  0  0  0  0
    4.3046   -0.0000    5.6904 S   0  0  0  0  0  4  0  0  0  0  0  0
    2.8721   -0.3187    5.0685 N   0  0  0  0  0  0  0  0  0  0  0  0
    3.7764   -3.5147    6.6808 C   0  0  0  0  0  0  0  0  0  0  0  0
    2.6264   -4.2989    6.4585 C   0  0  0  0  0  0  0  0  0  0  0  0
    2.5415   -5.6028    6.8245 N   0  0  0  0  0  0  0  0  0  0  0  0
    1.0324   -5.9752    6.2597 S   0  0  0  0  0  0  0  0  0  0  0  0
    0.4678   -4.6165    5.4970 N   0  0  0  0  0  0  0  0  0  0  0  0
    1.5139   -3.7745    5.7036 C   0  0  0  0  0  0  0  0  0  0  0  0
    5.1233   -4.1342    6.7105 C   0  0  0  0  0  0  0  0  0  0  0  0
    5.8315   -4.2041    5.5575 C   0  0  0  0  0  0  0  0  0  0  0  0
    5.2433   -4.1297    4.2012 C   0  0  0  0  0  0  0  0  0  0  0  0
    4.0285   -4.2703    3.9025 O   0  0  0  0  0  0  0  0  0  0  0  0
    6.2711   -3.8187    3.2483 C   0  0  0  0  0  0  0  0  0  0  0  0
    6.0486   -3.2368    1.9809 C   0  0  0  0  0  0  0  0  0  0  0  0
    7.1398   -2.5403    1.4949 C   0  0  0  0  0  0  0  0  0  0  0  0
    8.3947   -2.4553    2.1827 C   0  0  0  0  0  0  0  0  0  0  0  0
    8.6352   -3.0705    3.3938 C   0  0  0  0  0  0  0  0  0  0  0  0
    7.5191   -3.7740    3.9242 C   0  0  0  0  0  0  0  0  0  0  0  0
    7.3123   -4.1062    5.3505 C   0  0  0  0  0  0  0  0  0  0  0  0
    8.3046   -4.3517    6.2334 C   0  0  0  0  0  0  0  0  0  0  0  0
    8.1529   -4.1404    7.6510 C   0  0  0  0  0  0  0  0  0  0  0  0
    8.0370   -3.9184    8.7754 N   0  0  0  0  0  0  0  0  0  0  0  0
    9.4642   -5.0993    5.7884 C   0  0  0  0  0  0  0  0  0  0  0  0
   10.3464   -5.7563    5.4253 N   0  0  0  0  0  0  0  0  0  0  0  0
    8.9014   -1.4709    1.1724 C   0  0  0  0  0  0  0  0  0  0  0  0
    9.9492   -1.9529    0.1179 C   0  0  0  0  0  0  0  0  0  0  0  0
    9.7528   -3.4198   -0.1727 C   0  0  0  0  0  0  0  0  0  0  0  0
    8.5854   -3.5283   -0.8127 C   0  0  0  0  0  0  0  0  0  0  0  0
    8.0274   -2.1265   -0.9403 C   0  0  0  0  0  0  0  0  0  0  0  0
    9.3295   -1.3676   -1.1397 C   0  0  0  0  0  0  0  0  0  0  0  0
    7.6227   -1.5717    0.4597 C   0  0  0  0  0  0  0  0  0  0  0  0
   -0.3981    2.8372   -3.8160 H   0  0  0  0  0  0  0  0  0  0  0  0
   -6.0036    4.6783   -5.8430 H   0  0  0  0  0  0  0  0  0  0  0  0
   -2.6932    8.0196   -3.8567 H   0  0  0  0  0  0  0  0  0  0  0  0
   -5.7969    9.4665   -4.5733 H   0  0  0  0  0  0  0  0  0  0  0  0
   -4.1888   10.5519   -6.2714 H   0  0  0  0  0  0  0  0  0  0  0  0
   -2.7354    8.6192   -7.4175 H   0  0  0  0  0  0  0  0  0  0  0  0
   -4.3794    7.0000   -8.6338 H   0  0  0  0  0  0  0  0  0  0  0  0
   -6.8702    7.8530   -8.2069 H   0  0  0  0  0  0  0  0  0  0  0  0
   -5.6264   10.1690   -8.4622 H   0  0  0  0  0  0  0  0  0  0  0  0
   -6.7368   10.2473   -7.0225 H   0  0  0  0  0  0  0  0  0  0  0  0
   -7.3086    7.9870   -5.6466 H   0  0  0  0  0  0  0  0  0  0  0  0
   -4.5745    0.6034    0.2036 H   0  0  0  0  0  0  0  0  0  0  0  0
   -6.9724    0.9900    0.6048 H   0  0  0  0  0  0  0  0  0  0  0  0
   -8.6956    2.5164   -2.6823 H   0  0  0  0  0  0  0  0  0  0  0  0
   -8.9209    1.0417   -1.6468 H   0  0  0  0  0  0  0  0  0  0  0  0
  -10.3137    2.1544   -1.9580 H   0  0  0  0  0  0  0  0  0  0  0  0
   -6.7688    4.6328   -1.6706 H   0  0  0  0  0  0  0  0  0  0  0  0
   -4.3440    4.3218   -1.9504 H   0  0  0  0  0  0  0  0  0  0  0  0
   -0.1770    1.9331   -1.0524 H   0  0  0  0  0  0  0  0  0  0  0  0
    1.3606    3.0174    0.4913 H   0  0  0  0  0  0  0  0  0  0  0  0
    2.0393    7.0082    1.8879 H   0  0  0  0  0  0  0  0  0  0  0  0
    2.3842    5.6212    0.7822 H   0  0  0  0  0  0  0  0  0  0  0  0
    0.7854    6.4767    0.7006 H   0  0  0  0  0  0  0  0  0  0  0  0
   -1.9112    5.0798    2.3617 H   0  0  0  0  0  0  0  0  0  0  0  0
   -3.4828    3.9798    0.8604 H   0  0  0  0  0  0  0  0  0  0  0  0
    0.7565   -3.1708   -5.0322 H   0  0  0  0  0  0  0  0  0  0  0  0
   -0.5563   -3.9228   -6.9810 H   0  0  0  0  0  0  0  0  0  0  0  0
   -3.0443   -2.5896   -7.9326 H   0  0  0  0  0  0  0  0  0  0  0  0
   -4.5772   -3.3311   -8.5391 H   0  0  0  0  0  0  0  0  0  0  0  0
   -4.4608   -2.8216   -6.8120 H   0  0  0  0  0  0  0  0  0  0  0  0
   -3.9236   -4.7043   -4.4206 H   0  0  0  0  0  0  0  0  0  0  0  0
   -2.6141   -3.9723   -2.4683 H   0  0  0  0  0  0  0  0  0  0  0  0
    0.9070   -5.4504   -3.1129 H   0  0  0  0  0  0  0  0  0  0  0  0
    3.1571   -6.2851   -2.6445 H   0  0  0  0  0  0  0  0  0  0  0  0
    3.9537   -6.0546    0.6264 H   0  0  0  0  0  0  0  0  0  0  0  0
    5.5999   -6.8046    0.6279 H   0  0  0  0  0  0  0  0  0  0  0  0
    4.3843   -7.3156   -0.6047 H   0  0  0  0  0  0  0  0  0  0  0  0
    4.1149   -2.6302   -0.5985 H   0  0  0  0  0  0  0  0  0  0  0  0
    1.8967   -1.7213   -1.1403 H   0  0  0  0  0  0  0  0  0  0  0  0
   -0.1789   -6.1020    0.5460 H   0  0  0  0  0  0  0  0  0  0  0  0
   -0.6950   -5.0208   -0.7766 H   0  0  0  0  0  0  0  0  0  0  0  0
   -2.1686   -5.3891    1.9031 H   0  0  0  0  0  0  0  0  0  0  0  0
   -2.6750   -4.2754    0.5705 H   0  0  0  0  0  0  0  0  0  0  0  0
   -2.6688   -6.0594    0.3032 H   0  0  0  0  0  0  0  0  0  0  0  0
    0.3570    1.3137    4.4375 H   0  0  0  0  0  0  0  0  0  0  0  0
    0.3116    0.0457    5.7248 H   0  0  0  0  0  0  0  0  0  0  0  0
   -1.9263    0.7878    3.7288 H   0  0  0  0  0  0  0  0  0  0  0  0
   -1.9421    0.9655    5.5230 H   0  0  0  0  0  0  0  0  0  0  0  0
   -1.9704   -0.6807    4.7936 H   0  0  0  0  0  0  0  0  0  0  0  0
    5.5931   -4.1777    7.6812 H   0  0  0  0  0  0  0  0  0  0  0  0
    5.0789   -3.1736    1.5178 H   0  0  0  0  0  0  0  0  0  0  0  0
    9.5328   -2.8792    3.9684 H   0  0  0  0  0  0  0  0  0  0  0  0
    9.0978   -0.4522    1.5851 H   0  0  0  0  0  0  0  0  0  0  0  0
   10.9948   -1.6460    0.3229 H   0  0  0  0  0  0  0  0  0  0  0  0
   10.4339   -4.2326    0.0578 H   0  0  0  0  0  0  0  0  0  0  0  0
    8.1893   -4.4407   -1.2451 H   0  0  0  0  0  0  0  0  0  0  0  0
    7.2634   -1.9977   -1.7431 H   0  0  0  0  0  0  0  0  0  0  0  0
    9.2106   -0.2588   -1.1120 H   0  0  0  0  0  0  0  0  0  0  0  0
    9.8652   -1.6545   -2.0765 H   0  0  0  0  0  0  0  0  0  0  0  0
    7.0426   -0.6194    0.4435 H   0  0  0  0  0  0  0  0  0  0  0  0
  1  2  2  3
  2  3  1  0
  3  4  2  0
  3  5  1  0
  5  6  2  0
  6  7  1  0
  7  8  2  0
  8  9  1  0
  9 10  2  0
 10 11  1  0
 11 12  2  3
 12 13  1  0
 13 14  3  0
 12 15  1  0
 15 16  3  0
  8 17  1  0
 17 18  1  0
 18 19  1  0
 19 20  2  0
 20 21  1  0
 21 22  1  0
 21 23  1  0
  1 24  1  0
 24 25  2  0
 25 26  1  0
 26 27  1  0
 27 28  2  0
 28 29  1  0
 29 30  2  0
 30 31  1  0
 31 32  1  0
 30 33  1  0
 33 34  2  0
 26 35  1  0
 35 36  2  0
 36 37  1  0
 37 38  2  0
 38 39  1  0
 39 40  1  0
 38 41  1  0
 41 42  2  0
 25 43  1  0
 43 44  1  0
 44 45  1  0
 45 46  2  0
 46 47  1  0
 47 48  1  0
 48 49  2  0
 49 50  1  0
 50 51  2  0
 51 52  1  0
 52 53  1  0
 51 54  1  0
 54 55  2  0
 47 56  1  0
 56 57  2  0
 57 58  1  0
 58 59  2  0
 59 60  1  0
 60 61  1  0
 59 62  1  0
 62 63  2  0
 46 64  1  0
 64 65  1  0
 45 66  1  0
 66 67  2  0
 67 68  1  0
 68 69  1  0
 69 70  2  0
 69 71  1  0
 71 72  1  0
 72 73  1  0
 68 74  2  0
 74 75  1  0
 75 76  1  0
 76 77  1  0
 75 78  1  0
 78 79  2  0
 74 80  1  0
 80 81  2  0
 81 82  1  0
 82 83  1  0
 83 84  2  0
 84 85  2  0
 82 86  2  0
 86 87  1  0
 87 88  2  0
 88 89  1  0
 89 90  1  0
 90 91  2  0
 86 92  1  0
 92 93  2  3
 93 94  1  0
 94 95  2  0
 94 96  1  0
 96 97  2  0
 97 98  1  0
 98 99  2  0
 99100  1  0
100101  2  0
101102  1  0
102103  2  3
103104  1  0
104105  3  0
103106  1  0
106107  3  0
 99108  1  0
108109  1  0
109110  1  0
110111  2  0
111112  1  0
112113  1  0
112114  1  0
 11  2  1  0
 23 17  1  0
 65 24  1  0
 71 66  1  0
 91 80  1  0
102 93  1  0
114108  1  0
 10  5  1  0
 22 18  1  0
 34 27  1  0
 42 35  1  0
 64 43  2  0
 78 67  1  0
 85 81  1  0
 91 87  1  0
101 96  1  0
113109  1  0
 23  7  1  0
 55 48  1  0
 63 56  1  0
114 98  1  0
  1115  1  0
  6116  1  0
  9117  1  0
 17118  1  0
 18119  1  0
 19120  1  0
 20121  1  0
 21122  1  0
 22123  1  0
 22124  1  0
 23125  1  0
 28126  1  0
 29127  1  0
 32128  1  0
 32129  1  0
 32130  1  0
 33131  1  0
 34132  1  0
 36133  1  0
 37134  1  0
 40135  1  0
 40136  1  0
 40137  1  0
 41138  1  0
 42139  1  0
 49140  1  0
 50141  1  0
 53142  1  0
 53143  1  0
 53144  1  0
 54145  1  0
 55146  1  0
 57147  1  0
 58148  1  0
 61149  1  0
 61150  1  0
 61151  1  0
 62152  1  0
 63153  1  0
 72154  1  0
 72155  1  0
 73156  1  0
 73157  1  0
 73158  1  0
 76159  1  0
 76160  1  0
 77161  1  0
 77162  1  0
 77163  1  0
 92164  1  0
 97165  1  0
100166  1  0
108167  1  0
109168  1  0
110169  1  0
111170  1  0
112171  1  0
113172  1  0
113173  1  0
114174  1  0
M  END

