
     RDKit          3D

225245  0  0  0  0  0  0  0  0999 V2000
    6.4379   -0.3739    2.1263 C   0  0  0  0  0  0  0  0  0  0  0  0
    5.5468   -0.2911    3.1360 C   0  0  0  0  0  0  0  0  0  0  0  0
    4.1750    0.2270    3.0235 C   0  0  0  0  0  0  0  0  0  0  0  0
    3.4719    0.2686    1.9795 O   0  0  0  0  0  0  0  0  0  0  0  0
    3.7419    0.6883    4.3212 C   0  0  0  0  0  0  0  0  0  0  0  0
    2.5787    1.4365    4.6083 C   0  0  0  0  0  0  0  0  0  0  0  0
    2.5051    1.8737    5.9145 C   0  0  0  0  0  0  0  0  0  0  0  0
    3.5206    1.6054    6.8858 C   0  0  0  0  0  0  0  0  0  0  0  0
    4.6666    0.8731    6.6094 C   0  0  0  0  0  0  0  0  0  0  0  0
    4.7475    0.3902    5.2733 C   0  0  0  0  0  0  0  0  0  0  0  0
    5.8474   -0.3556    4.5976 C   0  0  0  0  0  0  0  0  0  0  0  0
    6.7795   -1.1346    5.1924 C   0  0  0  0  0  0  0  0  0  0  0  0
    7.6413   -1.9956    4.4289 C   0  0  0  0  0  0  0  0  0  0  0  0
    8.3309   -2.6940    3.8207 N   0  0  0  0  0  0  0  0  0  0  0  0
    6.8602   -1.2803    6.6256 C   0  0  0  0  0  0  0  0  0  0  0  0
    6.9328   -1.4104    7.7753 N   0  0  0  0  0  0  0  0  0  0  0  0
    2.7814    2.4165    7.9039 C   0  0  0  0  0  0  0  0  0  0  0  0
    3.3541    3.8345    8.2118 C   0  0  0  0  0  0  0  0  0  0  0  0
    2.2609    4.5716    8.9384 C   0  0  0  0  0  0  0  0  0  0  0  0
    1.2987    4.8078    8.0346 C   0  0  0  0  0  0  0  0  0  0  0  0
    1.7815    4.2230    6.7313 C   0  0  0  0  0  0  0  0  0  0  0  0
    3.2621    4.5405    6.8687 C   0  0  0  0  0  0  0  0  0  0  0  0
    1.7344    2.6787    6.9114 C   0  0  0  0  0  0  0  0  0  0  0  0
    6.0839    0.0418    0.7630 C   0  0  0  0  0  0  0  0  0  0  0  0
    5.3273   -0.7461   -0.1308 C   0  0  0  0  0  0  0  0  0  0  0  0
    5.2658   -2.1997   -0.1182 N   0  0  0  0  0  0  0  0  0  0  0  0
    6.3228   -3.0060    0.4448 C   0  0  0  0  0  0  0  0  0  0  0  0
    6.0068   -4.2032    1.1106 C   0  0  0  0  0  0  0  0  0  0  0  0
    7.0143   -5.0989    1.4780 C   0  0  0  0  0  0  0  0  0  0  0  0
    8.3562   -4.8037    1.2063 C   0  0  0  0  0  0  0  0  0  0  0  0
    9.6281   -6.0326    1.5246 S   0  0  0  0  0  0  0  0  0  0  0  0
    9.8416   -5.5895    3.2747 C   0  0  0  0  0  0  0  0  0  0  0  0
    8.6863   -3.5869    0.5986 C   0  0  0  0  0  0  0  0  0  0  0  0
    7.6790   -2.6981    0.2094 C   0  0  0  0  0  0  0  0  0  0  0  0
    4.3549   -2.8755   -0.9980 C   0  0  0  0  0  0  0  0  0  0  0  0
    3.0746   -3.2384   -0.5563 C   0  0  0  0  0  0  0  0  0  0  0  0
    2.1564   -3.7945   -1.4533 C   0  0  0  0  0  0  0  0  0  0  0  0
    2.5067   -3.9745   -2.7999 C   0  0  0  0  0  0  0  0  0  0  0  0
    1.2781   -4.5257   -3.9768 S   0  0  0  0  0  0  0  0  0  0  0  0
    1.9904   -6.1849   -4.2155 C   0  0  0  0  0  0  0  0  0  0  0  0
    3.7946   -3.6324   -3.2349 C   0  0  0  0  0  0  0  0  0  0  0  0
    4.7200   -3.1041   -2.3343 C   0  0  0  0  0  0  0  0  0  0  0  0
    4.5628    0.0842   -0.9761 C   0  0  0  0  0  0  0  0  0  0  0  0
    3.2200   -0.1436   -1.9430 S   0  0  0  0  0  0  0  0  0  0  0  0
    2.8460    1.4986   -2.1911 C   0  0  0  0  0  0  0  0  0  0  0  0
    3.8063    2.2550   -1.4823 C   0  0  0  0  0  0  0  0  0  0  0  0
    3.9045    3.6915   -1.4814 N   0  0  0  0  0  0  0  0  0  0  0  0
    4.1923    4.3774   -2.7280 C   0  0  0  0  0  0  0  0  0  0  0  0
    3.8703    5.7402   -2.8930 C   0  0  0  0  0  0  0  0  0  0  0  0
    4.2711    6.4332   -4.0426 C   0  0  0  0  0  0  0  0  0  0  0  0
    4.9688    5.7703   -5.0561 C   0  0  0  0  0  0  0  0  0  0  0  0
    5.5271    6.6668   -6.5056 S   0  0  0  0  0  0  0  0  0  0  0  0
    7.1479    7.0798   -5.7830 C   0  0  0  0  0  0  0  0  0  0  0  0
    5.2500    4.4073   -4.9260 C   0  0  0  0  0  0  0  0  0  0  0  0
    4.8703    3.7155   -3.7742 C   0  0  0  0  0  0  0  0  0  0  0  0
    4.0904    4.3404   -0.2018 C   0  0  0  0  0  0  0  0  0  0  0  0
    3.3706    3.8866    0.9252 C   0  0  0  0  0  0  0  0  0  0  0  0
    3.6405    4.3963    2.1943 C   0  0  0  0  0  0  0  0  0  0  0  0
    4.6293    5.3713    2.3618 C   0  0  0  0  0  0  0  0  0  0  0  0
    5.0112    5.9841    3.9991 S   0  0  0  0  0  0  0  0  0  0  0  0
    6.2531    4.6939    4.3150 C   0  0  0  0  0  0  0  0  0  0  0  0
    5.3383    5.8427    1.2533 C   0  0  0  0  0  0  0  0  0  0  0  0
    5.0831    5.3247   -0.0180 C   0  0  0  0  0  0  0  0  0  0  0  0
    4.7329    1.4243   -0.8195 C   0  0  0  0  0  0  0  0  0  0  0  0
    5.8526    1.6885    0.3967 S   0  0  0  0  0  0  0  0  0  0  0  0
    1.5389    1.8854   -2.7957 C   0  0  0  0  0  0  0  0  0  0  0  0
    1.0532    1.0314   -3.8064 C   0  0  0  0  0  0  0  0  0  0  0  0
    1.9069    0.2759   -4.5471 F   0  0  0  0  0  0  0  0  0  0  0  0
   -0.3146    0.8260   -3.9594 C   0  0  0  0  0  0  0  0  0  0  0  0
   -0.7412   -0.1405   -4.8108 F   0  0  0  0  0  0  0  0  0  0  0  0
   -1.2372    1.5214   -3.1648 C   0  0  0  0  0  0  0  0  0  0  0  0
   -0.7752    2.5847   -2.3726 C   0  0  0  0  0  0  0  0  0  0  0  0
   -1.6522    3.4225   -1.7663 N   0  0  0  0  0  0  0  0  0  0  0  0
   -1.2453    4.4757   -1.0125 C   0  0  0  0  0  0  0  0  0  0  0  0
   -2.3013    5.4484   -0.5631 C   0  0  0  0  0  0  0  0  0  0  0  0
   -2.6734    6.3865   -1.7020 C   0  0  0  0  0  0  0  0  0  0  0  0
    0.1446    4.6874   -0.8324 C   0  0  0  0  0  0  0  0  0  0  0  0
    1.0242    3.8020   -1.3857 N   0  0  0  0  0  0  0  0  0  0  0  0
    0.6155    2.7683   -2.1716 C   0  0  0  0  0  0  0  0  0  0  0  0
    0.6972    5.9165   -0.1449 C   0  0  0  0  0  0  0  0  0  0  0  0
    0.6710    5.8140    1.3784 C   0  0  0  0  0  0  0  0  0  0  0  0
   -2.5822    0.9275   -2.9912 C   0  0  0  0  0  0  0  0  0  0  0  0
   -2.7498   -0.4179   -2.6211 C   0  0  0  0  0  0  0  0  0  0  0  0
   -1.9452   -0.9752   -1.5539 N   0  0  0  0  0  0  0  0  0  0  0  0
   -1.6411   -0.0983   -0.4398 C   0  0  0  0  0  0  0  0  0  0  0  0
   -2.6557    0.6974    0.1334 C   0  0  0  0  0  0  0  0  0  0  0  0
   -2.3599    1.6052    1.1486 C   0  0  0  0  0  0  0  0  0  0  0  0
   -1.0527    1.7193    1.6255 C   0  0  0  0  0  0  0  0  0  0  0  0
   -0.6939    2.8824    2.9364 S   0  0  0  0  0  0  0  0  0  0  0  0
   -1.0884    1.7037    4.2619 C   0  0  0  0  0  0  0  0  0  0  0  0
   -0.0386    0.9166    1.0846 C   0  0  0  0  0  0  0  0  0  0  0  0
   -0.3342    0.0094    0.0572 C   0  0  0  0  0  0  0  0  0  0  0  0
   -1.8176   -2.4066   -1.3829 C   0  0  0  0  0  0  0  0  0  0  0  0
   -1.8620   -2.9893   -0.0988 C   0  0  0  0  0  0  0  0  0  0  0  0
   -1.7950   -4.3729    0.0579 C   0  0  0  0  0  0  0  0  0  0  0  0
   -1.7009   -5.2027   -1.0637 C   0  0  0  0  0  0  0  0  0  0  0  0
   -1.6426   -6.9813   -0.8568 S   0  0  0  0  0  0  0  0  0  0  0  0
    0.1670   -7.0366   -0.6869 C   0  0  0  0  0  0  0  0  0  0  0  0
   -1.6613   -4.6365   -2.3429 C   0  0  0  0  0  0  0  0  0  0  0  0
   -1.7006   -3.2479   -2.5010 C   0  0  0  0  0  0  0  0  0  0  0  0
   -4.0851   -0.7771   -2.7645 C   0  0  0  0  0  0  0  0  0  0  0  0
   -4.8974   -2.2245   -2.6089 S   0  0  0  0  0  0  0  0  0  0  0  0
   -6.4322   -1.5131   -2.7015 C   0  0  0  0  0  0  0  0  0  0  0  0
   -6.3106   -0.0988   -2.6808 C   0  0  0  0  0  0  0  0  0  0  0  0
   -7.2035    0.7281   -1.8956 N   0  0  0  0  0  0  0  0  0  0  0  0
   -7.7014    0.1656   -0.6583 C   0  0  0  0  0  0  0  0  0  0  0  0
   -6.8152   -0.4646    0.2381 C   0  0  0  0  0  0  0  0  0  0  0  0
   -7.2927   -1.1277    1.3669 C   0  0  0  0  0  0  0  0  0  0  0  0
   -8.6683   -1.1691    1.6244 C   0  0  0  0  0  0  0  0  0  0  0  0
   -9.2753   -2.1587    2.9940 S   0  0  0  0  0  0  0  0  0  0  0  0
   -9.3210   -0.7750    4.1719 C   0  0  0  0  0  0  0  0  0  0  0  0
   -9.5550   -0.5002    0.7711 C   0  0  0  0  0  0  0  0  0  0  0  0
   -9.0774    0.1715   -0.3640 C   0  0  0  0  0  0  0  0  0  0  0  0
   -7.3257    2.1511   -2.1331 C   0  0  0  0  0  0  0  0  0  0  0  0
   -7.4417    3.0466   -1.0475 C   0  0  0  0  0  0  0  0  0  0  0  0
   -7.5698    4.4163   -1.2674 C   0  0  0  0  0  0  0  0  0  0  0  0
   -7.5900    4.9198   -2.5691 C   0  0  0  0  0  0  0  0  0  0  0  0
   -7.8594    6.6769   -2.8296 S   0  0  0  0  0  0  0  0  0  0  0  0
   -6.0931    7.0933   -2.9129 C   0  0  0  0  0  0  0  0  0  0  0  0
   -7.4537    4.0485   -3.6587 C   0  0  0  0  0  0  0  0  0  0  0  0
   -7.3281    2.6672   -3.4435 C   0  0  0  0  0  0  0  0  0  0  0  0
   -4.9639    0.2534   -2.8823 C   0  0  0  0  0  0  0  0  0  0  0  0
   -4.1057    1.6986   -3.0759 S   0  0  0  0  0  0  0  0  0  0  0  0
   -7.6676   -2.3180   -2.6559 C   0  0  0  0  0  0  0  0  0  0  0  0
   -7.8725   -3.3388   -3.5097 C   0  0  0  0  0  0  0  0  0  0  0  0
   -8.5943   -4.5655   -3.1476 C   0  0  0  0  0  0  0  0  0  0  0  0
   -9.4229   -4.6869   -2.2043 O   0  0  0  0  0  0  0  0  0  0  0  0
   -8.1039   -5.6443   -3.9941 C   0  0  0  0  0  0  0  0  0  0  0  0
   -8.3863   -7.0118   -3.9306 C   0  0  0  0  0  0  0  0  0  0  0  0
   -7.6944   -7.8897   -4.7995 C   0  0  0  0  0  0  0  0  0  0  0  0
   -7.9265   -9.2727   -4.8223 O   0  0  0  0  0  0  0  0  0  0  0  0
   -8.9172   -9.9375   -4.0452 C   0  0  0  0  0  0  0  0  0  0  0  0
   -6.7164   -7.3718   -5.6683 C   0  0  0  0  0  0  0  0  0  0  0  0
   -6.4526   -5.9958   -5.7182 C   0  0  0  0  0  0  0  0  0  0  0  0
   -7.1837   -5.1333   -4.8942 C   0  0  0  0  0  0  0  0  0  0  0  0
   -7.1037   -3.6604   -4.7468 C   0  0  0  0  0  0  0  0  0  0  0  0
   -6.7993   -2.7819   -5.7376 C   0  0  0  0  0  0  0  0  0  0  0  0
   -6.2903   -3.2104   -7.0165 C   0  0  0  0  0  0  0  0  0  0  0  0
   -5.9022   -3.5451   -8.0524 N   0  0  0  0  0  0  0  0  0  0  0  0
   -7.2089   -1.4008   -5.6688 C   0  0  0  0  0  0  0  0  0  0  0  0
   -7.5434   -0.2947   -5.6333 N   0  0  0  0  0  0  0  0  0  0  0  0
    7.4760   -0.5676    2.3269 H   0  0  0  0  0  0  0  0  0  0  0  0
    1.8490    1.6982    3.8555 H   0  0  0  0  0  0  0  0  0  0  0  0
    5.4427    0.7541    7.3472 H   0  0  0  0  0  0  0  0  0  0  0  0
    2.4473    1.8261    8.7912 H   0  0  0  0  0  0  0  0  0  0  0  0
    4.3503    3.8576    8.7006 H   0  0  0  0  0  0  0  0  0  0  0  0
    2.2845    4.9491    9.9546 H   0  0  0  0  0  0  0  0  0  0  0  0
    0.4106    5.4145    8.1976 H   0  0  0  0  0  0  0  0  0  0  0  0
    1.2844    4.6184    5.8169 H   0  0  0  0  0  0  0  0  0  0  0  0
    3.4755    5.6366    6.9270 H   0  0  0  0  0  0  0  0  0  0  0  0
    3.8993    4.0941    6.0774 H   0  0  0  0  0  0  0  0  0  0  0  0
    0.7427    2.2482    7.1669 H   0  0  0  0  0  0  0  0  0  0  0  0
    4.9727   -4.4637    1.3052 H   0  0  0  0  0  0  0  0  0  0  0  0
    6.7501   -6.0387    1.9485 H   0  0  0  0  0  0  0  0  0  0  0  0
   10.2387   -4.5567    3.3552 H   0  0  0  0  0  0  0  0  0  0  0  0
    8.8717   -5.6775    3.8117 H   0  0  0  0  0  0  0  0  0  0  0  0
   10.5688   -6.2889    3.7389 H   0  0  0  0  0  0  0  0  0  0  0  0
    9.7198   -3.3534    0.3865 H   0  0  0  0  0  0  0  0  0  0  0  0
    7.9542   -1.7972   -0.3234 H   0  0  0  0  0  0  0  0  0  0  0  0
    2.7895   -3.0567    0.4707 H   0  0  0  0  0  0  0  0  0  0  0  0
    1.1642   -4.0379   -1.1100 H   0  0  0  0  0  0  0  0  0  0  0  0
    2.8810   -6.1072   -4.8738 H   0  0  0  0  0  0  0  0  0  0  0  0
    1.2327   -6.8361   -4.7041 H   0  0  0  0  0  0  0  0  0  0  0  0
    2.2913   -6.6320   -3.2473 H   0  0  0  0  0  0  0  0  0  0  0  0
    4.0703   -3.7637   -4.2738 H   0  0  0  0  0  0  0  0  0  0  0  0
    5.7082   -2.8258   -2.6840 H   0  0  0  0  0  0  0  0  0  0  0  0
    3.3466    6.2847   -2.1192 H   0  0  0  0  0  0  0  0  0  0  0  0
    4.0455    7.4885   -4.1395 H   0  0  0  0  0  0  0  0  0  0  0  0
    7.0083    7.6767   -4.8581 H   0  0  0  0  0  0  0  0  0  0  0  0
    7.7125    6.1529   -5.5453 H   0  0  0  0  0  0  0  0  0  0  0  0
    7.7274    7.6783   -6.5160 H   0  0  0  0  0  0  0  0  0  0  0  0
    5.7803    3.8884   -5.7116 H   0  0  0  0  0  0  0  0  0  0  0  0
    5.1425    2.6752   -3.6895 H   0  0  0  0  0  0  0  0  0  0  0  0
    2.6147    3.1181    0.8216 H   0  0  0  0  0  0  0  0  0  0  0  0
    3.0868    4.0295    3.0504 H   0  0  0  0  0  0  0  0  0  0  0  0
    7.0867    4.7825    3.5850 H   0  0  0  0  0  0  0  0  0  0  0  0
    5.7945    3.6857    4.2331 H   0  0  0  0  0  0  0  0  0  0  0  0
    6.6536    4.8176    5.3428 H   0  0  0  0  0  0  0  0  0  0  0  0
    6.1061    6.5923    1.3838 H   0  0  0  0  0  0  0  0  0  0  0  0
    5.6837    5.6684   -0.8471 H   0  0  0  0  0  0  0  0  0  0  0  0
   -3.2059    4.8864   -0.2397 H   0  0  0  0  0  0  0  0  0  0  0  0
   -1.9704    6.0461    0.3080 H   0  0  0  0  0  0  0  0  0  0  0  0
   -1.7626    6.8500   -2.1421 H   0  0  0  0  0  0  0  0  0  0  0  0
   -3.3354    7.1920   -1.3197 H   0  0  0  0  0  0  0  0  0  0  0  0
   -3.2082    5.8238   -2.4989 H   0  0  0  0  0  0  0  0  0  0  0  0
    1.7464    6.0594   -0.4596 H   0  0  0  0  0  0  0  0  0  0  0  0
    0.1552    6.8277   -0.4716 H   0  0  0  0  0  0  0  0  0  0  0  0
   -0.3233    6.1013    1.7864 H   0  0  0  0  0  0  0  0  0  0  0  0
    0.9207    4.7879    1.7111 H   0  0  0  0  0  0  0  0  0  0  0  0
    1.4152    6.5189    1.8097 H   0  0  0  0  0  0  0  0  0  0  0  0
   -3.6705    0.6387   -0.2268 H   0  0  0  0  0  0  0  0  0  0  0  0
   -3.1479    2.2241    1.5619 H   0  0  0  0  0  0  0  0  0  0  0  0
   -0.4749    0.7846    4.1532 H   0  0  0  0  0  0  0  0  0  0  0  0
   -2.1659    1.4380    4.2215 H   0  0  0  0  0  0  0  0  0  0  0  0
   -0.8635    2.1768    5.2391 H   0  0  0  0  0  0  0  0  0  0  0  0
    0.9759    1.0063    1.4464 H   0  0  0  0  0  0  0  0  0  0  0  0
    0.4566   -0.5928   -0.3687 H   0  0  0  0  0  0  0  0  0  0  0  0
   -1.9775   -2.3774    0.7854 H   0  0  0  0  0  0  0  0  0  0  0  0
   -1.8327   -4.7981    1.0532 H   0  0  0  0  0  0  0  0  0  0  0  0
    0.4940   -8.0952   -0.6281 H   0  0  0  0  0  0  0  0  0  0  0  0
    0.4823   -6.5096    0.2364 H   0  0  0  0  0  0  0  0  0  0  0  0
    0.6433   -6.5644   -1.5662 H   0  0  0  0  0  0  0  0  0  0  0  0
   -1.5964   -5.2731   -3.2145 H   0  0  0  0  0  0  0  0  0  0  0  0
   -1.6615   -2.8254   -3.4967 H   0  0  0  0  0  0  0  0  0  0  0  0
   -5.7522   -0.4677    0.0378 H   0  0  0  0  0  0  0  0  0  0  0  0
   -6.5921   -1.6363    2.0186 H   0  0  0  0  0  0  0  0  0  0  0  0
   -8.3999   -0.1605    4.1077 H   0  0  0  0  0  0  0  0  0  0  0  0
  -10.2091   -0.1446    3.9651 H   0  0  0  0  0  0  0  0  0  0  0  0
   -9.4008   -1.1866    5.1980 H   0  0  0  0  0  0  0  0  0  0  0  0
  -10.6179   -0.5307    0.9670 H   0  0  0  0  0  0  0  0  0  0  0  0
   -9.7748    0.6510   -1.0394 H   0  0  0  0  0  0  0  0  0  0  0  0
   -7.4267    2.6900   -0.0238 H   0  0  0  0  0  0  0  0  0  0  0  0
   -7.6724    5.0846   -0.4195 H   0  0  0  0  0  0  0  0  0  0  0  0
   -5.7157    6.9018   -3.9373 H   0  0  0  0  0  0  0  0  0  0  0  0
   -5.5110    6.4977   -2.1863 H   0  0  0  0  0  0  0  0  0  0  0  0
   -5.9660    8.1658   -2.6691 H   0  0  0  0  0  0  0  0  0  0  0  0
   -7.4647    4.4422   -4.6730 H   0  0  0  0  0  0  0  0  0  0  0  0
   -7.2144    2.0069   -4.2938 H   0  0  0  0  0  0  0  0  0  0  0  0
   -8.3070   -2.2109   -1.7989 H   0  0  0  0  0  0  0  0  0  0  0  0
   -9.1122   -7.3734   -3.2181 H   0  0  0  0  0  0  0  0  0  0  0  0
   -9.9207   -9.5228   -4.2715 H   0  0  0  0  0  0  0  0  0  0  0  0
   -8.6888   -9.8240   -2.9624 H   0  0  0  0  0  0  0  0  0  0  0  0
   -8.9191  -11.0119   -4.3100 H   0  0  0  0  0  0  0  0  0  0  0  0
   -6.1662   -8.0493   -6.3183 H   0  0  0  0  0  0  0  0  0  0  0  0
   -5.6797   -5.6386   -6.3794 H   0  0  0  0  0  0  0  0  0  0  0  0
  1  2  2  3
  2  3  1  0
  3  4  2  0
  3  5  1  0
  5  6  2  0
  6  7  1  0
  7  8  2  0
  8  9  1  0
  9 10  2  0
 10 11  1  0
 11 12  2  3
 12 13  1  0
 13 14  3  0
 12 15  1  0
 15 16  3  0
  8 17  1  0
 17 18  1  0
 18 19  1  0
 19 20  2  0
 20 21  1  0
 21 22  1  0
 21 23  1  0
  1 24  1  0
 24 25  2  0
 25 26  1  0
 26 27  1  0
 27 28  2  0
 28 29  1  0
 29 30  2  0
 30 31  1  0
 31 32  1  0
 30 33  1  0
 33 34  2  0
 26 35  1  0
 35 36  2  0
 36 37  1  0
 37 38  2  0
 38 39  1  0
 39 40  1  0
 38 41  1  0
 41 42  2  0
 25 43  1  0
 43 44  1  0
 44 45  1  0
 45 46  2  0
 46 47  1  0
 47 48  1  0
 48 49  2  0
 49 50  1  0
 50 51  2  0
 51 52  1  0
 52 53  1  0
 51 54  1  0
 54 55  2  0
 47 56  1  0
 56 57  2  0
 57 58  1  0
 58 59  2  0
 59 60  1  0
 60 61  1  0
 59 62  1  0
 62 63  2  0
 46 64  1  0
 64 65  1  0
 45 66  1  0
 66 67  2  0
 67 68  1  0
 67 69  1  0
 69 70  1  0
 69 71  2  0
 71 72  1  0
 72 73  2  0
 73 74  1  0
 74 75  1  0
 75 76  1  0
 74 77  2  0
 77 78  1  0
 78 79  2  0
 77 80  1  0
 80 81  1  0
 71 82  1  0
 82 83  2  0
 83 84  1  0
 84 85  1  0
 85 86  2  0
 86 87  1  0
 87 88  2  0
 88 89  1  0
 89 90  1  0
 88 91  1  0
 91 92  2  0
 84 93  1  0
 93 94  2  0
 94 95  1  0
 95 96  2  0
 96 97  1  0
 97 98  1  0
 96 99  1  0
 99100  2  0
 83101  1  0
101102  1  0
102103  1  0
103104  2  0
104105  1  0
105106  1  0
106107  2  0
107108  1  0
108109  2  0
109110  1  0
110111  1  0
109112  1  0
112113  2  0
105114  1  0
114115  2  0
115116  1  0
116117  2  0
117118  1  0
118119  1  0
117120  1  0
120121  2  0
104122  1  0
122123  1  0
103124  1  0
124125  2  3
125126  1  0
126127  2  0
126128  1  0
128129  2  0
129130  1  0
130131  1  0
131132  1  0
130133  2  0
133134  1  0
134135  2  0
135136  1  0
136137  2  3
137138  1  0
138139  3  0
137140  1  0
140141  3  0
 11  2  1  0
 23 17  1  0
 65 24  1  0
 79 66  1  0
123 82  1  0
136125  1  0
 10  5  1  0
 22 18  1  0
 34 27  1  0
 42 35  1  0
 64 43  2  0
 79 72  1  0
 92 85  1  0
100 93  1  0
122101  2  0
135128  1  0
 23  7  1  0
 55 48  1  0
 63 56  1  0
113106  1  0
121114  1  0
  1142  1  0
  6143  1  0
  9144  1  0
 17145  1  0
 18146  1  0
 19147  1  0
 20148  1  0
 21149  1  0
 22150  1  0
 22151  1  0
 23152  1  0
 28153  1  0
 29154  1  0
 32155  1  0
 32156  1  0
 32157  1  0
 33158  1  0
 34159  1  0
 36160  1  0
 37161  1  0
 40162  1  0
 40163  1  0
 40164  1  0
 41165  1  0
 42166  1  0
 49167  1  0
 50168  1  0
 53169  1  0
 53170  1  0
 53171  1  0
 54172  1  0
 55173  1  0
 57174  1  0
 58175  1  0
 61176  1  0
 61177  1  0
 61178  1  0
 62179  1  0
 63180  1  0
 75181  1  0
 75182  1  0
 76183  1  0
 76184  1  0
 76185  1  0
 80186  1  0
 80187  1  0
 81188  1  0
 81189  1  0
 81190  1  0
 86191  1  0
 87192  1  0
 90193  1  0
 90194  1  0
 90195  1  0
 91196  1  0
 92197  1  0
 94198  1  0
 95199  1  0
 98200  1  0
 98201  1  0
 98202  1  0
 99203  1  0
100204  1  0
107205  1  0
108206  1  0
111207  1  0
111208  1  0
111209  1  0
112210  1  0
113211  1  0
115212  1  0
116213  1  0
119214  1  0
119215  1  0
119216  1  0
120217  1  0
121218  1  0
124219  1  0
129220  1  0
132221  1  0
132222  1  0
132223  1  0
133224  1  0
134225  1  0
M  END

