
     RDKit          3D

237260  0  0  0  0  0  0  0  0999 V2000
   -5.5891    4.5246    2.3341 C   0  0  0  0  0  0  0  0  0  0  0  0
   -4.7482    5.4987    1.9257 C   0  0  0  0  0  0  0  0  0  0  0  0
   -3.5574    5.2907    1.0829 C   0  0  0  0  0  0  0  0  0  0  0  0
   -3.0074    4.1904    0.8191 O   0  0  0  0  0  0  0  0  0  0  0  0
   -3.1347    6.5629    0.5487 C   0  0  0  0  0  0  0  0  0  0  0  0
   -2.1162    6.7806   -0.4072 C   0  0  0  0  0  0  0  0  0  0  0  0
   -2.0424    8.0839   -0.8546 C   0  0  0  0  0  0  0  0  0  0  0  0
   -2.9273    9.1168   -0.4079 C   0  0  0  0  0  0  0  0  0  0  0  0
   -3.9260    8.9073    0.5328 C   0  0  0  0  0  0  0  0  0  0  0  0
   -3.9869    7.5817    1.0468 C   0  0  0  0  0  0  0  0  0  0  0  0
   -4.9495    6.9819    2.0192 C   0  0  0  0  0  0  0  0  0  0  0  0
   -5.6961    7.6571    2.9288 C   0  0  0  0  0  0  0  0  0  0  0  0
   -5.6447    9.0953    3.0556 C   0  0  0  0  0  0  0  0  0  0  0  0
   -5.6046   10.2473    3.1793 N   0  0  0  0  0  0  0  0  0  0  0  0
   -6.4901    6.9859    3.9280 C   0  0  0  0  0  0  0  0  0  0  0  0
   -7.1405    6.4560    4.7263 N   0  0  0  0  0  0  0  0  0  0  0  0
   -2.2965   10.0844   -1.3634 C   0  0  0  0  0  0  0  0  0  0  0  0
   -3.1137   10.4176   -2.6490 C   0  0  0  0  0  0  0  0  0  0  0  0
   -2.1378   11.0769   -3.5970 C   0  0  0  0  0  0  0  0  0  0  0  0
   -1.2990   10.1153   -4.0002 C   0  0  0  0  0  0  0  0  0  0  0  0
   -1.7386    8.8435   -3.3117 C   0  0  0  0  0  0  0  0  0  0  0  0
   -3.2378    9.0747   -3.3420 C   0  0  0  0  0  0  0  0  0  0  0  0
   -1.3832    9.0304   -1.8097 C   0  0  0  0  0  0  0  0  0  0  0  0
   -5.4002    3.1346    1.9079 C   0  0  0  0  0  0  0  0  0  0  0  0
   -4.6218    2.1517    2.5483 C   0  0  0  0  0  0  0  0  0  0  0  0
   -4.2463    2.1570    3.9356 N   0  0  0  0  0  0  0  0  0  0  0  0
   -3.6909    3.3372    4.5397 C   0  0  0  0  0  0  0  0  0  0  0  0
   -4.3292    3.9342    5.6380 C   0  0  0  0  0  0  0  0  0  0  0  0
   -3.8356    5.1279    6.1716 C   0  0  0  0  0  0  0  0  0  0  0  0
   -2.6993    5.7307    5.6185 C   0  0  0  0  0  0  0  0  0  0  0  0
   -2.0784    7.2785    6.2795 S   0  0  0  0  0  0  0  0  0  0  0  0
   -3.1021    8.2969    5.1716 C   0  0  0  0  0  0  0  0  0  0  0  0
   -2.0456    5.1198    4.5414 C   0  0  0  0  0  0  0  0  0  0  0  0
   -2.5361    3.9254    4.0057 C   0  0  0  0  0  0  0  0  0  0  0  0
   -4.5726    1.0081    4.7395 C   0  0  0  0  0  0  0  0  0  0  0  0
   -5.8402    0.4080    4.6250 C   0  0  0  0  0  0  0  0  0  0  0  0
   -6.1236   -0.7770    5.3050 C   0  0  0  0  0  0  0  0  0  0  0  0
   -5.1411   -1.3798    6.0968 C   0  0  0  0  0  0  0  0  0  0  0  0
   -5.4732   -2.9623    6.8714 S   0  0  0  0  0  0  0  0  0  0  0  0
   -5.0439   -3.9042    5.3722 C   0  0  0  0  0  0  0  0  0  0  0  0
   -3.8878   -0.7704    6.2451 C   0  0  0  0  0  0  0  0  0  0  0  0
   -3.6050    0.4231    5.5699 C   0  0  0  0  0  0  0  0  0  0  0  0
   -4.3878    1.0769    1.6937 C   0  0  0  0  0  0  0  0  0  0  0  0
   -3.4129   -0.2847    1.7476 S   0  0  0  0  0  0  0  0  0  0  0  0
   -3.7477   -0.7703    0.1436 C   0  0  0  0  0  0  0  0  0  0  0  0
   -4.6411    0.1582   -0.4255 C   0  0  0  0  0  0  0  0  0  0  0  0
   -5.4001   -0.0722   -1.6260 N   0  0  0  0  0  0  0  0  0  0  0  0
   -5.5278    1.0143   -2.5680 C   0  0  0  0  0  0  0  0  0  0  0  0
   -6.7761    1.6276   -2.7864 C   0  0  0  0  0  0  0  0  0  0  0  0
   -6.8745    2.7574   -3.6048 C   0  0  0  0  0  0  0  0  0  0  0  0
   -5.7348    3.2693   -4.2366 C   0  0  0  0  0  0  0  0  0  0  0  0
   -5.8476    4.7474   -5.2452 S   0  0  0  0  0  0  0  0  0  0  0  0
   -5.3269    5.8559   -3.8972 C   0  0  0  0  0  0  0  0  0  0  0  0
   -4.5001    2.6392   -4.0552 C   0  0  0  0  0  0  0  0  0  0  0  0
   -4.3937    1.5273   -3.2177 C   0  0  0  0  0  0  0  0  0  0  0  0
   -6.3665   -1.1535   -1.6383 C   0  0  0  0  0  0  0  0  0  0  0  0
   -6.8912   -1.6745   -0.4364 C   0  0  0  0  0  0  0  0  0  0  0  0
   -7.8065   -2.7264   -0.4570 C   0  0  0  0  0  0  0  0  0  0  0  0
   -8.2506   -3.2494   -1.6733 C   0  0  0  0  0  0  0  0  0  0  0  0
   -9.4390   -4.5972   -1.6800 S   0  0  0  0  0  0  0  0  0  0  0  0
  -10.8785   -3.4964   -1.4855 C   0  0  0  0  0  0  0  0  0  0  0  0
   -7.7581   -2.7268   -2.8738 C   0  0  0  0  0  0  0  0  0  0  0  0
   -6.8154   -1.6930   -2.8594 C   0  0  0  0  0  0  0  0  0  0  0  0
   -4.9505    1.1768    0.4657 C   0  0  0  0  0  0  0  0  0  0  0  0
   -5.8016    2.6127    0.3404 S   0  0  0  0  0  0  0  0  0  0  0  0
   -2.7552   -1.5224   -0.6366 C   0  0  0  0  0  0  0  0  0  0  0  0
   -2.0708   -2.6712   -0.1948 C   0  0  0  0  0  0  0  0  0  0  0  0
   -2.6339   -3.6947    0.6445 N   0  0  0  0  0  0  0  0  0  0  0  0
   -2.1135   -3.9239    1.9829 C   0  0  0  0  0  0  0  0  0  0  0  0
   -1.1401   -3.0687    2.5423 C   0  0  0  0  0  0  0  0  0  0  0  0
   -0.5868   -3.3360    3.7979 C   0  0  0  0  0  0  0  0  0  0  0  0
   -0.9998   -4.4575    4.5249 C   0  0  0  0  0  0  0  0  0  0  0  0
   -0.2205   -4.8454    6.0959 S   0  0  0  0  0  0  0  0  0  0  0  0
   -1.4112   -3.8859    7.0749 C   0  0  0  0  0  0  0  0  0  0  0  0
   -1.9948   -5.2871    4.0058 C   0  0  0  0  0  0  0  0  0  0  0  0
   -2.5642   -5.0143    2.7580 C   0  0  0  0  0  0  0  0  0  0  0  0
   -3.3362   -4.7175   -0.0934 C   0  0  0  0  0  0  0  0  0  0  0  0
   -4.4745   -4.3751   -0.8369 C   0  0  0  0  0  0  0  0  0  0  0  0
   -5.0288   -5.2715   -1.7526 C   0  0  0  0  0  0  0  0  0  0  0  0
   -4.4472   -6.5274   -1.9388 C   0  0  0  0  0  0  0  0  0  0  0  0
   -5.0702   -7.6279   -3.2123 S   0  0  0  0  0  0  0  0  0  0  0  0
   -6.3779   -8.3303   -2.1658 C   0  0  0  0  0  0  0  0  0  0  0  0
   -3.3381   -6.9022   -1.1678 C   0  0  0  0  0  0  0  0  0  0  0  0
   -2.7750   -5.9940   -0.2637 C   0  0  0  0  0  0  0  0  0  0  0  0
   -0.8507   -2.8258   -0.8488 C   0  0  0  0  0  0  0  0  0  0  0  0
    0.5149   -3.7498   -0.5523 S   0  0  0  0  0  0  0  0  0  0  0  0
    1.5185   -2.8748   -1.6149 C   0  0  0  0  0  0  0  0  0  0  0  0
    0.7620   -1.8335   -2.1875 C   0  0  0  0  0  0  0  0  0  0  0  0
    1.2401   -0.8904   -3.1630 N   0  0  0  0  0  0  0  0  0  0  0  0
    0.5919   -0.8232   -4.4539 C   0  0  0  0  0  0  0  0  0  0  0  0
    0.1067   -1.9926   -5.0720 C   0  0  0  0  0  0  0  0  0  0  0  0
   -0.5377   -1.9296   -6.3085 C   0  0  0  0  0  0  0  0  0  0  0  0
   -0.7141   -0.6984   -6.9451 C   0  0  0  0  0  0  0  0  0  0  0  0
   -1.5191   -0.6250   -8.5485 S   0  0  0  0  0  0  0  0  0  0  0  0
    0.0353   -0.8403   -9.4718 C   0  0  0  0  0  0  0  0  0  0  0  0
   -0.2516    0.4731   -6.3390 C   0  0  0  0  0  0  0  0  0  0  0  0
    0.3952    0.4146   -5.1013 C   0  0  0  0  0  0  0  0  0  0  0  0
    2.1992    0.1083   -2.7914 C   0  0  0  0  0  0  0  0  0  0  0  0
    3.3831    0.2446   -3.5313 C   0  0  0  0  0  0  0  0  0  0  0  0
    4.2739    1.2825   -3.2448 C   0  0  0  0  0  0  0  0  0  0  0  0
    3.9897    2.1886   -2.2155 C   0  0  0  0  0  0  0  0  0  0  0  0
    5.1148    3.5478   -1.8879 S   0  0  0  0  0  0  0  0  0  0  0  0
    4.2360    4.7071   -2.9771 C   0  0  0  0  0  0  0  0  0  0  0  0
    2.8197    2.0408   -1.4583 C   0  0  0  0  0  0  0  0  0  0  0  0
    1.9237    1.0090   -1.7511 C   0  0  0  0  0  0  0  0  0  0  0  0
   -0.5530   -1.8569   -1.7440 C   0  0  0  0  0  0  0  0  0  0  0  0
   -1.7857   -0.7325   -1.7905 S   0  0  0  0  0  0  0  0  0  0  0  0
    2.9673   -2.8298   -1.4278 C   0  0  0  0  0  0  0  0  0  0  0  0
    3.5859   -1.8416   -0.6772 C   0  0  0  0  0  0  0  0  0  0  0  0
    4.9144   -2.1323   -0.3526 C   0  0  0  0  0  0  0  0  0  0  0  0
    5.7840   -1.3220    0.4078 C   0  0  0  0  0  0  0  0  0  0  0  0
    5.3588   -0.0223    0.9783 C   0  0  0  0  0  0  0  0  0  0  0  0
    4.1639    0.2359    1.6450 C   0  0  0  0  0  0  0  0  0  0  0  0
    3.9794    1.5909    1.9588 C   0  0  0  0  0  0  0  0  0  0  0  0
    2.7391    2.1047    2.6353 C   0  0  0  0  0  0  0  0  0  0  0  0
    2.8992    2.0904    4.1502 C   0  0  0  0  0  0  0  0  0  0  0  0
    5.0575    2.3883    1.5896 C   0  0  0  0  0  0  0  0  0  0  0  0
    5.2108    4.1211    1.8257 Cl  0  0  0  0  0  0  0  0  0  0  0  0
    6.2080    1.4297    0.8284 S   0  0  0  0  0  0  0  0  0  0  0  0
    7.0862   -1.8142    0.6038 C   0  0  0  0  0  0  0  0  0  0  0  0
    7.5214   -3.0462    0.0944 C   0  0  0  0  0  0  0  0  0  0  0  0
    6.6422   -3.8541   -0.6607 C   0  0  0  0  0  0  0  0  0  0  0  0
    7.0736   -5.1354   -1.2502 C   0  0  0  0  0  0  0  0  0  0  0  0
    6.4432   -6.3629   -1.0882 C   0  0  0  0  0  0  0  0  0  0  0  0
    7.0609   -7.4060   -1.7978 C   0  0  0  0  0  0  0  0  0  0  0  0
    6.5364   -8.8147   -1.7916 C   0  0  0  0  0  0  0  0  0  0  0  0
    5.3868   -8.9675   -2.7803 C   0  0  0  0  0  0  0  0  0  0  0  0
    8.1715   -6.9826   -2.5259 C   0  0  0  0  0  0  0  0  0  0  0  0
    8.3849   -5.3343   -2.2914 S   0  0  0  0  0  0  0  0  0  0  0  0
    9.1821   -7.9722   -3.5647 Cl  0  0  0  0  0  0  0  0  0  0  0  0
    5.3357   -3.3672   -0.8543 C   0  0  0  0  0  0  0  0  0  0  0  0
    4.0468   -4.1040   -1.6661 S   0  0  0  0  0  0  0  0  0  0  0  0
    8.8329   -3.3721    0.4840 C   0  0  0  0  0  0  0  0  0  0  0  0
    9.4311   -2.3784    1.2583 C   0  0  0  0  0  0  0  0  0  0  0  0
    8.3147   -1.1477    1.5365 S   0  0  0  0  0  0  0  0  0  0  0  0
   10.7394   -2.4923    1.9211 C   0  0  0  0  0  0  0  0  0  0  0  0
   11.5986   -1.4671    2.0671 C   0  0  0  0  0  0  0  0  0  0  0  0
   11.6264   -0.2513    1.2405 C   0  0  0  0  0  0  0  0  0  0  0  0
   10.7559    0.0976    0.3984 O   0  0  0  0  0  0  0  0  0  0  0  0
   12.9090    0.4075    1.4301 C   0  0  0  0  0  0  0  0  0  0  0  0
   13.4126    1.5530    0.7969 C   0  0  0  0  0  0  0  0  0  0  0  0
   12.4505    2.5045   -0.3299 Cl  0  0  0  0  0  0  0  0  0  0  0  0
   14.7272    1.9492    1.0816 C   0  0  0  0  0  0  0  0  0  0  0  0
   15.5189    1.1938    1.9605 C   0  0  0  0  0  0  0  0  0  0  0  0
   15.0007    0.0458    2.5786 C   0  0  0  0  0  0  0  0  0  0  0  0
   13.6707   -0.3284    2.3260 C   0  0  0  0  0  0  0  0  0  0  0  0
   12.8715   -1.4764    2.8444 C   0  0  0  0  0  0  0  0  0  0  0  0
   13.1220   -2.1982    3.9688 C   0  0  0  0  0  0  0  0  0  0  0  0
   12.1427   -3.0808    4.5477 C   0  0  0  0  0  0  0  0  0  0  0  0
   11.3600   -3.7906    5.0237 N   0  0  0  0  0  0  0  0  0  0  0  0
   14.3337   -2.0602    4.7334 C   0  0  0  0  0  0  0  0  0  0  0  0
   15.3016   -1.9533    5.3632 N   0  0  0  0  0  0  0  0  0  0  0  0
   -6.5239    4.7481    2.8231 H   0  0  0  0  0  0  0  0  0  0  0  0
   -1.4898    5.9871   -0.7888 H   0  0  0  0  0  0  0  0  0  0  0  0
   -4.6160    9.6978    0.7911 H   0  0  0  0  0  0  0  0  0  0  0  0
   -1.8035   10.9466   -0.8660 H   0  0  0  0  0  0  0  0  0  0  0  0
   -4.0577   10.9740   -2.4834 H   0  0  0  0  0  0  0  0  0  0  0  0
   -2.1566   12.1006   -3.9498 H   0  0  0  0  0  0  0  0  0  0  0  0
   -0.5152   10.2322   -4.7441 H   0  0  0  0  0  0  0  0  0  0  0  0
   -1.3815    7.9028   -3.7775 H   0  0  0  0  0  0  0  0  0  0  0  0
   -3.6562    9.1400   -4.3772 H   0  0  0  0  0  0  0  0  0  0  0  0
   -3.8257    8.3211   -2.7721 H   0  0  0  0  0  0  0  0  0  0  0  0
   -0.3143    9.2096   -1.5764 H   0  0  0  0  0  0  0  0  0  0  0  0
   -5.2235    3.4884    6.0589 H   0  0  0  0  0  0  0  0  0  0  0  0
   -4.3438    5.5947    7.0069 H   0  0  0  0  0  0  0  0  0  0  0  0
   -4.1745    8.0903    5.3675 H   0  0  0  0  0  0  0  0  0  0  0  0
   -2.9052    9.3706    5.3684 H   0  0  0  0  0  0  0  0  0  0  0  0
   -2.8575    8.0725    4.1117 H   0  0  0  0  0  0  0  0  0  0  0  0
   -1.1647    5.5775    4.1106 H   0  0  0  0  0  0  0  0  0  0  0  0
   -2.0236    3.4640    3.1730 H   0  0  0  0  0  0  0  0  0  0  0  0
   -6.5993    0.8520    3.9955 H   0  0  0  0  0  0  0  0  0  0  0  0
   -7.0917   -1.2455    5.1846 H   0  0  0  0  0  0  0  0  0  0  0  0
   -5.2071   -4.9822    5.5636 H   0  0  0  0  0  0  0  0  0  0  0  0
   -3.9786   -3.7311    5.1266 H   0  0  0  0  0  0  0  0  0  0  0  0
   -5.6725   -3.5874    4.5141 H   0  0  0  0  0  0  0  0  0  0  0  0
   -3.1313   -1.2207    6.8728 H   0  0  0  0  0  0  0  0  0  0  0  0
   -2.6194    0.8699    5.6572 H   0  0  0  0  0  0  0  0  0  0  0  0
   -7.6590    1.2647   -2.2749 H   0  0  0  0  0  0  0  0  0  0  0  0
   -7.8341    3.2370   -3.7436 H   0  0  0  0  0  0  0  0  0  0  0  0
   -5.4569    6.9093   -4.2250 H   0  0  0  0  0  0  0  0  0  0  0  0
   -4.2545    5.6828   -3.6661 H   0  0  0  0  0  0  0  0  0  0  0  0
   -5.9425    5.6802   -2.9891 H   0  0  0  0  0  0  0  0  0  0  0  0
   -3.6153    3.0303   -4.5415 H   0  0  0  0  0  0  0  0  0  0  0  0
   -3.4240    1.0786   -3.0667 H   0  0  0  0  0  0  0  0  0  0  0  0
   -6.5951   -1.2707    0.5273 H   0  0  0  0  0  0  0  0  0  0  0  0
   -8.1756   -3.1232    0.4774 H   0  0  0  0  0  0  0  0  0  0  0  0
  -10.9937   -2.8607   -2.3851 H   0  0  0  0  0  0  0  0  0  0  0  0
  -10.7517   -2.8540   -0.5864 H   0  0  0  0  0  0  0  0  0  0  0  0
  -11.7899   -4.1133   -1.3580 H   0  0  0  0  0  0  0  0  0  0  0  0
   -8.0925   -3.1261   -3.8236 H   0  0  0  0  0  0  0  0  0  0  0  0
   -6.4349   -1.3058   -3.7976 H   0  0  0  0  0  0  0  0  0  0  0  0
   -0.7886   -2.1954    2.0067 H   0  0  0  0  0  0  0  0  0  0  0  0
    0.1771   -2.6791    4.1967 H   0  0  0  0  0  0  0  0  0  0  0  0
   -2.4275   -4.3060    6.9522 H   0  0  0  0  0  0  0  0  0  0  0  0
   -1.1337   -3.9360    8.1467 H   0  0  0  0  0  0  0  0  0  0  0  0
   -1.3953   -2.8285    6.7523 H   0  0  0  0  0  0  0  0  0  0  0  0
   -2.3355   -6.1483    4.5690 H   0  0  0  0  0  0  0  0  0  0  0  0
   -3.3448   -5.6696    2.3968 H   0  0  0  0  0  0  0  0  0  0  0  0
   -4.8919   -3.3893   -0.7479 H   0  0  0  0  0  0  0  0  0  0  0  0
   -5.8839   -4.9743   -2.3494 H   0  0  0  0  0  0  0  0  0  0  0  0
   -6.8493   -9.1838   -2.6967 H   0  0  0  0  0  0  0  0  0  0  0  0
   -5.9501   -8.6961   -1.2118 H   0  0  0  0  0  0  0  0  0  0  0  0
   -7.1525   -7.5614   -1.9668 H   0  0  0  0  0  0  0  0  0  0  0  0
   -2.8761   -7.8725   -1.3105 H   0  0  0  0  0  0  0  0  0  0  0  0
   -1.8675   -6.2642    0.2630 H   0  0  0  0  0  0  0  0  0  0  0  0
    0.2324   -2.9557   -4.5992 H   0  0  0  0  0  0  0  0  0  0  0  0
   -0.9007   -2.8391   -6.7680 H   0  0  0  0  0  0  0  0  0  0  0  0
   -0.1811   -0.8333  -10.5592 H   0  0  0  0  0  0  0  0  0  0  0  0
    0.5012   -1.8115   -9.2062 H   0  0  0  0  0  0  0  0  0  0  0  0
    0.7361   -0.0142   -9.2340 H   0  0  0  0  0  0  0  0  0  0  0  0
   -0.3922    1.4323   -6.8234 H   0  0  0  0  0  0  0  0  0  0  0  0
    0.7341    1.3337   -4.6466 H   0  0  0  0  0  0  0  0  0  0  0  0
    3.6027   -0.4425   -4.3376 H   0  0  0  0  0  0  0  0  0  0  0  0
    5.1817    1.3815   -3.8251 H   0  0  0  0  0  0  0  0  0  0  0  0
    4.1774    4.2984   -4.0072 H   0  0  0  0  0  0  0  0  0  0  0  0
    4.7905    5.6686   -2.9995 H   0  0  0  0  0  0  0  0  0  0  0  0
    3.2149    4.8915   -2.5855 H   0  0  0  0  0  0  0  0  0  0  0  0
    2.5955    2.7335   -0.6603 H   0  0  0  0  0  0  0  0  0  0  0  0
    1.0037    0.9210   -1.1856 H   0  0  0  0  0  0  0  0  0  0  0  0
    3.0624   -0.9615   -0.3522 H   0  0  0  0  0  0  0  0  0  0  0  0
    3.4420   -0.5290    1.8967 H   0  0  0  0  0  0  0  0  0  0  0  0
    2.5210    3.1405    2.2970 H   0  0  0  0  0  0  0  0  0  0  0  0
    1.8702    1.4745    2.3518 H   0  0  0  0  0  0  0  0  0  0  0  0
    1.9678    2.4704    4.6244 H   0  0  0  0  0  0  0  0  0  0  0  0
    3.0777    1.0543    4.5056 H   0  0  0  0  0  0  0  0  0  0  0  0
    3.7456    2.7376    4.4576 H   0  0  0  0  0  0  0  0  0  0  0  0
    5.5656   -6.5047   -0.4712 H   0  0  0  0  0  0  0  0  0  0  0  0
    7.3466   -9.5295   -2.0512 H   0  0  0  0  0  0  0  0  0  0  0  0
    6.1759   -9.0718   -0.7721 H   0  0  0  0  0  0  0  0  0  0  0  0
    5.7235   -8.7088   -3.8055 H   0  0  0  0  0  0  0  0  0  0  0  0
    5.0302  -10.0184   -2.7781 H   0  0  0  0  0  0  0  0  0  0  0  0
    4.5407   -8.3065   -2.4889 H   0  0  0  0  0  0  0  0  0  0  0  0
    9.3266   -4.3089    0.2452 H   0  0  0  0  0  0  0  0  0  0  0  0
   10.9994   -3.4667    2.3042 H   0  0  0  0  0  0  0  0  0  0  0  0
   15.1416    2.8337    0.6096 H   0  0  0  0  0  0  0  0  0  0  0  0
   16.5394    1.4967    2.1566 H   0  0  0  0  0  0  0  0  0  0  0  0
   15.6557   -0.5336    3.2079 H   0  0  0  0  0  0  0  0  0  0  0  0
  1  2  2  3
  2  3  1  0
  3  4  2  0
  3  5  1  0
  5  6  2  0
  6  7  1  0
  7  8  2  0
  8  9  1  0
  9 10  2  0
 10 11  1  0
 11 12  2  3
 12 13  1  0
 13 14  3  0
 12 15  1  0
 15 16  3  0
  8 17  1  0
 17 18  1  0
 18 19  1  0
 19 20  2  0
 20 21  1  0
 21 22  1  0
 21 23  1  0
  1 24  1  0
 24 25  2  0
 25 26  1  0
 26 27  1  0
 27 28  2  0
 28 29  1  0
 29 30  2  0
 30 31  1  0
 31 32  1  0
 30 33  1  0
 33 34  2  0
 26 35  1  0
 35 36  2  0
 36 37  1  0
 37 38  2  0
 38 39  1  0
 39 40  1  0
 38 41  1  0
 41 42  2  0
 25 43  1  0
 43 44  1  0
 44 45  1  0
 45 46  2  0
 46 47  1  0
 47 48  1  0
 48 49  2  0
 49 50  1  0
 50 51  2  0
 51 52  1  0
 52 53  1  0
 51 54  1  0
 54 55  2  0
 47 56  1  0
 56 57  2  0
 57 58  1  0
 58 59  2  0
 59 60  1  0
 60 61  1  0
 59 62  1  0
 62 63  2  0
 46 64  1  0
 64 65  1  0
 45 66  1  0
 66 67  2  0
 67 68  1  0
 68 69  1  0
 69 70  2  0
 70 71  1  0
 71 72  2  0
 72 73  1  0
 73 74  1  0
 72 75  1  0
 75 76  2  0
 68 77  1  0
 77 78  2  0
 78 79  1  0
 79 80  2  0
 80 81  1  0
 81 82  1  0
 80 83  1  0
 83 84  2  0
 67 85  1  0
 85 86  1  0
 86 87  1  0
 87 88  2  0
 88 89  1  0
 89 90  1  0
 90 91  2  0
 91 92  1  0
 92 93  2  0
 93 94  1  0
 94 95  1  0
 93 96  1  0
 96 97  2  0
 89 98  1  0
 98 99  2  0
 99100  1  0
100101  2  0
101102  1  0
102103  1  0
101104  1  0
104105  2  0
 88106  1  0
106107  1  0
 87108  1  0
108109  2  0
109110  1  0
110111  2  0
111112  1  0
112113  2  0
113114  1  0
114115  1  0
115116  1  0
114117  2  0
117118  1  0
117119  1  0
111120  1  0
120121  2  0
121122  1  0
122123  1  0
123124  2  0
124125  1  0
125126  1  0
126127  1  0
125128  2  0
128129  1  0
128130  1  0
122131  2  0
131132  1  0
121133  1  0
133134  2  0
134135  1  0
134136  1  0
136137  2  3
137138  1  0
138139  2  0
138140  1  0
140141  2  0
141142  1  0
141143  1  0
143144  2  0
144145  1  0
145146  2  0
146147  1  0
147148  2  3
148149  1  0
149150  3  0
148151  1  0
151152  3  0
 11  2  1  0
 23 17  1  0
 65 24  1  0
107 66  1  0
132108  1  0
147137  1  0
 10  5  1  0
 22 18  1  0
 34 27  1  0
 42 35  1  0
 64 43  2  0
 76 69  1  0
 84 77  1  0
106 85  2  0
131110  1  0
146140  1  0
 23  7  1  0
 55 48  1  0
 63 56  1  0
 97 90  1  0
105 98  1  0
119112  1  0
135120  1  0
129123  1  0
  1153  1  0
  6154  1  0
  9155  1  0
 17156  1  0
 18157  1  0
 19158  1  0
 20159  1  0
 21160  1  0
 22161  1  0
 22162  1  0
 23163  1  0
 28164  1  0
 29165  1  0
 32166  1  0
 32167  1  0
 32168  1  0
 33169  1  0
 34170  1  0
 36171  1  0
 37172  1  0
 40173  1  0
 40174  1  0
 40175  1  0
 41176  1  0
 42177  1  0
 49178  1  0
 50179  1  0
 53180  1  0
 53181  1  0
 53182  1  0
 54183  1  0
 55184  1  0
 57185  1  0
 58186  1  0
 61187  1  0
 61188  1  0
 61189  1  0
 62190  1  0
 63191  1  0
 70192  1  0
 71193  1  0
 74194  1  0
 74195  1  0
 74196  1  0
 75197  1  0
 76198  1  0
 78199  1  0
 79200  1  0
 82201  1  0
 82202  1  0
 82203  1  0
 83204  1  0
 84205  1  0
 91206  1  0
 92207  1  0
 95208  1  0
 95209  1  0
 95210  1  0
 96211  1  0
 97212  1  0
 99213  1  0
100214  1  0
103215  1  0
103216  1  0
103217  1  0
104218  1  0
105219  1  0
109220  1  0
113221  1  0
115222  1  0
115223  1  0
116224  1  0
116225  1  0
116226  1  0
124227  1  0
126228  1  0
126229  1  0
127230  1  0
127231  1  0
127232  1  0
133233  1  0
136234  1  0
143235  1  0
144236  1  0
145237  1  0
M  END

