
     RDKit          3D

221242  0  0  0  0  0  0  0  0999 V2000
   -5.7406   -2.8834    2.2604 C   0  0  0  0  0  0  0  0  0  0  0  0
   -6.6510   -2.8607    1.2627 C   0  0  0  0  0  0  0  0  0  0  0  0
   -6.9348   -1.7192    0.3803 C   0  0  0  0  0  0  0  0  0  0  0  0
   -6.7501   -0.5015    0.6486 O   0  0  0  0  0  0  0  0  0  0  0  0
   -7.5692   -2.2045   -0.8287 C   0  0  0  0  0  0  0  0  0  0  0  0
   -7.7837   -1.4776   -2.0287 C   0  0  0  0  0  0  0  0  0  0  0  0
   -8.2589   -2.2481   -3.0721 C   0  0  0  0  0  0  0  0  0  0  0  0
   -8.5157   -3.6553   -2.9481 C   0  0  0  0  0  0  0  0  0  0  0  0
   -8.2958   -4.3726   -1.7872 C   0  0  0  0  0  0  0  0  0  0  0  0
   -7.8152   -3.5967   -0.6909 C   0  0  0  0  0  0  0  0  0  0  0  0
   -7.3692   -4.0381    0.6654 C   0  0  0  0  0  0  0  0  0  0  0  0
   -7.6683   -5.2261    1.2624 C   0  0  0  0  0  0  0  0  0  0  0  0
   -7.3149   -5.5377    2.6205 C   0  0  0  0  0  0  0  0  0  0  0  0
   -7.0473   -5.8107    3.7054 N   0  0  0  0  0  0  0  0  0  0  0  0
   -8.4813   -6.2306    0.6222 C   0  0  0  0  0  0  0  0  0  0  0  0
   -9.1309   -7.0454    0.1262 N   0  0  0  0  0  0  0  0  0  0  0  0
   -8.8917   -3.7285   -4.3983 C   0  0  0  0  0  0  0  0  0  0  0  0
   -7.8715   -4.3912   -5.3680 C   0  0  0  0  0  0  0  0  0  0  0  0
   -6.4631   -4.1754   -4.8684 C   0  0  0  0  0  0  0  0  0  0  0  0
   -6.2100   -2.8707   -4.9941 C   0  0  0  0  0  0  0  0  0  0  0  0
   -7.4567   -2.2436   -5.5790 C   0  0  0  0  0  0  0  0  0  0  0  0
   -7.8821   -3.3781   -6.4969 C   0  0  0  0  0  0  0  0  0  0  0  0
   -8.6173   -2.2921   -4.5300 C   0  0  0  0  0  0  0  0  0  0  0  0
   -4.7520   -1.8143    2.5290 C   0  0  0  0  0  0  0  0  0  0  0  0
   -4.0809   -1.6161    3.7633 C   0  0  0  0  0  0  0  0  0  0  0  0
   -4.6362   -1.9700    5.0603 N   0  0  0  0  0  0  0  0  0  0  0  0
   -4.0244   -1.5068    6.2728 C   0  0  0  0  0  0  0  0  0  0  0  0
   -4.0469   -0.1372    6.5798 C   0  0  0  0  0  0  0  0  0  0  0  0
   -3.6822    0.3076    7.8532 C   0  0  0  0  0  0  0  0  0  0  0  0
   -3.2550   -0.6056    8.8197 C   0  0  0  0  0  0  0  0  0  0  0  0
   -2.9070   -0.0423   10.4928 S   0  0  0  0  0  0  0  0  0  0  0  0
   -1.1622    0.3555   10.1639 C   0  0  0  0  0  0  0  0  0  0  0  0
   -3.1879   -1.9722    8.5055 C   0  0  0  0  0  0  0  0  0  0  0  0
   -3.5793   -2.4229    7.2360 C   0  0  0  0  0  0  0  0  0  0  0  0
   -6.0434   -2.2351    5.1772 C   0  0  0  0  0  0  0  0  0  0  0  0
   -6.9818   -1.2693    4.7736 C   0  0  0  0  0  0  0  0  0  0  0  0
   -8.3540   -1.5254    4.8726 C   0  0  0  0  0  0  0  0  0  0  0  0
   -8.7949   -2.7568    5.3650 C   0  0  0  0  0  0  0  0  0  0  0  0
  -10.5498   -3.1187    5.3993 S   0  0  0  0  0  0  0  0  0  0  0  0
  -10.5227   -4.0514    3.8358 C   0  0  0  0  0  0  0  0  0  0  0  0
   -7.8637   -3.7052    5.8139 C   0  0  0  0  0  0  0  0  0  0  0  0
   -6.4901   -3.4525    5.7084 C   0  0  0  0  0  0  0  0  0  0  0  0
   -2.9040   -0.8647    3.5704 C   0  0  0  0  0  0  0  0  0  0  0  0
   -1.4903   -0.5773    4.4347 S   0  0  0  0  0  0  0  0  0  0  0  0
   -0.6797    0.2670    3.1863 C   0  0  0  0  0  0  0  0  0  0  0  0
   -1.5623    0.3190    2.0899 C   0  0  0  0  0  0  0  0  0  0  0  0
   -1.4015    1.1792    0.9481 N   0  0  0  0  0  0  0  0  0  0  0  0
   -0.9736    0.6513   -0.3403 C   0  0  0  0  0  0  0  0  0  0  0  0
   -0.5733   -0.6971   -0.4742 C   0  0  0  0  0  0  0  0  0  0  0  0
   -0.1931   -1.2101   -1.7152 C   0  0  0  0  0  0  0  0  0  0  0  0
   -0.1976   -0.3871   -2.8479 C   0  0  0  0  0  0  0  0  0  0  0  0
    0.2858   -1.0450   -4.4437 S   0  0  0  0  0  0  0  0  0  0  0  0
   -1.3843   -1.6700   -4.8325 C   0  0  0  0  0  0  0  0  0  0  0  0
   -0.5882    0.9497   -2.7301 C   0  0  0  0  0  0  0  0  0  0  0  0
   -0.9712    1.4681   -1.4906 C   0  0  0  0  0  0  0  0  0  0  0  0
   -2.0179    2.4843    1.0420 C   0  0  0  0  0  0  0  0  0  0  0  0
   -3.4110    2.6206    1.1491 C   0  0  0  0  0  0  0  0  0  0  0  0
   -3.9977    3.8864    1.2327 C   0  0  0  0  0  0  0  0  0  0  0  0
   -3.1958    5.0292    1.2424 C   0  0  0  0  0  0  0  0  0  0  0  0
   -3.9586    6.6472    1.3599 S   0  0  0  0  0  0  0  0  0  0  0  0
   -4.0313    6.6359    3.1844 C   0  0  0  0  0  0  0  0  0  0  0  0
   -1.8042    4.9057    1.1399 C   0  0  0  0  0  0  0  0  0  0  0  0
   -1.2268    3.6413    1.0220 C   0  0  0  0  0  0  0  0  0  0  0  0
   -2.7351   -0.3804    2.3234 C   0  0  0  0  0  0  0  0  0  0  0  0
   -3.9094   -0.9901    1.3015 S   0  0  0  0  0  0  0  0  0  0  0  0
    0.7658    0.0856    2.9814 C   0  0  0  0  0  0  0  0  0  0  0  0
    1.7497    1.0761    2.7930 C   0  0  0  0  0  0  0  0  0  0  0  0
    1.6047    2.4608    3.1578 N   0  0  0  0  0  0  0  0  0  0  0  0
    1.2830    2.7077    4.5348 C   0  0  0  0  0  0  0  0  0  0  0  0
    0.0285    3.2252    4.8965 C   0  0  0  0  0  0  0  0  0  0  0  0
   -0.2226    3.5807    6.2261 C   0  0  0  0  0  0  0  0  0  0  0  0
    0.7721    3.4204    7.2021 C   0  0  0  0  0  0  0  0  0  0  0  0
    0.4876    3.9686    8.8838 S   0  0  0  0  0  0  0  0  0  0  0  0
    1.1676    5.6339    8.5928 C   0  0  0  0  0  0  0  0  0  0  0  0
    2.0126    2.8781    6.8453 C   0  0  0  0  0  0  0  0  0  0  0  0
    2.2605    2.5048    5.5238 C   0  0  0  0  0  0  0  0  0  0  0  0
    2.1653    3.5326    2.3423 C   0  0  0  0  0  0  0  0  0  0  0  0
    2.5788    4.7567    2.9315 C   0  0  0  0  0  0  0  0  0  0  0  0
    3.1452    5.7600    2.1517 C   0  0  0  0  0  0  0  0  0  0  0  0
    3.3108    5.5778    0.7721 C   0  0  0  0  0  0  0  0  0  0  0  0
    4.0700    6.8648   -0.2223 S   0  0  0  0  0  0  0  0  0  0  0  0
    5.7585    6.2559    0.0729 C   0  0  0  0  0  0  0  0  0  0  0  0
    2.8805    4.3932    0.1708 C   0  0  0  0  0  0  0  0  0  0  0  0
    2.3053    3.3839    0.9505 C   0  0  0  0  0  0  0  0  0  0  0  0
    2.9281    0.5203    2.2806 C   0  0  0  0  0  0  0  0  0  0  0  0
    4.3313    1.1473    1.6245 S   0  0  0  0  0  0  0  0  0  0  0  0
    4.8394   -0.2995    0.8787 C   0  0  0  0  0  0  0  0  0  0  0  0
    3.9355   -1.3137    1.2544 C   0  0  0  0  0  0  0  0  0  0  0  0
    4.1802   -2.7222    1.0971 N   0  0  0  0  0  0  0  0  0  0  0  0
    4.5107   -3.4507    2.2956 C   0  0  0  0  0  0  0  0  0  0  0  0
    3.7844   -4.5960    2.6573 C   0  0  0  0  0  0  0  0  0  0  0  0
    4.0548   -5.2488    3.8641 C   0  0  0  0  0  0  0  0  0  0  0  0
    5.0524   -4.7621    4.7182 C   0  0  0  0  0  0  0  0  0  0  0  0
    5.3876   -5.5922    6.2777 S   0  0  0  0  0  0  0  0  0  0  0  0
    4.2304   -4.5492    7.2168 C   0  0  0  0  0  0  0  0  0  0  0  0
    5.7836   -3.6267    4.3610 C   0  0  0  0  0  0  0  0  0  0  0  0
    5.5141   -2.9724    3.1568 C   0  0  0  0  0  0  0  0  0  0  0  0
    4.0532   -3.3800   -0.1881 C   0  0  0  0  0  0  0  0  0  0  0  0
    3.2170   -2.8485   -1.1930 C   0  0  0  0  0  0  0  0  0  0  0  0
    3.1074   -3.4842   -2.4329 C   0  0  0  0  0  0  0  0  0  0  0  0
    3.8290   -4.6589   -2.6872 C   0  0  0  0  0  0  0  0  0  0  0  0
    3.6774   -5.4931   -4.2717 S   0  0  0  0  0  0  0  0  0  0  0  0
    2.3109   -6.5656   -3.7217 C   0  0  0  0  0  0  0  0  0  0  0  0
    4.6698   -5.1855   -1.7049 C   0  0  0  0  0  0  0  0  0  0  0  0
    4.7783   -4.5551   -0.4633 C   0  0  0  0  0  0  0  0  0  0  0  0
    2.8900   -0.8073    2.0291 C   0  0  0  0  0  0  0  0  0  0  0  0
    1.3996   -1.4223    2.4770 S   0  0  0  0  0  0  0  0  0  0  0  0
    5.5242   -0.2662   -0.4291 C   0  0  0  0  0  0  0  0  0  0  0  0
    5.1562    0.7493   -1.3354 C   0  0  0  0  0  0  0  0  0  0  0  0
    5.7045    0.7505   -2.6103 C   0  0  0  0  0  0  0  0  0  0  0  0
    5.4414    1.6268   -3.6085 N   0  0  0  0  0  0  0  0  0  0  0  0
    4.5114    2.7588   -3.5643 C   0  0  0  0  0  0  0  0  0  0  0  0
    3.0914    2.2938   -3.8915 C   0  0  0  0  0  0  0  0  0  0  0  0
    6.1478    1.1699   -4.6695 C   0  0  0  0  0  0  0  0  0  0  0  0
    6.8650    0.0325   -4.3386 C   0  0  0  0  0  0  0  0  0  0  0  0
    6.5736   -0.2386   -3.0140 C   0  0  0  0  0  0  0  0  0  0  0  0
    6.9647   -1.2692   -2.1502 C   0  0  0  0  0  0  0  0  0  0  0  0
    6.4318   -1.2746   -0.8404 C   0  0  0  0  0  0  0  0  0  0  0  0
    7.6661   -0.6187   -5.2727 C   0  0  0  0  0  0  0  0  0  0  0  0
    7.7444   -0.0719   -6.5729 C   0  0  0  0  0  0  0  0  0  0  0  0
    7.0337    1.1074   -6.9042 C   0  0  0  0  0  0  0  0  0  0  0  0
    6.1911    1.7143   -5.9505 C   0  0  0  0  0  0  0  0  0  0  0  0
    7.1361    1.6811   -8.2567 C   0  0  0  0  0  0  0  0  0  0  0  0
    7.3314    2.9954   -8.4917 C   0  0  0  0  0  0  0  0  0  0  0  0
    7.9101    3.9547   -7.5357 C   0  0  0  0  0  0  0  0  0  0  0  0
    8.2151    3.7336   -6.3315 O   0  0  0  0  0  0  0  0  0  0  0  0
    8.2327    5.1728   -8.2503 C   0  0  0  0  0  0  0  0  0  0  0  0
    7.8984    5.0301   -9.5864 C   0  0  0  0  0  0  0  0  0  0  0  0
    8.2155    6.0533  -10.4984 C   0  0  0  0  0  0  0  0  0  0  0  0
    8.8038    7.2359  -10.0152 C   0  0  0  0  0  0  0  0  0  0  0  0
    9.0923    8.2409  -10.8811 F   0  0  0  0  0  0  0  0  0  0  0  0
    9.0980    7.3804   -8.6497 C   0  0  0  0  0  0  0  0  0  0  0  0
    9.6531    8.5295   -8.1983 F   0  0  0  0  0  0  0  0  0  0  0  0
    8.8297    6.3352   -7.7580 C   0  0  0  0  0  0  0  0  0  0  0  0
    9.1323    6.4552   -6.4405 F   0  0  0  0  0  0  0  0  0  0  0  0
    7.2319    3.7100   -9.8026 C   0  0  0  0  0  0  0  0  0  0  0  0
    6.4437    3.3550  -10.8562 C   0  0  0  0  0  0  0  0  0  0  0  0
    5.5706    2.2052  -10.8052 C   0  0  0  0  0  0  0  0  0  0  0  0
    4.8664    1.2965  -10.7554 N   0  0  0  0  0  0  0  0  0  0  0  0
    6.2944    4.1827  -12.0191 C   0  0  0  0  0  0  0  0  0  0  0  0
    6.1543    4.8484  -12.9571 N   0  0  0  0  0  0  0  0  0  0  0  0
   -5.5943   -3.7815    2.8333 H   0  0  0  0  0  0  0  0  0  0  0  0
   -7.5479   -0.4257   -2.1387 H   0  0  0  0  0  0  0  0  0  0  0  0
   -8.4065   -5.4426   -1.7870 H   0  0  0  0  0  0  0  0  0  0  0  0
   -9.9578   -4.0077   -4.5732 H   0  0  0  0  0  0  0  0  0  0  0  0
   -8.1034   -5.4373   -5.6592 H   0  0  0  0  0  0  0  0  0  0  0  0
   -5.7728   -4.9403   -4.5346 H   0  0  0  0  0  0  0  0  0  0  0  0
   -5.2631   -2.3831   -4.7762 H   0  0  0  0  0  0  0  0  0  0  0  0
   -7.2913   -1.2639   -6.0744 H   0  0  0  0  0  0  0  0  0  0  0  0
   -8.8920   -3.2365   -6.9554 H   0  0  0  0  0  0  0  0  0  0  0  0
   -7.1390   -3.6038   -7.2977 H   0  0  0  0  0  0  0  0  0  0  0  0
   -9.5120   -1.6853   -4.7921 H   0  0  0  0  0  0  0  0  0  0  0  0
   -4.4204    0.5726    5.8566 H   0  0  0  0  0  0  0  0  0  0  0  0
   -3.7531    1.3653    8.0952 H   0  0  0  0  0  0  0  0  0  0  0  0
   -0.7088    0.7826   11.0862 H   0  0  0  0  0  0  0  0  0  0  0  0
   -1.0951    1.1020    9.3492 H   0  0  0  0  0  0  0  0  0  0  0  0
   -0.6115   -0.5660    9.8840 H   0  0  0  0  0  0  0  0  0  0  0  0
   -2.8952   -2.6955    9.2623 H   0  0  0  0  0  0  0  0  0  0  0  0
   -3.5888   -3.4852    7.0241 H   0  0  0  0  0  0  0  0  0  0  0  0
   -6.6528   -0.3122    4.3864 H   0  0  0  0  0  0  0  0  0  0  0  0
   -9.0650   -0.7737    4.5520 H   0  0  0  0  0  0  0  0  0  0  0  0
  -11.5664   -4.2720    3.5176 H   0  0  0  0  0  0  0  0  0  0  0  0
   -9.9994   -5.0136    4.0056 H   0  0  0  0  0  0  0  0  0  0  0  0
  -10.0107   -3.4789    3.0334 H   0  0  0  0  0  0  0  0  0  0  0  0
   -8.1981   -4.6560    6.2131 H   0  0  0  0  0  0  0  0  0  0  0  0
   -5.7722   -4.1972    6.0371 H   0  0  0  0  0  0  0  0  0  0  0  0
   -0.5929   -1.3675    0.3705 H   0  0  0  0  0  0  0  0  0  0  0  0
    0.0820   -2.2498   -1.8059 H   0  0  0  0  0  0  0  0  0  0  0  0
   -1.3863   -2.0751   -5.8648 H   0  0  0  0  0  0  0  0  0  0  0  0
   -1.6484   -2.4853   -4.1280 H   0  0  0  0  0  0  0  0  0  0  0  0
   -2.1347   -0.8533   -4.7646 H   0  0  0  0  0  0  0  0  0  0  0  0
   -0.6046    1.5972   -3.6034 H   0  0  0  0  0  0  0  0  0  0  0  0
   -1.2679    2.5080   -1.4455 H   0  0  0  0  0  0  0  0  0  0  0  0
   -4.0554    1.7561    1.1550 H   0  0  0  0  0  0  0  0  0  0  0  0
   -5.0750    3.9737    1.2897 H   0  0  0  0  0  0  0  0  0  0  0  0
   -4.2527    5.6282    3.5893 H   0  0  0  0  0  0  0  0  0  0  0  0
   -4.8338    7.3262    3.5155 H   0  0  0  0  0  0  0  0  0  0  0  0
   -3.0621    6.9905    3.5875 H   0  0  0  0  0  0  0  0  0  0  0  0
   -1.1725    5.7874    1.1326 H   0  0  0  0  0  0  0  0  0  0  0  0
   -0.1701    3.5545    0.8973 H   0  0  0  0  0  0  0  0  0  0  0  0
   -0.7296    3.3955    4.1383 H   0  0  0  0  0  0  0  0  0  0  0  0
   -1.1939    3.9795    6.4981 H   0  0  0  0  0  0  0  0  0  0  0  0
    0.5665    6.1714    7.8334 H   0  0  0  0  0  0  0  0  0  0  0  0
    2.2190    5.5589    8.2444 H   0  0  0  0  0  0  0  0  0  0  0  0
    1.1498    6.2098    9.5385 H   0  0  0  0  0  0  0  0  0  0  0  0
    2.7863    2.7571    7.5874 H   0  0  0  0  0  0  0  0  0  0  0  0
    3.2292    2.1045    5.2509 H   0  0  0  0  0  0  0  0  0  0  0  0
    2.4900    4.9231    4.0006 H   0  0  0  0  0  0  0  0  0  0  0  0
    3.4777    6.6820    2.6238 H   0  0  0  0  0  0  0  0  0  0  0  0
    6.4806    6.9898   -0.3390 H   0  0  0  0  0  0  0  0  0  0  0  0
    5.9543    6.1440    1.1599 H   0  0  0  0  0  0  0  0  0  0  0  0
    5.9111    5.2855   -0.4387 H   0  0  0  0  0  0  0  0  0  0  0  0
    2.9900    4.2493   -0.8924 H   0  0  0  0  0  0  0  0  0  0  0  0
    1.9726    2.4802    0.4568 H   0  0  0  0  0  0  0  0  0  0  0  0
    2.9884   -4.9629    2.0190 H   0  0  0  0  0  0  0  0  0  0  0  0
    3.4741   -6.1207    4.1442 H   0  0  0  0  0  0  0  0  0  0  0  0
    3.2011   -4.6905    6.8327 H   0  0  0  0  0  0  0  0  0  0  0  0
    4.2594   -4.8432    8.2854 H   0  0  0  0  0  0  0  0  0  0  0  0
    4.5173   -3.4840    7.1295 H   0  0  0  0  0  0  0  0  0  0  0  0
    6.5539   -3.2456    5.0165 H   0  0  0  0  0  0  0  0  0  0  0  0
    6.0813   -2.0850    2.9005 H   0  0  0  0  0  0  0  0  0  0  0  0
    2.6460   -1.9468   -1.0142 H   0  0  0  0  0  0  0  0  0  0  0  0
    2.4656   -3.0674   -3.1953 H   0  0  0  0  0  0  0  0  0  0  0  0
    2.5697   -7.0624   -2.7636 H   0  0  0  0  0  0  0  0  0  0  0  0
    1.3880   -5.9634   -3.5992 H   0  0  0  0  0  0  0  0  0  0  0  0
    2.1376   -7.3455   -4.4891 H   0  0  0  0  0  0  0  0  0  0  0  0
    5.2383   -6.0889   -1.9013 H   0  0  0  0  0  0  0  0  0  0  0  0
    5.4488   -4.9747    0.2757 H   0  0  0  0  0  0  0  0  0  0  0  0
    4.4229    1.4967   -1.0682 H   0  0  0  0  0  0  0  0  0  0  0  0
    4.5400    3.2258   -2.5516 H   0  0  0  0  0  0  0  0  0  0  0  0
    4.8290    3.5553   -4.2782 H   0  0  0  0  0  0  0  0  0  0  0  0
    2.3530    3.0717   -3.6081 H   0  0  0  0  0  0  0  0  0  0  0  0
    2.8447    1.3517   -3.3559 H   0  0  0  0  0  0  0  0  0  0  0  0
    3.0151    2.1100   -4.9821 H   0  0  0  0  0  0  0  0  0  0  0  0
    7.6319   -2.0553   -2.4836 H   0  0  0  0  0  0  0  0  0  0  0  0
    6.7114   -2.0669   -0.1587 H   0  0  0  0  0  0  0  0  0  0  0  0
    8.2052   -1.5194   -5.0086 H   0  0  0  0  0  0  0  0  0  0  0  0
    8.3758   -0.5599   -7.3105 H   0  0  0  0  0  0  0  0  0  0  0  0
    5.6138    2.5902   -6.2139 H   0  0  0  0  0  0  0  0  0  0  0  0
    7.0073    1.0064   -9.0867 H   0  0  0  0  0  0  0  0  0  0  0  0
    8.0498    5.9506  -11.5559 H   0  0  0  0  0  0  0  0  0  0  0  0
  1  2  2  3
  2  3  1  0
  3  4  2  0
  3  5  1  0
  5  6  2  0
  6  7  1  0
  7  8  2  0
  8  9  1  0
  9 10  2  0
 10 11  1  0
 11 12  2  3
 12 13  1  0
 13 14  3  0
 12 15  1  0
 15 16  3  0
  8 17  1  0
 17 18  1  0
 18 19  1  0
 19 20  2  0
 20 21  1  0
 21 22  1  0
 21 23  1  0
  1 24  1  0
 24 25  2  0
 25 26  1  0
 26 27  1  0
 27 28  2  0
 28 29  1  0
 29 30  2  0
 30 31  1  0
 31 32  1  0
 30 33  1  0
 33 34  2  0
 26 35  1  0
 35 36  2  0
 36 37  1  0
 37 38  2  0
 38 39  1  0
 39 40  1  0
 38 41  1  0
 41 42  2  0
 25 43  1  0
 43 44  1  0
 44 45  1  0
 45 46  2  0
 46 47  1  0
 47 48  1  0
 48 49  2  0
 49 50  1  0
 50 51  2  0
 51 52  1  0
 52 53  1  0
 51 54  1  0
 54 55  2  0
 47 56  1  0
 56 57  2  0
 57 58  1  0
 58 59  2  0
 59 60  1  0
 60 61  1  0
 59 62  1  0
 62 63  2  0
 46 64  1  0
 64 65  1  0
 45 66  1  0
 66 67  2  0
 67 68  1  0
 68 69  1  0
 69 70  2  0
 70 71  1  0
 71 72  2  0
 72 73  1  0
 73 74  1  0
 72 75  1  0
 75 76  2  0
 68 77  1  0
 77 78  2  0
 78 79  1  0
 79 80  2  0
 80 81  1  0
 81 82  1  0
 80 83  1  0
 83 84  2  0
 67 85  1  0
 85 86  1  0
 86 87  1  0
 87 88  2  0
 88 89  1  0
 89 90  1  0
 90 91  2  0
 91 92  1  0
 92 93  2  0
 93 94  1  0
 94 95  1  0
 93 96  1  0
 96 97  2  0
 89 98  1  0
 98 99  2  0
 99100  1  0
100101  2  0
101102  1  0
102103  1  0
101104  1  0
104105  2  0
 88106  1  0
106107  1  0
 87108  1  0
108109  2  0
109110  1  0
110111  1  0
111112  1  0
112113  1  0
111114  1  0
114115  2  0
115116  1  0
116117  1  0
117118  2  0
115119  1  0
119120  2  0
120121  1  0
121122  2  0
121123  1  0
123124  2  3
124125  1  0
125126  2  0
125127  1  0
127128  2  0
128129  1  0
129130  2  0
130131  1  0
130132  1  0
132133  1  0
132134  2  0
134135  1  0
128136  1  0
136137  2  3
137138  1  0
138139  3  0
137140  1  0
140141  3  0
 11  2  1  0
 23 17  1  0
 65 24  1  0
107 66  1  0
118108  1  0
136124  1  0
 10  5  1  0
 22 18  1  0
 34 27  1  0
 42 35  1  0
 64 43  2  0
 76 69  1  0
 84 77  1  0
106 85  2  0
116110  2  0
134127  1  0
 23  7  1  0
 55 48  1  0
 63 56  1  0
 97 90  1  0
105 98  1  0
122114  1  0
  1142  1  0
  6143  1  0
  9144  1  0
 17145  1  0
 18146  1  0
 19147  1  0
 20148  1  0
 21149  1  0
 22150  1  0
 22151  1  0
 23152  1  0
 28153  1  0
 29154  1  0
 32155  1  0
 32156  1  0
 32157  1  0
 33158  1  0
 34159  1  0
 36160  1  0
 37161  1  0
 40162  1  0
 40163  1  0
 40164  1  0
 41165  1  0
 42166  1  0
 49167  1  0
 50168  1  0
 53169  1  0
 53170  1  0
 53171  1  0
 54172  1  0
 55173  1  0
 57174  1  0
 58175  1  0
 61176  1  0
 61177  1  0
 61178  1  0
 62179  1  0
 63180  1  0
 70181  1  0
 71182  1  0
 74183  1  0
 74184  1  0
 74185  1  0
 75186  1  0
 76187  1  0
 78188  1  0
 79189  1  0
 82190  1  0
 82191  1  0
 82192  1  0
 83193  1  0
 84194  1  0
 91195  1  0
 92196  1  0
 95197  1  0
 95198  1  0
 95199  1  0
 96200  1  0
 97201  1  0
 99202  1  0
100203  1  0
103204  1  0
103205  1  0
103206  1  0
104207  1  0
105208  1  0
109209  1  0
112210  1  0
112211  1  0
113212  1  0
113213  1  0
113214  1  0
117215  1  0
118216  1  0
119217  1  0
120218  1  0
122219  1  0
123220  1  0
129221  1  0
M  END

