
     RDKit          3D

162183  0  0  0  0  0  0  0  0999 V2000
   -3.9975    4.4344   -4.6917 C   0  0  0  0  0  0  0  0  0  0  0  0
   -3.1833    4.5601   -5.7560 C   0  0  0  0  0  0  0  0  0  0  0  0
   -3.2805    5.7029   -6.6622 C   0  0  0  0  0  0  0  0  0  0  0  0
   -4.3277    6.3521   -6.9270 O   0  0  0  0  0  0  0  0  0  0  0  0
   -1.9380    6.0651   -7.0829 C   0  0  0  0  0  0  0  0  0  0  0  0
   -1.5291    7.2686   -7.7039 C   0  0  0  0  0  0  0  0  0  0  0  0
   -0.1562    7.4364   -7.7569 C   0  0  0  0  0  0  0  0  0  0  0  0
    0.7709    6.4741   -7.2404 C   0  0  0  0  0  0  0  0  0  0  0  0
    0.3834    5.3009   -6.6223 C   0  0  0  0  0  0  0  0  0  0  0  0
   -1.0245    5.1121   -6.5556 C   0  0  0  0  0  0  0  0  0  0  0  0
   -1.7832    4.0590   -5.8536 C   0  0  0  0  0  0  0  0  0  0  0  0
   -1.3756    2.7903   -5.6127 C   0  0  0  0  0  0  0  0  0  0  0  0
   -0.0223    2.3571   -5.8345 C   0  0  0  0  0  0  0  0  0  0  0  0
    1.0660    1.9965   -6.0014 N   0  0  0  0  0  0  0  0  0  0  0  0
   -2.3156    1.7474   -5.2898 C   0  0  0  0  0  0  0  0  0  0  0  0
   -3.0535    0.8934   -5.0383 N   0  0  0  0  0  0  0  0  0  0  0  0
    1.9220    7.3628   -7.5978 C   0  0  0  0  0  0  0  0  0  0  0  0
    2.6148    8.0926   -6.4105 C   0  0  0  0  0  0  0  0  0  0  0  0
    3.4480    9.1871   -7.0339 C   0  0  0  0  0  0  0  0  0  0  0  0
    2.5862   10.0959   -7.5044 C   0  0  0  0  0  0  0  0  0  0  0  0
    1.1992    9.5825   -7.1832 C   0  0  0  0  0  0  0  0  0  0  0  0
    1.4959    8.9497   -5.8372 C   0  0  0  0  0  0  0  0  0  0  0  0
    0.9752    8.3549   -8.1147 C   0  0  0  0  0  0  0  0  0  0  0  0
   -3.4794    4.0015   -3.3777 C   0  0  0  0  0  0  0  0  0  0  0  0
   -2.3925    4.6716   -2.7935 C   0  0  0  0  0  0  0  0  0  0  0  0
   -1.7432    4.1606   -1.6479 C   0  0  0  0  0  0  0  0  0  0  0  0
   -0.6199    4.9284   -1.2061 N   0  0  0  0  0  0  0  0  0  0  0  0
   -0.6180    6.1007   -2.2860 S   0  0  0  0  0  4  0  0  0  0  0  0
   -1.8189    5.8803   -3.3146 N   0  0  0  0  0  0  0  0  0  0  0  0
   -2.1628    2.9648   -1.0454 C   0  0  0  0  0  0  0  0  0  0  0  0
   -3.3119    2.3336   -1.5699 C   0  0  0  0  0  0  0  0  0  0  0  0
   -3.8090    1.1717   -1.0756 N   0  0  0  0  0  0  0  0  0  0  0  0
   -5.0868    0.9239   -2.0921 S   0  0  0  0  0  0  0  0  0  0  0  0
   -5.0641    2.1767   -3.1697 N   0  0  0  0  0  0  0  0  0  0  0  0
   -3.9877    2.8710   -2.7171 C   0  0  0  0  0  0  0  0  0  0  0  0
   -1.2994    2.3113   -0.0397 C   0  0  0  0  0  0  0  0  0  0  0  0
   -1.6800    1.6506    1.1454 C   0  0  0  0  0  0  0  0  0  0  0  0
   -3.0002    1.7000    1.7339 N   0  0  0  0  0  0  0  0  0  0  0  0
   -3.5408    0.5407    2.3994 C   0  0  0  0  0  0  0  0  0  0  0  0
   -4.1877    0.6758    3.6407 C   0  0  0  0  0  0  0  0  0  0  0  0
   -4.6913   -0.4473    4.3028 C   0  0  0  0  0  0  0  0  0  0  0  0
   -4.5508   -1.7171    3.7341 C   0  0  0  0  0  0  0  0  0  0  0  0
   -5.1649   -3.1583    4.6102 S   0  0  0  0  0  0  0  0  0  0  0  0
   -3.6036   -3.4206    5.5107 C   0  0  0  0  0  0  0  0  0  0  0  0
   -3.9234   -1.8592    2.4914 C   0  0  0  0  0  0  0  0  0  0  0  0
   -3.4172   -0.7384    1.8270 C   0  0  0  0  0  0  0  0  0  0  0  0
   -3.7723    2.9199    1.6727 C   0  0  0  0  0  0  0  0  0  0  0  0
   -3.1655    4.1662    1.9081 C   0  0  0  0  0  0  0  0  0  0  0  0
   -3.9051    5.3449    1.8053 C   0  0  0  0  0  0  0  0  0  0  0  0
   -5.2640    5.2944    1.4730 C   0  0  0  0  0  0  0  0  0  0  0  0
   -6.2194    6.8076    1.3260 S   0  0  0  0  0  0  0  0  0  0  0  0
   -6.7352    6.7818    3.0722 C   0  0  0  0  0  0  0  0  0  0  0  0
   -5.8789    4.0602    1.2424 C   0  0  0  0  0  0  0  0  0  0  0  0
   -5.1413    2.8759    1.3543 C   0  0  0  0  0  0  0  0  0  0  0  0
   -0.5837    0.9849    1.7060 C   0  0  0  0  0  0  0  0  0  0  0  0
   -0.3269   -0.0395    2.9920 S   0  0  0  0  0  0  0  0  0  0  0  0
    1.3399   -0.3626    2.7056 C   0  0  0  0  0  0  0  0  0  0  0  0
    1.6818    0.4180    1.5553 C   0  0  0  0  0  0  0  0  0  0  0  0
    2.9832    0.5993    0.9707 N   0  0  0  0  0  0  0  0  0  0  0  0
    3.9277    1.5128    1.5739 C   0  0  0  0  0  0  0  0  0  0  0  0
    5.3015    1.3807    1.2999 C   0  0  0  0  0  0  0  0  0  0  0  0
    6.2137    2.3337    1.7551 C   0  0  0  0  0  0  0  0  0  0  0  0
    5.7669    3.4419    2.4763 C   0  0  0  0  0  0  0  0  0  0  0  0
    6.9225    4.7345    2.9314 S   0  0  0  0  0  0  0  0  0  0  0  0
    6.7306    5.6007    1.3400 C   0  0  0  0  0  0  0  0  0  0  0  0
    4.4109    3.5617    2.7987 C   0  0  0  0  0  0  0  0  0  0  0  0
    3.4940    2.6020    2.3561 C   0  0  0  0  0  0  0  0  0  0  0  0
    3.1495    0.2282   -0.4129 C   0  0  0  0  0  0  0  0  0  0  0  0
    3.5081    1.1938   -1.3740 C   0  0  0  0  0  0  0  0  0  0  0  0
    3.6428    0.8392   -2.7186 C   0  0  0  0  0  0  0  0  0  0  0  0
    3.4311   -0.4836   -3.1187 C   0  0  0  0  0  0  0  0  0  0  0  0
    3.6343   -0.9391   -4.8400 S   0  0  0  0  0  0  0  0  0  0  0  0
    5.4246   -1.2289   -4.6689 C   0  0  0  0  0  0  0  0  0  0  0  0
    3.0534   -1.4450   -2.1711 C   0  0  0  0  0  0  0  0  0  0  0  0
    2.9016   -1.0890   -0.8264 C   0  0  0  0  0  0  0  0  0  0  0  0
    0.5843    1.1129    1.0444 C   0  0  0  0  0  0  0  0  0  0  0  0
    0.3627    2.0672   -0.3092 S   0  0  0  0  0  0  0  0  0  0  0  0
    2.0519   -1.5380    3.3595 C   0  0  0  0  0  0  0  0  0  0  0  0
    1.3772   -2.3259    4.3340 C   0  0  0  0  0  0  0  0  0  0  0  0
    1.7627   -3.6638    4.6155 C   0  0  0  0  0  0  0  0  0  0  0  0
    0.9508   -4.3408    5.5822 N   0  0  0  0  0  0  0  0  0  0  0  0
   -0.0857   -3.1893    5.9512 S   0  0  0  0  0  4  0  0  0  0  0  0
    0.2469   -1.8844    5.0972 N   0  0  0  0  0  0  0  0  0  0  0  0
    2.8511   -4.2537    3.9718 C   0  0  0  0  0  0  0  0  0  0  0  0
    3.6792   -3.4245    3.2126 C   0  0  0  0  0  0  0  0  0  0  0  0
    4.8467   -3.8676    2.6732 N   0  0  0  0  0  0  0  0  0  0  0  0
    5.3524   -2.5134    1.8855 S   0  0  0  0  0  0  0  0  0  0  0  0
    4.1811   -1.3857    2.1551 N   0  0  0  0  0  0  0  0  0  0  0  0
    3.2929   -2.0724    2.9097 C   0  0  0  0  0  0  0  0  0  0  0  0
    3.1032   -5.7061    4.0234 C   0  0  0  0  0  0  0  0  0  0  0  0
    2.2101   -6.6522    3.6740 C   0  0  0  0  0  0  0  0  0  0  0  0
    2.4530   -8.0789    3.8660 C   0  0  0  0  0  0  0  0  0  0  0  0
    3.5608   -8.6091    4.1640 O   0  0  0  0  0  0  0  0  0  0  0  0
    1.2117   -8.7944    3.6652 C   0  0  0  0  0  0  0  0  0  0  0  0
    1.0395  -10.1977    3.6237 C   0  0  0  0  0  0  0  0  0  0  0  0
   -0.2334  -10.5931    3.2685 C   0  0  0  0  0  0  0  0  0  0  0  0
   -1.2947   -9.6683    3.0010 C   0  0  0  0  0  0  0  0  0  0  0  0
   -1.1351   -8.2943    3.0364 C   0  0  0  0  0  0  0  0  0  0  0  0
    0.1814   -7.8613    3.3638 C   0  0  0  0  0  0  0  0  0  0  0  0
    0.7850   -6.5035    3.2378 C   0  0  0  0  0  0  0  0  0  0  0  0
    0.2922   -5.5258    2.4369 C   0  0  0  0  0  0  0  0  0  0  0  0
    1.1532   -4.7719    1.5618 C   0  0  0  0  0  0  0  0  0  0  0  0
    1.8457   -4.1797    0.8516 N   0  0  0  0  0  0  0  0  0  0  0  0
   -1.1197   -5.3099    2.2705 C   0  0  0  0  0  0  0  0  0  0  0  0
   -2.2588   -5.1316    2.1523 N   0  0  0  0  0  0  0  0  0  0  0  0
   -2.2202  -10.8014    2.6770 C   0  0  0  0  0  0  0  0  0  0  0  0
   -2.5482  -11.0092    1.1671 C   0  0  0  0  0  0  0  0  0  0  0  0
   -3.1258  -12.4015    1.0561 C   0  0  0  0  0  0  0  0  0  0  0  0
   -2.1144  -13.2527    1.2704 C   0  0  0  0  0  0  0  0  0  0  0  0
   -0.8946  -12.4069    1.5316 C   0  0  0  0  0  0  0  0  0  0  0  0
   -1.1828  -11.2771    0.5556 C   0  0  0  0  0  0  0  0  0  0  0  0
   -1.1253  -11.7463    2.9277 C   0  0  0  0  0  0  0  0  0  0  0  0
   -4.9748    4.9048   -4.7050 H   0  0  0  0  0  0  0  0  0  0  0  0
   -2.2224    8.0217   -8.0548 H   0  0  0  0  0  0  0  0  0  0  0  0
    1.1079    4.6543   -6.1547 H   0  0  0  0  0  0  0  0  0  0  0  0
    2.6028    6.9258   -8.3633 H   0  0  0  0  0  0  0  0  0  0  0  0
    3.1514    7.4433   -5.6882 H   0  0  0  0  0  0  0  0  0  0  0  0
    4.5314    9.2766   -7.0268 H   0  0  0  0  0  0  0  0  0  0  0  0
    2.8510   11.0528   -7.9468 H   0  0  0  0  0  0  0  0  0  0  0  0
    0.3923   10.3454   -7.1908 H   0  0  0  0  0  0  0  0  0  0  0  0
    0.6474    8.3674   -5.4124 H   0  0  0  0  0  0  0  0  0  0  0  0
    1.8414    9.6800   -5.0640 H   0  0  0  0  0  0  0  0  0  0  0  0
    1.0563    8.5558   -9.2057 H   0  0  0  0  0  0  0  0  0  0  0  0
   -4.2917    1.6480    4.1021 H   0  0  0  0  0  0  0  0  0  0  0  0
   -5.1766   -0.3296    5.2636 H   0  0  0  0  0  0  0  0  0  0  0  0
   -2.8143   -3.7518    4.8043 H   0  0  0  0  0  0  0  0  0  0  0  0
   -3.7538   -4.2058    6.2786 H   0  0  0  0  0  0  0  0  0  0  0  0
   -3.2801   -2.4835    6.0108 H   0  0  0  0  0  0  0  0  0  0  0  0
   -3.8223   -2.8369    2.0434 H   0  0  0  0  0  0  0  0  0  0  0  0
   -2.9261   -0.8637    0.8705 H   0  0  0  0  0  0  0  0  0  0  0  0
   -2.1163    4.2214    2.1706 H   0  0  0  0  0  0  0  0  0  0  0  0
   -3.4226    6.2973    1.9836 H   0  0  0  0  0  0  0  0  0  0  0  0
   -5.8573    6.9457    3.7346 H   0  0  0  0  0  0  0  0  0  0  0  0
   -7.2142    5.8114    3.3193 H   0  0  0  0  0  0  0  0  0  0  0  0
   -7.4732    7.5905    3.2396 H   0  0  0  0  0  0  0  0  0  0  0  0
   -6.9296    4.0159    0.9783 H   0  0  0  0  0  0  0  0  0  0  0  0
   -5.6281    1.9298    1.1607 H   0  0  0  0  0  0  0  0  0  0  0  0
    5.6619    0.5500    0.7045 H   0  0  0  0  0  0  0  0  0  0  0  0
    7.2604    2.2285    1.5040 H   0  0  0  0  0  0  0  0  0  0  0  0
    7.0328    4.9287    0.5102 H   0  0  0  0  0  0  0  0  0  0  0  0
    5.6781    5.9176    1.1962 H   0  0  0  0  0  0  0  0  0  0  0  0
    7.3869    6.4897    1.3235 H   0  0  0  0  0  0  0  0  0  0  0  0
    4.0570    4.4179    3.3573 H   0  0  0  0  0  0  0  0  0  0  0  0
    2.4428    2.7463    2.5705 H   0  0  0  0  0  0  0  0  0  0  0  0
    3.6711    2.2216   -1.0845 H   0  0  0  0  0  0  0  0  0  0  0  0
    3.9179    1.5924   -3.4443 H   0  0  0  0  0  0  0  0  0  0  0  0
    5.9283   -0.3183   -4.2826 H   0  0  0  0  0  0  0  0  0  0  0  0
    5.6074   -2.0797   -3.9791 H   0  0  0  0  0  0  0  0  0  0  0  0
    5.8424   -1.4734   -5.6638 H   0  0  0  0  0  0  0  0  0  0  0  0
    2.8812   -2.4706   -2.4714 H   0  0  0  0  0  0  0  0  0  0  0  0
    2.6078   -1.8357   -0.1040 H   0  0  0  0  0  0  0  0  0  0  0  0
    4.1003   -6.0113    4.3162 H   0  0  0  0  0  0  0  0  0  0  0  0
    1.8470  -10.9020    3.7922 H   0  0  0  0  0  0  0  0  0  0  0  0
   -1.9543   -7.6443    2.7764 H   0  0  0  0  0  0  0  0  0  0  0  0
   -3.0843  -10.8862    3.3730 H   0  0  0  0  0  0  0  0  0  0  0  0
   -3.1407  -10.2046    0.6868 H   0  0  0  0  0  0  0  0  0  0  0  0
   -4.1310  -12.6748    0.7574 H   0  0  0  0  0  0  0  0  0  0  0  0
   -2.1586  -14.3326    1.1697 H   0  0  0  0  0  0  0  0  0  0  0  0
    0.0808  -12.9237    1.3984 H   0  0  0  0  0  0  0  0  0  0  0  0
   -1.2277  -11.6179   -0.5084 H   0  0  0  0  0  0  0  0  0  0  0  0
   -0.4757  -10.4226    0.6243 H   0  0  0  0  0  0  0  0  0  0  0  0
   -1.2982  -12.4458    3.7746 H   0  0  0  0  0  0  0  0  0  0  0  0
  1  2  2  3
  2  3  1  0
  3  4  2  0
  3  5  1  0
  5  6  2  0
  6  7  1  0
  7  8  2  0
  8  9  1  0
  9 10  2  0
 10 11  1  0
 11 12  2  3
 12 13  1  0
 13 14  3  0
 12 15  1  0
 15 16  3  0
  8 17  1  0
 17 18  1  0
 18 19  1  0
 19 20  2  0
 20 21  1  0
 21 22  1  0
 21 23  1  0
  1 24  1  0
 24 25  2  0
 25 26  1  0
 26 27  1  0
 27 28  2  0
 28 29  2  0
 26 30  2  0
 30 31  1  0
 31 32  2  0
 32 33  1  0
 33 34  1  0
 34 35  2  0
 30 36  1  0
 36 37  2  0
 37 38  1  0
 38 39  1  0
 39 40  2  0
 40 41  1  0
 41 42  2  0
 42 43  1  0
 43 44  1  0
 42 45  1  0
 45 46  2  0
 38 47  1  0
 47 48  2  0
 48 49  1  0
 49 50  2  0
 50 51  1  0
 51 52  1  0
 50 53  1  0
 53 54  2  0
 37 55  1  0
 55 56  1  0
 56 57  1  0
 57 58  2  0
 58 59  1  0
 59 60  1  0
 60 61  2  0
 61 62  1  0
 62 63  2  0
 63 64  1  0
 64 65  1  0
 63 66  1  0
 66 67  2  0
 59 68  1  0
 68 69  2  0
 69 70  1  0
 70 71  2  0
 71 72  1  0
 72 73  1  0
 71 74  1  0
 74 75  2  0
 58 76  1  0
 76 77  1  0
 57 78  1  0
 78 79  2  0
 79 80  1  0
 80 81  1  0
 81 82  2  0
 82 83  2  0
 80 84  2  0
 84 85  1  0
 85 86  2  0
 86 87  1  0
 87 88  1  0
 88 89  2  0
 84 90  1  0
 90 91  2  3
 91 92  1  0
 92 93  2  0
 92 94  1  0
 94 95  2  0
 95 96  1  0
 96 97  2  0
 97 98  1  0
 98 99  2  0
 99100  1  0
100101  2  3
101102  1  0
102103  3  0
101104  1  0
104105  3  0
 97106  1  0
106107  1  0
107108  1  0
108109  2  0
109110  1  0
110111  1  0
110112  1  0
 11  2  1  0
 23 17  1  0
 35 24  1  0
 77 36  1  0
 89 78  1  0
100 91  1  0
112106  1  0
 10  5  1  0
 22 18  1  0
 29 25  1  0
 35 31  1  0
 46 39  1  0
 54 47  1  0
 76 55  2  0
 83 79  1  0
 89 85  1  0
 99 94  1  0
111107  1  0
 23  7  1  0
 67 60  1  0
 75 68  1  0
112 96  1  0
  1113  1  0
  6114  1  0
  9115  1  0
 17116  1  0
 18117  1  0
 19118  1  0
 20119  1  0
 21120  1  0
 22121  1  0
 22122  1  0
 23123  1  0
 40124  1  0
 41125  1  0
 44126  1  0
 44127  1  0
 44128  1  0
 45129  1  0
 46130  1  0
 48131  1  0
 49132  1  0
 52133  1  0
 52134  1  0
 52135  1  0
 53136  1  0
 54137  1  0
 61138  1  0
 62139  1  0
 65140  1  0
 65141  1  0
 65142  1  0
 66143  1  0
 67144  1  0
 69145  1  0
 70146  1  0
 73147  1  0
 73148  1  0
 73149  1  0
 74150  1  0
 75151  1  0
 90152  1  0
 95153  1  0
 98154  1  0
106155  1  0
107156  1  0
108157  1  0
109158  1  0
110159  1  0
111160  1  0
111161  1  0
112162  1  0
M  END

