
     RDKit          3D

280306  0  0  0  0  0  0  0  0999 V2000
    1.9092   -3.7653   -4.7410 C   0  0  0  0  0  0  0  0  0  0  0  0
    0.7846   -3.8717   -5.4650 C   0  0  0  0  0  0  0  0  0  0  0  0
   -0.0519   -5.0683   -5.5898 C   0  0  0  0  0  0  0  0  0  0  0  0
    0.0463   -6.1231   -4.9094 O   0  0  0  0  0  0  0  0  0  0  0  0
   -0.9129   -4.8990   -6.7448 C   0  0  0  0  0  0  0  0  0  0  0  0
   -1.8594   -5.8219   -7.2451 C   0  0  0  0  0  0  0  0  0  0  0  0
   -2.5259   -5.3844   -8.3750 C   0  0  0  0  0  0  0  0  0  0  0  0
   -2.2627   -4.1220   -8.9979 C   0  0  0  0  0  0  0  0  0  0  0  0
   -1.3221   -3.2242   -8.5285 C   0  0  0  0  0  0  0  0  0  0  0  0
   -0.6495   -3.6373   -7.3461 C   0  0  0  0  0  0  0  0  0  0  0  0
    0.3487   -2.9093   -6.5177 C   0  0  0  0  0  0  0  0  0  0  0  0
    0.5536   -1.5644   -6.4910 C   0  0  0  0  0  0  0  0  0  0  0  0
    1.1307   -0.9102   -5.3445 C   0  0  0  0  0  0  0  0  0  0  0  0
    1.5814   -0.3860   -4.4141 N   0  0  0  0  0  0  0  0  0  0  0  0
    0.0638   -0.6722   -7.5094 C   0  0  0  0  0  0  0  0  0  0  0  0
   -0.3122    0.0609   -8.3219 N   0  0  0  0  0  0  0  0  0  0  0  0
   -3.2900   -4.4093  -10.0505 C   0  0  0  0  0  0  0  0  0  0  0  0
   -2.7546   -4.8006  -11.4598 C   0  0  0  0  0  0  0  0  0  0  0  0
   -3.9282   -5.4056  -12.1927 C   0  0  0  0  0  0  0  0  0  0  0  0
   -4.1751   -6.5855  -11.6099 C   0  0  0  0  0  0  0  0  0  0  0  0
   -3.1582   -6.7358  -10.5047 C   0  0  0  0  0  0  0  0  0  0  0  0
   -1.9722   -6.0728  -11.1849 C   0  0  0  0  0  0  0  0  0  0  0  0
   -3.5600   -5.7006   -9.4126 C   0  0  0  0  0  0  0  0  0  0  0  0
    2.1505   -4.4484   -3.4539 C   0  0  0  0  0  0  0  0  0  0  0  0
    3.3723   -4.4387   -2.7403 C   0  0  0  0  0  0  0  0  0  0  0  0
    4.6890   -4.2344   -3.3004 N   0  0  0  0  0  0  0  0  0  0  0  0
    4.9561   -3.0935   -4.1313 C   0  0  0  0  0  0  0  0  0  0  0  0
    4.6342   -1.8002   -3.6883 C   0  0  0  0  0  0  0  0  0  0  0  0
    4.8370   -0.7003   -4.5285 C   0  0  0  0  0  0  0  0  0  0  0  0
    5.3570   -0.8861   -5.8143 C   0  0  0  0  0  0  0  0  0  0  0  0
    5.5764    0.5160   -6.9096 S   0  0  0  0  0  0  0  0  0  0  0  0
    3.8779    0.4237   -7.5625 C   0  0  0  0  0  0  0  0  0  0  0  0
    5.7077   -2.1703   -6.2487 C   0  0  0  0  0  0  0  0  0  0  0  0
    5.5150   -3.2703   -5.4069 C   0  0  0  0  0  0  0  0  0  0  0  0
    5.7798   -5.0877   -2.8723 C   0  0  0  0  0  0  0  0  0  0  0  0
    5.5430   -6.4384   -2.5476 C   0  0  0  0  0  0  0  0  0  0  0  0
    6.5638   -7.2345   -2.0224 C   0  0  0  0  0  0  0  0  0  0  0  0
    7.8411   -6.6987   -1.8289 C   0  0  0  0  0  0  0  0  0  0  0  0
    9.1351   -7.7082   -1.1024 S   0  0  0  0  0  0  0  0  0  0  0  0
    8.7503   -7.1866    0.6012 C   0  0  0  0  0  0  0  0  0  0  0  0
    8.1023   -5.3739   -2.1903 C   0  0  0  0  0  0  0  0  0  0  0  0
    7.0804   -4.5704   -2.7072 C   0  0  0  0  0  0  0  0  0  0  0  0
    3.1724   -4.6361   -1.3742 C   0  0  0  0  0  0  0  0  0  0  0  0
    4.0476   -4.0652   -0.0688 S   0  0  0  0  0  0  0  0  0  0  0  0
    2.7449   -4.0866    1.0338 C   0  0  0  0  0  0  0  0  0  0  0  0
    1.6175   -4.5821    0.3489 C   0  0  0  0  0  0  0  0  0  0  0  0
    0.3503   -4.8916    0.9529 N   0  0  0  0  0  0  0  0  0  0  0  0
   -0.5921   -3.8578    1.3227 C   0  0  0  0  0  0  0  0  0  0  0  0
   -0.5867   -2.6076    0.6732 C   0  0  0  0  0  0  0  0  0  0  0  0
   -1.4807   -1.6053    1.0635 C   0  0  0  0  0  0  0  0  0  0  0  0
   -2.3884   -1.8376    2.1019 C   0  0  0  0  0  0  0  0  0  0  0  0
   -3.5309   -0.5546    2.6073 S   0  0  0  0  0  0  0  0  0  0  0  0
   -4.8696   -1.1532    1.5319 C   0  0  0  0  0  0  0  0  0  0  0  0
   -2.4023   -3.0755    2.7522 C   0  0  0  0  0  0  0  0  0  0  0  0
   -1.5090   -4.0767    2.3688 C   0  0  0  0  0  0  0  0  0  0  0  0
    0.0262   -6.2891    1.0943 C   0  0  0  0  0  0  0  0  0  0  0  0
    0.9692   -7.1802    1.6378 C   0  0  0  0  0  0  0  0  0  0  0  0
    0.6941   -8.5477    1.7050 C   0  0  0  0  0  0  0  0  0  0  0  0
   -0.5245   -9.0404    1.2297 C   0  0  0  0  0  0  0  0  0  0  0  0
   -0.8613  -10.8013    1.2949 S   0  0  0  0  0  0  0  0  0  0  0  0
   -0.1377  -11.1240   -0.3463 C   0  0  0  0  0  0  0  0  0  0  0  0
   -1.4780   -8.1587    0.7025 C   0  0  0  0  0  0  0  0  0  0  0  0
   -1.2038   -6.7893    0.6328 C   0  0  0  0  0  0  0  0  0  0  0  0
    1.8902   -4.8515   -0.9903 C   0  0  0  0  0  0  0  0  0  0  0  0
    0.8952   -4.7378   -2.3288 S   0  0  0  0  0  0  0  0  0  0  0  0
    2.6584   -3.0597    2.0833 C   0  0  0  0  0  0  0  0  0  0  0  0
    1.7732   -3.0444    3.1638 C   0  0  0  0  0  0  0  0  0  0  0  0
    1.4906   -1.7413    3.6328 C   0  0  0  0  0  0  0  0  0  0  0  0
    0.5058   -1.3900    4.5873 C   0  0  0  0  0  0  0  0  0  0  0  0
   -0.0441   -2.4017    5.5158 C   0  0  0  0  0  0  0  0  0  0  0  0
   -1.3601   -2.5396    5.9559 C   0  0  0  0  0  0  0  0  0  0  0  0
   -1.5377   -3.6090    6.8463 C   0  0  0  0  0  0  0  0  0  0  0  0
   -0.3628   -4.2953    7.1305 C   0  0  0  0  0  0  0  0  0  0  0  0
   -0.1751   -5.8424    8.1191 Si  0  0  0  0  0  4  0  0  0  0  0  0
   -1.2956   -5.8057    9.6340 C   0  0  0  0  0  0  0  0  0  0  0  0
   -2.6947   -6.3334    9.3475 C   0  0  0  0  0  0  0  0  0  0  0  0
   -0.4827   -7.3365    7.0122 C   0  0  0  0  0  0  0  0  0  0  0  0
   -1.5534   -7.0666    5.9609 C   0  0  0  0  0  0  0  0  0  0  0  0
    1.6140   -5.9148    8.7051 C   0  0  0  0  0  0  0  0  0  0  0  0
    1.9357   -7.2167    9.4311 C   0  0  0  0  0  0  0  0  0  0  0  0
    0.8807   -3.5947    6.2582 S   0  0  0  0  0  0  0  0  0  0  0  0
    0.1426   -0.0240    4.6386 C   0  0  0  0  0  0  0  0  0  0  0  0
    0.7792    0.9535    3.8590 C   0  0  0  0  0  0  0  0  0  0  0  0
    1.8520    0.6125    3.0166 C   0  0  0  0  0  0  0  0  0  0  0  0
    2.5605    1.5953    2.1728 C   0  0  0  0  0  0  0  0  0  0  0  0
    1.9938    2.3618    1.1583 C   0  0  0  0  0  0  0  0  0  0  0  0
    2.9448    3.0116    0.3622 C   0  0  0  0  0  0  0  0  0  0  0  0
    4.2568    2.7636    0.7503 C   0  0  0  0  0  0  0  0  0  0  0  0
    5.7780    3.1916   -0.2023 Si  0  0  0  0  0  4  0  0  0  0  0  0
    7.2491    2.9315    0.9530 C   0  0  0  0  0  0  0  0  0  0  0  0
    8.4670    3.7620    0.5691 C   0  0  0  0  0  0  0  0  0  0  0  0
    5.6224    4.9931   -0.7466 C   0  0  0  0  0  0  0  0  0  0  0  0
    6.4656    5.3211   -1.9726 C   0  0  0  0  0  0  0  0  0  0  0  0
    5.8098    1.9956   -1.6592 C   0  0  0  0  0  0  0  0  0  0  0  0
    7.1977    1.8156   -2.2599 C   0  0  0  0  0  0  0  0  0  0  0  0
    4.2347    1.7166    2.0597 S   0  0  0  0  0  0  0  0  0  0  0  0
    2.1652   -0.7482    2.9186 C   0  0  0  0  0  0  0  0  0  0  0  0
    3.1065   -1.4741    1.7421 S   0  0  0  0  0  0  0  0  0  0  0  0
    0.1725    2.2128    3.9388 C   0  0  0  0  0  0  0  0  0  0  0  0
   -0.9546    2.2415    4.7580 C   0  0  0  0  0  0  0  0  0  0  0  0
   -1.1713    0.6944    5.4135 S   0  0  0  0  0  0  0  0  0  0  0  0
   -2.0486    3.2153    4.5692 C   0  0  0  0  0  0  0  0  0  0  0  0
   -1.8840    4.5371    4.0818 C   0  0  0  0  0  0  0  0  0  0  0  0
   -0.7234    5.3763    4.3225 N   0  0  0  0  0  0  0  0  0  0  0  0
    0.2204    5.0635    5.3604 C   0  0  0  0  0  0  0  0  0  0  0  0
    1.5965    5.1031    5.0897 C   0  0  0  0  0  0  0  0  0  0  0  0
    2.5201    4.8436    6.1051 C   0  0  0  0  0  0  0  0  0  0  0  0
    2.0779    4.5573    7.4010 C   0  0  0  0  0  0  0  0  0  0  0  0
    3.2619    4.2527    8.7118 S   0  0  0  0  0  0  0  0  0  0  0  0
    3.3733    6.0090    9.1787 C   0  0  0  0  0  0  0  0  0  0  0  0
    0.7070    4.5231    7.6797 C   0  0  0  0  0  0  0  0  0  0  0  0
   -0.2200    4.7809    6.6654 C   0  0  0  0  0  0  0  0  0  0  0  0
   -0.7455    6.7461    3.8982 C   0  0  0  0  0  0  0  0  0  0  0  0
   -1.4844    7.6883    4.6315 C   0  0  0  0  0  0  0  0  0  0  0  0
   -1.5718    9.0097    4.1915 C   0  0  0  0  0  0  0  0  0  0  0  0
   -0.9360    9.3979    3.0055 C   0  0  0  0  0  0  0  0  0  0  0  0
   -1.0858   11.0917    2.4299 S   0  0  0  0  0  0  0  0  0  0  0  0
   -2.6724   10.7969    1.5858 C   0  0  0  0  0  0  0  0  0  0  0  0
   -0.1925    8.4612    2.2748 C   0  0  0  0  0  0  0  0  0  0  0  0
   -0.0898    7.1399    2.7244 C   0  0  0  0  0  0  0  0  0  0  0  0
   -2.9875    4.9183    3.3006 C   0  0  0  0  0  0  0  0  0  0  0  0
   -3.1355    5.9749    1.9999 S   0  0  0  0  0  0  0  0  0  0  0  0
   -4.5127    5.2244    1.3419 C   0  0  0  0  0  0  0  0  0  0  0  0
   -4.8892    4.1711    2.1788 C   0  0  0  0  0  0  0  0  0  0  0  0
   -6.0093    3.3041    1.9571 N   0  0  0  0  0  0  0  0  0  0  0  0
   -7.0342    3.3275    2.9613 C   0  0  0  0  0  0  0  0  0  0  0  0
   -7.2099    2.2339    3.8244 C   0  0  0  0  0  0  0  0  0  0  0  0
   -8.1016    2.3257    4.8997 C   0  0  0  0  0  0  0  0  0  0  0  0
   -8.8314    3.5025    5.1081 C   0  0  0  0  0  0  0  0  0  0  0  0
   -9.9448    3.6437    6.5055 S   0  0  0  0  0  0  0  0  0  0  0  0
   -8.6875    4.4070    7.5793 C   0  0  0  0  0  0  0  0  0  0  0  0
   -8.6841    4.5797    4.2255 C   0  0  0  0  0  0  0  0  0  0  0  0
   -7.7775    4.4985    3.1650 C   0  0  0  0  0  0  0  0  0  0  0  0
   -6.0696    2.4037    0.8261 C   0  0  0  0  0  0  0  0  0  0  0  0
   -4.9085    2.0912    0.0885 C   0  0  0  0  0  0  0  0  0  0  0  0
   -4.9717    1.2209   -1.0030 C   0  0  0  0  0  0  0  0  0  0  0  0
   -6.1854    0.6251   -1.3585 C   0  0  0  0  0  0  0  0  0  0  0  0
   -6.2522   -0.5390   -2.7211 S   0  0  0  0  0  0  0  0  0  0  0  0
   -6.6888    0.7340   -3.9441 C   0  0  0  0  0  0  0  0  0  0  0  0
   -7.3441    0.9192   -0.6313 C   0  0  0  0  0  0  0  0  0  0  0  0
   -7.2889    1.8065    0.4463 C   0  0  0  0  0  0  0  0  0  0  0  0
   -4.0042    4.0168    3.2450 C   0  0  0  0  0  0  0  0  0  0  0  0
   -3.5880    2.6530    4.1105 S   0  0  0  0  0  0  0  0  0  0  0  0
   -5.0613    5.4963    0.0042 C   0  0  0  0  0  0  0  0  0  0  0  0
   -4.3036    5.4531   -1.1099 C   0  0  0  0  0  0  0  0  0  0  0  0
   -2.8625    5.1544   -1.1747 C   0  0  0  0  0  0  0  0  0  0  0  0
   -2.2058    4.4464   -0.3697 O   0  0  0  0  0  0  0  0  0  0  0  0
   -2.3228    5.7497   -2.3756 C   0  0  0  0  0  0  0  0  0  0  0  0
   -0.9582    5.9093   -2.7088 C   0  0  0  0  0  0  0  0  0  0  0  0
   -0.7500    6.7131   -3.8152 C   0  0  0  0  0  0  0  0  0  0  0  0
   -1.8155    7.3309   -4.5495 C   0  0  0  0  0  0  0  0  0  0  0  0
   -3.1566    7.1559   -4.2395 C   0  0  0  0  0  0  0  0  0  0  0  0
   -3.3908    6.3096   -3.1223 C   0  0  0  0  0  0  0  0  0  0  0  0
   -4.6753    5.9845   -2.4502 C   0  0  0  0  0  0  0  0  0  0  0  0
   -5.8845    5.8834   -3.0505 C   0  0  0  0  0  0  0  0  0  0  0  0
   -6.0761    6.2053   -4.4390 C   0  0  0  0  0  0  0  0  0  0  0  0
   -6.2370    6.4554   -5.5571 N   0  0  0  0  0  0  0  0  0  0  0  0
   -7.0060    5.2644   -2.3963 C   0  0  0  0  0  0  0  0  0  0  0  0
   -7.9126    4.7607   -1.8802 N   0  0  0  0  0  0  0  0  0  0  0  0
   -0.8209    8.0209   -5.4394 C   0  0  0  0  0  0  0  0  0  0  0  0
   -0.6460    7.4889   -6.8927 C   0  0  0  0  0  0  0  0  0  0  0  0
   -0.9412    6.0095   -6.9374 C   0  0  0  0  0  0  0  0  0  0  0  0
    0.0352    5.4036   -6.2620 C   0  0  0  0  0  0  0  0  0  0  0  0
    0.9691    6.4947   -5.7851 C   0  0  0  0  0  0  0  0  0  0  0  0
    0.8698    7.4314   -6.9733 C   0  0  0  0  0  0  0  0  0  0  0  0
    0.2658    7.3685   -4.7028 C   0  0  0  0  0  0  0  0  0  0  0  0
    2.5973   -2.9912   -5.0229 H   0  0  0  0  0  0  0  0  0  0  0  0
   -2.0567   -6.7818   -6.7856 H   0  0  0  0  0  0  0  0  0  0  0  0
   -1.1393   -2.3009   -9.0523 H   0  0  0  0  0  0  0  0  0  0  0  0
   -4.1461   -3.6981  -10.0399 H   0  0  0  0  0  0  0  0  0  0  0  0
   -2.2100   -4.0031  -12.0097 H   0  0  0  0  0  0  0  0  0  0  0  0
   -4.4246   -5.0153  -13.0742 H   0  0  0  0  0  0  0  0  0  0  0  0
   -4.9046   -7.3193  -11.9368 H   0  0  0  0  0  0  0  0  0  0  0  0
   -2.9969   -7.7730  -10.1445 H   0  0  0  0  0  0  0  0  0  0  0  0
   -1.6451   -6.6014  -12.1125 H   0  0  0  0  0  0  0  0  0  0  0  0
   -1.0880   -5.9287  -10.5242 H   0  0  0  0  0  0  0  0  0  0  0  0
   -4.5891   -5.8082   -9.0005 H   0  0  0  0  0  0  0  0  0  0  0  0
    4.2047   -1.6499   -2.7058 H   0  0  0  0  0  0  0  0  0  0  0  0
    4.5656    0.2898   -4.1885 H   0  0  0  0  0  0  0  0  0  0  0  0
    3.7541    1.1797   -8.3658 H   0  0  0  0  0  0  0  0  0  0  0  0
    3.1482    0.6376   -6.7546 H   0  0  0  0  0  0  0  0  0  0  0  0
    3.6835   -0.5835   -7.9884 H   0  0  0  0  0  0  0  0  0  0  0  0
    6.1148   -2.3209   -7.2417 H   0  0  0  0  0  0  0  0  0  0  0  0
    5.7712   -4.2634   -5.7560 H   0  0  0  0  0  0  0  0  0  0  0  0
    4.5600   -6.8703   -2.6796 H   0  0  0  0  0  0  0  0  0  0  0  0
    6.3580   -8.2628   -1.7505 H   0  0  0  0  0  0  0  0  0  0  0  0
    8.9492   -6.1005    0.7190 H   0  0  0  0  0  0  0  0  0  0  0  0
    9.3920   -7.7486    1.3086 H   0  0  0  0  0  0  0  0  0  0  0  0
    7.6864   -7.3978    0.8386 H   0  0  0  0  0  0  0  0  0  0  0  0
    9.0910   -4.9575   -2.0489 H   0  0  0  0  0  0  0  0  0  0  0  0
    7.2987   -3.5370   -2.9423 H   0  0  0  0  0  0  0  0  0  0  0  0
    0.1059   -2.4069   -0.1347 H   0  0  0  0  0  0  0  0  0  0  0  0
   -1.4632   -0.6470    0.5613 H   0  0  0  0  0  0  0  0  0  0  0  0
   -4.5465   -1.1169    0.4725 H   0  0  0  0  0  0  0  0  0  0  0  0
   -5.1440   -2.1942    1.8003 H   0  0  0  0  0  0  0  0  0  0  0  0
   -5.7574   -0.5031    1.6669 H   0  0  0  0  0  0  0  0  0  0  0  0
   -3.1007   -3.2615    3.5597 H   0  0  0  0  0  0  0  0  0  0  0  0
   -1.5205   -5.0172    2.9053 H   0  0  0  0  0  0  0  0  0  0  0  0
    1.9201   -6.8142    2.0009 H   0  0  0  0  0  0  0  0  0  0  0  0
    1.4318   -9.2247    2.1180 H   0  0  0  0  0  0  0  0  0  0  0  0
   -0.7421  -10.6243   -1.1312 H   0  0  0  0  0  0  0  0  0  0  0  0
    0.9082  -10.7525   -0.3882 H   0  0  0  0  0  0  0  0  0  0  0  0
   -0.1354  -12.2156   -0.5342 H   0  0  0  0  0  0  0  0  0  0  0  0
   -2.4232   -8.5369    0.3343 H   0  0  0  0  0  0  0  0  0  0  0  0
   -1.9381   -6.1210    0.1981 H   0  0  0  0  0  0  0  0  0  0  0  0
    1.2500   -3.9296    3.4944 H   0  0  0  0  0  0  0  0  0  0  0  0
   -2.1805   -1.9226    5.6171 H   0  0  0  0  0  0  0  0  0  0  0  0
   -2.5020   -3.8773    7.2528 H   0  0  0  0  0  0  0  0  0  0  0  0
   -1.3611   -4.7594    9.9984 H   0  0  0  0  0  0  0  0  0  0  0  0
   -0.8413   -6.4225   10.4354 H   0  0  0  0  0  0  0  0  0  0  0  0
   -2.6515   -7.3944    9.0224 H   0  0  0  0  0  0  0  0  0  0  0  0
   -3.3028   -6.2801   10.2744 H   0  0  0  0  0  0  0  0  0  0  0  0
   -3.1911   -5.7246    8.5656 H   0  0  0  0  0  0  0  0  0  0  0  0
   -0.7770   -8.2027    7.6405 H   0  0  0  0  0  0  0  0  0  0  0  0
    0.4655   -7.5903    6.4933 H   0  0  0  0  0  0  0  0  0  0  0  0
   -2.4962   -6.7194    6.4312 H   0  0  0  0  0  0  0  0  0  0  0  0
   -1.7660   -8.0014    5.4008 H   0  0  0  0  0  0  0  0  0  0  0  0
   -1.1990   -6.2998    5.2395 H   0  0  0  0  0  0  0  0  0  0  0  0
    1.8062   -5.0557    9.3835 H   0  0  0  0  0  0  0  0  0  0  0  0
    2.2769   -5.8194    7.8178 H   0  0  0  0  0  0  0  0  0  0  0  0
    1.3881   -7.2659   10.3952 H   0  0  0  0  0  0  0  0  0  0  0  0
    1.6714   -8.0945    8.8059 H   0  0  0  0  0  0  0  0  0  0  0  0
    3.0245   -7.2526    9.6462 H   0  0  0  0  0  0  0  0  0  0  0  0
    0.9334    2.3894    0.9480 H   0  0  0  0  0  0  0  0  0  0  0  0
    2.6830    3.5851   -0.5150 H   0  0  0  0  0  0  0  0  0  0  0  0
    6.9408    3.2113    1.9815 H   0  0  0  0  0  0  0  0  0  0  0  0
    7.5174    1.8554    0.9553 H   0  0  0  0  0  0  0  0  0  0  0  0
    8.8174    3.5007   -0.4496 H   0  0  0  0  0  0  0  0  0  0  0  0
    8.2274    4.8448    0.6187 H   0  0  0  0  0  0  0  0  0  0  0  0
    9.2910    3.5587    1.2848 H   0  0  0  0  0  0  0  0  0  0  0  0
    5.9208    5.6479    0.1008 H   0  0  0  0  0  0  0  0  0  0  0  0
    4.5581    5.1999   -0.9841 H   0  0  0  0  0  0  0  0  0  0  0  0
    6.0915    4.7609   -2.8534 H   0  0  0  0  0  0  0  0  0  0  0  0
    7.5320    5.0731   -1.8029 H   0  0  0  0  0  0  0  0  0  0  0  0
    6.3955    6.4062   -2.1876 H   0  0  0  0  0  0  0  0  0  0  0  0
    5.1074    2.3604   -2.4366 H   0  0  0  0  0  0  0  0  0  0  0  0
    5.4484    1.0076   -1.3038 H   0  0  0  0  0  0  0  0  0  0  0  0
    7.1358    1.1215   -3.1230 H   0  0  0  0  0  0  0  0  0  0  0  0
    7.8904    1.3749   -1.5123 H   0  0  0  0  0  0  0  0  0  0  0  0
    7.6050    2.7817   -2.6164 H   0  0  0  0  0  0  0  0  0  0  0  0
    0.4578    3.0464    3.3122 H   0  0  0  0  0  0  0  0  0  0  0  0
    1.9458    5.3300    4.0897 H   0  0  0  0  0  0  0  0  0  0  0  0
    3.5783    4.8769    5.8854 H   0  0  0  0  0  0  0  0  0  0  0  0
    4.0513    6.1109   10.0534 H   0  0  0  0  0  0  0  0  0  0  0  0
    2.3699    6.3908    9.4627 H   0  0  0  0  0  0  0  0  0  0  0  0
    3.7799    6.6026    8.3316 H   0  0  0  0  0  0  0  0  0  0  0  0
    0.3578    4.3108    8.6822 H   0  0  0  0  0  0  0  0  0  0  0  0
   -1.2801    4.7725    6.8981 H   0  0  0  0  0  0  0  0  0  0  0  0
   -2.0107    7.3884    5.5303 H   0  0  0  0  0  0  0  0  0  0  0  0
   -2.1611    9.7233    4.7567 H   0  0  0  0  0  0  0  0  0  0  0  0
   -3.4036   10.3363    2.2805 H   0  0  0  0  0  0  0  0  0  0  0  0
   -2.5190   10.1273    0.7162 H   0  0  0  0  0  0  0  0  0  0  0  0
   -3.0837   11.7628    1.2332 H   0  0  0  0  0  0  0  0  0  0  0  0
    0.2945    8.7552    1.3550 H   0  0  0  0  0  0  0  0  0  0  0  0
    0.4725    6.4167    2.1484 H   0  0  0  0  0  0  0  0  0  0  0  0
   -6.6233    1.3357    3.6863 H   0  0  0  0  0  0  0  0  0  0  0  0
   -8.2076    1.4934    5.5805 H   0  0  0  0  0  0  0  0  0  0  0  0
   -8.2773    5.3245    7.1039 H   0  0  0  0  0  0  0  0  0  0  0  0
   -7.8657    3.6852    7.7684 H   0  0  0  0  0  0  0  0  0  0  0  0
   -9.1539    4.6854    8.5483 H   0  0  0  0  0  0  0  0  0  0  0  0
   -9.2385    5.4970    4.3866 H   0  0  0  0  0  0  0  0  0  0  0  0
   -7.6337    5.3572    2.5161 H   0  0  0  0  0  0  0  0  0  0  0  0
   -3.9476    2.5019    0.3659 H   0  0  0  0  0  0  0  0  0  0  0  0
   -4.0699    0.9844   -1.5547 H   0  0  0  0  0  0  0  0  0  0  0  0
   -5.8841    1.4958   -4.0046 H   0  0  0  0  0  0  0  0  0  0  0  0
   -6.8110    0.2530   -4.9375 H   0  0  0  0  0  0  0  0  0  0  0  0
   -7.6477    1.2180   -3.6609 H   0  0  0  0  0  0  0  0  0  0  0  0
   -8.2870    0.4612   -0.9008 H   0  0  0  0  0  0  0  0  0  0  0  0
   -8.2019    2.0240    0.9851 H   0  0  0  0  0  0  0  0  0  0  0  0
   -6.0994    5.7874   -0.0452 H   0  0  0  0  0  0  0  0  0  0  0  0
   -0.1497    5.4978   -2.1217 H   0  0  0  0  0  0  0  0  0  0  0  0
   -3.9303    7.6904   -4.7651 H   0  0  0  0  0  0  0  0  0  0  0  0
   -0.8173    9.1298   -5.3429 H   0  0  0  0  0  0  0  0  0  0  0  0
   -1.1463    8.0897   -7.6806 H   0  0  0  0  0  0  0  0  0  0  0  0
   -1.7369    5.5149   -7.4826 H   0  0  0  0  0  0  0  0  0  0  0  0
    0.1720    4.3329   -6.1725 H   0  0  0  0  0  0  0  0  0  0  0  0
    1.9945    6.1545   -5.5292 H   0  0  0  0  0  0  0  0  0  0  0  0
    1.3620    8.4192   -6.8073 H   0  0  0  0  0  0  0  0  0  0  0  0
    1.2473    6.9863   -7.9237 H   0  0  0  0  0  0  0  0  0  0  0  0
    0.9345    8.0808   -4.1688 H   0  0  0  0  0  0  0  0  0  0  0  0
  1  2  2  3
  2  3  1  0
  3  4  2  0
  3  5  1  0
  5  6  2  0
  6  7  1  0
  7  8  2  0
  8  9  1  0
  9 10  2  0
 10 11  1  0
 11 12  2  3
 12 13  1  0
 13 14  3  0
 12 15  1  0
 15 16  3  0
  8 17  1  0
 17 18  1  0
 18 19  1  0
 19 20  2  0
 20 21  1  0
 21 22  1  0
 21 23  1  0
  1 24  1  0
 24 25  2  0
 25 26  1  0
 26 27  1  0
 27 28  2  0
 28 29  1  0
 29 30  2  0
 30 31  1  0
 31 32  1  0
 30 33  1  0
 33 34  2  0
 26 35  1  0
 35 36  2  0
 36 37  1  0
 37 38  2  0
 38 39  1  0
 39 40  1  0
 38 41  1  0
 41 42  2  0
 25 43  1  0
 43 44  1  0
 44 45  1  0
 45 46  2  0
 46 47  1  0
 47 48  1  0
 48 49  2  0
 49 50  1  0
 50 51  2  0
 51 52  1  0
 52 53  1  0
 51 54  1  0
 54 55  2  0
 47 56  1  0
 56 57  2  0
 57 58  1  0
 58 59  2  0
 59 60  1  0
 60 61  1  0
 59 62  1  0
 62 63  2  0
 46 64  1  0
 64 65  1  0
 45 66  1  0
 66 67  2  0
 67 68  1  0
 68 69  2  0
 69 70  1  0
 70 71  2  0
 71 72  1  0
 72 73  2  0
 73 74  1  0
 74 75  1  0
 75 76  1  0
 74 77  1  0
 77 78  1  0
 74 79  1  0
 79 80  1  0
 73 81  1  0
 69 82  1  0
 82 83  2  0
 83 84  1  0
 84 85  1  0
 85 86  2  0
 86 87  1  0
 87 88  2  0
 88 89  1  0
 89 90  1  0
 90 91  1  0
 89 92  1  0
 92 93  1  0
 89 94  1  0
 94 95  1  0
 88 96  1  0
 84 97  2  0
 97 98  1  0
 83 99  1  0
 99100  2  0
100101  1  0
100102  1  0
102103  2  0
103104  1  0
104105  1  0
105106  2  0
106107  1  0
107108  2  0
108109  1  0
109110  1  0
108111  1  0
111112  2  0
104113  1  0
113114  2  0
114115  1  0
115116  2  0
116117  1  0
117118  1  0
116119  1  0
119120  2  0
103121  1  0
121122  1  0
122123  1  0
123124  2  0
124125  1  0
125126  1  0
126127  2  0
127128  1  0
128129  2  0
129130  1  0
130131  1  0
129132  1  0
132133  2  0
125134  1  0
134135  2  0
135136  1  0
136137  2  0
137138  1  0
138139  1  0
137140  1  0
140141  2  0
124142  1  0
142143  1  0
123144  1  0
144145  2  3
145146  1  0
146147  2  0
146148  1  0
148149  2  0
149150  1  0
150151  2  0
151152  1  0
152153  2  0
153154  1  0
154155  2  3
155156  1  0
156157  3  0
155158  1  0
158159  3  0
151160  1  0
160161  1  0
161162  1  0
162163  2  0
163164  1  0
164165  1  0
164166  1  0
 11  2  1  0
 23 17  1  0
 65 24  1  0
 98 66  1  0
143102  1  0
154145  1  0
166160  1  0
 10  5  1  0
 22 18  1  0
 34 27  1  0
 42 35  1  0
 64 43  2  0
 97 68  1  0
112105  1  0
120113  1  0
142121  2  0
153148  1  0
165161  1  0
 23  7  1  0
 55 48  1  0
 63 56  1  0
 81 70  1  0
101 82  1  0
133126  1  0
141134  1  0
166150  1  0
 96 85  1  0
  1167  1  0
  6168  1  0
  9169  1  0
 17170  1  0
 18171  1  0
 19172  1  0
 20173  1  0
 21174  1  0
 22175  1  0
 22176  1  0
 23177  1  0
 28178  1  0
 29179  1  0
 32180  1  0
 32181  1  0
 32182  1  0
 33183  1  0
 34184  1  0
 36185  1  0
 37186  1  0
 40187  1  0
 40188  1  0
 40189  1  0
 41190  1  0
 42191  1  0
 49192  1  0
 50193  1  0
 53194  1  0
 53195  1  0
 53196  1  0
 54197  1  0
 55198  1  0
 57199  1  0
 58200  1  0
 61201  1  0
 61202  1  0
 61203  1  0
 62204  1  0
 63205  1  0
 67206  1  0
 71207  1  0
 72208  1  0
 75209  1  0
 75210  1  0
 76211  1  0
 76212  1  0
 76213  1  0
 77214  1  0
 77215  1  0
 78216  1  0
 78217  1  0
 78218  1  0
 79219  1  0
 79220  1  0
 80221  1  0
 80222  1  0
 80223  1  0
 86224  1  0
 87225  1  0
 90226  1  0
 90227  1  0
 91228  1  0
 91229  1  0
 91230  1  0
 92231  1  0
 92232  1  0
 93233  1  0
 93234  1  0
 93235  1  0
 94236  1  0
 94237  1  0
 95238  1  0
 95239  1  0
 95240  1  0
 99241  1  0
106242  1  0
107243  1  0
110244  1  0
110245  1  0
110246  1  0
111247  1  0
112248  1  0
114249  1  0
115250  1  0
118251  1  0
118252  1  0
118253  1  0
119254  1  0
120255  1  0
127256  1  0
128257  1  0
131258  1  0
131259  1  0
131260  1  0
132261  1  0
133262  1  0
135263  1  0
136264  1  0
139265  1  0
139266  1  0
139267  1  0
140268  1  0
141269  1  0
144270  1  0
149271  1  0
152272  1  0
160273  1  0
161274  1  0
162275  1  0
163276  1  0
164277  1  0
165278  1  0
165279  1  0
166280  1  0
M  END

