
     RDKit          3D

201220  0  0  0  0  0  0  0  0999 V2000
    2.7170   -0.5291    5.5245 C   0  0  0  0  0  0  0  0  0  0  0  0
    3.3083   -1.7266    5.3509 C   0  0  0  0  0  0  0  0  0  0  0  0
    3.4256   -2.7192    6.4208 C   0  0  0  0  0  0  0  0  0  0  0  0
    3.3459   -2.4840    7.6538 O   0  0  0  0  0  0  0  0  0  0  0  0
    3.4935   -4.0399    5.8138 C   0  0  0  0  0  0  0  0  0  0  0  0
    3.4959   -5.2955    6.4732 C   0  0  0  0  0  0  0  0  0  0  0  0
    3.5026   -6.3799    5.6091 C   0  0  0  0  0  0  0  0  0  0  0  0
    3.5129   -6.2407    4.1832 C   0  0  0  0  0  0  0  0  0  0  0  0
    3.4971   -5.0206    3.5336 C   0  0  0  0  0  0  0  0  0  0  0  0
    3.4943   -3.8982    4.4016 C   0  0  0  0  0  0  0  0  0  0  0  0
    3.4984   -2.4566    4.0633 C   0  0  0  0  0  0  0  0  0  0  0  0
    3.9360   -1.8986    2.9100 C   0  0  0  0  0  0  0  0  0  0  0  0
    4.4537   -0.5565    2.8919 C   0  0  0  0  0  0  0  0  0  0  0  0
    4.8997    0.5106    2.8781 N   0  0  0  0  0  0  0  0  0  0  0  0
    4.0678   -2.6360    1.6814 C   0  0  0  0  0  0  0  0  0  0  0  0
    4.1747   -3.2134    0.6835 N   0  0  0  0  0  0  0  0  0  0  0  0
    3.4919   -7.7278    4.0181 C   0  0  0  0  0  0  0  0  0  0  0  0
    2.1358   -8.3452    3.5661 C   0  0  0  0  0  0  0  0  0  0  0  0
    2.2462   -9.8224    3.8427 C   0  0  0  0  0  0  0  0  0  0  0  0
    2.2306   -9.9632    5.1750 C   0  0  0  0  0  0  0  0  0  0  0  0
    2.1109   -8.5720    5.7506 C   0  0  0  0  0  0  0  0  0  0  0  0
    1.1943   -7.9673    4.6969 C   0  0  0  0  0  0  0  0  0  0  0  0
    3.4752   -7.8759    5.4765 C   0  0  0  0  0  0  0  0  0  0  0  0
    1.8290    0.0548    4.4890 C   0  0  0  0  0  0  0  0  0  0  0  0
    1.7315    1.4063    4.0706 C   0  0  0  0  0  0  0  0  0  0  0  0
    2.3449    2.5310    4.7401 N   0  0  0  0  0  0  0  0  0  0  0  0
    2.6652    3.7345    4.0136 C   0  0  0  0  0  0  0  0  0  0  0  0
    3.4520    3.6827    2.8535 C   0  0  0  0  0  0  0  0  0  0  0  0
    3.7427    4.8453    2.1401 C   0  0  0  0  0  0  0  0  0  0  0  0
    3.2197    6.0729    2.5573 C   0  0  0  0  0  0  0  0  0  0  0  0
    3.5143    7.5463    1.5813 S   0  0  0  0  0  0  0  0  0  0  0  0
    2.0924    7.2256    0.4945 C   0  0  0  0  0  0  0  0  0  0  0  0
    2.4302    6.1384    3.7100 C   0  0  0  0  0  0  0  0  0  0  0  0
    2.1641    4.9789    4.4438 C   0  0  0  0  0  0  0  0  0  0  0  0
    2.4070    2.5561    6.1798 C   0  0  0  0  0  0  0  0  0  0  0  0
    3.5737    2.9863    6.8317 C   0  0  0  0  0  0  0  0  0  0  0  0
    3.6371    2.9960    8.2306 C   0  0  0  0  0  0  0  0  0  0  0  0
    2.5378    2.5759    8.9869 C   0  0  0  0  0  0  0  0  0  0  0  0
    2.6331    2.5373   10.7768 S   0  0  0  0  0  0  0  0  0  0  0  0
    1.8376    4.1618   10.9792 C   0  0  0  0  0  0  0  0  0  0  0  0
    1.3672    2.1611    8.3429 C   0  0  0  0  0  0  0  0  0  0  0  0
    1.2949    2.1667    6.9474 C   0  0  0  0  0  0  0  0  0  0  0  0
    0.8379    1.5173    2.9898 C   0  0  0  0  0  0  0  0  0  0  0  0
    0.3977    2.7246    1.8899 S   0  0  0  0  0  0  0  0  0  0  0  0
   -0.6273    1.7061    0.9789 C   0  0  0  0  0  0  0  0  0  0  0  0
   -0.6248    0.4265    1.5475 C   0  0  0  0  0  0  0  0  0  0  0  0
   -1.3333   -0.7092    1.0283 N   0  0  0  0  0  0  0  0  0  0  0  0
   -0.7890   -1.4348   -0.0899 C   0  0  0  0  0  0  0  0  0  0  0  0
   -1.6276   -1.8620   -1.1330 C   0  0  0  0  0  0  0  0  0  0  0  0
   -1.1162   -2.6430   -2.1778 C   0  0  0  0  0  0  0  0  0  0  0  0
    0.2311   -3.0120   -2.1790 C   0  0  0  0  0  0  0  0  0  0  0  0
    0.9078   -3.9751   -3.5306 S   0  0  0  0  0  0  0  0  0  0  0  0
    0.5424   -5.5788   -2.7503 C   0  0  0  0  0  0  0  0  0  0  0  0
    1.0644   -2.6155   -1.1294 C   0  0  0  0  0  0  0  0  0  0  0  0
    0.5625   -1.8190   -0.0965 C   0  0  0  0  0  0  0  0  0  0  0  0
   -2.4265   -1.2591    1.7920 C   0  0  0  0  0  0  0  0  0  0  0  0
   -2.5669   -2.6513    1.9430 C   0  0  0  0  0  0  0  0  0  0  0  0
   -3.6138   -3.1806    2.7038 C   0  0  0  0  0  0  0  0  0  0  0  0
   -4.5367   -2.3262    3.3158 C   0  0  0  0  0  0  0  0  0  0  0  0
   -5.8961   -3.0117    4.2642 S   0  0  0  0  0  0  0  0  0  0  0  0
   -6.9997   -3.1075    2.8213 C   0  0  0  0  0  0  0  0  0  0  0  0
   -4.4030   -0.9415    3.1773 C   0  0  0  0  0  0  0  0  0  0  0  0
   -3.3529   -0.4104    2.4224 C   0  0  0  0  0  0  0  0  0  0  0  0
    0.2061    0.3668    2.6484 C   0  0  0  0  0  0  0  0  0  0  0  0
    0.7341   -0.8977    3.5939 S   0  0  0  0  0  0  0  0  0  0  0  0
   -1.2085    2.0086   -0.3309 C   0  0  0  0  0  0  0  0  0  0  0  0
   -0.4635    2.0061   -1.5168 C   0  0  0  0  0  0  0  0  0  0  0  0
    0.8466    2.5740   -1.6279 N   0  0  0  0  0  0  0  0  0  0  0  0
    2.0188    1.7970   -1.3236 C   0  0  0  0  0  0  0  0  0  0  0  0
    2.1771    0.5052   -1.8515 C   0  0  0  0  0  0  0  0  0  0  0  0
    3.3589   -0.2072   -1.6228 C   0  0  0  0  0  0  0  0  0  0  0  0
    4.3878    0.3582   -0.8618 C   0  0  0  0  0  0  0  0  0  0  0  0
    5.8958   -0.5675   -0.5646 S   0  0  0  0  0  0  0  0  0  0  0  0
    6.6386   -0.1396   -2.1698 C   0  0  0  0  0  0  0  0  0  0  0  0
    4.2290    1.6377   -0.3232 C   0  0  0  0  0  0  0  0  0  0  0  0
    3.0572    2.3560   -0.5618 C   0  0  0  0  0  0  0  0  0  0  0  0
    0.9662    3.9501   -2.0523 C   0  0  0  0  0  0  0  0  0  0  0  0
    1.9772    4.3357   -2.9524 C   0  0  0  0  0  0  0  0  0  0  0  0
    2.0685    5.6590   -3.3929 C   0  0  0  0  0  0  0  0  0  0  0  0
    1.1510    6.6122   -2.9397 C   0  0  0  0  0  0  0  0  0  0  0  0
    1.2599    8.3076   -3.5138 S   0  0  0  0  0  0  0  0  0  0  0  0
    0.1284    8.0269   -4.9090 C   0  0  0  0  0  0  0  0  0  0  0  0
    0.1436    6.2400   -2.0427 C   0  0  0  0  0  0  0  0  0  0  0  0
    0.0521    4.9207   -1.6013 C   0  0  0  0  0  0  0  0  0  0  0  0
   -1.2566    1.7101   -2.6182 C   0  0  0  0  0  0  0  0  0  0  0  0
   -0.9046    1.0606   -4.1141 S   0  0  0  0  0  0  0  0  0  0  0  0
   -2.5085    0.5763   -4.4589 C   0  0  0  0  0  0  0  0  0  0  0  0
   -3.3387    1.0019   -3.4005 C   0  0  0  0  0  0  0  0  0  0  0  0
   -4.7873    1.0863   -3.4362 N   0  0  0  0  0  0  0  0  0  0  0  0
   -5.5466    0.6543   -4.5748 C   0  0  0  0  0  0  0  0  0  0  0  0
   -5.3606    1.2598   -5.8267 C   0  0  0  0  0  0  0  0  0  0  0  0
   -6.1393    0.8712   -6.9185 C   0  0  0  0  0  0  0  0  0  0  0  0
   -7.1294   -0.1062   -6.7609 C   0  0  0  0  0  0  0  0  0  0  0  0
   -8.1577   -0.5655   -8.1568 S   0  0  0  0  0  0  0  0  0  0  0  0
   -6.9889   -1.8192   -8.7624 C   0  0  0  0  0  0  0  0  0  0  0  0
   -7.3327   -0.6965   -5.5109 C   0  0  0  0  0  0  0  0  0  0  0  0
   -6.5498   -0.3112   -4.4173 C   0  0  0  0  0  0  0  0  0  0  0  0
   -5.4001    2.1152   -2.6447 C   0  0  0  0  0  0  0  0  0  0  0  0
   -6.1129    1.7898   -1.4811 C   0  0  0  0  0  0  0  0  0  0  0  0
   -6.4949    2.7992   -0.5904 C   0  0  0  0  0  0  0  0  0  0  0  0
   -6.1777    4.1379   -0.8655 C   0  0  0  0  0  0  0  0  0  0  0  0
   -6.5403    5.4214    0.3337 S   0  0  0  0  0  0  0  0  0  0  0  0
   -4.8908    5.3150    1.1080 C   0  0  0  0  0  0  0  0  0  0  0  0
   -5.5335    4.4703   -2.0616 C   0  0  0  0  0  0  0  0  0  0  0  0
   -5.1441    3.4629   -2.9467 C   0  0  0  0  0  0  0  0  0  0  0  0
   -2.5725    1.5413   -2.3598 C   0  0  0  0  0  0  0  0  0  0  0  0
   -2.8319    1.6659   -0.7067 S   0  0  0  0  0  0  0  0  0  0  0  0
   -2.7734   -0.5617   -5.3686 C   0  0  0  0  0  0  0  0  0  0  0  0
   -3.4224   -1.7328   -4.8990 C   0  0  0  0  0  0  0  0  0  0  0  0
   -3.9844   -1.7685   -3.6653 F   0  0  0  0  0  0  0  0  0  0  0  0
   -3.3997   -2.9257   -5.6587 C   0  0  0  0  0  0  0  0  0  0  0  0
   -3.9641   -4.0522   -5.1468 F   0  0  0  0  0  0  0  0  0  0  0  0
   -2.6942   -2.9852   -6.8792 C   0  0  0  0  0  0  0  0  0  0  0  0
   -2.1323   -1.7956   -7.3452 C   0  0  0  0  0  0  0  0  0  0  0  0
   -2.1647   -0.6458   -6.6218 C   0  0  0  0  0  0  0  0  0  0  0  0
   -1.4522    0.2830   -7.2785 N   0  0  0  0  0  0  0  0  0  0  0  0
   -1.0344   -0.3247   -8.3607 O   0  0  0  0  0  0  0  0  0  0  0  0
   -1.4056   -1.5773   -8.4536 N   0  0  0  0  0  0  0  0  0  0  0  0
   -2.4575   -4.2879   -7.5306 C   0  0  0  0  0  0  0  0  0  0  0  0
   -1.2363   -4.8411   -7.5940 C   0  0  0  0  0  0  0  0  0  0  0  0
    0.2589   -4.0414   -6.9786 S   0  0  0  0  0  0  0  0  0  0  0  0
    1.0214   -5.6600   -6.9106 C   0  0  0  0  0  0  0  0  0  0  0  0
    2.1419   -5.8405   -6.3591 O   0  0  0  0  0  0  0  0  0  0  0  0
    0.2755   -6.7305   -7.4845 N   0  0  0  0  0  0  0  0  0  0  0  0
    0.6174   -8.1463   -7.3272 C   0  0  0  0  0  0  0  0  0  0  0  0
    1.8688   -8.5030   -8.1241 C   0  0  0  0  0  0  0  0  0  0  0  0
   -1.0048   -6.2539   -7.8873 C   0  0  0  0  0  0  0  0  0  0  0  0
   -1.8780   -7.0088   -8.3993 O   0  0  0  0  0  0  0  0  0  0  0  0
    2.6560   -0.1246    6.5243 H   0  0  0  0  0  0  0  0  0  0  0  0
    3.4610   -5.4031    7.5482 H   0  0  0  0  0  0  0  0  0  0  0  0
    3.4480   -4.9726    2.4609 H   0  0  0  0  0  0  0  0  0  0  0  0
    4.3992   -8.1340    3.5141 H   0  0  0  0  0  0  0  0  0  0  0  0
    1.8016   -8.0792    2.5423 H   0  0  0  0  0  0  0  0  0  0  0  0
    2.2217  -10.6329    3.1196 H   0  0  0  0  0  0  0  0  0  0  0  0
    2.1898  -10.9047    5.7111 H   0  0  0  0  0  0  0  0  0  0  0  0
    1.7473   -8.5275    6.7992 H   0  0  0  0  0  0  0  0  0  0  0  0
    0.1994   -8.4690    4.6326 H   0  0  0  0  0  0  0  0  0  0  0  0
    1.0349   -6.8719    4.8084 H   0  0  0  0  0  0  0  0  0  0  0  0
    4.3713   -8.3793    5.9077 H   0  0  0  0  0  0  0  0  0  0  0  0
    3.8255    2.7385    2.4941 H   0  0  0  0  0  0  0  0  0  0  0  0
    4.3535    4.7893    1.2478 H   0  0  0  0  0  0  0  0  0  0  0  0
    1.1519    7.2445    1.0787 H   0  0  0  0  0  0  0  0  0  0  0  0
    2.0471    8.0085   -0.2897 H   0  0  0  0  0  0  0  0  0  0  0  0
    2.2107    6.2371    0.0081 H   0  0  0  0  0  0  0  0  0  0  0  0
    2.0150    7.0850    4.0332 H   0  0  0  0  0  0  0  0  0  0  0  0
    1.5387    5.0427    5.3249 H   0  0  0  0  0  0  0  0  0  0  0  0
    4.4388    3.2998    6.2598 H   0  0  0  0  0  0  0  0  0  0  0  0
    4.5472    3.3165    8.7242 H   0  0  0  0  0  0  0  0  0  0  0  0
    0.8208    4.1453   10.5350 H   0  0  0  0  0  0  0  0  0  0  0  0
    2.4465    4.9508   10.4867 H   0  0  0  0  0  0  0  0  0  0  0  0
    1.7530    4.3910   12.0610 H   0  0  0  0  0  0  0  0  0  0  0  0
    0.5104    1.8410    8.9229 H   0  0  0  0  0  0  0  0  0  0  0  0
    0.3797    1.8518    6.4653 H   0  0  0  0  0  0  0  0  0  0  0  0
   -2.6764   -1.6001   -1.1290 H   0  0  0  0  0  0  0  0  0  0  0  0
   -1.7666   -2.9708   -2.9747 H   0  0  0  0  0  0  0  0  0  0  0  0
   -0.5544   -5.7266   -2.6984 H   0  0  0  0  0  0  0  0  0  0  0  0
    0.9838   -5.6235   -1.7339 H   0  0  0  0  0  0  0  0  0  0  0  0
    0.9853   -6.3838   -3.3721 H   0  0  0  0  0  0  0  0  0  0  0  0
    2.1000   -2.9227   -1.1169 H   0  0  0  0  0  0  0  0  0  0  0  0
    1.2281   -1.5222    0.7033 H   0  0  0  0  0  0  0  0  0  0  0  0
   -1.8569   -3.3334    1.4898 H   0  0  0  0  0  0  0  0  0  0  0  0
   -3.7072   -4.2545    2.8123 H   0  0  0  0  0  0  0  0  0  0  0  0
   -7.2024   -2.0884    2.4346 H   0  0  0  0  0  0  0  0  0  0  0  0
   -7.9582   -3.5742    3.1236 H   0  0  0  0  0  0  0  0  0  0  0  0
   -6.5370   -3.7233    2.0248 H   0  0  0  0  0  0  0  0  0  0  0  0
   -5.1123   -0.2762    3.6510 H   0  0  0  0  0  0  0  0  0  0  0  0
   -3.2685    0.6645    2.3194 H   0  0  0  0  0  0  0  0  0  0  0  0
    1.4015    0.0626   -2.4608 H   0  0  0  0  0  0  0  0  0  0  0  0
    3.4874   -1.1878   -2.0620 H   0  0  0  0  0  0  0  0  0  0  0  0
    6.8039    0.9555   -2.2358 H   0  0  0  0  0  0  0  0  0  0  0  0
    5.9761   -0.4709   -2.9968 H   0  0  0  0  0  0  0  0  0  0  0  0
    7.6130   -0.6588   -2.2654 H   0  0  0  0  0  0  0  0  0  0  0  0
    5.0180    2.0826    0.2695 H   0  0  0  0  0  0  0  0  0  0  0  0
    2.9504    3.3536   -0.1587 H   0  0  0  0  0  0  0  0  0  0  0  0
    2.6768    3.6043   -3.3287 H   0  0  0  0  0  0  0  0  0  0  0  0
    2.8428    5.9388   -4.0916 H   0  0  0  0  0  0  0  0  0  0  0  0
    0.0499    8.9612   -5.5016 H   0  0  0  0  0  0  0  0  0  0  0  0
    0.5184    7.2161   -5.5603 H   0  0  0  0  0  0  0  0  0  0  0  0
   -0.8790    7.7532   -4.5287 H   0  0  0  0  0  0  0  0  0  0  0  0
   -0.5630    6.9811   -1.6802 H   0  0  0  0  0  0  0  0  0  0  0  0
   -0.7286    4.6615   -0.8973 H   0  0  0  0  0  0  0  0  0  0  0  0
   -4.6070    2.0268   -5.9527 H   0  0  0  0  0  0  0  0  0  0  0  0
   -5.9838    1.3431   -7.8796 H   0  0  0  0  0  0  0  0  0  0  0  0
   -7.4012   -2.2829   -9.6839 H   0  0  0  0  0  0  0  0  0  0  0  0
   -6.8439   -2.6097   -7.9959 H   0  0  0  0  0  0  0  0  0  0  0  0
   -6.0118   -1.3477   -9.0029 H   0  0  0  0  0  0  0  0  0  0  0  0
   -8.1032   -1.4499   -5.3838 H   0  0  0  0  0  0  0  0  0  0  0  0
   -6.7288   -0.7597   -3.4474 H   0  0  0  0  0  0  0  0  0  0  0  0
   -6.3095    0.7544   -1.2383 H   0  0  0  0  0  0  0  0  0  0  0  0
   -7.0036    2.5404    0.3301 H   0  0  0  0  0  0  0  0  0  0  0  0
   -4.7793    6.1388    1.8438 H   0  0  0  0  0  0  0  0  0  0  0  0
   -4.7827    4.3399    1.6323 H   0  0  0  0  0  0  0  0  0  0  0  0
   -4.0892    5.4160    0.3414 H   0  0  0  0  0  0  0  0  0  0  0  0
   -5.2896    5.5013   -2.2838 H   0  0  0  0  0  0  0  0  0  0  0  0
   -4.5863    3.7231   -3.8375 H   0  0  0  0  0  0  0  0  0  0  0  0
   -3.3167   -4.8996   -7.7571 H   0  0  0  0  0  0  0  0  0  0  0  0
   -0.2129   -8.7861   -7.6839 H   0  0  0  0  0  0  0  0  0  0  0  0
    0.7771   -8.3712   -6.2518 H   0  0  0  0  0  0  0  0  0  0  0  0
    2.7421   -7.9140   -7.7754 H   0  0  0  0  0  0  0  0  0  0  0  0
    1.7005   -8.3036   -9.2038 H   0  0  0  0  0  0  0  0  0  0  0  0
    2.0999   -9.5822   -7.9869 H   0  0  0  0  0  0  0  0  0  0  0  0
  1  2  2  3
  2  3  1  0
  3  4  2  0
  3  5  1  0
  5  6  2  0
  6  7  1  0
  7  8  2  0
  8  9  1  0
  9 10  2  0
 10 11  1  0
 11 12  2  3
 12 13  1  0
 13 14  3  0
 12 15  1  0
 15 16  3  0
  8 17  1  0
 17 18  1  0
 18 19  1  0
 19 20  2  0
 20 21  1  0
 21 22  1  0
 21 23  1  0
  1 24  1  0
 24 25  2  0
 25 26  1  0
 26 27  1  0
 27 28  2  0
 28 29  1  0
 29 30  2  0
 30 31  1  0
 31 32  1  0
 30 33  1  0
 33 34  2  0
 26 35  1  0
 35 36  2  0
 36 37  1  0
 37 38  2  0
 38 39  1  0
 39 40  1  0
 38 41  1  0
 41 42  2  0
 25 43  1  0
 43 44  1  0
 44 45  1  0
 45 46  2  0
 46 47  1  0
 47 48  1  0
 48 49  2  0
 49 50  1  0
 50 51  2  0
 51 52  1  0
 52 53  1  0
 51 54  1  0
 54 55  2  0
 47 56  1  0
 56 57  2  0
 57 58  1  0
 58 59  2  0
 59 60  1  0
 60 61  1  0
 59 62  1  0
 62 63  2  0
 46 64  1  0
 64 65  1  0
 45 66  1  0
 66 67  2  0
 67 68  1  0
 68 69  1  0
 69 70  2  0
 70 71  1  0
 71 72  2  0
 72 73  1  0
 73 74  1  0
 72 75  1  0
 75 76  2  0
 68 77  1  0
 77 78  2  0
 78 79  1  0
 79 80  2  0
 80 81  1  0
 81 82  1  0
 80 83  1  0
 83 84  2  0
 67 85  1  0
 85 86  1  0
 86 87  1  0
 87 88  2  0
 88 89  1  0
 89 90  1  0
 90 91  2  0
 91 92  1  0
 92 93  2  0
 93 94  1  0
 94 95  1  0
 93 96  1  0
 96 97  2  0
 89 98  1  0
 98 99  2  0
 99100  1  0
100101  2  0
101102  1  0
102103  1  0
101104  1  0
104105  2  0
 88106  1  0
106107  1  0
 87108  1  0
108109  2  0
109110  1  0
109111  1  0
111112  1  0
111113  2  0
113114  1  0
114115  1  0
115116  2  0
116117  1  0
117118  1  0
113119  1  0
119120  2  3
120121  1  0
121122  1  0
122123  2  0
122124  1  0
124125  1  0
125126  1  0
124127  1  0
127128  2  0
 11  2  1  0
 23 17  1  0
 65 24  1  0
107 66  1  0
115108  1  0
127120  1  0
 10  5  1  0
 22 18  1  0
 34 27  1  0
 42 35  1  0
 64 43  2  0
 76 69  1  0
 84 77  1  0
106 85  2  0
118114  2  0
 23  7  1  0
 55 48  1  0
 63 56  1  0
 97 90  1  0
105 98  1  0
  1129  1  0
  6130  1  0
  9131  1  0
 17132  1  0
 18133  1  0
 19134  1  0
 20135  1  0
 21136  1  0
 22137  1  0
 22138  1  0
 23139  1  0
 28140  1  0
 29141  1  0
 32142  1  0
 32143  1  0
 32144  1  0
 33145  1  0
 34146  1  0
 36147  1  0
 37148  1  0
 40149  1  0
 40150  1  0
 40151  1  0
 41152  1  0
 42153  1  0
 49154  1  0
 50155  1  0
 53156  1  0
 53157  1  0
 53158  1  0
 54159  1  0
 55160  1  0
 57161  1  0
 58162  1  0
 61163  1  0
 61164  1  0
 61165  1  0
 62166  1  0
 63167  1  0
 70168  1  0
 71169  1  0
 74170  1  0
 74171  1  0
 74172  1  0
 75173  1  0
 76174  1  0
 78175  1  0
 79176  1  0
 82177  1  0
 82178  1  0
 82179  1  0
 83180  1  0
 84181  1  0
 91182  1  0
 92183  1  0
 95184  1  0
 95185  1  0
 95186  1  0
 96187  1  0
 97188  1  0
 99189  1  0
100190  1  0
103191  1  0
103192  1  0
103193  1  0
104194  1  0
105195  1  0
119196  1  0
125197  1  0
125198  1  0
126199  1  0
126200  1  0
126201  1  0
M  END

