
     RDKit          3D

216235  0  0  0  0  0  0  0  0999 V2000
    3.2244   -4.1866    5.0480 C   0  0  0  0  0  0  0  0  0  0  0  0
    3.3785   -5.4619    4.6414 C   0  0  0  0  0  0  0  0  0  0  0  0
    4.1095   -5.8818    3.4492 C   0  0  0  0  0  0  0  0  0  0  0  0
    4.8436   -5.1494    2.7303 O   0  0  0  0  0  0  0  0  0  0  0  0
    3.8880   -7.2958    3.2341 C   0  0  0  0  0  0  0  0  0  0  0  0
    4.1921   -8.0099    2.0544 C   0  0  0  0  0  0  0  0  0  0  0  0
    3.4723   -9.1779    1.9184 C   0  0  0  0  0  0  0  0  0  0  0  0
    2.5129   -9.6372    2.8827 C   0  0  0  0  0  0  0  0  0  0  0  0
    2.2720   -8.9847    4.0791 C   0  0  0  0  0  0  0  0  0  0  0  0
    3.0227   -7.7779    4.2513 C   0  0  0  0  0  0  0  0  0  0  0  0
    2.7379   -6.6784    5.2253 C   0  0  0  0  0  0  0  0  0  0  0  0
    1.6941   -6.7300    6.0632 C   0  0  0  0  0  0  0  0  0  0  0  0
    0.8055   -5.6100    6.2343 C   0  0  0  0  0  0  0  0  0  0  0  0
    0.0702   -4.7210    6.3141 N   0  0  0  0  0  0  0  0  0  0  0  0
    1.5429   -7.8484    6.9572 C   0  0  0  0  0  0  0  0  0  0  0  0
    1.4661   -8.7302    7.6999 N   0  0  0  0  0  0  0  0  0  0  0  0
    2.0536  -10.7134    1.9425 C   0  0  0  0  0  0  0  0  0  0  0  0
    0.7014  -10.4934    1.1835 C   0  0  0  0  0  0  0  0  0  0  0  0
    0.4651   -9.0176    0.9527 C   0  0  0  0  0  0  0  0  0  0  0  0
    1.3863   -8.6219    0.0691 C   0  0  0  0  0  0  0  0  0  0  0  0
    2.2176   -9.8387   -0.2682 C   0  0  0  0  0  0  0  0  0  0  0  0
    1.1213  -10.8902   -0.2185 C   0  0  0  0  0  0  0  0  0  0  0  0
    3.0614  -10.2678    0.9741 C   0  0  0  0  0  0  0  0  0  0  0  0
    2.9287   -3.1733    4.0376 C   0  0  0  0  0  0  0  0  0  0  0  0
    3.6587   -2.0093    3.7087 C   0  0  0  0  0  0  0  0  0  0  0  0
    4.7298   -1.4787    4.5014 N   0  0  0  0  0  0  0  0  0  0  0  0
    6.0034   -1.1911    3.8882 C   0  0  0  0  0  0  0  0  0  0  0  0
    6.5660   -2.0822    2.9580 C   0  0  0  0  0  0  0  0  0  0  0  0
    7.8377   -1.8499    2.4230 C   0  0  0  0  0  0  0  0  0  0  0  0
    8.5565   -0.7014    2.7922 C   0  0  0  0  0  0  0  0  0  0  0  0
   10.2057   -0.4153    2.1487 S   0  0  0  0  0  0  0  0  0  0  0  0
    9.6252    0.5098    0.6891 C   0  0  0  0  0  0  0  0  0  0  0  0
    8.0044    0.1946    3.7060 C   0  0  0  0  0  0  0  0  0  0  0  0
    6.7274   -0.0311    4.2322 C   0  0  0  0  0  0  0  0  0  0  0  0
    4.4518   -1.0731    5.8646 C   0  0  0  0  0  0  0  0  0  0  0  0
    3.1802   -0.5729    6.2207 C   0  0  0  0  0  0  0  0  0  0  0  0
    2.9503   -0.0925    7.5103 C   0  0  0  0  0  0  0  0  0  0  0  0
    3.9785   -0.0672    8.4547 C   0  0  0  0  0  0  0  0  0  0  0  0
    3.6988    0.6735   10.0660 S   0  0  0  0  0  0  0  0  0  0  0  0
    3.9123    2.3767    9.4505 C   0  0  0  0  0  0  0  0  0  0  0  0
    5.2320   -0.5965    8.1254 C   0  0  0  0  0  0  0  0  0  0  0  0
    5.4609   -1.1086    6.8463 C   0  0  0  0  0  0  0  0  0  0  0  0
    2.9770   -1.2701    2.7284 C   0  0  0  0  0  0  0  0  0  0  0  0
    3.1838    0.2280    1.9675 S   0  0  0  0  0  0  0  0  0  0  0  0
    1.6687    0.1660    1.1605 C   0  0  0  0  0  0  0  0  0  0  0  0
    1.0042   -1.0149    1.5216 C   0  0  0  0  0  0  0  0  0  0  0  0
   -0.3972   -1.2510    1.3168 N   0  0  0  0  0  0  0  0  0  0  0  0
   -1.3139   -0.9305    2.3890 C   0  0  0  0  0  0  0  0  0  0  0  0
   -2.3663   -1.8081    2.7241 C   0  0  0  0  0  0  0  0  0  0  0  0
   -3.2686   -1.4775    3.7354 C   0  0  0  0  0  0  0  0  0  0  0  0
   -3.1449   -0.2596    4.4224 C   0  0  0  0  0  0  0  0  0  0  0  0
   -4.3740    0.2016    5.6483 S   0  0  0  0  0  0  0  0  0  0  0  0
   -3.2896   -0.1365    7.0735 C   0  0  0  0  0  0  0  0  0  0  0  0
   -2.0840    0.5973    4.1280 C   0  0  0  0  0  0  0  0  0  0  0  0
   -1.1607    0.2579    3.1336 C   0  0  0  0  0  0  0  0  0  0  0  0
   -0.8411   -2.0366    0.1914 C   0  0  0  0  0  0  0  0  0  0  0  0
   -2.0314   -1.6929   -0.4767 C   0  0  0  0  0  0  0  0  0  0  0  0
   -2.5756   -2.5529   -1.4363 C   0  0  0  0  0  0  0  0  0  0  0  0
   -1.9324   -3.7622   -1.7468 C   0  0  0  0  0  0  0  0  0  0  0  0
   -2.6756   -4.8925   -2.9272 S   0  0  0  0  0  0  0  0  0  0  0  0
   -3.6260   -5.7921   -1.6605 C   0  0  0  0  0  0  0  0  0  0  0  0
   -0.7240   -4.0858   -1.1181 C   0  0  0  0  0  0  0  0  0  0  0  0
   -0.1726   -3.2252   -0.1606 C   0  0  0  0  0  0  0  0  0  0  0  0
    1.7695   -1.7846    2.3772 C   0  0  0  0  0  0  0  0  0  0  0  0
    1.4594   -3.2083    3.1858 S   0  0  0  0  0  0  0  0  0  0  0  0
    1.1552    1.0956    0.1490 C   0  0  0  0  0  0  0  0  0  0  0  0
    0.4115    2.2695    0.4117 C   0  0  0  0  0  0  0  0  0  0  0  0
    0.6149    3.1303    1.5558 N   0  0  0  0  0  0  0  0  0  0  0  0
    1.9751    3.4695    1.8851 C   0  0  0  0  0  0  0  0  0  0  0  0
    2.8446    3.9319    0.8807 C   0  0  0  0  0  0  0  0  0  0  0  0
    4.1462    4.3194    1.2025 C   0  0  0  0  0  0  0  0  0  0  0  0
    4.5985    4.2422    2.5253 C   0  0  0  0  0  0  0  0  0  0  0  0
    6.2556    4.7863    2.9377 S   0  0  0  0  0  0  0  0  0  0  0  0
    7.0393    3.2332    2.4029 C   0  0  0  0  0  0  0  0  0  0  0  0
    3.7384    3.7751    3.5319 C   0  0  0  0  0  0  0  0  0  0  0  0
    2.4261    3.4025    3.2138 C   0  0  0  0  0  0  0  0  0  0  0  0
   -0.4729    3.9414    2.0742 C   0  0  0  0  0  0  0  0  0  0  0  0
   -1.7986    3.4565    2.0784 C   0  0  0  0  0  0  0  0  0  0  0  0
   -2.8573    4.2868    2.4565 C   0  0  0  0  0  0  0  0  0  0  0  0
   -2.6132    5.6051    2.8465 C   0  0  0  0  0  0  0  0  0  0  0  0
   -3.9809    6.7010    3.2452 S   0  0  0  0  0  0  0  0  0  0  0  0
   -4.1620    7.2833    1.5283 C   0  0  0  0  0  0  0  0  0  0  0  0
   -1.2995    6.0770    2.9136 C   0  0  0  0  0  0  0  0  0  0  0  0
   -0.2368    5.2549    2.5242 C   0  0  0  0  0  0  0  0  0  0  0  0
   -0.3321    2.6461   -0.7138 C   0  0  0  0  0  0  0  0  0  0  0  0
   -1.4028    3.8873   -1.0755 S   0  0  0  0  0  0  0  0  0  0  0  0
   -1.6693    3.3605   -2.6761 C   0  0  0  0  0  0  0  0  0  0  0  0
   -0.8696    2.2383   -2.9493 C   0  0  0  0  0  0  0  0  0  0  0  0
   -0.3881    1.9343   -4.2652 N   0  0  0  0  0  0  0  0  0  0  0  0
   -0.3542    0.5610   -4.7161 C   0  0  0  0  0  0  0  0  0  0  0  0
    0.7303    0.0839   -5.4800 C   0  0  0  0  0  0  0  0  0  0  0  0
    0.7565   -1.2438   -5.9248 C   0  0  0  0  0  0  0  0  0  0  0  0
   -0.2806   -2.1198   -5.5921 C   0  0  0  0  0  0  0  0  0  0  0  0
   -0.2606   -3.8102   -6.2009 S   0  0  0  0  0  0  0  0  0  0  0  0
    0.7187   -4.4429   -4.8039 C   0  0  0  0  0  0  0  0  0  0  0  0
   -1.3546   -1.6617   -4.8194 C   0  0  0  0  0  0  0  0  0  0  0  0
   -1.3908   -0.3320   -4.3825 C   0  0  0  0  0  0  0  0  0  0  0  0
    0.2348    3.0098   -5.0181 C   0  0  0  0  0  0  0  0  0  0  0  0
    0.1416    3.0592   -6.4229 C   0  0  0  0  0  0  0  0  0  0  0  0
    0.7118    4.1267   -7.1339 C   0  0  0  0  0  0  0  0  0  0  0  0
    1.3451    5.1639   -6.4519 C   0  0  0  0  0  0  0  0  0  0  0  0
    2.0311    6.5507   -7.3624 S   0  0  0  0  0  0  0  0  0  0  0  0
    3.7102    5.8467   -7.4114 C   0  0  0  0  0  0  0  0  0  0  0  0
    1.4432    5.1295   -5.0576 C   0  0  0  0  0  0  0  0  0  0  0  0
    0.9114    4.0537   -4.3500 C   0  0  0  0  0  0  0  0  0  0  0  0
   -0.1806    1.8457   -1.8060 C   0  0  0  0  0  0  0  0  0  0  0  0
    0.8862    0.6043   -1.4600 S   0  0  0  0  0  0  0  0  0  0  0  0
   -2.7396    3.8592   -3.5578 C   0  0  0  0  0  0  0  0  0  0  0  0
   -3.4400    5.0561   -3.4132 C   0  0  0  0  0  0  0  0  0  0  0  0
   -2.9932    6.0740   -2.5655 O   0  0  0  0  0  0  0  0  0  0  0  0
   -2.5741    7.3424   -3.0631 C   0  0  0  0  0  0  0  0  0  0  0  0
   -1.2223    7.2157   -3.7545 C   0  0  0  0  0  0  0  0  0  0  0  0
   -4.6106    5.1210   -4.1996 C   0  0  0  0  0  0  0  0  0  0  0  0
   -5.5237    6.1844   -4.2192 O   0  0  0  0  0  0  0  0  0  0  0  0
   -6.0182    6.8337   -3.0523 C   0  0  0  0  0  0  0  0  0  0  0  0
   -7.0043    5.9288   -2.3246 C   0  0  0  0  0  0  0  0  0  0  0  0
   -4.8163    3.9789   -4.9670 C   0  0  0  0  0  0  0  0  0  0  0  0
   -3.5449    2.9087   -4.6910 S   0  0  0  0  0  0  0  0  0  0  0  0
   -6.0586    3.6625   -5.6886 C   0  0  0  0  0  0  0  0  0  0  0  0
   -6.9005    2.6844   -5.2993 C   0  0  0  0  0  0  0  0  0  0  0  0
   -6.6758    1.7475   -4.1897 C   0  0  0  0  0  0  0  0  0  0  0  0
   -5.9309    1.9348   -3.1923 O   0  0  0  0  0  0  0  0  0  0  0  0
   -7.5470    0.6036   -4.3679 C   0  0  0  0  0  0  0  0  0  0  0  0
   -7.5589   -0.6093   -3.6663 C   0  0  0  0  0  0  0  0  0  0  0  0
   -6.4693   -0.9183   -2.3183 Cl  0  0  0  0  0  0  0  0  0  0  0  0
   -8.4478   -1.6082   -4.0822 C   0  0  0  0  0  0  0  0  0  0  0  0
   -9.2845   -1.3932   -5.1892 C   0  0  0  0  0  0  0  0  0  0  0  0
   -9.2505   -0.1760   -5.8906 C   0  0  0  0  0  0  0  0  0  0  0  0
   -8.3815    0.8337   -5.4527 C   0  0  0  0  0  0  0  0  0  0  0  0
   -8.1204    2.1923   -6.0108 C   0  0  0  0  0  0  0  0  0  0  0  0
   -8.9583    2.9212   -6.7869 C   0  0  0  0  0  0  0  0  0  0  0  0
  -10.2061    2.4026   -7.2777 C   0  0  0  0  0  0  0  0  0  0  0  0
  -11.2138    1.9915   -7.6739 N   0  0  0  0  0  0  0  0  0  0  0  0
   -8.7561    4.3203   -7.0370 C   0  0  0  0  0  0  0  0  0  0  0  0
   -8.6079    5.4509   -7.2364 N   0  0  0  0  0  0  0  0  0  0  0  0
    2.8039   -3.9864    6.0277 H   0  0  0  0  0  0  0  0  0  0  0  0
    4.7783   -7.5923    1.2501 H   0  0  0  0  0  0  0  0  0  0  0  0
    1.5008   -9.3188    4.7505 H   0  0  0  0  0  0  0  0  0  0  0  0
    2.2176  -11.7456    2.3276 H   0  0  0  0  0  0  0  0  0  0  0  0
   -0.1632  -11.0536    1.5946 H   0  0  0  0  0  0  0  0  0  0  0  0
   -0.3350   -8.4037    1.3570 H   0  0  0  0  0  0  0  0  0  0  0  0
    1.4727   -7.6302   -0.3614 H   0  0  0  0  0  0  0  0  0  0  0  0
    2.7738   -9.7713   -1.2237 H   0  0  0  0  0  0  0  0  0  0  0  0
    0.3258  -10.7400   -0.9847 H   0  0  0  0  0  0  0  0  0  0  0  0
    1.5056  -11.9361   -0.2909 H   0  0  0  0  0  0  0  0  0  0  0  0
    3.8603  -11.0076    0.7660 H   0  0  0  0  0  0  0  0  0  0  0  0
    6.0309   -2.9751    2.6705 H   0  0  0  0  0  0  0  0  0  0  0  0
    8.2582   -2.5548    1.7200 H   0  0  0  0  0  0  0  0  0  0  0  0
   10.4984    0.8443    0.0922 H   0  0  0  0  0  0  0  0  0  0  0  0
    8.9866   -0.1384    0.0541 H   0  0  0  0  0  0  0  0  0  0  0  0
    9.0453    1.4075    0.9984 H   0  0  0  0  0  0  0  0  0  0  0  0
    8.5602    1.0792    3.9998 H   0  0  0  0  0  0  0  0  0  0  0  0
    6.3075    0.6965    4.9120 H   0  0  0  0  0  0  0  0  0  0  0  0
    2.3796   -0.5220    5.4931 H   0  0  0  0  0  0  0  0  0  0  0  0
    1.9741    0.3049    7.7651 H   0  0  0  0  0  0  0  0  0  0  0  0
    3.1482    2.6008    8.6752 H   0  0  0  0  0  0  0  0  0  0  0  0
    3.7739    3.0864   10.2893 H   0  0  0  0  0  0  0  0  0  0  0  0
    4.9279    2.5129    9.0165 H   0  0  0  0  0  0  0  0  0  0  0  0
    6.0289   -0.5969    8.8551 H   0  0  0  0  0  0  0  0  0  0  0  0
    6.4399   -1.5095    6.6104 H   0  0  0  0  0  0  0  0  0  0  0  0
   -2.4826   -2.7479    2.1990 H   0  0  0  0  0  0  0  0  0  0  0  0
   -4.0822   -2.1499    3.9671 H   0  0  0  0  0  0  0  0  0  0  0  0
   -3.9021   -0.1182    7.9974 H   0  0  0  0  0  0  0  0  0  0  0  0
   -2.5128    0.6560    7.1483 H   0  0  0  0  0  0  0  0  0  0  0  0
   -2.8023   -1.1296    6.9831 H   0  0  0  0  0  0  0  0  0  0  0  0
   -1.9739    1.5279    4.6720 H   0  0  0  0  0  0  0  0  0  0  0  0
   -0.3445    0.9370    2.9259 H   0  0  0  0  0  0  0  0  0  0  0  0
   -2.5492   -0.7772   -0.2236 H   0  0  0  0  0  0  0  0  0  0  0  0
   -3.5035   -2.2920   -1.9213 H   0  0  0  0  0  0  0  0  0  0  0  0
   -2.9410   -6.2539   -0.9197 H   0  0  0  0  0  0  0  0  0  0  0  0
   -4.3357   -5.1134   -1.1438 H   0  0  0  0  0  0  0  0  0  0  0  0
   -4.2050   -6.5965   -2.1571 H   0  0  0  0  0  0  0  0  0  0  0  0
   -0.2198   -5.0114   -1.3540 H   0  0  0  0  0  0  0  0  0  0  0  0
    0.7443   -3.5212    0.3349 H   0  0  0  0  0  0  0  0  0  0  0  0
    2.5049    4.0059   -0.1425 H   0  0  0  0  0  0  0  0  0  0  0  0
    4.8066    4.6778    0.4202 H   0  0  0  0  0  0  0  0  0  0  0  0
    8.0660    3.1817    2.8133 H   0  0  0  0  0  0  0  0  0  0  0  0
    6.4625    2.3593    2.7684 H   0  0  0  0  0  0  0  0  0  0  0  0
    7.0890    3.1982    1.2949 H   0  0  0  0  0  0  0  0  0  0  0  0
    4.0795    3.7173    4.5544 H   0  0  0  0  0  0  0  0  0  0  0  0
    1.7636    3.0540    3.9926 H   0  0  0  0  0  0  0  0  0  0  0  0
   -2.0153    2.4563    1.7299 H   0  0  0  0  0  0  0  0  0  0  0  0
   -3.8736    3.9093    2.4080 H   0  0  0  0  0  0  0  0  0  0  0  0
   -3.2231    7.7669    1.1767 H   0  0  0  0  0  0  0  0  0  0  0  0
   -4.4152    6.4409    0.8518 H   0  0  0  0  0  0  0  0  0  0  0  0
   -4.9777    8.0314    1.4857 H   0  0  0  0  0  0  0  0  0  0  0  0
   -1.0951    7.0918    3.2303 H   0  0  0  0  0  0  0  0  0  0  0  0
    0.7643    5.6749    2.5320 H   0  0  0  0  0  0  0  0  0  0  0  0
    1.5568    0.7395   -5.7272 H   0  0  0  0  0  0  0  0  0  0  0  0
    1.5903   -1.5921   -6.5244 H   0  0  0  0  0  0  0  0  0  0  0  0
    0.1906   -4.2470   -3.8510 H   0  0  0  0  0  0  0  0  0  0  0  0
    0.8519   -5.5378   -4.9171 H   0  0  0  0  0  0  0  0  0  0  0  0
    1.7186   -3.9607   -4.7824 H   0  0  0  0  0  0  0  0  0  0  0  0
   -2.1624   -2.3316   -4.5662 H   0  0  0  0  0  0  0  0  0  0  0  0
   -2.2419    0.0079   -3.8022 H   0  0  0  0  0  0  0  0  0  0  0  0
   -0.3724    2.2822   -6.9657 H   0  0  0  0  0  0  0  0  0  0  0  0
    0.6322    4.1559   -8.2131 H   0  0  0  0  0  0  0  0  0  0  0  0
    3.7010    4.8217   -7.8436 H   0  0  0  0  0  0  0  0  0  0  0  0
    4.1360    5.8004   -6.3849 H   0  0  0  0  0  0  0  0  0  0  0  0
    4.3524    6.5012   -8.0331 H   0  0  0  0  0  0  0  0  0  0  0  0
    1.9267    5.9370   -4.5221 H   0  0  0  0  0  0  0  0  0  0  0  0
    1.0322    4.0462   -3.2731 H   0  0  0  0  0  0  0  0  0  0  0  0
   -3.3237    7.7540   -3.7683 H   0  0  0  0  0  0  0  0  0  0  0  0
   -2.4766    8.0439   -2.2077 H   0  0  0  0  0  0  0  0  0  0  0  0
   -0.4747    6.7890   -3.0526 H   0  0  0  0  0  0  0  0  0  0  0  0
   -0.8838    8.2222   -4.0773 H   0  0  0  0  0  0  0  0  0  0  0  0
   -1.3135    6.5575   -4.6446 H   0  0  0  0  0  0  0  0  0  0  0  0
   -6.5425    7.7624   -3.3675 H   0  0  0  0  0  0  0  0  0  0  0  0
   -5.2030    7.1238   -2.3635 H   0  0  0  0  0  0  0  0  0  0  0  0
   -7.8407    5.6647   -3.0077 H   0  0  0  0  0  0  0  0  0  0  0  0
   -7.4168    6.4589   -1.4398 H   0  0  0  0  0  0  0  0  0  0  0  0
   -6.4941    5.0046   -1.9917 H   0  0  0  0  0  0  0  0  0  0  0  0
   -6.2662    4.2621   -6.5644 H   0  0  0  0  0  0  0  0  0  0  0  0
   -8.4802   -2.5550   -3.5633 H   0  0  0  0  0  0  0  0  0  0  0  0
   -9.9558   -2.1733   -5.5124 H   0  0  0  0  0  0  0  0  0  0  0  0
   -9.8711   -0.0637   -6.7669 H   0  0  0  0  0  0  0  0  0  0  0  0
  1  2  2  3
  2  3  1  0
  3  4  2  0
  3  5  1  0
  5  6  2  0
  6  7  1  0
  7  8  2  0
  8  9  1  0
  9 10  2  0
 10 11  1  0
 11 12  2  3
 12 13  1  0
 13 14  3  0
 12 15  1  0
 15 16  3  0
  8 17  1  0
 17 18  1  0
 18 19  1  0
 19 20  2  0
 20 21  1  0
 21 22  1  0
 21 23  1  0
  1 24  1  0
 24 25  2  0
 25 26  1  0
 26 27  1  0
 27 28  2  0
 28 29  1  0
 29 30  2  0
 30 31  1  0
 31 32  1  0
 30 33  1  0
 33 34  2  0
 26 35  1  0
 35 36  2  0
 36 37  1  0
 37 38  2  0
 38 39  1  0
 39 40  1  0
 38 41  1  0
 41 42  2  0
 25 43  1  0
 43 44  1  0
 44 45  1  0
 45 46  2  0
 46 47  1  0
 47 48  1  0
 48 49  2  0
 49 50  1  0
 50 51  2  0
 51 52  1  0
 52 53  1  0
 51 54  1  0
 54 55  2  0
 47 56  1  0
 56 57  2  0
 57 58  1  0
 58 59  2  0
 59 60  1  0
 60 61  1  0
 59 62  1  0
 62 63  2  0
 46 64  1  0
 64 65  1  0
 45 66  1  0
 66 67  2  0
 67 68  1  0
 68 69  1  0
 69 70  2  0
 70 71  1  0
 71 72  2  0
 72 73  1  0
 73 74  1  0
 72 75  1  0
 75 76  2  0
 68 77  1  0
 77 78  2  0
 78 79  1  0
 79 80  2  0
 80 81  1  0
 81 82  1  0
 80 83  1  0
 83 84  2  0
 67 85  1  0
 85 86  1  0
 86 87  1  0
 87 88  2  0
 88 89  1  0
 89 90  1  0
 90 91  2  0
 91 92  1  0
 92 93  2  0
 93 94  1  0
 94 95  1  0
 93 96  1  0
 96 97  2  0
 89 98  1  0
 98 99  2  0
 99100  1  0
100101  2  0
101102  1  0
102103  1  0
101104  1  0
104105  2  0
 88106  1  0
106107  1  0
 87108  1  0
108109  2  0
109110  1  0
110111  1  0
111112  1  0
109113  1  0
113114  1  0
114115  1  0
115116  1  0
113117  2  0
117118  1  0
117119  1  0
119120  2  3
120121  1  0
121122  2  0
121123  1  0
123124  2  0
124125  1  0
124126  1  0
126127  2  0
127128  1  0
128129  2  0
129130  1  0
130131  2  3
131132  1  0
132133  3  0
131134  1  0
134135  3  0
 11  2  1  0
 23 17  1  0
 65 24  1  0
107 66  1  0
118108  1  0
130120  1  0
 10  5  1  0
 22 18  1  0
 34 27  1  0
 42 35  1  0
 64 43  2  0
 76 69  1  0
 84 77  1  0
106 85  2  0
129123  1  0
 23  7  1  0
 55 48  1  0
 63 56  1  0
 97 90  1  0
105 98  1  0
  1136  1  0
  6137  1  0
  9138  1  0
 17139  1  0
 18140  1  0
 19141  1  0
 20142  1  0
 21143  1  0
 22144  1  0
 22145  1  0
 23146  1  0
 28147  1  0
 29148  1  0
 32149  1  0
 32150  1  0
 32151  1  0
 33152  1  0
 34153  1  0
 36154  1  0
 37155  1  0
 40156  1  0
 40157  1  0
 40158  1  0
 41159  1  0
 42160  1  0
 49161  1  0
 50162  1  0
 53163  1  0
 53164  1  0
 53165  1  0
 54166  1  0
 55167  1  0
 57168  1  0
 58169  1  0
 61170  1  0
 61171  1  0
 61172  1  0
 62173  1  0
 63174  1  0
 70175  1  0
 71176  1  0
 74177  1  0
 74178  1  0
 74179  1  0
 75180  1  0
 76181  1  0
 78182  1  0
 79183  1  0
 82184  1  0
 82185  1  0
 82186  1  0
 83187  1  0
 84188  1  0
 91189  1  0
 92190  1  0
 95191  1  0
 95192  1  0
 95193  1  0
 96194  1  0
 97195  1  0
 99196  1  0
100197  1  0
103198  1  0
103199  1  0
103200  1  0
104201  1  0
105202  1  0
111203  1  0
111204  1  0
112205  1  0
112206  1  0
112207  1  0
115208  1  0
115209  1  0
116210  1  0
116211  1  0
116212  1  0
119213  1  0
126214  1  0
127215  1  0
128216  1  0
M  END

