
     RDKit          3D

185205  0  0  0  0  0  0  0  0999 V2000
   -0.7711    3.9288   -5.7448 C   0  0  0  0  0  0  0  0  0  0  0  0
   -1.2686    2.6786   -6.0871 C   0  0  0  0  0  0  0  0  0  0  0  0
   -1.0203    1.4921   -5.2587 C   0  0  0  0  0  0  0  0  0  0  0  0
   -0.9481    1.4809   -3.9947 O   0  0  0  0  0  0  0  0  0  0  0  0
   -1.1833    0.3289   -6.0822 C   0  0  0  0  0  0  0  0  0  0  0  0
   -1.1518   -0.9790   -5.5395 C   0  0  0  0  0  0  0  0  0  0  0  0
   -1.6117   -1.9093   -6.4301 C   0  0  0  0  0  0  0  0  0  0  0  0
   -1.9582   -1.6030   -7.8120 C   0  0  0  0  0  0  0  0  0  0  0  0
   -1.8751   -0.2903   -8.3650 C   0  0  0  0  0  0  0  0  0  0  0  0
   -1.5572    0.6766   -7.3979 C   0  0  0  0  0  0  0  0  0  0  0  0
   -1.7872    2.1265   -7.4727 C   0  0  0  0  0  0  0  0  0  0  0  0
   -2.7197    2.7367   -8.2781 C   0  0  0  0  0  0  0  0  0  0  0  0
   -3.3802    2.0944   -9.3133 C   0  0  0  0  0  0  0  0  0  0  0  0
   -3.8653    1.5308  -10.1946 N   0  0  0  0  0  0  0  0  0  0  0  0
   -3.6223    3.6254   -7.6011 C   0  0  0  0  0  0  0  0  0  0  0  0
   -4.3098    4.3633   -7.0633 N   0  0  0  0  0  0  0  0  0  0  0  0
   -2.1709   -3.0414   -8.0752 C   0  0  0  0  0  0  0  0  0  0  0  0
   -1.1013   -3.8224   -8.9300 C   0  0  0  0  0  0  0  0  0  0  0  0
   -1.3228   -5.3145   -8.6047 C   0  0  0  0  0  0  0  0  0  0  0  0
   -0.9086   -5.5455   -7.3105 C   0  0  0  0  0  0  0  0  0  0  0  0
   -0.4614   -4.1719   -6.8035 C   0  0  0  0  0  0  0  0  0  0  0  0
    0.1426   -3.6092   -8.1002 C   0  0  0  0  0  0  0  0  0  0  0  0
   -1.7774   -3.3083   -6.6859 C   0  0  0  0  0  0  0  0  0  0  0  0
    0.0758    4.1700   -4.5687 C   0  0  0  0  0  0  0  0  0  0  0  0
   -0.4708    4.5390   -3.3174 C   0  0  0  0  0  0  0  0  0  0  0  0
   -1.5636    5.4720   -3.1681 N   0  0  0  0  0  0  0  0  0  0  0  0
   -1.2812    6.8202   -2.6858 C   0  0  0  0  0  0  0  0  0  0  0  0
    0.0233    7.1888   -2.2147 C   0  0  0  0  0  0  0  0  0  0  0  0
    0.2532    8.4301   -1.5835 C   0  0  0  0  0  0  0  0  0  0  0  0
   -0.7548    9.3611   -1.4819 C   0  0  0  0  0  0  0  0  0  0  0  0
   -0.4454   10.9869   -0.7962 S   0  0  0  0  0  0  0  0  0  0  0  0
   -1.0413   10.5457    0.8867 C   0  0  0  0  0  0  0  0  0  0  0  0
   -1.9870    9.1008   -2.1075 C   0  0  0  0  0  0  0  0  0  0  0  0
   -2.2752    7.8724   -2.6808 C   0  0  0  0  0  0  0  0  0  0  0  0
   -2.8720    4.9359   -3.2285 C   0  0  0  0  0  0  0  0  0  0  0  0
   -3.8962    5.5192   -4.0561 C   0  0  0  0  0  0  0  0  0  0  0  0
   -5.2461    5.1427   -3.9047 C   0  0  0  0  0  0  0  0  0  0  0  0
   -5.6004    4.1139   -3.0062 C   0  0  0  0  0  0  0  0  0  0  0  0
   -7.2887    3.5221   -3.0970 S   0  0  0  0  0  0  0  0  0  0  0  0
   -7.5014    2.6101   -1.5424 C   0  0  0  0  0  0  0  0  0  0  0  0
   -4.5523    3.4070   -2.3536 C   0  0  0  0  0  0  0  0  0  0  0  0
   -3.2471    3.8278   -2.4311 C   0  0  0  0  0  0  0  0  0  0  0  0
    0.1700    3.9886   -2.2062 C   0  0  0  0  0  0  0  0  0  0  0  0
   -0.1129    3.9773   -0.5666 S   0  0  0  0  0  0  0  0  0  0  0  0
    1.1896    2.9040   -0.1829 C   0  0  0  0  0  0  0  0  0  0  0  0
    1.9287    2.5884   -1.3808 C   0  0  0  0  0  0  0  0  0  0  0  0
    3.0181    1.6479   -1.4377 N   0  0  0  0  0  0  0  0  0  0  0  0
    3.6938    1.3167   -0.2346 C   0  0  0  0  0  0  0  0  0  0  0  0
    4.0678   -0.0193   -0.0262 C   0  0  0  0  0  0  0  0  0  0  0  0
    4.9279   -0.3557    1.0442 C   0  0  0  0  0  0  0  0  0  0  0  0
    5.3865    0.6205    1.9715 C   0  0  0  0  0  0  0  0  0  0  0  0
    6.5438    0.1580    3.2547 S   0  0  0  0  0  0  0  0  0  0  0  0
    5.3639   -0.3864    4.4714 C   0  0  0  0  0  0  0  0  0  0  0  0
    5.0856    1.9768    1.7490 C   0  0  0  0  0  0  0  0  0  0  0  0
    4.2240    2.3329    0.6540 C   0  0  0  0  0  0  0  0  0  0  0  0
    3.6459    1.2678   -2.6803 C   0  0  0  0  0  0  0  0  0  0  0  0
    5.0515    1.4796   -2.8242 C   0  0  0  0  0  0  0  0  0  0  0  0
    5.7932    0.7779   -3.7973 C   0  0  0  0  0  0  0  0  0  0  0  0
    5.1462   -0.1257   -4.6528 C   0  0  0  0  0  0  0  0  0  0  0  0
    6.0847   -0.9052   -5.9707 S   0  0  0  0  0  0  0  0  0  0  0  0
    6.5579   -2.3890   -5.0385 C   0  0  0  0  0  0  0  0  0  0  0  0
    3.7331   -0.2832   -4.5877 C   0  0  0  0  0  0  0  0  0  0  0  0
    2.9914    0.4005   -3.5929 C   0  0  0  0  0  0  0  0  0  0  0  0
    1.3253    3.2283   -2.5078 C   0  0  0  0  0  0  0  0  0  0  0  0
    1.5455    3.3251   -4.2097 S   0  0  0  0  0  0  0  0  0  0  0  0
    0.9567    1.9830    0.8874 C   0  0  0  0  0  0  0  0  0  0  0  0
    1.3637    2.1611    2.2100 C   0  0  0  0  0  0  0  0  0  0  0  0
    2.1590    3.0529    2.8234 N   0  0  0  0  0  0  0  0  0  0  0  0
    2.1074    2.8007    4.1102 N   0  0  0  0  0  0  0  0  0  0  0  0
    2.8747    3.5349    5.1459 C   0  0  0  0  0  0  0  0  0  0  0  0
    4.0870    2.6982    5.5576 C   0  0  0  0  0  0  0  0  0  0  0  0
    1.2932    1.7738    4.4167 N   0  0  0  0  0  0  0  0  0  0  0  0
    0.8267    1.3626    3.2273 C   0  0  0  0  0  0  0  0  0  0  0  0
   -0.1661    0.4610    2.9996 C   0  0  0  0  0  0  0  0  0  0  0  0
   -0.5486    0.1777    1.7056 C   0  0  0  0  0  0  0  0  0  0  0  0
    0.0529    0.8990    0.6200 C   0  0  0  0  0  0  0  0  0  0  0  0
   -0.4246    0.6290   -0.6484 F   0  0  0  0  0  0  0  0  0  0  0  0
   -1.4745   -0.7510    1.4271 F   0  0  0  0  0  0  0  0  0  0  0  0
   -0.7192   -0.3123    4.1168 C   0  0  0  0  0  0  0  0  0  0  0  0
   -0.1933   -1.5838    4.3026 C   0  0  0  0  0  0  0  0  0  0  0  0
   -0.6479   -2.3908    5.3434 C   0  0  0  0  0  0  0  0  0  0  0  0
   -1.7898   -2.0092    6.0991 C   0  0  0  0  0  0  0  0  0  0  0  0
   -2.2855   -0.7156    5.9188 C   0  0  0  0  0  0  0  0  0  0  0  0
   -3.3364    0.0769    6.6026 C   0  0  0  0  0  0  0  0  0  0  0  0
   -4.1296   -0.3069    7.6292 C   0  0  0  0  0  0  0  0  0  0  0  0
   -4.9195    0.6820    8.3702 C   0  0  0  0  0  0  0  0  0  0  0  0
   -4.3362    1.8079    8.9389 C   0  0  0  0  0  0  0  0  0  0  0  0
   -5.2683    2.7375    9.3465 C   0  0  0  0  0  0  0  0  0  0  0  0
   -6.8053    2.1704    9.0538 S   0  0  0  0  0  0  0  0  0  0  0  0
   -6.3221    0.7274    8.3680 C   0  0  0  0  0  0  0  0  0  0  0  0
   -3.3426    1.3957    5.9232 C   0  0  0  0  0  0  0  0  0  0  0  0
   -4.1180    2.3453    6.1635 O   0  0  0  0  0  0  0  0  0  0  0  0
   -2.3611    1.4517    4.9312 N   0  0  0  0  0  0  0  0  0  0  0  0
   -2.2587    2.6216    4.0026 C   0  0  0  0  0  0  0  0  0  0  0  0
   -3.2032    2.4540    2.8274 C   0  0  0  0  0  0  0  0  0  0  0  0
   -1.7626    0.1554    4.9251 C   0  0  0  0  0  0  0  0  0  0  0  0
   -2.4992   -3.0362    6.9743 C   0  0  0  0  0  0  0  0  0  0  0  0
   -2.4609   -4.3036    6.5233 C   0  0  0  0  0  0  0  0  0  0  0  0
   -2.7961   -4.5844    5.1114 C   0  0  0  0  0  0  0  0  0  0  0  0
   -3.4381   -3.8116    4.3249 O   0  0  0  0  0  0  0  0  0  0  0  0
   -2.0727   -5.7490    4.7029 C   0  0  0  0  0  0  0  0  0  0  0  0
   -1.9884   -6.2606    3.3755 C   0  0  0  0  0  0  0  0  0  0  0  0
   -1.2181   -7.3773    3.2602 C   0  0  0  0  0  0  0  0  0  0  0  0
   -0.5326   -7.9724    4.4141 C   0  0  0  0  0  0  0  0  0  0  0  0
   -0.5926   -7.4771    5.7230 C   0  0  0  0  0  0  0  0  0  0  0  0
   -1.3648   -6.2919    5.8047 C   0  0  0  0  0  0  0  0  0  0  0  0
   -1.4670   -5.3829    6.9988 C   0  0  0  0  0  0  0  0  0  0  0  0
   -0.5721   -5.3185    8.0456 C   0  0  0  0  0  0  0  0  0  0  0  0
    0.6706   -6.0563    7.9942 C   0  0  0  0  0  0  0  0  0  0  0  0
    1.6655   -6.6623    7.9107 N   0  0  0  0  0  0  0  0  0  0  0  0
   -0.5064   -4.2060    8.9620 C   0  0  0  0  0  0  0  0  0  0  0  0
   -0.3436   -3.2776    9.6664 N   0  0  0  0  0  0  0  0  0  0  0  0
    0.0330   -9.0773    3.5481 C   0  0  0  0  0  0  0  0  0  0  0  0
   -0.5719  -10.5101    3.6435 C   0  0  0  0  0  0  0  0  0  0  0  0
   -0.1257  -11.2626    2.3764 C   0  0  0  0  0  0  0  0  0  0  0  0
   -0.8262  -10.7391    1.3279 C   0  0  0  0  0  0  0  0  0  0  0  0
   -1.6678   -9.6091    1.9448 C   0  0  0  0  0  0  0  0  0  0  0  0
   -2.0389  -10.2670    3.2594 C   0  0  0  0  0  0  0  0  0  0  0  0
   -0.7269   -8.4846    2.4067 C   0  0  0  0  0  0  0  0  0  0  0  0
   -0.9344    4.7471   -6.4338 H   0  0  0  0  0  0  0  0  0  0  0  0
   -0.8552   -1.2301   -4.4413 H   0  0  0  0  0  0  0  0  0  0  0  0
   -2.1071   -0.1045   -9.4590 H   0  0  0  0  0  0  0  0  0  0  0  0
   -3.2516   -3.2788   -8.3170 H   0  0  0  0  0  0  0  0  0  0  0  0
   -1.0588   -3.5522   -9.9671 H   0  0  0  0  0  0  0  0  0  0  0  0
   -1.7618   -6.0439   -9.2684 H   0  0  0  0  0  0  0  0  0  0  0  0
   -0.8950   -6.4787   -6.8130 H   0  0  0  0  0  0  0  0  0  0  0  0
    0.1660   -4.1831   -5.9193 H   0  0  0  0  0  0  0  0  0  0  0  0
    0.4964   -2.5744   -8.0235 H   0  0  0  0  0  0  0  0  0  0  0  0
    1.0688   -4.2200   -8.4608 H   0  0  0  0  0  0  0  0  0  0  0  0
   -2.5683   -3.7529   -6.0761 H   0  0  0  0  0  0  0  0  0  0  0  0
    0.8704    6.4525   -2.1059 H   0  0  0  0  0  0  0  0  0  0  0  0
    1.2558    8.5873   -1.2280 H   0  0  0  0  0  0  0  0  0  0  0  0
   -2.0931   10.0656    0.8226 H   0  0  0  0  0  0  0  0  0  0  0  0
   -1.0313   11.4280    1.5308 H   0  0  0  0  0  0  0  0  0  0  0  0
   -0.3352    9.7997    1.3428 H   0  0  0  0  0  0  0  0  0  0  0  0
   -2.8098    9.8713   -2.1597 H   0  0  0  0  0  0  0  0  0  0  0  0
   -3.2844    7.6030   -2.6535 H   0  0  0  0  0  0  0  0  0  0  0  0
   -3.6116    6.3093   -4.7175 H   0  0  0  0  0  0  0  0  0  0  0  0
   -5.9474    5.6600   -4.5416 H   0  0  0  0  0  0  0  0  0  0  0  0
   -8.4273    2.0431   -1.6139 H   0  0  0  0  0  0  0  0  0  0  0  0
   -7.4645    3.2090   -0.6146 H   0  0  0  0  0  0  0  0  0  0  0  0
   -6.7120    1.7887   -1.4759 H   0  0  0  0  0  0  0  0  0  0  0  0
   -4.7152    2.5375   -1.6725 H   0  0  0  0  0  0  0  0  0  0  0  0
   -2.5187    3.3141   -1.7957 H   0  0  0  0  0  0  0  0  0  0  0  0
    3.7446   -0.7569   -0.7626 H   0  0  0  0  0  0  0  0  0  0  0  0
    5.2360   -1.4029    1.1303 H   0  0  0  0  0  0  0  0  0  0  0  0
    5.7036   -0.1229    5.4713 H   0  0  0  0  0  0  0  0  0  0  0  0
    4.3283    0.0405    4.3343 H   0  0  0  0  0  0  0  0  0  0  0  0
    5.2426   -1.5173    4.4796 H   0  0  0  0  0  0  0  0  0  0  0  0
    5.4799    2.7850    2.3939 H   0  0  0  0  0  0  0  0  0  0  0  0
    4.0129    3.4129    0.4715 H   0  0  0  0  0  0  0  0  0  0  0  0
    5.6099    2.0609   -2.0890 H   0  0  0  0  0  0  0  0  0  0  0  0
    6.8608    0.9390   -3.8491 H   0  0  0  0  0  0  0  0  0  0  0  0
    5.6661   -2.8746   -4.6551 H   0  0  0  0  0  0  0  0  0  0  0  0
    7.2367   -3.0462   -5.6488 H   0  0  0  0  0  0  0  0  0  0  0  0
    7.1365   -2.0978   -4.0982 H   0  0  0  0  0  0  0  0  0  0  0  0
    3.2167   -0.9293   -5.2962 H   0  0  0  0  0  0  0  0  0  0  0  0
    1.9280    0.1703   -3.4415 H   0  0  0  0  0  0  0  0  0  0  0  0
    3.1935    4.5201    4.7727 H   0  0  0  0  0  0  0  0  0  0  0  0
    2.2487    3.6643    6.0230 H   0  0  0  0  0  0  0  0  0  0  0  0
    4.7168    3.2554    6.2540 H   0  0  0  0  0  0  0  0  0  0  0  0
    4.6923    2.4425    4.6516 H   0  0  0  0  0  0  0  0  0  0  0  0
    3.7641    1.7511    6.0634 H   0  0  0  0  0  0  0  0  0  0  0  0
    0.5207   -1.9918    3.6183 H   0  0  0  0  0  0  0  0  0  0  0  0
   -0.2172   -3.3699    5.3488 H   0  0  0  0  0  0  0  0  0  0  0  0
   -4.1686   -1.3020    7.9762 H   0  0  0  0  0  0  0  0  0  0  0  0
   -3.2751    1.9843    8.9172 H   0  0  0  0  0  0  0  0  0  0  0  0
   -5.0069    3.6957    9.7010 H   0  0  0  0  0  0  0  0  0  0  0  0
   -6.9604    0.0104    7.8813 H   0  0  0  0  0  0  0  0  0  0  0  0
   -1.2328    2.7388    3.7230 H   0  0  0  0  0  0  0  0  0  0  0  0
   -2.4886    3.5468    4.5938 H   0  0  0  0  0  0  0  0  0  0  0  0
   -4.1095    3.0822    3.0302 H   0  0  0  0  0  0  0  0  0  0  0  0
   -2.7497    2.8431    1.9136 H   0  0  0  0  0  0  0  0  0  0  0  0
   -3.5471    1.3945    2.7000 H   0  0  0  0  0  0  0  0  0  0  0  0
   -2.3803   -2.7253    7.9940 H   0  0  0  0  0  0  0  0  0  0  0  0
   -2.5139   -5.7768    2.4433 H   0  0  0  0  0  0  0  0  0  0  0  0
   -0.1327   -8.0433    6.5494 H   0  0  0  0  0  0  0  0  0  0  0  0
    1.1433   -9.0385    3.4266 H   0  0  0  0  0  0  0  0  0  0  0  0
   -0.3903  -11.0278    4.5811 H   0  0  0  0  0  0  0  0  0  0  0  0
    0.5549  -12.0687    2.3331 H   0  0  0  0  0  0  0  0  0  0  0  0
   -0.8186  -11.0961    0.3056 H   0  0  0  0  0  0  0  0  0  0  0  0
   -2.5276   -9.2915    1.3184 H   0  0  0  0  0  0  0  0  0  0  0  0
   -2.5947   -9.6454    3.9631 H   0  0  0  0  0  0  0  0  0  0  0  0
   -2.6749  -11.2623    3.1712 H   0  0  0  0  0  0  0  0  0  0  0  0
   -0.0373   -8.1205    1.5626 H   0  0  0  0  0  0  0  0  0  0  0  0
  1  2  2  3
  2  3  1  0
  3  4  2  0
  3  5  1  0
  5  6  2  0
  6  7  1  0
  7  8  2  0
  8  9  1  0
  9 10  2  0
 10 11  1  0
 11 12  2  3
 12 13  1  0
 13 14  3  0
 12 15  1  0
 15 16  3  0
  8 17  1  0
 17 18  1  0
 18 19  1  0
 19 20  2  0
 20 21  1  0
 21 22  1  0
 21 23  1  0
  1 24  1  0
 24 25  2  0
 25 26  1  0
 26 27  1  0
 27 28  2  0
 28 29  1  0
 29 30  2  0
 30 31  1  0
 31 32  1  0
 30 33  1  0
 33 34  2  0
 26 35  1  0
 35 36  2  0
 36 37  1  0
 37 38  2  0
 38 39  1  0
 39 40  1  0
 38 41  1  0
 41 42  2  0
 25 43  1  0
 43 44  1  0
 44 45  1  0
 45 46  2  0
 46 47  1  0
 47 48  1  0
 48 49  2  0
 49 50  1  0
 50 51  2  0
 51 52  1  0
 52 53  1  0
 51 54  1  0
 54 55  2  0
 47 56  1  0
 56 57  2  0
 57 58  1  0
 58 59  2  0
 59 60  1  0
 60 61  1  0
 59 62  1  0
 62 63  2  0
 46 64  1  0
 64 65  1  0
 45 66  1  0
 66 67  1  0
 67 68  2  0
 68 69  1  0
 69 70  1  0
 70 71  1  0
 69 72  1  0
 72 73  2  0
 73 74  1  0
 74 75  2  0
 75 76  1  0
 76 77  1  0
 75 78  1  0
 74 79  1  0
 79 80  2  0
 80 81  1  0
 81 82  2  0
 82 83  1  0
 83 84  1  0
 84 85  2  3
 85 86  1  0
 86 87  1  0
 87 88  2  0
 88 89  1  0
 89 90  1  0
 84 91  1  0
 91 92  2  0
 91 93  1  0
 93 94  1  0
 94 95  1  0
 93 96  1  0
 82 97  1  0
 97 98  2  3
 98 99  1  0
 99100  2  0
 99101  1  0
101102  2  0
102103  1  0
103104  2  0
104105  1  0
105106  2  0
106107  1  0
107108  2  3
108109  1  0
109110  3  0
108111  1  0
111112  3  0
104113  1  0
113114  1  0
114115  1  0
115116  2  0
116117  1  0
117118  1  0
117119  1  0
 11  2  1  0
 23 17  1  0
 65 24  1  0
 76 66  2  0
 96 79  1  0
107 98  1  0
119113  1  0
 10  5  1  0
 22 18  1  0
 34 27  1  0
 42 35  1  0
 64 43  2  0
 73 67  1  0
 96 83  2  0
106101  1  0
118114  1  0
 23  7  1  0
 55 48  1  0
 63 56  1  0
 90 86  2  0
119103  1  0
  1120  1  0
  6121  1  0
  9122  1  0
 17123  1  0
 18124  1  0
 19125  1  0
 20126  1  0
 21127  1  0
 22128  1  0
 22129  1  0
 23130  1  0
 28131  1  0
 29132  1  0
 32133  1  0
 32134  1  0
 32135  1  0
 33136  1  0
 34137  1  0
 36138  1  0
 37139  1  0
 40140  1  0
 40141  1  0
 40142  1  0
 41143  1  0
 42144  1  0
 49145  1  0
 50146  1  0
 53147  1  0
 53148  1  0
 53149  1  0
 54150  1  0
 55151  1  0
 57152  1  0
 58153  1  0
 61154  1  0
 61155  1  0
 61156  1  0
 62157  1  0
 63158  1  0
 70159  1  0
 70160  1  0
 71161  1  0
 71162  1  0
 71163  1  0
 80164  1  0
 81165  1  0
 85166  1  0
 87167  1  0
 88168  1  0
 90169  1  0
 94170  1  0
 94171  1  0
 95172  1  0
 95173  1  0
 95174  1  0
 97175  1  0
102176  1  0
105177  1  0
113178  1  0
114179  1  0
115180  1  0
116181  1  0
117182  1  0
118183  1  0
118184  1  0
119185  1  0
M  END

