
     RDKit          3D

209228  0  0  0  0  0  0  0  0999 V2000
   -1.1506   -0.8290    6.2543 C   0  0  0  0  0  0  0  0  0  0  0  0
   -2.1235   -1.6665    5.7622 C   0  0  0  0  0  0  0  0  0  0  0  0
   -3.5510   -1.4261    6.0743 C   0  0  0  0  0  0  0  0  0  0  0  0
   -4.0429   -1.0776    7.1801 O   0  0  0  0  0  0  0  0  0  0  0  0
   -4.3705   -1.7865    4.8734 C   0  0  0  0  0  0  0  0  0  0  0  0
   -5.7616   -1.9456    4.6877 C   0  0  0  0  0  0  0  0  0  0  0  0
   -6.1330   -2.4488    3.4242 C   0  0  0  0  0  0  0  0  0  0  0  0
   -5.1448   -2.7146    2.3935 C   0  0  0  0  0  0  0  0  0  0  0  0
   -3.8068   -2.5066    2.5465 C   0  0  0  0  0  0  0  0  0  0  0  0
   -3.4065   -2.1493    3.8358 C   0  0  0  0  0  0  0  0  0  0  0  0
   -2.0690   -2.1481    4.4159 C   0  0  0  0  0  0  0  0  0  0  0  0
   -1.0301   -2.8664    3.9272 C   0  0  0  0  0  0  0  0  0  0  0  0
   -0.1026   -3.4748    4.8749 C   0  0  0  0  0  0  0  0  0  0  0  0
    0.5604   -3.9927    5.6249 N   0  0  0  0  0  0  0  0  0  0  0  0
   -0.8793   -3.3252    2.5618 C   0  0  0  0  0  0  0  0  0  0  0  0
   -0.7575   -3.6624    1.4243 N   0  0  0  0  0  0  0  0  0  0  0  0
   -6.2051   -3.2180    1.4842 C   0  0  0  0  0  0  0  0  0  0  0  0
   -6.3130   -4.7679    1.3328 C   0  0  0  0  0  0  0  0  0  0  0  0
   -6.0078   -5.4707    2.6421 C   0  0  0  0  0  0  0  0  0  0  0  0
   -6.9910   -5.1734    3.4701 C   0  0  0  0  0  0  0  0  0  0  0  0
   -7.9211   -4.2493    2.7230 C   0  0  0  0  0  0  0  0  0  0  0  0
   -7.8310   -4.8701    1.3449 C   0  0  0  0  0  0  0  0  0  0  0  0
   -7.2321   -2.8993    2.4602 C   0  0  0  0  0  0  0  0  0  0  0  0
   -0.3730    0.0694    5.3409 C   0  0  0  0  0  0  0  0  0  0  0  0
    0.8893   -0.1071    4.6293 C   0  0  0  0  0  0  0  0  0  0  0  0
    1.9700   -1.0279    5.0490 N   0  0  0  0  0  0  0  0  0  0  0  0
    2.2092   -1.2728    6.4652 C   0  0  0  0  0  0  0  0  0  0  0  0
    1.9538   -0.2876    7.4347 C   0  0  0  0  0  0  0  0  0  0  0  0
    2.1829   -0.5252    8.7826 C   0  0  0  0  0  0  0  0  0  0  0  0
    2.7394   -1.7587    9.1905 C   0  0  0  0  0  0  0  0  0  0  0  0
    3.1065   -1.9983   10.9677 S   0  0  0  0  0  0  0  0  0  0  0  0
    3.4222   -3.8083   11.0449 C   0  0  0  0  0  0  0  0  0  0  0  0
    3.0559   -2.7312    8.2203 C   0  0  0  0  0  0  0  0  0  0  0  0
    2.7890   -2.4893    6.8909 C   0  0  0  0  0  0  0  0  0  0  0  0
    3.1331   -1.2992    4.1626 C   0  0  0  0  0  0  0  0  0  0  0  0
    3.4447   -2.6070    3.7189 C   0  0  0  0  0  0  0  0  0  0  0  0
    4.6302   -2.8553    2.9709 C   0  0  0  0  0  0  0  0  0  0  0  0
    5.4906   -1.7852    2.6474 C   0  0  0  0  0  0  0  0  0  0  0  0
    6.8507   -1.8981    1.4486 S   0  0  0  0  0  0  0  0  0  0  0  0
    7.3780   -3.6474    1.5654 C   0  0  0  0  0  0  0  0  0  0  0  0
    5.1827   -0.4958    3.1218 C   0  0  0  0  0  0  0  0  0  0  0  0
    4.0389   -0.2859    3.9071 C   0  0  0  0  0  0  0  0  0  0  0  0
    0.8911    0.7343    3.4623 C   0  0  0  0  0  0  0  0  0  0  0  0
    1.8011    0.8218    2.0314 S   0  0  0  0  0  0  0  0  0  0  0  0
    0.8612    2.0606    1.2902 C   0  0  0  0  0  0  0  0  0  0  0  0
   -0.1518    2.3797    2.2115 C   0  0  0  0  0  0  0  0  0  0  0  0
   -0.9457    3.6118    2.1179 N   0  0  0  0  0  0  0  0  0  0  0  0
   -0.3026    4.7963    1.5858 C   0  0  0  0  0  0  0  0  0  0  0  0
    0.9104    5.2471    2.0856 C   0  0  0  0  0  0  0  0  0  0  0  0
    1.4318    6.4854    1.7204 C   0  0  0  0  0  0  0  0  0  0  0  0
    0.7265    7.2966    0.7980 C   0  0  0  0  0  0  0  0  0  0  0  0
    1.3144    8.9424    0.3922 S   0  0  0  0  0  0  0  0  0  0  0  0
    2.2299    8.5414   -1.1394 C   0  0  0  0  0  0  0  0  0  0  0  0
   -0.5091    6.8331    0.2825 C   0  0  0  0  0  0  0  0  0  0  0  0
   -1.0142    5.5972    0.6809 C   0  0  0  0  0  0  0  0  0  0  0  0
   -2.2098    3.8319    2.7907 C   0  0  0  0  0  0  0  0  0  0  0  0
   -2.3567    4.9710    3.6257 C   0  0  0  0  0  0  0  0  0  0  0  0
   -3.6147    5.4588    3.9971 C   0  0  0  0  0  0  0  0  0  0  0  0
   -4.7816    4.7897    3.5908 C   0  0  0  0  0  0  0  0  0  0  0  0
   -6.3729    5.3078    4.2478 S   0  0  0  0  0  0  0  0  0  0  0  0
   -6.8059    6.5770    3.0166 C   0  0  0  0  0  0  0  0  0  0  0  0
   -4.6654    3.6226    2.8214 C   0  0  0  0  0  0  0  0  0  0  0  0
   -3.3955    3.1498    2.4405 C   0  0  0  0  0  0  0  0  0  0  0  0
   -0.1161    1.6051    3.3656 C   0  0  0  0  0  0  0  0  0  0  0  0
   -1.1751    1.3524    4.6174 S   0  0  0  0  0  0  0  0  0  0  0  0
    0.7569    2.2938   -0.1921 C   0  0  0  0  0  0  0  0  0  0  0  0
    1.7323    2.0692   -1.1648 C   0  0  0  0  0  0  0  0  0  0  0  0
    3.1661    2.1990   -0.9500 N   0  0  0  0  0  0  0  0  0  0  0  0
    3.7458    3.2929   -0.1284 C   0  0  0  0  0  0  0  0  0  0  0  0
    3.3564    4.6252   -0.2891 C   0  0  0  0  0  0  0  0  0  0  0  0
    4.1223    5.6599    0.2670 C   0  0  0  0  0  0  0  0  0  0  0  0
    5.2655    5.3609    1.0468 C   0  0  0  0  0  0  0  0  0  0  0  0
    6.0572    6.7510    1.8961 S   0  0  0  0  0  0  0  0  0  0  0  0
    7.6868    6.0311    2.3664 C   0  0  0  0  0  0  0  0  0  0  0  0
    5.6577    4.0105    1.2032 C   0  0  0  0  0  0  0  0  0  0  0  0
    4.9047    2.9970    0.6086 C   0  0  0  0  0  0  0  0  0  0  0  0
    4.0980    1.5471   -1.8218 C   0  0  0  0  0  0  0  0  0  0  0  0
    4.1920    0.1360   -1.8860 C   0  0  0  0  0  0  0  0  0  0  0  0
    5.1001   -0.4812   -2.7421 C   0  0  0  0  0  0  0  0  0  0  0  0
    5.9193    0.3048   -3.5739 C   0  0  0  0  0  0  0  0  0  0  0  0
    6.9683   -0.4546   -4.8188 S   0  0  0  0  0  0  0  0  0  0  0  0
    8.5610   -0.3056   -3.9353 C   0  0  0  0  0  0  0  0  0  0  0  0
    5.8204    1.7150   -3.5293 C   0  0  0  0  0  0  0  0  0  0  0  0
    4.9034    2.3239   -2.6807 C   0  0  0  0  0  0  0  0  0  0  0  0
    1.1435    1.7231   -2.3952 C   0  0  0  0  0  0  0  0  0  0  0  0
    1.7140    1.0335   -3.8266 S   0  0  0  0  0  0  0  0  0  0  0  0
    0.2208    0.7646   -4.5499 C   0  0  0  0  0  0  0  0  0  0  0  0
   -0.7749    1.2763   -3.6727 C   0  0  0  0  0  0  0  0  0  0  0  0
   -2.2135    1.3029   -3.8925 N   0  0  0  0  0  0  0  0  0  0  0  0
   -2.7799    1.6709   -5.2140 C   0  0  0  0  0  0  0  0  0  0  0  0
   -3.4040    2.9290   -5.4031 C   0  0  0  0  0  0  0  0  0  0  0  0
   -4.3461    3.1073   -6.4195 C   0  0  0  0  0  0  0  0  0  0  0  0
   -4.5792    2.0864   -7.3547 C   0  0  0  0  0  0  0  0  0  0  0  0
   -5.6040    2.3995   -8.8046 S   0  0  0  0  0  0  0  0  0  0  0  0
   -7.1828    1.6654   -8.2419 C   0  0  0  0  0  0  0  0  0  0  0  0
   -3.8594    0.8872   -7.2626 C   0  0  0  0  0  0  0  0  0  0  0  0
   -2.9998    0.6691   -6.1849 C   0  0  0  0  0  0  0  0  0  0  0  0
   -3.1423    1.0511   -2.8038 C   0  0  0  0  0  0  0  0  0  0  0  0
   -4.1064    2.0104   -2.4271 C   0  0  0  0  0  0  0  0  0  0  0  0
   -5.0863    1.7014   -1.4911 C   0  0  0  0  0  0  0  0  0  0  0  0
   -5.1079    0.4465   -0.8761 C   0  0  0  0  0  0  0  0  0  0  0  0
   -6.6007   -0.0587    0.0090 S   0  0  0  0  0  0  0  0  0  0  0  0
   -6.2480    0.6144    1.6693 C   0  0  0  0  0  0  0  0  0  0  0  0
   -4.0646   -0.4684   -1.1335 C   0  0  0  0  0  0  0  0  0  0  0  0
   -3.0922   -0.1686   -2.0968 C   0  0  0  0  0  0  0  0  0  0  0  0
   -0.1830    1.7472   -2.4675 C   0  0  0  0  0  0  0  0  0  0  0  0
   -0.7604    2.1367   -0.9564 S   0  0  0  0  0  0  0  0  0  0  0  0
    0.0650   -0.4047   -5.5019 C   0  0  0  0  0  0  0  0  0  0  0  0
   -0.5944   -1.6233   -5.2376 C   0  0  0  0  0  0  0  0  0  0  0  0
   -0.3763   -2.6036   -6.1722 C   0  0  0  0  0  0  0  0  0  0  0  0
   -1.2243   -4.1845   -6.0592 S   0  0  0  0  0  0  0  0  0  0  0  0
   -0.0492   -5.1277   -5.0239 C   0  0  0  0  0  0  0  0  0  0  0  0
   -0.0509   -4.5848   -3.6016 C   0  0  0  0  0  0  0  0  0  0  0  0
    0.4025   -2.1961   -7.2866 C   0  0  0  0  0  0  0  0  0  0  0  0
    0.9864   -0.7143   -6.9102 S   0  0  0  0  0  0  0  0  0  0  0  0
    0.9760   -3.2089   -8.2097 C   0  0  0  0  0  0  0  0  0  0  0  0
    1.1809   -3.2051   -9.6220 C   0  0  0  0  0  0  0  0  0  0  0  0
    0.4708   -2.2500  -10.5243 C   0  0  0  0  0  0  0  0  0  0  0  0
   -0.2581   -1.2718  -10.2040 O   0  0  0  0  0  0  0  0  0  0  0  0
    0.7132   -2.8111  -11.9181 C   0  0  0  0  0  0  0  0  0  0  0  0
    0.3273   -2.1981  -13.1067 C   0  0  0  0  0  0  0  0  0  0  0  0
   -0.7266   -0.7555  -13.1223 Cl  0  0  0  0  0  0  0  0  0  0  0  0
    0.7462   -2.7345  -14.3344 C   0  0  0  0  0  0  0  0  0  0  0  0
    0.2869   -1.9786  -15.8784 Cl  0  0  0  0  0  0  0  0  0  0  0  0
    1.6060   -3.8591  -14.4218 C   0  0  0  0  0  0  0  0  0  0  0  0
    2.1035   -4.4247  -16.0042 Cl  0  0  0  0  0  0  0  0  0  0  0  0
    2.1676   -4.3828  -13.1915 C   0  0  0  0  0  0  0  0  0  0  0  0
    3.6855   -5.4049  -13.1863 Cl  0  0  0  0  0  0  0  0  0  0  0  0
    1.6831   -3.9366  -11.9389 C   0  0  0  0  0  0  0  0  0  0  0  0
    2.0401   -4.0962  -10.4559 C   0  0  0  0  0  0  0  0  0  0  0  0
    2.9861   -4.9891   -9.8603 C   0  0  0  0  0  0  0  0  0  0  0  0
    3.4214   -6.3332  -10.2807 C   0  0  0  0  0  0  0  0  0  0  0  0
    3.7420   -7.3950  -10.5276 N   0  0  0  0  0  0  0  0  0  0  0  0
    3.4780   -4.7800   -8.5159 C   0  0  0  0  0  0  0  0  0  0  0  0
    3.8326   -4.7600   -7.4496 N   0  0  0  0  0  0  0  0  0  0  0  0
   -0.5994   -1.3013    7.0453 H   0  0  0  0  0  0  0  0  0  0  0  0
   -6.5039   -1.8076    5.4797 H   0  0  0  0  0  0  0  0  0  0  0  0
   -3.1493   -2.7385    1.6746 H   0  0  0  0  0  0  0  0  0  0  0  0
   -6.2222   -2.6668    0.5290 H   0  0  0  0  0  0  0  0  0  0  0  0
   -5.8072   -5.1923    0.4169 H   0  0  0  0  0  0  0  0  0  0  0  0
   -5.1181   -6.0437    2.8678 H   0  0  0  0  0  0  0  0  0  0  0  0
   -7.0618   -5.4980    4.5058 H   0  0  0  0  0  0  0  0  0  0  0  0
   -8.9434   -4.1713    3.1339 H   0  0  0  0  0  0  0  0  0  0  0  0
   -8.3222   -4.2810    0.5310 H   0  0  0  0  0  0  0  0  0  0  0  0
   -8.1928   -5.9193    1.2910 H   0  0  0  0  0  0  0  0  0  0  0  0
   -7.8741   -2.0703    2.1268 H   0  0  0  0  0  0  0  0  0  0  0  0
    1.5808    0.6447    7.1339 H   0  0  0  0  0  0  0  0  0  0  0  0
    1.9764    0.2336    9.5070 H   0  0  0  0  0  0  0  0  0  0  0  0
    3.2732   -4.1478   12.0783 H   0  0  0  0  0  0  0  0  0  0  0  0
    4.4722   -4.0032   10.7544 H   0  0  0  0  0  0  0  0  0  0  0  0
    2.7252   -4.3934   10.4306 H   0  0  0  0  0  0  0  0  0  0  0  0
    3.5064   -3.6934    8.4641 H   0  0  0  0  0  0  0  0  0  0  0  0
    3.0373   -3.2985    6.1990 H   0  0  0  0  0  0  0  0  0  0  0  0
    2.7837   -3.4260    3.9661 H   0  0  0  0  0  0  0  0  0  0  0  0
    4.8595   -3.9016    2.7109 H   0  0  0  0  0  0  0  0  0  0  0  0
    8.4090   -3.6779    1.1765 H   0  0  0  0  0  0  0  0  0  0  0  0
    7.3946   -4.0064    2.5960 H   0  0  0  0  0  0  0  0  0  0  0  0
    6.7579   -4.2663    0.9037 H   0  0  0  0  0  0  0  0  0  0  0  0
    5.7774    0.3704    2.8410 H   0  0  0  0  0  0  0  0  0  0  0  0
    3.8369    0.6953    4.2536 H   0  0  0  0  0  0  0  0  0  0  0  0
    1.3981    4.6713    2.8526 H   0  0  0  0  0  0  0  0  0  0  0  0
    2.3305    6.8415    2.1846 H   0  0  0  0  0  0  0  0  0  0  0  0
    2.0643    7.5165   -1.4931 H   0  0  0  0  0  0  0  0  0  0  0  0
    3.3082    8.7155   -0.9638 H   0  0  0  0  0  0  0  0  0  0  0  0
    1.9119    9.2447   -1.9263 H   0  0  0  0  0  0  0  0  0  0  0  0
   -1.1196    7.4814   -0.3258 H   0  0  0  0  0  0  0  0  0  0  0  0
   -2.0266    5.3146    0.3690 H   0  0  0  0  0  0  0  0  0  0  0  0
   -1.4940    5.5528    3.8969 H   0  0  0  0  0  0  0  0  0  0  0  0
   -3.6689    6.3636    4.5967 H   0  0  0  0  0  0  0  0  0  0  0  0
   -7.2302    7.4442    3.5670 H   0  0  0  0  0  0  0  0  0  0  0  0
   -7.6040    6.1809    2.3686 H   0  0  0  0  0  0  0  0  0  0  0  0
   -5.9532    6.9135    2.4146 H   0  0  0  0  0  0  0  0  0  0  0  0
   -5.5300    3.0810    2.5346 H   0  0  0  0  0  0  0  0  0  0  0  0
   -3.2975    2.3099    1.7798 H   0  0  0  0  0  0  0  0  0  0  0  0
    2.5377    4.8625   -0.9217 H   0  0  0  0  0  0  0  0  0  0  0  0
    3.7968    6.6709    0.1503 H   0  0  0  0  0  0  0  0  0  0  0  0
    8.0745    5.3140    1.6334 H   0  0  0  0  0  0  0  0  0  0  0  0
    8.4131    6.8587    2.4368 H   0  0  0  0  0  0  0  0  0  0  0  0
    7.6089    5.5712    3.3689 H   0  0  0  0  0  0  0  0  0  0  0  0
    6.5391    3.7309    1.7548 H   0  0  0  0  0  0  0  0  0  0  0  0
    5.2888    1.9867    0.6219 H   0  0  0  0  0  0  0  0  0  0  0  0
    3.5396   -0.4265   -1.2531 H   0  0  0  0  0  0  0  0  0  0  0  0
    5.1024   -1.5436   -2.8016 H   0  0  0  0  0  0  0  0  0  0  0  0
    8.7634   -1.2405   -3.3918 H   0  0  0  0  0  0  0  0  0  0  0  0
    8.5897    0.5528   -3.2476 H   0  0  0  0  0  0  0  0  0  0  0  0
    9.3608   -0.1789   -4.6944 H   0  0  0  0  0  0  0  0  0  0  0  0
    6.4161    2.3350   -4.1900 H   0  0  0  0  0  0  0  0  0  0  0  0
    4.8429    3.4153   -2.6602 H   0  0  0  0  0  0  0  0  0  0  0  0
   -3.2110    3.7419   -4.7146 H   0  0  0  0  0  0  0  0  0  0  0  0
   -4.8658    4.0450   -6.4982 H   0  0  0  0  0  0  0  0  0  0  0  0
   -7.0513    0.9735   -7.3986 H   0  0  0  0  0  0  0  0  0  0  0  0
   -7.8893    2.4735   -7.9718 H   0  0  0  0  0  0  0  0  0  0  0  0
   -7.6303    1.1133   -9.0938 H   0  0  0  0  0  0  0  0  0  0  0  0
   -3.9560    0.1135   -8.0164 H   0  0  0  0  0  0  0  0  0  0  0  0
   -2.5902   -0.3062   -6.0695 H   0  0  0  0  0  0  0  0  0  0  0  0
   -4.1337    3.0037   -2.8627 H   0  0  0  0  0  0  0  0  0  0  0  0
   -5.8904    2.4211   -1.3508 H   0  0  0  0  0  0  0  0  0  0  0  0
   -6.8204    1.5444    1.7820 H   0  0  0  0  0  0  0  0  0  0  0  0
   -5.1877    0.7529    1.8878 H   0  0  0  0  0  0  0  0  0  0  0  0
   -6.6603   -0.0573    2.4260 H   0  0  0  0  0  0  0  0  0  0  0  0
   -4.0765   -1.4622   -0.7086 H   0  0  0  0  0  0  0  0  0  0  0  0
   -2.3436   -0.8894   -2.3663 H   0  0  0  0  0  0  0  0  0  0  0  0
   -1.2969   -1.7061   -4.3739 H   0  0  0  0  0  0  0  0  0  0  0  0
   -0.4115   -6.2001   -4.9954 H   0  0  0  0  0  0  0  0  0  0  0  0
    0.9867   -5.1406   -5.4512 H   0  0  0  0  0  0  0  0  0  0  0  0
    0.7057   -3.7832   -3.5197 H   0  0  0  0  0  0  0  0  0  0  0  0
    0.2172   -5.3922   -2.8987 H   0  0  0  0  0  0  0  0  0  0  0  0
   -1.0499   -4.1962   -3.3328 H   0  0  0  0  0  0  0  0  0  0  0  0
    1.0503   -4.1646   -7.7972 H   0  0  0  0  0  0  0  0  0  0  0  0
  1  2  2  3
  2  3  1  0
  3  4  2  0
  3  5  1  0
  5  6  2  0
  6  7  1  0
  7  8  2  0
  8  9  1  0
  9 10  2  0
 10 11  1  0
 11 12  2  3
 12 13  1  0
 13 14  3  0
 12 15  1  0
 15 16  3  0
  8 17  1  0
 17 18  1  0
 18 19  1  0
 19 20  2  0
 20 21  1  0
 21 22  1  0
 21 23  1  0
  1 24  1  0
 24 25  2  0
 25 26  1  0
 26 27  1  0
 27 28  2  0
 28 29  1  0
 29 30  2  0
 30 31  1  0
 31 32  1  0
 30 33  1  0
 33 34  2  0
 26 35  1  0
 35 36  2  0
 36 37  1  0
 37 38  2  0
 38 39  1  0
 39 40  1  0
 38 41  1  0
 41 42  2  0
 25 43  1  0
 43 44  1  0
 44 45  1  0
 45 46  2  0
 46 47  1  0
 47 48  1  0
 48 49  2  0
 49 50  1  0
 50 51  2  0
 51 52  1  0
 52 53  1  0
 51 54  1  0
 54 55  2  0
 47 56  1  0
 56 57  2  0
 57 58  1  0
 58 59  2  0
 59 60  1  0
 60 61  1  0
 59 62  1  0
 62 63  2  0
 46 64  1  0
 64 65  1  0
 45 66  1  0
 66 67  2  0
 67 68  1  0
 68 69  1  0
 69 70  2  0
 70 71  1  0
 71 72  2  0
 72 73  1  0
 73 74  1  0
 72 75  1  0
 75 76  2  0
 68 77  1  0
 77 78  2  0
 78 79  1  0
 79 80  2  0
 80 81  1  0
 81 82  1  0
 80 83  1  0
 83 84  2  0
 67 85  1  0
 85 86  1  0
 86 87  1  0
 87 88  2  0
 88 89  1  0
 89 90  1  0
 90 91  2  0
 91 92  1  0
 92 93  2  0
 93 94  1  0
 94 95  1  0
 93 96  1  0
 96 97  2  0
 89 98  1  0
 98 99  2  0
 99100  1  0
100101  2  0
101102  1  0
102103  1  0
101104  1  0
104105  2  0
 88106  1  0
106107  1  0
 87108  1  0
108109  2  0
109110  1  0
110111  1  0
111112  1  0
112113  1  0
110114  2  0
114115  1  0
114116  1  0
116117  2  3
117118  1  0
118119  2  0
118120  1  0
120121  2  0
121122  1  0
121123  1  0
123124  1  0
123125  2  0
125126  1  0
125127  1  0
127128  1  0
127129  2  0
129130  1  0
130131  2  3
131132  1  0
132133  3  0
131134  1  0
134135  3  0
 11  2  1  0
 23 17  1  0
 65 24  1  0
107 66  1  0
115108  1  0
130117  1  0
 10  5  1  0
 22 18  1  0
 34 27  1  0
 42 35  1  0
 64 43  2  0
 76 69  1  0
 84 77  1  0
106 85  2  0
129120  1  0
 23  7  1  0
 55 48  1  0
 63 56  1  0
 97 90  1  0
105 98  1  0
  1136  1  0
  6137  1  0
  9138  1  0
 17139  1  0
 18140  1  0
 19141  1  0
 20142  1  0
 21143  1  0
 22144  1  0
 22145  1  0
 23146  1  0
 28147  1  0
 29148  1  0
 32149  1  0
 32150  1  0
 32151  1  0
 33152  1  0
 34153  1  0
 36154  1  0
 37155  1  0
 40156  1  0
 40157  1  0
 40158  1  0
 41159  1  0
 42160  1  0
 49161  1  0
 50162  1  0
 53163  1  0
 53164  1  0
 53165  1  0
 54166  1  0
 55167  1  0
 57168  1  0
 58169  1  0
 61170  1  0
 61171  1  0
 61172  1  0
 62173  1  0
 63174  1  0
 70175  1  0
 71176  1  0
 74177  1  0
 74178  1  0
 74179  1  0
 75180  1  0
 76181  1  0
 78182  1  0
 79183  1  0
 82184  1  0
 82185  1  0
 82186  1  0
 83187  1  0
 84188  1  0
 91189  1  0
 92190  1  0
 95191  1  0
 95192  1  0
 95193  1  0
 96194  1  0
 97195  1  0
 99196  1  0
100197  1  0
103198  1  0
103199  1  0
103200  1  0
104201  1  0
105202  1  0
109203  1  0
112204  1  0
112205  1  0
113206  1  0
113207  1  0
113208  1  0
116209  1  0
M  END

