
     RDKit          3D

265289  0  0  0  0  0  0  0  0999 V2000
    3.7070    0.5795   -7.2590 C   0  0  0  0  0  0  0  0  0  0  0  0
    4.8119   -0.1873   -7.2924 C   0  0  0  0  0  0  0  0  0  0  0  0
    5.3126   -0.9891   -6.1660 C   0  0  0  0  0  0  0  0  0  0  0  0
    4.7516   -1.1576   -5.0510 O   0  0  0  0  0  0  0  0  0  0  0  0
    6.6581   -1.4202   -6.4688 C   0  0  0  0  0  0  0  0  0  0  0  0
    7.5161   -2.1567   -5.6205 C   0  0  0  0  0  0  0  0  0  0  0  0
    8.7698   -2.3881   -6.1529 C   0  0  0  0  0  0  0  0  0  0  0  0
    9.1567   -1.9378   -7.4564 C   0  0  0  0  0  0  0  0  0  0  0  0
    8.3226   -1.2105   -8.2904 C   0  0  0  0  0  0  0  0  0  0  0  0
    7.0306   -0.9425   -7.7533 C   0  0  0  0  0  0  0  0  0  0  0  0
    5.8876   -0.1739   -8.3373 C   0  0  0  0  0  0  0  0  0  0  0  0
    5.7956    0.3214   -9.6035 C   0  0  0  0  0  0  0  0  0  0  0  0
    4.5820    0.8806  -10.1405 C   0  0  0  0  0  0  0  0  0  0  0  0
    3.6205    1.3510  -10.5779 N   0  0  0  0  0  0  0  0  0  0  0  0
    6.8942    0.3249  -10.5329 C   0  0  0  0  0  0  0  0  0  0  0  0
    7.7704    0.3450  -11.2940 N   0  0  0  0  0  0  0  0  0  0  0  0
   10.5127   -2.5510   -7.2852 C   0  0  0  0  0  0  0  0  0  0  0  0
   10.8196   -3.8783   -8.0445 C   0  0  0  0  0  0  0  0  0  0  0  0
    9.5549   -4.6929   -8.2049 C   0  0  0  0  0  0  0  0  0  0  0  0
    9.2112   -5.1038   -6.9841 C   0  0  0  0  0  0  0  0  0  0  0  0
   10.2485   -4.5532   -6.0347 C   0  0  0  0  0  0  0  0  0  0  0  0
   11.4718   -4.6668   -6.9227 C   0  0  0  0  0  0  0  0  0  0  0  0
   10.1242   -3.0019   -5.9449 C   0  0  0  0  0  0  0  0  0  0  0  0
    2.6176    0.4371   -6.2760 C   0  0  0  0  0  0  0  0  0  0  0  0
    1.9807    1.5131   -5.6472 C   0  0  0  0  0  0  0  0  0  0  0  0
    2.6162    2.7928   -5.4571 N   0  0  0  0  0  0  0  0  0  0  0  0
    3.9450    2.7806   -4.8907 C   0  0  0  0  0  0  0  0  0  0  0  0
    4.1936    2.0780   -3.6958 C   0  0  0  0  0  0  0  0  0  0  0  0
    5.4723    2.0732   -3.1338 C   0  0  0  0  0  0  0  0  0  0  0  0
    6.5139    2.7761   -3.7558 C   0  0  0  0  0  0  0  0  0  0  0  0
    8.1488    2.7995   -3.0141 S   0  0  0  0  0  0  0  0  0  0  0  0
    7.7931    4.2481   -1.9676 C   0  0  0  0  0  0  0  0  0  0  0  0
    6.2760    3.4596   -4.9547 C   0  0  0  0  0  0  0  0  0  0  0  0
    5.0010    3.4537   -5.5250 C   0  0  0  0  0  0  0  0  0  0  0  0
    1.8924    4.0351   -5.6474 C   0  0  0  0  0  0  0  0  0  0  0  0
    2.3758    5.2456   -5.1049 C   0  0  0  0  0  0  0  0  0  0  0  0
    1.6880    6.4445   -5.3012 C   0  0  0  0  0  0  0  0  0  0  0  0
    0.4832    6.4564   -6.0064 C   0  0  0  0  0  0  0  0  0  0  0  0
   -0.4066    7.9951   -6.2356 S   0  0  0  0  0  0  0  0  0  0  0  0
   -0.9945    8.0656   -4.5132 C   0  0  0  0  0  0  0  0  0  0  0  0
   -0.0185    5.2649   -6.5420 C   0  0  0  0  0  0  0  0  0  0  0  0
    0.6875    4.0673   -6.3801 C   0  0  0  0  0  0  0  0  0  0  0  0
    0.9233    1.0664   -4.8591 C   0  0  0  0  0  0  0  0  0  0  0  0
    0.0125    1.7870   -3.6583 S   0  0  0  0  0  0  0  0  0  0  0  0
   -0.5950    0.3181   -3.0426 C   0  0  0  0  0  0  0  0  0  0  0  0
   -0.0243   -0.7497   -3.7523 C   0  0  0  0  0  0  0  0  0  0  0  0
    0.1028   -2.0828   -3.2331 N   0  0  0  0  0  0  0  0  0  0  0  0
    1.2155   -2.4373   -2.3677 C   0  0  0  0  0  0  0  0  0  0  0  0
    1.1487   -3.5966   -1.5679 C   0  0  0  0  0  0  0  0  0  0  0  0
    2.2528   -4.0182   -0.8277 C   0  0  0  0  0  0  0  0  0  0  0  0
    3.4395   -3.2774   -0.8534 C   0  0  0  0  0  0  0  0  0  0  0  0
    4.8770   -3.8648    0.0416 S   0  0  0  0  0  0  0  0  0  0  0  0
    4.4278   -2.9945    1.5741 C   0  0  0  0  0  0  0  0  0  0  0  0
    3.5111   -2.0995   -1.6034 C   0  0  0  0  0  0  0  0  0  0  0  0
    2.4044   -1.6718   -2.3406 C   0  0  0  0  0  0  0  0  0  0  0  0
   -0.7190   -3.1133   -3.8053 C   0  0  0  0  0  0  0  0  0  0  0  0
   -0.1227   -4.2130   -4.4458 C   0  0  0  0  0  0  0  0  0  0  0  0
   -0.9058   -5.2750   -4.9028 C   0  0  0  0  0  0  0  0  0  0  0  0
   -2.2920   -5.2533   -4.7107 C   0  0  0  0  0  0  0  0  0  0  0  0
   -3.2975   -6.6362   -5.2544 S   0  0  0  0  0  0  0  0  0  0  0  0
   -3.1095   -7.5499   -3.6889 C   0  0  0  0  0  0  0  0  0  0  0  0
   -2.8915   -4.1552   -4.0863 C   0  0  0  0  0  0  0  0  0  0  0  0
   -2.1121   -3.0775   -3.6503 C   0  0  0  0  0  0  0  0  0  0  0  0
    0.7602   -0.2830   -4.8084 C   0  0  0  0  0  0  0  0  0  0  0  0
    1.8774   -1.0294   -5.8119 S   0  0  0  0  0  0  0  0  0  0  0  0
   -1.4935    0.2588   -1.8804 C   0  0  0  0  0  0  0  0  0  0  0  0
   -2.3738    1.2979   -1.5450 C   0  0  0  0  0  0  0  0  0  0  0  0
   -3.1900    1.9077   -2.5645 N   0  0  0  0  0  0  0  0  0  0  0  0
   -3.2925    3.3247   -2.7632 C   0  0  0  0  0  0  0  0  0  0  0  0
   -2.9649    3.8567   -4.0220 C   0  0  0  0  0  0  0  0  0  0  0  0
   -3.3325    5.1619   -4.3561 C   0  0  0  0  0  0  0  0  0  0  0  0
   -4.0159    5.9556   -3.4276 C   0  0  0  0  0  0  0  0  0  0  0  0
   -4.5668    7.6003   -3.8758 S   0  0  0  0  0  0  0  0  0  0  0  0
   -6.1221    7.0049   -4.6111 C   0  0  0  0  0  0  0  0  0  0  0  0
   -4.3197    5.4452   -2.1610 C   0  0  0  0  0  0  0  0  0  0  0  0
   -3.9736    4.1325   -1.8359 C   0  0  0  0  0  0  0  0  0  0  0  0
   -4.1500    1.0779   -3.2335 C   0  0  0  0  0  0  0  0  0  0  0  0
   -3.7629    0.2627   -4.3090 C   0  0  0  0  0  0  0  0  0  0  0  0
   -4.6951   -0.5854   -4.9186 C   0  0  0  0  0  0  0  0  0  0  0  0
   -6.0269   -0.5921   -4.4812 C   0  0  0  0  0  0  0  0  0  0  0  0
   -7.2257   -1.6617   -5.2766 S   0  0  0  0  0  0  0  0  0  0  0  0
   -7.0294   -2.9930   -4.0520 C   0  0  0  0  0  0  0  0  0  0  0  0
   -6.4183    0.2442   -3.4309 C   0  0  0  0  0  0  0  0  0  0  0  0
   -5.4834    1.0687   -2.8029 C   0  0  0  0  0  0  0  0  0  0  0  0
   -2.8754    1.0922   -0.2614 C   0  0  0  0  0  0  0  0  0  0  0  0
   -3.0845    2.2296    0.9516 S   0  0  0  0  0  0  0  0  0  0  0  0
   -2.8989    1.1511    2.2365 C   0  0  0  0  0  0  0  0  0  0  0  0
   -2.6631   -0.1392    1.7253 C   0  0  0  0  0  0  0  0  0  0  0  0
   -3.1607   -1.3188    2.3940 N   0  0  0  0  0  0  0  0  0  0  0  0
   -4.5258   -1.3153    2.8769 C   0  0  0  0  0  0  0  0  0  0  0  0
   -4.8368   -1.8392    4.1449 C   0  0  0  0  0  0  0  0  0  0  0  0
   -6.1102   -1.6519    4.6949 C   0  0  0  0  0  0  0  0  0  0  0  0
   -7.0941   -0.9777    3.9631 C   0  0  0  0  0  0  0  0  0  0  0  0
   -8.6815   -0.6118    4.7122 S   0  0  0  0  0  0  0  0  0  0  0  0
   -8.2024    1.0951    5.1377 C   0  0  0  0  0  0  0  0  0  0  0  0
   -6.8227   -0.5335    2.6664 C   0  0  0  0  0  0  0  0  0  0  0  0
   -5.5448   -0.6946    2.1272 C   0  0  0  0  0  0  0  0  0  0  0  0
   -2.3546   -2.5079    2.5257 C   0  0  0  0  0  0  0  0  0  0  0  0
   -0.9974   -2.4210    2.8817 C   0  0  0  0  0  0  0  0  0  0  0  0
   -0.2567   -3.5795    3.1349 C   0  0  0  0  0  0  0  0  0  0  0  0
   -0.8735   -4.8349    3.0753 C   0  0  0  0  0  0  0  0  0  0  0  0
    0.0284   -6.3125    3.5541 S   0  0  0  0  0  0  0  0  0  0  0  0
    0.3960   -6.7938    1.8429 C   0  0  0  0  0  0  0  0  0  0  0  0
   -2.2187   -4.9329    2.7018 C   0  0  0  0  0  0  0  0  0  0  0  0
   -2.9481   -3.7786    2.4097 C   0  0  0  0  0  0  0  0  0  0  0  0
   -2.5576   -0.1019    0.3316 C   0  0  0  0  0  0  0  0  0  0  0  0
   -1.4658   -0.9158   -0.6517 S   0  0  0  0  0  0  0  0  0  0  0  0
   -2.5023    1.5443    3.5953 C   0  0  0  0  0  0  0  0  0  0  0  0
   -1.2357    2.1051    3.9045 C   0  0  0  0  0  0  0  0  0  0  0  0
   -0.3960    2.8118    2.9658 N   0  0  0  0  0  0  0  0  0  0  0  0
   -0.8361    4.0470    2.3654 C   0  0  0  0  0  0  0  0  0  0  0  0
   -0.5443    4.3237    1.0157 C   0  0  0  0  0  0  0  0  0  0  0  0
   -0.9652    5.5162    0.4283 C   0  0  0  0  0  0  0  0  0  0  0  0
   -1.6391    6.4728    1.1943 C   0  0  0  0  0  0  0  0  0  0  0  0
   -2.1257    8.0263    0.4405 S   0  0  0  0  0  0  0  0  0  0  0  0
   -0.5267    8.8299    0.7867 C   0  0  0  0  0  0  0  0  0  0  0  0
   -1.9337    6.2122    2.5374 C   0  0  0  0  0  0  0  0  0  0  0  0
   -1.5474    4.9970    3.1192 C   0  0  0  0  0  0  0  0  0  0  0  0
    0.9264    2.3320    2.6698 C   0  0  0  0  0  0  0  0  0  0  0  0
    2.0340    3.1909    2.7811 C   0  0  0  0  0  0  0  0  0  0  0  0
    3.2970    2.7682    2.3603 C   0  0  0  0  0  0  0  0  0  0  0  0
    3.4660    1.4834    1.8346 C   0  0  0  0  0  0  0  0  0  0  0  0
    5.0686    0.9791    1.2044 S   0  0  0  0  0  0  0  0  0  0  0  0
    5.6864    0.4525    2.8334 C   0  0  0  0  0  0  0  0  0  0  0  0
    2.3721    0.6139    1.7462 C   0  0  0  0  0  0  0  0  0  0  0  0
    1.1049    1.0402    2.1574 C   0  0  0  0  0  0  0  0  0  0  0  0
   -0.8300    1.7417    5.1904 C   0  0  0  0  0  0  0  0  0  0  0  0
    0.6361    1.7609    6.0067 S   0  0  0  0  0  0  0  0  0  0  0  0
    0.1229    0.7067    7.2577 C   0  0  0  0  0  0  0  0  0  0  0  0
   -1.2269    0.3902    7.0408 C   0  0  0  0  0  0  0  0  0  0  0  0
   -1.9958   -0.5473    7.8146 N   0  0  0  0  0  0  0  0  0  0  0  0
   -3.2243   -0.0808    8.4133 C   0  0  0  0  0  0  0  0  0  0  0  0
   -3.2704    1.1743    9.0487 C   0  0  0  0  0  0  0  0  0  0  0  0
   -4.4656    1.6486    9.5979 C   0  0  0  0  0  0  0  0  0  0  0  0
   -5.6272    0.8726    9.5231 C   0  0  0  0  0  0  0  0  0  0  0  0
   -7.1470    1.4767   10.2703 S   0  0  0  0  0  0  0  0  0  0  0  0
   -7.8302    2.0623    8.6879 C   0  0  0  0  0  0  0  0  0  0  0  0
   -5.5941   -0.3744    8.8927 C   0  0  0  0  0  0  0  0  0  0  0  0
   -4.4037   -0.8467    8.3289 C   0  0  0  0  0  0  0  0  0  0  0  0
   -1.6306   -1.9475    7.8187 C   0  0  0  0  0  0  0  0  0  0  0  0
   -0.9642   -2.5221    6.7154 C   0  0  0  0  0  0  0  0  0  0  0  0
   -0.6259   -3.8790    6.7198 C   0  0  0  0  0  0  0  0  0  0  0  0
   -0.9623   -4.6845    7.8095 C   0  0  0  0  0  0  0  0  0  0  0  0
   -0.5223   -6.4264    7.8046 S   0  0  0  0  0  0  0  0  0  0  0  0
   -2.0758   -6.9496    7.0126 C   0  0  0  0  0  0  0  0  0  0  0  0
   -1.6163   -4.1269    8.9123 C   0  0  0  0  0  0  0  0  0  0  0  0
   -1.9502   -2.7684    8.9160 C   0  0  0  0  0  0  0  0  0  0  0  0
   -1.7129    0.9894    5.8889 C   0  0  0  0  0  0  0  0  0  0  0  0
   -3.0643    0.6955    4.9611 S   0  0  0  0  0  0  0  0  0  0  0  0
    0.8830    0.2850    8.4513 C   0  0  0  0  0  0  0  0  0  0  0  0
    2.2214    0.1826    8.5521 C   0  0  0  0  0  0  0  0  0  0  0  0
    3.2266    0.4674    7.5169 C   0  0  0  0  0  0  0  0  0  0  0  0
    3.1089    0.2546    6.2817 O   0  0  0  0  0  0  0  0  0  0  0  0
    4.4545    0.8581    8.1838 C   0  0  0  0  0  0  0  0  0  0  0  0
    5.5962    1.4217    7.6248 C   0  0  0  0  0  0  0  0  0  0  0  0
    6.6096    1.8688    8.4833 C   0  0  0  0  0  0  0  0  0  0  0  0
    8.0696    2.5838    7.8229 Cl  0  0  0  0  0  0  0  0  0  0  0  0
    6.4519    1.7532    9.8798 C   0  0  0  0  0  0  0  0  0  0  0  0
    5.2892    1.1821   10.4218 C   0  0  0  0  0  0  0  0  0  0  0  0
    4.3015    0.7022    9.5513 C   0  0  0  0  0  0  0  0  0  0  0  0
    2.9727    0.1047    9.8343 C   0  0  0  0  0  0  0  0  0  0  0  0
    2.6397   -0.6461   10.9130 C   0  0  0  0  0  0  0  0  0  0  0  0
    3.4957   -0.7615   12.0658 C   0  0  0  0  0  0  0  0  0  0  0  0
    4.1564   -0.8665   13.0138 N   0  0  0  0  0  0  0  0  0  0  0  0
    1.4518   -1.4615   10.9397 C   0  0  0  0  0  0  0  0  0  0  0  0
    0.5030   -2.1242   10.9609 N   0  0  0  0  0  0  0  0  0  0  0  0
    3.5926    1.4002   -7.9421 H   0  0  0  0  0  0  0  0  0  0  0  0
    7.2256   -2.5032   -4.6371 H   0  0  0  0  0  0  0  0  0  0  0  0
    8.6763   -0.8893   -9.2500 H   0  0  0  0  0  0  0  0  0  0  0  0
   11.3437   -1.8098   -7.2870 H   0  0  0  0  0  0  0  0  0  0  0  0
   11.4272   -3.7659   -8.9681 H   0  0  0  0  0  0  0  0  0  0  0  0
    9.0661   -4.9763   -9.1288 H   0  0  0  0  0  0  0  0  0  0  0  0
    8.3944   -5.7791   -6.7481 H   0  0  0  0  0  0  0  0  0  0  0  0
   10.3138   -5.0735   -5.0562 H   0  0  0  0  0  0  0  0  0  0  0  0
   11.7225   -5.7148   -7.2023 H   0  0  0  0  0  0  0  0  0  0  0  0
   12.3784   -4.1720   -6.5029 H   0  0  0  0  0  0  0  0  0  0  0  0
   10.7118   -2.5271   -5.1286 H   0  0  0  0  0  0  0  0  0  0  0  0
    3.3932    1.5488   -3.1913 H   0  0  0  0  0  0  0  0  0  0  0  0
    5.6539    1.5353   -2.2093 H   0  0  0  0  0  0  0  0  0  0  0  0
    7.0015    3.9980   -1.2309 H   0  0  0  0  0  0  0  0  0  0  0  0
    7.4636    5.1037   -2.5940 H   0  0  0  0  0  0  0  0  0  0  0  0
    8.7118    4.5399   -1.4182 H   0  0  0  0  0  0  0  0  0  0  0  0
    7.0813    3.9927   -5.4423 H   0  0  0  0  0  0  0  0  0  0  0  0
    4.8273    3.9810   -6.4538 H   0  0  0  0  0  0  0  0  0  0  0  0
    3.2800    5.2749   -4.5099 H   0  0  0  0  0  0  0  0  0  0  0  0
    2.0779    7.3644   -4.8788 H   0  0  0  0  0  0  0  0  0  0  0  0
   -0.1584    8.3427   -3.8393 H   0  0  0  0  0  0  0  0  0  0  0  0
   -1.4004    7.0858   -4.1987 H   0  0  0  0  0  0  0  0  0  0  0  0
   -1.7898    8.8340   -4.4317 H   0  0  0  0  0  0  0  0  0  0  0  0
   -0.9395    5.2704   -7.1135 H   0  0  0  0  0  0  0  0  0  0  0  0
    0.2905    3.1677   -6.8338 H   0  0  0  0  0  0  0  0  0  0  0  0
    0.2464   -4.1933   -1.5410 H   0  0  0  0  0  0  0  0  0  0  0  0
    2.2000   -4.9324   -0.2510 H   0  0  0  0  0  0  0  0  0  0  0  0
    4.3671   -1.9056    1.3817 H   0  0  0  0  0  0  0  0  0  0  0  0
    3.4506   -3.3652    1.9507 H   0  0  0  0  0  0  0  0  0  0  0  0
    5.2074   -3.1787    2.3407 H   0  0  0  0  0  0  0  0  0  0  0  0
    4.4326   -1.5271   -1.6294 H   0  0  0  0  0  0  0  0  0  0  0  0
    2.5048   -0.7632   -2.9139 H   0  0  0  0  0  0  0  0  0  0  0  0
    0.9513   -4.2587   -4.5722 H   0  0  0  0  0  0  0  0  0  0  0  0
   -0.4370   -6.1268   -5.3799 H   0  0  0  0  0  0  0  0  0  0  0  0
   -2.0348   -7.6467   -3.4237 H   0  0  0  0  0  0  0  0  0  0  0  0
   -3.5372   -8.5668   -3.8058 H   0  0  0  0  0  0  0  0  0  0  0  0
   -3.6496   -7.0208   -2.8764 H   0  0  0  0  0  0  0  0  0  0  0  0
   -3.9545   -4.1431   -3.9257 H   0  0  0  0  0  0  0  0  0  0  0  0
   -2.5872   -2.2405   -3.1535 H   0  0  0  0  0  0  0  0  0  0  0  0
   -2.4922    3.2328   -4.7689 H   0  0  0  0  0  0  0  0  0  0  0  0
   -3.1131    5.5444   -5.3449 H   0  0  0  0  0  0  0  0  0  0  0  0
   -5.9027    6.3765   -5.5009 H   0  0  0  0  0  0  0  0  0  0  0  0
   -6.7259    7.8766   -4.9309 H   0  0  0  0  0  0  0  0  0  0  0  0
   -6.7110    6.4174   -3.8722 H   0  0  0  0  0  0  0  0  0  0  0  0
   -4.8764    6.0472   -1.4518 H   0  0  0  0  0  0  0  0  0  0  0  0
   -4.3262    3.7234   -0.9046 H   0  0  0  0  0  0  0  0  0  0  0  0
   -2.7453    0.2784   -4.6739 H   0  0  0  0  0  0  0  0  0  0  0  0
   -4.3828   -1.2286   -5.7300 H   0  0  0  0  0  0  0  0  0  0  0  0
   -7.5860   -3.8889   -4.3926 H   0  0  0  0  0  0  0  0  0  0  0  0
   -5.9625   -3.2506   -3.9468 H   0  0  0  0  0  0  0  0  0  0  0  0
   -7.4263   -2.6654   -3.0707 H   0  0  0  0  0  0  0  0  0  0  0  0
   -7.4508    0.2522   -3.0958 H   0  0  0  0  0  0  0  0  0  0  0  0
   -5.7935    1.6986   -1.9776 H   0  0  0  0  0  0  0  0  0  0  0  0
   -4.0698   -2.3142    4.7460 H   0  0  0  0  0  0  0  0  0  0  0  0
   -6.3187   -1.9976    5.7001 H   0  0  0  0  0  0  0  0  0  0  0  0
   -9.0164    1.5697    5.7210 H   0  0  0  0  0  0  0  0  0  0  0  0
   -7.2732    1.0967    5.7431 H   0  0  0  0  0  0  0  0  0  0  0  0
   -8.0369    1.6864    4.2136 H   0  0  0  0  0  0  0  0  0  0  0  0
   -7.5833   -0.0160    2.0973 H   0  0  0  0  0  0  0  0  0  0  0  0
   -5.3431   -0.2995    1.1408 H   0  0  0  0  0  0  0  0  0  0  0  0
   -0.5343   -1.4574    3.0176 H   0  0  0  0  0  0  0  0  0  0  0  0
    0.7804   -3.4958    3.4333 H   0  0  0  0  0  0  0  0  0  0  0  0
    1.0010   -7.7241    1.8487 H   0  0  0  0  0  0  0  0  0  0  0  0
   -0.5478   -6.9783    1.2894 H   0  0  0  0  0  0  0  0  0  0  0  0
    0.9736   -5.9909    1.3482 H   0  0  0  0  0  0  0  0  0  0  0  0
   -2.7043   -5.8995    2.6488 H   0  0  0  0  0  0  0  0  0  0  0  0
   -3.9891   -3.8740    2.1265 H   0  0  0  0  0  0  0  0  0  0  0  0
   -0.0061    3.6028    0.4101 H   0  0  0  0  0  0  0  0  0  0  0  0
   -0.7475    5.7099   -0.6170 H   0  0  0  0  0  0  0  0  0  0  0  0
   -0.4789    9.8020    0.2560 H   0  0  0  0  0  0  0  0  0  0  0  0
    0.3115    8.1872    0.4387 H   0  0  0  0  0  0  0  0  0  0  0  0
   -0.4343    9.0204    1.8776 H   0  0  0  0  0  0  0  0  0  0  0  0
   -2.4546    6.9514    3.1359 H   0  0  0  0  0  0  0  0  0  0  0  0
   -1.7685    4.8163    4.1621 H   0  0  0  0  0  0  0  0  0  0  0  0
    1.9080    4.1963    3.1663 H   0  0  0  0  0  0  0  0  0  0  0  0
    4.1400    3.4435    2.4315 H   0  0  0  0  0  0  0  0  0  0  0  0
    5.7797    1.3346    3.4978 H   0  0  0  0  0  0  0  0  0  0  0  0
    5.0008   -0.2928    3.2880 H   0  0  0  0  0  0  0  0  0  0  0  0
    6.6876   -0.0076    2.7066 H   0  0  0  0  0  0  0  0  0  0  0  0
    2.4885   -0.3745    1.3266 H   0  0  0  0  0  0  0  0  0  0  0  0
    0.2537    0.3924    2.0197 H   0  0  0  0  0  0  0  0  0  0  0  0
   -2.3773    1.7811    9.1283 H   0  0  0  0  0  0  0  0  0  0  0  0
   -4.4846    2.6153   10.0920 H   0  0  0  0  0  0  0  0  0  0  0  0
   -8.0426    1.1859    8.0439 H   0  0  0  0  0  0  0  0  0  0  0  0
   -8.7792    2.6071    8.8681 H   0  0  0  0  0  0  0  0  0  0  0  0
   -7.1093    2.7420    8.1866 H   0  0  0  0  0  0  0  0  0  0  0  0
   -6.4968   -0.9722    8.8231 H   0  0  0  0  0  0  0  0  0  0  0  0
   -4.4095   -1.8014    7.8182 H   0  0  0  0  0  0  0  0  0  0  0  0
   -0.7101   -1.9278    5.8459 H   0  0  0  0  0  0  0  0  0  0  0  0
   -0.1068   -4.3078    5.8722 H   0  0  0  0  0  0  0  0  0  0  0  0
   -2.9310   -6.7547    7.6926 H   0  0  0  0  0  0  0  0  0  0  0  0
   -2.2240   -6.4108    6.0528 H   0  0  0  0  0  0  0  0  0  0  0  0
   -2.0219   -8.0371    6.8070 H   0  0  0  0  0  0  0  0  0  0  0  0
   -1.8646   -4.7435    9.7679 H   0  0  0  0  0  0  0  0  0  0  0  0
   -2.4395   -2.3518    9.7894 H   0  0  0  0  0  0  0  0  0  0  0  0
    0.2824    0.1406    9.3396 H   0  0  0  0  0  0  0  0  0  0  0  0
    5.6861    1.5444    6.5534 H   0  0  0  0  0  0  0  0  0  0  0  0
    7.2180    2.1296   10.5454 H   0  0  0  0  0  0  0  0  0  0  0  0
    5.1614    1.1658   11.4925 H   0  0  0  0  0  0  0  0  0  0  0  0
  1  2  2  3
  2  3  1  0
  3  4  2  0
  3  5  1  0
  5  6  2  0
  6  7  1  0
  7  8  2  0
  8  9  1  0
  9 10  2  0
 10 11  1  0
 11 12  2  3
 12 13  1  0
 13 14  3  0
 12 15  1  0
 15 16  3  0
  8 17  1  0
 17 18  1  0
 18 19  1  0
 19 20  2  0
 20 21  1  0
 21 22  1  0
 21 23  1  0
  1 24  1  0
 24 25  2  0
 25 26  1  0
 26 27  1  0
 27 28  2  0
 28 29  1  0
 29 30  2  0
 30 31  1  0
 31 32  1  0
 30 33  1  0
 33 34  2  0
 26 35  1  0
 35 36  2  0
 36 37  1  0
 37 38  2  0
 38 39  1  0
 39 40  1  0
 38 41  1  0
 41 42  2  0
 25 43  1  0
 43 44  1  0
 44 45  1  0
 45 46  2  0
 46 47  1  0
 47 48  1  0
 48 49  2  0
 49 50  1  0
 50 51  2  0
 51 52  1  0
 52 53  1  0
 51 54  1  0
 54 55  2  0
 47 56  1  0
 56 57  2  0
 57 58  1  0
 58 59  2  0
 59 60  1  0
 60 61  1  0
 59 62  1  0
 62 63  2  0
 46 64  1  0
 64 65  1  0
 45 66  1  0
 66 67  2  0
 67 68  1  0
 68 69  1  0
 69 70  2  0
 70 71  1  0
 71 72  2  0
 72 73  1  0
 73 74  1  0
 72 75  1  0
 75 76  2  0
 68 77  1  0
 77 78  2  0
 78 79  1  0
 79 80  2  0
 80 81  1  0
 81 82  1  0
 80 83  1  0
 83 84  2  0
 67 85  1  0
 85 86  1  0
 86 87  1  0
 87 88  2  0
 88 89  1  0
 89 90  1  0
 90 91  2  0
 91 92  1  0
 92 93  2  0
 93 94  1  0
 94 95  1  0
 93 96  1  0
 96 97  2  0
 89 98  1  0
 98 99  2  0
 99100  1  0
100101  2  0
101102  1  0
102103  1  0
101104  1  0
104105  2  0
 88106  1  0
106107  1  0
 87108  1  0
108109  2  0
109110  1  0
110111  1  0
111112  2  0
112113  1  0
113114  2  0
114115  1  0
115116  1  0
114117  1  0
117118  2  0
110119  1  0
119120  2  0
120121  1  0
121122  2  0
122123  1  0
123124  1  0
122125  1  0
125126  2  0
109127  1  0
127128  1  0
128129  1  0
129130  2  0
130131  1  0
131132  1  0
132133  2  0
133134  1  0
134135  2  0
135136  1  0
136137  1  0
135138  1  0
138139  2  0
131140  1  0
140141  2  0
141142  1  0
142143  2  0
143144  1  0
144145  1  0
143146  1  0
146147  2  0
130148  1  0
148149  1  0
129150  1  0
150151  2  3
151152  1  0
152153  2  0
152154  1  0
154155  2  0
155156  1  0
156157  1  0
156158  2  0
158159  1  0
159160  2  0
160161  1  0
161162  2  3
162163  1  0
163164  3  0
162165  1  0
165166  3  0
 11  2  1  0
 23 17  1  0
 65 24  1  0
107 66  1  0
149108  1  0
161151  1  0
 10  5  1  0
 22 18  1  0
 34 27  1  0
 42 35  1  0
 64 43  2  0
 76 69  1  0
 84 77  1  0
106 85  2  0
118111  1  0
126119  1  0
148127  2  0
160154  1  0
 23  7  1  0
 55 48  1  0
 63 56  1  0
 97 90  1  0
105 98  1  0
139132  1  0
147140  1  0
  1167  1  0
  6168  1  0
  9169  1  0
 17170  1  0
 18171  1  0
 19172  1  0
 20173  1  0
 21174  1  0
 22175  1  0
 22176  1  0
 23177  1  0
 28178  1  0
 29179  1  0
 32180  1  0
 32181  1  0
 32182  1  0
 33183  1  0
 34184  1  0
 36185  1  0
 37186  1  0
 40187  1  0
 40188  1  0
 40189  1  0
 41190  1  0
 42191  1  0
 49192  1  0
 50193  1  0
 53194  1  0
 53195  1  0
 53196  1  0
 54197  1  0
 55198  1  0
 57199  1  0
 58200  1  0
 61201  1  0
 61202  1  0
 61203  1  0
 62204  1  0
 63205  1  0
 70206  1  0
 71207  1  0
 74208  1  0
 74209  1  0
 74210  1  0
 75211  1  0
 76212  1  0
 78213  1  0
 79214  1  0
 82215  1  0
 82216  1  0
 82217  1  0
 83218  1  0
 84219  1  0
 91220  1  0
 92221  1  0
 95222  1  0
 95223  1  0
 95224  1  0
 96225  1  0
 97226  1  0
 99227  1  0
100228  1  0
103229  1  0
103230  1  0
103231  1  0
104232  1  0
105233  1  0
112234  1  0
113235  1  0
116236  1  0
116237  1  0
116238  1  0
117239  1  0
118240  1  0
120241  1  0
121242  1  0
124243  1  0
124244  1  0
124245  1  0
125246  1  0
126247  1  0
133248  1  0
134249  1  0
137250  1  0
137251  1  0
137252  1  0
138253  1  0
139254  1  0
141255  1  0
142256  1  0
145257  1  0
145258  1  0
145259  1  0
146260  1  0
147261  1  0
150262  1  0
155263  1  0
158264  1  0
159265  1  0
M  END

