
     RDKit          3D

202221  0  0  0  0  0  0  0  0999 V2000
   -2.7353    4.7408   -3.1849 C   0  0  0  0  0  0  0  0  0  0  0  0
   -2.1702    5.8627   -2.5160 C   0  0  0  0  0  0  0  0  0  0  0  0
   -0.8387    5.8538   -2.0267 C   0  0  0  0  0  0  0  0  0  0  0  0
    0.1753    5.1259   -2.3001 O   0  0  0  0  0  0  0  0  0  0  0  0
   -0.7824    6.9196   -1.0503 C   0  0  0  0  0  0  0  0  0  0  0  0
    0.3171    7.4569   -0.3556 C   0  0  0  0  0  0  0  0  0  0  0  0
    0.1859    8.5942    0.4115 C   0  0  0  0  0  0  0  0  0  0  0  0
   -1.0461    9.1843    0.4797 C   0  0  0  0  0  0  0  0  0  0  0  0
   -2.1363    8.6116   -0.2258 C   0  0  0  0  0  0  0  0  0  0  0  0
   -1.9828    7.5057   -0.9676 C   0  0  0  0  0  0  0  0  0  0  0  0
   -3.0596    6.7746   -2.0203 C   0  0  0  0  0  0  0  0  0  0  0  0
   -4.0553    7.6676   -1.9657 C   0  0  0  0  0  0  0  0  0  0  0  0
   -4.9019    8.2721   -2.6045 C   0  0  0  0  0  0  0  0  0  0  0  0
   -5.8213    8.9027   -3.3006 N   0  0  0  0  0  0  0  0  0  0  0  0
   -4.4644    7.3840   -0.4197 C   0  0  0  0  0  0  0  0  0  0  0  0
   -4.7801    7.1870    0.7016 N   0  0  0  0  0  0  0  0  0  0  0  0
   -0.6146   10.3184    1.3041 C   0  0  0  0  0  0  0  0  0  0  0  0
   -0.3330   11.5965    0.5405 C   0  0  0  0  0  0  0  0  0  0  0  0
    0.0950   11.1930   -0.8175 C   0  0  0  0  0  0  0  0  0  0  0  0
    1.3476   10.7505   -0.7563 C   0  0  0  0  0  0  0  0  0  0  0  0
    1.6790   10.6259    0.7021 C   0  0  0  0  0  0  0  0  0  0  0  0
    1.0310   11.9495    1.1557 C   0  0  0  0  0  0  0  0  0  0  0  0
    0.7646    9.6286    1.3030 C   0  0  0  0  0  0  0  0  0  0  0  0
   -1.7778    3.6101   -3.2207 C   0  0  0  0  0  0  0  0  0  0  0  0
   -1.8669    2.6949   -2.1881 C   0  0  0  0  0  0  0  0  0  0  0  0
   -3.0320    2.6013   -1.3479 N   0  0  0  0  0  0  0  0  0  0  0  0
   -4.2739    2.3554   -1.9759 C   0  0  0  0  0  0  0  0  0  0  0  0
   -5.4348    2.9843   -1.7076 C   0  0  0  0  0  0  0  0  0  0  0  0
   -6.6409    2.6679   -2.3716 C   0  0  0  0  0  0  0  0  0  0  0  0
   -6.6019    1.6778   -3.3256 C   0  0  0  0  0  0  0  0  0  0  0  0
   -8.0607    1.1563   -4.2280 S   0  0  0  0  0  0  0  0  0  0  0  0
   -7.6002   -0.1689   -5.3899 C   0  0  0  0  0  0  0  0  0  0  0  0
   -5.4214    1.0117   -3.6281 C   0  0  0  0  0  0  0  0  0  0  0  0
   -4.2782    1.3535   -2.9566 C   0  0  0  0  0  0  0  0  0  0  0  0
   -2.9287    2.6879    0.0512 C   0  0  0  0  0  0  0  0  0  0  0  0
   -3.5828    1.6530    0.7892 C   0  0  0  0  0  0  0  0  0  0  0  0
   -3.5984    1.6592    2.1458 C   0  0  0  0  0  0  0  0  0  0  0  0
   -2.9737    2.6790    2.8570 C   0  0  0  0  0  0  0  0  0  0  0  0
   -3.1126    2.6973    4.6110 S   0  0  0  0  0  0  0  0  0  0  0  0
   -4.1722    1.3277    5.1887 C   0  0  0  0  0  0  0  0  0  0  0  0
   -2.3409    3.6725    2.1778 C   0  0  0  0  0  0  0  0  0  0  0  0
   -2.3396    3.6442    0.7958 C   0  0  0  0  0  0  0  0  0  0  0  0
   -0.8897    1.7289   -2.1084 C   0  0  0  0  0  0  0  0  0  0  0  0
   -0.4002    0.4870   -1.0438 S   0  0  0  0  0  0  0  0  0  0  0  0
    1.1042   -0.0542   -1.8938 C   0  0  0  0  0  0  0  0  0  0  0  0
    1.0878    0.7376   -2.8782 C   0  0  0  0  0  0  0  0  0  0  0  0
    2.0001    0.7220   -4.0061 N   0  0  0  0  0  0  0  0  0  0  0  0
    3.1107    1.5369   -4.0297 C   0  0  0  0  0  0  0  0  0  0  0  0
    4.0428    1.7722   -3.0477 C   0  0  0  0  0  0  0  0  0  0  0  0
    5.0922    2.6843   -3.1820 C   0  0  0  0  0  0  0  0  0  0  0  0
    5.2492    3.4079   -4.3311 C   0  0  0  0  0  0  0  0  0  0  0  0
    6.5712    4.5971   -4.5612 S   0  0  0  0  0  0  0  0  0  0  0  0
    6.1129    6.2518   -4.0447 C   0  0  0  0  0  0  0  0  0  0  0  0
    4.3415    3.2009   -5.3349 C   0  0  0  0  0  0  0  0  0  0  0  0
    3.3313    2.3191   -5.1969 C   0  0  0  0  0  0  0  0  0  0  0  0
    1.6141   -0.1228   -5.0669 C   0  0  0  0  0  0  0  0  0  0  0  0
    0.2637   -0.2705   -5.4226 C   0  0  0  0  0  0  0  0  0  0  0  0
   -0.0531   -1.0321   -6.5239 C   0  0  0  0  0  0  0  0  0  0  0  0
    0.8555   -1.6678   -7.3197 C   0  0  0  0  0  0  0  0  0  0  0  0
    0.5156   -2.7054   -8.7015 S   0  0  0  0  0  0  0  0  0  0  0  0
   -1.2269   -3.0224   -8.9215 C   0  0  0  0  0  0  0  0  0  0  0  0
    2.2141   -1.5156   -6.9655 C   0  0  0  0  0  0  0  0  0  0  0  0
    2.5247   -0.7483   -5.8547 C   0  0  0  0  0  0  0  0  0  0  0  0
    0.0456    1.7033   -3.0201 C   0  0  0  0  0  0  0  0  0  0  0  0
   -0.4144    3.0762   -4.0204 S   0  0  0  0  0  0  0  0  0  0  0  0
    1.7054   -1.2637   -1.2320 C   0  0  0  0  0  0  0  0  0  0  0  0
    1.9093   -2.4985   -1.5448 C   0  0  0  0  0  0  0  0  0  0  0  0
    2.3684   -3.1462   -2.7595 N   0  0  0  0  0  0  0  0  0  0  0  0
    3.7632   -3.0108   -3.0845 C   0  0  0  0  0  0  0  0  0  0  0  0
    4.3241   -2.8964   -4.2860 C   0  0  0  0  0  0  0  0  0  0  0  0
    5.6808   -2.6637   -4.4631 C   0  0  0  0  0  0  0  0  0  0  0  0
    6.5371   -2.5385   -3.3652 C   0  0  0  0  0  0  0  0  0  0  0  0
    8.2871   -2.2734   -3.5173 S   0  0  0  0  0  0  0  0  0  0  0  0
    9.0194   -2.0368   -1.8702 C   0  0  0  0  0  0  0  0  0  0  0  0
    5.9884   -2.6527   -2.1026 C   0  0  0  0  0  0  0  0  0  0  0  0
    4.6508   -2.8816   -1.9796 C   0  0  0  0  0  0  0  0  0  0  0  0
    1.5495   -4.0080   -3.4573 C   0  0  0  0  0  0  0  0  0  0  0  0
    2.1721   -5.2038   -3.8683 C   0  0  0  0  0  0  0  0  0  0  0  0
    1.5282   -6.2095   -4.4978 C   0  0  0  0  0  0  0  0  0  0  0  0
    0.1541   -6.0881   -4.7747 C   0  0  0  0  0  0  0  0  0  0  0  0
   -0.6841   -7.4411   -5.5521 S   0  0  0  0  0  0  0  0  0  0  0  0
    0.3384   -8.9058   -5.7022 C   0  0  0  0  0  0  0  0  0  0  0  0
   -0.4630   -4.9535   -4.3934 C   0  0  0  0  0  0  0  0  0  0  0  0
    0.2214   -3.9158   -3.7394 C   0  0  0  0  0  0  0  0  0  0  0  0
    1.9640   -3.4187   -0.4331 C   0  0  0  0  0  0  0  0  0  0  0  0
    1.6708   -5.1606   -0.3206 S   0  0  0  0  0  0  0  0  0  0  0  0
    1.4096   -5.2397    1.3796 C   0  0  0  0  0  0  0  0  0  0  0  0
    1.5994   -3.9333    1.8061 C   0  0  0  0  0  0  0  0  0  0  0  0
    1.8016   -3.6610    3.1766 N   0  0  0  0  0  0  0  0  0  0  0  0
    2.9350   -4.4581    3.7948 C   0  0  0  0  0  0  0  0  0  0  0  0
    2.7841   -5.0658    4.9663 C   0  0  0  0  0  0  0  0  0  0  0  0
    3.8452   -5.7292    5.6068 C   0  0  0  0  0  0  0  0  0  0  0  0
    5.0483   -5.7202    4.9671 C   0  0  0  0  0  0  0  0  0  0  0  0
    6.3994   -6.5858    5.8102 S   0  0  0  0  0  0  0  0  0  0  0  0
    5.8217   -7.2899    7.3733 C   0  0  0  0  0  0  0  0  0  0  0  0
    5.2377   -5.1119    3.7682 C   0  0  0  0  0  0  0  0  0  0  0  0
    4.1429   -4.4501    3.1509 C   0  0  0  0  0  0  0  0  0  0  0  0
    1.3648   -2.6680    4.0361 C   0  0  0  0  0  0  0  0  0  0  0  0
    0.7290   -2.9138    5.2573 C   0  0  0  0  0  0  0  0  0  0  0  0
    0.5312   -1.9714    6.2143 C   0  0  0  0  0  0  0  0  0  0  0  0
    0.9550   -0.6873    6.0254 C   0  0  0  0  0  0  0  0  0  0  0  0
    0.7104    0.4755    7.3664 S   0  0  0  0  0  0  0  0  0  0  0  0
   -1.0002    1.0597    7.3327 C   0  0  0  0  0  0  0  0  0  0  0  0
    1.5801   -0.3988    4.8381 C   0  0  0  0  0  0  0  0  0  0  0  0
    1.7932   -1.3489    3.8510 C   0  0  0  0  0  0  0  0  0  0  0  0
    1.8662   -3.0466    0.7659 C   0  0  0  0  0  0  0  0  0  0  0  0
    1.6490   -1.3093    0.5314 S   0  0  0  0  0  0  0  0  0  0  0  0
    0.6127   -6.2926    2.0479 C   0  0  0  0  0  0  0  0  0  0  0  0
    0.0252   -7.4280    1.7554 C   0  0  0  0  0  0  0  0  0  0  0  0
   -0.9962   -7.9667    2.4541 C   0  0  0  0  0  0  0  0  0  0  0  0
   -1.5805   -7.4902    3.5100 C   0  0  0  0  0  0  0  0  0  0  0  0
   -0.4051   -5.7563    3.6854 Se  0  0  0  0  0  2  0  0  0  0  0  0
   -2.4895   -7.6432    4.5554 C   0  0  0  0  0  0  0  0  0  0  0  0
   -3.5715   -6.8749    4.8700 C   0  0  0  0  0  0  0  0  0  0  0  0
   -4.2559   -7.4199    6.1741 C   0  0  0  0  0  0  0  0  0  0  0  0
   -3.8520   -8.3612    6.8384 O   0  0  0  0  0  0  0  0  0  0  0  0
   -5.3908   -6.6036    6.3962 C   0  0  0  0  0  0  0  0  0  0  0  0
   -6.2544   -6.5311    7.5089 C   0  0  0  0  0  0  0  0  0  0  0  0
   -7.1755   -5.5285    7.6223 C   0  0  0  0  0  0  0  0  0  0  0  0
   -7.2765   -4.5856    6.6578 C   0  0  0  0  0  0  0  0  0  0  0  0
   -8.5137   -3.1214    6.7562 Br  0  0  0  0  0  0  0  0  0  0  0  0
   -6.3968   -4.6805    5.5329 C   0  0  0  0  0  0  0  0  0  0  0  0
   -5.4876   -5.6714    5.4196 C   0  0  0  0  0  0  0  0  0  0  0  0
   -4.2619   -5.9167    4.4418 C   0  0  0  0  0  0  0  0  0  0  0  0
   -4.3247   -4.8001    3.5037 C   0  0  0  0  0  0  0  0  0  0  0  0
   -3.2469   -4.5853    2.6587 C   0  0  0  0  0  0  0  0  0  0  0  0
   -2.2827   -4.4076    1.9242 N   0  0  0  0  0  0  0  0  0  0  0  0
   -5.5532   -4.4180    3.0091 C   0  0  0  0  0  0  0  0  0  0  0  0
   -6.6607   -4.0576    2.5779 N   0  0  0  0  0  0  0  0  0  0  0  0
   -3.6750    4.7243   -3.5828 H   0  0  0  0  0  0  0  0  0  0  0  0
    1.2700    6.9758   -0.4223 H   0  0  0  0  0  0  0  0  0  0  0  0
   -3.0853    9.1490   -0.1229 H   0  0  0  0  0  0  0  0  0  0  0  0
   -1.0896   10.4250    2.2710 H   0  0  0  0  0  0  0  0  0  0  0  0
   -1.0470   12.3805    0.5949 H   0  0  0  0  0  0  0  0  0  0  0  0
   -0.5252   11.2586   -1.6975 H   0  0  0  0  0  0  0  0  0  0  0  0
    1.9507   10.5404   -1.6274 H   0  0  0  0  0  0  0  0  0  0  0  0
    2.7275   10.5890    0.9195 H   0  0  0  0  0  0  0  0  0  0  0  0
    1.4954   12.8094    0.6331 H   0  0  0  0  0  0  0  0  0  0  0  0
    0.9796   12.0581    2.2333 H   0  0  0  0  0  0  0  0  0  0  0  0
    1.0128    9.2000    2.2946 H   0  0  0  0  0  0  0  0  0  0  0  0
   -5.5104    3.7795   -0.9603 H   0  0  0  0  0  0  0  0  0  0  0  0
   -7.5502    3.1812   -2.1423 H   0  0  0  0  0  0  0  0  0  0  0  0
   -8.5121   -0.6218   -5.7813 H   0  0  0  0  0  0  0  0  0  0  0  0
   -7.0000    0.2383   -6.2493 H   0  0  0  0  0  0  0  0  0  0  0  0
   -6.9467   -0.9329   -4.9196 H   0  0  0  0  0  0  0  0  0  0  0  0
   -5.4264    0.2462   -4.3837 H   0  0  0  0  0  0  0  0  0  0  0  0
   -3.3652    0.8381   -3.1976 H   0  0  0  0  0  0  0  0  0  0  0  0
   -4.0440    0.8838    0.2110 H   0  0  0  0  0  0  0  0  0  0  0  0
   -4.0658    0.8762    2.7198 H   0  0  0  0  0  0  0  0  0  0  0  0
   -5.2498    1.5671    5.0828 H   0  0  0  0  0  0  0  0  0  0  0  0
   -3.8881    1.1232    6.2401 H   0  0  0  0  0  0  0  0  0  0  0  0
   -3.9194    0.4016    4.6233 H   0  0  0  0  0  0  0  0  0  0  0  0
   -1.8323    4.4844    2.6712 H   0  0  0  0  0  0  0  0  0  0  0  0
   -1.8350    4.4698    0.2685 H   0  0  0  0  0  0  0  0  0  0  0  0
    3.9712    1.2226   -2.1187 H   0  0  0  0  0  0  0  0  0  0  0  0
    5.7999    2.8181   -2.3446 H   0  0  0  0  0  0  0  0  0  0  0  0
    6.9155    6.9636   -4.4085 H   0  0  0  0  0  0  0  0  0  0  0  0
    6.0961    6.4090   -2.9457 H   0  0  0  0  0  0  0  0  0  0  0  0
    5.1674    6.6304   -4.4594 H   0  0  0  0  0  0  0  0  0  0  0  0
    4.4584    3.7733   -6.2413 H   0  0  0  0  0  0  0  0  0  0  0  0
    2.6083    2.1419   -5.9806 H   0  0  0  0  0  0  0  0  0  0  0  0
   -0.4654    0.2020   -4.8246 H   0  0  0  0  0  0  0  0  0  0  0  0
   -1.1072   -1.1665   -6.8307 H   0  0  0  0  0  0  0  0  0  0  0  0
   -1.7569   -2.0914   -9.1866 H   0  0  0  0  0  0  0  0  0  0  0  0
   -1.3394   -3.7895   -9.7453 H   0  0  0  0  0  0  0  0  0  0  0  0
   -1.6724   -3.4833   -8.0047 H   0  0  0  0  0  0  0  0  0  0  0  0
    2.9705   -2.0047   -7.5622 H   0  0  0  0  0  0  0  0  0  0  0  0
    3.6021   -0.6447   -5.6500 H   0  0  0  0  0  0  0  0  0  0  0  0
    3.6902   -3.0465   -5.1689 H   0  0  0  0  0  0  0  0  0  0  0  0
    6.1153   -2.5667   -5.4450 H   0  0  0  0  0  0  0  0  0  0  0  0
    8.4180   -1.2910   -1.2857 H   0  0  0  0  0  0  0  0  0  0  0  0
   10.0296   -1.6090   -1.9249 H   0  0  0  0  0  0  0  0  0  0  0  0
    9.0606   -2.9560   -1.2770 H   0  0  0  0  0  0  0  0  0  0  0  0
    6.6459   -2.5572   -1.2173 H   0  0  0  0  0  0  0  0  0  0  0  0
    4.2330   -2.9579   -0.9875 H   0  0  0  0  0  0  0  0  0  0  0  0
    3.2460   -5.3201   -3.6660 H   0  0  0  0  0  0  0  0  0  0  0  0
    2.0104   -7.1296   -4.8092 H   0  0  0  0  0  0  0  0  0  0  0  0
    1.1059   -8.9014   -6.4689 H   0  0  0  0  0  0  0  0  0  0  0  0
    0.8039   -9.1966   -4.7224 H   0  0  0  0  0  0  0  0  0  0  0  0
   -0.3493   -9.7786   -5.9330 H   0  0  0  0  0  0  0  0  0  0  0  0
   -1.5376   -4.8005   -4.5771 H   0  0  0  0  0  0  0  0  0  0  0  0
   -0.3223   -3.0292   -3.4510 H   0  0  0  0  0  0  0  0  0  0  0  0
    1.8715   -5.1177    5.5022 H   0  0  0  0  0  0  0  0  0  0  0  0
    3.7041   -6.2053    6.5570 H   0  0  0  0  0  0  0  0  0  0  0  0
    4.8121   -7.7150    7.2897 H   0  0  0  0  0  0  0  0  0  0  0  0
    5.8077   -6.5284    8.1877 H   0  0  0  0  0  0  0  0  0  0  0  0
    6.5018   -8.1006    7.7337 H   0  0  0  0  0  0  0  0  0  0  0  0
    6.1997   -5.1001    3.2662 H   0  0  0  0  0  0  0  0  0  0  0  0
    4.3049   -3.9761    2.2110 H   0  0  0  0  0  0  0  0  0  0  0  0
    0.3177   -3.8806    5.4903 H   0  0  0  0  0  0  0  0  0  0  0  0
    0.0344   -2.2135    7.1591 H   0  0  0  0  0  0  0  0  0  0  0  0
   -1.6699    0.1649    7.2875 H   0  0  0  0  0  0  0  0  0  0  0  0
   -1.1646    1.7867    6.5270 H   0  0  0  0  0  0  0  0  0  0  0  0
   -1.2646    1.5707    8.2862 H   0  0  0  0  0  0  0  0  0  0  0  0
    1.9236    0.6176    4.6823 H   0  0  0  0  0  0  0  0  0  0  0  0
    2.3343   -1.0219    3.0064 H   0  0  0  0  0  0  0  0  0  0  0  0
    0.4382   -7.9868    0.8314 H   0  0  0  0  0  0  0  0  0  0  0  0
   -1.4118   -8.9811    2.0714 H   0  0  0  0  0  0  0  0  0  0  0  0
   -2.3499   -8.5656    5.1856 H   0  0  0  0  0  0  0  0  0  0  0  0
   -6.1276   -7.3044    8.2459 H   0  0  0  0  0  0  0  0  0  0  0  0
   -7.8328   -5.4562    8.5059 H   0  0  0  0  0  0  0  0  0  0  0  0
   -6.5482   -3.8253    4.8980 H   0  0  0  0  0  0  0  0  0  0  0  0
  1  2  2  3
  2  3  1  0
  3  4  2  0
  3  5  1  0
  5  6  2  0
  6  7  1  0
  7  8  2  0
  8  9  1  0
  9 10  2  0
 10 11  1  0
 11 12  2  3
 12 13  1  0
 13 14  3  0
 12 15  1  0
 15 16  3  0
  8 17  1  0
 17 18  1  0
 18 19  1  0
 19 20  2  0
 20 21  1  0
 21 22  1  0
 21 23  1  0
  1 24  1  0
 24 25  2  0
 25 26  1  0
 26 27  1  0
 27 28  2  0
 28 29  1  0
 29 30  2  0
 30 31  1  0
 31 32  1  0
 30 33  1  0
 33 34  2  0
 26 35  1  0
 35 36  2  0
 36 37  1  0
 37 38  2  0
 38 39  1  0
 39 40  1  0
 38 41  1  0
 41 42  2  0
 25 43  1  0
 43 44  1  0
 44 45  1  0
 45 46  2  0
 46 47  1  0
 47 48  1  0
 48 49  2  0
 49 50  1  0
 50 51  2  0
 51 52  1  0
 52 53  1  0
 51 54  1  0
 54 55  2  0
 47 56  1  0
 56 57  2  0
 57 58  1  0
 58 59  2  0
 59 60  1  0
 60 61  1  0
 59 62  1  0
 62 63  2  0
 46 64  1  0
 64 65  1  0
 45 66  1  0
 66 67  2  0
 67 68  1  0
 68 69  1  0
 69 70  2  0
 70 71  1  0
 71 72  2  0
 72 73  1  0
 73 74  1  0
 72 75  1  0
 75 76  2  0
 68 77  1  0
 77 78  2  0
 78 79  1  0
 79 80  2  0
 80 81  1  0
 81 82  1  0
 80 83  1  0
 83 84  2  0
 67 85  1  0
 85 86  1  0
 86 87  1  0
 87 88  2  0
 88 89  1  0
 89 90  1  0
 90 91  2  0
 91 92  1  0
 92 93  2  0
 93 94  1  0
 94 95  1  0
 93 96  1  0
 96 97  2  0
 89 98  1  0
 98 99  2  0
 99100  1  0
100101  2  0
101102  1  0
102103  1  0
101104  1  0
104105  2  0
 88106  1  0
106107  1  0
 87108  1  0
108109  2  0
109110  1  0
110111  2  0
111112  1  0
111113  1  0
113114  2  3
114115  1  0
115116  2  0
115117  1  0
117118  2  0
118119  1  0
119120  2  0
120121  1  0
120122  1  0
122123  2  0
123124  1  0
124125  2  3
125126  1  0
126127  3  0
125128  1  0
128129  3  0
 11  2  1  0
 23 17  1  0
 65 24  1  0
107 66  1  0
112108  1  0
124114  1  0
 10  5  1  0
 22 18  1  0
 34 27  1  0
 42 35  1  0
 64 43  2  0
 76 69  1  0
 84 77  1  0
106 85  2  0
123117  1  0
 23  7  1  0
 55 48  1  0
 63 56  1  0
 97 90  1  0
105 98  1  0
  1130  1  0
  6131  1  0
  9132  1  0
 17133  1  0
 18134  1  0
 19135  1  0
 20136  1  0
 21137  1  0
 22138  1  0
 22139  1  0
 23140  1  0
 28141  1  0
 29142  1  0
 32143  1  0
 32144  1  0
 32145  1  0
 33146  1  0
 34147  1  0
 36148  1  0
 37149  1  0
 40150  1  0
 40151  1  0
 40152  1  0
 41153  1  0
 42154  1  0
 49155  1  0
 50156  1  0
 53157  1  0
 53158  1  0
 53159  1  0
 54160  1  0
 55161  1  0
 57162  1  0
 58163  1  0
 61164  1  0
 61165  1  0
 61166  1  0
 62167  1  0
 63168  1  0
 70169  1  0
 71170  1  0
 74171  1  0
 74172  1  0
 74173  1  0
 75174  1  0
 76175  1  0
 78176  1  0
 79177  1  0
 82178  1  0
 82179  1  0
 82180  1  0
 83181  1  0
 84182  1  0
 91183  1  0
 92184  1  0
 95185  1  0
 95186  1  0
 95187  1  0
 96188  1  0
 97189  1  0
 99190  1  0
100191  1  0
103192  1  0
103193  1  0
103194  1  0
104195  1  0
105196  1  0
109197  1  0
110198  1  0
113199  1  0
118200  1  0
119201  1  0
122202  1  0
M  END

