
     RDKit          3D

197220  0  0  0  0  0  0  0  0999 V2000
    5.3525    2.7198    6.8287 C   0  0  0  0  0  0  0  0  0  0  0  0
    5.1350    3.3481    7.9225 C   0  0  0  0  0  0  0  0  0  0  0  0
    4.9174    2.8648    9.2707 C   0  0  0  0  0  0  0  0  0  0  0  0
    4.8970    1.6632    9.5818 O   0  0  0  0  0  0  0  0  0  0  0  0
    4.7286    3.9967   10.1804 C   0  0  0  0  0  0  0  0  0  0  0  0
    4.4061    4.1183   11.5393 C   0  0  0  0  0  0  0  0  0  0  0  0
    4.1891    5.3068   12.1605 C   0  0  0  0  0  0  0  0  0  0  0  0
    4.3098    6.4507   11.3857 C   0  0  0  0  0  0  0  0  0  0  0  0
    4.6264    6.3518   10.0341 C   0  0  0  0  0  0  0  0  0  0  0  0
    4.8239    5.1482    9.4451 C   0  0  0  0  0  0  0  0  0  0  0  0
    5.0754    4.8341    7.9830 C   0  0  0  0  0  0  0  0  0  0  0  0
    4.8488    5.7125    7.0649 C   0  0  0  0  0  0  0  0  0  0  0  0
    4.5414    5.3977    5.6318 C   0  0  0  0  0  0  0  0  0  0  0  0
    4.3135    5.1568    4.5416 N   0  0  0  0  0  0  0  0  0  0  0  0
    4.8883    7.1101    7.2742 C   0  0  0  0  0  0  0  0  0  0  0  0
    4.9360    8.3582    7.4508 N   0  0  0  0  0  0  0  0  0  0  0  0
    4.0960    7.3352   12.5318 C   0  0  0  0  0  0  0  0  0  0  0  0
    5.4325    7.8250   13.1187 C   0  0  0  0  0  0  0  0  0  0  0  0
    5.1036    8.4362   14.4109 C   0  0  0  0  0  0  0  0  0  0  0  0
    4.5777    7.4827   15.1603 C   0  0  0  0  0  0  0  0  0  0  0  0
    4.7279    6.1650   14.4515 C   0  0  0  0  0  0  0  0  0  0  0  0
    5.9963    6.4830   13.6249 C   0  0  0  0  0  0  0  0  0  0  0  0
    3.7596    6.1089   13.3452 C   0  0  0  0  0  0  0  0  0  0  0  0
    5.4852    1.3826    6.3224 C   0  0  0  0  0  0  0  0  0  0  0  0
    4.9898    0.1397    6.5505 C   0  0  0  0  0  0  0  0  0  0  0  0
    5.2252   -0.8586    5.6437 C   0  0  0  0  0  0  0  0  0  0  0  0
    4.6756   -2.1391    5.5567 C   0  0  0  0  0  0  0  0  0  0  0  0
    3.8362   -2.7759    6.5417 C   0  0  0  0  0  0  0  0  0  0  0  0
    3.1094   -2.4538    7.6174 C   0  0  0  0  0  0  0  0  0  0  0  0
    2.5099   -3.3525    8.4211 C   0  0  0  0  0  0  0  0  0  0  0  0
    2.5715   -4.6614    8.2394 C   0  0  0  0  0  0  0  0  0  0  0  0
    1.9992   -6.1261    9.0581 S   0  0  0  0  0  0  0  0  0  0  0  0
    0.3251   -6.5994    8.6255 C   0  0  0  0  0  0  0  0  0  0  0  0
   -0.6738   -5.6019    9.2056 C   0  0  0  0  0  0  0  0  0  0  0  0
    3.6912   -4.6985    6.6124 Se  0  0  0  0  0  2  0  0  0  0  0  0
    4.8984   -2.9234    4.3970 C   0  0  0  0  0  0  0  0  0  0  0  0
    5.6246   -2.5446    3.3399 C   0  0  0  0  0  0  0  0  0  0  0  0
    6.2073   -1.2697    3.4224 C   0  0  0  0  0  0  0  0  0  0  0  0
    6.9936   -0.6814    2.3599 C   0  0  0  0  0  0  0  0  0  0  0  0
    7.5796    0.4953    2.1250 C   0  0  0  0  0  0  0  0  0  0  0  0
    8.2025    0.7901    0.9710 C   0  0  0  0  0  0  0  0  0  0  0  0
    8.3046   -0.0577   -0.0476 C   0  0  0  0  0  0  0  0  0  0  0  0
    8.8801   -0.0841   -1.7218 S   0  0  0  0  0  0  0  0  0  0  0  0
    7.4606    0.0544   -2.8584 C   0  0  0  0  0  0  0  0  0  0  0  0
    7.9548   -0.0648   -4.2683 C   0  0  0  0  0  0  0  0  0  0  0  0
    7.3540   -1.5984    0.7186 Se  0  0  0  0  0  2  0  0  0  0  0  0
    5.9765   -0.5015    4.5519 C   0  0  0  0  0  0  0  0  0  0  0  0
    6.3253    1.1480    4.8075 S   0  0  0  0  0  0  0  0  0  0  0  0
    5.4919   -3.2336    2.1940 C   0  0  0  0  0  0  0  0  0  0  0  0
    4.6137   -4.2775    2.1392 C   0  0  0  0  0  0  0  0  0  0  0  0
    4.0088   -4.2929    3.7519 S   0  0  0  0  0  0  0  0  0  0  0  0
    3.9592   -4.6553    0.8414 C   0  0  0  0  0  0  0  0  0  0  0  0
    3.4573   -3.1947   -0.1415 S   0  0  0  0  0  0  0  0  0  0  0  0
    2.6602   -4.0026   -1.3697 C   0  0  0  0  0  0  0  0  0  0  0  0
    1.8776   -3.5078   -2.4037 C   0  0  0  0  0  0  0  0  0  0  0  0
    1.1341   -4.3233   -3.2387 C   0  0  0  0  0  0  0  0  0  0  0  0
    1.2972   -5.5875   -2.9188 O   0  0  0  0  0  0  0  0  0  0  0  0
    2.0186   -6.0936   -1.9594 C   0  0  0  0  0  0  0  0  0  0  0  0
    2.0385   -7.3439   -1.8323 O   0  0  0  0  0  0  0  0  0  0  0  0
    2.7914   -5.3286   -1.0506 C   0  0  0  0  0  0  0  0  0  0  0  0
    3.4677   -5.5751    0.0977 C   0  0  0  0  0  0  0  0  0  0  0  0
    0.3685   -3.6472   -4.1614 C   0  0  0  0  0  0  0  0  0  0  0  0
    0.3775   -2.2997   -4.1663 C   0  0  0  0  0  0  0  0  0  0  0  0
    1.5079   -1.9547   -2.8902 S   0  0  0  0  0  0  0  0  0  0  0  0
   -0.4944   -1.2188   -4.7442 C   0  0  0  0  0  0  0  0  0  0  0  0
   -1.3767   -1.0643   -5.6878 C   0  0  0  0  0  0  0  0  0  0  0  0
   -1.3623   -1.8709   -6.9052 N   0  0  0  0  0  0  0  0  0  0  0  0
   -2.2134   -1.4754   -7.9722 C   0  0  0  0  0  0  0  0  0  0  0  0
   -3.0699   -2.2617   -8.6561 C   0  0  0  0  0  0  0  0  0  0  0  0
   -3.8041   -1.7137   -9.7024 C   0  0  0  0  0  0  0  0  0  0  0  0
   -3.7007   -0.4042  -10.0683 C   0  0  0  0  0  0  0  0  0  0  0  0
   -4.7080    0.2844  -11.3939 S   0  0  0  0  0  0  0  0  0  0  0  0
   -4.5325    2.0865  -11.3639 C   0  0  0  0  0  0  0  0  0  0  0  0
   -2.8157    0.3816   -9.3545 C   0  0  0  0  0  0  0  0  0  0  0  0
   -2.0747   -0.1157   -8.3260 C   0  0  0  0  0  0  0  0  0  0  0  0
   -0.4137   -2.8578   -7.1578 C   0  0  0  0  0  0  0  0  0  0  0  0
   -0.6375   -4.1505   -7.5420 C   0  0  0  0  0  0  0  0  0  0  0  0
    0.4280   -5.0148   -7.8138 C   0  0  0  0  0  0  0  0  0  0  0  0
    1.7290   -4.5916   -7.7012 C   0  0  0  0  0  0  0  0  0  0  0  0
    3.1309   -5.6981   -8.0175 S   0  0  0  0  0  0  0  0  0  0  0  0
    3.6797   -6.4732   -6.4813 C   0  0  0  0  0  0  0  0  0  0  0  0
    1.9751   -3.3004   -7.3198 C   0  0  0  0  0  0  0  0  0  0  0  0
    0.9220   -2.4796   -7.0635 C   0  0  0  0  0  0  0  0  0  0  0  0
   -2.2777    0.0231   -5.5268 C   0  0  0  0  0  0  0  0  0  0  0  0
   -3.8419    0.4761   -6.1710 S   0  0  0  0  0  0  0  0  0  0  0  0
   -4.2933    1.6680   -5.0122 C   0  0  0  0  0  0  0  0  0  0  0  0
   -3.2241    1.7104   -4.1877 C   0  0  0  0  0  0  0  0  0  0  0  0
   -3.0694    2.5517   -3.0189 N   0  0  0  0  0  0  0  0  0  0  0  0
   -1.7004    2.7675   -2.5265 C   0  0  0  0  0  0  0  0  0  0  0  0
   -1.3057    2.6724   -1.2419 C   0  0  0  0  0  0  0  0  0  0  0  0
    0.0272    2.9239   -0.9013 C   0  0  0  0  0  0  0  0  0  0  0  0
    0.9968    3.2653   -1.8057 C   0  0  0  0  0  0  0  0  0  0  0  0
    2.6863    3.5406   -1.3634 S   0  0  0  0  0  0  0  0  0  0  0  0
    3.0240    3.2133    0.3663 C   0  0  0  0  0  0  0  0  0  0  0  0
    0.5638    3.3582   -3.1217 C   0  0  0  0  0  0  0  0  0  0  0  0
   -0.7318    3.1212   -3.4820 C   0  0  0  0  0  0  0  0  0  0  0  0
   -4.0051    3.3101   -2.3947 C   0  0  0  0  0  0  0  0  0  0  0  0
   -4.2990    3.2001   -1.0377 C   0  0  0  0  0  0  0  0  0  0  0  0
   -5.0623    4.0641   -0.3250 C   0  0  0  0  0  0  0  0  0  0  0  0
   -5.6098    5.1461   -0.9856 C   0  0  0  0  0  0  0  0  0  0  0  0
   -6.5644    6.2959   -0.0239 S   0  0  0  0  0  0  0  0  0  0  0  0
   -8.2415    5.6456    0.1625 C   0  0  0  0  0  0  0  0  0  0  0  0
   -5.3587    5.3012   -2.3251 C   0  0  0  0  0  0  0  0  0  0  0  0
   -4.5799    4.4126   -3.0138 C   0  0  0  0  0  0  0  0  0  0  0  0
   -2.1892    0.8012   -4.5145 C   0  0  0  0  0  0  0  0  0  0  0  0
   -0.8330    0.1281   -3.6561 S   0  0  0  0  0  0  0  0  0  0  0  0
   -5.7142    1.8943   -4.5858 C   0  0  0  0  0  0  0  0  0  0  0  0
   -6.6527    1.2148   -5.4706 C   0  0  0  0  0  0  0  0  0  0  0  0
   -6.4086    0.5195   -6.6345 C   0  0  0  0  0  0  0  0  0  0  0  0
   -5.7304    1.0437   -7.6190 O   0  0  0  0  0  0  0  0  0  0  0  0
   -6.9795   -0.7836   -6.5907 C   0  0  0  0  0  0  0  0  0  0  0  0
   -6.9313   -1.7688   -7.5485 C   0  0  0  0  0  0  0  0  0  0  0  0
   -7.5368   -2.9782   -7.3238 C   0  0  0  0  0  0  0  0  0  0  0  0
   -8.1834   -3.1865   -6.1646 C   0  0  0  0  0  0  0  0  0  0  0  0
   -8.2182   -2.1496   -5.2000 C   0  0  0  0  0  0  0  0  0  0  0  0
   -7.6181   -0.9462   -5.3815 C   0  0  0  0  0  0  0  0  0  0  0  0
   -7.4511    0.4145   -4.5187 C   0  0  0  0  0  0  0  0  0  0  0  0
   -8.4592    0.4704   -3.6444 C   0  0  0  0  0  0  0  0  0  0  0  0
   -8.5890   -0.8726   -2.9626 C   0  0  0  0  0  0  0  0  0  0  0  0
   -8.6976   -1.9726   -2.4226 N   0  0  0  0  0  0  0  0  0  0  0  0
   -9.2215    1.3610   -3.1908 C   0  0  0  0  0  0  0  0  0  0  0  0
  -10.0223    2.3320   -2.7073 N   0  0  0  0  0  0  0  0  0  0  0  0
   -8.5743   -4.5948   -6.4629 C   0  0  0  0  0  0  0  0  0  0  0  0
   -7.6512   -5.5883   -5.7616 C   0  0  0  0  0  0  0  0  0  0  0  0
   -6.3751   -4.8632   -5.5539 C   0  0  0  0  0  0  0  0  0  0  0  0
   -5.7495   -4.7004   -6.7260 C   0  0  0  0  0  0  0  0  0  0  0  0
   -6.6668   -5.2745   -7.7599 C   0  0  0  0  0  0  0  0  0  0  0  0
   -7.2423   -6.4452   -6.9463 C   0  0  0  0  0  0  0  0  0  0  0  0
   -7.8452   -4.3748   -7.8015 C   0  0  0  0  0  0  0  0  0  0  0  0
    5.6040    3.4963    5.9571 H   0  0  0  0  0  0  0  0  0  0  0  0
    4.3395    3.1726   12.1173 H   0  0  0  0  0  0  0  0  0  0  0  0
    4.7070    7.2739    9.5018 H   0  0  0  0  0  0  0  0  0  0  0  0
    3.3221    8.0838   12.4386 H   0  0  0  0  0  0  0  0  0  0  0  0
    6.0414    8.3546   12.4237 H   0  0  0  0  0  0  0  0  0  0  0  0
    5.2677    9.4548   14.7132 H   0  0  0  0  0  0  0  0  0  0  0  0
    4.1220    7.6549   16.1142 H   0  0  0  0  0  0  0  0  0  0  0  0
    4.8534    5.3344   15.0865 H   0  0  0  0  0  0  0  0  0  0  0  0
    6.8477    6.6113   14.2981 H   0  0  0  0  0  0  0  0  0  0  0  0
    6.1961    5.7790   12.8247 H   0  0  0  0  0  0  0  0  0  0  0  0
    2.6900    5.9538   13.6086 H   0  0  0  0  0  0  0  0  0  0  0  0
    4.4211    0.0073    7.4973 H   0  0  0  0  0  0  0  0  0  0  0  0
    2.9230   -1.3481    7.8142 H   0  0  0  0  0  0  0  0  0  0  0  0
    1.9194   -2.9930    9.3256 H   0  0  0  0  0  0  0  0  0  0  0  0
    0.1299   -7.5606    9.1819 H   0  0  0  0  0  0  0  0  0  0  0  0
    0.1753   -6.7380    7.5397 H   0  0  0  0  0  0  0  0  0  0  0  0
   -1.6215   -6.1282    9.3579 H   0  0  0  0  0  0  0  0  0  0  0  0
   -0.3267   -5.2620   10.1868 H   0  0  0  0  0  0  0  0  0  0  0  0
   -0.7456   -4.7536    8.4713 H   0  0  0  0  0  0  0  0  0  0  0  0
    7.5586    1.2698    2.9468 H   0  0  0  0  0  0  0  0  0  0  0  0
    8.6680    1.8313    0.8296 H   0  0  0  0  0  0  0  0  0  0  0  0
    6.9188    0.9711   -2.6318 H   0  0  0  0  0  0  0  0  0  0  0  0
    6.7937   -0.8245   -2.6138 H   0  0  0  0  0  0  0  0  0  0  0  0
    7.1196    0.1339   -4.9548 H   0  0  0  0  0  0  0  0  0  0  0  0
    8.3251   -1.0997   -4.4328 H   0  0  0  0  0  0  0  0  0  0  0  0
    8.7806    0.6705   -4.4103 H   0  0  0  0  0  0  0  0  0  0  0  0
    6.0558   -3.0652    1.2467 H   0  0  0  0  0  0  0  0  0  0  0  0
    3.6203   -6.6561    0.4210 H   0  0  0  0  0  0  0  0  0  0  0  0
   -0.2499   -4.2490   -4.8452 H   0  0  0  0  0  0  0  0  0  0  0  0
   -3.2048   -3.2990   -8.4005 H   0  0  0  0  0  0  0  0  0  0  0  0
   -4.4910   -2.3568  -10.2404 H   0  0  0  0  0  0  0  0  0  0  0  0
   -4.9036    2.4286  -10.3514 H   0  0  0  0  0  0  0  0  0  0  0  0
   -3.4461    2.4176  -11.3213 H   0  0  0  0  0  0  0  0  0  0  0  0
   -5.1195    2.6133  -12.1017 H   0  0  0  0  0  0  0  0  0  0  0  0
   -2.6909    1.4367   -9.6229 H   0  0  0  0  0  0  0  0  0  0  0  0
   -1.3688    0.5285   -7.7775 H   0  0  0  0  0  0  0  0  0  0  0  0
   -1.6296   -4.5158   -7.5992 H   0  0  0  0  0  0  0  0  0  0  0  0
    0.1960   -6.0188   -8.1036 H   0  0  0  0  0  0  0  0  0  0  0  0
    4.7521   -6.3737   -6.2949 H   0  0  0  0  0  0  0  0  0  0  0  0
    3.1325   -6.1141   -5.6054 H   0  0  0  0  0  0  0  0  0  0  0  0
    3.4681   -7.5837   -6.6168 H   0  0  0  0  0  0  0  0  0  0  0  0
    3.0006   -2.9803   -7.2428 H   0  0  0  0  0  0  0  0  0  0  0  0
    1.1701   -1.4419   -6.7733 H   0  0  0  0  0  0  0  0  0  0  0  0
   -1.9521    2.4077   -0.4421 H   0  0  0  0  0  0  0  0  0  0  0  0
    0.3398    2.8431    0.1564 H   0  0  0  0  0  0  0  0  0  0  0  0
    3.7055    3.9603    0.8005 H   0  0  0  0  0  0  0  0  0  0  0  0
    3.5806    2.2345    0.4945 H   0  0  0  0  0  0  0  0  0  0  0  0
    2.1314    3.2083    1.0238 H   0  0  0  0  0  0  0  0  0  0  0  0
    1.3244    3.6219   -3.8749 H   0  0  0  0  0  0  0  0  0  0  0  0
   -1.0214    3.1957   -4.5405 H   0  0  0  0  0  0  0  0  0  0  0  0
   -3.9490    2.3045   -0.5258 H   0  0  0  0  0  0  0  0  0  0  0  0
   -5.2168    3.8903    0.7287 H   0  0  0  0  0  0  0  0  0  0  0  0
   -8.3633    5.2264    1.2174 H   0  0  0  0  0  0  0  0  0  0  0  0
   -8.9740    6.4711    0.0930 H   0  0  0  0  0  0  0  0  0  0  0  0
   -8.4807    4.9058   -0.6022 H   0  0  0  0  0  0  0  0  0  0  0  0
   -5.7693    6.1528   -2.8483 H   0  0  0  0  0  0  0  0  0  0  0  0
   -4.3761    4.5535   -4.0746 H   0  0  0  0  0  0  0  0  0  0  0  0
   -6.1021    2.4144   -3.8471 H   0  0  0  0  0  0  0  0  0  0  0  0
   -6.3996   -1.5592   -8.4865 H   0  0  0  0  0  0  0  0  0  0  0  0
   -8.8438   -2.3701   -4.3766 H   0  0  0  0  0  0  0  0  0  0  0  0
   -9.6126   -4.8041   -6.4931 H   0  0  0  0  0  0  0  0  0  0  0  0
   -8.0721   -6.1063   -4.9417 H   0  0  0  0  0  0  0  0  0  0  0  0
   -5.9501   -4.4761   -4.6114 H   0  0  0  0  0  0  0  0  0  0  0  0
   -4.8074   -4.2381   -6.9037 H   0  0  0  0  0  0  0  0  0  0  0  0
   -6.2184   -5.5597   -8.6831 H   0  0  0  0  0  0  0  0  0  0  0  0
   -6.4735   -7.1918   -6.6794 H   0  0  0  0  0  0  0  0  0  0  0  0
   -8.1140   -6.8808   -7.4952 H   0  0  0  0  0  0  0  0  0  0  0  0
   -8.4764   -4.3608   -8.6633 H   0  0  0  0  0  0  0  0  0  0  0  0
  1  2  2  3
  2  3  1  0
  3  4  2  0
  3  5  1  0
  5  6  2  0
  6  7  1  0
  7  8  2  0
  8  9  1  0
  9 10  2  0
 10 11  1  0
 11 12  2  3
 12 13  1  0
 13 14  3  0
 12 15  1  0
 15 16  3  0
  8 17  1  0
 17 18  1  0
 18 19  1  0
 19 20  2  0
 20 21  1  0
 21 22  1  0
 21 23  1  0
  1 24  1  0
 24 25  2  0
 25 26  1  0
 26 27  2  0
 27 28  1  0
 28 29  2  0
 29 30  1  0
 30 31  2  0
 31 32  1  0
 32 33  1  0
 33 34  1  0
 31 35  1  0
 27 36  1  0
 36 37  2  0
 37 38  1  0
 38 39  1  0
 39 40  2  0
 40 41  1  0
 41 42  2  0
 42 43  1  0
 43 44  1  0
 44 45  1  0
 42 46  1  0
 38 47  2  0
 47 48  1  0
 37 49  1  0
 49 50  2  0
 50 51  1  0
 50 52  1  0
 52 53  1  0
 53 54  1  0
 54 55  1  0
 55 56  2  0
 56 57  1  0
 57 58  1  0
 58 59  2  0
 58 60  1  0
 60 61  1  0
 56 62  1  0
 62 63  2  0
 63 64  1  0
 63 65  1  0
 65 66  2  0
 66 67  1  0
 67 68  1  0
 68 69  2  0
 69 70  1  0
 70 71  2  0
 71 72  1  0
 72 73  1  0
 71 74  1  0
 74 75  2  0
 67 76  1  0
 76 77  2  0
 77 78  1  0
 78 79  2  0
 79 80  1  0
 80 81  1  0
 79 82  1  0
 82 83  2  0
 66 84  1  0
 84 85  1  0
 85 86  1  0
 86 87  2  0
 87 88  1  0
 88 89  1  0
 89 90  2  0
 90 91  1  0
 91 92  2  0
 92 93  1  0
 93 94  1  0
 92 95  1  0
 95 96  2  0
 88 97  1  0
 97 98  2  0
 98 99  1  0
 99100  2  0
100101  1  0
101102  1  0
100103  1  0
103104  2  0
 87105  1  0
105106  1  0
 86107  1  0
107108  2  3
108109  1  0
109110  2  0
109111  1  0
111112  2  0
112113  1  0
113114  2  0
114115  1  0
115116  2  0
116117  1  0
117118  2  3
118119  1  0
119120  3  0
118121  1  0
121122  3  0
114123  1  0
123124  1  0
124125  1  0
125126  2  0
126127  1  0
127128  1  0
127129  1  0
 11  2  1  0
 23 17  1  0
 48 24  1  0
 61 52  2  0
106 65  1  0
117108  1  0
129123  1  0
 10  5  1  0
 22 18  1  0
 47 26  1  0
 60 54  2  0
 75 68  1  0
 83 76  1  0
105 84  2  0
116111  1  0
128124  1  0
 23  7  1  0
 35 28  1  0
 51 36  1  0
 64 55  1  0
 96 89  1  0
104 97  1  0
129113  1  0
 46 39  1  0
  1130  1  0
  6131  1  0
  9132  1  0
 17133  1  0
 18134  1  0
 19135  1  0
 20136  1  0
 21137  1  0
 22138  1  0
 22139  1  0
 23140  1  0
 25141  1  0
 29142  1  0
 30143  1  0
 33144  1  0
 33145  1  0
 34146  1  0
 34147  1  0
 34148  1  0
 40149  1  0
 41150  1  0
 44151  1  0
 44152  1  0
 45153  1  0
 45154  1  0
 45155  1  0
 49156  1  0
 61157  1  0
 62158  1  0
 69159  1  0
 70160  1  0
 73161  1  0
 73162  1  0
 73163  1  0
 74164  1  0
 75165  1  0
 77166  1  0
 78167  1  0
 81168  1  0
 81169  1  0
 81170  1  0
 82171  1  0
 83172  1  0
 90173  1  0
 91174  1  0
 94175  1  0
 94176  1  0
 94177  1  0
 95178  1  0
 96179  1  0
 98180  1  0
 99181  1  0
102182  1  0
102183  1  0
102184  1  0
103185  1  0
104186  1  0
107187  1  0
112188  1  0
115189  1  0
123190  1  0
124191  1  0
125192  1  0
126193  1  0
127194  1  0
128195  1  0
128196  1  0
129197  1  0
M  END

