
     RDKit          3D

271295  0  0  0  0  0  0  0  0999 V2000
   -1.9555    4.5377    4.3734 C   0  0  0  0  0  0  0  0  0  0  0  0
   -1.6957    5.8598    4.3681 C   0  0  0  0  0  0  0  0  0  0  0  0
   -0.9424    6.5811    3.3324 C   0  0  0  0  0  0  0  0  0  0  0  0
   -0.2347    6.0732    2.4219 O   0  0  0  0  0  0  0  0  0  0  0  0
   -1.2615    7.9873    3.4304 C   0  0  0  0  0  0  0  0  0  0  0  0
   -0.8821    9.0050    2.5298 C   0  0  0  0  0  0  0  0  0  0  0  0
   -1.5488   10.1958    2.7199 C   0  0  0  0  0  0  0  0  0  0  0  0
   -2.5397   10.3846    3.7331 C   0  0  0  0  0  0  0  0  0  0  0  0
   -2.8939    9.4001    4.6461 C   0  0  0  0  0  0  0  0  0  0  0  0
   -2.1914    8.1757    4.4843 C   0  0  0  0  0  0  0  0  0  0  0  0
   -2.3674    6.8908    5.2077 C   0  0  0  0  0  0  0  0  0  0  0  0
   -2.7688    6.7377    6.4896 C   0  0  0  0  0  0  0  0  0  0  0  0
   -3.2400    7.8459    7.2804 C   0  0  0  0  0  0  0  0  0  0  0  0
   -3.6184    8.7269    7.9286 N   0  0  0  0  0  0  0  0  0  0  0  0
   -2.5644    5.5010    7.2047 C   0  0  0  0  0  0  0  0  0  0  0  0
   -2.3895    4.5197    7.7848 N   0  0  0  0  0  0  0  0  0  0  0  0
   -2.8251   11.7673    3.2153 C   0  0  0  0  0  0  0  0  0  0  0  0
   -4.1299   11.9809    2.3852 C   0  0  0  0  0  0  0  0  0  0  0  0
   -4.4918   10.7135    1.6424 C   0  0  0  0  0  0  0  0  0  0  0  0
   -3.5507   10.5343    0.7127 C   0  0  0  0  0  0  0  0  0  0  0  0
   -2.5896   11.6889    0.8513 C   0  0  0  0  0  0  0  0  0  0  0  0
   -3.5710   12.7805    1.2240 C   0  0  0  0  0  0  0  0  0  0  0  0
   -1.7992   11.5736    2.1874 C   0  0  0  0  0  0  0  0  0  0  0  0
   -1.3525    3.6217    3.3996 C   0  0  0  0  0  0  0  0  0  0  0  0
   -0.0555    3.1103    3.4649 C   0  0  0  0  0  0  0  0  0  0  0  0
    0.7720    3.1606    4.6334 N   0  0  0  0  0  0  0  0  0  0  0  0
    0.6978    2.0849    5.5851 C   0  0  0  0  0  0  0  0  0  0  0  0
   -0.5270    1.7384    6.1753 C   0  0  0  0  0  0  0  0  0  0  0  0
   -0.5795    0.7559    7.1641 C   0  0  0  0  0  0  0  0  0  0  0  0
    0.5861    0.0873    7.5532 C   0  0  0  0  0  0  0  0  0  0  0  0
    0.5178   -1.1699    8.8308 S   0  0  0  0  0  0  0  0  0  0  0  0
   -0.1131   -2.4535    7.7042 C   0  0  0  0  0  0  0  0  0  0  0  0
    1.8103    0.4107    6.9493 C   0  0  0  0  0  0  0  0  0  0  0  0
    1.8680    1.4169    5.9810 C   0  0  0  0  0  0  0  0  0  0  0  0
    1.4812    4.3733    4.9535 C   0  0  0  0  0  0  0  0  0  0  0  0
    1.4497    4.8862    6.2620 C   0  0  0  0  0  0  0  0  0  0  0  0
    2.0630    6.1074    6.5575 C   0  0  0  0  0  0  0  0  0  0  0  0
    2.6974    6.8351    5.5456 C   0  0  0  0  0  0  0  0  0  0  0  0
    3.4214    8.4337    5.9045 S   0  0  0  0  0  0  0  0  0  0  0  0
    1.8706    9.3334    5.5691 C   0  0  0  0  0  0  0  0  0  0  0  0
    2.7538    6.3231    4.2459 C   0  0  0  0  0  0  0  0  0  0  0  0
    2.1576    5.0929    3.9532 C   0  0  0  0  0  0  0  0  0  0  0  0
    0.3449    2.5898    2.2382 C   0  0  0  0  0  0  0  0  0  0  0  0
    1.7714    1.9791    1.6551 S   0  0  0  0  0  0  0  0  0  0  0  0
    1.2285    1.7605    0.0485 C   0  0  0  0  0  0  0  0  0  0  0  0
   -0.1363    2.1881   -0.0323 C   0  0  0  0  0  0  0  0  0  0  0  0
   -0.9874    2.2364   -1.2131 N   0  0  0  0  0  0  0  0  0  0  0  0
   -0.9661    1.2498   -2.2656 C   0  0  0  0  0  0  0  0  0  0  0  0
   -1.2492    1.6595   -3.5814 C   0  0  0  0  0  0  0  0  0  0  0  0
   -1.4090    0.7300   -4.6001 C   0  0  0  0  0  0  0  0  0  0  0  0
   -1.2978   -0.6317   -4.3264 C   0  0  0  0  0  0  0  0  0  0  0  0
   -1.4987   -1.7898   -5.6722 S   0  0  0  0  0  0  0  0  0  0  0  0
   -3.2764   -2.0370   -5.3687 C   0  0  0  0  0  0  0  0  0  0  0  0
   -1.0269   -1.0641   -3.0197 C   0  0  0  0  0  0  0  0  0  0  0  0
   -0.8671   -0.1280   -1.9875 C   0  0  0  0  0  0  0  0  0  0  0  0
   -2.0731    3.1886   -1.2482 C   0  0  0  0  0  0  0  0  0  0  0  0
   -3.3998    2.7395   -1.3728 C   0  0  0  0  0  0  0  0  0  0  0  0
   -4.4611    3.6415   -1.3038 C   0  0  0  0  0  0  0  0  0  0  0  0
   -4.2101    5.0041   -1.1052 C   0  0  0  0  0  0  0  0  0  0  0  0
   -5.5790    6.1528   -0.9206 S   0  0  0  0  0  0  0  0  0  0  0  0
   -5.6919    6.5033   -2.7014 C   0  0  0  0  0  0  0  0  0  0  0  0
   -2.8913    5.4628   -1.0041 C   0  0  0  0  0  0  0  0  0  0  0  0
   -1.8246    4.5627   -1.0909 C   0  0  0  0  0  0  0  0  0  0  0  0
   -0.5672    2.6471    1.2338 C   0  0  0  0  0  0  0  0  0  0  0  0
   -1.9712    3.3645    1.8392 S   0  0  0  0  0  0  0  0  0  0  0  0
    2.0871    1.0027   -0.8978 C   0  0  0  0  0  0  0  0  0  0  0  0
    2.1366    0.9539   -2.3098 C   0  0  0  0  0  0  0  0  0  0  0  0
    2.0184    2.1064   -3.1923 N   0  0  0  0  0  0  0  0  0  0  0  0
    2.7030    2.0396   -4.4576 C   0  0  0  0  0  0  0  0  0  0  0  0
    4.0922    2.2473   -4.5028 C   0  0  0  0  0  0  0  0  0  0  0  0
    4.7739    2.1862   -5.7162 C   0  0  0  0  0  0  0  0  0  0  0  0
    4.0716    1.9441   -6.9026 C   0  0  0  0  0  0  0  0  0  0  0  0
    4.9521    1.8888   -8.4687 S   0  0  0  0  0  0  0  0  0  0  0  0
    4.9063    3.6938   -8.6934 C   0  0  0  0  0  0  0  0  0  0  0  0
    2.6862    1.7368   -6.8646 C   0  0  0  0  0  0  0  0  0  0  0  0
    2.0025    1.7833   -5.6445 C   0  0  0  0  0  0  0  0  0  0  0  0
    1.7669    3.4520   -2.7271 C   0  0  0  0  0  0  0  0  0  0  0  0
    2.4934    4.0001   -1.6517 C   0  0  0  0  0  0  0  0  0  0  0  0
    2.3748    5.3558   -1.3291 C   0  0  0  0  0  0  0  0  0  0  0  0
    1.5933    6.1994   -2.1226 C   0  0  0  0  0  0  0  0  0  0  0  0
    1.5560    7.9645   -1.7999 S   0  0  0  0  0  0  0  0  0  0  0  0
   -0.0831    7.9220   -1.0207 C   0  0  0  0  0  0  0  0  0  0  0  0
    0.9002    5.6753   -3.2177 C   0  0  0  0  0  0  0  0  0  0  0  0
    0.9824    4.3137   -3.5147 C   0  0  0  0  0  0  0  0  0  0  0  0
    2.8131   -0.2145   -2.7349 C   0  0  0  0  0  0  0  0  0  0  0  0
    2.2254   -1.3953   -3.7768 S   0  0  0  0  0  0  0  0  0  0  0  0
    2.8932   -2.7613   -3.0088 C   0  0  0  0  0  0  0  0  0  0  0  0
    3.7135   -2.2591   -1.9803 C   0  0  0  0  0  0  0  0  0  0  0  0
    4.5222   -3.0569   -1.0765 N   0  0  0  0  0  0  0  0  0  0  0  0
    5.5710   -2.4259   -0.3196 C   0  0  0  0  0  0  0  0  0  0  0  0
    5.6983   -2.6810    1.0545 C   0  0  0  0  0  0  0  0  0  0  0  0
    6.7277   -2.0850    1.7877 C   0  0  0  0  0  0  0  0  0  0  0  0
    7.6392   -1.2313    1.1543 C   0  0  0  0  0  0  0  0  0  0  0  0
    8.9555   -0.4629    2.0989 S   0  0  0  0  0  0  0  0  0  0  0  0
    7.9752    1.0256    2.4767 C   0  0  0  0  0  0  0  0  0  0  0  0
    7.5210   -0.9806   -0.2188 C   0  0  0  0  0  0  0  0  0  0  0  0
    6.4909   -1.5718   -0.9517 C   0  0  0  0  0  0  0  0  0  0  0  0
    4.5747   -4.4882   -1.1580 C   0  0  0  0  0  0  0  0  0  0  0  0
    5.5292   -5.1096   -1.9799 C   0  0  0  0  0  0  0  0  0  0  0  0
    5.6755   -6.5011   -1.9569 C   0  0  0  0  0  0  0  0  0  0  0  0
    4.8502   -7.2813   -1.1383 C   0  0  0  0  0  0  0  0  0  0  0  0
    5.0242   -9.0658   -1.1160 S   0  0  0  0  0  0  0  0  0  0  0  0
    3.9304   -9.3204   -2.5467 C   0  0  0  0  0  0  0  0  0  0  0  0
    3.9080   -6.6631   -0.3093 C   0  0  0  0  0  0  0  0  0  0  0  0
    3.7916   -5.2702   -0.2999 C   0  0  0  0  0  0  0  0  0  0  0  0
    3.5008   -0.8935   -1.7669 C   0  0  0  0  0  0  0  0  0  0  0  0
    3.0981   -0.2181   -0.3014 S   0  0  0  0  0  0  0  0  0  0  0  0
    1.9694   -3.8540   -2.6664 C   0  0  0  0  0  0  0  0  0  0  0  0
    1.5083   -4.9269   -3.4546 C   0  0  0  0  0  0  0  0  0  0  0  0
    1.8178   -5.1161   -4.8496 N   0  0  0  0  0  0  0  0  0  0  0  0
    3.1835   -5.0670   -5.2783 C   0  0  0  0  0  0  0  0  0  0  0  0
    4.0714   -6.0654   -4.8717 C   0  0  0  0  0  0  0  0  0  0  0  0
    5.3821   -6.0854   -5.3543 C   0  0  0  0  0  0  0  0  0  0  0  0
    5.8171   -5.0941   -6.2435 C   0  0  0  0  0  0  0  0  0  0  0  0
    7.5046   -5.1202   -6.8614 S   0  0  0  0  0  0  0  0  0  0  0  0
    8.1590   -4.1696   -5.4544 C   0  0  0  0  0  0  0  0  0  0  0  0
    4.9309   -4.0900   -6.6546 C   0  0  0  0  0  0  0  0  0  0  0  0
    3.6121   -4.0819   -6.1808 C   0  0  0  0  0  0  0  0  0  0  0  0
    0.7824   -5.4456   -5.8069 C   0  0  0  0  0  0  0  0  0  0  0  0
   -0.5161   -4.9350   -5.6498 C   0  0  0  0  0  0  0  0  0  0  0  0
   -1.5413   -5.3089   -6.5148 C   0  0  0  0  0  0  0  0  0  0  0  0
   -1.2878   -6.2030   -7.5580 C   0  0  0  0  0  0  0  0  0  0  0  0
   -2.6261   -6.7263   -8.6292 S   0  0  0  0  0  0  0  0  0  0  0  0
   -3.1675   -8.0472   -7.4991 C   0  0  0  0  0  0  0  0  0  0  0  0
    0.0071   -6.6991   -7.7470 C   0  0  0  0  0  0  0  0  0  0  0  0
    1.0387   -6.3197   -6.8815 C   0  0  0  0  0  0  0  0  0  0  0  0
    0.5224   -5.6521   -2.7609 C   0  0  0  0  0  0  0  0  0  0  0  0
   -0.5386   -6.8940   -3.1470 S   0  0  0  0  0  0  0  0  0  0  0  0
   -1.5032   -6.7486   -1.7485 C   0  0  0  0  0  0  0  0  0  0  0  0
   -0.9782   -5.6933   -0.9608 C   0  0  0  0  0  0  0  0  0  0  0  0
   -1.5718   -5.1062    0.2203 N   0  0  0  0  0  0  0  0  0  0  0  0
   -2.9306   -4.6055    0.1664 C   0  0  0  0  0  0  0  0  0  0  0  0
   -3.4634   -4.0859   -1.0284 C   0  0  0  0  0  0  0  0  0  0  0  0
   -4.7780   -3.6131   -1.0726 C   0  0  0  0  0  0  0  0  0  0  0  0
   -5.5778   -3.6600    0.0709 C   0  0  0  0  0  0  0  0  0  0  0  0
   -7.2578   -3.0352    0.0222 S   0  0  0  0  0  0  0  0  0  0  0  0
   -6.7613   -1.3619    0.5367 C   0  0  0  0  0  0  0  0  0  0  0  0
   -5.0593   -4.1713    1.2617 C   0  0  0  0  0  0  0  0  0  0  0  0
   -3.7416   -4.6246    1.3135 C   0  0  0  0  0  0  0  0  0  0  0  0
   -0.7009   -4.8197    1.3536 C   0  0  0  0  0  0  0  0  0  0  0  0
    0.4431   -5.6131    1.5895 C   0  0  0  0  0  0  0  0  0  0  0  0
    1.3397   -5.2947    2.6094 C   0  0  0  0  0  0  0  0  0  0  0  0
    1.1146   -4.1782    3.4196 C   0  0  0  0  0  0  0  0  0  0  0  0
    2.3037   -3.7380    4.6922 S   0  0  0  0  0  0  0  0  0  0  0  0
    1.6871   -4.9642    5.8891 C   0  0  0  0  0  0  0  0  0  0  0  0
   -0.0092   -3.3772    3.1985 C   0  0  0  0  0  0  0  0  0  0  0  0
   -0.8973   -3.6786    2.1628 C   0  0  0  0  0  0  0  0  0  0  0  0
    0.1518   -5.1399   -1.5645 C   0  0  0  0  0  0  0  0  0  0  0  0
    1.0356   -3.7665   -1.2478 S   0  0  0  0  0  0  0  0  0  0  0  0
   -2.8392   -7.3637   -1.7017 C   0  0  0  0  0  0  0  0  0  0  0  0
   -3.5368   -7.7635   -0.6248 C   0  0  0  0  0  0  0  0  0  0  0  0
   -4.9866   -7.9401   -0.6796 C   0  0  0  0  0  0  0  0  0  0  0  0
   -5.6840   -8.0347   -1.7249 O   0  0  0  0  0  0  0  0  0  0  0  0
   -5.5085   -7.8666    0.6659 C   0  0  0  0  0  0  0  0  0  0  0  0
   -6.8399   -7.8138    1.0656 C   0  0  0  0  0  0  0  0  0  0  0  0
   -7.1358   -7.5937    2.4239 C   0  0  0  0  0  0  0  0  0  0  0  0
   -8.5801   -7.5321    2.8571 C   0  0  0  0  0  0  0  0  0  0  0  0
   -6.0716   -7.4237    3.3548 C   0  0  0  0  0  0  0  0  0  0  0  0
   -6.3509   -7.1159    4.8020 C   0  0  0  0  0  0  0  0  0  0  0  0
   -4.7325   -7.4864    2.9108 C   0  0  0  0  0  0  0  0  0  0  0  0
   -4.4624   -7.7257    1.5558 C   0  0  0  0  0  0  0  0  0  0  0  0
   -3.1689   -7.7924    0.8190 C   0  0  0  0  0  0  0  0  0  0  0  0
   -1.9659   -8.1475    1.3336 C   0  0  0  0  0  0  0  0  0  0  0  0
   -0.9098   -8.6671    0.4991 C   0  0  0  0  0  0  0  0  0  0  0  0
   -0.0575   -9.0923   -0.1571 N   0  0  0  0  0  0  0  0  0  0  0  0
   -1.6952   -8.1527    2.7460 C   0  0  0  0  0  0  0  0  0  0  0  0
   -1.4608   -8.1517    3.8793 N   0  0  0  0  0  0  0  0  0  0  0  0
   -2.7016    4.1318    5.0351 H   0  0  0  0  0  0  0  0  0  0  0  0
   -0.1894    8.8465    1.7188 H   0  0  0  0  0  0  0  0  0  0  0  0
   -3.6968    9.5540    5.3490 H   0  0  0  0  0  0  0  0  0  0  0  0
   -2.5823   12.5851    3.9348 H   0  0  0  0  0  0  0  0  0  0  0  0
   -4.9684   12.4578    2.9348 H   0  0  0  0  0  0  0  0  0  0  0  0
   -5.3747   10.0956    1.7806 H   0  0  0  0  0  0  0  0  0  0  0  0
   -3.5313    9.7410   -0.0275 H   0  0  0  0  0  0  0  0  0  0  0  0
   -1.9672   11.8917   -0.0475 H   0  0  0  0  0  0  0  0  0  0  0  0
   -4.3228   12.9924    0.4255 H   0  0  0  0  0  0  0  0  0  0  0  0
   -3.0808   13.7341    1.5300 H   0  0  0  0  0  0  0  0  0  0  0  0
   -0.9273   12.2616    2.2795 H   0  0  0  0  0  0  0  0  0  0  0  0
   -1.4375    2.2433    5.8954 H   0  0  0  0  0  0  0  0  0  0  0  0
   -1.5225    0.5171    7.6353 H   0  0  0  0  0  0  0  0  0  0  0  0
   -0.1233   -3.4268    8.2353 H   0  0  0  0  0  0  0  0  0  0  0  0
    0.5324   -2.5239    6.8047 H   0  0  0  0  0  0  0  0  0  0  0  0
   -1.1487   -2.2039    7.3897 H   0  0  0  0  0  0  0  0  0  0  0  0
    2.7159   -0.1008    7.2498 H   0  0  0  0  0  0  0  0  0  0  0  0
    2.8187    1.6777    5.5358 H   0  0  0  0  0  0  0  0  0  0  0  0
    0.9267    4.3592    7.0494 H   0  0  0  0  0  0  0  0  0  0  0  0
    2.0175    6.5000    7.5644 H   0  0  0  0  0  0  0  0  0  0  0  0
    1.0851    9.0194    6.2882 H   0  0  0  0  0  0  0  0  0  0  0  0
    1.5253    9.1359    4.5313 H   0  0  0  0  0  0  0  0  0  0  0  0
    2.0506   10.4207    5.6833 H   0  0  0  0  0  0  0  0  0  0  0  0
    3.2419    6.8785    3.4580 H   0  0  0  0  0  0  0  0  0  0  0  0
    2.2047    4.7135    2.9417 H   0  0  0  0  0  0  0  0  0  0  0  0
   -1.3876    2.7085   -3.8141 H   0  0  0  0  0  0  0  0  0  0  0  0
   -1.6291    1.0671   -5.6072 H   0  0  0  0  0  0  0  0  0  0  0  0
   -3.4355   -2.4681   -4.3579 H   0  0  0  0  0  0  0  0  0  0  0  0
   -3.6787   -2.7390   -6.1261 H   0  0  0  0  0  0  0  0  0  0  0  0
   -3.8184   -1.0727   -5.4552 H   0  0  0  0  0  0  0  0  0  0  0  0
   -0.9544   -2.1214   -2.8036 H   0  0  0  0  0  0  0  0  0  0  0  0
   -0.6966   -0.4710   -0.9749 H   0  0  0  0  0  0  0  0  0  0  0  0
   -3.6101    1.6840   -1.4843 H   0  0  0  0  0  0  0  0  0  0  0  0
   -5.4776    3.2810   -1.3822 H   0  0  0  0  0  0  0  0  0  0  0  0
   -4.7402    6.9449   -3.0650 H   0  0  0  0  0  0  0  0  0  0  0  0
   -5.9110    5.5690   -3.2610 H   0  0  0  0  0  0  0  0  0  0  0  0
   -6.5144    7.2261   -2.8736 H   0  0  0  0  0  0  0  0  0  0  0  0
   -2.7003    6.5103   -0.8272 H   0  0  0  0  0  0  0  0  0  0  0  0
   -0.8116    4.9184   -0.9703 H   0  0  0  0  0  0  0  0  0  0  0  0
    4.6380    2.4536   -3.5904 H   0  0  0  0  0  0  0  0  0  0  0  0
    5.8435    2.3419   -5.7405 H   0  0  0  0  0  0  0  0  0  0  0  0
    3.8553    4.0502   -8.7028 H   0  0  0  0  0  0  0  0  0  0  0  0
    5.3865    3.9564   -9.6575 H   0  0  0  0  0  0  0  0  0  0  0  0
    5.4627    4.1900   -7.8713 H   0  0  0  0  0  0  0  0  0  0  0  0
    2.1388    1.5430   -7.7773 H   0  0  0  0  0  0  0  0  0  0  0  0
    0.9344    1.6302   -5.6254 H   0  0  0  0  0  0  0  0  0  0  0  0
    3.1963    3.3963   -1.0931 H   0  0  0  0  0  0  0  0  0  0  0  0
    2.9365    5.7575   -0.4998 H   0  0  0  0  0  0  0  0  0  0  0  0
   -0.0872    7.2081   -0.1701 H   0  0  0  0  0  0  0  0  0  0  0  0
   -0.8403    7.6219   -1.7739 H   0  0  0  0  0  0  0  0  0  0  0  0
   -0.3336    8.9391   -0.6556 H   0  0  0  0  0  0  0  0  0  0  0  0
    0.3133    6.3261   -3.8520 H   0  0  0  0  0  0  0  0  0  0  0  0
    0.4860    3.9446   -4.4006 H   0  0  0  0  0  0  0  0  0  0  0  0
    4.9972   -3.3321    1.5580 H   0  0  0  0  0  0  0  0  0  0  0  0
    6.8178   -2.2878    2.8461 H   0  0  0  0  0  0  0  0  0  0  0  0
    7.0237    0.7484    2.9767 H   0  0  0  0  0  0  0  0  0  0  0  0
    8.5568    1.6771    3.1574 H   0  0  0  0  0  0  0  0  0  0  0  0
    7.7555    1.5846    1.5435 H   0  0  0  0  0  0  0  0  0  0  0  0
    8.2297   -0.3301   -0.7185 H   0  0  0  0  0  0  0  0  0  0  0  0
    6.4095   -1.3689   -2.0101 H   0  0  0  0  0  0  0  0  0  0  0  0
    6.1699   -4.5126   -2.6176 H   0  0  0  0  0  0  0  0  0  0  0  0
    6.4260   -6.9711   -2.5760 H   0  0  0  0  0  0  0  0  0  0  0  0
    2.9876   -8.7460   -2.4219 H   0  0  0  0  0  0  0  0  0  0  0  0
    4.4528   -8.9966   -3.4714 H   0  0  0  0  0  0  0  0  0  0  0  0
    3.6855  -10.3991   -2.6353 H   0  0  0  0  0  0  0  0  0  0  0  0
    3.2887   -7.2542    0.3539 H   0  0  0  0  0  0  0  0  0  0  0  0
    3.1053   -4.7973    0.3908 H   0  0  0  0  0  0  0  0  0  0  0  0
    3.7367   -6.8410   -4.1956 H   0  0  0  0  0  0  0  0  0  0  0  0
    6.0588   -6.8714   -5.0452 H   0  0  0  0  0  0  0  0  0  0  0  0
    8.0054   -4.7341   -4.5116 H   0  0  0  0  0  0  0  0  0  0  0  0
    9.2456   -4.0063   -5.6027 H   0  0  0  0  0  0  0  0  0  0  0  0
    7.6514   -3.1833   -5.3910 H   0  0  0  0  0  0  0  0  0  0  0  0
    5.2600   -3.3231   -7.3451 H   0  0  0  0  0  0  0  0  0  0  0  0
    2.9261   -3.3130   -6.5102 H   0  0  0  0  0  0  0  0  0  0  0  0
   -0.7464   -4.2846   -4.8177 H   0  0  0  0  0  0  0  0  0  0  0  0
   -2.5404   -4.9335   -6.3553 H   0  0  0  0  0  0  0  0  0  0  0  0
   -2.3590   -8.7962   -7.3723 H   0  0  0  0  0  0  0  0  0  0  0  0
   -4.0594   -8.5448   -7.9276 H   0  0  0  0  0  0  0  0  0  0  0  0
   -3.4377   -7.6205   -6.5103 H   0  0  0  0  0  0  0  0  0  0  0  0
    0.2101   -7.3976   -8.5470 H   0  0  0  0  0  0  0  0  0  0  0  0
    2.0256   -6.7332   -7.0352 H   0  0  0  0  0  0  0  0  0  0  0  0
   -2.8565   -4.0262   -1.9258 H   0  0  0  0  0  0  0  0  0  0  0  0
   -5.1684   -3.1984   -1.9966 H   0  0  0  0  0  0  0  0  0  0  0  0
   -6.0416   -0.9369   -0.1929 H   0  0  0  0  0  0  0  0  0  0  0  0
   -7.6585   -0.7117    0.5773 H   0  0  0  0  0  0  0  0  0  0  0  0
   -6.2949   -1.3950    1.5439 H   0  0  0  0  0  0  0  0  0  0  0  0
   -5.6749   -4.2100    2.1503 H   0  0  0  0  0  0  0  0  0  0  0  0
   -3.3573   -5.0139    2.2477 H   0  0  0  0  0  0  0  0  0  0  0  0
    0.6675   -6.4616    0.9579 H   0  0  0  0  0  0  0  0  0  0  0  0
    2.2178   -5.9094    2.7596 H   0  0  0  0  0  0  0  0  0  0  0  0
    1.9641   -5.9846    5.5518 H   0  0  0  0  0  0  0  0  0  0  0  0
    2.1544   -4.7714    6.8769 H   0  0  0  0  0  0  0  0  0  0  0  0
    0.5846   -4.8958    5.9952 H   0  0  0  0  0  0  0  0  0  0  0  0
   -0.1701   -2.4950    3.8077 H   0  0  0  0  0  0  0  0  0  0  0  0
   -1.7131   -2.9940    1.9778 H   0  0  0  0  0  0  0  0  0  0  0  0
   -3.3466   -7.4023   -2.6618 H   0  0  0  0  0  0  0  0  0  0  0  0
   -7.6252   -7.9266    0.3288 H   0  0  0  0  0  0  0  0  0  0  0  0
   -8.7750   -6.5748    3.3807 H   0  0  0  0  0  0  0  0  0  0  0  0
   -8.8039   -8.3778    3.5379 H   0  0  0  0  0  0  0  0  0  0  0  0
   -9.2677   -7.5925    1.9871 H   0  0  0  0  0  0  0  0  0  0  0  0
   -5.4252   -7.1349    5.4126 H   0  0  0  0  0  0  0  0  0  0  0  0
   -7.0506   -7.8660    5.2246 H   0  0  0  0  0  0  0  0  0  0  0  0
   -6.8045   -6.1054    4.8889 H   0  0  0  0  0  0  0  0  0  0  0  0
   -3.9365   -7.2958    3.6078 H   0  0  0  0  0  0  0  0  0  0  0  0
  1  2  2  3
  2  3  1  0
  3  4  2  0
  3  5  1  0
  5  6  2  0
  6  7  1  0
  7  8  2  0
  8  9  1  0
  9 10  2  0
 10 11  1  0
 11 12  2  3
 12 13  1  0
 13 14  3  0
 12 15  1  0
 15 16  3  0
  8 17  1  0
 17 18  1  0
 18 19  1  0
 19 20  2  0
 20 21  1  0
 21 22  1  0
 21 23  1  0
  1 24  1  0
 24 25  2  0
 25 26  1  0
 26 27  1  0
 27 28  2  0
 28 29  1  0
 29 30  2  0
 30 31  1  0
 31 32  1  0
 30 33  1  0
 33 34  2  0
 26 35  1  0
 35 36  2  0
 36 37  1  0
 37 38  2  0
 38 39  1  0
 39 40  1  0
 38 41  1  0
 41 42  2  0
 25 43  1  0
 43 44  1  0
 44 45  1  0
 45 46  2  0
 46 47  1  0
 47 48  1  0
 48 49  2  0
 49 50  1  0
 50 51  2  0
 51 52  1  0
 52 53  1  0
 51 54  1  0
 54 55  2  0
 47 56  1  0
 56 57  2  0
 57 58  1  0
 58 59  2  0
 59 60  1  0
 60 61  1  0
 59 62  1  0
 62 63  2  0
 46 64  1  0
 64 65  1  0
 45 66  1  0
 66 67  2  0
 67 68  1  0
 68 69  1  0
 69 70  2  0
 70 71  1  0
 71 72  2  0
 72 73  1  0
 73 74  1  0
 72 75  1  0
 75 76  2  0
 68 77  1  0
 77 78  2  0
 78 79  1  0
 79 80  2  0
 80 81  1  0
 81 82  1  0
 80 83  1  0
 83 84  2  0
 67 85  1  0
 85 86  1  0
 86 87  1  0
 87 88  2  0
 88 89  1  0
 89 90  1  0
 90 91  2  0
 91 92  1  0
 92 93  2  0
 93 94  1  0
 94 95  1  0
 93 96  1  0
 96 97  2  0
 89 98  1  0
 98 99  2  0
 99100  1  0
100101  2  0
101102  1  0
102103  1  0
101104  1  0
104105  2  0
 88106  1  0
106107  1  0
 87108  1  0
108109  2  0
109110  1  0
110111  1  0
111112  2  0
112113  1  0
113114  2  0
114115  1  0
115116  1  0
114117  1  0
117118  2  0
110119  1  0
119120  2  0
120121  1  0
121122  2  0
122123  1  0
123124  1  0
122125  1  0
125126  2  0
109127  1  0
127128  1  0
128129  1  0
129130  2  0
130131  1  0
131132  1  0
132133  2  0
133134  1  0
134135  2  0
135136  1  0
136137  1  0
135138  1  0
138139  2  0
131140  1  0
140141  2  0
141142  1  0
142143  2  0
143144  1  0
144145  1  0
143146  1  0
146147  2  0
130148  1  0
148149  1  0
129150  1  0
150151  2  3
151152  1  0
152153  2  0
152154  1  0
154155  2  0
155156  1  0
156157  1  0
156158  2  0
158159  1  0
158160  1  0
160161  2  0
161162  1  0
162163  2  3
163164  1  0
164165  3  0
163166  1  0
166167  3  0
 11  2  1  0
 23 17  1  0
 65 24  1  0
107 66  1  0
149108  1  0
162151  1  0
 10  5  1  0
 22 18  1  0
 34 27  1  0
 42 35  1  0
 64 43  2  0
 76 69  1  0
 84 77  1  0
106 85  2  0
118111  1  0
126119  1  0
148127  2  0
161154  1  0
 23  7  1  0
 55 48  1  0
 63 56  1  0
 97 90  1  0
105 98  1  0
139132  1  0
147140  1  0
  1168  1  0
  6169  1  0
  9170  1  0
 17171  1  0
 18172  1  0
 19173  1  0
 20174  1  0
 21175  1  0
 22176  1  0
 22177  1  0
 23178  1  0
 28179  1  0
 29180  1  0
 32181  1  0
 32182  1  0
 32183  1  0
 33184  1  0
 34185  1  0
 36186  1  0
 37187  1  0
 40188  1  0
 40189  1  0
 40190  1  0
 41191  1  0
 42192  1  0
 49193  1  0
 50194  1  0
 53195  1  0
 53196  1  0
 53197  1  0
 54198  1  0
 55199  1  0
 57200  1  0
 58201  1  0
 61202  1  0
 61203  1  0
 61204  1  0
 62205  1  0
 63206  1  0
 70207  1  0
 71208  1  0
 74209  1  0
 74210  1  0
 74211  1  0
 75212  1  0
 76213  1  0
 78214  1  0
 79215  1  0
 82216  1  0
 82217  1  0
 82218  1  0
 83219  1  0
 84220  1  0
 91221  1  0
 92222  1  0
 95223  1  0
 95224  1  0
 95225  1  0
 96226  1  0
 97227  1  0
 99228  1  0
100229  1  0
103230  1  0
103231  1  0
103232  1  0
104233  1  0
105234  1  0
112235  1  0
113236  1  0
116237  1  0
116238  1  0
116239  1  0
117240  1  0
118241  1  0
120242  1  0
121243  1  0
124244  1  0
124245  1  0
124246  1  0
125247  1  0
126248  1  0
133249  1  0
134250  1  0
137251  1  0
137252  1  0
137253  1  0
138254  1  0
139255  1  0
141256  1  0
142257  1  0
145258  1  0
145259  1  0
145260  1  0
146261  1  0
147262  1  0
150263  1  0
155264  1  0
157265  1  0
157266  1  0
157267  1  0
159268  1  0
159269  1  0
159270  1  0
160271  1  0
M  END

