
     RDKit          3D

184204  0  0  0  0  0  0  0  0999 V2000
    0.1993   -6.5655   -2.8483 C   0  0  0  0  0  0  0  0  0  0  0  0
   -0.1395   -5.9937   -4.0217 C   0  0  0  0  0  0  0  0  0  0  0  0
   -0.4476   -4.5652   -4.1798 C   0  0  0  0  0  0  0  0  0  0  0  0
   -1.0046   -3.8242   -3.3259 O   0  0  0  0  0  0  0  0  0  0  0  0
    0.0603   -4.1246   -5.4571 C   0  0  0  0  0  0  0  0  0  0  0  0
    0.2534   -2.7878   -5.8672 C   0  0  0  0  0  0  0  0  0  0  0  0
    1.0280   -2.6589   -7.0028 C   0  0  0  0  0  0  0  0  0  0  0  0
    1.5793   -3.7789   -7.7063 C   0  0  0  0  0  0  0  0  0  0  0  0
    1.3738   -5.0952   -7.3213 C   0  0  0  0  0  0  0  0  0  0  0  0
    0.5703   -5.2476   -6.1568 C   0  0  0  0  0  0  0  0  0  0  0  0
    0.3053   -6.4744   -5.3562 C   0  0  0  0  0  0  0  0  0  0  0  0
    0.2958   -7.7547   -5.7941 C   0  0  0  0  0  0  0  0  0  0  0  0
    0.6156   -8.0989   -7.1529 C   0  0  0  0  0  0  0  0  0  0  0  0
    0.8672   -8.3849   -8.2467 N   0  0  0  0  0  0  0  0  0  0  0  0
   -0.1709   -8.8336   -4.9635 C   0  0  0  0  0  0  0  0  0  0  0  0
   -0.5474   -9.7039   -4.2980 N   0  0  0  0  0  0  0  0  0  0  0  0
    2.2804   -2.8520   -8.6554 C   0  0  0  0  0  0  0  0  0  0  0  0
    1.6734   -2.7217  -10.0830 C   0  0  0  0  0  0  0  0  0  0  0  0
    2.2945   -1.4788  -10.6823 C   0  0  0  0  0  0  0  0  0  0  0  0
    1.7715   -0.4390  -10.0244 C   0  0  0  0  0  0  0  0  0  0  0  0
    0.8190   -1.0110   -9.0023 C   0  0  0  0  0  0  0  0  0  0  0  0
    0.2797   -2.1789   -9.8135 C   0  0  0  0  0  0  0  0  0  0  0  0
    1.7116   -1.7073   -7.9344 C   0  0  0  0  0  0  0  0  0  0  0  0
    0.4306   -5.7255   -1.6592 C   0  0  0  0  0  0  0  0  0  0  0  0
    1.5035   -4.8125   -1.6320 C   0  0  0  0  0  0  0  0  0  0  0  0
    2.5594   -4.7453   -2.5609 C   0  0  0  0  0  0  0  0  0  0  0  0
    3.4206   -3.6777   -2.3277 C   0  0  0  0  0  0  0  0  0  0  0  0
    4.6521   -3.3588   -3.1141 C   0  0  0  0  0  0  0  0  0  0  0  0
    5.8168   -4.2339   -2.6690 C   0  0  0  0  0  0  0  0  0  0  0  0
    2.8939   -2.8278   -0.9718 S   0  0  0  0  0  0  0  0  0  0  0  0
    1.5526   -3.8058   -0.6679 C   0  0  0  0  0  0  0  0  0  0  0  0
    0.5460   -3.6467    0.3037 C   0  0  0  0  0  0  0  0  0  0  0  0
   -0.4628   -4.6282    0.3474 C   0  0  0  0  0  0  0  0  0  0  0  0
   -0.5047   -5.6394   -0.6188 C   0  0  0  0  0  0  0  0  0  0  0  0
   -1.8418   -6.6153   -0.3375 S   0  0  0  0  0  0  0  0  0  0  0  0
   -2.3492   -5.7916    1.0463 C   0  0  0  0  0  0  0  0  0  0  0  0
   -3.6077   -6.1121    1.7902 C   0  0  0  0  0  0  0  0  0  0  0  0
   -3.4584   -5.9325    3.2986 C   0  0  0  0  0  0  0  0  0  0  0  0
   -1.5090   -4.7025    1.2732 C   0  0  0  0  0  0  0  0  0  0  0  0
    0.4899   -2.4171    1.1100 C   0  0  0  0  0  0  0  0  0  0  0  0
   -0.3036   -1.3043    0.7717 C   0  0  0  0  0  0  0  0  0  0  0  0
   -1.4024   -1.3289   -0.1588 N   0  0  0  0  0  0  0  0  0  0  0  0
   -1.2973   -0.5607   -1.3786 C   0  0  0  0  0  0  0  0  0  0  0  0
   -0.1506   -0.6617   -2.1820 C   0  0  0  0  0  0  0  0  0  0  0  0
   -0.0013    0.1471   -3.3119 C   0  0  0  0  0  0  0  0  0  0  0  0
   -0.9975    1.0647   -3.6551 C   0  0  0  0  0  0  0  0  0  0  0  0
   -0.7810    2.1401   -5.0783 S   0  0  0  0  0  0  0  0  0  0  0  0
   -1.6862    1.0405   -6.2112 C   0  0  0  0  0  0  0  0  0  0  0  0
   -2.1487    1.1682   -2.8661 C   0  0  0  0  0  0  0  0  0  0  0  0
   -2.3020    0.3603   -1.7372 C   0  0  0  0  0  0  0  0  0  0  0  0
   -2.6973   -1.7796    0.2913 C   0  0  0  0  0  0  0  0  0  0  0  0
   -3.1680   -1.4343    1.5720 C   0  0  0  0  0  0  0  0  0  0  0  0
   -4.4767   -1.7455    1.9504 C   0  0  0  0  0  0  0  0  0  0  0  0
   -5.3306   -2.4057    1.0596 C   0  0  0  0  0  0  0  0  0  0  0  0
   -7.0630   -2.6297    1.4836 S   0  0  0  0  0  0  0  0  0  0  0  0
   -6.8505   -4.2833    2.2090 C   0  0  0  0  0  0  0  0  0  0  0  0
   -4.8541   -2.7907   -0.1995 C   0  0  0  0  0  0  0  0  0  0  0  0
   -3.5453   -2.4799   -0.5830 C   0  0  0  0  0  0  0  0  0  0  0  0
    0.2324   -0.1268    1.2890 C   0  0  0  0  0  0  0  0  0  0  0  0
   -0.0230    1.4912    0.9386 S   0  0  0  0  0  0  0  0  0  0  0  0
    1.3918    2.0090    1.7282 C   0  0  0  0  0  0  0  0  0  0  0  0
    2.0609    0.9082    2.2773 C   0  0  0  0  0  0  0  0  0  0  0  0
    3.4031    0.9336    2.7827 N   0  0  0  0  0  0  0  0  0  0  0  0
    4.5328    0.8299    1.8826 C   0  0  0  0  0  0  0  0  0  0  0  0
    5.8306    1.1267    2.3410 C   0  0  0  0  0  0  0  0  0  0  0  0
    6.9400    0.9322    1.5151 C   0  0  0  0  0  0  0  0  0  0  0  0
    6.7696    0.4496    0.2147 C   0  0  0  0  0  0  0  0  0  0  0  0
    8.2001    0.1352   -0.8229 S   0  0  0  0  0  0  0  0  0  0  0  0
    8.3401   -1.6014   -0.2950 C   0  0  0  0  0  0  0  0  0  0  0  0
    5.4840    0.1930   -0.2701 C   0  0  0  0  0  0  0  0  0  0  0  0
    4.3734    0.3812    0.5554 C   0  0  0  0  0  0  0  0  0  0  0  0
    3.5740    0.6171    4.1732 C   0  0  0  0  0  0  0  0  0  0  0  0
    4.0266   -0.6549    4.5573 C   0  0  0  0  0  0  0  0  0  0  0  0
    4.1211   -0.9894    5.9094 C   0  0  0  0  0  0  0  0  0  0  0  0
    3.7811   -0.0509    6.8884 C   0  0  0  0  0  0  0  0  0  0  0  0
    3.8621   -0.4945    8.6232 S   0  0  0  0  0  0  0  0  0  0  0  0
    2.1311   -1.0570    8.6775 C   0  0  0  0  0  0  0  0  0  0  0  0
    3.3652    1.2326    6.5117 C   0  0  0  0  0  0  0  0  0  0  0  0
    3.2559    1.5618    5.1575 C   0  0  0  0  0  0  0  0  0  0  0  0
    1.3699   -0.2710    2.0133 C   0  0  0  0  0  0  0  0  0  0  0  0
    1.8107   -1.8868    2.0525 S   0  0  0  0  0  0  0  0  0  0  0  0
    1.7818    3.4172    1.8042 C   0  0  0  0  0  0  0  0  0  0  0  0
    1.3743    4.1729    2.8982 C   0  0  0  0  0  0  0  0  0  0  0  0
    0.8033    3.7528    4.0393 N   0  0  0  0  0  0  0  0  0  0  0  0
    0.4467    4.8669    4.6709 N   0  0  0  0  0  0  0  0  0  0  0  0
   -0.2226    4.8790    5.9667 C   0  0  0  0  0  0  0  0  0  0  0  0
   -1.6886    4.5066    5.8064 C   0  0  0  0  0  0  0  0  0  0  0  0
    0.6998    5.9666    3.9693 N   0  0  0  0  0  0  0  0  0  0  0  0
    1.3054    5.5292    2.8523 C   0  0  0  0  0  0  0  0  0  0  0  0
    1.6229    6.2554    1.7035 C   0  0  0  0  0  0  0  0  0  0  0  0
    2.2160    5.5437    0.6319 C   0  0  0  0  0  0  0  0  0  0  0  0
    2.2658    4.1176    0.6688 C   0  0  0  0  0  0  0  0  0  0  0  0
    2.8227    3.2224   -0.7441 Cl  0  0  0  0  0  0  0  0  0  0  0  0
    2.8340    6.4232   -0.7663 Cl  0  0  0  0  0  0  0  0  0  0  0  0
    1.0263    7.5973    1.5590 C   0  0  0  0  0  0  0  0  0  0  0  0
   -0.2289    7.6856    1.0689 C   0  0  0  0  0  0  0  0  0  0  0  0
   -0.7663    6.7437    0.0742 C   0  0  0  0  0  0  0  0  0  0  0  0
   -0.1624    6.3301   -0.9477 O   0  0  0  0  0  0  0  0  0  0  0  0
   -2.1118    6.3724    0.4340 C   0  0  0  0  0  0  0  0  0  0  0  0
   -2.8929    5.3487   -0.1463 C   0  0  0  0  0  0  0  0  0  0  0  0
   -4.0602    5.0862    0.5386 C   0  0  0  0  0  0  0  0  0  0  0  0
   -4.4399    5.7765    1.7337 C   0  0  0  0  0  0  0  0  0  0  0  0
   -3.6836    6.7950    2.2969 C   0  0  0  0  0  0  0  0  0  0  0  0
   -2.4923    7.1059    1.5843 C   0  0  0  0  0  0  0  0  0  0  0  0
   -1.3974    8.0607    1.9238 C   0  0  0  0  0  0  0  0  0  0  0  0
   -1.4804    9.1393    2.7390 C   0  0  0  0  0  0  0  0  0  0  0  0
   -2.6913    9.4912    3.4306 C   0  0  0  0  0  0  0  0  0  0  0  0
   -3.6627    9.7886    3.9866 N   0  0  0  0  0  0  0  0  0  0  0  0
   -0.4010   10.0863    2.8555 C   0  0  0  0  0  0  0  0  0  0  0  0
    0.4600   10.8529    2.9508 N   0  0  0  0  0  0  0  0  0  0  0  0
   -5.6610    4.9106    1.8599 C   0  0  0  0  0  0  0  0  0  0  0  0
   -5.6592    3.7698    2.9218 C   0  0  0  0  0  0  0  0  0  0  0  0
   -4.2567    3.2426    3.1179 C   0  0  0  0  0  0  0  0  0  0  0  0
   -3.9203    2.6146    1.9915 C   0  0  0  0  0  0  0  0  0  0  0  0
   -5.1026    2.7387    1.0609 C   0  0  0  0  0  0  0  0  0  0  0  0
   -6.2200    2.6361    2.0828 C   0  0  0  0  0  0  0  0  0  0  0  0
   -5.2840    4.2227    0.6207 C   0  0  0  0  0  0  0  0  0  0  0  0
    0.5996   -7.5691   -2.8197 H   0  0  0  0  0  0  0  0  0  0  0  0
   -0.0931   -1.9402   -5.2957 H   0  0  0  0  0  0  0  0  0  0  0  0
    1.8744   -5.9072   -7.8198 H   0  0  0  0  0  0  0  0  0  0  0  0
    3.3912   -2.9213   -8.6061 H   0  0  0  0  0  0  0  0  0  0  0  0
    1.7305   -3.6322  -10.7157 H   0  0  0  0  0  0  0  0  0  0  0  0
    2.9684   -1.4243  -11.5310 H   0  0  0  0  0  0  0  0  0  0  0  0
    1.9487    0.6066  -10.2450 H   0  0  0  0  0  0  0  0  0  0  0  0
    0.0618   -0.3001   -8.6115 H   0  0  0  0  0  0  0  0  0  0  0  0
   -0.3732   -2.8699   -9.2383 H   0  0  0  0  0  0  0  0  0  0  0  0
   -0.2572   -1.8618  -10.7400 H   0  0  0  0  0  0  0  0  0  0  0  0
    2.4618   -1.0555   -7.4337 H   0  0  0  0  0  0  0  0  0  0  0  0
    2.6893   -5.4421   -3.3795 H   0  0  0  0  0  0  0  0  0  0  0  0
    4.9175   -2.2900   -2.9669 H   0  0  0  0  0  0  0  0  0  0  0  0
    4.4550   -3.5200   -4.1947 H   0  0  0  0  0  0  0  0  0  0  0  0
    6.0241   -4.0803   -1.5867 H   0  0  0  0  0  0  0  0  0  0  0  0
    6.7257   -3.9618   -3.2461 H   0  0  0  0  0  0  0  0  0  0  0  0
    5.5864   -5.3049   -2.8504 H   0  0  0  0  0  0  0  0  0  0  0  0
   -4.4131   -5.4537    1.4102 H   0  0  0  0  0  0  0  0  0  0  0  0
   -3.8945   -7.1674    1.5874 H   0  0  0  0  0  0  0  0  0  0  0  0
   -4.4087   -6.2208    3.8006 H   0  0  0  0  0  0  0  0  0  0  0  0
   -2.6367   -6.5713    3.6899 H   0  0  0  0  0  0  0  0  0  0  0  0
   -3.2550   -4.8702    3.5472 H   0  0  0  0  0  0  0  0  0  0  0  0
   -1.6490   -3.9877    2.0737 H   0  0  0  0  0  0  0  0  0  0  0  0
    0.6328   -1.3579   -1.9292 H   0  0  0  0  0  0  0  0  0  0  0  0
    0.8956    0.0669   -3.9136 H   0  0  0  0  0  0  0  0  0  0  0  0
   -2.7353    0.9240   -5.8680 H   0  0  0  0  0  0  0  0  0  0  0  0
   -1.1940    0.0483   -6.2592 H   0  0  0  0  0  0  0  0  0  0  0  0
   -1.6907    1.4881   -7.2265 H   0  0  0  0  0  0  0  0  0  0  0  0
   -2.9224    1.8826   -3.1193 H   0  0  0  0  0  0  0  0  0  0  0  0
   -3.1851    0.4798   -1.1237 H   0  0  0  0  0  0  0  0  0  0  0  0
   -2.5427   -0.8778    2.2578 H   0  0  0  0  0  0  0  0  0  0  0  0
   -4.8413   -1.4326    2.9205 H   0  0  0  0  0  0  0  0  0  0  0  0
   -6.6763   -5.0261    1.4038 H   0  0  0  0  0  0  0  0  0  0  0  0
   -7.7797   -4.5630    2.7453 H   0  0  0  0  0  0  0  0  0  0  0  0
   -6.0111   -4.2844    2.9333 H   0  0  0  0  0  0  0  0  0  0  0  0
   -5.5055   -3.3018   -0.8966 H   0  0  0  0  0  0  0  0  0  0  0  0
   -3.1982   -2.7563   -1.5691 H   0  0  0  0  0  0  0  0  0  0  0  0
    5.9872    1.4948    3.3482 H   0  0  0  0  0  0  0  0  0  0  0  0
    7.9317    1.1407    1.8958 H   0  0  0  0  0  0  0  0  0  0  0  0
    7.4114   -2.1522   -0.5489 H   0  0  0  0  0  0  0  0  0  0  0  0
    9.1920   -2.0743   -0.8233 H   0  0  0  0  0  0  0  0  0  0  0  0
    8.5204   -1.6559    0.8003 H   0  0  0  0  0  0  0  0  0  0  0  0
    5.3484   -0.1792   -1.2772 H   0  0  0  0  0  0  0  0  0  0  0  0
    3.3964    0.1481    0.1555 H   0  0  0  0  0  0  0  0  0  0  0  0
    4.2902   -1.3892    3.8067 H   0  0  0  0  0  0  0  0  0  0  0  0
    4.4433   -1.9832    6.1945 H   0  0  0  0  0  0  0  0  0  0  0  0
    1.9096   -1.4620    9.6864 H   0  0  0  0  0  0  0  0  0  0  0  0
    1.4498   -0.2037    8.4790 H   0  0  0  0  0  0  0  0  0  0  0  0
    1.9574   -1.8526    7.9245 H   0  0  0  0  0  0  0  0  0  0  0  0
    3.1070    1.9659    7.2637 H   0  0  0  0  0  0  0  0  0  0  0  0
    2.9360    2.5543    4.8747 H   0  0  0  0  0  0  0  0  0  0  0  0
   -0.1457    5.8954    6.4174 H   0  0  0  0  0  0  0  0  0  0  0  0
    0.2777    4.1553    6.6491 H   0  0  0  0  0  0  0  0  0  0  0  0
   -1.7666    3.4636    5.4381 H   0  0  0  0  0  0  0  0  0  0  0  0
   -2.1817    5.1929    5.0827 H   0  0  0  0  0  0  0  0  0  0  0  0
   -2.2060    4.5801    6.7838 H   0  0  0  0  0  0  0  0  0  0  0  0
    1.3234    8.2746    2.3420 H   0  0  0  0  0  0  0  0  0  0  0  0
   -2.5859    4.7842   -1.0179 H   0  0  0  0  0  0  0  0  0  0  0  0
   -3.9805    7.2572    3.2237 H   0  0  0  0  0  0  0  0  0  0  0  0
   -6.6203    5.4772    1.7952 H   0  0  0  0  0  0  0  0  0  0  0  0
   -6.2155    3.9951    3.8551 H   0  0  0  0  0  0  0  0  0  0  0  0
   -3.6777    3.2628    4.0308 H   0  0  0  0  0  0  0  0  0  0  0  0
   -3.0204    2.0336    1.8424 H   0  0  0  0  0  0  0  0  0  0  0  0
   -5.1374    1.9882    0.2410 H   0  0  0  0  0  0  0  0  0  0  0  0
   -6.2419    1.6563    2.6163 H   0  0  0  0  0  0  0  0  0  0  0  0
   -7.2272    2.8488    1.6567 H   0  0  0  0  0  0  0  0  0  0  0  0
   -6.0157    4.3856   -0.2062 H   0  0  0  0  0  0  0  0  0  0  0  0
  1  2  2  3
  2  3  1  0
  3  4  2  0
  3  5  1  0
  5  6  2  0
  6  7  1  0
  7  8  2  0
  8  9  1  0
  9 10  2  0
 10 11  1  0
 11 12  2  3
 12 13  1  0
 13 14  3  0
 12 15  1  0
 15 16  3  0
  8 17  1  0
 17 18  1  0
 18 19  1  0
 19 20  2  0
 20 21  1  0
 21 22  1  0
 21 23  1  0
  1 24  1  0
 24 25  2  0
 25 26  1  0
 26 27  2  0
 27 28  1  0
 28 29  1  0
 27 30  1  0
 30 31  1  0
 31 32  2  0
 32 33  1  0
 33 34  2  0
 34 35  1  0
 35 36  1  0
 36 37  1  0
 37 38  1  0
 36 39  2  0
 32 40  1  0
 40 41  2  0
 41 42  1  0
 42 43  1  0
 43 44  2  0
 44 45  1  0
 45 46  2  0
 46 47  1  0
 47 48  1  0
 46 49  1  0
 49 50  2  0
 42 51  1  0
 51 52  2  0
 52 53  1  0
 53 54  2  0
 54 55  1  0
 55 56  1  0
 54 57  1  0
 57 58  2  0
 41 59  1  0
 59 60  1  0
 60 61  1  0
 61 62  2  0
 62 63  1  0
 63 64  1  0
 64 65  2  0
 65 66  1  0
 66 67  2  0
 67 68  1  0
 68 69  1  0
 67 70  1  0
 70 71  2  0
 63 72  1  0
 72 73  2  0
 73 74  1  0
 74 75  2  0
 75 76  1  0
 76 77  1  0
 75 78  1  0
 78 79  2  0
 62 80  1  0
 80 81  1  0
 61 82  1  0
 82 83  1  0
 83 84  2  0
 84 85  1  0
 85 86  1  0
 86 87  1  0
 85 88  1  0
 88 89  2  0
 89 90  1  0
 90 91  2  0
 91 92  1  0
 92 93  1  0
 91 94  1  0
 90 95  1  0
 95 96  2  3
 96 97  1  0
 97 98  2  0
 97 99  1  0
 99100  2  0
100101  1  0
101102  2  0
102103  1  0
103104  2  0
104105  1  0
105106  2  3
106107  1  0
107108  3  0
106109  1  0
109110  3  0
102111  1  0
111112  1  0
112113  1  0
113114  2  0
114115  1  0
115116  1  0
115117  1  0
 11  2  1  0
 23 17  1  0
 34 24  1  0
 81 40  1  0
 92 82  2  0
105 96  1  0
117111  1  0
 10  5  1  0
 22 18  1  0
 31 25  1  0
 39 33  1  0
 50 43  1  0
 58 51  1  0
 80 59  2  0
 89 83  1  0
104 99  1  0
116112  1  0
 23  7  1  0
 71 64  1  0
 79 72  1  0
117101  1  0
  1118  1  0
  6119  1  0
  9120  1  0
 17121  1  0
 18122  1  0
 19123  1  0
 20124  1  0
 21125  1  0
 22126  1  0
 22127  1  0
 23128  1  0
 26129  1  0
 28130  1  0
 28131  1  0
 29132  1  0
 29133  1  0
 29134  1  0
 37135  1  0
 37136  1  0
 38137  1  0
 38138  1  0
 38139  1  0
 39140  1  0
 44141  1  0
 45142  1  0
 48143  1  0
 48144  1  0
 48145  1  0
 49146  1  0
 50147  1  0
 52148  1  0
 53149  1  0
 56150  1  0
 56151  1  0
 56152  1  0
 57153  1  0
 58154  1  0
 65155  1  0
 66156  1  0
 69157  1  0
 69158  1  0
 69159  1  0
 70160  1  0
 71161  1  0
 73162  1  0
 74163  1  0
 77164  1  0
 77165  1  0
 77166  1  0
 78167  1  0
 79168  1  0
 86169  1  0
 86170  1  0
 87171  1  0
 87172  1  0
 87173  1  0
 95174  1  0
100175  1  0
103176  1  0
111177  1  0
112178  1  0
113179  1  0
114180  1  0
115181  1  0
116182  1  0
116183  1  0
117184  1  0
M  END

