
     RDKit          3D

229252  0  0  0  0  0  0  0  0999 V2000
   -2.5497   -7.1571   -2.6229 C   0  0  0  0  0  0  0  0  0  0  0  0
   -1.2894   -7.0829   -2.1370 C   0  0  0  0  0  0  0  0  0  0  0  0
   -0.5408   -5.8341   -1.9172 C   0  0  0  0  0  0  0  0  0  0  0  0
   -0.7221   -4.7383   -2.5061 O   0  0  0  0  0  0  0  0  0  0  0  0
    0.4631   -6.0538   -0.9067 C   0  0  0  0  0  0  0  0  0  0  0  0
    1.2398   -5.0664   -0.2630 C   0  0  0  0  0  0  0  0  0  0  0  0
    1.9833   -5.5473    0.7957 C   0  0  0  0  0  0  0  0  0  0  0  0
    1.9863   -6.9241    1.1926 C   0  0  0  0  0  0  0  0  0  0  0  0
    1.2326   -7.8976    0.5571 C   0  0  0  0  0  0  0  0  0  0  0  0
    0.4566   -7.4241   -0.5413 C   0  0  0  0  0  0  0  0  0  0  0  0
   -0.5452   -8.1434   -1.3890 C   0  0  0  0  0  0  0  0  0  0  0  0
   -0.6103   -9.4803   -1.6067 C   0  0  0  0  0  0  0  0  0  0  0  0
    0.2763  -10.4080   -0.9532 C   0  0  0  0  0  0  0  0  0  0  0  0
    0.9886  -11.1604   -0.4377 N   0  0  0  0  0  0  0  0  0  0  0  0
   -1.4621  -10.0482   -2.6189 C   0  0  0  0  0  0  0  0  0  0  0  0
   -2.1434  -10.5098   -3.4334 N   0  0  0  0  0  0  0  0  0  0  0  0
    2.9352   -6.6167    2.3134 C   0  0  0  0  0  0  0  0  0  0  0  0
    4.4231   -7.0351    2.1097 C   0  0  0  0  0  0  0  0  0  0  0  0
    5.2103   -6.2853    3.1578 C   0  0  0  0  0  0  0  0  0  0  0  0
    5.1928   -4.9977    2.7971 C   0  0  0  0  0  0  0  0  0  0  0  0
    4.3966   -4.9223    1.5180 C   0  0  0  0  0  0  0  0  0  0  0  0
    4.8407   -6.2307    0.8904 C   0  0  0  0  0  0  0  0  0  0  0  0
    2.9210   -5.2070    1.9129 C   0  0  0  0  0  0  0  0  0  0  0  0
   -3.2970   -5.9311   -2.9649 C   0  0  0  0  0  0  0  0  0  0  0  0
   -3.0405   -5.2474   -4.1664 C   0  0  0  0  0  0  0  0  0  0  0  0
   -2.4381   -5.8715   -5.2167 N   0  0  0  0  0  0  0  0  0  0  0  0
   -2.0545   -5.1840   -6.3256 C   0  0  0  0  0  0  0  0  0  0  0  0
   -2.2423   -3.7991   -6.3786 C   0  0  0  0  0  0  0  0  0  0  0  0
   -1.7928   -3.0749   -7.4883 O   0  0  0  0  0  0  0  0  0  0  0  0
   -1.8888   -1.6522   -7.5843 C   0  0  0  0  0  0  0  0  0  0  0  0
   -0.8939   -0.9657   -6.6496 C   0  0  0  0  0  0  0  0  0  0  0  0
   -2.8418   -3.1712   -5.3327 N   0  0  0  0  0  0  0  0  0  0  0  0
   -3.2635   -3.8532   -4.2355 C   0  0  0  0  0  0  0  0  0  0  0  0
   -3.7204   -3.1590   -3.1049 C   0  0  0  0  0  0  0  0  0  0  0  0
   -4.1830   -3.8827   -2.0001 C   0  0  0  0  0  0  0  0  0  0  0  0
   -3.9710   -5.2632   -1.9302 C   0  0  0  0  0  0  0  0  0  0  0  0
   -3.1403   -1.8383   -2.8503 C   0  0  0  0  0  0  0  0  0  0  0  0
   -3.7415   -0.5669   -2.8547 C   0  0  0  0  0  0  0  0  0  0  0  0
   -5.1493   -0.3487   -3.0313 N   0  0  0  0  0  0  0  0  0  0  0  0
   -5.7895   -0.9906   -4.1476 C   0  0  0  0  0  0  0  0  0  0  0  0
   -5.3043   -0.7827   -5.4470 C   0  0  0  0  0  0  0  0  0  0  0  0
   -5.8479   -1.4890   -6.5233 C   0  0  0  0  0  0  0  0  0  0  0  0
   -6.8653   -2.4226   -6.3074 C   0  0  0  0  0  0  0  0  0  0  0  0
   -7.5072   -3.3777   -7.6804 S   0  0  0  0  0  0  0  0  0  0  0  0
   -6.2491   -4.6817   -7.5116 C   0  0  0  0  0  0  0  0  0  0  0  0
   -7.3632   -2.6270   -5.0150 C   0  0  0  0  0  0  0  0  0  0  0  0
   -6.8320   -1.9076   -3.9397 C   0  0  0  0  0  0  0  0  0  0  0  0
   -5.9330    0.2722   -1.9855 C   0  0  0  0  0  0  0  0  0  0  0  0
   -5.5418    0.1799   -0.6327 C   0  0  0  0  0  0  0  0  0  0  0  0
   -6.3181    0.7645    0.3703 C   0  0  0  0  0  0  0  0  0  0  0  0
   -7.5045    1.4290    0.0415 C   0  0  0  0  0  0  0  0  0  0  0  0
   -8.5324    2.1404    1.3253 S   0  0  0  0  0  0  0  0  0  0  0  0
   -9.4832    0.6112    1.5805 C   0  0  0  0  0  0  0  0  0  0  0  0
   -7.9000    1.5300   -1.2951 C   0  0  0  0  0  0  0  0  0  0  0  0
   -7.1188    0.9587   -2.3033 C   0  0  0  0  0  0  0  0  0  0  0  0
   -2.8151    0.4203   -2.4833 C   0  0  0  0  0  0  0  0  0  0  0  0
   -2.8702    2.0634   -2.1089 S   0  0  0  0  0  0  0  0  0  0  0  0
   -1.2582    2.1177   -1.5293 C   0  0  0  0  0  0  0  0  0  0  0  0
   -0.7030    0.8262   -1.5792 C   0  0  0  0  0  0  0  0  0  0  0  0
    0.3307    0.3444   -0.6944 N   0  0  0  0  0  0  0  0  0  0  0  0
    1.6351    0.0458   -1.2469 C   0  0  0  0  0  0  0  0  0  0  0  0
    1.7627   -0.5634   -2.5117 C   0  0  0  0  0  0  0  0  0  0  0  0
    3.0056   -1.0029   -2.9684 C   0  0  0  0  0  0  0  0  0  0  0  0
    4.1437   -0.8281   -2.1831 C   0  0  0  0  0  0  0  0  0  0  0  0
    5.7364   -1.4033   -2.7714 S   0  0  0  0  0  0  0  0  0  0  0  0
    5.4514   -3.1233   -2.2455 C   0  0  0  0  0  0  0  0  0  0  0  0
    4.0384   -0.1910   -0.9400 C   0  0  0  0  0  0  0  0  0  0  0  0
    2.7936    0.2500   -0.4807 C   0  0  0  0  0  0  0  0  0  0  0  0
   -0.1003   -0.2805    0.5514 C   0  0  0  0  0  0  0  0  0  0  0  0
   -1.2892    0.1389    1.1922 C   0  0  0  0  0  0  0  0  0  0  0  0
   -1.7821   -0.5332    2.3086 C   0  0  0  0  0  0  0  0  0  0  0  0
   -1.1158   -1.6505    2.8056 C   0  0  0  0  0  0  0  0  0  0  0  0
   -1.7881   -2.5400    4.2115 S   0  0  0  0  0  0  0  0  0  0  0  0
   -2.9322   -3.5225    3.1900 C   0  0  0  0  0  0  0  0  0  0  0  0
    0.0668   -2.0802    2.1984 C   0  0  0  0  0  0  0  0  0  0  0  0
    0.5738   -1.3996    1.0865 C   0  0  0  0  0  0  0  0  0  0  0  0
   -1.5886   -0.0605   -2.1614 C   0  0  0  0  0  0  0  0  0  0  0  0
   -1.5471   -1.7158   -2.3033 S   0  0  0  0  0  0  0  0  0  0  0  0
   -0.6475    3.2353   -0.8031 C   0  0  0  0  0  0  0  0  0  0  0  0
    0.6620    3.6687   -1.0571 C   0  0  0  0  0  0  0  0  0  0  0  0
    1.1206    3.9867   -2.3825 N   0  0  0  0  0  0  0  0  0  0  0  0
    1.8789    3.0215   -3.1212 C   0  0  0  0  0  0  0  0  0  0  0  0
    1.2724    2.3167   -4.1713 C   0  0  0  0  0  0  0  0  0  0  0  0
    2.0500    1.5597   -5.0536 C   0  0  0  0  0  0  0  0  0  0  0  0
    3.4405    1.5122   -4.8956 C   0  0  0  0  0  0  0  0  0  0  0  0
    4.4448    0.5595   -6.0327 S   0  0  0  0  0  0  0  0  0  0  0  0
    4.6255    1.9297   -7.2168 C   0  0  0  0  0  0  0  0  0  0  0  0
    4.0460    2.1987   -3.8354 C   0  0  0  0  0  0  0  0  0  0  0  0
    3.2695    2.9509   -2.9513 C   0  0  0  0  0  0  0  0  0  0  0  0
    0.7733    5.2571   -2.9960 C   0  0  0  0  0  0  0  0  0  0  0  0
    1.4335    5.7029   -4.1631 C   0  0  0  0  0  0  0  0  0  0  0  0
    1.0827    6.9139   -4.7651 C   0  0  0  0  0  0  0  0  0  0  0  0
    0.0686    7.7043   -4.2175 C   0  0  0  0  0  0  0  0  0  0  0  0
   -0.4128    9.2356   -5.0187 S   0  0  0  0  0  0  0  0  0  0  0  0
    0.7309   10.2590   -4.0398 C   0  0  0  0  0  0  0  0  0  0  0  0
   -0.5810    7.2911   -3.0555 C   0  0  0  0  0  0  0  0  0  0  0  0
   -0.2324    6.0843   -2.4454 C   0  0  0  0  0  0  0  0  0  0  0  0
    1.2409    4.2254    0.0807 C   0  0  0  0  0  0  0  0  0  0  0  0
    2.8455    4.3865    0.5223 S   0  0  0  0  0  0  0  0  0  0  0  0
    2.5101    4.5695    2.1780 C   0  0  0  0  0  0  0  0  0  0  0  0
    1.1151    4.5484    2.3905 C   0  0  0  0  0  0  0  0  0  0  0  0
    0.4981    4.7144    3.6943 N   0  0  0  0  0  0  0  0  0  0  0  0
   -0.8683    4.3629    3.9455 C   0  0  0  0  0  0  0  0  0  0  0  0
   -1.2666    3.0186    3.9792 C   0  0  0  0  0  0  0  0  0  0  0  0
   -2.5926    2.6887    4.2792 C   0  0  0  0  0  0  0  0  0  0  0  0
   -3.5177    3.6976    4.5714 C   0  0  0  0  0  0  0  0  0  0  0  0
   -5.2125    3.2770    4.9682 S   0  0  0  0  0  0  0  0  0  0  0  0
   -5.7980    3.5609    3.2702 C   0  0  0  0  0  0  0  0  0  0  0  0
   -3.1165    5.0369    4.5651 C   0  0  0  0  0  0  0  0  0  0  0  0
   -1.7983    5.3687    4.2505 C   0  0  0  0  0  0  0  0  0  0  0  0
    1.1976    5.4266    4.7307 C   0  0  0  0  0  0  0  0  0  0  0  0
    1.7482    6.6947    4.4773 C   0  0  0  0  0  0  0  0  0  0  0  0
    2.5122    7.3372    5.4546 C   0  0  0  0  0  0  0  0  0  0  0  0
    2.7299    6.7192    6.6911 C   0  0  0  0  0  0  0  0  0  0  0  0
    3.7632    7.5181    7.9202 S   0  0  0  0  0  0  0  0  0  0  0  0
    5.2822    6.7000    7.3450 C   0  0  0  0  0  0  0  0  0  0  0  0
    2.1511    5.4732    6.9624 C   0  0  0  0  0  0  0  0  0  0  0  0
    1.3841    4.8312    5.9880 C   0  0  0  0  0  0  0  0  0  0  0  0
    0.4445    4.2880    1.1860 C   0  0  0  0  0  0  0  0  0  0  0  0
   -1.0449    3.6071    0.8067 S   0  0  0  0  0  0  0  0  0  0  0  0
    3.5056    4.2469    3.2164 C   0  0  0  0  0  0  0  0  0  0  0  0
    3.4870    3.0660    3.8725 C   0  0  0  0  0  0  0  0  0  0  0  0
    2.5295    1.9787    3.6221 C   0  0  0  0  0  0  0  0  0  0  0  0
    1.8566    1.7962    2.5746 O   0  0  0  0  0  0  0  0  0  0  0  0
    2.5026    1.1049    4.7645 C   0  0  0  0  0  0  0  0  0  0  0  0
    1.6388    0.0063    4.9613 C   0  0  0  0  0  0  0  0  0  0  0  0
    1.8126   -0.6324    6.1693 C   0  0  0  0  0  0  0  0  0  0  0  0
    2.7721   -0.2134    7.1451 C   0  0  0  0  0  0  0  0  0  0  0  0
    3.6170    0.8725    6.9607 C   0  0  0  0  0  0  0  0  0  0  0  0
    3.4688    1.5356    5.7072 C   0  0  0  0  0  0  0  0  0  0  0  0
    4.1986    2.7156    5.1444 C   0  0  0  0  0  0  0  0  0  0  0  0
    5.3734    3.2323    5.5858 C   0  0  0  0  0  0  0  0  0  0  0  0
    6.1308    4.1857    4.8157 C   0  0  0  0  0  0  0  0  0  0  0  0
    6.7474    4.9497    4.2014 N   0  0  0  0  0  0  0  0  0  0  0  0
    6.0097    2.7989    6.7993 C   0  0  0  0  0  0  0  0  0  0  0  0
    6.5330    2.4637    7.7778 N   0  0  0  0  0  0  0  0  0  0  0  0
    2.3281   -1.3087    8.0705 C   0  0  0  0  0  0  0  0  0  0  0  0
    1.4510   -0.9230    9.2993 C   0  0  0  0  0  0  0  0  0  0  0  0
    0.6139    0.2947    8.9771 C   0  0  0  0  0  0  0  0  0  0  0  0
   -0.2800   -0.0865    8.0623 C   0  0  0  0  0  0  0  0  0  0  0  0
   -0.0235   -1.5507    7.7945 C   0  0  0  0  0  0  0  0  0  0  0  0
    0.3716   -1.9857    9.1941 C   0  0  0  0  0  0  0  0  0  0  0  0
    1.3434   -1.7343    7.0689 C   0  0  0  0  0  0  0  0  0  0  0  0
   -3.1127   -8.0764   -2.5537 H   0  0  0  0  0  0  0  0  0  0  0  0
    1.2179   -4.0227   -0.5321 H   0  0  0  0  0  0  0  0  0  0  0  0
    1.2076   -8.9097    0.9284 H   0  0  0  0  0  0  0  0  0  0  0  0
    2.5119   -6.8133    3.3224 H   0  0  0  0  0  0  0  0  0  0  0  0
    4.6170   -8.1273    2.0643 H   0  0  0  0  0  0  0  0  0  0  0  0
    5.7593   -6.7008    3.9964 H   0  0  0  0  0  0  0  0  0  0  0  0
    5.7294   -4.1911    3.2861 H   0  0  0  0  0  0  0  0  0  0  0  0
    4.5596   -4.0036    0.9199 H   0  0  0  0  0  0  0  0  0  0  0  0
    4.2976   -6.4929   -0.0408 H   0  0  0  0  0  0  0  0  0  0  0  0
    5.9392   -6.2721    0.6864 H   0  0  0  0  0  0  0  0  0  0  0  0
    2.4829   -4.5190    2.6670 H   0  0  0  0  0  0  0  0  0  0  0  0
   -1.5793   -5.7063   -7.1464 H   0  0  0  0  0  0  0  0  0  0  0  0
   -2.9241   -1.3205   -7.3478 H   0  0  0  0  0  0  0  0  0  0  0  0
   -1.6634   -1.3504   -8.6304 H   0  0  0  0  0  0  0  0  0  0  0  0
   -1.1276   -1.1979   -5.5928 H   0  0  0  0  0  0  0  0  0  0  0  0
    0.1397   -1.3062   -6.8772 H   0  0  0  0  0  0  0  0  0  0  0  0
   -0.9513    0.1352   -6.7855 H   0  0  0  0  0  0  0  0  0  0  0  0
   -4.5152   -3.3585   -1.1099 H   0  0  0  0  0  0  0  0  0  0  0  0
   -4.1723   -5.7745   -0.9955 H   0  0  0  0  0  0  0  0  0  0  0  0
   -4.4939   -0.0866   -5.6205 H   0  0  0  0  0  0  0  0  0  0  0  0
   -5.4611   -1.3254   -7.5224 H   0  0  0  0  0  0  0  0  0  0  0  0
   -6.3470   -5.1783   -6.5250 H   0  0  0  0  0  0  0  0  0  0  0  0
   -6.3985   -5.4369   -8.3124 H   0  0  0  0  0  0  0  0  0  0  0  0
   -5.2304   -4.2503   -7.6135 H   0  0  0  0  0  0  0  0  0  0  0  0
   -8.1472   -3.3545   -4.8417 H   0  0  0  0  0  0  0  0  0  0  0  0
   -7.2009   -2.1014   -2.9399 H   0  0  0  0  0  0  0  0  0  0  0  0
   -4.6435   -0.3522   -0.3511 H   0  0  0  0  0  0  0  0  0  0  0  0
   -6.0039    0.6851    1.4031 H   0  0  0  0  0  0  0  0  0  0  0  0
   -9.9787    0.3099    0.6342 H   0  0  0  0  0  0  0  0  0  0  0  0
   -8.8101   -0.2006    1.9289 H   0  0  0  0  0  0  0  0  0  0  0  0
  -10.2588    0.7931    2.3524 H   0  0  0  0  0  0  0  0  0  0  0  0
   -8.8125    2.0484   -1.5547 H   0  0  0  0  0  0  0  0  0  0  0  0
   -7.4400    1.0538   -3.3324 H   0  0  0  0  0  0  0  0  0  0  0  0
    0.9067   -0.7163   -3.1472 H   0  0  0  0  0  0  0  0  0  0  0  0
    3.0802   -1.4820   -3.9343 H   0  0  0  0  0  0  0  0  0  0  0  0
    4.6456   -3.5778   -2.8601 H   0  0  0  0  0  0  0  0  0  0  0  0
    6.3839   -3.7089   -2.3882 H   0  0  0  0  0  0  0  0  0  0  0  0
    5.1683   -3.1532   -1.1744 H   0  0  0  0  0  0  0  0  0  0  0  0
    4.9199   -0.0496   -0.3250 H   0  0  0  0  0  0  0  0  0  0  0  0
    2.7292    0.7157    0.4897 H   0  0  0  0  0  0  0  0  0  0  0  0
   -1.8750    0.9560    0.8094 H   0  0  0  0  0  0  0  0  0  0  0  0
   -2.7092   -0.2083    2.7641 H   0  0  0  0  0  0  0  0  0  0  0  0
   -3.5850   -2.8545    2.5913 H   0  0  0  0  0  0  0  0  0  0  0  0
   -3.5710   -4.1420    3.8521 H   0  0  0  0  0  0  0  0  0  0  0  0
   -2.3600   -4.1881    2.5112 H   0  0  0  0  0  0  0  0  0  0  0  0
    0.5904   -2.9457    2.5852 H   0  0  0  0  0  0  0  0  0  0  0  0
    1.4692   -1.7900    0.6247 H   0  0  0  0  0  0  0  0  0  0  0  0
    0.2030    2.3818   -4.3230 H   0  0  0  0  0  0  0  0  0  0  0  0
    1.5739    1.0241   -5.8630 H   0  0  0  0  0  0  0  0  0  0  0  0
    5.3399    1.6306   -8.0102 H   0  0  0  0  0  0  0  0  0  0  0  0
    3.6413    2.1460   -7.6824 H   0  0  0  0  0  0  0  0  0  0  0  0
    5.0073    2.8407   -6.7106 H   0  0  0  0  0  0  0  0  0  0  0  0
    5.1208    2.1645   -3.7091 H   0  0  0  0  0  0  0  0  0  0  0  0
    3.7547    3.5187   -2.1705 H   0  0  0  0  0  0  0  0  0  0  0  0
    2.2253    5.1213   -4.6131 H   0  0  0  0  0  0  0  0  0  0  0  0
    1.5919    7.2309   -5.6676 H   0  0  0  0  0  0  0  0  0  0  0  0
    1.7786    9.9478   -4.2291 H   0  0  0  0  0  0  0  0  0  0  0  0
    0.6080   11.3209   -4.3369 H   0  0  0  0  0  0  0  0  0  0  0  0
    0.4988   10.1604   -2.9582 H   0  0  0  0  0  0  0  0  0  0  0  0
   -1.3623    7.9006   -2.6216 H   0  0  0  0  0  0  0  0  0  0  0  0
   -0.7667    5.8028   -1.5475 H   0  0  0  0  0  0  0  0  0  0  0  0
   -0.5536    2.2313    3.7740 H   0  0  0  0  0  0  0  0  0  0  0  0
   -2.8980    1.6503    4.3012 H   0  0  0  0  0  0  0  0  0  0  0  0
   -5.2941    2.8634    2.5700 H   0  0  0  0  0  0  0  0  0  0  0  0
   -5.6009    4.6085    2.9619 H   0  0  0  0  0  0  0  0  0  0  0  0
   -6.8895    3.3865    3.2449 H   0  0  0  0  0  0  0  0  0  0  0  0
   -3.8264    5.8187    4.8009 H   0  0  0  0  0  0  0  0  0  0  0  0
   -1.4979    6.4078    4.2492 H   0  0  0  0  0  0  0  0  0  0  0  0
    1.6003    7.1713    3.5183 H   0  0  0  0  0  0  0  0  0  0  0  0
    2.9497    8.3023    5.2396 H   0  0  0  0  0  0  0  0  0  0  0  0
    5.1910    5.6024    7.4779 H   0  0  0  0  0  0  0  0  0  0  0  0
    5.4677    6.9347    6.2752 H   0  0  0  0  0  0  0  0  0  0  0  0
    6.1429    7.0617    7.9465 H   0  0  0  0  0  0  0  0  0  0  0  0
    2.3173    4.9901    7.9164 H   0  0  0  0  0  0  0  0  0  0  0  0
    0.9702    3.8527    6.1940 H   0  0  0  0  0  0  0  0  0  0  0  0
    4.1491    5.0516    3.5261 H   0  0  0  0  0  0  0  0  0  0  0  0
    0.8866   -0.2866    4.2453 H   0  0  0  0  0  0  0  0  0  0  0  0
    4.2894    1.1779    7.7417 H   0  0  0  0  0  0  0  0  0  0  0  0
    3.1113   -2.0696    8.2751 H   0  0  0  0  0  0  0  0  0  0  0  0
    1.9861   -0.8821   10.2695 H   0  0  0  0  0  0  0  0  0  0  0  0
    0.6700    1.2722    9.4442 H   0  0  0  0  0  0  0  0  0  0  0  0
   -1.0757    0.5296    7.6567 H   0  0  0  0  0  0  0  0  0  0  0  0
   -0.8778   -2.1005    7.3460 H   0  0  0  0  0  0  0  0  0  0  0  0
   -0.4483   -1.8607    9.9433 H   0  0  0  0  0  0  0  0  0  0  0  0
    0.7666   -3.0292    9.2438 H   0  0  0  0  0  0  0  0  0  0  0  0
    1.5264   -2.7538    6.6652 H   0  0  0  0  0  0  0  0  0  0  0  0
  1  2  2  3
  2  3  1  0
  3  4  2  0
  3  5  1  0
  5  6  2  0
  6  7  1  0
  7  8  2  0
  8  9  1  0
  9 10  2  0
 10 11  1  0
 11 12  2  3
 12 13  1  0
 13 14  3  0
 12 15  1  0
 15 16  3  0
  8 17  1  0
 17 18  1  0
 18 19  1  0
 19 20  2  0
 20 21  1  0
 21 22  1  0
 21 23  1  0
  1 24  1  0
 24 25  1  0
 25 26  2  0
 26 27  1  0
 27 28  2  0
 28 29  1  0
 29 30  1  0
 30 31  1  0
 28 32  1  0
 32 33  2  0
 33 34  1  0
 34 35  2  0
 35 36  1  0
 34 37  1  0
 37 38  2  0
 38 39  1  0
 39 40  1  0
 40 41  2  0
 41 42  1  0
 42 43  2  0
 43 44  1  0
 44 45  1  0
 43 46  1  0
 46 47  2  0
 39 48  1  0
 48 49  2  0
 49 50  1  0
 50 51  2  0
 51 52  1  0
 52 53  1  0
 51 54  1  0
 54 55  2  0
 38 56  1  0
 56 57  1  0
 57 58  1  0
 58 59  2  0
 59 60  1  0
 60 61  1  0
 61 62  2  0
 62 63  1  0
 63 64  2  0
 64 65  1  0
 65 66  1  0
 64 67  1  0
 67 68  2  0
 60 69  1  0
 69 70  2  0
 70 71  1  0
 71 72  2  0
 72 73  1  0
 73 74  1  0
 72 75  1  0
 75 76  2  0
 59 77  1  0
 77 78  1  0
 58 79  1  0
 79 80  2  0
 80 81  1  0
 81 82  1  0
 82 83  2  0
 83 84  1  0
 84 85  2  0
 85 86  1  0
 86 87  1  0
 85 88  1  0
 88 89  2  0
 81 90  1  0
 90 91  2  0
 91 92  1  0
 92 93  2  0
 93 94  1  0
 94 95  1  0
 93 96  1  0
 96 97  2  0
 80 98  1  0
 98 99  1  0
 99100  1  0
100101  2  0
101102  1  0
102103  1  0
103104  2  0
104105  1  0
105106  2  0
106107  1  0
107108  1  0
106109  1  0
109110  2  0
102111  1  0
111112  2  0
112113  1  0
113114  2  0
114115  1  0
115116  1  0
114117  1  0
117118  2  0
101119  1  0
119120  1  0
100121  1  0
121122  2  3
122123  1  0
123124  2  0
123125  1  0
125126  2  0
126127  1  0
127128  2  0
128129  1  0
129130  2  0
130131  1  0
131132  2  3
132133  1  0
133134  3  0
132135  1  0
135136  3  0
128137  1  0
137138  1  0
138139  1  0
139140  2  0
140141  1  0
141142  1  0
141143  1  0
 11  2  1  0
 23 17  1  0
 36 24  2  0
 78 37  1  0
120 79  1  0
131122  1  0
143137  1  0
 10  5  1  0
 22 18  1  0
 33 25  1  0
 47 40  1  0
 55 48  1  0
 77 56  2  0
 89 82  1  0
 97 90  1  0
119 98  2  0
130125  1  0
142138  1  0
 23  7  1  0
 68 61  1  0
 76 69  1  0
110103  1  0
118111  1  0
143127  1  0
  1144  1  0
  6145  1  0
  9146  1  0
 17147  1  0
 18148  1  0
 19149  1  0
 20150  1  0
 21151  1  0
 22152  1  0
 22153  1  0
 23154  1  0
 27155  1  0
 30156  1  0
 30157  1  0
 31158  1  0
 31159  1  0
 31160  1  0
 35161  1  0
 36162  1  0
 41163  1  0
 42164  1  0
 45165  1  0
 45166  1  0
 45167  1  0
 46168  1  0
 47169  1  0
 49170  1  0
 50171  1  0
 53172  1  0
 53173  1  0
 53174  1  0
 54175  1  0
 55176  1  0
 62177  1  0
 63178  1  0
 66179  1  0
 66180  1  0
 66181  1  0
 67182  1  0
 68183  1  0
 70184  1  0
 71185  1  0
 74186  1  0
 74187  1  0
 74188  1  0
 75189  1  0
 76190  1  0
 83191  1  0
 84192  1  0
 87193  1  0
 87194  1  0
 87195  1  0
 88196  1  0
 89197  1  0
 91198  1  0
 92199  1  0
 95200  1  0
 95201  1  0
 95202  1  0
 96203  1  0
 97204  1  0
104205  1  0
105206  1  0
108207  1  0
108208  1  0
108209  1  0
109210  1  0
110211  1  0
112212  1  0
113213  1  0
116214  1  0
116215  1  0
116216  1  0
117217  1  0
118218  1  0
121219  1  0
126220  1  0
129221  1  0
137222  1  0
138223  1  0
139224  1  0
140225  1  0
141226  1  0
142227  1  0
142228  1  0
143229  1  0
M  END

