
     RDKit          3D

187203  0  0  0  0  0  0  0  0999 V2000
   -4.5810    1.4566    4.7314 C   0  0  0  0  0  0  0  0  0  0  0  0
   -4.5912    0.2341    5.2890 C   0  0  0  0  0  0  0  0  0  0  0  0
   -4.1524   -0.9988    4.6215 C   0  0  0  0  0  0  0  0  0  0  0  0
   -4.0576   -1.1806    3.3783 O   0  0  0  0  0  0  0  0  0  0  0  0
   -3.8319   -1.9864    5.6257 C   0  0  0  0  0  0  0  0  0  0  0  0
   -3.2598   -3.2639    5.4205 C   0  0  0  0  0  0  0  0  0  0  0  0
   -2.9057   -3.9084    6.5896 C   0  0  0  0  0  0  0  0  0  0  0  0
   -3.0713   -3.3293    7.8876 C   0  0  0  0  0  0  0  0  0  0  0  0
   -3.6478   -2.0883    8.0926 C   0  0  0  0  0  0  0  0  0  0  0  0
   -4.0737   -1.4281    6.9076 C   0  0  0  0  0  0  0  0  0  0  0  0
   -4.6998   -0.0863    6.7439 C   0  0  0  0  0  0  0  0  0  0  0  0
   -5.4222    0.5878    7.6718 C   0  0  0  0  0  0  0  0  0  0  0  0
   -6.2054    1.7465    7.3352 C   0  0  0  0  0  0  0  0  0  0  0  0
   -6.8402    2.6785    7.0743 N   0  0  0  0  0  0  0  0  0  0  0  0
   -5.5611    0.1217    9.0276 C   0  0  0  0  0  0  0  0  0  0  0  0
   -5.6748   -0.2441   10.1186 N   0  0  0  0  0  0  0  0  0  0  0  0
   -2.3961   -4.5104    8.5215 C   0  0  0  0  0  0  0  0  0  0  0  0
   -0.9182   -4.3421    8.9966 C   0  0  0  0  0  0  0  0  0  0  0  0
   -0.2041   -3.3404    8.1166 C   0  0  0  0  0  0  0  0  0  0  0  0
   -0.0815   -3.9071    6.9128 C   0  0  0  0  0  0  0  0  0  0  0  0
   -0.7169   -5.2734    7.0159 C   0  0  0  0  0  0  0  0  0  0  0  0
   -0.3146   -5.6214    8.4388 C   0  0  0  0  0  0  0  0  0  0  0  0
   -2.2555   -5.1212    7.1926 C   0  0  0  0  0  0  0  0  0  0  0  0
   -3.9384    1.7111    3.4413 C   0  0  0  0  0  0  0  0  0  0  0  0
   -4.5575    2.1026    2.2618 C   0  0  0  0  0  0  0  0  0  0  0  0
   -3.6468    2.3270    1.2138 C   0  0  0  0  0  0  0  0  0  0  0  0
   -4.0861    2.7505   -0.1283 C   0  0  0  0  0  0  0  0  0  0  0  0
   -4.8790    1.8911   -0.9199 C   0  0  0  0  0  0  0  0  0  0  0  0
   -5.2664    0.6470   -0.3938 O   0  0  0  0  0  0  0  0  0  0  0  0
   -5.9848   -0.3474   -1.1252 C   0  0  0  0  0  0  0  0  0  0  0  0
   -6.2404   -1.5524   -0.2299 C   0  0  0  0  0  0  0  0  0  0  0  0
   -5.2409    2.2935   -2.2179 C   0  0  0  0  0  0  0  0  0  0  0  0
   -4.8241    3.5276   -2.7148 C   0  0  0  0  0  0  0  0  0  0  0  0
   -4.0456    4.3809   -1.9324 C   0  0  0  0  0  0  0  0  0  0  0  0
   -3.6669    3.9997   -0.6326 C   0  0  0  0  0  0  0  0  0  0  0  0
   -2.8701    4.8212    0.1871 O   0  0  0  0  0  0  0  0  0  0  0  0
   -2.1212    5.9521   -0.2547 C   0  0  0  0  0  0  0  0  0  0  0  0
   -0.9130    5.5109   -1.0758 C   0  0  0  0  0  0  0  0  0  0  0  0
   -2.3053    2.1281    1.5866 C   0  0  0  0  0  0  0  0  0  0  0  0
   -2.2892    1.6550    3.2000 S   0  0  0  0  0  0  0  0  0  0  0  0
   -1.1078    2.1060    0.7203 C   0  0  0  0  0  0  0  0  0  0  0  0
    0.2168    1.9333    1.1658 C   0  0  0  0  0  0  0  0  0  0  0  0
    0.6828    2.2051    2.4944 N   0  0  0  0  0  0  0  0  0  0  0  0
    1.0431    3.5749    2.7369 C   0  0  0  0  0  0  0  0  0  0  0  0
    2.3898    3.9648    2.6974 C   0  0  0  0  0  0  0  0  0  0  0  0
    2.7410    5.3074    2.8848 C   0  0  0  0  0  0  0  0  0  0  0  0
    1.7424    6.2661    3.0872 C   0  0  0  0  0  0  0  0  0  0  0  0
    2.1836    7.9849    3.3258 S   0  0  0  0  0  0  0  0  0  0  0  0
    2.2237    7.8441    5.1390 C   0  0  0  0  0  0  0  0  0  0  0  0
    0.3996    5.8800    3.1210 C   0  0  0  0  0  0  0  0  0  0  0  0
    0.0518    4.5444    2.9376 C   0  0  0  0  0  0  0  0  0  0  0  0
    1.1577    1.1452    3.3696 C   0  0  0  0  0  0  0  0  0  0  0  0
    1.6967    1.4518    4.6366 C   0  0  0  0  0  0  0  0  0  0  0  0
    2.2238    0.4458    5.4501 C   0  0  0  0  0  0  0  0  0  0  0  0
    2.2101   -0.8810    5.0258 C   0  0  0  0  0  0  0  0  0  0  0  0
    2.9431   -2.1532    6.0565 S   0  0  0  0  0  0  0  0  0  0  0  0
    4.5944   -2.0227    5.2943 C   0  0  0  0  0  0  0  0  0  0  0  0
    1.6214   -1.2120    3.8003 C   0  0  0  0  0  0  0  0  0  0  0  0
    1.0878   -0.2106    2.9858 C   0  0  0  0  0  0  0  0  0  0  0  0
    1.0722    1.6214    0.1184 C   0  0  0  0  0  0  0  0  0  0  0  0
    2.5703    0.9013    0.0531 S   0  0  0  0  0  0  0  0  0  0  0  0
    2.4434    0.4564   -1.5992 C   0  0  0  0  0  0  0  0  0  0  0  0
    1.3138    1.1163   -2.1421 C   0  0  0  0  0  0  0  0  0  0  0  0
    1.4440    1.9149   -3.3362 N   0  0  0  0  0  0  0  0  0  0  0  0
    1.9050    1.3471   -4.5690 C   0  0  0  0  0  0  0  0  0  0  0  0
    0.9804    0.9246   -5.5360 C   0  0  0  0  0  0  0  0  0  0  0  0
    1.3941    0.7016   -6.8533 C   0  0  0  0  0  0  0  0  0  0  0  0
    2.7293    0.9224   -7.2200 C   0  0  0  0  0  0  0  0  0  0  0  0
    3.2063    0.9879   -8.9564 S   0  0  0  0  0  0  0  0  0  0  0  0
    3.7728   -0.7369   -9.0447 C   0  0  0  0  0  0  0  0  0  0  0  0
    3.6674    1.2623   -6.2399 C   0  0  0  0  0  0  0  0  0  0  0  0
    3.2572    1.4766   -4.9228 C   0  0  0  0  0  0  0  0  0  0  0  0
    1.6242    3.3423   -3.1992 C   0  0  0  0  0  0  0  0  0  0  0  0
    2.6335    3.8462   -2.3605 C   0  0  0  0  0  0  0  0  0  0  0  0
    2.9126    5.2128   -2.3340 C   0  0  0  0  0  0  0  0  0  0  0  0
    2.1728    6.0989   -3.1268 C   0  0  0  0  0  0  0  0  0  0  0  0
    2.6373    7.8373   -3.1765 S   0  0  0  0  0  0  0  0  0  0  0  0
    1.7069    8.3056   -1.6779 C   0  0  0  0  0  0  0  0  0  0  0  0
    1.1387    5.6082   -3.9316 C   0  0  0  0  0  0  0  0  0  0  0  0
    0.8710    4.2342   -3.9812 C   0  0  0  0  0  0  0  0  0  0  0  0
    0.5148    1.5980   -1.1095 C   0  0  0  0  0  0  0  0  0  0  0  0
   -1.1250    1.9168   -0.9805 S   0  0  0  0  0  0  0  0  0  0  0  0
    2.5556   -0.9845   -1.8615 C   0  0  0  0  0  0  0  0  0  0  0  0
    2.0514   -1.9659   -1.0103 C   0  0  0  0  0  0  0  0  0  0  0  0
    2.0879   -3.2607   -1.5395 C   0  0  0  0  0  0  0  0  0  0  0  0
    1.6078   -4.3910   -0.7270 C   0  0  0  0  0  0  0  0  0  0  0  0
    0.2592   -4.4158   -0.3086 C   0  0  0  0  0  0  0  0  0  0  0  0
   -0.6158   -3.4326   -0.8055 O   0  0  0  0  0  0  0  0  0  0  0  0
   -2.0367   -3.4631   -0.6899 C   0  0  0  0  0  0  0  0  0  0  0  0
   -2.6400   -2.3975   -1.5902 C   0  0  0  0  0  0  0  0  0  0  0  0
   -0.1779   -5.4328    0.5511 C   0  0  0  0  0  0  0  0  0  0  0  0
    0.7060   -6.4195    0.9849 C   0  0  0  0  0  0  0  0  0  0  0  0
    2.0374   -6.3994    0.5675 C   0  0  0  0  0  0  0  0  0  0  0  0
    2.5064   -5.3764   -0.2760 C   0  0  0  0  0  0  0  0  0  0  0  0
    3.8529   -5.2946   -0.6770 O   0  0  0  0  0  0  0  0  0  0  0  0
    4.9407   -6.0293   -0.1018 C   0  0  0  0  0  0  0  0  0  0  0  0
    5.2655   -5.4954    1.2907 C   0  0  0  0  0  0  0  0  0  0  0  0
    2.6017   -3.3051   -2.8424 C   0  0  0  0  0  0  0  0  0  0  0  0
    3.0115   -1.7209   -3.2863 S   0  0  0  0  0  0  0  0  0  0  0  0
    2.9251   -4.4490   -3.7213 C   0  0  0  0  0  0  0  0  0  0  0  0
    2.0072   -5.1740   -4.3836 C   0  0  0  0  0  0  0  0  0  0  0  0
    1.0629   -6.1205   -3.7607 C   0  0  0  0  0  0  0  0  0  0  0  0
    0.4108   -5.9408   -2.7062 O   0  0  0  0  0  0  0  0  0  0  0  0
    0.9471   -7.2932   -4.6044 C   0  0  0  0  0  0  0  0  0  0  0  0
    0.2995   -8.4976   -4.3328 C   0  0  0  0  0  0  0  0  0  0  0  0
    0.4157   -9.5365   -5.2696 C   0  0  0  0  0  0  0  0  0  0  0  0
   -0.1746  -10.7313   -5.0300 F   0  0  0  0  0  0  0  0  0  0  0  0
    1.1904   -9.3625   -6.4311 C   0  0  0  0  0  0  0  0  0  0  0  0
    1.8343   -8.1389   -6.6809 C   0  0  0  0  0  0  0  0  0  0  0  0
    1.6773   -7.0973   -5.7607 C   0  0  0  0  0  0  0  0  0  0  0  0
    2.2748   -5.7456   -5.7319 C   0  0  0  0  0  0  0  0  0  0  0  0
    2.6897   -5.0145   -6.7963 C   0  0  0  0  0  0  0  0  0  0  0  0
    2.9413   -3.5986   -6.6541 C   0  0  0  0  0  0  0  0  0  0  0  0
    3.1303   -2.4621   -6.5254 N   0  0  0  0  0  0  0  0  0  0  0  0
    2.6799   -5.5261   -8.1418 C   0  0  0  0  0  0  0  0  0  0  0  0
    2.6692   -5.9074   -9.2349 N   0  0  0  0  0  0  0  0  0  0  0  0
   -4.8077    2.3339    5.3190 H   0  0  0  0  0  0  0  0  0  0  0  0
   -3.0830   -3.6885    4.4476 H   0  0  0  0  0  0  0  0  0  0  0  0
   -3.7058   -1.6672    9.0781 H   0  0  0  0  0  0  0  0  0  0  0  0
   -3.0457   -5.0922    9.2167 H   0  0  0  0  0  0  0  0  0  0  0  0
   -0.7816   -4.1907   10.0868 H   0  0  0  0  0  0  0  0  0  0  0  0
    0.1915   -2.3740    8.4090 H   0  0  0  0  0  0  0  0  0  0  0  0
    0.3963   -3.4751    6.0414 H   0  0  0  0  0  0  0  0  0  0  0  0
   -0.3956   -5.9991    6.2373 H   0  0  0  0  0  0  0  0  0  0  0  0
   -0.8052   -6.5472    8.8241 H   0  0  0  0  0  0  0  0  0  0  0  0
    0.7893   -5.6909    8.5825 H   0  0  0  0  0  0  0  0  0  0  0  0
   -2.8368   -6.0598    7.0687 H   0  0  0  0  0  0  0  0  0  0  0  0
   -5.6291    2.2176    2.1630 H   0  0  0  0  0  0  0  0  0  0  0  0
   -5.3851   -0.6640   -2.0041 H   0  0  0  0  0  0  0  0  0  0  0  0
   -6.9574    0.0624   -1.4671 H   0  0  0  0  0  0  0  0  0  0  0  0
   -6.9302   -1.2726    0.5920 H   0  0  0  0  0  0  0  0  0  0  0  0
   -5.2867   -1.9199    0.2028 H   0  0  0  0  0  0  0  0  0  0  0  0
   -6.7003   -2.3639   -0.8279 H   0  0  0  0  0  0  0  0  0  0  0  0
   -5.8423    1.6554   -2.8547 H   0  0  0  0  0  0  0  0  0  0  0  0
   -5.1144    3.8324   -3.7151 H   0  0  0  0  0  0  0  0  0  0  0  0
   -3.7489    5.3344   -2.3510 H   0  0  0  0  0  0  0  0  0  0  0  0
   -1.7510    6.4991    0.6403 H   0  0  0  0  0  0  0  0  0  0  0  0
   -2.7615    6.6509   -0.8318 H   0  0  0  0  0  0  0  0  0  0  0  0
   -0.1661    5.0261   -0.4139 H   0  0  0  0  0  0  0  0  0  0  0  0
   -0.4528    6.3965   -1.5499 H   0  0  0  0  0  0  0  0  0  0  0  0
   -1.2126    4.7960   -1.8682 H   0  0  0  0  0  0  0  0  0  0  0  0
    3.1669    3.2285    2.5244 H   0  0  0  0  0  0  0  0  0  0  0  0
    3.7829    5.5978    2.8680 H   0  0  0  0  0  0  0  0  0  0  0  0
    1.2465    7.4803    5.5140 H   0  0  0  0  0  0  0  0  0  0  0  0
    3.0275    7.1410    5.4446 H   0  0  0  0  0  0  0  0  0  0  0  0
    2.4315    8.8409    5.5763 H   0  0  0  0  0  0  0  0  0  0  0  0
   -0.3705    6.6214    3.2924 H   0  0  0  0  0  0  0  0  0  0  0  0
   -0.9917    4.2618    2.9554 H   0  0  0  0  0  0  0  0  0  0  0  0
    1.7338    2.4693    4.9994 H   0  0  0  0  0  0  0  0  0  0  0  0
    2.6554    0.7021    6.4073 H   0  0  0  0  0  0  0  0  0  0  0  0
    4.5973   -2.5378    4.3141 H   0  0  0  0  0  0  0  0  0  0  0  0
    4.8955   -0.9618    5.1693 H   0  0  0  0  0  0  0  0  0  0  0  0
    5.3265   -2.5213    5.9622 H   0  0  0  0  0  0  0  0  0  0  0  0
    1.5900   -2.2449    3.4729 H   0  0  0  0  0  0  0  0  0  0  0  0
    0.6435   -0.5001    2.0448 H   0  0  0  0  0  0  0  0  0  0  0  0
   -0.0744    0.8582   -5.2832 H   0  0  0  0  0  0  0  0  0  0  0  0
    0.6640    0.4341   -7.6056 H   0  0  0  0  0  0  0  0  0  0  0  0
    2.8964   -1.4165   -8.9681 H   0  0  0  0  0  0  0  0  0  0  0  0
    4.5091   -0.9431   -8.2356 H   0  0  0  0  0  0  0  0  0  0  0  0
    4.2703   -0.8963  -10.0251 H   0  0  0  0  0  0  0  0  0  0  0  0
    4.7035    1.4288   -6.5094 H   0  0  0  0  0  0  0  0  0  0  0  0
    3.9791    1.8186   -4.1893 H   0  0  0  0  0  0  0  0  0  0  0  0
    3.2469    3.1779   -1.7700 H   0  0  0  0  0  0  0  0  0  0  0  0
    3.7284    5.5836   -1.7273 H   0  0  0  0  0  0  0  0  0  0  0  0
    2.0981    9.2753   -1.3058 H   0  0  0  0  0  0  0  0  0  0  0  0
    1.8293    7.5466   -0.8773 H   0  0  0  0  0  0  0  0  0  0  0  0
    0.6347    8.4357   -1.9342 H   0  0  0  0  0  0  0  0  0  0  0  0
    0.5629    6.2846   -4.5488 H   0  0  0  0  0  0  0  0  0  0  0  0
    0.0965    3.8584   -4.6421 H   0  0  0  0  0  0  0  0  0  0  0  0
    1.6386   -1.7482   -0.0359 H   0  0  0  0  0  0  0  0  0  0  0  0
   -2.4107   -4.4584   -1.0092 H   0  0  0  0  0  0  0  0  0  0  0  0
   -2.3355   -3.2762    0.3621 H   0  0  0  0  0  0  0  0  0  0  0  0
   -2.2066   -2.4783   -2.6083 H   0  0  0  0  0  0  0  0  0  0  0  0
   -3.7327   -2.5518   -1.6651 H   0  0  0  0  0  0  0  0  0  0  0  0
   -2.4275   -1.3853   -1.1840 H   0  0  0  0  0  0  0  0  0  0  0  0
   -1.2068   -5.4783    0.8860 H   0  0  0  0  0  0  0  0  0  0  0  0
    0.3594   -7.2096    1.6454 H   0  0  0  0  0  0  0  0  0  0  0  0
    2.6961   -7.1799    0.9255 H   0  0  0  0  0  0  0  0  0  0  0  0
    4.7169   -7.1171   -0.0790 H   0  0  0  0  0  0  0  0  0  0  0  0
    5.8324   -5.8852   -0.7537 H   0  0  0  0  0  0  0  0  0  0  0  0
    6.2062   -5.9543    1.6571 H   0  0  0  0  0  0  0  0  0  0  0  0
    4.4350   -5.7167    1.9990 H   0  0  0  0  0  0  0  0  0  0  0  0
    5.4046   -4.3932    1.2406 H   0  0  0  0  0  0  0  0  0  0  0  0
    3.8707   -4.3115   -4.2227 H   0  0  0  0  0  0  0  0  0  0  0  0
   -0.2435   -8.6426   -3.4097 H   0  0  0  0  0  0  0  0  0  0  0  0
    1.3209  -10.1822   -7.1216 H   0  0  0  0  0  0  0  0  0  0  0  0
    2.4633   -8.0378   -7.5519 H   0  0  0  0  0  0  0  0  0  0  0  0
  1  2  2  3
  2  3  1  0
  3  4  2  0
  3  5  1  0
  5  6  2  0
  6  7  1  0
  7  8  2  0
  8  9  1  0
  9 10  2  0
 10 11  1  0
 11 12  2  3
 12 13  1  0
 13 14  3  0
 12 15  1  0
 15 16  3  0
  8 17  1  0
 17 18  1  0
 18 19  1  0
 19 20  2  0
 20 21  1  0
 21 22  1  0
 21 23  1  0
  1 24  1  0
 24 25  2  0
 25 26  1  0
 26 27  1  0
 27 28  2  0
 28 29  1  0
 29 30  1  0
 30 31  1  0
 28 32  1  0
 32 33  2  0
 33 34  1  0
 34 35  2  0
 35 36  1  0
 36 37  1  0
 37 38  1  0
 26 39  2  0
 39 40  1  0
 39 41  1  0
 41 42  2  0
 42 43  1  0
 43 44  1  0
 44 45  2  0
 45 46  1  0
 46 47  2  0
 47 48  1  0
 48 49  1  0
 47 50  1  0
 50 51  2  0
 43 52  1  0
 52 53  2  0
 53 54  1  0
 54 55  2  0
 55 56  1  0
 56 57  1  0
 55 58  1  0
 58 59  2  0
 42 60  1  0
 60 61  1  0
 61 62  1  0
 62 63  2  0
 63 64  1  0
 64 65  1  0
 65 66  2  0
 66 67  1  0
 67 68  2  0
 68 69  1  0
 69 70  1  0
 68 71  1  0
 71 72  2  0
 64 73  1  0
 73 74  2  0
 74 75  1  0
 75 76  2  0
 76 77  1  0
 77 78  1  0
 76 79  1  0
 79 80  2  0
 63 81  1  0
 81 82  1  0
 62 83  1  0
 83 84  2  0
 84 85  1  0
 85 86  1  0
 86 87  2  0
 87 88  1  0
 88 89  1  0
 89 90  1  0
 87 91  1  0
 91 92  2  0
 92 93  1  0
 93 94  2  0
 94 95  1  0
 95 96  1  0
 96 97  1  0
 85 98  2  0
 98 99  1  0
 98100  1  0
100101  2  3
101102  1  0
102103  2  0
102104  1  0
104105  2  0
105106  1  0
106107  1  0
106108  2  0
108109  1  0
109110  2  0
110111  1  0
111112  2  3
112113  1  0
113114  3  0
112115  1  0
115116  3  0
 11  2  1  0
 23 17  1  0
 40 24  1  0
 82 41  1  0
 99 83  1  0
111101  1  0
 10  5  1  0
 22 18  1  0
 35 27  1  0
 51 44  1  0
 59 52  1  0
 81 60  2  0
 94 86  1  0
110104  1  0
 23  7  1  0
 72 65  1  0
 80 73  1  0
  1117  1  0
  6118  1  0
  9119  1  0
 17120  1  0
 18121  1  0
 19122  1  0
 20123  1  0
 21124  1  0
 22125  1  0
 22126  1  0
 23127  1  0
 25128  1  0
 30129  1  0
 30130  1  0
 31131  1  0
 31132  1  0
 31133  1  0
 32134  1  0
 33135  1  0
 34136  1  0
 37137  1  0
 37138  1  0
 38139  1  0
 38140  1  0
 38141  1  0
 45142  1  0
 46143  1  0
 49144  1  0
 49145  1  0
 49146  1  0
 50147  1  0
 51148  1  0
 53149  1  0
 54150  1  0
 57151  1  0
 57152  1  0
 57153  1  0
 58154  1  0
 59155  1  0
 66156  1  0
 67157  1  0
 70158  1  0
 70159  1  0
 70160  1  0
 71161  1  0
 72162  1  0
 74163  1  0
 75164  1  0
 78165  1  0
 78166  1  0
 78167  1  0
 79168  1  0
 80169  1  0
 84170  1  0
 89171  1  0
 89172  1  0
 90173  1  0
 90174  1  0
 90175  1  0
 91176  1  0
 92177  1  0
 93178  1  0
 96179  1  0
 96180  1  0
 97181  1  0
 97182  1  0
 97183  1  0
100184  1  0
105185  1  0
108186  1  0
109187  1  0
M  END

