
     RDKit          3D

162180  0  0  0  0  0  0  0  0999 V2000
    3.7054   -0.8863    5.5027 C   0  0  0  0  0  0  0  0  0  0  0  0
    2.8228   -1.9061    5.4176 C   0  0  0  0  0  0  0  0  0  0  0  0
    1.4683   -1.8030    4.8507 C   0  0  0  0  0  0  0  0  0  0  0  0
    0.8431   -0.7408    4.5847 O   0  0  0  0  0  0  0  0  0  0  0  0
    0.9720   -3.1292    4.5768 C   0  0  0  0  0  0  0  0  0  0  0  0
   -0.2407   -3.4576    3.9309 C   0  0  0  0  0  0  0  0  0  0  0  0
   -0.4087   -4.8103    3.7217 C   0  0  0  0  0  0  0  0  0  0  0  0
    0.5549   -5.7913    4.1157 C   0  0  0  0  0  0  0  0  0  0  0  0
    1.7478   -5.4741    4.7464 C   0  0  0  0  0  0  0  0  0  0  0  0
    1.9376   -4.0825    4.9925 C   0  0  0  0  0  0  0  0  0  0  0  0
    3.0907   -3.3670    5.6212 C   0  0  0  0  0  0  0  0  0  0  0  0
    4.0795   -3.9174    6.3720 C   0  0  0  0  0  0  0  0  0  0  0  0
    4.2012   -5.3348    6.5846 C   0  0  0  0  0  0  0  0  0  0  0  0
    4.3163   -6.4721    6.7713 N   0  0  0  0  0  0  0  0  0  0  0  0
    5.0220   -3.1213    7.1179 C   0  0  0  0  0  0  0  0  0  0  0  0
    5.7799   -2.4917    7.7251 N   0  0  0  0  0  0  0  0  0  0  0  0
   -0.3161   -6.8861    3.5703 C   0  0  0  0  0  0  0  0  0  0  0  0
   -1.0951   -7.7770    4.5864 C   0  0  0  0  0  0  0  0  0  0  0  0
   -1.4214   -6.9813    5.8286 C   0  0  0  0  0  0  0  0  0  0  0  0
   -2.3173   -6.0615    5.4688 C   0  0  0  0  0  0  0  0  0  0  0  0
   -2.5720   -6.2646    3.9902 C   0  0  0  0  0  0  0  0  0  0  0  0
   -2.4656   -7.7784    3.9332 C   0  0  0  0  0  0  0  0  0  0  0  0
   -1.3030   -5.8798    3.1692 C   0  0  0  0  0  0  0  0  0  0  0  0
    3.3380    0.4867    5.1037 C   0  0  0  0  0  0  0  0  0  0  0  0
    2.5381    1.2830    5.9437 C   0  0  0  0  0  0  0  0  0  0  0  0
    2.3190    0.8749    7.2621 O   0  0  0  0  0  0  0  0  0  0  0  0
    3.0222    1.4353    8.3688 C   0  0  0  0  0  0  0  0  0  0  0  0
    4.5114    1.1101    8.2912 C   0  0  0  0  0  0  0  0  0  0  0  0
    1.8897    2.4296    5.4404 C   0  0  0  0  0  0  0  0  0  0  0  0
    1.0293    3.1474    6.2777 O   0  0  0  0  0  0  0  0  0  0  0  0
    1.3953    4.3944    6.8620 C   0  0  0  0  0  0  0  0  0  0  0  0
    0.9418    5.5652    6.0020 C   0  0  0  0  0  0  0  0  0  0  0  0
    2.0316    2.7884    4.0810 C   0  0  0  0  0  0  0  0  0  0  0  0
    2.9442    2.0721    3.2850 C   0  0  0  0  0  0  0  0  0  0  0  0
    3.5989    0.9197    3.7998 C   0  0  0  0  0  0  0  0  0  0  0  0
    4.3718    0.2136    2.9315 N   0  0  0  0  0  0  0  0  0  0  0  0
    4.1727    1.1090    1.5573 S   0  0  0  0  0  0  0  0  0  0  0  0
    3.1515    2.3415    1.9683 N   0  0  0  0  0  0  0  0  0  0  0  0
    0.9734    3.5631    3.4124 C   0  0  0  0  0  0  0  0  0  0  0  0
    1.1899    4.5623    2.4600 C   0  0  0  0  0  0  0  0  0  0  0  0
    0.1405    4.6769    1.5283 C   0  0  0  0  0  0  0  0  0  0  0  0
    0.1623    5.4585    0.3515 C   0  0  0  0  0  0  0  0  0  0  0  0
    1.1253    6.5727    0.1880 C   0  0  0  0  0  0  0  0  0  0  0  0
    1.8076    6.9489   -0.9749 C   0  0  0  0  0  0  0  0  0  0  0  0
    2.5343    8.1368   -0.8255 C   0  0  0  0  0  0  0  0  0  0  0  0
    3.2613    8.6886   -1.8293 F   0  0  0  0  0  0  0  0  0  0  0  0
    2.4285    8.7020    0.4358 C   0  0  0  0  0  0  0  0  0  0  0  0
    3.2106   10.2194    0.9854 S   0  0  0  0  0  0  0  0  0  0  0  0
    1.7959   11.2966    0.5615 C   0  0  0  0  0  0  0  0  0  0  0  0
    0.8863   11.4824    1.7689 C   0  0  0  0  0  0  0  0  0  0  0  0
    1.4399    7.7286    1.3792 S   0  0  0  0  0  0  0  0  0  0  0  0
   -0.8100    5.1487   -0.6265 C   0  0  0  0  0  0  0  0  0  0  0  0
   -1.8042    4.1845   -0.4233 C   0  0  0  0  0  0  0  0  0  0  0  0
   -1.8864    3.4827    0.7945 C   0  0  0  0  0  0  0  0  0  0  0  0
   -2.8398    2.3738    0.9781 C   0  0  0  0  0  0  0  0  0  0  0  0
   -2.4259    0.7564    1.2165 S   0  0  0  0  0  0  0  0  0  0  0  0
   -4.0027    0.1792    1.2175 C   0  0  0  0  0  0  0  0  0  0  0  0
   -4.4647   -1.5353    1.4652 S   0  0  0  0  0  0  0  0  0  0  0  0
   -4.3774   -1.4600    3.2911 C   0  0  0  0  0  0  0  0  0  0  0  0
   -5.5968   -0.7598    3.8761 C   0  0  0  0  0  0  0  0  0  0  0  0
   -4.8700    1.2408    1.0039 C   0  0  0  0  0  0  0  0  0  0  0  0
   -4.2226    2.4729    0.8642 C   0  0  0  0  0  0  0  0  0  0  0  0
   -6.2159    1.1052    0.9215 F   0  0  0  0  0  0  0  0  0  0  0  0
   -0.8835    3.7477    1.7429 C   0  0  0  0  0  0  0  0  0  0  0  0
   -0.5203    2.8493    3.1096 S   0  0  0  0  0  0  0  0  0  0  0  0
   -2.4956    3.8367   -1.5968 C   0  0  0  0  0  0  0  0  0  0  0  0
   -2.0098    4.4690   -2.7378 C   0  0  0  0  0  0  0  0  0  0  0  0
   -0.7981    5.5383   -2.2625 S   0  0  0  0  0  0  0  0  0  0  0  0
   -1.9284    3.7587   -4.0255 C   0  0  0  0  0  0  0  0  0  0  0  0
   -1.2284    2.5321   -4.0837 C   0  0  0  0  0  0  0  0  0  0  0  0
   -0.7096    2.0141   -2.8774 O   0  0  0  0  0  0  0  0  0  0  0  0
   -0.5508    0.6404   -2.5251 C   0  0  0  0  0  0  0  0  0  0  0  0
   -1.8639   -0.1292   -2.6486 C   0  0  0  0  0  0  0  0  0  0  0  0
   -1.0227    1.8935   -5.3289 C   0  0  0  0  0  0  0  0  0  0  0  0
   -0.1924    0.7742   -5.4038 O   0  0  0  0  0  0  0  0  0  0  0  0
    1.1825    0.8877   -5.7529 C   0  0  0  0  0  0  0  0  0  0  0  0
    1.8125   -0.4939   -5.7983 C   0  0  0  0  0  0  0  0  0  0  0  0
   -1.6093    2.4068   -6.5102 C   0  0  0  0  0  0  0  0  0  0  0  0
   -2.3002    3.6247   -6.4436 C   0  0  0  0  0  0  0  0  0  0  0  0
   -2.4513    4.3060   -5.2001 C   0  0  0  0  0  0  0  0  0  0  0  0
   -3.1272    5.4843   -5.2295 N   0  0  0  0  0  0  0  0  0  0  0  0
   -3.4910    5.5785   -6.8388 S   0  0  0  0  0  0  0  0  0  0  0  0
   -2.8480    4.2228   -7.5329 N   0  0  0  0  0  0  0  0  0  0  0  0
   -1.3582    1.7566   -7.8209 C   0  0  0  0  0  0  0  0  0  0  0  0
   -1.5646    0.4434   -8.0505 C   0  0  0  0  0  0  0  0  0  0  0  0
   -2.1953   -0.4897   -7.1102 C   0  0  0  0  0  0  0  0  0  0  0  0
   -3.0280   -0.1920   -6.2155 O   0  0  0  0  0  0  0  0  0  0  0  0
   -1.6726   -1.8156   -7.3556 C   0  0  0  0  0  0  0  0  0  0  0  0
   -1.7839   -2.9389   -6.5019 C   0  0  0  0  0  0  0  0  0  0  0  0
   -0.9663   -3.9930   -6.8613 C   0  0  0  0  0  0  0  0  0  0  0  0
   -0.0886   -3.9571   -7.9989 C   0  0  0  0  0  0  0  0  0  0  0  0
    0.0211   -2.8612   -8.8373 C   0  0  0  0  0  0  0  0  0  0  0  0
   -0.8260   -1.7674   -8.4955 C   0  0  0  0  0  0  0  0  0  0  0  0
   -0.8528   -0.3923   -9.0614 C   0  0  0  0  0  0  0  0  0  0  0  0
   -0.4455   -0.0157  -10.3051 C   0  0  0  0  0  0  0  0  0  0  0  0
   -0.6682    1.3125  -10.8139 C   0  0  0  0  0  0  0  0  0  0  0  0
   -0.8452    2.3788  -11.2272 N   0  0  0  0  0  0  0  0  0  0  0  0
    0.0760   -0.9619  -11.2558 C   0  0  0  0  0  0  0  0  0  0  0  0
    0.4856   -1.7127  -12.0350 N   0  0  0  0  0  0  0  0  0  0  0  0
    0.4507   -5.3089   -7.6464 C   0  0  0  0  0  0  0  0  0  0  0  0
    1.8741   -5.3429   -7.0127 C   0  0  0  0  0  0  0  0  0  0  0  0
    2.0276   -6.7106   -6.3956 C   0  0  0  0  0  0  0  0  0  0  0  0
    1.2074   -6.7419   -5.3337 C   0  0  0  0  0  0  0  0  0  0  0  0
    0.5367   -5.3927   -5.2723 C   0  0  0  0  0  0  0  0  0  0  0  0
    1.7019   -4.5317   -5.7363 C   0  0  0  0  0  0  0  0  0  0  0  0
   -0.4450   -5.3469   -6.4825 C   0  0  0  0  0  0  0  0  0  0  0  0
    4.7487   -1.0610    5.7162 H   0  0  0  0  0  0  0  0  0  0  0  0
   -0.9666   -2.7209    3.6104 H   0  0  0  0  0  0  0  0  0  0  0  0
    2.4545   -6.2488    4.9894 H   0  0  0  0  0  0  0  0  0  0  0  0
    0.1319   -7.4338    2.7131 H   0  0  0  0  0  0  0  0  0  0  0  0
   -0.6556   -8.7823    4.7706 H   0  0  0  0  0  0  0  0  0  0  0  0
   -1.0646   -7.1589    6.8392 H   0  0  0  0  0  0  0  0  0  0  0  0
   -2.8152   -5.3642    6.1324 H   0  0  0  0  0  0  0  0  0  0  0  0
   -3.5262   -5.8415    3.6150 H   0  0  0  0  0  0  0  0  0  0  0  0
   -2.4612   -8.1887    2.8917 H   0  0  0  0  0  0  0  0  0  0  0  0
   -3.2446   -8.2996    4.5378 H   0  0  0  0  0  0  0  0  0  0  0  0
   -1.4533   -5.8149    2.0701 H   0  0  0  0  0  0  0  0  0  0  0  0
    2.6106    1.0051    9.3077 H   0  0  0  0  0  0  0  0  0  0  0  0
    2.8834    2.5335    8.4042 H   0  0  0  0  0  0  0  0  0  0  0  0
    4.9701    1.5929    7.4010 H   0  0  0  0  0  0  0  0  0  0  0  0
    5.0232    1.4864    9.2005 H   0  0  0  0  0  0  0  0  0  0  0  0
    4.6584    0.0111    8.2323 H   0  0  0  0  0  0  0  0  0  0  0  0
    2.4954    4.4474    7.0166 H   0  0  0  0  0  0  0  0  0  0  0  0
    0.8995    4.4683    7.8540 H   0  0  0  0  0  0  0  0  0  0  0  0
    1.5667    5.6371    5.0911 H   0  0  0  0  0  0  0  0  0  0  0  0
    1.0558    6.5130    6.5711 H   0  0  0  0  0  0  0  0  0  0  0  0
   -0.1251    5.4424    5.7181 H   0  0  0  0  0  0  0  0  0  0  0  0
    2.1416    5.0691    2.3578 H   0  0  0  0  0  0  0  0  0  0  0  0
    1.8095    6.3818   -1.8950 H   0  0  0  0  0  0  0  0  0  0  0  0
    2.1945   12.2891    0.2571 H   0  0  0  0  0  0  0  0  0  0  0  0
    1.2133   10.8898   -0.2936 H   0  0  0  0  0  0  0  0  0  0  0  0
    0.0509   12.1651    1.5061 H   0  0  0  0  0  0  0  0  0  0  0  0
    0.4602   10.5076    2.0869 H   0  0  0  0  0  0  0  0  0  0  0  0
    1.4574   11.9291    2.6111 H   0  0  0  0  0  0  0  0  0  0  0  0
   -4.3372   -2.5001    3.6844 H   0  0  0  0  0  0  0  0  0  0  0  0
   -3.4493   -0.9375    3.6143 H   0  0  0  0  0  0  0  0  0  0  0  0
   -6.5245   -1.2786    3.5599 H   0  0  0  0  0  0  0  0  0  0  0  0
   -5.5351   -0.7702    4.9846 H   0  0  0  0  0  0  0  0  0  0  0  0
   -5.6334    0.2999    3.5387 H   0  0  0  0  0  0  0  0  0  0  0  0
   -4.7407    3.4051    0.6831 H   0  0  0  0  0  0  0  0  0  0  0  0
   -3.1724    2.9930   -1.6602 H   0  0  0  0  0  0  0  0  0  0  0  0
    0.2491    0.1562   -3.1144 H   0  0  0  0  0  0  0  0  0  0  0  0
   -0.2311    0.6015   -1.4629 H   0  0  0  0  0  0  0  0  0  0  0  0
   -2.6839    0.4335   -2.1577 H   0  0  0  0  0  0  0  0  0  0  0  0
   -2.1142   -0.2883   -3.7155 H   0  0  0  0  0  0  0  0  0  0  0  0
   -1.7658   -1.1192   -2.1572 H   0  0  0  0  0  0  0  0  0  0  0  0
    1.2834    1.3676   -6.7499 H   0  0  0  0  0  0  0  0  0  0  0  0
    1.7060    1.5099   -4.9964 H   0  0  0  0  0  0  0  0  0  0  0  0
    1.3825   -1.0796   -6.6365 H   0  0  0  0  0  0  0  0  0  0  0  0
    2.9076   -0.4037   -5.9506 H   0  0  0  0  0  0  0  0  0  0  0  0
    1.6258   -1.0317   -4.8435 H   0  0  0  0  0  0  0  0  0  0  0  0
   -0.8086    2.3550   -8.5270 H   0  0  0  0  0  0  0  0  0  0  0  0
   -2.3869   -2.9458   -5.6017 H   0  0  0  0  0  0  0  0  0  0  0  0
    0.7655   -2.8345   -9.6188 H   0  0  0  0  0  0  0  0  0  0  0  0
    0.2420   -6.0850   -8.4178 H   0  0  0  0  0  0  0  0  0  0  0  0
    2.7023   -5.0273   -7.6789 H   0  0  0  0  0  0  0  0  0  0  0  0
    2.7312   -7.4856   -6.6781 H   0  0  0  0  0  0  0  0  0  0  0  0
    1.1428   -7.5426   -4.6068 H   0  0  0  0  0  0  0  0  0  0  0  0
    0.1049   -5.1232   -4.2850 H   0  0  0  0  0  0  0  0  0  0  0  0
    2.5889   -4.5711   -5.0600 H   0  0  0  0  0  0  0  0  0  0  0  0
    1.4376   -3.4672   -5.8998 H   0  0  0  0  0  0  0  0  0  0  0  0
   -1.2155   -6.1495   -6.5139 H   0  0  0  0  0  0  0  0  0  0  0  0
  1  2  2  3
  2  3  1  0
  3  4  2  0
  3  5  1  0
  5  6  2  0
  6  7  1  0
  7  8  2  0
  8  9  1  0
  9 10  2  0
 10 11  1  0
 11 12  2  3
 12 13  1  0
 13 14  3  0
 12 15  1  0
 15 16  3  0
  8 17  1  0
 17 18  1  0
 18 19  1  0
 19 20  2  0
 20 21  1  0
 21 22  1  0
 21 23  1  0
  1 24  1  0
 24 25  2  0
 25 26  1  0
 26 27  1  0
 27 28  1  0
 25 29  1  0
 29 30  1  0
 30 31  1  0
 31 32  1  0
 29 33  2  0
 33 34  1  0
 34 35  1  0
 35 36  2  0
 36 37  1  0
 37 38  1  0
 33 39  1  0
 39 40  2  0
 40 41  1  0
 41 42  2  0
 42 43  1  0
 43 44  2  0
 44 45  1  0
 45 46  1  0
 45 47  2  0
 47 48  1  0
 48 49  1  0
 49 50  1  0
 47 51  1  0
 42 52  1  0
 52 53  2  0
 53 54  1  0
 54 55  1  0
 55 56  1  0
 56 57  1  0
 57 58  1  0
 58 59  1  0
 59 60  1  0
 57 61  2  0
 61 62  1  0
 61 63  1  0
 54 64  2  0
 64 65  1  0
 53 66  1  0
 66 67  2  0
 67 68  1  0
 67 69  1  0
 69 70  2  0
 70 71  1  0
 71 72  1  0
 72 73  1  0
 70 74  1  0
 74 75  1  0
 75 76  1  0
 76 77  1  0
 74 78  2  0
 78 79  1  0
 79 80  1  0
 80 81  2  0
 81 82  1  0
 82 83  1  0
 78 84  1  0
 84 85  2  3
 85 86  1  0
 86 87  2  0
 86 88  1  0
 88 89  2  0
 89 90  1  0
 90 91  2  0
 91 92  1  0
 92 93  2  0
 93 94  1  0
 94 95  2  3
 95 96  1  0
 96 97  3  0
 95 98  1  0
 98 99  3  0
 91100  1  0
100101  1  0
101102  1  0
102103  2  0
103104  1  0
104105  1  0
104106  1  0
 11  2  1  0
 23 17  1  0
 35 24  1  0
 65 39  1  0
 80 69  1  0
 94 85  1  0
106100  1  0
 10  5  1  0
 22 18  1  0
 38 34  2  0
 64 41  1  0
 83 79  2  0
 93 88  1  0
105101  1  0
 23  7  1  0
 51 43  1  0
 68 52  1  0
106 90  1  0
 62 55  2  0
  1107  1  0
  6108  1  0
  9109  1  0
 17110  1  0
 18111  1  0
 19112  1  0
 20113  1  0
 21114  1  0
 22115  1  0
 22116  1  0
 23117  1  0
 27118  1  0
 27119  1  0
 28120  1  0
 28121  1  0
 28122  1  0
 31123  1  0
 31124  1  0
 32125  1  0
 32126  1  0
 32127  1  0
 40128  1  0
 44129  1  0
 49130  1  0
 49131  1  0
 50132  1  0
 50133  1  0
 50134  1  0
 59135  1  0
 59136  1  0
 60137  1  0
 60138  1  0
 60139  1  0
 62140  1  0
 66141  1  0
 72142  1  0
 72143  1  0
 73144  1  0
 73145  1  0
 73146  1  0
 76147  1  0
 76148  1  0
 77149  1  0
 77150  1  0
 77151  1  0
 84152  1  0
 89153  1  0
 92154  1  0
100155  1  0
101156  1  0
102157  1  0
103158  1  0
104159  1  0
105160  1  0
105161  1  0
106162  1  0
M  END

