
     RDKit          3D

171188  0  0  0  0  0  0  0  0999 V2000
    4.1491   -3.4560    3.4400 C   0  0  0  0  0  0  0  0  0  0  0  0
    4.5142   -4.1673    2.3566 C   0  0  0  0  0  0  0  0  0  0  0  0
    4.4967   -5.6294    2.3402 C   0  0  0  0  0  0  0  0  0  0  0  0
    4.4904   -6.3829    3.3515 O   0  0  0  0  0  0  0  0  0  0  0  0
    4.3410   -6.0721    0.9693 C   0  0  0  0  0  0  0  0  0  0  0  0
    4.0600   -7.3824    0.5162 C   0  0  0  0  0  0  0  0  0  0  0  0
    3.8379   -7.4698   -0.8483 C   0  0  0  0  0  0  0  0  0  0  0  0
    3.8855   -6.3341   -1.7226 C   0  0  0  0  0  0  0  0  0  0  0  0
    4.1383   -5.0456   -1.2837 C   0  0  0  0  0  0  0  0  0  0  0  0
    4.3771   -4.9379    0.1144 C   0  0  0  0  0  0  0  0  0  0  0  0
    4.6142   -3.7242    0.9360 C   0  0  0  0  0  0  0  0  0  0  0  0
    5.1851   -2.5668    0.5110 C   0  0  0  0  0  0  0  0  0  0  0  0
    5.6891   -1.5888    1.4402 C   0  0  0  0  0  0  0  0  0  0  0  0
    6.0968   -0.8026    2.1841 N   0  0  0  0  0  0  0  0  0  0  0  0
    5.4576   -2.3023   -0.8795 C   0  0  0  0  0  0  0  0  0  0  0  0
    5.6837   -2.0812   -1.9918 N   0  0  0  0  0  0  0  0  0  0  0  0
    3.5542   -7.2048   -2.8994 C   0  0  0  0  0  0  0  0  0  0  0  0
    2.1145   -7.1136   -3.4925 C   0  0  0  0  0  0  0  0  0  0  0  0
    1.1267   -6.7501   -2.4075 C   0  0  0  0  0  0  0  0  0  0  0  0
    1.0664   -7.7941   -1.5831 C   0  0  0  0  0  0  0  0  0  0  0  0
    2.0077   -8.8420   -2.1398 C   0  0  0  0  0  0  0  0  0  0  0  0
    1.7924   -8.5897   -3.6213 C   0  0  0  0  0  0  0  0  0  0  0  0
    3.4885   -8.3646   -2.0015 C   0  0  0  0  0  0  0  0  0  0  0  0
    3.3592   -2.2083    3.3777 C   0  0  0  0  0  0  0  0  0  0  0  0
    3.0874   -1.3807    4.4656 C   0  0  0  0  0  0  0  0  0  0  0  0
    2.1156   -0.3986    4.1973 C   0  0  0  0  0  0  0  0  0  0  0  0
    1.7841    0.6936    5.1382 C   0  0  0  0  0  0  0  0  0  0  0  0
    2.0136    2.0343    4.7556 C   0  0  0  0  0  0  0  0  0  0  0  0
    2.5795    2.2869    3.4929 O   0  0  0  0  0  0  0  0  0  0  0  0
    3.0750    3.5420    3.0312 C   0  0  0  0  0  0  0  0  0  0  0  0
    4.4030    3.8797    3.7016 C   0  0  0  0  0  0  0  0  0  0  0  0
    1.6950    3.0753    5.6490 C   0  0  0  0  0  0  0  0  0  0  0  0
    1.2113    2.7884    6.9239 C   0  0  0  0  0  0  0  0  0  0  0  0
    1.0544    1.4642    7.3312 C   0  0  0  0  0  0  0  0  0  0  0  0
    1.3389    0.4013    6.4460 C   0  0  0  0  0  0  0  0  0  0  0  0
    1.1993   -0.9434    6.8357 O   0  0  0  0  0  0  0  0  0  0  0  0
    1.0798   -1.3996    8.1826 C   0  0  0  0  0  0  0  0  0  0  0  0
   -0.3773   -1.4038    8.6374 C   0  0  0  0  0  0  0  0  0  0  0  0
    1.5862   -0.5056    2.9110 C   0  0  0  0  0  0  0  0  0  0  0  0
    2.3669   -1.7469    2.1054 S   0  0  0  0  0  0  0  0  0  0  0  0
    0.5074    0.2778    2.3064 C   0  0  0  0  0  0  0  0  0  0  0  0
   -0.8757   -0.0107    2.3557 C   0  0  0  0  0  0  0  0  0  0  0  0
   -1.5399   -0.8914    3.2906 N   0  0  0  0  0  0  0  0  0  0  0  0
   -2.8531   -0.5341    3.7690 C   0  0  0  0  0  0  0  0  0  0  0  0
   -3.0996    0.7503    4.2870 C   0  0  0  0  0  0  0  0  0  0  0  0
   -4.3944    1.1236    4.6594 C   0  0  0  0  0  0  0  0  0  0  0  0
   -5.4517    0.2154    4.5225 C   0  0  0  0  0  0  0  0  0  0  0  0
   -7.1262    0.7079    4.9416 S   0  0  0  0  0  0  0  0  0  0  0  0
   -7.5255    1.2385    3.2455 C   0  0  0  0  0  0  0  0  0  0  0  0
   -5.2075   -1.0778    4.0465 C   0  0  0  0  0  0  0  0  0  0  0  0
   -3.9170   -1.4497    3.6679 C   0  0  0  0  0  0  0  0  0  0  0  0
   -0.9955   -2.1684    3.6748 C   0  0  0  0  0  0  0  0  0  0  0  0
   -0.4969   -3.0619    2.7113 C   0  0  0  0  0  0  0  0  0  0  0  0
   -0.0693   -4.3385    3.0918 C   0  0  0  0  0  0  0  0  0  0  0  0
   -0.1866   -4.7519    4.4255 C   0  0  0  0  0  0  0  0  0  0  0  0
    0.2618   -6.4261    4.8923 S   0  0  0  0  0  0  0  0  0  0  0  0
    1.8433   -5.9319    5.6426 C   0  0  0  0  0  0  0  0  0  0  0  0
   -0.7107   -3.8781    5.3828 C   0  0  0  0  0  0  0  0  0  0  0  0
   -1.0996   -2.5911    5.0111 C   0  0  0  0  0  0  0  0  0  0  0  0
   -1.5591    0.7485    1.4039 C   0  0  0  0  0  0  0  0  0  0  0  0
   -3.1171    0.7067    0.7734 S   0  0  0  0  0  0  0  0  0  0  0  0
   -2.8109    1.8862   -0.4119 C   0  0  0  0  0  0  0  0  0  0  0  0
   -1.4680    2.2776   -0.3314 C   0  0  0  0  0  0  0  0  0  0  0  0
   -0.8783    3.3177   -1.1306 N   0  0  0  0  0  0  0  0  0  0  0  0
   -1.3200    4.6620   -0.8632 C   0  0  0  0  0  0  0  0  0  0  0  0
   -1.3078    5.1541    0.4537 C   0  0  0  0  0  0  0  0  0  0  0  0
   -1.7481    6.4504    0.7235 C   0  0  0  0  0  0  0  0  0  0  0  0
   -2.2449    7.2553   -0.3073 C   0  0  0  0  0  0  0  0  0  0  0  0
   -2.8546    8.9026    0.0614 S   0  0  0  0  0  0  0  0  0  0  0  0
   -4.4865    8.3137    0.6323 C   0  0  0  0  0  0  0  0  0  0  0  0
   -2.2694    6.7678   -1.6197 C   0  0  0  0  0  0  0  0  0  0  0  0
   -1.7992    5.4805   -1.9014 C   0  0  0  0  0  0  0  0  0  0  0  0
    0.2249    3.0470   -2.0332 C   0  0  0  0  0  0  0  0  0  0  0  0
    1.1100    4.0762   -2.4185 C   0  0  0  0  0  0  0  0  0  0  0  0
    2.1714    3.8092   -3.2844 C   0  0  0  0  0  0  0  0  0  0  0  0
    2.3703    2.5180   -3.7819 C   0  0  0  0  0  0  0  0  0  0  0  0
    3.7317    2.1878   -4.9008 S   0  0  0  0  0  0  0  0  0  0  0  0
    4.8822    1.7537   -3.5594 C   0  0  0  0  0  0  0  0  0  0  0  0
    1.5043    1.4881   -3.4042 C   0  0  0  0  0  0  0  0  0  0  0  0
    0.4439    1.7488   -2.5344 C   0  0  0  0  0  0  0  0  0  0  0  0
   -0.8020    1.6031    0.6791 C   0  0  0  0  0  0  0  0  0  0  0  0
    0.8085    1.4544    1.1070 S   0  0  0  0  0  0  0  0  0  0  0  0
   -3.5705    1.9903   -1.6628 C   0  0  0  0  0  0  0  0  0  0  0  0
   -3.3302    1.0611   -2.6790 C   0  0  0  0  0  0  0  0  0  0  0  0
   -3.7475    1.2996   -4.0028 C   0  0  0  0  0  0  0  0  0  0  0  0
   -3.3478    0.2981   -4.9475 N   0  0  0  0  0  0  0  0  0  0  0  0
   -2.5575   -0.7041   -3.9899 S   0  0  0  0  0  4  0  0  0  0  0  0
   -2.5768   -0.1418   -2.4978 N   0  0  0  0  0  0  0  0  0  0  0  0
   -4.4449    2.4645   -4.3440 C   0  0  0  0  0  0  0  0  0  0  0  0
   -4.7887    3.3535   -3.3117 C   0  0  0  0  0  0  0  0  0  0  0  0
   -5.4901    4.4958   -3.5256 N   0  0  0  0  0  0  0  0  0  0  0  0
   -5.4992    5.1342   -2.0015 S   0  0  0  0  0  0  0  0  0  0  0  0
   -4.6607    4.0709   -1.0529 N   0  0  0  0  0  0  0  0  0  0  0  0
   -4.3388    3.1239   -1.9712 C   0  0  0  0  0  0  0  0  0  0  0  0
   -4.7313    2.7704   -5.7566 C   0  0  0  0  0  0  0  0  0  0  0  0
   -3.7495    2.9567   -6.6601 C   0  0  0  0  0  0  0  0  0  0  0  0
   -2.3499    3.2717   -6.3422 C   0  0  0  0  0  0  0  0  0  0  0  0
   -1.8072    3.2329   -5.2055 O   0  0  0  0  0  0  0  0  0  0  0  0
   -1.7102    3.7484   -7.5451 C   0  0  0  0  0  0  0  0  0  0  0  0
   -0.4099    4.2284   -7.6833 C   0  0  0  0  0  0  0  0  0  0  0  0
    0.0103    4.6773   -8.9482 C   0  0  0  0  0  0  0  0  0  0  0  0
    1.4014    5.2034   -9.1405 C   0  0  0  0  0  0  0  0  0  0  0  0
   -0.8930    4.6503  -10.0341 C   0  0  0  0  0  0  0  0  0  0  0  0
   -0.5032    5.0933  -11.2564 F   0  0  0  0  0  0  0  0  0  0  0  0
   -2.2063    4.1779   -9.8629 C   0  0  0  0  0  0  0  0  0  0  0  0
   -2.6054    3.7111   -8.6006 C   0  0  0  0  0  0  0  0  0  0  0  0
   -3.9001    3.1334   -8.1335 C   0  0  0  0  0  0  0  0  0  0  0  0
   -4.8955    2.6255   -8.9055 C   0  0  0  0  0  0  0  0  0  0  0  0
   -5.9339    1.7881   -8.3608 C   0  0  0  0  0  0  0  0  0  0  0  0
   -6.7816    1.1108   -7.9417 N   0  0  0  0  0  0  0  0  0  0  0  0
   -4.9279    2.7729  -10.3388 C   0  0  0  0  0  0  0  0  0  0  0  0
   -4.9773    2.8820  -11.4899 N   0  0  0  0  0  0  0  0  0  0  0  0
    4.2043   -3.9333    4.4108 H   0  0  0  0  0  0  0  0  0  0  0  0
    3.9885   -8.2371    1.1752 H   0  0  0  0  0  0  0  0  0  0  0  0
    4.0965   -4.2102   -1.9654 H   0  0  0  0  0  0  0  0  0  0  0  0
    4.3676   -7.2753   -3.6552 H   0  0  0  0  0  0  0  0  0  0  0  0
    2.0215   -6.5205   -4.4274 H   0  0  0  0  0  0  0  0  0  0  0  0
    0.5100   -5.8629   -2.3487 H   0  0  0  0  0  0  0  0  0  0  0  0
    0.3997   -7.8942   -0.7336 H   0  0  0  0  0  0  0  0  0  0  0  0
    1.8091   -9.8784   -1.7979 H   0  0  0  0  0  0  0  0  0  0  0  0
    0.7467   -8.7890   -3.9581 H   0  0  0  0  0  0  0  0  0  0  0  0
    2.5057   -9.1455   -4.2744 H   0  0  0  0  0  0  0  0  0  0  0  0
    4.2527   -9.1434   -2.2185 H   0  0  0  0  0  0  0  0  0  0  0  0
    3.5905   -1.4805    5.4221 H   0  0  0  0  0  0  0  0  0  0  0  0
    3.2466    3.4623    1.9400 H   0  0  0  0  0  0  0  0  0  0  0  0
    2.3264    4.3466    3.1849 H   0  0  0  0  0  0  0  0  0  0  0  0
    5.1563    3.1015    3.4541 H   0  0  0  0  0  0  0  0  0  0  0  0
    4.7687    4.8642    3.3432 H   0  0  0  0  0  0  0  0  0  0  0  0
    4.2899    3.9174    4.8055 H   0  0  0  0  0  0  0  0  0  0  0  0
    1.8300    4.1100    5.3745 H   0  0  0  0  0  0  0  0  0  0  0  0
    0.9845    3.5936    7.6054 H   0  0  0  0  0  0  0  0  0  0  0  0
    0.7091    1.2832    8.3359 H   0  0  0  0  0  0  0  0  0  0  0  0
    1.4638   -2.4409    8.2352 H   0  0  0  0  0  0  0  0  0  0  0  0
    1.7046   -0.7831    8.8641 H   0  0  0  0  0  0  0  0  0  0  0  0
   -0.8400   -0.4072    8.5067 H   0  0  0  0  0  0  0  0  0  0  0  0
   -0.4244   -1.6889    9.7092 H   0  0  0  0  0  0  0  0  0  0  0  0
   -0.9486   -2.1451    8.0486 H   0  0  0  0  0  0  0  0  0  0  0  0
   -2.2910    1.4663    4.3792 H   0  0  0  0  0  0  0  0  0  0  0  0
   -4.5777    2.1221    5.0318 H   0  0  0  0  0  0  0  0  0  0  0  0
   -8.5821    1.5745    3.2098 H   0  0  0  0  0  0  0  0  0  0  0  0
   -7.3939    0.3947    2.5372 H   0  0  0  0  0  0  0  0  0  0  0  0
   -6.8689    2.0812    2.9441 H   0  0  0  0  0  0  0  0  0  0  0  0
   -6.0189   -1.7856    3.9433 H   0  0  0  0  0  0  0  0  0  0  0  0
   -3.7453   -2.4389    3.2637 H   0  0  0  0  0  0  0  0  0  0  0  0
   -0.4609   -2.7721    1.6662 H   0  0  0  0  0  0  0  0  0  0  0  0
    0.3202   -5.0162    2.3436 H   0  0  0  0  0  0  0  0  0  0  0  0
    2.4754   -5.4287    4.8878 H   0  0  0  0  0  0  0  0  0  0  0  0
    1.6625   -5.2423    6.4959 H   0  0  0  0  0  0  0  0  0  0  0  0
    2.3698   -6.8342    6.0162 H   0  0  0  0  0  0  0  0  0  0  0  0
   -0.8217   -4.2010    6.4105 H   0  0  0  0  0  0  0  0  0  0  0  0
   -1.5160   -1.9284    5.7588 H   0  0  0  0  0  0  0  0  0  0  0  0
   -0.9413    4.5366    1.2699 H   0  0  0  0  0  0  0  0  0  0  0  0
   -1.7169    6.8239    1.7414 H   0  0  0  0  0  0  0  0  0  0  0  0
   -4.9985    9.1392    1.1642 H   0  0  0  0  0  0  0  0  0  0  0  0
   -5.1002    8.0051   -0.2379 H   0  0  0  0  0  0  0  0  0  0  0  0
   -4.3793    7.4598    1.3334 H   0  0  0  0  0  0  0  0  0  0  0  0
   -2.6550    7.3842   -2.4184 H   0  0  0  0  0  0  0  0  0  0  0  0
   -1.8371    5.1080   -2.9164 H   0  0  0  0  0  0  0  0  0  0  0  0
    1.0014    5.0793   -2.0279 H   0  0  0  0  0  0  0  0  0  0  0  0
    2.8439    4.6109   -3.5665 H   0  0  0  0  0  0  0  0  0  0  0  0
    5.8962    1.6077   -3.9842 H   0  0  0  0  0  0  0  0  0  0  0  0
    4.5543    0.8121   -3.0705 H   0  0  0  0  0  0  0  0  0  0  0  0
    4.9265    2.5693   -2.8069 H   0  0  0  0  0  0  0  0  0  0  0  0
    1.6567    0.4843   -3.7807 H   0  0  0  0  0  0  0  0  0  0  0  0
   -0.1991    0.9331   -2.2465 H   0  0  0  0  0  0  0  0  0  0  0  0
   -5.7686    2.8336   -6.0459 H   0  0  0  0  0  0  0  0  0  0  0  0
    0.2613    4.2471   -6.8321 H   0  0  0  0  0  0  0  0  0  0  0  0
    1.9960    5.1282   -8.2045 H   0  0  0  0  0  0  0  0  0  0  0  0
    1.9170    4.6178   -9.9291 H   0  0  0  0  0  0  0  0  0  0  0  0
    1.3556    6.2692   -9.4460 H   0  0  0  0  0  0  0  0  0  0  0  0
   -2.8732    4.1965  -10.7091 H   0  0  0  0  0  0  0  0  0  0  0  0
  1  2  2  3
  2  3  1  0
  3  4  2  0
  3  5  1  0
  5  6  2  0
  6  7  1  0
  7  8  2  0
  8  9  1  0
  9 10  2  0
 10 11  1  0
 11 12  2  3
 12 13  1  0
 13 14  3  0
 12 15  1  0
 15 16  3  0
  8 17  1  0
 17 18  1  0
 18 19  1  0
 19 20  2  0
 20 21  1  0
 21 22  1  0
 21 23  1  0
  1 24  1  0
 24 25  2  0
 25 26  1  0
 26 27  1  0
 27 28  2  0
 28 29  1  0
 29 30  1  0
 30 31  1  0
 28 32  1  0
 32 33  2  0
 33 34  1  0
 34 35  2  0
 35 36  1  0
 36 37  1  0
 37 38  1  0
 26 39  2  0
 39 40  1  0
 39 41  1  0
 41 42  2  0
 42 43  1  0
 43 44  1  0
 44 45  2  0
 45 46  1  0
 46 47  2  0
 47 48  1  0
 48 49  1  0
 47 50  1  0
 50 51  2  0
 43 52  1  0
 52 53  2  0
 53 54  1  0
 54 55  2  0
 55 56  1  0
 56 57  1  0
 55 58  1  0
 58 59  2  0
 42 60  1  0
 60 61  1  0
 61 62  1  0
 62 63  2  0
 63 64  1  0
 64 65  1  0
 65 66  2  0
 66 67  1  0
 67 68  2  0
 68 69  1  0
 69 70  1  0
 68 71  1  0
 71 72  2  0
 64 73  1  0
 73 74  2  0
 74 75  1  0
 75 76  2  0
 76 77  1  0
 77 78  1  0
 76 79  1  0
 79 80  2  0
 63 81  1  0
 81 82  1  0
 62 83  1  0
 83 84  2  0
 84 85  1  0
 85 86  1  0
 86 87  2  0
 87 88  2  0
 85 89  2  0
 89 90  1  0
 90 91  2  0
 91 92  1  0
 92 93  1  0
 93 94  2  0
 89 95  1  0
 95 96  2  3
 96 97  1  0
 97 98  2  0
 97 99  1  0
 99100  2  0
100101  1  0
101102  1  0
101103  2  0
103104  1  0
103105  1  0
105106  2  0
106107  1  0
107108  2  3
108109  1  0
109110  3  0
108111  1  0
111112  3  0
 11  2  1  0
 23 17  1  0
 40 24  1  0
 82 41  1  0
 94 83  1  0
107 96  1  0
 10  5  1  0
 22 18  1  0
 35 27  1  0
 51 44  1  0
 59 52  1  0
 81 60  2  0
 88 84  1  0
 94 90  1  0
106 99  1  0
 23  7  1  0
 72 65  1  0
 80 73  1  0
  1113  1  0
  6114  1  0
  9115  1  0
 17116  1  0
 18117  1  0
 19118  1  0
 20119  1  0
 21120  1  0
 22121  1  0
 22122  1  0
 23123  1  0
 25124  1  0
 30125  1  0
 30126  1  0
 31127  1  0
 31128  1  0
 31129  1  0
 32130  1  0
 33131  1  0
 34132  1  0
 37133  1  0
 37134  1  0
 38135  1  0
 38136  1  0
 38137  1  0
 45138  1  0
 46139  1  0
 49140  1  0
 49141  1  0
 49142  1  0
 50143  1  0
 51144  1  0
 53145  1  0
 54146  1  0
 57147  1  0
 57148  1  0
 57149  1  0
 58150  1  0
 59151  1  0
 66152  1  0
 67153  1  0
 70154  1  0
 70155  1  0
 70156  1  0
 71157  1  0
 72158  1  0
 74159  1  0
 75160  1  0
 78161  1  0
 78162  1  0
 78163  1  0
 79164  1  0
 80165  1  0
 95166  1  0
100167  1  0
102168  1  0
102169  1  0
102170  1  0
105171  1  0
M  END

