
     RDKit          3D

213235  0  0  0  0  0  0  0  0999 V2000
    6.8818   -3.1329   -3.2569 C   0  0  0  0  0  0  0  0  0  0  0  0
    6.1445   -3.4983   -4.3226 C   0  0  0  0  0  0  0  0  0  0  0  0
    4.6815   -3.3959   -4.4213 C   0  0  0  0  0  0  0  0  0  0  0  0
    3.9201   -2.7428   -3.6584 O   0  0  0  0  0  0  0  0  0  0  0  0
    4.2304   -4.2446   -5.4980 C   0  0  0  0  0  0  0  0  0  0  0  0
    2.8920   -4.5429   -5.8419 C   0  0  0  0  0  0  0  0  0  0  0  0
    2.7708   -5.4911   -6.8357 C   0  0  0  0  0  0  0  0  0  0  0  0
    3.8953   -6.1228   -7.4587 C   0  0  0  0  0  0  0  0  0  0  0  0
    5.2100   -5.8355   -7.1258 C   0  0  0  0  0  0  0  0  0  0  0  0
    5.3592   -4.8424   -6.1197 C   0  0  0  0  0  0  0  0  0  0  0  0
    6.5996   -4.3029   -5.4944 C   0  0  0  0  0  0  0  0  0  0  0  0
    7.8402   -4.2791   -6.0490 C   0  0  0  0  0  0  0  0  0  0  0  0
    8.8822   -3.4227   -5.5411 C   0  0  0  0  0  0  0  0  0  0  0  0
    9.7128   -2.7224   -5.1435 N   0  0  0  0  0  0  0  0  0  0  0  0
    8.1619   -4.9787   -7.2637 C   0  0  0  0  0  0  0  0  0  0  0  0
    8.4325   -5.5321   -8.2433 N   0  0  0  0  0  0  0  0  0  0  0  0
    2.9789   -6.9770   -8.2819 C   0  0  0  0  0  0  0  0  0  0  0  0
    2.8493   -8.4668   -7.8472 C   0  0  0  0  0  0  0  0  0  0  0  0
    1.6154   -8.9947   -8.5405 C   0  0  0  0  0  0  0  0  0  0  0  0
    0.5672   -8.4041   -7.9520 C   0  0  0  0  0  0  0  0  0  0  0  0
    1.1294   -7.5004   -6.8824 C   0  0  0  0  0  0  0  0  0  0  0  0
    2.2961   -8.3660   -6.4348 C   0  0  0  0  0  0  0  0  0  0  0  0
    1.8273   -6.3313   -7.6396 C   0  0  0  0  0  0  0  0  0  0  0  0
    6.3252   -2.3318   -2.1649 C   0  0  0  0  0  0  0  0  0  0  0  0
    6.1088   -0.9670   -2.2538 C   0  0  0  0  0  0  0  0  0  0  0  0
    5.2432   -0.4806   -1.2692 C   0  0  0  0  0  0  0  0  0  0  0  0
    4.6506    0.8745   -1.3541 C   0  0  0  0  0  0  0  0  0  0  0  0
    5.2136    1.9483   -0.6392 C   0  0  0  0  0  0  0  0  0  0  0  0
    6.4249    1.7489    0.0456 O   0  0  0  0  0  0  0  0  0  0  0  0
    7.2147    2.7808    0.6439 C   0  0  0  0  0  0  0  0  0  0  0  0
    7.8847    3.6537   -0.4166 C   0  0  0  0  0  0  0  0  0  0  0  0
    4.5584    3.1949   -0.6487 C   0  0  0  0  0  0  0  0  0  0  0  0
    3.4081    3.3839   -1.4119 C   0  0  0  0  0  0  0  0  0  0  0  0
    2.8997    2.3440   -2.1870 C   0  0  0  0  0  0  0  0  0  0  0  0
    3.5173    1.0805   -2.1702 C   0  0  0  0  0  0  0  0  0  0  0  0
    3.0340   -0.0000   -2.9299 O   0  0  0  0  0  0  0  0  0  0  0  0
    2.0253    0.0677   -3.9369 C   0  0  0  0  0  0  0  0  0  0  0  0
    2.5733    0.7291   -5.1965 C   0  0  0  0  0  0  0  0  0  0  0  0
    4.7894   -1.4776   -0.3945 C   0  0  0  0  0  0  0  0  0  0  0  0
    5.4325   -2.9517   -0.8759 S   0  0  0  0  0  0  0  0  0  0  0  0
    3.6537   -1.3234    0.5160 C   0  0  0  0  0  0  0  0  0  0  0  0
    3.7799   -0.6860    1.7619 C   0  0  0  0  0  0  0  0  0  0  0  0
    4.6303   -1.2050    2.7956 N   0  0  0  0  0  0  0  0  0  0  0  0
    5.4302   -0.3013    3.5692 C   0  0  0  0  0  0  0  0  0  0  0  0
    5.0756   -0.0030    4.8957 C   0  0  0  0  0  0  0  0  0  0  0  0
    5.8791    0.8401    5.6650 C   0  0  0  0  0  0  0  0  0  0  0  0
    7.0475    1.3823    5.1209 C   0  0  0  0  0  0  0  0  0  0  0  0
    8.0960    2.4444    6.1166 S   0  0  0  0  0  0  0  0  0  0  0  0
    7.1969    3.9604    5.6550 C   0  0  0  0  0  0  0  0  0  0  0  0
    7.4155    1.0673    3.8089 C   0  0  0  0  0  0  0  0  0  0  0  0
    6.6038    0.2349    3.0290 C   0  0  0  0  0  0  0  0  0  0  0  0
    4.4279   -2.5549    3.2732 C   0  0  0  0  0  0  0  0  0  0  0  0
    5.5124   -3.3028    3.7681 C   0  0  0  0  0  0  0  0  0  0  0  0
    5.3189   -4.6043    4.2436 C   0  0  0  0  0  0  0  0  0  0  0  0
    4.0401   -5.1693    4.2478 C   0  0  0  0  0  0  0  0  0  0  0  0
    3.7947   -6.8472    4.8350 S   0  0  0  0  0  0  0  0  0  0  0  0
    3.4914   -6.3390    6.5557 C   0  0  0  0  0  0  0  0  0  0  0  0
    2.9533   -4.4336    3.7652 C   0  0  0  0  0  0  0  0  0  0  0  0
    3.1441   -3.1383    3.2785 C   0  0  0  0  0  0  0  0  0  0  0  0
    2.6291    0.0423    2.0563 C   0  0  0  0  0  0  0  0  0  0  0  0
    2.1508    1.0358    3.3219 S   0  0  0  0  0  0  0  0  0  0  0  0
    0.6030    1.3031    2.6641 C   0  0  0  0  0  0  0  0  0  0  0  0
    0.4494    0.5855    1.4688 C   0  0  0  0  0  0  0  0  0  0  0  0
   -0.8291    0.1832    0.9469 N   0  0  0  0  0  0  0  0  0  0  0  0
   -1.4927    0.9609   -0.0753 C   0  0  0  0  0  0  0  0  0  0  0  0
   -0.7546    1.5777   -1.1004 C   0  0  0  0  0  0  0  0  0  0  0  0
   -1.4111    2.1519   -2.1956 C   0  0  0  0  0  0  0  0  0  0  0  0
   -2.8087    2.1033   -2.2852 C   0  0  0  0  0  0  0  0  0  0  0  0
   -3.6388    2.6376   -3.7879 S   0  0  0  0  0  0  0  0  0  0  0  0
   -4.3121    4.1711   -3.0742 C   0  0  0  0  0  0  0  0  0  0  0  0
   -3.5496    1.5415   -1.2405 C   0  0  0  0  0  0  0  0  0  0  0  0
   -2.8974    0.9968   -0.1318 C   0  0  0  0  0  0  0  0  0  0  0  0
   -1.3188   -1.1334    1.3094 C   0  0  0  0  0  0  0  0  0  0  0  0
   -1.0818   -1.6529    2.5971 C   0  0  0  0  0  0  0  0  0  0  0  0
   -1.4842   -2.9491    2.9283 C   0  0  0  0  0  0  0  0  0  0  0  0
   -2.1526   -3.7369    1.9903 C   0  0  0  0  0  0  0  0  0  0  0  0
   -2.6596   -5.4046    2.4192 S   0  0  0  0  0  0  0  0  0  0  0  0
   -1.1719   -6.1650    1.6928 C   0  0  0  0  0  0  0  0  0  0  0  0
   -2.4169   -3.2273    0.7156 C   0  0  0  0  0  0  0  0  0  0  0  0
   -1.9840   -1.9452    0.3678 C   0  0  0  0  0  0  0  0  0  0  0  0
    1.6186   -0.0923    1.1646 C   0  0  0  0  0  0  0  0  0  0  0  0
    2.0837   -1.0766   -0.0970 S   0  0  0  0  0  0  0  0  0  0  0  0
   -0.3164    2.3355    3.1207 C   0  0  0  0  0  0  0  0  0  0  0  0
   -0.7039    3.4099    2.3389 C   0  0  0  0  0  0  0  0  0  0  0  0
   -1.7033    4.1856    2.9352 C   0  0  0  0  0  0  0  0  0  0  0  0
   -2.3473    5.2924    2.3497 C   0  0  0  0  0  0  0  0  0  0  0  0
   -1.9626    5.8110    1.0225 C   0  0  0  0  0  0  0  0  0  0  0  0
   -1.8936    5.0680   -0.1506 C   0  0  0  0  0  0  0  0  0  0  0  0
   -1.4133    5.7992   -1.2406 C   0  0  0  0  0  0  0  0  0  0  0  0
   -1.1131    7.1139   -0.9218 C   0  0  0  0  0  0  0  0  0  0  0  0
   -0.5307    8.3545   -2.0755 S   0  0  0  0  0  0  0  0  0  0  0  0
    1.2350    7.8882   -1.9631 C   0  0  0  0  0  0  0  0  0  0  0  0
    1.5556    6.7427   -2.9156 C   0  0  0  0  0  0  0  0  0  0  0  0
   -1.4447    7.3825    0.7057 S   0  0  0  0  0  0  0  0  0  0  0  0
   -3.4538    5.8101    3.0382 C   0  0  0  0  0  0  0  0  0  0  0  0
   -3.8671    5.3109    4.2827 C   0  0  0  0  0  0  0  0  0  0  0  0
   -3.1404    4.2867    4.9277 C   0  0  0  0  0  0  0  0  0  0  0  0
   -3.5343    3.7810    6.2590 C   0  0  0  0  0  0  0  0  0  0  0  0
   -3.7662    4.5754    7.3821 C   0  0  0  0  0  0  0  0  0  0  0  0
   -4.1143    3.8374    8.5193 C   0  0  0  0  0  0  0  0  0  0  0  0
   -4.1589    2.4689    8.2852 C   0  0  0  0  0  0  0  0  0  0  0  0
   -4.5861    1.2195    9.4921 S   0  0  0  0  0  0  0  0  0  0  0  0
   -2.8620    0.8935   10.0061 C   0  0  0  0  0  0  0  0  0  0  0  0
   -2.2228   -0.1565    9.1065 C   0  0  0  0  0  0  0  0  0  0  0  0
   -3.7820    2.1685    6.6764 S   0  0  0  0  0  0  0  0  0  0  0  0
   -2.0786    3.7168    4.2003 C   0  0  0  0  0  0  0  0  0  0  0  0
   -1.1557    2.3507    4.5796 S   0  0  0  0  0  0  0  0  0  0  0  0
   -5.1578    5.7344    4.6396 C   0  0  0  0  0  0  0  0  0  0  0  0
   -5.7717    6.5039    3.6519 C   0  0  0  0  0  0  0  0  0  0  0  0
   -4.6889    6.7385    2.3810 S   0  0  0  0  0  0  0  0  0  0  0  0
   -7.2242    6.5241    3.4403 C   0  0  0  0  0  0  0  0  0  0  0  0
   -7.8899    5.4482    2.9654 C   0  0  0  0  0  0  0  0  0  0  0  0
   -7.2686    4.1981    2.4950 C   0  0  0  0  0  0  0  0  0  0  0  0
   -6.0929    3.8073    2.7175 O   0  0  0  0  0  0  0  0  0  0  0  0
   -8.2209    3.4735    1.6947 C   0  0  0  0  0  0  0  0  0  0  0  0
   -7.9813    2.2783    0.9774 C   0  0  0  0  0  0  0  0  0  0  0  0
   -9.0618    1.8462    0.2361 C   0  0  0  0  0  0  0  0  0  0  0  0
  -10.3107    2.5427    0.1978 C   0  0  0  0  0  0  0  0  0  0  0  0
  -10.5490    3.7171    0.8972 C   0  0  0  0  0  0  0  0  0  0  0  0
   -9.4501    4.1779    1.6791 C   0  0  0  0  0  0  0  0  0  0  0  0
   -9.3279    5.3842    2.5554 C   0  0  0  0  0  0  0  0  0  0  0  0
  -10.3447    6.1427    3.0442 C   0  0  0  0  0  0  0  0  0  0  0  0
  -10.1501    7.0883    4.1123 C   0  0  0  0  0  0  0  0  0  0  0  0
  -10.0073    7.8440    4.9777 N   0  0  0  0  0  0  0  0  0  0  0  0
  -11.7109    5.9855    2.6227 C   0  0  0  0  0  0  0  0  0  0  0  0
  -12.8180    5.8689    2.3032 N   0  0  0  0  0  0  0  0  0  0  0  0
  -10.8710    1.5160   -0.7444 C   0  0  0  0  0  0  0  0  0  0  0  0
  -11.8802    0.4726   -0.1759 C   0  0  0  0  0  0  0  0  0  0  0  0
  -11.5778    0.2020    1.2812 C   0  0  0  0  0  0  0  0  0  0  0  0
  -10.4121   -0.4445    1.3147 C   0  0  0  0  0  0  0  0  0  0  0  0
   -9.9588   -0.5893   -0.1192 C   0  0  0  0  0  0  0  0  0  0  0  0
  -11.3090   -0.7982   -0.7776 C   0  0  0  0  0  0  0  0  0  0  0  0
   -9.5894    0.8052   -0.7066 C   0  0  0  0  0  0  0  0  0  0  0  0
    7.9219   -3.4124   -3.1764 H   0  0  0  0  0  0  0  0  0  0  0  0
    2.0399   -4.1023   -5.3404 H   0  0  0  0  0  0  0  0  0  0  0  0
    6.0251   -6.3804   -7.5706 H   0  0  0  0  0  0  0  0  0  0  0  0
    3.0598   -6.7962   -9.3782 H   0  0  0  0  0  0  0  0  0  0  0  0
    3.7621   -9.0856   -7.9685 H   0  0  0  0  0  0  0  0  0  0  0  0
    1.5651   -9.7734   -9.2928 H   0  0  0  0  0  0  0  0  0  0  0  0
   -0.4789   -8.6227   -8.1461 H   0  0  0  0  0  0  0  0  0  0  0  0
    0.4140   -7.2027   -6.0877 H   0  0  0  0  0  0  0  0  0  0  0  0
    1.9859   -9.3526   -6.0119 H   0  0  0  0  0  0  0  0  0  0  0  0
    2.9816   -7.8708   -5.7094 H   0  0  0  0  0  0  0  0  0  0  0  0
    1.1766   -5.7454   -8.3262 H   0  0  0  0  0  0  0  0  0  0  0  0
    6.4689   -0.3627   -3.0787 H   0  0  0  0  0  0  0  0  0  0  0  0
    6.5991    3.3933    1.3392 H   0  0  0  0  0  0  0  0  0  0  0  0
    8.0147    2.3033    1.2437 H   0  0  0  0  0  0  0  0  0  0  0  0
    7.1401    4.0575   -1.1317 H   0  0  0  0  0  0  0  0  0  0  0  0
    8.4010    4.5035    0.0763 H   0  0  0  0  0  0  0  0  0  0  0  0
    8.6347    3.0567   -0.9752 H   0  0  0  0  0  0  0  0  0  0  0  0
    4.9329    4.0307   -0.0763 H   0  0  0  0  0  0  0  0  0  0  0  0
    2.9162    4.3464   -1.4155 H   0  0  0  0  0  0  0  0  0  0  0  0
    2.0181    2.5313   -2.7823 H   0  0  0  0  0  0  0  0  0  0  0  0
    1.7212   -0.9703   -4.1942 H   0  0  0  0  0  0  0  0  0  0  0  0
    1.1216    0.5968   -3.5636 H   0  0  0  0  0  0  0  0  0  0  0  0
    2.7811    1.8038   -5.0147 H   0  0  0  0  0  0  0  0  0  0  0  0
    1.8306    0.6429   -6.0170 H   0  0  0  0  0  0  0  0  0  0  0  0
    3.5149    0.2269   -5.5054 H   0  0  0  0  0  0  0  0  0  0  0  0
    4.1784   -0.4296    5.3280 H   0  0  0  0  0  0  0  0  0  0  0  0
    5.5937    1.0692    6.6849 H   0  0  0  0  0  0  0  0  0  0  0  0
    6.1322    3.8825    5.9575 H   0  0  0  0  0  0  0  0  0  0  0  0
    7.6608    4.8269    6.1741 H   0  0  0  0  0  0  0  0  0  0  0  0
    7.2614    4.1209    4.5562 H   0  0  0  0  0  0  0  0  0  0  0  0
    8.3369    1.4542    3.3992 H   0  0  0  0  0  0  0  0  0  0  0  0
    6.9015   -0.0220    2.0207 H   0  0  0  0  0  0  0  0  0  0  0  0
    6.5095   -2.8810    3.7711 H   0  0  0  0  0  0  0  0  0  0  0  0
    6.1650   -5.1704    4.6116 H   0  0  0  0  0  0  0  0  0  0  0  0
    2.6077   -5.6679    6.6089 H   0  0  0  0  0  0  0  0  0  0  0  0
    3.2953   -7.2424    7.1693 H   0  0  0  0  0  0  0  0  0  0  0  0
    4.3842   -5.8168    6.9609 H   0  0  0  0  0  0  0  0  0  0  0  0
    1.9606   -4.8657    3.7601 H   0  0  0  0  0  0  0  0  0  0  0  0
    2.2820   -2.5908    2.9199 H   0  0  0  0  0  0  0  0  0  0  0  0
    0.3274    1.5619   -1.0821 H   0  0  0  0  0  0  0  0  0  0  0  0
   -0.8294    2.5839   -2.9989 H   0  0  0  0  0  0  0  0  0  0  0  0
   -4.9849    3.9343   -2.2232 H   0  0  0  0  0  0  0  0  0  0  0  0
   -3.4954    4.8330   -2.7312 H   0  0  0  0  0  0  0  0  0  0  0  0
   -4.8963    4.7040   -3.8537 H   0  0  0  0  0  0  0  0  0  0  0  0
   -4.6286    1.4997   -1.2965 H   0  0  0  0  0  0  0  0  0  0  0  0
   -3.4857    0.5493    0.6612 H   0  0  0  0  0  0  0  0  0  0  0  0
   -0.5798   -1.0616    3.3510 H   0  0  0  0  0  0  0  0  0  0  0  0
   -1.2787   -3.3358    3.9193 H   0  0  0  0  0  0  0  0  0  0  0  0
   -0.2602   -5.8150    2.2241 H   0  0  0  0  0  0  0  0  0  0  0  0
   -1.1008   -5.9017    0.6149 H   0  0  0  0  0  0  0  0  0  0  0  0
   -1.2411   -7.2698    1.7884 H   0  0  0  0  0  0  0  0  0  0  0  0
   -2.9287   -3.8356   -0.0181 H   0  0  0  0  0  0  0  0  0  0  0  0
   -2.1517   -1.6000   -0.6441 H   0  0  0  0  0  0  0  0  0  0  0  0
   -0.2861    3.5907    1.3568 H   0  0  0  0  0  0  0  0  0  0  0  0
   -2.1805    4.0287   -0.2112 H   0  0  0  0  0  0  0  0  0  0  0  0
   -1.2811    5.3811   -2.2281 H   0  0  0  0  0  0  0  0  0  0  0  0
    1.5104    7.6093   -0.9232 H   0  0  0  0  0  0  0  0  0  0  0  0
    1.8376    8.7740   -2.2577 H   0  0  0  0  0  0  0  0  0  0  0  0
    1.1435    6.9482   -3.9267 H   0  0  0  0  0  0  0  0  0  0  0  0
    2.6575    6.6257   -2.9998 H   0  0  0  0  0  0  0  0  0  0  0  0
    1.1362    5.7892   -2.5297 H   0  0  0  0  0  0  0  0  0  0  0  0
   -3.6819    5.6565    7.3794 H   0  0  0  0  0  0  0  0  0  0  0  0
   -4.3310    4.2879    9.4791 H   0  0  0  0  0  0  0  0  0  0  0  0
   -2.2552    1.8258    9.9961 H   0  0  0  0  0  0  0  0  0  0  0  0
   -2.8759    0.5053   11.0466 H   0  0  0  0  0  0  0  0  0  0  0  0
   -2.1237    0.2266    8.0687 H   0  0  0  0  0  0  0  0  0  0  0  0
   -2.8418   -1.0792    9.1003 H   0  0  0  0  0  0  0  0  0  0  0  0
   -1.2099   -0.4102    9.4885 H   0  0  0  0  0  0  0  0  0  0  0  0
   -5.7102    5.3300    5.4784 H   0  0  0  0  0  0  0  0  0  0  0  0
   -7.7160    7.4768    3.5620 H   0  0  0  0  0  0  0  0  0  0  0  0
   -7.0338    1.7548    0.9864 H   0  0  0  0  0  0  0  0  0  0  0  0
  -11.4923    4.2262    0.8025 H   0  0  0  0  0  0  0  0  0  0  0  0
  -11.1276    1.9170   -1.7508 H   0  0  0  0  0  0  0  0  0  0  0  0
  -12.9477    0.6718   -0.4053 H   0  0  0  0  0  0  0  0  0  0  0  0
  -12.2171    0.4054    2.1332 H   0  0  0  0  0  0  0  0  0  0  0  0
   -9.9402   -0.8575    2.1977 H   0  0  0  0  0  0  0  0  0  0  0  0
   -9.2103   -1.3924   -0.2958 H   0  0  0  0  0  0  0  0  0  0  0  0
  -11.2669   -0.7831   -1.8931 H   0  0  0  0  0  0  0  0  0  0  0  0
  -11.8302   -1.7250   -0.4369 H   0  0  0  0  0  0  0  0  0  0  0  0
   -9.0615    0.7782   -1.6858 H   0  0  0  0  0  0  0  0  0  0  0  0
  1  2  2  3
  2  3  1  0
  3  4  2  0
  3  5  1  0
  5  6  2  0
  6  7  1  0
  7  8  2  0
  8  9  1  0
  9 10  2  0
 10 11  1  0
 11 12  2  3
 12 13  1  0
 13 14  3  0
 12 15  1  0
 15 16  3  0
  8 17  1  0
 17 18  1  0
 18 19  1  0
 19 20  2  0
 20 21  1  0
 21 22  1  0
 21 23  1  0
  1 24  1  0
 24 25  2  0
 25 26  1  0
 26 27  1  0
 27 28  2  0
 28 29  1  0
 29 30  1  0
 30 31  1  0
 28 32  1  0
 32 33  2  0
 33 34  1  0
 34 35  2  0
 35 36  1  0
 36 37  1  0
 37 38  1  0
 26 39  2  0
 39 40  1  0
 39 41  1  0
 41 42  2  0
 42 43  1  0
 43 44  1  0
 44 45  2  0
 45 46  1  0
 46 47  2  0
 47 48  1  0
 48 49  1  0
 47 50  1  0
 50 51  2  0
 43 52  1  0
 52 53  2  0
 53 54  1  0
 54 55  2  0
 55 56  1  0
 56 57  1  0
 55 58  1  0
 58 59  2  0
 42 60  1  0
 60 61  1  0
 61 62  1  0
 62 63  2  0
 63 64  1  0
 64 65  1  0
 65 66  2  0
 66 67  1  0
 67 68  2  0
 68 69  1  0
 69 70  1  0
 68 71  1  0
 71 72  2  0
 64 73  1  0
 73 74  2  0
 74 75  1  0
 75 76  2  0
 76 77  1  0
 77 78  1  0
 76 79  1  0
 79 80  2  0
 63 81  1  0
 81 82  1  0
 62 83  1  0
 83 84  2  0
 84 85  1  0
 85 86  2  0
 86 87  1  0
 87 88  2  0
 88 89  1  0
 89 90  2  0
 90 91  1  0
 91 92  1  0
 92 93  1  0
 90 94  1  0
 86 95  1  0
 95 96  2  0
 96 97  1  0
 97 98  1  0
 98 99  2  0
 99100  1  0
100101  2  0
101102  1  0
102103  1  0
103104  1  0
101105  1  0
 97106  2  0
106107  1  0
 96108  1  0
108109  2  0
109110  1  0
109111  1  0
111112  2  3
112113  1  0
113114  2  0
113115  1  0
115116  2  0
116117  1  0
117118  2  0
118119  1  0
119120  2  0
120121  1  0
121122  2  3
122123  1  0
123124  3  0
122125  1  0
125126  3  0
118127  1  0
127128  1  0
128129  1  0
129130  2  0
130131  1  0
131132  1  0
131133  1  0
 11  2  1  0
 23 17  1  0
 40 24  1  0
 82 41  1  0
107 83  1  0
121112  1  0
133127  1  0
 10  5  1  0
 22 18  1  0
 35 27  1  0
 51 44  1  0
 59 52  1  0
 81 60  2  0
106 85  1  0
120115  1  0
132128  1  0
 23  7  1  0
 72 65  1  0
 80 73  1  0
 94 87  1  0
110 95  1  0
133117  1  0
105 98  1  0
  1134  1  0
  6135  1  0
  9136  1  0
 17137  1  0
 18138  1  0
 19139  1  0
 20140  1  0
 21141  1  0
 22142  1  0
 22143  1  0
 23144  1  0
 25145  1  0
 30146  1  0
 30147  1  0
 31148  1  0
 31149  1  0
 31150  1  0
 32151  1  0
 33152  1  0
 34153  1  0
 37154  1  0
 37155  1  0
 38156  1  0
 38157  1  0
 38158  1  0
 45159  1  0
 46160  1  0
 49161  1  0
 49162  1  0
 49163  1  0
 50164  1  0
 51165  1  0
 53166  1  0
 54167  1  0
 57168  1  0
 57169  1  0
 57170  1  0
 58171  1  0
 59172  1  0
 66173  1  0
 67174  1  0
 70175  1  0
 70176  1  0
 70177  1  0
 71178  1  0
 72179  1  0
 74180  1  0
 75181  1  0
 78182  1  0
 78183  1  0
 78184  1  0
 79185  1  0
 80186  1  0
 84187  1  0
 88188  1  0
 89189  1  0
 92190  1  0
 92191  1  0
 93192  1  0
 93193  1  0
 93194  1  0
 99195  1  0
100196  1  0
103197  1  0
103198  1  0
104199  1  0
104200  1  0
104201  1  0
108202  1  0
111203  1  0
116204  1  0
119205  1  0
127206  1  0
128207  1  0
129208  1  0
130209  1  0
131210  1  0
132211  1  0
132212  1  0
133213  1  0
M  END

