
     RDKit          3D

170188  0  0  0  0  0  0  0  0999 V2000
   -2.5599   -2.0171    4.2883 C   0  0  0  0  0  0  0  0  0  0  0  0
   -3.0055   -3.2602    4.0605 C   0  0  0  0  0  0  0  0  0  0  0  0
   -3.7933   -3.6521    2.8893 C   0  0  0  0  0  0  0  0  0  0  0  0
   -4.2740   -2.8771    2.0242 O   0  0  0  0  0  0  0  0  0  0  0  0
   -3.9546   -5.0834    2.8981 C   0  0  0  0  0  0  0  0  0  0  0  0
   -4.6601   -5.8541    1.9499 C   0  0  0  0  0  0  0  0  0  0  0  0
   -4.6540   -7.2092    2.2081 C   0  0  0  0  0  0  0  0  0  0  0  0
   -3.9817   -7.7814    3.3310 C   0  0  0  0  0  0  0  0  0  0  0  0
   -3.2947   -7.0334    4.2726 C   0  0  0  0  0  0  0  0  0  0  0  0
   -3.2922   -5.6274    4.0289 C   0  0  0  0  0  0  0  0  0  0  0  0
   -2.7054   -4.5122    4.8370 C   0  0  0  0  0  0  0  0  0  0  0  0
   -2.0620   -4.6213    6.0358 C   0  0  0  0  0  0  0  0  0  0  0  0
   -1.7189   -5.8848    6.6318 C   0  0  0  0  0  0  0  0  0  0  0  0
   -1.4298   -6.8889    7.1319 N   0  0  0  0  0  0  0  0  0  0  0  0
   -1.6806   -3.4925    6.8376 C   0  0  0  0  0  0  0  0  0  0  0  0
   -1.3619   -2.5985    7.5038 N   0  0  0  0  0  0  0  0  0  0  0  0
   -4.3995   -9.1578    2.9058 C   0  0  0  0  0  0  0  0  0  0  0  0
   -3.2983  -10.0416    2.2479 C   0  0  0  0  0  0  0  0  0  0  0  0
   -4.0306  -11.1700    1.5672 C   0  0  0  0  0  0  0  0  0  0  0  0
   -4.6655  -10.6346    0.5191 C   0  0  0  0  0  0  0  0  0  0  0  0
   -4.3437   -9.1624    0.5284 C   0  0  0  0  0  0  0  0  0  0  0  0
   -2.9044   -9.2432    1.0177 C   0  0  0  0  0  0  0  0  0  0  0  0
   -5.0960   -8.5691    1.7571 C   0  0  0  0  0  0  0  0  0  0  0  0
   -2.6655   -0.9289    3.3141 C   0  0  0  0  0  0  0  0  0  0  0  0
   -1.7005   -0.6200    2.3329 C   0  0  0  0  0  0  0  0  0  0  0  0
   -0.5980   -1.4670    1.9445 N   0  0  0  0  0  0  0  0  0  0  0  0
    0.1107   -2.2757    2.8999 C   0  0  0  0  0  0  0  0  0  0  0  0
    0.3241   -3.6416    2.6483 C   0  0  0  0  0  0  0  0  0  0  0  0
    1.0743   -4.4129    3.5367 C   0  0  0  0  0  0  0  0  0  0  0  0
    1.6323   -3.8240    4.6781 C   0  0  0  0  0  0  0  0  0  0  0  0
    2.7019   -4.7808    5.7560 S   0  0  0  0  0  0  0  0  0  0  0  0
    4.2093   -4.2939    4.8562 C   0  0  0  0  0  0  0  0  0  0  0  0
    1.3950   -2.4713    4.9504 C   0  0  0  0  0  0  0  0  0  0  0  0
    0.6393   -1.6971    4.0638 C   0  0  0  0  0  0  0  0  0  0  0  0
   -0.1326   -1.4733    0.5853 C   0  0  0  0  0  0  0  0  0  0  0  0
   -0.9811   -1.8916   -0.4513 C   0  0  0  0  0  0  0  0  0  0  0  0
   -0.5211   -1.9054   -1.7724 C   0  0  0  0  0  0  0  0  0  0  0  0
    0.7858   -1.4921   -2.0636 C   0  0  0  0  0  0  0  0  0  0  0  0
    1.3795   -1.4970   -3.7561 S   0  0  0  0  0  0  0  0  0  0  0  0
    0.7577    0.1786   -4.1014 C   0  0  0  0  0  0  0  0  0  0  0  0
    1.6380   -1.0781   -1.0295 C   0  0  0  0  0  0  0  0  0  0  0  0
    1.1828   -1.0843    0.2899 C   0  0  0  0  0  0  0  0  0  0  0  0
   -1.9542    0.6300    1.7804 C   0  0  0  0  0  0  0  0  0  0  0  0
   -1.1090    1.6453    0.7564 S   0  0  0  0  0  0  0  0  0  0  0  0
   -2.2225    2.9324    0.8888 C   0  0  0  0  0  0  0  0  0  0  0  0
   -3.2628    2.5636    1.7618 C   0  0  0  0  0  0  0  0  0  0  0  0
   -4.5797    3.1374    1.7011 N   0  0  0  0  0  0  0  0  0  0  0  0
   -5.4527    2.5525    0.7149 C   0  0  0  0  0  0  0  0  0  0  0  0
   -6.3618    1.5480    1.0787 C   0  0  0  0  0  0  0  0  0  0  0  0
   -7.1546    0.9204    0.1111 C   0  0  0  0  0  0  0  0  0  0  0  0
   -7.0337    1.2846   -1.2346 C   0  0  0  0  0  0  0  0  0  0  0  0
   -8.0689    0.4951   -2.4704 S   0  0  0  0  0  0  0  0  0  0  0  0
   -6.8675   -0.8303   -2.8098 C   0  0  0  0  0  0  0  0  0  0  0  0
   -6.1201    2.2816   -1.6078 C   0  0  0  0  0  0  0  0  0  0  0  0
   -5.3320    2.9134   -0.6363 C   0  0  0  0  0  0  0  0  0  0  0  0
   -5.1072    3.9972    2.7446 C   0  0  0  0  0  0  0  0  0  0  0  0
   -6.4678    4.3904    2.7348 C   0  0  0  0  0  0  0  0  0  0  0  0
   -6.9920    5.1856    3.7521 C   0  0  0  0  0  0  0  0  0  0  0  0
   -6.1631    5.6394    4.7819 C   0  0  0  0  0  0  0  0  0  0  0  0
   -6.8352    6.7140    6.0487 S   0  0  0  0  0  0  0  0  0  0  0  0
   -7.1447    5.3532    7.2244 C   0  0  0  0  0  0  0  0  0  0  0  0
   -4.8119    5.2762    4.8034 C   0  0  0  0  0  0  0  0  0  0  0  0
   -4.2921    4.4494    3.8024 C   0  0  0  0  0  0  0  0  0  0  0  0
   -3.0549    1.2685    2.2491 C   0  0  0  0  0  0  0  0  0  0  0  0
   -3.8065    0.3385    3.4255 S   0  0  0  0  0  0  0  0  0  0  0  0
   -1.7581    4.2959    0.6245 C   0  0  0  0  0  0  0  0  0  0  0  0
   -1.6091    4.7474   -0.6844 C   0  0  0  0  0  0  0  0  0  0  0  0
   -2.1412    4.2288   -1.8018 N   0  0  0  0  0  0  0  0  0  0  0  0
   -1.5513    4.8832   -2.7939 N   0  0  0  0  0  0  0  0  0  0  0  0
   -1.7992    4.6032   -4.2015 C   0  0  0  0  0  0  0  0  0  0  0  0
   -0.8337    3.5332   -4.6994 C   0  0  0  0  0  0  0  0  0  0  0  0
   -0.6246    5.7389   -2.3783 N   0  0  0  0  0  0  0  0  0  0  0  0
   -0.6682    5.6730   -1.0362 C   0  0  0  0  0  0  0  0  0  0  0  0
    0.2231    6.2232   -0.1054 C   0  0  0  0  0  0  0  0  0  0  0  0
   -0.0173    5.9176    1.2560 C   0  0  0  0  0  0  0  0  0  0  0  0
   -0.9845    4.9533    1.6142 C   0  0  0  0  0  0  0  0  0  0  0  0
   -1.0243    4.5270    2.8998 F   0  0  0  0  0  0  0  0  0  0  0  0
    0.7663    6.4517    2.2274 F   0  0  0  0  0  0  0  0  0  0  0  0
    1.5319    6.7790   -0.5342 C   0  0  0  0  0  0  0  0  0  0  0  0
    2.7494    6.3957    0.0349 C   0  0  0  0  0  0  0  0  0  0  0  0
    3.8547    6.6522   -0.7754 C   0  0  0  0  0  0  0  0  0  0  0  0
    5.4893    6.0123   -0.3929 S   0  0  0  0  0  0  0  0  0  0  0  0
    6.0845    7.5283    0.4219 C   0  0  0  0  0  0  0  0  0  0  0  0
    5.6287    7.5559    1.8759 C   0  0  0  0  0  0  0  0  0  0  0  0
    3.5349    7.2513   -1.9898 C   0  0  0  0  0  0  0  0  0  0  0  0
    1.8639    7.4506   -2.0475 S   0  0  0  0  0  0  0  0  0  0  0  0
    4.4083    7.2170   -3.1698 C   0  0  0  0  0  0  0  0  0  0  0  0
    4.4709    6.1348   -3.9743 C   0  0  0  0  0  0  0  0  0  0  0  0
    3.7252    4.8821   -3.7751 C   0  0  0  0  0  0  0  0  0  0  0  0
    2.6950    4.7169   -3.0717 O   0  0  0  0  0  0  0  0  0  0  0  0
    4.3805    3.8318   -4.5083 C   0  0  0  0  0  0  0  0  0  0  0  0
    4.0428    2.4603   -4.5018 C   0  0  0  0  0  0  0  0  0  0  0  0
    4.9009    1.6673   -5.2361 C   0  0  0  0  0  0  0  0  0  0  0  0
    6.0443    2.1825   -5.9288 C   0  0  0  0  0  0  0  0  0  0  0  0
    6.3838    3.5275   -5.9366 C   0  0  0  0  0  0  0  0  0  0  0  0
    5.4887    4.3689   -5.2098 C   0  0  0  0  0  0  0  0  0  0  0  0
    5.5223    5.8486   -5.0012 C   0  0  0  0  0  0  0  0  0  0  0  0
    6.2054    6.7657   -5.7373 C   0  0  0  0  0  0  0  0  0  0  0  0
    5.9412    8.1772   -5.6382 C   0  0  0  0  0  0  0  0  0  0  0  0
    5.7338    9.3160   -5.5763 N   0  0  0  0  0  0  0  0  0  0  0  0
    7.1380    6.3967   -6.7661 C   0  0  0  0  0  0  0  0  0  0  0  0
    7.8932    6.1202   -7.5999 N   0  0  0  0  0  0  0  0  0  0  0  0
    6.3922    0.8003   -6.4062 C   0  0  0  0  0  0  0  0  0  0  0  0
    6.1068    0.4463   -7.8958 C   0  0  0  0  0  0  0  0  0  0  0  0
    4.9292    1.2485   -8.3951 C   0  0  0  0  0  0  0  0  0  0  0  0
    3.8523    0.7880   -7.7532 C   0  0  0  0  0  0  0  0  0  0  0  0
    4.3390   -0.3152   -6.8410 C   0  0  0  0  0  0  0  0  0  0  0  0
    5.4245   -0.8990   -7.7244 C   0  0  0  0  0  0  0  0  0  0  0  0
    5.2151    0.2781   -5.6998 C   0  0  0  0  0  0  0  0  0  0  0  0
   -1.9659   -1.7774    5.1432 H   0  0  0  0  0  0  0  0  0  0  0  0
   -5.1626   -5.4313    1.0887 H   0  0  0  0  0  0  0  0  0  0  0  0
   -2.8231   -7.5234    5.1020 H   0  0  0  0  0  0  0  0  0  0  0  0
   -5.0613   -9.6693    3.6396 H   0  0  0  0  0  0  0  0  0  0  0  0
   -2.4663  -10.3514    2.9171 H   0  0  0  0  0  0  0  0  0  0  0  0
   -3.9836  -12.2275    1.8042 H   0  0  0  0  0  0  0  0  0  0  0  0
   -5.2303  -11.1882   -0.2229 H   0  0  0  0  0  0  0  0  0  0  0  0
   -4.4983   -8.6385   -0.4365 H   0  0  0  0  0  0  0  0  0  0  0  0
   -2.4334   -8.2589    1.2385 H   0  0  0  0  0  0  0  0  0  0  0  0
   -2.2292   -9.8042    0.3266 H   0  0  0  0  0  0  0  0  0  0  0  0
   -6.1954   -8.7061    1.7604 H   0  0  0  0  0  0  0  0  0  0  0  0
   -0.0813   -4.1014    1.7572 H   0  0  0  0  0  0  0  0  0  0  0  0
    1.2394   -5.4668    3.3292 H   0  0  0  0  0  0  0  0  0  0  0  0
    4.3150   -3.1845    4.8525 H   0  0  0  0  0  0  0  0  0  0  0  0
    5.0890   -4.7414    5.3639 H   0  0  0  0  0  0  0  0  0  0  0  0
    4.1652   -4.6726    3.8100 H   0  0  0  0  0  0  0  0  0  0  0  0
    1.8278   -2.0060    5.8304 H   0  0  0  0  0  0  0  0  0  0  0  0
    0.4839   -0.6463    4.2671 H   0  0  0  0  0  0  0  0  0  0  0  0
   -1.9952   -2.2053   -0.2326 H   0  0  0  0  0  0  0  0  0  0  0  0
   -1.1825   -2.2308   -2.5684 H   0  0  0  0  0  0  0  0  0  0  0  0
    1.0939    0.8829   -3.3140 H   0  0  0  0  0  0  0  0  0  0  0  0
   -0.3520    0.1655   -4.1389 H   0  0  0  0  0  0  0  0  0  0  0  0
    1.1510    0.5238   -5.0799 H   0  0  0  0  0  0  0  0  0  0  0  0
    2.6552   -0.7704   -1.2449 H   0  0  0  0  0  0  0  0  0  0  0  0
    1.8454   -0.7711    1.0878 H   0  0  0  0  0  0  0  0  0  0  0  0
   -6.4576    1.2562    2.1152 H   0  0  0  0  0  0  0  0  0  0  0  0
   -7.8602    0.1555    0.4105 H   0  0  0  0  0  0  0  0  0  0  0  0
   -5.9398   -0.4035   -3.2465 H   0  0  0  0  0  0  0  0  0  0  0  0
   -6.6247   -1.3762   -1.8749 H   0  0  0  0  0  0  0  0  0  0  0  0
   -7.3181   -1.5403   -3.5359 H   0  0  0  0  0  0  0  0  0  0  0  0
   -6.0116    2.5609   -2.6482 H   0  0  0  0  0  0  0  0  0  0  0  0
   -4.6241    3.6753   -0.9348 H   0  0  0  0  0  0  0  0  0  0  0  0
   -7.1434    4.0722    1.9518 H   0  0  0  0  0  0  0  0  0  0  0  0
   -8.0383    5.4601    3.7295 H   0  0  0  0  0  0  0  0  0  0  0  0
   -7.7196    4.5306    6.7397 H   0  0  0  0  0  0  0  0  0  0  0  0
   -7.7246    5.7408    8.0937 H   0  0  0  0  0  0  0  0  0  0  0  0
   -6.1706    4.9570    7.5881 H   0  0  0  0  0  0  0  0  0  0  0  0
   -4.1629    5.6322    5.5949 H   0  0  0  0  0  0  0  0  0  0  0  0
   -3.2620    4.1462    3.8760 H   0  0  0  0  0  0  0  0  0  0  0  0
   -2.8473    4.2524   -4.3361 H   0  0  0  0  0  0  0  0  0  0  0  0
   -1.6606    5.5295   -4.7974 H   0  0  0  0  0  0  0  0  0  0  0  0
    0.2133    3.8806   -4.5804 H   0  0  0  0  0  0  0  0  0  0  0  0
   -1.0223    3.3305   -5.7752 H   0  0  0  0  0  0  0  0  0  0  0  0
   -0.9768    2.6005   -4.1188 H   0  0  0  0  0  0  0  0  0  0  0  0
    2.8322    5.8174    0.9434 H   0  0  0  0  0  0  0  0  0  0  0  0
    5.7145    8.4361   -0.1081 H   0  0  0  0  0  0  0  0  0  0  0  0
    7.1929    7.5333    0.3897 H   0  0  0  0  0  0  0  0  0  0  0  0
    6.0703    8.4299    2.4060 H   0  0  0  0  0  0  0  0  0  0  0  0
    4.5267    7.6425    1.9295 H   0  0  0  0  0  0  0  0  0  0  0  0
    5.9556    6.6233    2.3922 H   0  0  0  0  0  0  0  0  0  0  0  0
    5.1514    7.9947   -3.2413 H   0  0  0  0  0  0  0  0  0  0  0  0
    3.1932    2.0610   -3.9660 H   0  0  0  0  0  0  0  0  0  0  0  0
    7.2703    3.8693   -6.4468 H   0  0  0  0  0  0  0  0  0  0  0  0
    7.3566    0.4168   -6.0061 H   0  0  0  0  0  0  0  0  0  0  0  0
    6.9949    0.4487   -8.5613 H   0  0  0  0  0  0  0  0  0  0  0  0
    4.9280    1.9976   -9.1836 H   0  0  0  0  0  0  0  0  0  0  0  0
    2.8290    1.0995   -7.9257 H   0  0  0  0  0  0  0  0  0  0  0  0
    3.5553   -1.0297   -6.5103 H   0  0  0  0  0  0  0  0  0  0  0  0
    5.0375   -1.3254   -8.6793 H   0  0  0  0  0  0  0  0  0  0  0  0
    6.0608   -1.6556   -7.2089 H   0  0  0  0  0  0  0  0  0  0  0  0
    5.4598   -0.4264   -4.8772 H   0  0  0  0  0  0  0  0  0  0  0  0
  1  2  2  3
  2  3  1  0
  3  4  2  0
  3  5  1  0
  5  6  2  0
  6  7  1  0
  7  8  2  0
  8  9  1  0
  9 10  2  0
 10 11  1  0
 11 12  2  3
 12 13  1  0
 13 14  3  0
 12 15  1  0
 15 16  3  0
  8 17  1  0
 17 18  1  0
 18 19  1  0
 19 20  2  0
 20 21  1  0
 21 22  1  0
 21 23  1  0
  1 24  1  0
 24 25  2  0
 25 26  1  0
 26 27  1  0
 27 28  2  0
 28 29  1  0
 29 30  2  0
 30 31  1  0
 31 32  1  0
 30 33  1  0
 33 34  2  0
 26 35  1  0
 35 36  2  0
 36 37  1  0
 37 38  2  0
 38 39  1  0
 39 40  1  0
 38 41  1  0
 41 42  2  0
 25 43  1  0
 43 44  1  0
 44 45  1  0
 45 46  2  0
 46 47  1  0
 47 48  1  0
 48 49  2  0
 49 50  1  0
 50 51  2  0
 51 52  1  0
 52 53  1  0
 51 54  1  0
 54 55  2  0
 47 56  1  0
 56 57  2  0
 57 58  1  0
 58 59  2  0
 59 60  1  0
 60 61  1  0
 59 62  1  0
 62 63  2  0
 46 64  1  0
 64 65  1  0
 45 66  1  0
 66 67  1  0
 67 68  2  0
 68 69  1  0
 69 70  1  0
 70 71  1  0
 69 72  1  0
 72 73  2  0
 73 74  1  0
 74 75  2  0
 75 76  1  0
 76 77  1  0
 75 78  1  0
 74 79  1  0
 79 80  2  0
 80 81  1  0
 81 82  1  0
 82 83  1  0
 83 84  1  0
 81 85  2  0
 85 86  1  0
 85 87  1  0
 87 88  2  3
 88 89  1  0
 89 90  2  0
 89 91  1  0
 91 92  2  0
 92 93  1  0
 93 94  2  0
 94 95  1  0
 95 96  2  0
 96 97  1  0
 97 98  2  3
 98 99  1  0
 99100  3  0
 98101  1  0
101102  3  0
 94103  1  0
103104  1  0
104105  1  0
105106  2  0
106107  1  0
107108  1  0
107109  1  0
 11  2  1  0
 23 17  1  0
 65 24  1  0
 76 66  2  0
 86 79  1  0
 97 88  1  0
109103  1  0
 10  5  1  0
 22 18  1  0
 34 27  1  0
 42 35  1  0
 64 43  2  0
 73 67  1  0
 96 91  1  0
108104  1  0
 23  7  1  0
 55 48  1  0
 63 56  1  0
109 93  1  0
  1110  1  0
  6111  1  0
  9112  1  0
 17113  1  0
 18114  1  0
 19115  1  0
 20116  1  0
 21117  1  0
 22118  1  0
 22119  1  0
 23120  1  0
 28121  1  0
 29122  1  0
 32123  1  0
 32124  1  0
 32125  1  0
 33126  1  0
 34127  1  0
 36128  1  0
 37129  1  0
 40130  1  0
 40131  1  0
 40132  1  0
 41133  1  0
 42134  1  0
 49135  1  0
 50136  1  0
 53137  1  0
 53138  1  0
 53139  1  0
 54140  1  0
 55141  1  0
 57142  1  0
 58143  1  0
 61144  1  0
 61145  1  0
 61146  1  0
 62147  1  0
 63148  1  0
 70149  1  0
 70150  1  0
 71151  1  0
 71152  1  0
 71153  1  0
 80154  1  0
 83155  1  0
 83156  1  0
 84157  1  0
 84158  1  0
 84159  1  0
 87160  1  0
 92161  1  0
 95162  1  0
103163  1  0
104164  1  0
105165  1  0
106166  1  0
107167  1  0
108168  1  0
108169  1  0
109170  1  0
M  END

