
     RDKit          3D

208230  0  0  0  0  0  0  0  0999 V2000
   -3.9892   -3.4681    4.6788 C   0  0  0  0  0  0  0  0  0  0  0  0
   -4.3725   -2.5068    5.5482 C   0  0  0  0  0  0  0  0  0  0  0  0
   -3.6284   -1.2632    5.8104 C   0  0  0  0  0  0  0  0  0  0  0  0
   -2.3804   -1.1081    5.7279 O   0  0  0  0  0  0  0  0  0  0  0  0
   -4.5665   -0.2290    6.1731 C   0  0  0  0  0  0  0  0  0  0  0  0
   -4.3263    1.1677    6.1475 C   0  0  0  0  0  0  0  0  0  0  0  0
   -5.4789    1.9290    6.2002 C   0  0  0  0  0  0  0  0  0  0  0  0
   -6.7955    1.3637    6.2924 C   0  0  0  0  0  0  0  0  0  0  0  0
   -7.0317   -0.0041    6.3258 C   0  0  0  0  0  0  0  0  0  0  0  0
   -5.8584   -0.8082    6.2749 C   0  0  0  0  0  0  0  0  0  0  0  0
   -5.7538   -2.2754    6.0487 C   0  0  0  0  0  0  0  0  0  0  0  0
   -6.6413   -3.2232    6.4405 C   0  0  0  0  0  0  0  0  0  0  0  0
   -6.3436   -4.6276    6.3583 C   0  0  0  0  0  0  0  0  0  0  0  0
   -6.1097   -5.7600    6.2950 N   0  0  0  0  0  0  0  0  0  0  0  0
   -7.8683   -2.8872    7.1170 C   0  0  0  0  0  0  0  0  0  0  0  0
   -8.8495   -2.6283    7.6730 N   0  0  0  0  0  0  0  0  0  0  0  0
   -7.4039    2.7357    6.2293 C   0  0  0  0  0  0  0  0  0  0  0  0
   -7.9535    3.3515    7.5475 C   0  0  0  0  0  0  0  0  0  0  0  0
   -7.1634    2.8488    8.7322 C   0  0  0  0  0  0  0  0  0  0  0  0
   -5.9453    3.3785    8.6289 C   0  0  0  0  0  0  0  0  0  0  0  0
   -5.9441    4.2216    7.3714 C   0  0  0  0  0  0  0  0  0  0  0  0
   -7.3668    4.7445    7.4395 C   0  0  0  0  0  0  0  0  0  0  0  0
   -6.0591    3.3102    6.1167 C   0  0  0  0  0  0  0  0  0  0  0  0
   -2.8136   -3.2701    3.8246 C   0  0  0  0  0  0  0  0  0  0  0  0
   -2.6552   -2.1519    2.9880 C   0  0  0  0  0  0  0  0  0  0  0  0
   -3.7409   -1.6112    2.2129 N   0  0  0  0  0  0  0  0  0  0  0  0
   -3.8403   -0.2187    1.8987 C   0  0  0  0  0  0  0  0  0  0  0  0
   -4.5885    0.6248    2.7218 C   0  0  0  0  0  0  0  0  0  0  0  0
   -4.7085    1.9842    2.4207 C   0  0  0  0  0  0  0  0  0  0  0  0
   -4.0901    2.5063    1.2792 C   0  0  0  0  0  0  0  0  0  0  0  0
   -4.2233    4.2586    0.9013 S   0  0  0  0  0  0  0  0  0  0  0  0
   -5.7723    4.0730   -0.0370 C   0  0  0  0  0  0  0  0  0  0  0  0
   -3.3717    1.6566    0.4261 C   0  0  0  0  0  0  0  0  0  0  0  0
   -3.2610    0.2948    0.7278 C   0  0  0  0  0  0  0  0  0  0  0  0
   -4.5717   -2.5422    1.5010 C   0  0  0  0  0  0  0  0  0  0  0  0
   -5.9181   -2.6875    1.8409 C   0  0  0  0  0  0  0  0  0  0  0  0
   -6.6819   -3.7032    1.2581 C   0  0  0  0  0  0  0  0  0  0  0  0
   -6.1064   -4.5728    0.3265 C   0  0  0  0  0  0  0  0  0  0  0  0
   -7.0547   -5.9262   -0.3646 S   0  0  0  0  0  0  0  0  0  0  0  0
   -6.4816   -7.1258    0.8798 C   0  0  0  0  0  0  0  0  0  0  0  0
   -4.7665   -4.3987   -0.0505 C   0  0  0  0  0  0  0  0  0  0  0  0
   -3.9971   -3.3941    0.5428 C   0  0  0  0  0  0  0  0  0  0  0  0
   -1.3162   -1.9665    2.6816 C   0  0  0  0  0  0  0  0  0  0  0  0
   -0.4514   -0.8222    1.8398 S   0  0  0  0  0  0  0  0  0  0  0  0
    1.0344   -1.6321    1.9844 C   0  0  0  0  0  0  0  0  0  0  0  0
    0.8356   -2.8518    2.6603 C   0  0  0  0  0  0  0  0  0  0  0  0
    1.6385   -4.0156    2.4316 N   0  0  0  0  0  0  0  0  0  0  0  0
    2.7305   -4.3539    3.3164 C   0  0  0  0  0  0  0  0  0  0  0  0
    2.7117   -3.9788    4.6724 C   0  0  0  0  0  0  0  0  0  0  0  0
    3.7693   -4.3341    5.5179 C   0  0  0  0  0  0  0  0  0  0  0  0
    4.8539   -5.0611    5.0182 C   0  0  0  0  0  0  0  0  0  0  0  0
    6.2183   -5.5046    6.0990 S   0  0  0  0  0  0  0  0  0  0  0  0
    5.5352   -7.1433    6.5010 C   0  0  0  0  0  0  0  0  0  0  0  0
    4.8908   -5.4199    3.6651 C   0  0  0  0  0  0  0  0  0  0  0  0
    3.8373   -5.0705    2.8209 C   0  0  0  0  0  0  0  0  0  0  0  0
    1.2178   -4.8990    1.3684 C   0  0  0  0  0  0  0  0  0  0  0  0
    1.0252   -6.2695    1.6116 C   0  0  0  0  0  0  0  0  0  0  0  0
    0.5065   -7.1022    0.6147 C   0  0  0  0  0  0  0  0  0  0  0  0
    0.1724   -6.5726   -0.6422 C   0  0  0  0  0  0  0  0  0  0  0  0
   -0.5070   -7.6223   -1.9248 S   0  0  0  0  0  0  0  0  0  0  0  0
   -2.2372   -7.1851   -1.5606 C   0  0  0  0  0  0  0  0  0  0  0  0
    0.3741   -5.2145   -0.8976 C   0  0  0  0  0  0  0  0  0  0  0  0
    0.8895   -4.3830    0.0975 C   0  0  0  0  0  0  0  0  0  0  0  0
   -0.4832   -2.9552    3.0960 C   0  0  0  0  0  0  0  0  0  0  0  0
   -1.3286   -4.0857    4.0117 S   0  0  0  0  0  0  0  0  0  0  0  0
    2.2694   -1.1046    1.3878 C   0  0  0  0  0  0  0  0  0  0  0  0
    2.4022    0.2148    0.9769 C   0  0  0  0  0  0  0  0  0  0  0  0
    3.5943    0.4696    0.2915 C   0  0  0  0  0  0  0  0  0  0  0  0
    3.9129    1.6690   -0.3762 C   0  0  0  0  0  0  0  0  0  0  0  0
    3.0144    2.8476   -0.3171 C   0  0  0  0  0  0  0  0  0  0  0  0
    2.4258    3.3646    0.8345 C   0  0  0  0  0  0  0  0  0  0  0  0
    1.4256    4.3225    0.5715 C   0  0  0  0  0  0  0  0  0  0  0  0
    0.6024    4.9013    1.5408 O   0  0  0  0  0  0  0  0  0  0  0  0
    0.6102    4.5157    2.9122 C   0  0  0  0  0  0  0  0  0  0  0  0
   -0.5265    5.2183    3.6463 C   0  0  0  0  0  0  0  0  0  0  0  0
    1.2823    4.6138   -0.7755 C   0  0  0  0  0  0  0  0  0  0  0  0
    0.1058    5.6953   -1.4729 Cl  0  0  0  0  0  0  0  0  0  0  0  0
    2.3248    3.6266   -1.6524 S   0  0  0  0  0  0  0  0  0  0  0  0
    5.0178    1.6151   -1.2431 C   0  0  0  0  0  0  0  0  0  0  0  0
    5.7786    0.4589   -1.4524 C   0  0  0  0  0  0  0  0  0  0  0  0
    5.5260   -0.7012   -0.6841 C   0  0  0  0  0  0  0  0  0  0  0  0
    6.3125   -1.9376   -0.8185 C   0  0  0  0  0  0  0  0  0  0  0  0
    6.9034   -2.6108    0.2455 C   0  0  0  0  0  0  0  0  0  0  0  0
    7.4664   -3.8423   -0.1316 C   0  0  0  0  0  0  0  0  0  0  0  0
    8.0996   -4.7387    0.7444 O   0  0  0  0  0  0  0  0  0  0  0  0
    8.3205   -4.4908    2.1340 C   0  0  0  0  0  0  0  0  0  0  0  0
    9.5039   -3.5515    2.3259 C   0  0  0  0  0  0  0  0  0  0  0  0
    7.3105   -4.1258   -1.4843 C   0  0  0  0  0  0  0  0  0  0  0  0
    6.4604   -2.8737   -2.2141 S   0  0  0  0  0  0  0  0  0  0  0  0
    7.8288   -5.5901   -2.2928 Cl  0  0  0  0  0  0  0  0  0  0  0  0
    4.4053   -0.6653    0.1643 C   0  0  0  0  0  0  0  0  0  0  0  0
    3.6465   -1.9660    0.9241 S   0  0  0  0  0  0  0  0  0  0  0  0
    6.6451    0.5622   -2.5604 C   0  0  0  0  0  0  0  0  0  0  0  0
    6.5224    1.7693   -3.2774 C   0  0  0  0  0  0  0  0  0  0  0  0
    5.4462    2.7301   -2.3979 S   0  0  0  0  0  0  0  0  0  0  0  0
    6.6218    1.8937   -4.7742 C   0  0  0  0  0  0  0  0  0  0  0  0
    6.8945    0.7509   -5.5679 C   0  0  0  0  0  0  0  0  0  0  0  0
    7.7633   -0.2050   -5.1542 F   0  0  0  0  0  0  0  0  0  0  0  0
    6.1840    0.5419   -6.7559 C   0  0  0  0  0  0  0  0  0  0  0  0
    6.3413   -0.6211   -7.4374 F   0  0  0  0  0  0  0  0  0  0  0  0
    5.1861    1.4517   -7.1327 C   0  0  0  0  0  0  0  0  0  0  0  0
    5.1682    2.7232   -6.5398 C   0  0  0  0  0  0  0  0  0  0  0  0
    4.3564    3.7033   -7.0120 N   0  0  0  0  0  0  0  0  0  0  0  0
    4.3066    4.9402   -6.4442 C   0  0  0  0  0  0  0  0  0  0  0  0
    3.3735    5.9608   -7.0489 C   0  0  0  0  0  0  0  0  0  0  0  0
    4.0772    6.7480   -8.1509 C   0  0  0  0  0  0  0  0  0  0  0  0
    5.1525    5.2140   -5.3445 C   0  0  0  0  0  0  0  0  0  0  0  0
    5.9214    4.2086   -4.8455 N   0  0  0  0  0  0  0  0  0  0  0  0
    5.9442    2.9651   -5.3993 C   0  0  0  0  0  0  0  0  0  0  0  0
    5.1911    6.5425   -4.6318 C   0  0  0  0  0  0  0  0  0  0  0  0
    4.1773    6.5772   -3.4874 C   0  0  0  0  0  0  0  0  0  0  0  0
    4.0833    1.0445   -8.0283 C   0  0  0  0  0  0  0  0  0  0  0  0
    2.8116    0.9887   -7.5845 C   0  0  0  0  0  0  0  0  0  0  0  0
    1.6788    1.3909   -8.4212 C   0  0  0  0  0  0  0  0  0  0  0  0
    1.6466    1.3728   -9.6793 O   0  0  0  0  0  0  0  0  0  0  0  0
    0.6337    1.9184   -7.5573 C   0  0  0  0  0  0  0  0  0  0  0  0
   -0.5834    2.5224   -7.9469 C   0  0  0  0  0  0  0  0  0  0  0  0
   -1.3525    2.9680   -6.8854 C   0  0  0  0  0  0  0  0  0  0  0  0
   -0.9476    2.8384   -5.5157 C   0  0  0  0  0  0  0  0  0  0  0  0
    0.2497    2.2666   -5.1271 C   0  0  0  0  0  0  0  0  0  0  0  0
    1.0435    1.7789   -6.2014 C   0  0  0  0  0  0  0  0  0  0  0  0
    2.3442    1.0672   -6.1653 C   0  0  0  0  0  0  0  0  0  0  0  0
    2.8027    0.3070   -5.1410 C   0  0  0  0  0  0  0  0  0  0  0  0
    3.7174   -0.7828   -5.3598 C   0  0  0  0  0  0  0  0  0  0  0  0
    4.4337   -1.6792   -5.5227 N   0  0  0  0  0  0  0  0  0  0  0  0
    2.2580    0.3628   -3.8127 C   0  0  0  0  0  0  0  0  0  0  0  0
    1.8281    0.3950   -2.7355 N   0  0  0  0  0  0  0  0  0  0  0  0
   -2.2042    3.5154   -5.0568 C   0  0  0  0  0  0  0  0  0  0  0  0
   -2.0987    4.9856   -4.5452 C   0  0  0  0  0  0  0  0  0  0  0  0
   -0.9512    5.6900   -5.2339 C   0  0  0  0  0  0  0  0  0  0  0  0
   -1.3076    5.8255   -6.5097 C   0  0  0  0  0  0  0  0  0  0  0  0
   -2.6852    5.2177   -6.6457 C   0  0  0  0  0  0  0  0  0  0  0  0
   -3.2518    5.6112   -5.2946 C   0  0  0  0  0  0  0  0  0  0  0  0
   -2.6075    3.6685   -6.4594 C   0  0  0  0  0  0  0  0  0  0  0  0
   -4.6399   -4.2967    4.4390 H   0  0  0  0  0  0  0  0  0  0  0  0
   -3.3450    1.5987    5.9930 H   0  0  0  0  0  0  0  0  0  0  0  0
   -8.0374   -0.4035    6.3086 H   0  0  0  0  0  0  0  0  0  0  0  0
   -8.0341    2.8971    5.3280 H   0  0  0  0  0  0  0  0  0  0  0  0
   -9.0558    3.3049    7.6668 H   0  0  0  0  0  0  0  0  0  0  0  0
   -7.5226    2.2379    9.5536 H   0  0  0  0  0  0  0  0  0  0  0  0
   -5.1411    3.2754    9.3482 H   0  0  0  0  0  0  0  0  0  0  0  0
   -5.1490    4.9920    7.3249 H   0  0  0  0  0  0  0  0  0  0  0  0
   -7.6819    5.2941    6.5221 H   0  0  0  0  0  0  0  0  0  0  0  0
   -7.5602    5.3848    8.3332 H   0  0  0  0  0  0  0  0  0  0  0  0
   -5.8635    3.8185    5.1479 H   0  0  0  0  0  0  0  0  0  0  0  0
   -5.1069    0.2172    3.5738 H   0  0  0  0  0  0  0  0  0  0  0  0
   -5.2942    2.6251    3.0683 H   0  0  0  0  0  0  0  0  0  0  0  0
   -5.6427    3.3448   -0.8639 H   0  0  0  0  0  0  0  0  0  0  0  0
   -6.5865    3.7329    0.6380 H   0  0  0  0  0  0  0  0  0  0  0  0
   -6.0518    5.0570   -0.4647 H   0  0  0  0  0  0  0  0  0  0  0  0
   -2.8997    2.0509   -0.4691 H   0  0  0  0  0  0  0  0  0  0  0  0
   -2.7208   -0.3567    0.0522 H   0  0  0  0  0  0  0  0  0  0  0  0
   -6.3631   -2.0508    2.6005 H   0  0  0  0  0  0  0  0  0  0  0  0
   -7.7170   -3.8422    1.5632 H   0  0  0  0  0  0  0  0  0  0  0  0
   -6.9821   -8.0992    0.7051 H   0  0  0  0  0  0  0  0  0  0  0  0
   -5.3835   -7.2682    0.7927 H   0  0  0  0  0  0  0  0  0  0  0  0
   -6.7351   -6.7688    1.8993 H   0  0  0  0  0  0  0  0  0  0  0  0
   -4.3180   -5.0640   -0.7739 H   0  0  0  0  0  0  0  0  0  0  0  0
   -2.9541   -3.2906    0.2779 H   0  0  0  0  0  0  0  0  0  0  0  0
    1.8717   -3.4338    5.0852 H   0  0  0  0  0  0  0  0  0  0  0  0
    3.7434   -4.0506    6.5596 H   0  0  0  0  0  0  0  0  0  0  0  0
    6.2236   -7.6695    7.1941 H   0  0  0  0  0  0  0  0  0  0  0  0
    5.4258   -7.7556    5.5824 H   0  0  0  0  0  0  0  0  0  0  0  0
    4.5476   -7.0347    6.9952 H   0  0  0  0  0  0  0  0  0  0  0  0
    5.7316   -5.9767    3.2731 H   0  0  0  0  0  0  0  0  0  0  0  0
    3.8862   -5.3524    1.7793 H   0  0  0  0  0  0  0  0  0  0  0  0
    1.2425   -6.6821    2.5906 H   0  0  0  0  0  0  0  0  0  0  0  0
    0.3480   -8.1547    0.8172 H   0  0  0  0  0  0  0  0  0  0  0  0
   -2.5620   -7.6873   -0.6286 H   0  0  0  0  0  0  0  0  0  0  0  0
   -2.3444   -6.0870   -1.4532 H   0  0  0  0  0  0  0  0  0  0  0  0
   -2.8857   -7.5154   -2.3958 H   0  0  0  0  0  0  0  0  0  0  0  0
    0.1145   -4.7955   -1.8628 H   0  0  0  0  0  0  0  0  0  0  0  0
    1.0191   -3.3310   -0.1235 H   0  0  0  0  0  0  0  0  0  0  0  0
    1.6137    0.9387    1.1055 H   0  0  0  0  0  0  0  0  0  0  0  0
    2.6807    3.0167    1.8240 H   0  0  0  0  0  0  0  0  0  0  0  0
    1.5823    4.8047    3.3728 H   0  0  0  0  0  0  0  0  0  0  0  0
    0.4771    3.4193    3.0031 H   0  0  0  0  0  0  0  0  0  0  0  0
   -0.4842    6.3071    3.4496 H   0  0  0  0  0  0  0  0  0  0  0  0
   -1.5011    4.8272    3.2939 H   0  0  0  0  0  0  0  0  0  0  0  0
   -0.4308    5.0513    4.7377 H   0  0  0  0  0  0  0  0  0  0  0  0
    6.9076   -2.2273    1.2533 H   0  0  0  0  0  0  0  0  0  0  0  0
    8.5436   -5.4535    2.6332 H   0  0  0  0  0  0  0  0  0  0  0  0
    7.4035   -4.0732    2.6074 H   0  0  0  0  0  0  0  0  0  0  0  0
   10.4094   -3.9885    1.8495 H   0  0  0  0  0  0  0  0  0  0  0  0
    9.3040   -2.5616    1.8736 H   0  0  0  0  0  0  0  0  0  0  0  0
    9.6971   -3.4182    3.4100 H   0  0  0  0  0  0  0  0  0  0  0  0
    7.2359   -0.2699   -2.9039 H   0  0  0  0  0  0  0  0  0  0  0  0
    2.9749    6.6539   -6.2798 H   0  0  0  0  0  0  0  0  0  0  0  0
    2.5000    5.4327   -7.4918 H   0  0  0  0  0  0  0  0  0  0  0  0
    4.4351    6.0649   -8.9507 H   0  0  0  0  0  0  0  0  0  0  0  0
    3.3644    7.4736   -8.5946 H   0  0  0  0  0  0  0  0  0  0  0  0
    4.9394    7.3117   -7.7423 H   0  0  0  0  0  0  0  0  0  0  0  0
    6.2050    6.6991   -4.2108 H   0  0  0  0  0  0  0  0  0  0  0  0
    5.0084    7.3845   -5.3264 H   0  0  0  0  0  0  0  0  0  0  0  0
    4.3981    7.4363   -2.8224 H   0  0  0  0  0  0  0  0  0  0  0  0
    3.1487    6.6876   -3.8838 H   0  0  0  0  0  0  0  0  0  0  0  0
    4.2420    5.6553   -2.8712 H   0  0  0  0  0  0  0  0  0  0  0  0
    4.2818    1.0652   -9.0928 H   0  0  0  0  0  0  0  0  0  0  0  0
   -0.8807    2.6461   -8.9780 H   0  0  0  0  0  0  0  0  0  0  0  0
    0.5323    2.2372   -4.0905 H   0  0  0  0  0  0  0  0  0  0  0  0
   -2.8809    2.8587   -4.4658 H   0  0  0  0  0  0  0  0  0  0  0  0
   -2.1239    5.0995   -3.4384 H   0  0  0  0  0  0  0  0  0  0  0  0
   -0.0458    6.0823   -4.7774 H   0  0  0  0  0  0  0  0  0  0  0  0
   -0.7422    6.3430   -7.2766 H   0  0  0  0  0  0  0  0  0  0  0  0
   -3.2660    5.5578   -7.5294 H   0  0  0  0  0  0  0  0  0  0  0  0
   -4.2379    5.1401   -5.0700 H   0  0  0  0  0  0  0  0  0  0  0  0
   -3.3282    6.7173   -5.1524 H   0  0  0  0  0  0  0  0  0  0  0  0
   -3.5434    3.1175   -6.7167 H   0  0  0  0  0  0  0  0  0  0  0  0
  1  2  2  3
  2  3  1  0
  3  4  2  0
  3  5  1  0
  5  6  2  0
  6  7  1  0
  7  8  2  0
  8  9  1  0
  9 10  2  0
 10 11  1  0
 11 12  2  3
 12 13  1  0
 13 14  3  0
 12 15  1  0
 15 16  3  0
  8 17  1  0
 17 18  1  0
 18 19  1  0
 19 20  2  0
 20 21  1  0
 21 22  1  0
 21 23  1  0
  1 24  1  0
 24 25  2  0
 25 26  1  0
 26 27  1  0
 27 28  2  0
 28 29  1  0
 29 30  2  0
 30 31  1  0
 31 32  1  0
 30 33  1  0
 33 34  2  0
 26 35  1  0
 35 36  2  0
 36 37  1  0
 37 38  2  0
 38 39  1  0
 39 40  1  0
 38 41  1  0
 41 42  2  0
 25 43  1  0
 43 44  1  0
 44 45  1  0
 45 46  2  0
 46 47  1  0
 47 48  1  0
 48 49  2  0
 49 50  1  0
 50 51  2  0
 51 52  1  0
 52 53  1  0
 51 54  1  0
 54 55  2  0
 47 56  1  0
 56 57  2  0
 57 58  1  0
 58 59  2  0
 59 60  1  0
 60 61  1  0
 59 62  1  0
 62 63  2  0
 46 64  1  0
 64 65  1  0
 45 66  1  0
 66 67  2  0
 67 68  1  0
 68 69  2  0
 69 70  1  0
 70 71  2  0
 71 72  1  0
 72 73  1  0
 73 74  1  0
 74 75  1  0
 72 76  2  0
 76 77  1  0
 76 78  1  0
 69 79  1  0
 79 80  2  0
 80 81  1  0
 81 82  1  0
 82 83  2  0
 83 84  1  0
 84 85  1  0
 85 86  1  0
 86 87  1  0
 84 88  2  0
 88 89  1  0
 88 90  1  0
 81 91  2  0
 91 92  1  0
 80 93  1  0
 93 94  2  0
 94 95  1  0
 94 96  1  0
 96 97  2  0
 97 98  1  0
 97 99  1  0
 99100  1  0
 99101  2  0
101102  1  0
102103  2  0
103104  1  0
104105  1  0
105106  1  0
104107  2  0
107108  1  0
108109  2  0
107110  1  0
110111  1  0
101112  1  0
112113  2  3
113114  1  0
114115  2  0
114116  1  0
116117  2  0
117118  1  0
118119  2  0
119120  1  0
120121  2  0
121122  1  0
122123  2  3
123124  1  0
124125  3  0
123126  1  0
126127  3  0
119128  1  0
128129  1  0
129130  1  0
130131  2  0
131132  1  0
132133  1  0
132134  1  0
 11  2  1  0
 23 17  1  0
 65 24  1  0
 92 66  1  0
109 96  1  0
122113  1  0
134128  1  0
 10  5  1  0
 22 18  1  0
 34 27  1  0
 42 35  1  0
 64 43  2  0
 91 68  1  0
109102  1  0
121116  1  0
133129  1  0
 23  7  1  0
 55 48  1  0
 63 56  1  0
 78 70  1  0
 95 79  1  0
134118  1  0
 89 82  1  0
  1135  1  0
  6136  1  0
  9137  1  0
 17138  1  0
 18139  1  0
 19140  1  0
 20141  1  0
 21142  1  0
 22143  1  0
 22144  1  0
 23145  1  0
 28146  1  0
 29147  1  0
 32148  1  0
 32149  1  0
 32150  1  0
 33151  1  0
 34152  1  0
 36153  1  0
 37154  1  0
 40155  1  0
 40156  1  0
 40157  1  0
 41158  1  0
 42159  1  0
 49160  1  0
 50161  1  0
 53162  1  0
 53163  1  0
 53164  1  0
 54165  1  0
 55166  1  0
 57167  1  0
 58168  1  0
 61169  1  0
 61170  1  0
 61171  1  0
 62172  1  0
 63173  1  0
 67174  1  0
 71175  1  0
 74176  1  0
 74177  1  0
 75178  1  0
 75179  1  0
 75180  1  0
 83181  1  0
 86182  1  0
 86183  1  0
 87184  1  0
 87185  1  0
 87186  1  0
 93187  1  0
105188  1  0
105189  1  0
106190  1  0
106191  1  0
106192  1  0
110193  1  0
110194  1  0
111195  1  0
111196  1  0
111197  1  0
112198  1  0
117199  1  0
120200  1  0
128201  1  0
129202  1  0
130203  1  0
131204  1  0
132205  1  0
133206  1  0
133207  1  0
134208  1  0
M  END

