
     RDKit          3D

167183  0  0  0  0  0  0  0  0999 V2000
   -2.8817    2.2931    5.9983 C   0  0  0  0  0  0  0  0  0  0  0  0
   -3.8052    1.3479    5.7216 C   0  0  0  0  0  0  0  0  0  0  0  0
   -3.6933    0.3239    4.6706 C   0  0  0  0  0  0  0  0  0  0  0  0
   -2.6283   -0.0766    4.1285 O   0  0  0  0  0  0  0  0  0  0  0  0
   -5.0205   -0.1654    4.3564 C   0  0  0  0  0  0  0  0  0  0  0  0
   -5.3877   -1.0071    3.2810 C   0  0  0  0  0  0  0  0  0  0  0  0
   -6.7559   -1.1387    3.1165 C   0  0  0  0  0  0  0  0  0  0  0  0
   -7.7094   -0.4781    3.9543 C   0  0  0  0  0  0  0  0  0  0  0  0
   -7.3534    0.3356    5.0158 C   0  0  0  0  0  0  0  0  0  0  0  0
   -5.9526    0.4577    5.2243 C   0  0  0  0  0  0  0  0  0  0  0  0
   -5.2197    1.3052    6.2043 C   0  0  0  0  0  0  0  0  0  0  0  0
   -5.6960    1.7563    7.3916 C   0  0  0  0  0  0  0  0  0  0  0  0
   -7.0451    1.4991    7.8271 C   0  0  0  0  0  0  0  0  0  0  0  0
   -8.1263    1.3019    8.1912 N   0  0  0  0  0  0  0  0  0  0  0  0
   -4.8626    2.4222    8.3597 C   0  0  0  0  0  0  0  0  0  0  0  0
   -4.2134    2.9786    9.1401 N   0  0  0  0  0  0  0  0  0  0  0  0
   -8.8379   -1.0179    3.1273 C   0  0  0  0  0  0  0  0  0  0  0  0
   -9.5502   -0.0377    2.1457 C   0  0  0  0  0  0  0  0  0  0  0  0
   -8.5732    1.0055    1.6515 C   0  0  0  0  0  0  0  0  0  0  0  0
   -7.6951    0.3698    0.8767 C   0  0  0  0  0  0  0  0  0  0  0  0
   -8.1005   -1.0842    0.8709 C   0  0  0  0  0  0  0  0  0  0  0  0
   -9.6103   -0.9111    0.9069 C   0  0  0  0  0  0  0  0  0  0  0  0
   -7.8624   -1.7072    2.2785 C   0  0  0  0  0  0  0  0  0  0  0  0
   -1.6466    2.4758    5.2082 C   0  0  0  0  0  0  0  0  0  0  0  0
   -0.3842    2.4259    5.8194 C   0  0  0  0  0  0  0  0  0  0  0  0
    0.8075    2.5664    5.0625 C   0  0  0  0  0  0  0  0  0  0  0  0
    2.0162    2.4614    5.8256 N   0  0  0  0  0  0  0  0  0  0  0  0
    1.4177    2.2036    7.2826 S   0  0  0  0  0  4  0  0  0  0  0  0
   -0.1787    2.1853    7.2182 N   0  0  0  0  0  0  0  0  0  0  0  0
    0.7699    2.7768    3.6753 C   0  0  0  0  0  0  0  0  0  0  0  0
   -0.5005    2.9169    3.0708 C   0  0  0  0  0  0  0  0  0  0  0  0
   -0.6646    3.1285    1.7383 N   0  0  0  0  0  0  0  0  0  0  0  0
   -2.3099    3.1461    1.6221 S   0  0  0  0  0  0  0  0  0  0  0  0
   -2.8688    2.8896    3.1532 N   0  0  0  0  0  0  0  0  0  0  0  0
   -1.6990    2.7710    3.8342 C   0  0  0  0  0  0  0  0  0  0  0  0
    1.9946    2.7033    2.8470 C   0  0  0  0  0  0  0  0  0  0  0  0
    2.6550    1.4894    2.5699 C   0  0  0  0  0  0  0  0  0  0  0  0
    2.4578    0.2682    3.3054 N   0  0  0  0  0  0  0  0  0  0  0  0
    3.4345   -0.0460    4.3223 C   0  0  0  0  0  0  0  0  0  0  0  0
    3.0259   -0.4496    5.6068 C   0  0  0  0  0  0  0  0  0  0  0  0
    3.9752   -0.7061    6.6038 C   0  0  0  0  0  0  0  0  0  0  0  0
    5.3424   -0.5677    6.3257 C   0  0  0  0  0  0  0  0  0  0  0  0
    6.5618   -0.8779    7.6037 S   0  0  0  0  0  0  0  0  0  0  0  0
    6.7830   -2.6233    7.1390 C   0  0  0  0  0  0  0  0  0  0  0  0
    5.7565   -0.1744    5.0491 C   0  0  0  0  0  0  0  0  0  0  0  0
    4.8087    0.0836    4.0546 C   0  0  0  0  0  0  0  0  0  0  0  0
    1.4591   -0.6980    2.8785 C   0  0  0  0  0  0  0  0  0  0  0  0
    0.4343   -0.3291    1.9794 C   0  0  0  0  0  0  0  0  0  0  0  0
   -0.5260   -1.2566    1.5617 C   0  0  0  0  0  0  0  0  0  0  0  0
   -0.4682   -2.5770    2.0154 C   0  0  0  0  0  0  0  0  0  0  0  0
   -1.6958   -3.7687    1.4821 S   0  0  0  0  0  0  0  0  0  0  0  0
   -0.8124   -4.1612   -0.0574 C   0  0  0  0  0  0  0  0  0  0  0  0
    0.5535   -2.9672    2.8837 C   0  0  0  0  0  0  0  0  0  0  0  0
    1.5109   -2.0425    3.3098 C   0  0  0  0  0  0  0  0  0  0  0  0
    3.2968    1.5227    1.3349 C   0  0  0  0  0  0  0  0  0  0  0  0
    3.5972    0.2806    0.2559 S   0  0  0  0  0  0  0  0  0  0  0  0
    3.6070    1.2749   -1.1236 C   0  0  0  0  0  0  0  0  0  0  0  0
    3.3563    2.5981   -0.7226 C   0  0  0  0  0  0  0  0  0  0  0  0
    3.0762    3.6841   -1.6195 N   0  0  0  0  0  0  0  0  0  0  0  0
    1.9088    3.6464   -2.4592 C   0  0  0  0  0  0  0  0  0  0  0  0
    0.6541    3.3212   -1.9151 C   0  0  0  0  0  0  0  0  0  0  0  0
   -0.4754    3.2711   -2.7351 C   0  0  0  0  0  0  0  0  0  0  0  0
   -0.3678    3.5495   -4.1004 C   0  0  0  0  0  0  0  0  0  0  0  0
   -1.8227    3.5070   -5.1468 S   0  0  0  0  0  0  0  0  0  0  0  0
   -1.6057    1.7532   -5.5816 C   0  0  0  0  0  0  0  0  0  0  0  0
    0.8798    3.8777   -4.6493 C   0  0  0  0  0  0  0  0  0  0  0  0
    2.0144    3.9339   -3.8298 C   0  0  0  0  0  0  0  0  0  0  0  0
    3.8974    4.8657   -1.5479 C   0  0  0  0  0  0  0  0  0  0  0  0
    5.2912    4.7508   -1.3972 C   0  0  0  0  0  0  0  0  0  0  0  0
    6.0829    5.8911   -1.2392 C   0  0  0  0  0  0  0  0  0  0  0  0
    5.4931    7.1591   -1.2236 C   0  0  0  0  0  0  0  0  0  0  0  0
    6.5026    8.6123   -0.9251 S   0  0  0  0  0  0  0  0  0  0  0  0
    6.8746    8.8685   -2.6840 C   0  0  0  0  0  0  0  0  0  0  0  0
    4.1096    7.2856   -1.4000 C   0  0  0  0  0  0  0  0  0  0  0  0
    3.3155    6.1459   -1.5635 C   0  0  0  0  0  0  0  0  0  0  0  0
    3.2025    2.7012    0.6584 C   0  0  0  0  0  0  0  0  0  0  0  0
    2.2946    3.7824    1.5593 S   0  0  0  0  0  0  0  0  0  0  0  0
    3.2172    0.7294   -2.4198 C   0  0  0  0  0  0  0  0  0  0  0  0
    1.9145    0.3552   -2.7061 C   0  0  0  0  0  0  0  0  0  0  0  0
    1.7894   -0.4475   -3.8431 C   0  0  0  0  0  0  0  0  0  0  0  0
    0.4890   -1.0324   -4.2574 C   0  0  0  0  0  0  0  0  0  0  0  0
    0.1558   -1.1643   -5.6134 C   0  0  0  0  0  0  0  0  0  0  0  0
   -1.0808   -1.6929   -5.9987 C   0  0  0  0  0  0  0  0  0  0  0  0
   -2.0044   -2.0894   -5.0095 C   0  0  0  0  0  0  0  0  0  0  0  0
   -1.6791   -1.9682   -3.6452 C   0  0  0  0  0  0  0  0  0  0  0  0
   -2.5537   -2.3597   -2.6198 O   0  0  0  0  0  0  0  0  0  0  0  0
   -3.8215   -2.9710   -2.8286 C   0  0  0  0  0  0  0  0  0  0  0  0
   -4.4454   -3.3178   -1.4854 C   0  0  0  0  0  0  0  0  0  0  0  0
   -0.4382   -1.4375   -3.2822 C   0  0  0  0  0  0  0  0  0  0  0  0
   -1.3543   -1.7844   -7.3727 O   0  0  0  0  0  0  0  0  0  0  0  0
   -2.4622   -2.4624   -7.9588 C   0  0  0  0  0  0  0  0  0  0  0  0
   -2.2884   -3.9746   -7.8540 C   0  0  0  0  0  0  0  0  0  0  0  0
    3.0272   -0.7120   -4.4446 C   0  0  0  0  0  0  0  0  0  0  0  0
    4.2434    0.0323   -3.5468 S   0  0  0  0  0  0  0  0  0  0  0  0
    3.2857   -1.7093   -5.4873 C   0  0  0  0  0  0  0  0  0  0  0  0
    3.1054   -3.0236   -5.3023 C   0  0  0  0  0  0  0  0  0  0  0  0
    3.2906   -4.1673   -6.5065 S   0  0  0  0  0  0  0  0  0  0  0  0
    2.9362   -5.5031   -5.5253 C   0  0  0  0  0  0  0  0  0  0  0  0
    2.9749   -6.7788   -5.9940 C   0  0  0  0  0  0  0  0  0  0  0  0
    3.2727   -7.0347   -7.3820 C   0  0  0  0  0  0  0  0  0  0  0  0
    3.5093   -7.2432   -8.4948 N   0  0  0  0  0  0  0  0  0  0  0  0
    2.7740   -7.9528   -5.1882 C   0  0  0  0  0  0  0  0  0  0  0  0
    2.6110   -8.9086   -4.5531 N   0  0  0  0  0  0  0  0  0  0  0  0
    2.6480   -5.0745   -4.2484 N   0  0  0  0  0  0  0  0  0  0  0  0
    2.2652   -5.8984   -3.0842 C   0  0  0  0  0  0  0  0  0  0  0  0
    3.5040   -6.3981   -2.3421 C   0  0  0  0  0  0  0  0  0  0  0  0
    2.7669   -3.7129   -4.1285 C   0  0  0  0  0  0  0  0  0  0  0  0
    2.6069   -3.1337   -3.0192 O   0  0  0  0  0  0  0  0  0  0  0  0
   -3.0711    3.0532    6.7353 H   0  0  0  0  0  0  0  0  0  0  0  0
   -4.6706   -1.4561    2.6098 H   0  0  0  0  0  0  0  0  0  0  0  0
   -8.1018    0.8722    5.5733 H   0  0  0  0  0  0  0  0  0  0  0  0
   -9.5187   -1.7019    3.6785 H   0  0  0  0  0  0  0  0  0  0  0  0
  -10.5282    0.3616    2.4941 H   0  0  0  0  0  0  0  0  0  0  0  0
   -8.6176    2.0745    1.8174 H   0  0  0  0  0  0  0  0  0  0  0  0
   -6.9036    0.8338    0.2953 H   0  0  0  0  0  0  0  0  0  0  0  0
   -7.7109   -1.6755    0.0166 H   0  0  0  0  0  0  0  0  0  0  0  0
  -10.0188   -0.3841    0.0098 H   0  0  0  0  0  0  0  0  0  0  0  0
  -10.1624   -1.8699    1.0584 H   0  0  0  0  0  0  0  0  0  0  0  0
   -7.9490   -2.8139    2.3226 H   0  0  0  0  0  0  0  0  0  0  0  0
    1.9743   -0.5549    5.8368 H   0  0  0  0  0  0  0  0  0  0  0  0
    3.6490   -1.0059    7.5923 H   0  0  0  0  0  0  0  0  0  0  0  0
    7.5543   -3.0773    7.7939 H   0  0  0  0  0  0  0  0  0  0  0  0
    5.8304   -3.1762    7.2682 H   0  0  0  0  0  0  0  0  0  0  0  0
    7.1202   -2.7006    6.0849 H   0  0  0  0  0  0  0  0  0  0  0  0
    6.8112   -0.0722    4.8235 H   0  0  0  0  0  0  0  0  0  0  0  0
    5.1533    0.3754    3.0711 H   0  0  0  0  0  0  0  0  0  0  0  0
    0.3769    0.6703    1.5795 H   0  0  0  0  0  0  0  0  0  0  0  0
   -1.3062   -0.9513    0.8778 H   0  0  0  0  0  0  0  0  0  0  0  0
   -0.7223   -3.2526   -0.6850 H   0  0  0  0  0  0  0  0  0  0  0  0
   -1.3815   -4.9303   -0.6190 H   0  0  0  0  0  0  0  0  0  0  0  0
    0.2000   -4.5582    0.1653 H   0  0  0  0  0  0  0  0  0  0  0  0
    0.6095   -3.9920    3.2321 H   0  0  0  0  0  0  0  0  0  0  0  0
    2.2986   -2.3929    3.9626 H   0  0  0  0  0  0  0  0  0  0  0  0
    0.5563    3.1020   -0.8616 H   0  0  0  0  0  0  0  0  0  0  0  0
   -1.4354    3.0166   -2.3077 H   0  0  0  0  0  0  0  0  0  0  0  0
   -0.6251    1.6087   -6.0850 H   0  0  0  0  0  0  0  0  0  0  0  0
   -2.4161    1.4447   -6.2749 H   0  0  0  0  0  0  0  0  0  0  0  0
   -1.6569    1.1280   -4.6645 H   0  0  0  0  0  0  0  0  0  0  0  0
    0.9715    4.0877   -5.7070 H   0  0  0  0  0  0  0  0  0  0  0  0
    2.9758    4.1784   -4.2638 H   0  0  0  0  0  0  0  0  0  0  0  0
    5.7627    3.7764   -1.3954 H   0  0  0  0  0  0  0  0  0  0  0  0
    7.1541    5.7870   -1.1121 H   0  0  0  0  0  0  0  0  0  0  0  0
    5.9389    9.0641   -3.2480 H   0  0  0  0  0  0  0  0  0  0  0  0
    7.3844    7.9757   -3.1033 H   0  0  0  0  0  0  0  0  0  0  0  0
    7.5469    9.7456   -2.7890 H   0  0  0  0  0  0  0  0  0  0  0  0
    3.6498    8.2655   -1.3869 H   0  0  0  0  0  0  0  0  0  0  0  0
    2.2455    6.2594   -1.6657 H   0  0  0  0  0  0  0  0  0  0  0  0
    1.0837    0.6007   -2.0579 H   0  0  0  0  0  0  0  0  0  0  0  0
    0.8454   -0.8333   -6.3800 H   0  0  0  0  0  0  0  0  0  0  0  0
   -2.9678   -2.4821   -5.2940 H   0  0  0  0  0  0  0  0  0  0  0  0
   -4.4939   -2.2711   -3.3727 H   0  0  0  0  0  0  0  0  0  0  0  0
   -3.6967   -3.9038   -3.4207 H   0  0  0  0  0  0  0  0  0  0  0  0
   -4.5799   -2.3991   -0.8780 H   0  0  0  0  0  0  0  0  0  0  0  0
   -3.7912   -4.0282   -0.9376 H   0  0  0  0  0  0  0  0  0  0  0  0
   -5.4367   -3.7933   -1.6436 H   0  0  0  0  0  0  0  0  0  0  0  0
   -0.1962   -1.3553   -2.2284 H   0  0  0  0  0  0  0  0  0  0  0  0
   -2.4992   -2.1932   -9.0370 H   0  0  0  0  0  0  0  0  0  0  0  0
   -3.4235   -2.1364   -7.4975 H   0  0  0  0  0  0  0  0  0  0  0  0
   -3.0901   -4.4797   -8.4310 H   0  0  0  0  0  0  0  0  0  0  0  0
   -2.3434   -4.3014   -6.7962 H   0  0  0  0  0  0  0  0  0  0  0  0
   -1.3006   -4.2688   -8.2727 H   0  0  0  0  0  0  0  0  0  0  0  0
    3.6256   -1.3497   -6.4501 H   0  0  0  0  0  0  0  0  0  0  0  0
    1.6484   -5.3012   -2.3757 H   0  0  0  0  0  0  0  0  0  0  0  0
    1.5998   -6.7308   -3.3796 H   0  0  0  0  0  0  0  0  0  0  0  0
    4.1762   -6.9586   -3.0213 H   0  0  0  0  0  0  0  0  0  0  0  0
    3.1973   -7.0709   -1.5116 H   0  0  0  0  0  0  0  0  0  0  0  0
    4.0666   -5.5391   -1.9165 H   0  0  0  0  0  0  0  0  0  0  0  0
  1  2  2  3
  2  3  1  0
  3  4  2  0
  3  5  1  0
  5  6  2  0
  6  7  1  0
  7  8  2  0
  8  9  1  0
  9 10  2  0
 10 11  1  0
 11 12  2  3
 12 13  1  0
 13 14  3  0
 12 15  1  0
 15 16  3  0
  8 17  1  0
 17 18  1  0
 18 19  1  0
 19 20  2  0
 20 21  1  0
 21 22  1  0
 21 23  1  0
  1 24  1  0
 24 25  2  0
 25 26  1  0
 26 27  1  0
 27 28  2  0
 28 29  2  0
 26 30  2  0
 30 31  1  0
 31 32  2  0
 32 33  1  0
 33 34  1  0
 34 35  2  0
 30 36  1  0
 36 37  2  0
 37 38  1  0
 38 39  1  0
 39 40  2  0
 40 41  1  0
 41 42  2  0
 42 43  1  0
 43 44  1  0
 42 45  1  0
 45 46  2  0
 38 47  1  0
 47 48  2  0
 48 49  1  0
 49 50  2  0
 50 51  1  0
 51 52  1  0
 50 53  1  0
 53 54  2  0
 37 55  1  0
 55 56  1  0
 56 57  1  0
 57 58  2  0
 58 59  1  0
 59 60  1  0
 60 61  2  0
 61 62  1  0
 62 63  2  0
 63 64  1  0
 64 65  1  0
 63 66  1  0
 66 67  2  0
 59 68  1  0
 68 69  2  0
 69 70  1  0
 70 71  2  0
 71 72  1  0
 72 73  1  0
 71 74  1  0
 74 75  2  0
 58 76  1  0
 76 77  1  0
 57 78  1  0
 78 79  2  0
 79 80  1  0
 80 81  1  0
 81 82  2  0
 82 83  1  0
 83 84  2  0
 84 85  1  0
 85 86  1  0
 86 87  1  0
 87 88  1  0
 85 89  2  0
 83 90  1  0
 90 91  1  0
 91 92  1  0
 80 93  2  0
 93 94  1  0
 93 95  1  0
 95 96  2  3
 96 97  1  0
 97 98  1  0
 98 99  2  3
 99100  1  0
100101  3  0
 99102  1  0
102103  3  0
 98104  1  0
104105  1  0
105106  1  0
104107  1  0
107108  2  0
 11  2  1  0
 23 17  1  0
 35 24  1  0
 77 36  1  0
 94 78  1  0
107 96  1  0
 10  5  1  0
 22 18  1  0
 29 25  1  0
 35 31  1  0
 46 39  1  0
 54 47  1  0
 76 55  2  0
 89 81  1  0
 23  7  1  0
 67 60  1  0
 75 68  1  0
  1109  1  0
  6110  1  0
  9111  1  0
 17112  1  0
 18113  1  0
 19114  1  0
 20115  1  0
 21116  1  0
 22117  1  0
 22118  1  0
 23119  1  0
 40120  1  0
 41121  1  0
 44122  1  0
 44123  1  0
 44124  1  0
 45125  1  0
 46126  1  0
 48127  1  0
 49128  1  0
 52129  1  0
 52130  1  0
 52131  1  0
 53132  1  0
 54133  1  0
 61134  1  0
 62135  1  0
 65136  1  0
 65137  1  0
 65138  1  0
 66139  1  0
 67140  1  0
 69141  1  0
 70142  1  0
 73143  1  0
 73144  1  0
 73145  1  0
 74146  1  0
 75147  1  0
 79148  1  0
 82149  1  0
 84150  1  0
 87151  1  0
 87152  1  0
 88153  1  0
 88154  1  0
 88155  1  0
 89156  1  0
 91157  1  0
 91158  1  0
 92159  1  0
 92160  1  0
 92161  1  0
 95162  1  0
105163  1  0
105164  1  0
106165  1  0
106166  1  0
106167  1  0
M  END

