
     RDKit          3D

164179  0  0  0  0  0  0  0  0999 V2000
    3.7603    2.9842    3.8201 C   0  0  0  0  0  0  0  0  0  0  0  0
    4.8268    2.1496    4.1063 C   0  0  0  0  0  0  0  0  0  0  0  0
    6.0860    2.1061    3.3246 C   0  0  0  0  0  0  0  0  0  0  0  0
    6.3576    2.7820    2.2359 O   0  0  0  0  0  0  0  0  0  0  0  0
    7.1186    1.5708    4.1837 C   0  0  0  0  0  0  0  0  0  0  0  0
    8.5158    1.4102    3.9401 C   0  0  0  0  0  0  0  0  0  0  0  0
    9.1696    0.7799    5.0186 C   0  0  0  0  0  0  0  0  0  0  0  0
    8.5265    0.4192    6.2637 C   0  0  0  0  0  0  0  0  0  0  0  0
    7.2116    0.6074    6.5276 C   0  0  0  0  0  0  0  0  0  0  0  0
    6.5101    1.1820    5.4484 C   0  0  0  0  0  0  0  0  0  0  0  0
    5.0649    1.5621    5.4514 C   0  0  0  0  0  0  0  0  0  0  0  0
    4.0904    0.7552    6.1032 C   0  0  0  0  0  0  0  0  0  0  0  0
    2.6805    1.0609    6.3286 C   0  0  0  0  0  0  0  0  0  0  0  0
    1.5975    1.4419    6.5359 N   0  0  0  0  0  0  0  0  0  0  0  0
    4.4649   -0.3156    6.9884 C   0  0  0  0  0  0  0  0  0  0  0  0
    4.7152   -1.2050    7.6895 N   0  0  0  0  0  0  0  0  0  0  0  0
    9.8060   -0.1383    6.8188 C   0  0  0  0  0  0  0  0  0  0  0  0
    9.9245   -1.7110    6.9549 C   0  0  0  0  0  0  0  0  0  0  0  0
    9.0585   -2.3575    5.8912 C   0  0  0  0  0  0  0  0  0  0  0  0
    9.6085   -2.0514    4.7281 C   0  0  0  0  0  0  0  0  0  0  0  0
   10.8524   -1.2006    5.0305 C   0  0  0  0  0  0  0  0  0  0  0  0
   11.2728   -1.9061    6.3400 C   0  0  0  0  0  0  0  0  0  0  0  0
   10.4557    0.1809    5.5730 C   0  0  0  0  0  0  0  0  0  0  0  0
    2.8216    2.9453    2.5970 C   0  0  0  0  0  0  0  0  0  0  0  0
    3.1998    3.0805    1.2499 C   0  0  0  0  0  0  0  0  0  0  0  0
    2.2500    2.9494    0.2470 C   0  0  0  0  0  0  0  0  0  0  0  0
    2.8353    3.2879   -0.8979 N   0  0  0  0  0  0  0  0  0  0  0  0
    4.0348    3.6622   -0.5917 O   0  0  0  0  0  0  0  0  0  0  0  0
    4.2825    3.6048    0.7108 N   0  0  0  0  0  0  0  0  0  0  0  0
    0.8829    2.6896    0.4860 C   0  0  0  0  0  0  0  0  0  0  0  0
    0.4785    2.5716    1.8112 C   0  0  0  0  0  0  0  0  0  0  0  0
   -0.7673    2.0651    2.1595 O   0  0  0  0  0  0  0  0  0  0  0  0
   -0.9176    0.6976    2.5634 C   0  0  0  0  0  0  0  0  0  0  0  0
   -1.8233   -0.0166    1.5882 C   0  0  0  0  0  0  0  0  0  0  0  0
    1.4202    2.8252    2.8907 C   0  0  0  0  0  0  0  0  0  0  0  0
    0.9743    2.7724    4.2369 O   0  0  0  0  0  0  0  0  0  0  0  0
    0.2889    3.8547    4.8881 C   0  0  0  0  0  0  0  0  0  0  0  0
    1.1557    5.1047    5.0999 C   0  0  0  0  0  0  0  0  0  0  0  0
   -0.1160    2.3655   -0.6032 C   0  0  0  0  0  0  0  0  0  0  0  0
   -0.0629    1.1910   -1.4004 C   0  0  0  0  0  0  0  0  0  0  0  0
    1.1883    0.6794   -1.9322 N   0  0  0  0  0  0  0  0  0  0  0  0
    1.7121    1.2963   -3.1344 C   0  0  0  0  0  0  0  0  0  0  0  0
    0.8676    1.7031   -4.1749 C   0  0  0  0  0  0  0  0  0  0  0  0
    1.4195    2.2112   -5.3765 C   0  0  0  0  0  0  0  0  0  0  0  0
    2.8028    2.3109   -5.5215 C   0  0  0  0  0  0  0  0  0  0  0  0
    3.4313    2.8404   -7.1533 S   0  0  0  0  0  0  0  0  0  0  0  0
    4.9719    3.6860   -6.6083 C   0  0  0  0  0  0  0  0  0  0  0  0
    3.6598    1.8822   -4.4903 C   0  0  0  0  0  0  0  0  0  0  0  0
    3.1112    1.3741   -3.3018 C   0  0  0  0  0  0  0  0  0  0  0  0
    1.7437   -0.5370   -1.4363 C   0  0  0  0  0  0  0  0  0  0  0  0
    2.0800   -1.5569   -2.3342 C   0  0  0  0  0  0  0  0  0  0  0  0
    2.8675   -2.6384   -1.9365 C   0  0  0  0  0  0  0  0  0  0  0  0
    3.3075   -2.7554   -0.6043 C   0  0  0  0  0  0  0  0  0  0  0  0
    4.1821   -4.2352   -0.0783 S   0  0  0  0  0  0  0  0  0  0  0  0
    5.8865   -3.6110   -0.3505 C   0  0  0  0  0  0  0  0  0  0  0  0
    2.9301   -1.7608    0.3220 C   0  0  0  0  0  0  0  0  0  0  0  0
    2.1408   -0.6756   -0.0749 C   0  0  0  0  0  0  0  0  0  0  0  0
   -1.3277    0.8102   -1.8770 C   0  0  0  0  0  0  0  0  0  0  0  0
   -1.8822   -0.4891   -2.7680 S   0  0  0  0  0  0  0  0  0  0  0  0
   -3.5490    0.0029   -2.6815 C   0  0  0  0  0  0  0  0  0  0  0  0
   -3.6238    1.2625   -2.0127 C   0  0  0  0  0  0  0  0  0  0  0  0
   -4.7381    2.1790   -2.1730 N   0  0  0  0  0  0  0  0  0  0  0  0
   -5.6380    2.4480   -1.0635 C   0  0  0  0  0  0  0  0  0  0  0  0
   -5.3162    2.0057    0.2252 C   0  0  0  0  0  0  0  0  0  0  0  0
   -6.2455    2.0819    1.2768 C   0  0  0  0  0  0  0  0  0  0  0  0
   -7.5215    2.6204    1.0671 C   0  0  0  0  0  0  0  0  0  0  0  0
   -8.7249    2.6679    2.3678 S   0  0  0  0  0  0  0  0  0  0  0  0
   -7.8229    3.9138    3.3617 C   0  0  0  0  0  0  0  0  0  0  0  0
   -7.8588    3.0731   -0.2216 C   0  0  0  0  0  0  0  0  0  0  0  0
   -6.9525    2.9998   -1.2491 C   0  0  0  0  0  0  0  0  0  0  0  0
   -4.7600    2.9394   -3.3996 C   0  0  0  0  0  0  0  0  0  0  0  0
   -5.8697    2.8295   -4.3006 C   0  0  0  0  0  0  0  0  0  0  0  0
   -5.8267    3.5111   -5.5357 C   0  0  0  0  0  0  0  0  0  0  0  0
   -4.6654    4.2254   -5.9179 C   0  0  0  0  0  0  0  0  0  0  0  0
   -4.6728    5.2357   -7.4234 S   0  0  0  0  0  0  0  0  0  0  0  0
   -3.9447    3.9634   -8.5322 C   0  0  0  0  0  0  0  0  0  0  0  0
   -3.5870    4.3106   -5.0349 C   0  0  0  0  0  0  0  0  0  0  0  0
   -3.6645    3.6886   -3.7789 C   0  0  0  0  0  0  0  0  0  0  0  0
   -2.3537    1.6299   -1.5131 C   0  0  0  0  0  0  0  0  0  0  0  0
   -1.7497    2.8772   -0.5592 S   0  0  0  0  0  0  0  0  0  0  0  0
   -4.7006   -0.8697   -3.0110 C   0  0  0  0  0  0  0  0  0  0  0  0
   -5.9438   -0.8242   -2.3733 C   0  0  0  0  0  0  0  0  0  0  0  0
   -6.6972   -2.0118   -2.4855 C   0  0  0  0  0  0  0  0  0  0  0  0
   -8.3042   -2.2260   -1.7109 S   0  0  0  0  0  0  0  0  0  0  0  0
   -7.6978   -2.8674   -0.0946 C   0  0  0  0  0  0  0  0  0  0  0  0
   -8.8539   -2.9035    0.9096 C   0  0  0  0  0  0  0  0  0  0  0  0
   -6.0653   -2.9590   -3.3044 C   0  0  0  0  0  0  0  0  0  0  0  0
   -4.6148   -2.3338   -3.8612 S   0  0  0  0  0  0  0  0  0  0  0  0
   -6.6328   -4.2865   -3.6503 C   0  0  0  0  0  0  0  0  0  0  0  0
   -6.0294   -5.4902   -3.5116 C   0  0  0  0  0  0  0  0  0  0  0  0
   -4.6264   -5.7056   -3.0463 C   0  0  0  0  0  0  0  0  0  0  0  0
   -3.6244   -4.9677   -3.2743 O   0  0  0  0  0  0  0  0  0  0  0  0
   -4.5836   -6.9547   -2.3185 C   0  0  0  0  0  0  0  0  0  0  0  0
   -3.4720   -7.5210   -1.6553 C   0  0  0  0  0  0  0  0  0  0  0  0
   -1.9846   -6.5903   -1.3987 Cl  0  0  0  0  0  0  0  0  0  0  0  0
   -3.6312   -8.8483   -1.1359 C   0  0  0  0  0  0  0  0  0  0  0  0
   -2.2675   -9.6680   -0.4038 Cl  0  0  0  0  0  0  0  0  0  0  0  0
   -4.8470   -9.5466   -1.3391 C   0  0  0  0  0  0  0  0  0  0  0  0
   -5.0140  -11.2378   -0.8085 Cl  0  0  0  0  0  0  0  0  0  0  0  0
   -5.9433   -8.9581   -2.0043 C   0  0  0  0  0  0  0  0  0  0  0  0
   -7.3889   -9.9889   -2.3433 Cl  0  0  0  0  0  0  0  0  0  0  0  0
   -5.7977   -7.6235   -2.4396 C   0  0  0  0  0  0  0  0  0  0  0  0
   -6.7506   -6.7796   -3.2240 C   0  0  0  0  0  0  0  0  0  0  0  0
   -8.0935   -6.9571   -3.2854 C   0  0  0  0  0  0  0  0  0  0  0  0
   -8.7940   -6.8131   -4.5305 C   0  0  0  0  0  0  0  0  0  0  0  0
   -9.4013   -6.6484   -5.5215 N   0  0  0  0  0  0  0  0  0  0  0  0
   -8.8435   -7.2958   -2.1022 C   0  0  0  0  0  0  0  0  0  0  0  0
   -9.3991   -7.5149   -1.0911 N   0  0  0  0  0  0  0  0  0  0  0  0
    3.2237    3.1685    4.7178 H   0  0  0  0  0  0  0  0  0  0  0  0
    9.0293    1.7403    3.0283 H   0  0  0  0  0  0  0  0  0  0  0  0
    6.7534    0.2369    7.4488 H   0  0  0  0  0  0  0  0  0  0  0  0
   10.2124    0.4408    7.7015 H   0  0  0  0  0  0  0  0  0  0  0  0
    9.8024   -2.0816    7.9871 H   0  0  0  0  0  0  0  0  0  0  0  0
    8.1693   -2.9358    6.0452 H   0  0  0  0  0  0  0  0  0  0  0  0
    9.1982   -2.3252    3.7164 H   0  0  0  0  0  0  0  0  0  0  0  0
   11.6301   -1.2515    4.2239 H   0  0  0  0  0  0  0  0  0  0  0  0
   11.5442   -2.9828    6.2167 H   0  0  0  0  0  0  0  0  0  0  0  0
   12.1253   -1.4076    6.8563 H   0  0  0  0  0  0  0  0  0  0  0  0
   11.2887    0.9216    5.6334 H   0  0  0  0  0  0  0  0  0  0  0  0
    0.0801    0.1846    2.7043 H   0  0  0  0  0  0  0  0  0  0  0  0
   -1.4164    0.7482    3.5489 H   0  0  0  0  0  0  0  0  0  0  0  0
   -2.3597   -0.8471    2.0336 H   0  0  0  0  0  0  0  0  0  0  0  0
   -1.2296   -0.3865    0.7068 H   0  0  0  0  0  0  0  0  0  0  0  0
   -2.5688    0.7011    1.2310 H   0  0  0  0  0  0  0  0  0  0  0  0
   -0.6231    4.1116    4.3239 H   0  0  0  0  0  0  0  0  0  0  0  0
    0.0397    3.4986    5.8810 H   0  0  0  0  0  0  0  0  0  0  0  0
    2.1780    4.8851    5.3935 H   0  0  0  0  0  0  0  0  0  0  0  0
    0.7185    5.7594    5.8665 H   0  0  0  0  0  0  0  0  0  0  0  0
    1.1965    5.7008    4.1687 H   0  0  0  0  0  0  0  0  0  0  0  0
   -0.2169    1.5585   -4.1308 H   0  0  0  0  0  0  0  0  0  0  0  0
    0.7210    2.4775   -6.1738 H   0  0  0  0  0  0  0  0  0  0  0  0
    5.0159    3.9533   -5.5430 H   0  0  0  0  0  0  0  0  0  0  0  0
    5.0955    4.6257   -7.1978 H   0  0  0  0  0  0  0  0  0  0  0  0
    5.8437    3.0373   -6.8699 H   0  0  0  0  0  0  0  0  0  0  0  0
    4.7341    1.9145   -4.5706 H   0  0  0  0  0  0  0  0  0  0  0  0
    3.7583    1.0778   -2.5002 H   0  0  0  0  0  0  0  0  0  0  0  0
    1.7964   -1.4622   -3.3819 H   0  0  0  0  0  0  0  0  0  0  0  0
    3.0759   -3.4317   -2.6782 H   0  0  0  0  0  0  0  0  0  0  0  0
    6.6029   -4.3737    0.0032 H   0  0  0  0  0  0  0  0  0  0  0  0
    6.0805   -3.4434   -1.4407 H   0  0  0  0  0  0  0  0  0  0  0  0
    6.0916   -2.6629    0.2040 H   0  0  0  0  0  0  0  0  0  0  0  0
    3.2152   -1.8680    1.3755 H   0  0  0  0  0  0  0  0  0  0  0  0
    1.9008    0.0981    0.6449 H   0  0  0  0  0  0  0  0  0  0  0  0
   -4.3181    1.6063    0.4361 H   0  0  0  0  0  0  0  0  0  0  0  0
   -5.9542    1.6621    2.2266 H   0  0  0  0  0  0  0  0  0  0  0  0
   -6.8013    4.1867    2.9905 H   0  0  0  0  0  0  0  0  0  0  0  0
   -7.6883    3.5257    4.4013 H   0  0  0  0  0  0  0  0  0  0  0  0
   -8.4063    4.8456    3.4050 H   0  0  0  0  0  0  0  0  0  0  0  0
   -8.8355    3.4589   -0.4296 H   0  0  0  0  0  0  0  0  0  0  0  0
   -7.2501    3.3862   -2.2128 H   0  0  0  0  0  0  0  0  0  0  0  0
   -6.7249    2.2109   -4.0886 H   0  0  0  0  0  0  0  0  0  0  0  0
   -6.7381    3.5089   -6.1754 H   0  0  0  0  0  0  0  0  0  0  0  0
   -4.6012    3.0848   -8.6354 H   0  0  0  0  0  0  0  0  0  0  0  0
   -3.8453    4.3880   -9.5344 H   0  0  0  0  0  0  0  0  0  0  0  0
   -2.9344    3.6118   -8.2023 H   0  0  0  0  0  0  0  0  0  0  0  0
   -2.6868    4.9086   -5.2607 H   0  0  0  0  0  0  0  0  0  0  0  0
   -2.7928    3.7919   -3.1427 H   0  0  0  0  0  0  0  0  0  0  0  0
   -6.2780   -0.0312   -1.7639 H   0  0  0  0  0  0  0  0  0  0  0  0
   -6.8958   -2.1924    0.3058 H   0  0  0  0  0  0  0  0  0  0  0  0
   -7.2917   -3.9107   -0.2270 H   0  0  0  0  0  0  0  0  0  0  0  0
   -9.3682   -1.9275    0.9623 H   0  0  0  0  0  0  0  0  0  0  0  0
   -8.4661   -3.1750    1.9236 H   0  0  0  0  0  0  0  0  0  0  0  0
   -9.6146   -3.6613    0.5900 H   0  0  0  0  0  0  0  0  0  0  0  0
   -7.7111   -4.2798   -3.6837 H   0  0  0  0  0  0  0  0  0  0  0  0
  1  2  2  3
  2  3  1  0
  3  4  2  0
  3  5  1  0
  5  6  2  0
  6  7  1  0
  7  8  2  0
  8  9  1  0
  9 10  2  0
 10 11  1  0
 11 12  2  3
 12 13  1  0
 13 14  3  0
 12 15  1  0
 15 16  3  0
  8 17  1  0
 17 18  1  0
 18 19  1  0
 19 20  2  0
 20 21  1  0
 21 22  1  0
 21 23  1  0
  1 24  1  0
 24 25  1  0
 25 26  1  0
 26 27  2  0
 27 28  1  0
 28 29  1  0
 26 30  1  0
 30 31  2  0
 31 32  1  0
 32 33  1  0
 33 34  1  0
 31 35  1  0
 35 36  1  0
 36 37  1  0
 37 38  1  0
 30 39  1  0
 39 40  2  0
 40 41  1  0
 41 42  1  0
 42 43  2  0
 43 44  1  0
 44 45  2  0
 45 46  1  0
 46 47  1  0
 45 48  1  0
 48 49  2  0
 41 50  1  0
 50 51  2  0
 51 52  1  0
 52 53  2  0
 53 54  1  0
 54 55  1  0
 53 56  1  0
 56 57  2  0
 40 58  1  0
 58 59  1  0
 59 60  1  0
 60 61  2  0
 61 62  1  0
 62 63  1  0
 63 64  2  0
 64 65  1  0
 65 66  2  0
 66 67  1  0
 67 68  1  0
 66 69  1  0
 69 70  2  0
 62 71  1  0
 71 72  2  0
 72 73  1  0
 73 74  2  0
 74 75  1  0
 75 76  1  0
 74 77  1  0
 77 78  2  0
 61 79  1  0
 79 80  1  0
 60 81  1  0
 81 82  2  0
 82 83  1  0
 83 84  1  0
 84 85  1  0
 85 86  1  0
 83 87  2  0
 87 88  1  0
 87 89  1  0
 89 90  2  3
 90 91  1  0
 91 92  2  0
 91 93  1  0
 93 94  2  0
 94 95  1  0
 94 96  1  0
 96 97  1  0
 96 98  2  0
 98 99  1  0
 98100  1  0
100101  1  0
100102  2  0
102103  1  0
103104  2  3
104105  1  0
105106  3  0
104107  1  0
107108  3  0
 11  2  1  0
 23 17  1  0
 35 24  2  0
 80 39  1  0
 88 81  1  0
103 90  1  0
 10  5  1  0
 22 18  1  0
 29 25  2  0
 49 42  1  0
 57 50  1  0
 79 58  2  0
102 93  1  0
 23  7  1  0
 70 63  1  0
 78 71  1  0
  1109  1  0
  6110  1  0
  9111  1  0
 17112  1  0
 18113  1  0
 19114  1  0
 20115  1  0
 21116  1  0
 22117  1  0
 22118  1  0
 23119  1  0
 33120  1  0
 33121  1  0
 34122  1  0
 34123  1  0
 34124  1  0
 37125  1  0
 37126  1  0
 38127  1  0
 38128  1  0
 38129  1  0
 43130  1  0
 44131  1  0
 47132  1  0
 47133  1  0
 47134  1  0
 48135  1  0
 49136  1  0
 51137  1  0
 52138  1  0
 55139  1  0
 55140  1  0
 55141  1  0
 56142  1  0
 57143  1  0
 64144  1  0
 65145  1  0
 68146  1  0
 68147  1  0
 68148  1  0
 69149  1  0
 70150  1  0
 72151  1  0
 73152  1  0
 76153  1  0
 76154  1  0
 76155  1  0
 77156  1  0
 78157  1  0
 82158  1  0
 85159  1  0
 85160  1  0
 86161  1  0
 86162  1  0
 86163  1  0
 89164  1  0
M  END

