
     RDKit          3D

250276  0  0  0  0  0  0  0  0999 V2000
   -1.0475   -2.9326    5.8309 C   0  0  0  0  0  0  0  0  0  0  0  0
    0.2447   -3.1429    6.1196 C   0  0  0  0  0  0  0  0  0  0  0  0
    1.3182   -2.1783    5.8604 C   0  0  0  0  0  0  0  0  0  0  0  0
    1.1761   -1.0232    5.3757 O   0  0  0  0  0  0  0  0  0  0  0  0
    2.5609   -2.7135    6.3587 C   0  0  0  0  0  0  0  0  0  0  0  0
    3.8438   -2.1329    6.2333 C   0  0  0  0  0  0  0  0  0  0  0  0
    4.8635   -2.9023    6.7532 C   0  0  0  0  0  0  0  0  0  0  0  0
    4.6371   -4.1645    7.3884 C   0  0  0  0  0  0  0  0  0  0  0  0
    3.3838   -4.7354    7.5314 C   0  0  0  0  0  0  0  0  0  0  0  0
    2.3144   -3.9636    6.9900 C   0  0  0  0  0  0  0  0  0  0  0  0
    0.8604   -4.2917    6.8610 C   0  0  0  0  0  0  0  0  0  0  0  0
    0.2587   -5.4656    7.1917 C   0  0  0  0  0  0  0  0  0  0  0  0
    0.8921   -6.4741    8.0058 C   0  0  0  0  0  0  0  0  0  0  0  0
    1.3788   -7.2948    8.6668 N   0  0  0  0  0  0  0  0  0  0  0  0
   -1.0511   -5.8280    6.7171 C   0  0  0  0  0  0  0  0  0  0  0  0
   -2.1062   -6.1352    6.3444 N   0  0  0  0  0  0  0  0  0  0  0  0
    6.1134   -4.3220    7.6326 C   0  0  0  0  0  0  0  0  0  0  0  0
    6.6499   -4.0893    9.0772 C   0  0  0  0  0  0  0  0  0  0  0  0
    5.7927   -3.0714    9.7897 C   0  0  0  0  0  0  0  0  0  0  0  0
    6.0037   -1.9009    9.1916 C   0  0  0  0  0  0  0  0  0  0  0  0
    6.9978   -2.1613    8.0799 C   0  0  0  0  0  0  0  0  0  0  0  0
    7.8509   -3.2166    8.7672 C   0  0  0  0  0  0  0  0  0  0  0  0
    6.3435   -3.0312    6.9697 C   0  0  0  0  0  0  0  0  0  0  0  0
   -1.4643   -1.9874    4.7882 C   0  0  0  0  0  0  0  0  0  0  0  0
   -1.0985   -2.0811    3.4360 C   0  0  0  0  0  0  0  0  0  0  0  0
   -0.3996   -3.2005    2.8691 N   0  0  0  0  0  0  0  0  0  0  0  0
    1.0437   -3.1991    2.8470 C   0  0  0  0  0  0  0  0  0  0  0  0
    1.7565   -2.0143    2.5912 C   0  0  0  0  0  0  0  0  0  0  0  0
    3.1535   -2.0048    2.6174 C   0  0  0  0  0  0  0  0  0  0  0  0
    3.8527   -3.1901    2.8830 C   0  0  0  0  0  0  0  0  0  0  0  0
    5.6468   -3.1812    2.8933 S   0  0  0  0  0  0  0  0  0  0  0  0
    5.7790   -3.4721    1.1017 C   0  0  0  0  0  0  0  0  0  0  0  0
    3.1554   -4.3730    3.1436 C   0  0  0  0  0  0  0  0  0  0  0  0
    1.7566   -4.3770    3.1367 C   0  0  0  0  0  0  0  0  0  0  0  0
   -1.1668   -4.2741    2.2704 C   0  0  0  0  0  0  0  0  0  0  0  0
   -0.6728   -4.9768    1.1515 C   0  0  0  0  0  0  0  0  0  0  0  0
   -1.4370   -5.9851    0.5480 C   0  0  0  0  0  0  0  0  0  0  0  0
   -2.6997   -6.3043    1.0552 C   0  0  0  0  0  0  0  0  0  0  0  0
   -3.6903   -7.5888    0.2877 S   0  0  0  0  0  0  0  0  0  0  0  0
   -3.1042   -8.8881    1.4204 C   0  0  0  0  0  0  0  0  0  0  0  0
   -3.2010   -5.6178    2.1661 C   0  0  0  0  0  0  0  0  0  0  0  0
   -2.4438   -4.6081    2.7638 C   0  0  0  0  0  0  0  0  0  0  0  0
   -1.8518   -1.2073    2.6587 C   0  0  0  0  0  0  0  0  0  0  0  0
   -2.0476   -1.0302    1.0099 S   0  0  0  0  0  0  0  0  0  0  0  0
   -3.3593    0.0527    1.1481 C   0  0  0  0  0  0  0  0  0  0  0  0
   -3.6665    0.2369    2.5070 C   0  0  0  0  0  0  0  0  0  0  0  0
   -4.8323    0.9004    3.0358 N   0  0  0  0  0  0  0  0  0  0  0  0
   -4.6340    1.8176    4.1328 C   0  0  0  0  0  0  0  0  0  0  0  0
   -3.7644    2.9043    3.9806 C   0  0  0  0  0  0  0  0  0  0  0  0
   -3.5234    3.7801    5.0347 C   0  0  0  0  0  0  0  0  0  0  0  0
   -4.1256    3.5560    6.2773 C   0  0  0  0  0  0  0  0  0  0  0  0
   -3.8396    4.6996    7.6355 S   0  0  0  0  0  0  0  0  0  0  0  0
   -2.3496    3.8290    8.2167 C   0  0  0  0  0  0  0  0  0  0  0  0
   -4.9817    2.4597    6.4540 C   0  0  0  0  0  0  0  0  0  0  0  0
   -5.2433    1.5998    5.3839 C   0  0  0  0  0  0  0  0  0  0  0  0
   -6.1625    0.4186    2.7199 C   0  0  0  0  0  0  0  0  0  0  0  0
   -7.2741    1.2631    2.8753 C   0  0  0  0  0  0  0  0  0  0  0  0
   -8.5672    0.7944    2.6245 C   0  0  0  0  0  0  0  0  0  0  0  0
   -8.7660   -0.5323    2.2282 C   0  0  0  0  0  0  0  0  0  0  0  0
  -10.4314   -1.1550    1.9813 S   0  0  0  0  0  0  0  0  0  0  0  0
  -10.5996   -1.7173    3.7080 C   0  0  0  0  0  0  0  0  0  0  0  0
   -7.6681   -1.3803    2.0589 C   0  0  0  0  0  0  0  0  0  0  0  0
   -6.3743   -0.9120    2.3052 C   0  0  0  0  0  0  0  0  0  0  0  0
   -2.7816   -0.4825    3.3198 C   0  0  0  0  0  0  0  0  0  0  0  0
   -2.7577   -0.8877    4.9501 S   0  0  0  0  0  0  0  0  0  0  0  0
   -3.9930    0.6351   -0.0467 C   0  0  0  0  0  0  0  0  0  0  0  0
   -3.7026    1.9337   -0.5190 C   0  0  0  0  0  0  0  0  0  0  0  0
   -3.2396    3.0254    0.2877 N   0  0  0  0  0  0  0  0  0  0  0  0
   -1.8271    3.2068    0.5804 C   0  0  0  0  0  0  0  0  0  0  0  0
   -0.8444    2.3953   -0.0383 C   0  0  0  0  0  0  0  0  0  0  0  0
    0.5123    2.5806    0.2455 C   0  0  0  0  0  0  0  0  0  0  0  0
    0.9112    3.5657    1.1559 C   0  0  0  0  0  0  0  0  0  0  0  0
    2.6551    3.8086    1.5141 S   0  0  0  0  0  0  0  0  0  0  0  0
    2.8093    5.2736    0.4434 C   0  0  0  0  0  0  0  0  0  0  0  0
   -0.0471    4.3447    1.8020 C   0  0  0  0  0  0  0  0  0  0  0  0
   -1.4048    4.1768    1.5079 C   0  0  0  0  0  0  0  0  0  0  0  0
   -4.2013    4.0899    0.4640 C   0  0  0  0  0  0  0  0  0  0  0  0
   -3.9100    5.4032    0.0561 C   0  0  0  0  0  0  0  0  0  0  0  0
   -4.8988    6.3927    0.1064 C   0  0  0  0  0  0  0  0  0  0  0  0
   -6.1879    6.0766    0.5523 C   0  0  0  0  0  0  0  0  0  0  0  0
   -7.4728    7.3290    0.5546 S   0  0  0  0  0  0  0  0  0  0  0  0
   -7.1191    7.8628    2.2549 C   0  0  0  0  0  0  0  0  0  0  0  0
   -6.4858    4.7708    0.9588 C   0  0  0  0  0  0  0  0  0  0  0  0
   -5.4986    3.7866    0.9083 C   0  0  0  0  0  0  0  0  0  0  0  0
   -3.7786    2.0306   -1.9028 C   0  0  0  0  0  0  0  0  0  0  0  0
   -2.9622    3.0413   -2.9471 S   0  0  0  0  0  0  0  0  0  0  0  0
   -3.0026    1.9872   -4.2801 C   0  0  0  0  0  0  0  0  0  0  0  0
   -3.7161    0.8273   -3.8978 C   0  0  0  0  0  0  0  0  0  0  0  0
   -4.1195   -0.2473   -4.7796 N   0  0  0  0  0  0  0  0  0  0  0  0
   -5.4619   -0.7723   -4.6733 C   0  0  0  0  0  0  0  0  0  0  0  0
   -6.5521    0.0889   -4.4508 C   0  0  0  0  0  0  0  0  0  0  0  0
   -7.8475   -0.4175   -4.3400 C   0  0  0  0  0  0  0  0  0  0  0  0
   -8.0739   -1.7931   -4.4512 C   0  0  0  0  0  0  0  0  0  0  0  0
   -9.7414   -2.4522   -4.3158 S   0  0  0  0  0  0  0  0  0  0  0  0
   -9.6782   -2.5993   -2.4993 C   0  0  0  0  0  0  0  0  0  0  0  0
   -6.9923   -2.6624   -4.6776 C   0  0  0  0  0  0  0  0  0  0  0  0
   -5.6976   -2.1567   -4.7902 C   0  0  0  0  0  0  0  0  0  0  0  0
   -3.3382   -0.6058   -5.9301 C   0  0  0  0  0  0  0  0  0  0  0  0
   -2.4317   -1.6684   -5.8658 C   0  0  0  0  0  0  0  0  0  0  0  0
   -1.6782   -2.0126   -6.9909 C   0  0  0  0  0  0  0  0  0  0  0  0
   -1.8205   -1.2982   -8.1822 C   0  0  0  0  0  0  0  0  0  0  0  0
   -0.8330   -1.7328   -9.6131 S   0  0  0  0  0  0  0  0  0  0  0  0
    0.5169   -0.5942   -9.1739 C   0  0  0  0  0  0  0  0  0  0  0  0
   -2.7538   -0.2568   -8.2626 C   0  0  0  0  0  0  0  0  0  0  0  0
   -3.5183    0.0817   -7.1416 C   0  0  0  0  0  0  0  0  0  0  0  0
   -4.1061    0.8860   -2.5526 C   0  0  0  0  0  0  0  0  0  0  0  0
   -4.3174   -0.3297   -1.4136 S   0  0  0  0  0  0  0  0  0  0  0  0
   -1.8579    2.0089   -5.1994 C   0  0  0  0  0  0  0  0  0  0  0  0
   -0.7982    1.1127   -5.0434 C   0  0  0  0  0  0  0  0  0  0  0  0
    0.4451    1.6257   -5.4429 C   0  0  0  0  0  0  0  0  0  0  0  0
    1.6954    1.0385   -5.1681 C   0  0  0  0  0  0  0  0  0  0  0  0
    1.8051   -0.2937   -4.5487 C   0  0  0  0  0  0  0  0  0  0  0  0
    2.3899   -0.5794   -3.3136 C   0  0  0  0  0  0  0  0  0  0  0  0
    2.3932   -1.9500   -3.0077 C   0  0  0  0  0  0  0  0  0  0  0  0
    3.0068   -2.5065   -1.7561 C   0  0  0  0  0  0  0  0  0  0  0  0
    1.9311   -2.9880   -0.7826 C   0  0  0  0  0  0  0  0  0  0  0  0
    1.7964   -2.7281   -3.9990 C   0  0  0  0  0  0  0  0  0  0  0  0
    1.6030   -4.4760   -4.0095 Cl  0  0  0  0  0  0  0  0  0  0  0  0
    1.2821   -1.7259   -5.2437 S   0  0  0  0  0  0  0  0  0  0  0  0
    2.8274    1.8344   -5.3733 C   0  0  0  0  0  0  0  0  0  0  0  0
    2.7563    3.1549   -5.8350 C   0  0  0  0  0  0  0  0  0  0  0  0
    1.5057    3.7291   -6.1533 C   0  0  0  0  0  0  0  0  0  0  0  0
    1.3710    5.1508   -6.5209 C   0  0  0  0  0  0  0  0  0  0  0  0
    0.6777    5.6436   -7.6197 C   0  0  0  0  0  0  0  0  0  0  0  0
    0.6270    7.0478   -7.6594 C   0  0  0  0  0  0  0  0  0  0  0  0
   -0.0379    7.7980   -8.7783 C   0  0  0  0  0  0  0  0  0  0  0  0
    0.9139    7.9649   -9.9642 C   0  0  0  0  0  0  0  0  0  0  0  0
    1.2734    7.6468   -6.5822 C   0  0  0  0  0  0  0  0  0  0  0  0
    1.8770    6.4489   -5.5752 S   0  0  0  0  0  0  0  0  0  0  0  0
    1.4244    9.3650   -6.2663 Cl  0  0  0  0  0  0  0  0  0  0  0  0
    0.3634    2.9313   -5.9428 C   0  0  0  0  0  0  0  0  0  0  0  0
   -1.2387    3.4370   -5.8563 S   0  0  0  0  0  0  0  0  0  0  0  0
    4.0044    3.8018   -5.8427 C   0  0  0  0  0  0  0  0  0  0  0  0
    5.0260    3.0003   -5.3422 C   0  0  0  0  0  0  0  0  0  0  0  0
    4.4180    1.4733   -4.9769 S   0  0  0  0  0  0  0  0  0  0  0  0
    6.3849    3.4510   -5.0205 C   0  0  0  0  0  0  0  0  0  0  0  0
    6.8893    3.3852   -3.7773 C   0  0  0  0  0  0  0  0  0  0  0  0
    6.1664    2.8941   -2.5969 C   0  0  0  0  0  0  0  0  0  0  0  0
    4.9266    2.9848   -2.3907 O   0  0  0  0  0  0  0  0  0  0  0  0
    7.1221    2.3413   -1.6702 C   0  0  0  0  0  0  0  0  0  0  0  0
    6.8430    1.5133   -0.5615 C   0  0  0  0  0  0  0  0  0  0  0  0
    7.9665    0.9399    0.0087 C   0  0  0  0  0  0  0  0  0  0  0  0
    9.2923    1.1771   -0.4721 C   0  0  0  0  0  0  0  0  0  0  0  0
    9.5784    1.9991   -1.5551 C   0  0  0  0  0  0  0  0  0  0  0  0
    8.4342    2.5981   -2.1561 C   0  0  0  0  0  0  0  0  0  0  0  0
    8.3323    3.3958   -3.4101 C   0  0  0  0  0  0  0  0  0  0  0  0
    9.2973    4.1645   -3.9662 C   0  0  0  0  0  0  0  0  0  0  0  0
   10.6272    4.2323   -3.4242 C   0  0  0  0  0  0  0  0  0  0  0  0
   11.7014    4.2940   -2.9958 N   0  0  0  0  0  0  0  0  0  0  0  0
    9.0121    5.0856   -5.0378 C   0  0  0  0  0  0  0  0  0  0  0  0
    8.7856    5.8284   -5.8946 N   0  0  0  0  0  0  0  0  0  0  0  0
    9.8437    0.2227    0.5474 C   0  0  0  0  0  0  0  0  0  0  0  0
   10.5768    0.8496    1.7688 C   0  0  0  0  0  0  0  0  0  0  0  0
   10.6748   -0.2571    2.7978 C   0  0  0  0  0  0  0  0  0  0  0  0
    9.4388   -0.4742    3.2455 C   0  0  0  0  0  0  0  0  0  0  0  0
    8.5357    0.4915    2.5083 C   0  0  0  0  0  0  0  0  0  0  0  0
    9.4840    1.6758    2.4293 C   0  0  0  0  0  0  0  0  0  0  0  0
    8.4881   -0.0169    1.0395 C   0  0  0  0  0  0  0  0  0  0  0  0
   -1.8301   -3.5036    6.3072 H   0  0  0  0  0  0  0  0  0  0  0  0
    4.0226   -1.1833    5.7378 H   0  0  0  0  0  0  0  0  0  0  0  0
    3.2871   -5.6930    7.9990 H   0  0  0  0  0  0  0  0  0  0  0  0
    6.5691   -5.1798    7.0944 H   0  0  0  0  0  0  0  0  0  0  0  0
    6.8713   -5.0113    9.6573 H   0  0  0  0  0  0  0  0  0  0  0  0
    5.1768   -3.2270   10.6749 H   0  0  0  0  0  0  0  0  0  0  0  0
    5.6031   -0.9430    9.4997 H   0  0  0  0  0  0  0  0  0  0  0  0
    7.5418   -1.2648    7.7244 H   0  0  0  0  0  0  0  0  0  0  0  0
    8.5929   -3.7036    8.0883 H   0  0  0  0  0  0  0  0  0  0  0  0
    8.3744   -2.8306    9.6761 H   0  0  0  0  0  0  0  0  0  0  0  0
    6.9381   -3.1164    6.0336 H   0  0  0  0  0  0  0  0  0  0  0  0
    1.2266   -1.0930    2.3753 H   0  0  0  0  0  0  0  0  0  0  0  0
    3.6904   -1.0854    2.4280 H   0  0  0  0  0  0  0  0  0  0  0  0
    5.4320   -2.5766    0.5469 H   0  0  0  0  0  0  0  0  0  0  0  0
    5.1706   -4.3535    0.7995 H   0  0  0  0  0  0  0  0  0  0  0  0
    6.8412   -3.6641    0.8410 H   0  0  0  0  0  0  0  0  0  0  0  0
    3.6942   -5.2874    3.3584 H   0  0  0  0  0  0  0  0  0  0  0  0
    1.2342   -5.2969    3.3641 H   0  0  0  0  0  0  0  0  0  0  0  0
    0.2950   -4.7399    0.7371 H   0  0  0  0  0  0  0  0  0  0  0  0
   -1.0455   -6.5155   -0.3156 H   0  0  0  0  0  0  0  0  0  0  0  0
   -2.0114   -9.0420    1.2926 H   0  0  0  0  0  0  0  0  0  0  0  0
   -3.6316   -9.8352    1.1855 H   0  0  0  0  0  0  0  0  0  0  0  0
   -3.3229   -8.6107    2.4740 H   0  0  0  0  0  0  0  0  0  0  0  0
   -4.1753   -5.8663    2.5703 H   0  0  0  0  0  0  0  0  0  0  0  0
   -2.8597   -4.0881    3.6168 H   0  0  0  0  0  0  0  0  0  0  0  0
   -3.2854    3.0579    3.0273 H   0  0  0  0  0  0  0  0  0  0  0  0
   -2.8630    4.6267    4.8814 H   0  0  0  0  0  0  0  0  0  0  0  0
   -2.6121    2.8003    8.5529 H   0  0  0  0  0  0  0  0  0  0  0  0
   -1.5933    3.7785    7.3998 H   0  0  0  0  0  0  0  0  0  0  0  0
   -1.9162    4.3904    9.0713 H   0  0  0  0  0  0  0  0  0  0  0  0
   -5.4451    2.2807    7.4150 H   0  0  0  0  0  0  0  0  0  0  0  0
   -5.9034    0.7527    5.5245 H   0  0  0  0  0  0  0  0  0  0  0  0
   -7.1397    2.2861    3.2006 H   0  0  0  0  0  0  0  0  0  0  0  0
   -9.4096    1.4570    2.7510 H   0  0  0  0  0  0  0  0  0  0  0  0
  -11.6100   -2.1513    3.8544 H   0  0  0  0  0  0  0  0  0  0  0  0
   -9.8408   -2.4973    3.9289 H   0  0  0  0  0  0  0  0  0  0  0  0
  -10.4743   -0.8624    4.4072 H   0  0  0  0  0  0  0  0  0  0  0  0
   -7.8200   -2.4072    1.7587 H   0  0  0  0  0  0  0  0  0  0  0  0
   -5.5423   -1.5960    2.1947 H   0  0  0  0  0  0  0  0  0  0  0  0
   -1.1169    1.6259   -0.7450 H   0  0  0  0  0  0  0  0  0  0  0  0
    1.2590    1.9523   -0.2335 H   0  0  0  0  0  0  0  0  0  0  0  0
    2.5481    5.0133   -0.6024 H   0  0  0  0  0  0  0  0  0  0  0  0
    2.1379    6.0806    0.8036 H   0  0  0  0  0  0  0  0  0  0  0  0
    3.8563    5.6459    0.4786 H   0  0  0  0  0  0  0  0  0  0  0  0
    0.2531    5.1007    2.5166 H   0  0  0  0  0  0  0  0  0  0  0  0
   -2.1213    4.8147    2.0150 H   0  0  0  0  0  0  0  0  0  0  0  0
   -2.9335    5.6579   -0.3354 H   0  0  0  0  0  0  0  0  0  0  0  0
   -4.6732    7.4001   -0.2223 H   0  0  0  0  0  0  0  0  0  0  0  0
   -6.0639    8.1988    2.3384 H   0  0  0  0  0  0  0  0  0  0  0  0
   -7.7869    8.7088    2.5200 H   0  0  0  0  0  0  0  0  0  0  0  0
   -7.3048    7.0241    2.9587 H   0  0  0  0  0  0  0  0  0  0  0  0
   -7.4836    4.5068    1.2904 H   0  0  0  0  0  0  0  0  0  0  0  0
   -5.7503    2.7718    1.1728 H   0  0  0  0  0  0  0  0  0  0  0  0
   -6.3995    1.1577   -4.3722 H   0  0  0  0  0  0  0  0  0  0  0  0
   -8.6810    0.2569   -4.1735 H   0  0  0  0  0  0  0  0  0  0  0  0
  -10.5185   -3.2322   -2.1577 H   0  0  0  0  0  0  0  0  0  0  0  0
   -8.7277   -3.0653   -2.1716 H   0  0  0  0  0  0  0  0  0  0  0  0
   -9.7771   -1.5915   -2.0429 H   0  0  0  0  0  0  0  0  0  0  0  0
   -7.1627   -3.7352   -4.7573 H   0  0  0  0  0  0  0  0  0  0  0  0
   -4.8729   -2.8359   -4.9572 H   0  0  0  0  0  0  0  0  0  0  0  0
   -2.2869   -2.2101   -4.9401 H   0  0  0  0  0  0  0  0  0  0  0  0
   -0.9808   -2.8415   -6.9432 H   0  0  0  0  0  0  0  0  0  0  0  0
    0.9505   -0.8636   -8.1814 H   0  0  0  0  0  0  0  0  0  0  0  0
    0.1558    0.4600   -9.1524 H   0  0  0  0  0  0  0  0  0  0  0  0
    1.3158   -0.6857   -9.9467 H   0  0  0  0  0  0  0  0  0  0  0  0
   -2.8893    0.2846   -9.1946 H   0  0  0  0  0  0  0  0  0  0  0  0
   -4.2379    0.8894   -7.2024 H   0  0  0  0  0  0  0  0  0  0  0  0
   -0.8970    0.1914   -4.4782 H   0  0  0  0  0  0  0  0  0  0  0  0
    2.8122    0.1777   -2.6558 H   0  0  0  0  0  0  0  0  0  0  0  0
    3.6167   -1.7319   -1.2468 H   0  0  0  0  0  0  0  0  0  0  0  0
    3.6738   -3.3568   -2.0081 H   0  0  0  0  0  0  0  0  0  0  0  0
    1.3024   -3.7667   -1.2512 H   0  0  0  0  0  0  0  0  0  0  0  0
    2.4226   -3.4273    0.1131 H   0  0  0  0  0  0  0  0  0  0  0  0
    1.2889   -2.1416   -0.4614 H   0  0  0  0  0  0  0  0  0  0  0  0
    0.2392    5.0073   -8.3772 H   0  0  0  0  0  0  0  0  0  0  0  0
   -0.9474    7.2423   -9.1100 H   0  0  0  0  0  0  0  0  0  0  0  0
   -0.3745    8.7992   -8.4313 H   0  0  0  0  0  0  0  0  0  0  0  0
    1.2950    6.9801  -10.2930 H   0  0  0  0  0  0  0  0  0  0  0  0
    1.7654    8.6133   -9.6665 H   0  0  0  0  0  0  0  0  0  0  0  0
    0.3750    8.4502  -10.8040 H   0  0  0  0  0  0  0  0  0  0  0  0
    4.1576    4.8320   -6.1314 H   0  0  0  0  0  0  0  0  0  0  0  0
    7.0133    3.7294   -5.8620 H   0  0  0  0  0  0  0  0  0  0  0  0
    5.8401    1.2822   -0.2283 H   0  0  0  0  0  0  0  0  0  0  0  0
   10.5864    2.0929   -1.9315 H   0  0  0  0  0  0  0  0  0  0  0  0
   10.3344   -0.6706    0.0984 H   0  0  0  0  0  0  0  0  0  0  0  0
   11.5249    1.3817    1.5544 H   0  0  0  0  0  0  0  0  0  0  0  0
   11.5836   -0.7339    3.1582 H   0  0  0  0  0  0  0  0  0  0  0  0
    9.1523   -1.1686    4.0323 H   0  0  0  0  0  0  0  0  0  0  0  0
    7.5574    0.6810    2.9865 H   0  0  0  0  0  0  0  0  0  0  0  0
    9.7708    2.0809    3.4274 H   0  0  0  0  0  0  0  0  0  0  0  0
    9.1102    2.5157    1.8005 H   0  0  0  0  0  0  0  0  0  0  0  0
    8.1202   -1.0598    0.9002 H   0  0  0  0  0  0  0  0  0  0  0  0
  1  2  2  3
  2  3  1  0
  3  4  2  0
  3  5  1  0
  5  6  2  0
  6  7  1  0
  7  8  2  0
  8  9  1  0
  9 10  2  0
 10 11  1  0
 11 12  2  3
 12 13  1  0
 13 14  3  0
 12 15  1  0
 15 16  3  0
  8 17  1  0
 17 18  1  0
 18 19  1  0
 19 20  2  0
 20 21  1  0
 21 22  1  0
 21 23  1  0
  1 24  1  0
 24 25  2  0
 25 26  1  0
 26 27  1  0
 27 28  2  0
 28 29  1  0
 29 30  2  0
 30 31  1  0
 31 32  1  0
 30 33  1  0
 33 34  2  0
 26 35  1  0
 35 36  2  0
 36 37  1  0
 37 38  2  0
 38 39  1  0
 39 40  1  0
 38 41  1  0
 41 42  2  0
 25 43  1  0
 43 44  1  0
 44 45  1  0
 45 46  2  0
 46 47  1  0
 47 48  1  0
 48 49  2  0
 49 50  1  0
 50 51  2  0
 51 52  1  0
 52 53  1  0
 51 54  1  0
 54 55  2  0
 47 56  1  0
 56 57  2  0
 57 58  1  0
 58 59  2  0
 59 60  1  0
 60 61  1  0
 59 62  1  0
 62 63  2  0
 46 64  1  0
 64 65  1  0
 45 66  1  0
 66 67  2  0
 67 68  1  0
 68 69  1  0
 69 70  2  0
 70 71  1  0
 71 72  2  0
 72 73  1  0
 73 74  1  0
 72 75  1  0
 75 76  2  0
 68 77  1  0
 77 78  2  0
 78 79  1  0
 79 80  2  0
 80 81  1  0
 81 82  1  0
 80 83  1  0
 83 84  2  0
 67 85  1  0
 85 86  1  0
 86 87  1  0
 87 88  2  0
 88 89  1  0
 89 90  1  0
 90 91  2  0
 91 92  1  0
 92 93  2  0
 93 94  1  0
 94 95  1  0
 93 96  1  0
 96 97  2  0
 89 98  1  0
 98 99  2  0
 99100  1  0
100101  2  0
101102  1  0
102103  1  0
101104  1  0
104105  2  0
 88106  1  0
106107  1  0
 87108  1  0
108109  2  0
109110  1  0
110111  2  0
111112  1  0
112113  2  0
113114  1  0
114115  1  0
115116  1  0
114117  2  0
117118  1  0
117119  1  0
111120  1  0
120121  2  0
121122  1  0
122123  1  0
123124  2  0
124125  1  0
125126  1  0
126127  1  0
125128  2  0
128129  1  0
128130  1  0
122131  2  0
131132  1  0
121133  1  0
133134  2  0
134135  1  0
134136  1  0
136137  2  3
137138  1  0
138139  2  0
138140  1  0
140141  2  0
141142  1  0
142143  2  0
143144  1  0
144145  2  0
145146  1  0
146147  2  3
147148  1  0
148149  3  0
147150  1  0
150151  3  0
143152  1  0
152153  1  0
153154  1  0
154155  2  0
155156  1  0
156157  1  0
156158  1  0
 11  2  1  0
 23 17  1  0
 65 24  1  0
107 66  1  0
132108  1  0
146137  1  0
158152  1  0
 10  5  1  0
 22 18  1  0
 34 27  1  0
 42 35  1  0
 64 43  2  0
 76 69  1  0
 84 77  1  0
106 85  2  0
131110  1  0
145140  1  0
157153  1  0
 23  7  1  0
 55 48  1  0
 63 56  1  0
 97 90  1  0
105 98  1  0
119112  1  0
135120  1  0
158142  1  0
129123  1  0
  1159  1  0
  6160  1  0
  9161  1  0
 17162  1  0
 18163  1  0
 19164  1  0
 20165  1  0
 21166  1  0
 22167  1  0
 22168  1  0
 23169  1  0
 28170  1  0
 29171  1  0
 32172  1  0
 32173  1  0
 32174  1  0
 33175  1  0
 34176  1  0
 36177  1  0
 37178  1  0
 40179  1  0
 40180  1  0
 40181  1  0
 41182  1  0
 42183  1  0
 49184  1  0
 50185  1  0
 53186  1  0
 53187  1  0
 53188  1  0
 54189  1  0
 55190  1  0
 57191  1  0
 58192  1  0
 61193  1  0
 61194  1  0
 61195  1  0
 62196  1  0
 63197  1  0
 70198  1  0
 71199  1  0
 74200  1  0
 74201  1  0
 74202  1  0
 75203  1  0
 76204  1  0
 78205  1  0
 79206  1  0
 82207  1  0
 82208  1  0
 82209  1  0
 83210  1  0
 84211  1  0
 91212  1  0
 92213  1  0
 95214  1  0
 95215  1  0
 95216  1  0
 96217  1  0
 97218  1  0
 99219  1  0
100220  1  0
103221  1  0
103222  1  0
103223  1  0
104224  1  0
105225  1  0
109226  1  0
113227  1  0
115228  1  0
115229  1  0
116230  1  0
116231  1  0
116232  1  0
124233  1  0
126234  1  0
126235  1  0
127236  1  0
127237  1  0
127238  1  0
133239  1  0
136240  1  0
141241  1  0
144242  1  0
152243  1  0
153244  1  0
154245  1  0
155246  1  0
156247  1  0
157248  1  0
157249  1  0
158250  1  0
M  END

