
     RDKit          3D

193214  0  0  0  0  0  0  0  0999 V2000
    3.1949   -0.6713    6.1795 C   0  0  0  0  0  0  0  0  0  0  0  0
    3.7855    0.4792    6.5571 C   0  0  0  0  0  0  0  0  0  0  0  0
    3.8088    0.8883    7.9634 C   0  0  0  0  0  0  0  0  0  0  0  0
    3.2206    0.2963    8.9104 O   0  0  0  0  0  0  0  0  0  0  0  0
    4.6214    2.0683    8.1046 C   0  0  0  0  0  0  0  0  0  0  0  0
    4.6983    2.8868    9.2603 C   0  0  0  0  0  0  0  0  0  0  0  0
    5.2926    4.1106    9.0448 C   0  0  0  0  0  0  0  0  0  0  0  0
    5.8185    4.5029    7.7731 C   0  0  0  0  0  0  0  0  0  0  0  0
    5.7742    3.6974    6.6439 C   0  0  0  0  0  0  0  0  0  0  0  0
    5.1348    2.4348    6.8326 C   0  0  0  0  0  0  0  0  0  0  0  0
    4.6104    1.4828    5.8080 C   0  0  0  0  0  0  0  0  0  0  0  0
    4.6743    1.6716    4.4652 C   0  0  0  0  0  0  0  0  0  0  0  0
    5.7507    2.3973    3.8421 C   0  0  0  0  0  0  0  0  0  0  0  0
    6.6103    2.9752    3.3277 N   0  0  0  0  0  0  0  0  0  0  0  0
    3.5659    1.3613    3.5979 C   0  0  0  0  0  0  0  0  0  0  0  0
    2.6634    1.1714    2.8943 N   0  0  0  0  0  0  0  0  0  0  0  0
    6.1681    5.8525    8.3204 C   0  0  0  0  0  0  0  0  0  0  0  0
    7.6563    6.1651    8.6556 C   0  0  0  0  0  0  0  0  0  0  0  0
    8.3741    4.9008    9.0805 C   0  0  0  0  0  0  0  0  0  0  0  0
    7.8600    4.5535   10.2599 C   0  0  0  0  0  0  0  0  0  0  0  0
    6.8106    5.5879   10.5946 C   0  0  0  0  0  0  0  0  0  0  0  0
    7.4825    6.8182   10.0146 C   0  0  0  0  0  0  0  0  0  0  0  0
    5.6036    5.4586    9.6158 C   0  0  0  0  0  0  0  0  0  0  0  0
    3.2100   -1.2891    4.8438 C   0  0  0  0  0  0  0  0  0  0  0  0
    4.3893   -1.7583    4.2458 C   0  0  0  0  0  0  0  0  0  0  0  0
    4.3587   -2.4606    3.0093 C   0  0  0  0  0  0  0  0  0  0  0  0
    5.6312   -2.9241    2.5574 N   0  0  0  0  0  0  0  0  0  0  0  0
    6.5667   -2.4007    3.7417 S   0  0  0  0  0  4  0  0  0  0  0  0
    5.6879   -1.6362    4.8308 N   0  0  0  0  0  0  0  0  0  0  0  0
    3.1500   -2.6967    2.3369 C   0  0  0  0  0  0  0  0  0  0  0  0
    1.9664   -2.2063    2.9281 C   0  0  0  0  0  0  0  0  0  0  0  0
    0.7434   -2.3104    2.3403 N   0  0  0  0  0  0  0  0  0  0  0  0
   -0.2147   -1.5830    3.4700 S   0  0  0  0  0  0  0  0  0  0  0  0
    0.8011   -1.1124    4.6762 N   0  0  0  0  0  0  0  0  0  0  0  0
    1.9934   -1.5400    4.1865 C   0  0  0  0  0  0  0  0  0  0  0  0
    3.0921   -3.3463    1.0063 C   0  0  0  0  0  0  0  0  0  0  0  0
    3.3801   -2.6306   -0.1699 C   0  0  0  0  0  0  0  0  0  0  0  0
    4.6786   -2.0565   -0.4334 N   0  0  0  0  0  0  0  0  0  0  0  0
    4.7163   -0.7192   -0.9538 C   0  0  0  0  0  0  0  0  0  0  0  0
    4.7965   -0.5146   -2.3408 C   0  0  0  0  0  0  0  0  0  0  0  0
    4.9411    0.7688   -2.8560 C   0  0  0  0  0  0  0  0  0  0  0  0
    5.0720    1.8630   -1.9870 C   0  0  0  0  0  0  0  0  0  0  0  0
    5.3763    3.5008   -2.6572 S   0  0  0  0  0  0  0  0  0  0  0  0
    7.1626    3.2049   -2.8806 C   0  0  0  0  0  0  0  0  0  0  0  0
    4.9949    1.6625   -0.6035 C   0  0  0  0  0  0  0  0  0  0  0  0
    4.8081    0.3750   -0.0869 C   0  0  0  0  0  0  0  0  0  0  0  0
    5.8331   -2.9282   -0.6440 C   0  0  0  0  0  0  0  0  0  0  0  0
    7.0993   -2.3890   -0.9738 C   0  0  0  0  0  0  0  0  0  0  0  0
    8.1688   -3.2208   -1.3241 C   0  0  0  0  0  0  0  0  0  0  0  0
    8.0113   -4.6125   -1.2977 C   0  0  0  0  0  0  0  0  0  0  0  0
    9.3566   -5.6986   -1.7860 S   0  0  0  0  0  0  0  0  0  0  0  0
   10.0807   -5.7740   -0.1125 C   0  0  0  0  0  0  0  0  0  0  0  0
    6.7850   -5.1621   -0.9118 C   0  0  0  0  0  0  0  0  0  0  0  0
    5.7080   -4.3353   -0.5975 C   0  0  0  0  0  0  0  0  0  0  0  0
    2.5317   -3.0062   -1.2145 C   0  0  0  0  0  0  0  0  0  0  0  0
    1.9020   -2.1004   -2.4709 S   0  0  0  0  0  0  0  0  0  0  0  0
    0.5212   -3.0715   -2.7140 C   0  0  0  0  0  0  0  0  0  0  0  0
    0.5857   -4.1462   -1.8049 C   0  0  0  0  0  0  0  0  0  0  0  0
   -0.2493   -5.3192   -1.9005 N   0  0  0  0  0  0  0  0  0  0  0  0
   -0.3288   -5.9900   -3.1808 C   0  0  0  0  0  0  0  0  0  0  0  0
   -1.5393   -6.5626   -3.6213 C   0  0  0  0  0  0  0  0  0  0  0  0
   -1.6033   -7.2250   -4.8537 C   0  0  0  0  0  0  0  0  0  0  0  0
   -0.4651   -7.3226   -5.6637 C   0  0  0  0  0  0  0  0  0  0  0  0
   -0.5656   -8.1288   -7.2660 S   0  0  0  0  0  0  0  0  0  0  0  0
    0.1541   -9.6925   -6.6731 C   0  0  0  0  0  0  0  0  0  0  0  0
    0.7362   -6.7472   -5.2435 C   0  0  0  0  0  0  0  0  0  0  0  0
    0.8091   -6.0950   -4.0051 C   0  0  0  0  0  0  0  0  0  0  0  0
   -0.8239   -5.9212   -0.7175 C   0  0  0  0  0  0  0  0  0  0  0  0
   -1.3420   -5.1195    0.3186 C   0  0  0  0  0  0  0  0  0  0  0  0
   -1.8962   -5.7099    1.4612 C   0  0  0  0  0  0  0  0  0  0  0  0
   -1.9302   -7.1049    1.5879 C   0  0  0  0  0  0  0  0  0  0  0  0
   -2.6275   -7.8613    3.0567 S   0  0  0  0  0  0  0  0  0  0  0  0
   -1.1004   -7.6788    4.0319 C   0  0  0  0  0  0  0  0  0  0  0  0
   -1.4136   -7.9074    0.5688 C   0  0  0  0  0  0  0  0  0  0  0  0
   -0.8679   -7.3208   -0.5773 C   0  0  0  0  0  0  0  0  0  0  0  0
    1.6865   -4.0390   -0.9537 C   0  0  0  0  0  0  0  0  0  0  0  0
    1.8933   -4.5099    0.6414 S   0  0  0  0  0  0  0  0  0  0  0  0
   -0.7483   -2.4976   -3.2082 C   0  0  0  0  0  0  0  0  0  0  0  0
   -1.9819   -2.7351   -2.5918 C   0  0  0  0  0  0  0  0  0  0  0  0
   -2.8987   -1.6881   -2.7470 C   0  0  0  0  0  0  0  0  0  0  0  0
   -4.1091   -1.5609   -2.0436 C   0  0  0  0  0  0  0  0  0  0  0  0
   -4.5261   -2.5616   -1.0427 C   0  0  0  0  0  0  0  0  0  0  0  0
   -5.3147   -3.6536   -1.4297 C   0  0  0  0  0  0  0  0  0  0  0  0
   -5.7112   -4.6011   -0.4775 C   0  0  0  0  0  0  0  0  0  0  0  0
   -5.3219   -4.4564    0.8583 C   0  0  0  0  0  0  0  0  0  0  0  0
   -5.8412   -5.6516    2.0880 S   0  0  0  0  0  0  0  0  0  0  0  0
   -7.3246   -4.7244    2.6174 C   0  0  0  0  0  0  0  0  0  0  0  0
   -8.4424   -4.8212    1.5854 C   0  0  0  0  0  0  0  0  0  0  0  0
   -4.5146   -3.3793    1.2401 C   0  0  0  0  0  0  0  0  0  0  0  0
   -4.0989   -2.4444    0.2849 C   0  0  0  0  0  0  0  0  0  0  0  0
   -4.7866   -0.3378   -2.1603 C   0  0  0  0  0  0  0  0  0  0  0  0
   -4.3187    0.7127   -2.9515 C   0  0  0  0  0  0  0  0  0  0  0  0
   -3.1296    0.5679   -3.6991 C   0  0  0  0  0  0  0  0  0  0  0  0
   -2.6247    1.6519   -4.5755 C   0  0  0  0  0  0  0  0  0  0  0  0
   -3.3952    2.0723   -5.6747 C   0  0  0  0  0  0  0  0  0  0  0  0
   -2.9106    3.0593   -6.5340 C   0  0  0  0  0  0  0  0  0  0  0  0
   -1.6606    3.6400   -6.2980 C   0  0  0  0  0  0  0  0  0  0  0  0
   -1.0295    4.8937   -7.4145 S   0  0  0  0  0  0  0  0  0  0  0  0
    0.0071    3.7373   -8.3793 C   0  0  0  0  0  0  0  0  0  0  0  0
   -0.8066    3.0426   -9.4629 C   0  0  0  0  0  0  0  0  0  0  0  0
   -0.9019    3.2443   -5.1905 C   0  0  0  0  0  0  0  0  0  0  0  0
   -1.3825    2.2543   -4.3300 C   0  0  0  0  0  0  0  0  0  0  0  0
   -2.4299   -0.6487   -3.5507 C   0  0  0  0  0  0  0  0  0  0  0  0
   -0.8559   -1.0212   -4.0300 S   0  0  0  0  0  0  0  0  0  0  0  0
   -5.0509    1.9044   -2.7781 C   0  0  0  0  0  0  0  0  0  0  0  0
   -6.1104    1.7706   -1.8790 C   0  0  0  0  0  0  0  0  0  0  0  0
   -6.1042    0.1983   -1.2649 S   0  0  0  0  0  0  0  0  0  0  0  0
   -6.8550    2.8627   -1.2270 C   0  0  0  0  0  0  0  0  0  0  0  0
   -7.2072    4.0325   -1.7970 C   0  0  0  0  0  0  0  0  0  0  0  0
   -7.3143    4.2994   -3.2328 C   0  0  0  0  0  0  0  0  0  0  0  0
   -6.9912    3.5213   -4.1692 O   0  0  0  0  0  0  0  0  0  0  0  0
   -8.0236    5.5494   -3.4065 C   0  0  0  0  0  0  0  0  0  0  0  0
   -8.3870    6.1640   -4.6034 C   0  0  0  0  0  0  0  0  0  0  0  0
   -9.1235    7.3658   -4.5496 C   0  0  0  0  0  0  0  0  0  0  0  0
   -9.4734    8.0426   -5.7277 C   0  0  0  0  0  0  0  0  0  0  0  0
  -10.2262    9.2200   -5.6659 C   0  0  0  0  0  0  0  0  0  0  0  0
  -10.6369    9.7291   -4.4324 C   0  0  0  0  0  0  0  0  0  0  0  0
  -11.3808   10.8609   -4.3792 F   0  0  0  0  0  0  0  0  0  0  0  0
  -10.2946    9.0656   -3.2457 C   0  0  0  0  0  0  0  0  0  0  0  0
   -9.5318    7.8895   -3.2923 C   0  0  0  0  0  0  0  0  0  0  0  0
   -9.1743    7.2235   -2.1041 C   0  0  0  0  0  0  0  0  0  0  0  0
   -8.3793    6.0690   -2.1712 C   0  0  0  0  0  0  0  0  0  0  0  0
   -7.8215    5.2049   -1.0935 C   0  0  0  0  0  0  0  0  0  0  0  0
   -7.6614    5.5465    0.2164 C   0  0  0  0  0  0  0  0  0  0  0  0
   -6.8071    4.8065    1.1059 C   0  0  0  0  0  0  0  0  0  0  0  0
   -6.1169    4.2175    1.8289 N   0  0  0  0  0  0  0  0  0  0  0  0
   -8.2149    6.7483    0.7849 C   0  0  0  0  0  0  0  0  0  0  0  0
   -8.6464    7.7147    1.2538 N   0  0  0  0  0  0  0  0  0  0  0  0
    2.6030   -1.1978    6.9163 H   0  0  0  0  0  0  0  0  0  0  0  0
    4.2466    2.6127   10.2092 H   0  0  0  0  0  0  0  0  0  0  0  0
    6.1101    4.0800    5.6943 H   0  0  0  0  0  0  0  0  0  0  0  0
    5.6087    6.6839    7.8385 H   0  0  0  0  0  0  0  0  0  0  0  0
    8.1977    6.7741    7.8975 H   0  0  0  0  0  0  0  0  0  0  0  0
    9.2177    4.4248    8.5915 H   0  0  0  0  0  0  0  0  0  0  0  0
    8.2120    3.7537   10.9005 H   0  0  0  0  0  0  0  0  0  0  0  0
    6.5394    5.6611   11.6691 H   0  0  0  0  0  0  0  0  0  0  0  0
    8.4499    7.0673   10.5032 H   0  0  0  0  0  0  0  0  0  0  0  0
    6.8284    7.7216    9.9977 H   0  0  0  0  0  0  0  0  0  0  0  0
    4.7006    6.0392    9.9020 H   0  0  0  0  0  0  0  0  0  0  0  0
    4.7477   -1.3556   -3.0200 H   0  0  0  0  0  0  0  0  0  0  0  0
    5.0039    0.9087   -3.9273 H   0  0  0  0  0  0  0  0  0  0  0  0
    7.6663    4.1615   -3.1287 H   0  0  0  0  0  0  0  0  0  0  0  0
    7.6100    2.7922   -1.9538 H   0  0  0  0  0  0  0  0  0  0  0  0
    7.3150    2.4925   -3.7185 H   0  0  0  0  0  0  0  0  0  0  0  0
    5.0903    2.5032    0.0741 H   0  0  0  0  0  0  0  0  0  0  0  0
    4.7605    0.2229    0.9819 H   0  0  0  0  0  0  0  0  0  0  0  0
    7.2662   -1.3242   -0.9682 H   0  0  0  0  0  0  0  0  0  0  0  0
    9.1153   -2.7821   -1.6187 H   0  0  0  0  0  0  0  0  0  0  0  0
    9.3042   -6.0326    0.6427 H   0  0  0  0  0  0  0  0  0  0  0  0
   10.5477   -4.7946    0.1418 H   0  0  0  0  0  0  0  0  0  0  0  0
   10.8622   -6.5623   -0.0999 H   0  0  0  0  0  0  0  0  0  0  0  0
    6.6470   -6.2339   -0.9095 H   0  0  0  0  0  0  0  0  0  0  0  0
    4.7771   -4.8179   -0.3248 H   0  0  0  0  0  0  0  0  0  0  0  0
   -2.4291   -6.4839   -3.0123 H   0  0  0  0  0  0  0  0  0  0  0  0
   -2.5448   -7.6569   -5.1754 H   0  0  0  0  0  0  0  0  0  0  0  0
    1.1796   -9.5223   -6.2870 H   0  0  0  0  0  0  0  0  0  0  0  0
   -0.4805  -10.1402   -5.8823 H   0  0  0  0  0  0  0  0  0  0  0  0
    0.2103  -10.4001   -7.5233 H   0  0  0  0  0  0  0  0  0  0  0  0
    1.6154   -6.8092   -5.8647 H   0  0  0  0  0  0  0  0  0  0  0  0
    1.7612   -5.6879   -3.6929 H   0  0  0  0  0  0  0  0  0  0  0  0
   -1.3046   -4.0407    0.2434 H   0  0  0  0  0  0  0  0  0  0  0  0
   -2.2726   -5.0865    2.2635 H   0  0  0  0  0  0  0  0  0  0  0  0
   -0.2350   -8.1240    3.4934 H   0  0  0  0  0  0  0  0  0  0  0  0
   -1.2276   -8.1979    5.0039 H   0  0  0  0  0  0  0  0  0  0  0  0
   -0.9108   -6.6005    4.2241 H   0  0  0  0  0  0  0  0  0  0  0  0
   -1.4418   -8.9848    0.6534 H   0  0  0  0  0  0  0  0  0  0  0  0
   -0.4711   -7.9682   -1.3485 H   0  0  0  0  0  0  0  0  0  0  0  0
   -2.1624   -3.5549   -1.9170 H   0  0  0  0  0  0  0  0  0  0  0  0
   -5.6281   -3.7663   -2.4621 H   0  0  0  0  0  0  0  0  0  0  0  0
   -6.3309   -5.4352   -0.7832 H   0  0  0  0  0  0  0  0  0  0  0  0
   -7.0717   -3.6585    2.8003 H   0  0  0  0  0  0  0  0  0  0  0  0
   -7.6800   -5.1627    3.5746 H   0  0  0  0  0  0  0  0  0  0  0  0
   -8.2032   -4.1962    0.6968 H   0  0  0  0  0  0  0  0  0  0  0  0
   -9.3893   -4.4473    2.0304 H   0  0  0  0  0  0  0  0  0  0  0  0
   -8.5916   -5.8774    1.2699 H   0  0  0  0  0  0  0  0  0  0  0  0
   -4.1971   -3.2639    2.2651 H   0  0  0  0  0  0  0  0  0  0  0  0
   -3.4690   -1.6169    0.5856 H   0  0  0  0  0  0  0  0  0  0  0  0
   -4.3636    1.6252   -5.8647 H   0  0  0  0  0  0  0  0  0  0  0  0
   -3.5099    3.3685   -7.3780 H   0  0  0  0  0  0  0  0  0  0  0  0
    0.8174    4.3216   -8.8644 H   0  0  0  0  0  0  0  0  0  0  0  0
    0.4836    2.9833   -7.7189 H   0  0  0  0  0  0  0  0  0  0  0  0
   -1.5890    2.3979   -9.0083 H   0  0  0  0  0  0  0  0  0  0  0  0
   -1.2848    3.7960  -10.1254 H   0  0  0  0  0  0  0  0  0  0  0  0
   -0.1375    2.4016  -10.0787 H   0  0  0  0  0  0  0  0  0  0  0  0
    0.0600    3.6983   -4.9981 H   0  0  0  0  0  0  0  0  0  0  0  0
   -0.7907    1.9656   -3.4696 H   0  0  0  0  0  0  0  0  0  0  0  0
   -4.7459    2.8534   -3.2038 H   0  0  0  0  0  0  0  0  0  0  0  0
   -7.0985    2.6826   -0.1890 H   0  0  0  0  0  0  0  0  0  0  0  0
   -8.0961    5.7258   -5.5500 H   0  0  0  0  0  0  0  0  0  0  0  0
   -9.1664    7.6600   -6.6959 H   0  0  0  0  0  0  0  0  0  0  0  0
  -10.4877    9.7415   -6.5727 H   0  0  0  0  0  0  0  0  0  0  0  0
  -10.6167    9.4846   -2.2979 H   0  0  0  0  0  0  0  0  0  0  0  0
   -9.5268    7.6142   -1.1613 H   0  0  0  0  0  0  0  0  0  0  0  0
  1  2  2  3
  2  3  1  0
  3  4  2  0
  3  5  1  0
  5  6  2  0
  6  7  1  0
  7  8  2  0
  8  9  1  0
  9 10  2  0
 10 11  1  0
 11 12  2  3
 12 13  1  0
 13 14  3  0
 12 15  1  0
 15 16  3  0
  8 17  1  0
 17 18  1  0
 18 19  1  0
 19 20  2  0
 20 21  1  0
 21 22  1  0
 21 23  1  0
  1 24  1  0
 24 25  2  0
 25 26  1  0
 26 27  1  0
 27 28  2  0
 28 29  2  0
 26 30  2  0
 30 31  1  0
 31 32  2  0
 32 33  1  0
 33 34  1  0
 34 35  2  0
 30 36  1  0
 36 37  2  0
 37 38  1  0
 38 39  1  0
 39 40  2  0
 40 41  1  0
 41 42  2  0
 42 43  1  0
 43 44  1  0
 42 45  1  0
 45 46  2  0
 38 47  1  0
 47 48  2  0
 48 49  1  0
 49 50  2  0
 50 51  1  0
 51 52  1  0
 50 53  1  0
 53 54  2  0
 37 55  1  0
 55 56  1  0
 56 57  1  0
 57 58  2  0
 58 59  1  0
 59 60  1  0
 60 61  2  0
 61 62  1  0
 62 63  2  0
 63 64  1  0
 64 65  1  0
 63 66  1  0
 66 67  2  0
 59 68  1  0
 68 69  2  0
 69 70  1  0
 70 71  2  0
 71 72  1  0
 72 73  1  0
 71 74  1  0
 74 75  2  0
 58 76  1  0
 76 77  1  0
 57 78  1  0
 78 79  2  0
 79 80  1  0
 80 81  2  0
 81 82  1  0
 82 83  2  0
 83 84  1  0
 84 85  2  0
 85 86  1  0
 86 87  1  0
 87 88  1  0
 85 89  1  0
 89 90  2  0
 81 91  1  0
 91 92  2  0
 92 93  1  0
 93 94  1  0
 94 95  2  0
 95 96  1  0
 96 97  2  0
 97 98  1  0
 98 99  1  0
 99100  1  0
 97101  1  0
101102  2  0
 93103  2  0
103104  1  0
 92105  1  0
105106  2  0
106107  1  0
106108  1  0
108109  2  3
109110  1  0
110111  2  0
110112  1  0
112113  2  0
113114  1  0
114115  2  0
115116  1  0
116117  2  0
117118  1  0
117119  1  0
119120  2  0
120121  1  0
121122  2  0
122123  1  0
123124  2  3
124125  1  0
125126  3  0
124127  1  0
127128  3  0
 11  2  1  0
 23 17  1  0
 35 24  1  0
 77 36  1  0
104 78  1  0
123109  1  0
 10  5  1  0
 22 18  1  0
 29 25  1  0
 35 31  1  0
 46 39  1  0
 54 47  1  0
 76 55  2  0
103 80  1  0
122112  1  0
 23  7  1  0
 67 60  1  0
 75 68  1  0
 90 82  1  0
107 91  1  0
120114  1  0
102 94  1  0
  1129  1  0
  6130  1  0
  9131  1  0
 17132  1  0
 18133  1  0
 19134  1  0
 20135  1  0
 21136  1  0
 22137  1  0
 22138  1  0
 23139  1  0
 40140  1  0
 41141  1  0
 44142  1  0
 44143  1  0
 44144  1  0
 45145  1  0
 46146  1  0
 48147  1  0
 49148  1  0
 52149  1  0
 52150  1  0
 52151  1  0
 53152  1  0
 54153  1  0
 61154  1  0
 62155  1  0
 65156  1  0
 65157  1  0
 65158  1  0
 66159  1  0
 67160  1  0
 69161  1  0
 70162  1  0
 73163  1  0
 73164  1  0
 73165  1  0
 74166  1  0
 75167  1  0
 79168  1  0
 83169  1  0
 84170  1  0
 87171  1  0
 87172  1  0
 88173  1  0
 88174  1  0
 88175  1  0
 89176  1  0
 90177  1  0
 95178  1  0
 96179  1  0
 99180  1  0
 99181  1  0
100182  1  0
100183  1  0
100184  1  0
101185  1  0
102186  1  0
105187  1  0
108188  1  0
113189  1  0
115190  1  0
116191  1  0
119192  1  0
121193  1  0
M  END

