
     RDKit          3D

191211  0  0  0  0  0  0  0  0999 V2000
   -7.6767   -1.6286   -5.2933 C   0  0  0  0  0  0  0  0  0  0  0  0
   -6.5330   -1.5742   -5.9996 C   0  0  0  0  0  0  0  0  0  0  0  0
   -5.1785   -1.4425   -5.4374 C   0  0  0  0  0  0  0  0  0  0  0  0
   -4.8818   -0.9986   -4.2967 O   0  0  0  0  0  0  0  0  0  0  0  0
   -4.2188   -1.8679   -6.4306 C   0  0  0  0  0  0  0  0  0  0  0  0
   -2.8297   -2.0799   -6.2422 C   0  0  0  0  0  0  0  0  0  0  0  0
   -2.2051   -2.6769   -7.3200 C   0  0  0  0  0  0  0  0  0  0  0  0
   -2.8968   -3.0334   -8.5239 C   0  0  0  0  0  0  0  0  0  0  0  0
   -4.2473   -2.8007   -8.7234 C   0  0  0  0  0  0  0  0  0  0  0  0
   -4.9103   -2.1757   -7.6288 C   0  0  0  0  0  0  0  0  0  0  0  0
   -6.3560   -1.8579   -7.4593 C   0  0  0  0  0  0  0  0  0  0  0  0
   -7.2555   -1.6458   -8.4524 C   0  0  0  0  0  0  0  0  0  0  0  0
   -8.6062   -1.2243   -8.1983 C   0  0  0  0  0  0  0  0  0  0  0  0
   -9.6945   -0.8914   -7.9948 N   0  0  0  0  0  0  0  0  0  0  0  0
   -6.8971   -1.7559   -9.8436 C   0  0  0  0  0  0  0  0  0  0  0  0
   -6.6276   -1.8379  -10.9666 N   0  0  0  0  0  0  0  0  0  0  0  0
   -1.6352   -3.6091   -9.0995 C   0  0  0  0  0  0  0  0  0  0  0  0
   -0.8996   -2.7952  -10.2062 C   0  0  0  0  0  0  0  0  0  0  0  0
   -1.1371   -1.3148  -10.0049 C   0  0  0  0  0  0  0  0  0  0  0  0
   -0.4949   -0.9758   -8.8884 C   0  0  0  0  0  0  0  0  0  0  0  0
    0.1589   -2.2371   -8.3647 C   0  0  0  0  0  0  0  0  0  0  0  0
    0.5256   -2.8820   -9.6896 C   0  0  0  0  0  0  0  0  0  0  0  0
   -0.9260   -3.2374   -7.8714 C   0  0  0  0  0  0  0  0  0  0  0  0
   -7.7088   -1.6006   -3.8273 C   0  0  0  0  0  0  0  0  0  0  0  0
   -6.9171   -2.7162   -2.8234 S   0  0  0  0  0  0  0  0  0  0  0  0
   -7.3027   -1.9146   -1.4051 C   0  0  0  0  0  0  0  0  0  0  0  0
   -6.5714   -1.8817   -0.1485 C   0  0  0  0  0  0  0  0  0  0  0  0
   -6.7204   -0.7172    0.5665 C   0  0  0  0  0  0  0  0  0  0  0  0
   -7.9782    0.4765   -0.2519 Ge  0  0  0  0  0  4  0  0  0  0  0  0
   -7.1492    2.1902   -0.6672 C   0  0  0  0  0  0  0  0  0  0  0  0
   -7.9676    2.9535   -1.6979 C   0  0  0  0  0  0  0  0  0  0  0  0
   -9.6717    0.6000    0.7042 C   0  0  0  0  0  0  0  0  0  0  0  0
   -9.9921   -0.7138    1.4034 C   0  0  0  0  0  0  0  0  0  0  0  0
   -8.0132   -0.7778   -1.6945 C   0  0  0  0  0  0  0  0  0  0  0  0
   -8.2700   -0.5819   -3.0541 C   0  0  0  0  0  0  0  0  0  0  0  0
   -5.5972   -0.3429    1.3085 C   0  0  0  0  0  0  0  0  0  0  0  0
   -4.5169   -1.2270    1.1586 C   0  0  0  0  0  0  0  0  0  0  0  0
   -5.0196   -2.4452    0.1061 S   0  0  0  0  0  0  0  0  0  0  0  0
   -3.1100   -0.8246    1.3896 C   0  0  0  0  0  0  0  0  0  0  0  0
   -1.9114   -1.5968    1.4944 C   0  0  0  0  0  0  0  0  0  0  0  0
   -1.7746   -3.0297    1.3247 N   0  0  0  0  0  0  0  0  0  0  0  0
   -2.2122   -3.6280    0.0844 C   0  0  0  0  0  0  0  0  0  0  0  0
   -1.9871   -2.9788   -1.1455 C   0  0  0  0  0  0  0  0  0  0  0  0
   -2.5056   -3.5188   -2.3277 C   0  0  0  0  0  0  0  0  0  0  0  0
   -3.2369   -4.7123   -2.3025 C   0  0  0  0  0  0  0  0  0  0  0  0
   -4.0240   -5.3142   -3.7974 S   0  0  0  0  0  0  0  0  0  0  0  0
   -2.6398   -6.4029   -4.2486 C   0  0  0  0  0  0  0  0  0  0  0  0
   -3.4158   -5.3848   -1.0870 C   0  0  0  0  0  0  0  0  0  0  0  0
   -2.8954   -4.8557    0.0956 C   0  0  0  0  0  0  0  0  0  0  0  0
   -0.8848   -3.7815    2.1982 C   0  0  0  0  0  0  0  0  0  0  0  0
   -0.1542   -4.8884    1.7157 C   0  0  0  0  0  0  0  0  0  0  0  0
    0.7821   -5.5414    2.5259 C   0  0  0  0  0  0  0  0  0  0  0  0
    1.0322   -5.0772    3.8167 C   0  0  0  0  0  0  0  0  0  0  0  0
    2.3322   -5.8318    4.7978 S   0  0  0  0  0  0  0  0  0  0  0  0
    3.6581   -4.8936    3.9708 C   0  0  0  0  0  0  0  0  0  0  0  0
    0.2947   -4.0004    4.3198 C   0  0  0  0  0  0  0  0  0  0  0  0
   -0.6781   -3.3816    3.5314 C   0  0  0  0  0  0  0  0  0  0  0  0
   -0.8040   -0.7489    1.6875 C   0  0  0  0  0  0  0  0  0  0  0  0
    0.8573   -0.9596    1.8233 S   0  0  0  0  0  0  0  0  0  0  0  0
    1.2044    0.7102    1.9038 C   0  0  0  0  0  0  0  0  0  0  0  0
    0.0083    1.4343    1.7740 C   0  0  0  0  0  0  0  0  0  0  0  0
   -0.0771    2.8266    1.4236 N   0  0  0  0  0  0  0  0  0  0  0  0
   -0.1442    3.8255    2.4580 C   0  0  0  0  0  0  0  0  0  0  0  0
    0.5001    5.0558    2.2687 C   0  0  0  0  0  0  0  0  0  0  0  0
    0.2958    6.1018    3.1740 C   0  0  0  0  0  0  0  0  0  0  0  0
   -0.5561    5.9250    4.2701 C   0  0  0  0  0  0  0  0  0  0  0  0
   -0.8820    7.2968    5.3779 S   0  0  0  0  0  0  0  0  0  0  0  0
   -2.4559    7.7337    4.5672 C   0  0  0  0  0  0  0  0  0  0  0  0
   -1.1747    4.6904    4.4752 C   0  0  0  0  0  0  0  0  0  0  0  0
   -0.9760    3.6456    3.5729 C   0  0  0  0  0  0  0  0  0  0  0  0
   -0.5538    3.1653    0.1009 C   0  0  0  0  0  0  0  0  0  0  0  0
    0.0014    2.5505   -1.0350 C   0  0  0  0  0  0  0  0  0  0  0  0
   -0.4905    2.8523   -2.3139 C   0  0  0  0  0  0  0  0  0  0  0  0
   -1.5469    3.7584   -2.4689 C   0  0  0  0  0  0  0  0  0  0  0  0
   -2.1871    4.1516   -4.0988 S   0  0  0  0  0  0  0  0  0  0  0  0
   -1.1702    5.6488   -4.2705 C   0  0  0  0  0  0  0  0  0  0  0  0
   -2.1130    4.3573   -1.3417 C   0  0  0  0  0  0  0  0  0  0  0  0
   -1.6220    4.0673   -0.0706 C   0  0  0  0  0  0  0  0  0  0  0  0
   -1.0775    0.5762    1.6872 C   0  0  0  0  0  0  0  0  0  0  0  0
   -2.7050    0.8259    1.4799 S   0  0  0  0  0  0  0  0  0  0  0  0
    2.5586    1.2687    2.0934 C   0  0  0  0  0  0  0  0  0  0  0  0
    3.5976    0.8857    1.2301 C   0  0  0  0  0  0  0  0  0  0  0  0
    3.3451    0.0761    0.1727 F   0  0  0  0  0  0  0  0  0  0  0  0
    4.9078    1.2921    1.4817 C   0  0  0  0  0  0  0  0  0  0  0  0
    5.9058    0.8245    0.6904 F   0  0  0  0  0  0  0  0  0  0  0  0
    5.2035    2.1322    2.5668 C   0  0  0  0  0  0  0  0  0  0  0  0
    4.1562    2.6097    3.3693 C   0  0  0  0  0  0  0  0  0  0  0  0
    4.3919    3.4797    4.3833 N   0  0  0  0  0  0  0  0  0  0  0  0
    3.4370    3.7978    5.2955 C   0  0  0  0  0  0  0  0  0  0  0  0
    3.7672    4.8236    6.3477 C   0  0  0  0  0  0  0  0  0  0  0  0
    3.1914    6.1857    5.9741 C   0  0  0  0  0  0  0  0  0  0  0  0
    2.1879    3.1383    5.2292 C   0  0  0  0  0  0  0  0  0  0  0  0
    1.9286    2.3364    4.1605 N   0  0  0  0  0  0  0  0  0  0  0  0
    2.8532    2.1018    3.1924 C   0  0  0  0  0  0  0  0  0  0  0  0
    1.1954    3.1577    6.3611 C   0  0  0  0  0  0  0  0  0  0  0  0
    1.5687    2.1165    7.4122 C   0  0  0  0  0  0  0  0  0  0  0  0
    6.6202    2.3174    2.9534 C   0  0  0  0  0  0  0  0  0  0  0  0
    7.3052    1.3029    3.5198 C   0  0  0  0  0  0  0  0  0  0  0  0
    8.7045    1.0159    3.2009 C   0  0  0  0  0  0  0  0  0  0  0  0
    9.5767    1.8567    2.8589 O   0  0  0  0  0  0  0  0  0  0  0  0
    8.8958   -0.4254    3.2439 C   0  0  0  0  0  0  0  0  0  0  0  0
   10.0691   -1.1589    2.9343 C   0  0  0  0  0  0  0  0  0  0  0  0
    9.8995   -2.5323    3.0146 C   0  0  0  0  0  0  0  0  0  0  0  0
    8.6492   -3.1483    3.3440 C   0  0  0  0  0  0  0  0  0  0  0  0
    7.5048   -2.4421    3.6565 C   0  0  0  0  0  0  0  0  0  0  0  0
    7.6743   -1.0339    3.6311 C   0  0  0  0  0  0  0  0  0  0  0  0
    6.7083    0.0241    3.9929 C   0  0  0  0  0  0  0  0  0  0  0  0
    5.8426   -0.0679    5.0190 C   0  0  0  0  0  0  0  0  0  0  0  0
    5.2461   -1.3143    5.4344 C   0  0  0  0  0  0  0  0  0  0  0  0
    4.7424   -2.3019    5.7766 N   0  0  0  0  0  0  0  0  0  0  0  0
    5.6230    1.0461    5.9036 C   0  0  0  0  0  0  0  0  0  0  0  0
    5.4622    1.9232    6.6443 N   0  0  0  0  0  0  0  0  0  0  0  0
    9.2637   -4.5070    3.2229 C   0  0  0  0  0  0  0  0  0  0  0  0
    9.5495   -5.2846    4.5429 C   0  0  0  0  0  0  0  0  0  0  0  0
    9.8364   -4.3099    5.6650 C   0  0  0  0  0  0  0  0  0  0  0  0
   11.0028   -3.7314    5.3752 C   0  0  0  0  0  0  0  0  0  0  0  0
   11.4778   -4.3385    4.0730 C   0  0  0  0  0  0  0  0  0  0  0  0
   10.9664   -5.7535    4.2665 C   0  0  0  0  0  0  0  0  0  0  0  0
   10.5505   -3.8793    2.9037 C   0  0  0  0  0  0  0  0  0  0  0  0
   -8.6275   -1.7855   -5.7704 H   0  0  0  0  0  0  0  0  0  0  0  0
   -2.3102   -1.8462   -5.3225 H   0  0  0  0  0  0  0  0  0  0  0  0
   -4.7342   -3.1363   -9.6248 H   0  0  0  0  0  0  0  0  0  0  0  0
   -1.6805   -4.7074   -9.2784 H   0  0  0  0  0  0  0  0  0  0  0  0
   -1.0536   -3.1534  -11.2461 H   0  0  0  0  0  0  0  0  0  0  0  0
   -1.6549   -0.6354  -10.6753 H   0  0  0  0  0  0  0  0  0  0  0  0
   -0.4016    0.0283   -8.4887 H   0  0  0  0  0  0  0  0  0  0  0  0
    1.0014   -2.0731   -7.6579 H   0  0  0  0  0  0  0  0  0  0  0  0
    1.2508   -2.2865  -10.2912 H   0  0  0  0  0  0  0  0  0  0  0  0
    0.8999   -3.9270   -9.5850 H   0  0  0  0  0  0  0  0  0  0  0  0
   -0.5425   -4.1167   -7.3041 H   0  0  0  0  0  0  0  0  0  0  0  0
   -7.0835    2.7811    0.2704 H   0  0  0  0  0  0  0  0  0  0  0  0
   -6.1233    2.0151   -1.0572 H   0  0  0  0  0  0  0  0  0  0  0  0
   -7.8901    2.4534   -2.6885 H   0  0  0  0  0  0  0  0  0  0  0  0
   -9.0369    3.0037   -1.3949 H   0  0  0  0  0  0  0  0  0  0  0  0
   -7.5732    3.9872   -1.7955 H   0  0  0  0  0  0  0  0  0  0  0  0
   -9.6087    1.4169    1.4574 H   0  0  0  0  0  0  0  0  0  0  0  0
  -10.4733    0.8479   -0.0238 H   0  0  0  0  0  0  0  0  0  0  0  0
   -9.2400   -0.9154    2.1963 H   0  0  0  0  0  0  0  0  0  0  0  0
  -10.9969   -0.6491    1.8770 H   0  0  0  0  0  0  0  0  0  0  0  0
   -9.9952   -1.5514    0.6729 H   0  0  0  0  0  0  0  0  0  0  0  0
   -8.7287    0.3099   -3.4607 H   0  0  0  0  0  0  0  0  0  0  0  0
   -5.5091    0.6401    1.7608 H   0  0  0  0  0  0  0  0  0  0  0  0
   -1.4521   -2.0410   -1.1818 H   0  0  0  0  0  0  0  0  0  0  0  0
   -2.3627   -2.9941   -3.2599 H   0  0  0  0  0  0  0  0  0  0  0  0
   -2.3804   -7.0678   -3.3969 H   0  0  0  0  0  0  0  0  0  0  0  0
   -1.7574   -5.7924   -4.5315 H   0  0  0  0  0  0  0  0  0  0  0  0
   -2.9474   -7.0323   -5.1108 H   0  0  0  0  0  0  0  0  0  0  0  0
   -3.9878   -6.3028   -1.0585 H   0  0  0  0  0  0  0  0  0  0  0  0
   -3.0685   -5.3742    1.0274 H   0  0  0  0  0  0  0  0  0  0  0  0
   -0.2622   -5.2269    0.6949 H   0  0  0  0  0  0  0  0  0  0  0  0
    1.3470   -6.3754    2.1281 H   0  0  0  0  0  0  0  0  0  0  0  0
    3.8031   -5.2772    2.9382 H   0  0  0  0  0  0  0  0  0  0  0  0
    4.6028   -5.0219    4.5332 H   0  0  0  0  0  0  0  0  0  0  0  0
    3.4082   -3.8152    3.9290 H   0  0  0  0  0  0  0  0  0  0  0  0
    0.4845   -3.6337    5.3208 H   0  0  0  0  0  0  0  0  0  0  0  0
   -1.2410   -2.5549    3.9472 H   0  0  0  0  0  0  0  0  0  0  0  0
    1.1246    5.2170    1.4035 H   0  0  0  0  0  0  0  0  0  0  0  0
    0.7740    7.0567    3.0044 H   0  0  0  0  0  0  0  0  0  0  0  0
   -3.2447    7.0255    4.8869 H   0  0  0  0  0  0  0  0  0  0  0  0
   -2.3510    7.7038    3.4695 H   0  0  0  0  0  0  0  0  0  0  0  0
   -2.7558    8.7560    4.8727 H   0  0  0  0  0  0  0  0  0  0  0  0
   -1.8329    4.5424    5.3210 H   0  0  0  0  0  0  0  0  0  0  0  0
   -1.4999    2.7126    3.7220 H   0  0  0  0  0  0  0  0  0  0  0  0
    0.8111    1.8438   -0.9292 H   0  0  0  0  0  0  0  0  0  0  0  0
   -0.0522    2.3724   -3.1784 H   0  0  0  0  0  0  0  0  0  0  0  0
   -1.4530    6.1822   -5.1960 H   0  0  0  0  0  0  0  0  0  0  0  0
   -1.3403    6.3307   -3.4122 H   0  0  0  0  0  0  0  0  0  0  0  0
   -0.0969    5.3793   -4.3216 H   0  0  0  0  0  0  0  0  0  0  0  0
   -2.9324    5.0571   -1.4493 H   0  0  0  0  0  0  0  0  0  0  0  0
   -2.0873    4.5352    0.7881 H   0  0  0  0  0  0  0  0  0  0  0  0
    3.3880    4.5139    7.3423 H   0  0  0  0  0  0  0  0  0  0  0  0
    4.8710    4.9171    6.4363 H   0  0  0  0  0  0  0  0  0  0  0  0
    3.4740    6.9352    6.7458 H   0  0  0  0  0  0  0  0  0  0  0  0
    3.5944    6.5200    4.9935 H   0  0  0  0  0  0  0  0  0  0  0  0
    2.0853    6.1415    5.9173 H   0  0  0  0  0  0  0  0  0  0  0  0
    1.1250    4.1643    6.8287 H   0  0  0  0  0  0  0  0  0  0  0  0
    0.1869    2.8996    5.9830 H   0  0  0  0  0  0  0  0  0  0  0  0
    0.8405    2.1487    8.2486 H   0  0  0  0  0  0  0  0  0  0  0  0
    2.5869    2.2971    7.8195 H   0  0  0  0  0  0  0  0  0  0  0  0
    1.5419    1.0975    6.9634 H   0  0  0  0  0  0  0  0  0  0  0  0
    7.1650    3.1271    2.4885 H   0  0  0  0  0  0  0  0  0  0  0  0
   11.0164   -0.6963    2.6687 H   0  0  0  0  0  0  0  0  0  0  0  0
    6.5791   -2.9426    3.8965 H   0  0  0  0  0  0  0  0  0  0  0  0
    8.8429   -5.1196    2.3926 H   0  0  0  0  0  0  0  0  0  0  0  0
    8.8199   -6.0844    4.7879 H   0  0  0  0  0  0  0  0  0  0  0  0
    9.2559   -4.1519    6.5670 H   0  0  0  0  0  0  0  0  0  0  0  0
   11.5327   -3.0165    5.9993 H   0  0  0  0  0  0  0  0  0  0  0  0
   12.5695   -4.2477    3.8851 H   0  0  0  0  0  0  0  0  0  0  0  0
   11.0537   -6.3881    3.3498 H   0  0  0  0  0  0  0  0  0  0  0  0
   11.4393   -6.2827    5.1297 H   0  0  0  0  0  0  0  0  0  0  0  0
   10.9198   -4.1230    1.8854 H   0  0  0  0  0  0  0  0  0  0  0  0
  1  2  2  3
  2  3  1  0
  3  4  2  0
  3  5  1  0
  5  6  2  0
  6  7  1  0
  7  8  2  0
  8  9  1  0
  9 10  2  0
 10 11  1  0
 11 12  2  3
 12 13  1  0
 13 14  3  0
 12 15  1  0
 15 16  3  0
  8 17  1  0
 17 18  1  0
 18 19  1  0
 19 20  2  0
 20 21  1  0
 21 22  1  0
 21 23  1  0
  1 24  1  0
 24 25  1  0
 25 26  1  0
 26 27  1  0
 27 28  2  0
 28 29  1  0
 29 30  1  0
 30 31  1  0
 29 32  1  0
 32 33  1  0
 29 34  1  0
 34 35  1  0
 28 36  1  0
 36 37  2  0
 37 38  1  0
 37 39  1  0
 39 40  2  0
 40 41  1  0
 41 42  1  0
 42 43  2  0
 43 44  1  0
 44 45  2  0
 45 46  1  0
 46 47  1  0
 45 48  1  0
 48 49  2  0
 41 50  1  0
 50 51  2  0
 51 52  1  0
 52 53  2  0
 53 54  1  0
 54 55  1  0
 53 56  1  0
 56 57  2  0
 40 58  1  0
 58 59  1  0
 59 60  1  0
 60 61  2  0
 61 62  1  0
 62 63  1  0
 63 64  2  0
 64 65  1  0
 65 66  2  0
 66 67  1  0
 67 68  1  0
 66 69  1  0
 69 70  2  0
 62 71  1  0
 71 72  2  0
 72 73  1  0
 73 74  2  0
 74 75  1  0
 75 76  1  0
 74 77  1  0
 77 78  2  0
 61 79  1  0
 79 80  1  0
 60 81  1  0
 81 82  2  0
 82 83  1  0
 82 84  1  0
 84 85  1  0
 84 86  2  0
 86 87  1  0
 87 88  2  0
 88 89  1  0
 89 90  1  0
 90 91  1  0
 89 92  2  0
 92 93  1  0
 93 94  2  0
 92 95  1  0
 95 96  1  0
 86 97  1  0
 97 98  2  3
 98 99  1  0
 99100  2  0
 99101  1  0
101102  2  0
102103  1  0
103104  2  0
104105  1  0
105106  2  0
106107  1  0
107108  2  3
108109  1  0
109110  3  0
108111  1  0
111112  3  0
104113  1  0
113114  1  0
114115  1  0
115116  2  0
116117  1  0
117118  1  0
117119  1  0
 11  2  1  0
 23 17  1  0
 35 24  2  0
 80 39  1  0
 94 81  1  0
107 98  1  0
119113  1  0
 10  5  1  0
 22 18  1  0
 34 26  2  0
 49 42  1  0
 57 50  1  0
 79 58  2  0
 94 87  1  0
106101  1  0
118114  1  0
 23  7  1  0
 38 27  1  0
 70 63  1  0
 78 71  1  0
119103  1  0
  1120  1  0
  6121  1  0
  9122  1  0
 17123  1  0
 18124  1  0
 19125  1  0
 20126  1  0
 21127  1  0
 22128  1  0
 22129  1  0
 23130  1  0
 30131  1  0
 30132  1  0
 31133  1  0
 31134  1  0
 31135  1  0
 32136  1  0
 32137  1  0
 33138  1  0
 33139  1  0
 33140  1  0
 35141  1  0
 36142  1  0
 43143  1  0
 44144  1  0
 47145  1  0
 47146  1  0
 47147  1  0
 48148  1  0
 49149  1  0
 51150  1  0
 52151  1  0
 55152  1  0
 55153  1  0
 55154  1  0
 56155  1  0
 57156  1  0
 64157  1  0
 65158  1  0
 68159  1  0
 68160  1  0
 68161  1  0
 69162  1  0
 70163  1  0
 72164  1  0
 73165  1  0
 76166  1  0
 76167  1  0
 76168  1  0
 77169  1  0
 78170  1  0
 90171  1  0
 90172  1  0
 91173  1  0
 91174  1  0
 91175  1  0
 95176  1  0
 95177  1  0
 96178  1  0
 96179  1  0
 96180  1  0
 97181  1  0
102182  1  0
105183  1  0
113184  1  0
114185  1  0
115186  1  0
116187  1  0
117188  1  0
118189  1  0
118190  1  0
119191  1  0
M  END

