
     RDKit          3D

191209  0  0  0  0  0  0  0  0999 V2000
    3.6669    8.3188   -2.4425 C   0  0  0  0  0  0  0  0  0  0  0  0
    2.4962    8.9821   -2.5187 C   0  0  0  0  0  0  0  0  0  0  0  0
    1.8201    9.4667   -1.3111 C   0  0  0  0  0  0  0  0  0  0  0  0
    2.3827    9.7944   -0.2327 O   0  0  0  0  0  0  0  0  0  0  0  0
    0.3838    9.3210   -1.4928 C   0  0  0  0  0  0  0  0  0  0  0  0
   -0.6134    9.3417   -0.4882 C   0  0  0  0  0  0  0  0  0  0  0  0
   -1.8403    8.8547   -0.9096 C   0  0  0  0  0  0  0  0  0  0  0  0
   -2.0770    8.3618   -2.2375 C   0  0  0  0  0  0  0  0  0  0  0  0
   -1.1107    8.3466   -3.2276 C   0  0  0  0  0  0  0  0  0  0  0  0
    0.1452    8.8673   -2.8159 C   0  0  0  0  0  0  0  0  0  0  0  0
    1.4268    8.8317   -3.5439 C   0  0  0  0  0  0  0  0  0  0  0  0
    1.5930    9.0323   -4.8697 C   0  0  0  0  0  0  0  0  0  0  0  0
    2.8992    9.3017   -5.4246 C   0  0  0  0  0  0  0  0  0  0  0  0
    3.9465    9.5134   -5.8749 N   0  0  0  0  0  0  0  0  0  0  0  0
    0.4732    9.1436   -5.7668 C   0  0  0  0  0  0  0  0  0  0  0  0
   -0.4292    9.2411   -6.4853 N   0  0  0  0  0  0  0  0  0  0  0  0
   -3.4665    7.9606   -1.8576 C   0  0  0  0  0  0  0  0  0  0  0  0
   -3.7483    6.4451   -1.6189 C   0  0  0  0  0  0  0  0  0  0  0  0
   -2.5055    5.7558   -1.0923 C   0  0  0  0  0  0  0  0  0  0  0  0
   -2.3085    6.2315    0.1378 C   0  0  0  0  0  0  0  0  0  0  0  0
   -3.4164    7.2276    0.4051 C   0  0  0  0  0  0  0  0  0  0  0  0
   -4.5459    6.5331   -0.3336 C   0  0  0  0  0  0  0  0  0  0  0  0
   -3.2357    8.4824   -0.5026 C   0  0  0  0  0  0  0  0  0  0  0  0
    3.9770    7.0549   -3.1693 C   0  0  0  0  0  0  0  0  0  0  0  0
    5.0727    6.1964   -2.8794 C   0  0  0  0  0  0  0  0  0  0  0  0
    6.2699    6.6352   -2.0681 C   0  0  0  0  0  0  0  0  0  0  0  0
    7.1524    7.5887   -2.8748 C   0  0  0  0  0  0  0  0  0  0  0  0
    4.9239    4.9159   -3.4834 C   0  0  0  0  0  0  0  0  0  0  0  0
    3.7986    4.8367   -4.2630 C   0  0  0  0  0  0  0  0  0  0  0  0
    2.8710    6.1995   -4.1193 S   0  0  0  0  0  0  0  0  0  0  0  0
    3.3975    3.4810   -4.4182 C   0  0  0  0  0  0  0  0  0  0  0  0
    4.2639    2.6838   -3.7439 C   0  0  0  0  0  0  0  0  0  0  0  0
    5.3608    3.4915   -3.0469 C   0  0  0  0  0  0  0  0  0  0  0  0
    6.7225    3.0573   -3.6666 C   0  0  0  0  0  0  0  0  0  0  0  0
    7.9761    3.6715   -3.0514 C   0  0  0  0  0  0  0  0  0  0  0  0
    5.2320    3.3473   -1.4905 C   0  0  0  0  0  0  0  0  0  0  0  0
    5.6107    1.9873   -0.8841 C   0  0  0  0  0  0  0  0  0  0  0  0
    3.7547    1.4088   -3.4955 C   0  0  0  0  0  0  0  0  0  0  0  0
    2.4139    1.2988   -3.8751 C   0  0  0  0  0  0  0  0  0  0  0  0
    1.8845    2.7728   -4.5268 S   0  0  0  0  0  0  0  0  0  0  0  0
    1.5158    0.3079   -3.2837 C   0  0  0  0  0  0  0  0  0  0  0  0
    1.6901   -1.0820   -3.3449 C   0  0  0  0  0  0  0  0  0  0  0  0
    2.3115   -1.7477   -4.4467 N   0  0  0  0  0  0  0  0  0  0  0  0
    1.5163   -2.0741   -5.5909 C   0  0  0  0  0  0  0  0  0  0  0  0
    0.9564   -1.0587   -6.3798 C   0  0  0  0  0  0  0  0  0  0  0  0
    0.1934   -1.3837   -7.5089 C   0  0  0  0  0  0  0  0  0  0  0  0
   -0.0174   -2.7257   -7.8517 C   0  0  0  0  0  0  0  0  0  0  0  0
   -0.9797   -3.1339   -9.3074 S   0  0  0  0  0  0  0  0  0  0  0  0
   -2.5589   -3.1737   -8.4034 C   0  0  0  0  0  0  0  0  0  0  0  0
    0.5311   -3.7410   -7.0623 C   0  0  0  0  0  0  0  0  0  0  0  0
    1.3022   -3.4170   -5.9384 C   0  0  0  0  0  0  0  0  0  0  0  0
    3.7303   -1.9358   -4.5024 C   0  0  0  0  0  0  0  0  0  0  0  0
    4.3475   -2.8712   -3.6587 C   0  0  0  0  0  0  0  0  0  0  0  0
    5.6999   -3.1758   -3.8275 C   0  0  0  0  0  0  0  0  0  0  0  0
    6.4379   -2.5525   -4.8411 C   0  0  0  0  0  0  0  0  0  0  0  0
    8.1482   -3.0158   -5.1276 S   0  0  0  0  0  0  0  0  0  0  0  0
    7.7219   -4.1693   -6.4772 C   0  0  0  0  0  0  0  0  0  0  0  0
    5.8362   -1.5801   -5.6486 C   0  0  0  0  0  0  0  0  0  0  0  0
    4.4799   -1.2902   -5.4931 C   0  0  0  0  0  0  0  0  0  0  0  0
    0.9245   -1.7293   -2.3853 C   0  0  0  0  0  0  0  0  0  0  0  0
    0.8434   -3.3055   -1.8056 S   0  0  0  0  0  0  0  0  0  0  0  0
   -0.2184   -2.9139   -0.5282 C   0  0  0  0  0  0  0  0  0  0  0  0
   -0.4780   -1.5363   -0.5557 C   0  0  0  0  0  0  0  0  0  0  0  0
   -1.4049   -0.8734    0.3233 N   0  0  0  0  0  0  0  0  0  0  0  0
   -2.7648   -1.3540    0.3556 C   0  0  0  0  0  0  0  0  0  0  0  0
   -3.4588   -1.4801    1.5683 C   0  0  0  0  0  0  0  0  0  0  0  0
   -4.7623   -1.9926    1.5881 C   0  0  0  0  0  0  0  0  0  0  0  0
   -5.3863   -2.3757    0.3966 C   0  0  0  0  0  0  0  0  0  0  0  0
   -7.0764   -2.9748    0.3969 S   0  0  0  0  0  0  0  0  0  0  0  0
   -6.6108   -4.7326    0.5078 C   0  0  0  0  0  0  0  0  0  0  0  0
   -4.7054   -2.2361   -0.8190 C   0  0  0  0  0  0  0  0  0  0  0  0
   -3.4011   -1.7394   -0.8386 C   0  0  0  0  0  0  0  0  0  0  0  0
   -1.0233    0.3483    0.9831 C   0  0  0  0  0  0  0  0  0  0  0  0
    0.2488    0.4639    1.5722 C   0  0  0  0  0  0  0  0  0  0  0  0
    0.6510    1.6698    2.1584 C   0  0  0  0  0  0  0  0  0  0  0  0
   -0.1952    2.7836    2.1257 C   0  0  0  0  0  0  0  0  0  0  0  0
    0.3370    4.3416    2.8443 S   0  0  0  0  0  0  0  0  0  0  0  0
    1.2752    4.8753    1.3736 C   0  0  0  0  0  0  0  0  0  0  0  0
   -1.4676    2.6731    1.5465 C   0  0  0  0  0  0  0  0  0  0  0  0
   -1.8801    1.4606    0.9861 C   0  0  0  0  0  0  0  0  0  0  0  0
    0.1847   -0.9103   -1.6015 C   0  0  0  0  0  0  0  0  0  0  0  0
    0.4244    0.6878   -2.0365 S   0  0  0  0  0  0  0  0  0  0  0  0
   -0.3383   -3.6958    0.7017 C   0  0  0  0  0  0  0  0  0  0  0  0
   -1.3115   -4.6716    0.9918 C   0  0  0  0  0  0  0  0  0  0  0  0
   -2.1954   -5.2896   -0.0590 C   0  0  0  0  0  0  0  0  0  0  0  0
   -1.4635   -6.4132   -0.7857 C   0  0  0  0  0  0  0  0  0  0  0  0
   -1.2811   -5.0138    2.3604 C   0  0  0  0  0  0  0  0  0  0  0  0
   -0.3089   -4.3466    3.0443 C   0  0  0  0  0  0  0  0  0  0  0  0
    0.5167   -3.2595    2.1051 S   0  0  0  0  0  0  0  0  0  0  0  0
   -0.4412   -4.5951    4.4403 C   0  0  0  0  0  0  0  0  0  0  0  0
   -1.4969   -5.4174    4.6439 C   0  0  0  0  0  0  0  0  0  0  0  0
   -2.1820   -5.7999    3.3265 C   0  0  0  0  0  0  0  0  0  0  0  0
   -3.6328   -5.2425    3.2578 C   0  0  0  0  0  0  0  0  0  0  0  0
   -4.5762   -5.7064    4.3725 C   0  0  0  0  0  0  0  0  0  0  0  0
   -2.1126   -7.3267    3.0574 C   0  0  0  0  0  0  0  0  0  0  0  0
   -0.6916   -7.8928    3.0059 C   0  0  0  0  0  0  0  0  0  0  0  0
   -1.7886   -5.6058    5.9961 C   0  0  0  0  0  0  0  0  0  0  0  0
   -0.9332   -4.8386    6.8037 C   0  0  0  0  0  0  0  0  0  0  0  0
    0.1742   -3.9645    5.8585 S   0  0  0  0  0  0  0  0  0  0  0  0
   -1.0568   -4.6712    8.2541 C   0  0  0  0  0  0  0  0  0  0  0  0
   -2.0204   -3.9212    8.8150 C   0  0  0  0  0  0  0  0  0  0  0  0
   -3.1867   -3.3501    8.1255 C   0  0  0  0  0  0  0  0  0  0  0  0
   -3.3211   -3.1729    6.8847 O   0  0  0  0  0  0  0  0  0  0  0  0
   -4.1798   -3.0179    9.1273 C   0  0  0  0  0  0  0  0  0  0  0  0
   -5.4867   -2.5828    8.9376 C   0  0  0  0  0  0  0  0  0  0  0  0
   -6.3207   -2.4450   10.0660 C   0  0  0  0  0  0  0  0  0  0  0  0
   -7.9739   -1.8941    9.8295 Cl  0  0  0  0  0  0  0  0  0  0  0  0
   -5.8381   -2.7933   11.3465 C   0  0  0  0  0  0  0  0  0  0  0  0
   -6.9688   -2.7132   12.8861 Br  0  0  0  0  0  0  0  0  0  0  0  0
   -4.5061   -3.2168   11.5080 C   0  0  0  0  0  0  0  0  0  0  0  0
   -3.6749   -3.2877   10.3869 C   0  0  0  0  0  0  0  0  0  0  0  0
   -2.2543   -3.7148   10.2742 C   0  0  0  0  0  0  0  0  0  0  0  0
   -1.3031   -3.5854   11.2300 C   0  0  0  0  0  0  0  0  0  0  0  0
    0.1030   -3.7254   10.9337 C   0  0  0  0  0  0  0  0  0  0  0  0
    1.2334   -3.8223   10.7035 N   0  0  0  0  0  0  0  0  0  0  0  0
   -1.6117   -3.0960   12.5479 C   0  0  0  0  0  0  0  0  0  0  0  0
   -1.8495   -2.6833   13.6020 N   0  0  0  0  0  0  0  0  0  0  0  0
    4.3038    8.5585   -1.6046 H   0  0  0  0  0  0  0  0  0  0  0  0
   -0.4209    9.6294    0.5390 H   0  0  0  0  0  0  0  0  0  0  0  0
   -1.2943    7.8965   -4.1954 H   0  0  0  0  0  0  0  0  0  0  0  0
   -4.2663    8.5038   -2.4136 H   0  0  0  0  0  0  0  0  0  0  0  0
   -4.2538    5.9209   -2.4569 H   0  0  0  0  0  0  0  0  0  0  0  0
   -1.9369    4.9673   -1.5693 H   0  0  0  0  0  0  0  0  0  0  0  0
   -1.5392    5.9101    0.8287 H   0  0  0  0  0  0  0  0  0  0  0  0
   -3.6085    7.4384    1.4791 H   0  0  0  0  0  0  0  0  0  0  0  0
   -5.4691    7.1572   -0.4299 H   0  0  0  0  0  0  0  0  0  0  0  0
   -4.8113    5.5369    0.0928 H   0  0  0  0  0  0  0  0  0  0  0  0
   -3.8839    9.3498   -0.2467 H   0  0  0  0  0  0  0  0  0  0  0  0
    6.8997    5.7899   -1.7501 H   0  0  0  0  0  0  0  0  0  0  0  0
    5.9508    7.1265   -1.1290 H   0  0  0  0  0  0  0  0  0  0  0  0
    7.4713    7.1101   -3.8265 H   0  0  0  0  0  0  0  0  0  0  0  0
    6.6086    8.5338   -3.1021 H   0  0  0  0  0  0  0  0  0  0  0  0
    8.0604    7.8486   -2.2850 H   0  0  0  0  0  0  0  0  0  0  0  0
    6.8183    1.9514   -3.5964 H   0  0  0  0  0  0  0  0  0  0  0  0
    6.7257    3.3010   -4.7543 H   0  0  0  0  0  0  0  0  0  0  0  0
    7.9782    3.5840   -1.9452 H   0  0  0  0  0  0  0  0  0  0  0  0
    8.8716    3.1322   -3.4371 H   0  0  0  0  0  0  0  0  0  0  0  0
    8.0772    4.7325   -3.3518 H   0  0  0  0  0  0  0  0  0  0  0  0
    4.1841    3.5792   -1.1944 H   0  0  0  0  0  0  0  0  0  0  0  0
    5.8487    4.1044   -0.9821 H   0  0  0  0  0  0  0  0  0  0  0  0
    6.4951    1.5418   -1.3773 H   0  0  0  0  0  0  0  0  0  0  0  0
    4.7555    1.2868   -0.9149 H   0  0  0  0  0  0  0  0  0  0  0  0
    5.8583    2.1247    0.1893 H   0  0  0  0  0  0  0  0  0  0  0  0
    4.2792    0.6446   -2.9409 H   0  0  0  0  0  0  0  0  0  0  0  0
    1.1162   -0.0199   -6.1262 H   0  0  0  0  0  0  0  0  0  0  0  0
   -0.2333   -0.5954   -8.1113 H   0  0  0  0  0  0  0  0  0  0  0  0
   -2.5268   -3.9552   -7.6169 H   0  0  0  0  0  0  0  0  0  0  0  0
   -3.3783   -3.4060   -9.1175 H   0  0  0  0  0  0  0  0  0  0  0  0
   -2.7559   -2.1842   -7.9400 H   0  0  0  0  0  0  0  0  0  0  0  0
    0.3634   -4.7812   -7.3117 H   0  0  0  0  0  0  0  0  0  0  0  0
    1.7148   -4.2057   -5.3238 H   0  0  0  0  0  0  0  0  0  0  0  0
    3.7734   -3.3741   -2.8922 H   0  0  0  0  0  0  0  0  0  0  0  0
    6.1651   -3.9132   -3.1873 H   0  0  0  0  0  0  0  0  0  0  0  0
    7.2138   -3.6229   -7.3013 H   0  0  0  0  0  0  0  0  0  0  0  0
    8.6527   -4.6244   -6.8776 H   0  0  0  0  0  0  0  0  0  0  0  0
    7.0554   -4.9771   -6.1044 H   0  0  0  0  0  0  0  0  0  0  0  0
    6.3991   -1.0948   -6.4339 H   0  0  0  0  0  0  0  0  0  0  0  0
    4.0083   -0.5748   -6.1564 H   0  0  0  0  0  0  0  0  0  0  0  0
   -2.9849   -1.1839    2.4977 H   0  0  0  0  0  0  0  0  0  0  0  0
   -5.2816   -2.0971    2.5325 H   0  0  0  0  0  0  0  0  0  0  0  0
   -7.5130   -5.3609    0.3416 H   0  0  0  0  0  0  0  0  0  0  0  0
   -6.2127   -4.9430    1.5204 H   0  0  0  0  0  0  0  0  0  0  0  0
   -5.8483   -4.9891   -0.2595 H   0  0  0  0  0  0  0  0  0  0  0  0
   -5.1808   -2.5318   -1.7475 H   0  0  0  0  0  0  0  0  0  0  0  0
   -2.8922   -1.6486   -1.7913 H   0  0  0  0  0  0  0  0  0  0  0  0
    0.9269   -0.3757    1.5820 H   0  0  0  0  0  0  0  0  0  0  0  0
    1.6305    1.7411    2.6208 H   0  0  0  0  0  0  0  0  0  0  0  0
    0.7054    4.6879    0.4376 H   0  0  0  0  0  0  0  0  0  0  0  0
    1.4913    5.9616    1.4588 H   0  0  0  0  0  0  0  0  0  0  0  0
    2.2387    4.3240    1.3256 H   0  0  0  0  0  0  0  0  0  0  0  0
   -2.1319    3.5264    1.5265 H   0  0  0  0  0  0  0  0  0  0  0  0
   -2.8575    1.3988    0.5218 H   0  0  0  0  0  0  0  0  0  0  0  0
   -2.4942   -4.5188   -0.7985 H   0  0  0  0  0  0  0  0  0  0  0  0
   -3.1202   -5.6979    0.3786 H   0  0  0  0  0  0  0  0  0  0  0  0
   -2.1092   -6.8235   -1.5929 H   0  0  0  0  0  0  0  0  0  0  0  0
   -1.2085   -7.2317   -0.0772 H   0  0  0  0  0  0  0  0  0  0  0  0
   -0.5251   -6.0318   -1.2419 H   0  0  0  0  0  0  0  0  0  0  0  0
   -3.6110   -4.1316    3.2670 H   0  0  0  0  0  0  0  0  0  0  0  0
   -4.0905   -5.5525    2.2994 H   0  0  0  0  0  0  0  0  0  0  0  0
   -5.6236   -5.4982    4.0719 H   0  0  0  0  0  0  0  0  0  0  0  0
   -4.3878   -5.1423    5.3073 H   0  0  0  0  0  0  0  0  0  0  0  0
   -4.4961   -6.7961    4.5604 H   0  0  0  0  0  0  0  0  0  0  0  0
   -2.6540   -7.8714    3.8577 H   0  0  0  0  0  0  0  0  0  0  0  0
   -2.6190   -7.5525    2.0934 H   0  0  0  0  0  0  0  0  0  0  0  0
   -0.1670   -7.7275    3.9712 H   0  0  0  0  0  0  0  0  0  0  0  0
   -0.7395   -8.9860    2.8184 H   0  0  0  0  0  0  0  0  0  0  0  0
   -0.1015   -7.4266    2.1873 H   0  0  0  0  0  0  0  0  0  0  0  0
   -2.5976   -6.2158    6.3735 H   0  0  0  0  0  0  0  0  0  0  0  0
   -0.3223   -5.1675    8.8616 H   0  0  0  0  0  0  0  0  0  0  0  0
   -5.8605   -2.3649    7.9455 H   0  0  0  0  0  0  0  0  0  0  0  0
   -4.1661   -3.5248   12.4813 H   0  0  0  0  0  0  0  0  0  0  0  0
  1  2  2  3
  2  3  1  0
  3  4  2  0
  3  5  1  0
  5  6  2  0
  6  7  1  0
  7  8  2  0
  8  9  1  0
  9 10  2  0
 10 11  1  0
 11 12  2  3
 12 13  1  0
 13 14  3  0
 12 15  1  0
 15 16  3  0
  8 17  1  0
 17 18  1  0
 18 19  1  0
 19 20  2  0
 20 21  1  0
 21 22  1  0
 21 23  1  0
  1 24  1  0
 24 25  2  0
 25 26  1  0
 26 27  1  0
 25 28  1  0
 28 29  2  0
 29 30  1  0
 29 31  1  0
 31 32  2  0
 32 33  1  0
 33 34  1  0
 34 35  1  0
 33 36  1  0
 36 37  1  0
 32 38  1  0
 38 39  2  0
 39 40  1  0
 39 41  1  0
 41 42  2  0
 42 43  1  0
 43 44  1  0
 44 45  2  0
 45 46  1  0
 46 47  2  0
 47 48  1  0
 48 49  1  0
 47 50  1  0
 50 51  2  0
 43 52  1  0
 52 53  2  0
 53 54  1  0
 54 55  2  0
 55 56  1  0
 56 57  1  0
 55 58  1  0
 58 59  2  0
 42 60  1  0
 60 61  1  0
 61 62  1  0
 62 63  2  0
 63 64  1  0
 64 65  1  0
 65 66  2  0
 66 67  1  0
 67 68  2  0
 68 69  1  0
 69 70  1  0
 68 71  1  0
 71 72  2  0
 64 73  1  0
 73 74  2  0
 74 75  1  0
 75 76  2  0
 76 77  1  0
 77 78  1  0
 76 79  1  0
 79 80  2  0
 63 81  1  0
 81 82  1  0
 62 83  1  0
 83 84  2  0
 84 85  1  0
 85 86  1  0
 84 87  1  0
 87 88  2  0
 88 89  1  0
 88 90  1  0
 90 91  2  0
 91 92  1  0
 92 93  1  0
 93 94  1  0
 92 95  1  0
 95 96  1  0
 91 97  1  0
 97 98  2  0
 98 99  1  0
 98100  1  0
100101  2  3
101102  1  0
102103  2  0
102104  1  0
104105  2  0
105106  1  0
106107  1  0
106108  2  0
108109  1  0
108110  1  0
110111  2  0
111112  1  0
112113  2  3
113114  1  0
114115  3  0
113116  1  0
116117  3  0
 11  2  1  0
 23 17  1  0
 30 24  1  0
 40 31  1  0
 82 41  1  0
 89 83  1  0
 99 90  1  0
112101  1  0
 10  5  1  0
 22 18  1  0
 33 28  1  0
 51 44  1  0
 59 52  1  0
 81 60  2  0
 92 87  1  0
111104  1  0
 23  7  1  0
 72 65  1  0
 80 73  1  0
  1118  1  0
  6119  1  0
  9120  1  0
 17121  1  0
 18122  1  0
 19123  1  0
 20124  1  0
 21125  1  0
 22126  1  0
 22127  1  0
 23128  1  0
 26129  1  0
 26130  1  0
 27131  1  0
 27132  1  0
 27133  1  0
 34134  1  0
 34135  1  0
 35136  1  0
 35137  1  0
 35138  1  0
 36139  1  0
 36140  1  0
 37141  1  0
 37142  1  0
 37143  1  0
 38144  1  0
 45145  1  0
 46146  1  0
 49147  1  0
 49148  1  0
 49149  1  0
 50150  1  0
 51151  1  0
 53152  1  0
 54153  1  0
 57154  1  0
 57155  1  0
 57156  1  0
 58157  1  0
 59158  1  0
 66159  1  0
 67160  1  0
 70161  1  0
 70162  1  0
 70163  1  0
 71164  1  0
 72165  1  0
 74166  1  0
 75167  1  0
 78168  1  0
 78169  1  0
 78170  1  0
 79171  1  0
 80172  1  0
 85173  1  0
 85174  1  0
 86175  1  0
 86176  1  0
 86177  1  0
 93178  1  0
 93179  1  0
 94180  1  0
 94181  1  0
 94182  1  0
 95183  1  0
 95184  1  0
 96185  1  0
 96186  1  0
 96187  1  0
 97188  1  0
100189  1  0
105190  1  0
110191  1  0
M  END

