
     RDKit          3D

198220  0  0  0  0  0  0  0  0999 V2000
    6.0475   -1.7801   -7.7701 C   0  0  0  0  0  0  0  0  0  0  0  0
    5.1538   -2.1501   -8.6852 C   0  0  0  0  0  0  0  0  0  0  0  0
    3.8056   -2.6613   -8.5432 C   0  0  0  0  0  0  0  0  0  0  0  0
    3.0419   -2.4429   -7.5712 O   0  0  0  0  0  0  0  0  0  0  0  0
    3.4130   -3.4824   -9.7272 C   0  0  0  0  0  0  0  0  0  0  0  0
    2.2700   -4.2123   -9.9309 C   0  0  0  0  0  0  0  0  0  0  0  0
    2.1425   -5.0151  -11.0854 C   0  0  0  0  0  0  0  0  0  0  0  0
    3.1842   -5.0038  -11.9388 C   0  0  0  0  0  0  0  0  0  0  0  0
    4.3362   -4.2579  -11.7233 C   0  0  0  0  0  0  0  0  0  0  0  0
    4.4854   -3.4580  -10.5753 C   0  0  0  0  0  0  0  0  0  0  0  0
    5.5835   -2.6549  -10.0210 C   0  0  0  0  0  0  0  0  0  0  0  0
    6.6493   -2.2714  -10.7400 C   0  0  0  0  0  0  0  0  0  0  0  0
    7.4464   -1.1542  -10.0496 C   0  0  0  0  0  0  0  0  0  0  0  0
    8.0676   -0.2778   -9.5324 N   0  0  0  0  0  0  0  0  0  0  0  0
    7.0738   -2.7186  -11.7716 C   0  0  0  0  0  0  0  0  0  0  0  0
    7.5556   -3.2312  -12.9965 N   0  0  0  0  0  0  0  0  0  0  0  0
    2.5021   -5.9360  -12.9010 C   0  0  0  0  0  0  0  0  0  0  0  0
    3.0217   -7.3091  -13.0172 C   0  0  0  0  0  0  0  0  0  0  0  0
    3.7933   -7.6021  -11.7442 C   0  0  0  0  0  0  0  0  0  0  0  0
    2.9106   -7.4674  -10.7539 C   0  0  0  0  0  0  0  0  0  0  0  0
    1.5477   -7.4409  -11.3387 C   0  0  0  0  0  0  0  0  0  0  0  0
    1.7798   -8.1546  -12.6555 C   0  0  0  0  0  0  0  0  0  0  0  0
    1.3739   -6.0216  -11.8709 C   0  0  0  0  0  0  0  0  0  0  0  0
    5.8524   -1.8333   -6.2923 C   0  0  0  0  0  0  0  0  0  0  0  0
    5.1603   -2.7429   -5.5855 C   0  0  0  0  0  0  0  0  0  0  0  0
    5.2794   -2.7284   -4.2143 C   0  0  0  0  0  0  0  0  0  0  0  0
    4.6524   -3.5735   -3.3297 C   0  0  0  0  0  0  0  0  0  0  0  0
    3.5782   -4.5190   -3.6514 C   0  0  0  0  0  0  0  0  0  0  0  0
    3.0949   -5.5561   -2.9368 C   0  0  0  0  0  0  0  0  0  0  0  0
    1.9744   -6.1892   -3.2900 C   0  0  0  0  0  0  0  0  0  0  0  0
    1.2451   -5.8640   -4.3531 C   0  0  0  0  0  0  0  0  0  0  0  0
   -0.2831   -6.3180   -5.0970 S   0  0  0  0  0  0  0  0  0  0  0  0
   -1.5223   -5.1165   -4.4871 C   0  0  0  0  0  0  0  0  0  0  0  0
   -1.3515   -3.7401   -5.0339 C   0  0  0  0  0  0  0  0  0  0  0  0
    2.3593   -4.3591   -5.0141 Se  0  0  0  0  0  2  0  0  0  0  0  0
    4.8950   -3.4224   -1.9698 C   0  0  0  0  0  0  0  0  0  0  0  0
    5.7100   -2.5107   -1.3916 C   0  0  0  0  0  0  0  0  0  0  0  0
    6.3442   -1.6457   -2.3091 C   0  0  0  0  0  0  0  0  0  0  0  0
    7.2533   -0.6075   -1.8433 C   0  0  0  0  0  0  0  0  0  0  0  0
    7.9727    0.3633   -2.4269 C   0  0  0  0  0  0  0  0  0  0  0  0
    8.7692    1.2040   -1.7629 C   0  0  0  0  0  0  0  0  0  0  0  0
    8.9224    1.1502   -0.4213 C   0  0  0  0  0  0  0  0  0  0  0  0
    9.8721    1.9753    0.8095 S   0  0  0  0  0  0  0  0  0  0  0  0
   11.1063    3.0858    0.1287 C   0  0  0  0  0  0  0  0  0  0  0  0
   12.1116    2.1890   -0.6268 C   0  0  0  0  0  0  0  0  0  0  0  0
    7.7320   -0.3495   -0.0454 Se  0  0  0  0  0  2  0  0  0  0  0  0
    6.1000   -1.7881   -3.6752 C   0  0  0  0  0  0  0  0  0  0  0  0
    6.6630   -0.9572   -5.0796 S   0  0  0  0  0  0  0  0  0  0  0  0
    5.6970   -2.4215   -0.0217 C   0  0  0  0  0  0  0  0  0  0  0  0
    4.8541   -3.2403    0.6321 C   0  0  0  0  0  0  0  0  0  0  0  0
    4.1188   -4.1420   -0.6043 S   0  0  0  0  0  0  0  0  0  0  0  0
    4.2321   -3.2088    2.0032 C   0  0  0  0  0  0  0  0  0  0  0  0
    4.1443   -2.1830    2.8627 C   0  0  0  0  0  0  0  0  0  0  0  0
    5.0981   -1.0269    2.9467 C   0  0  0  0  0  0  0  0  0  0  0  0
    6.2834   -1.2896    3.8297 C   0  0  0  0  0  0  0  0  0  0  0  0
    3.0686   -2.2513    3.7632 C   0  0  0  0  0  0  0  0  0  0  0  0
    2.2528   -3.2541    3.7341 C   0  0  0  0  0  0  0  0  0  0  0  0
    2.9053   -4.2386    2.4508 S   0  0  0  0  0  0  0  0  0  0  0  0
    1.0291   -3.1992    4.4257 C   0  0  0  0  0  0  0  0  0  0  0  0
    0.7812   -2.0940    5.0660 C   0  0  0  0  0  0  0  0  0  0  0  0
    2.2302   -1.1195    4.7845 S   0  0  0  0  0  0  0  0  0  0  0  0
   -0.5103   -1.2902    5.3592 C   0  0  0  0  0  0  0  0  0  0  0  0
   -1.4072   -1.0741    4.3345 C   0  0  0  0  0  0  0  0  0  0  0  0
   -1.6263   -1.9526    3.2388 N   0  0  0  0  0  0  0  0  0  0  0  0
   -1.2138   -1.4916    1.9223 C   0  0  0  0  0  0  0  0  0  0  0  0
   -2.1783   -1.6646    0.9139 C   0  0  0  0  0  0  0  0  0  0  0  0
   -1.7996   -1.2544   -0.3264 C   0  0  0  0  0  0  0  0  0  0  0  0
   -0.5599   -0.7100   -0.6028 C   0  0  0  0  0  0  0  0  0  0  0  0
   -0.1889   -0.1406   -2.2575 S   0  0  0  0  0  0  0  0  0  0  0  0
   -1.7032   -0.3131   -3.2656 C   0  0  0  0  0  0  0  0  0  0  0  0
    0.3647   -0.5564    0.3847 C   0  0  0  0  0  0  0  0  0  0  0  0
    0.0068   -0.9653    1.6831 C   0  0  0  0  0  0  0  0  0  0  0  0
   -2.1274   -3.2737    3.2800 C   0  0  0  0  0  0  0  0  0  0  0  0
   -3.1446   -3.6965    4.0701 C   0  0  0  0  0  0  0  0  0  0  0  0
   -3.6398   -4.9725    3.8940 C   0  0  0  0  0  0  0  0  0  0  0  0
   -3.1654   -5.8404    2.9645 C   0  0  0  0  0  0  0  0  0  0  0  0
   -3.9223   -7.4438    2.7461 S   0  0  0  0  0  0  0  0  0  0  0  0
   -3.2482   -8.2582    1.2629 C   0  0  0  0  0  0  0  0  0  0  0  0
   -2.1155   -5.4276    2.1497 C   0  0  0  0  0  0  0  0  0  0  0  0
   -1.5998   -4.1616    2.3041 C   0  0  0  0  0  0  0  0  0  0  0  0
   -2.1232    0.1315    4.4732 C   0  0  0  0  0  0  0  0  0  0  0  0
   -3.0379    1.1592    3.3780 S   0  0  0  0  0  0  0  0  0  0  0  0
   -3.0838    2.5779    4.3657 C   0  0  0  0  0  0  0  0  0  0  0  0
   -2.4312    2.2079    5.5064 C   0  0  0  0  0  0  0  0  0  0  0  0
   -2.4074    3.0021    6.7297 N   0  0  0  0  0  0  0  0  0  0  0  0
   -3.5226    2.6902    7.6293 C   0  0  0  0  0  0  0  0  0  0  0  0
   -3.7000    1.3368    7.9278 C   0  0  0  0  0  0  0  0  0  0  0  0
   -4.7950    0.9133    8.6339 C   0  0  0  0  0  0  0  0  0  0  0  0
   -5.7729    1.7690    9.0852 C   0  0  0  0  0  0  0  0  0  0  0  0
   -7.2208    1.1293    9.9097 S   0  0  0  0  0  0  0  0  0  0  0  0
   -8.3847    0.4164    8.6961 C   0  0  0  0  0  0  0  0  0  0  0  0
   -5.5966    3.1054    8.7967 C   0  0  0  0  0  0  0  0  0  0  0  0
   -4.4566    3.5383    8.0628 C   0  0  0  0  0  0  0  0  0  0  0  0
   -1.3901    3.8150    7.1685 C   0  0  0  0  0  0  0  0  0  0  0  0
   -1.4458    5.0952    7.6631 C   0  0  0  0  0  0  0  0  0  0  0  0
   -0.3750    5.7349    8.2882 C   0  0  0  0  0  0  0  0  0  0  0  0
    0.8301    5.0947    8.4424 C   0  0  0  0  0  0  0  0  0  0  0  0
    2.2313    5.6713    9.3352 S   0  0  0  0  0  0  0  0  0  0  0  0
    2.0119    7.0429   10.4232 C   0  0  0  0  0  0  0  0  0  0  0  0
    0.9394    3.7880    7.9426 C   0  0  0  0  0  0  0  0  0  0  0  0
   -0.1329    3.1930    7.3352 C   0  0  0  0  0  0  0  0  0  0  0  0
   -1.9434    0.9126    5.4878 C   0  0  0  0  0  0  0  0  0  0  0  0
   -0.7046   -0.0055    6.3745 S   0  0  0  0  0  0  0  0  0  0  0  0
   -3.3960    3.9333    3.8555 C   0  0  0  0  0  0  0  0  0  0  0  0
   -4.7143    4.2618    3.5774 C   0  0  0  0  0  0  0  0  0  0  0  0
   -5.8953    4.5825    3.3181 C   0  0  0  0  0  0  0  0  0  0  0  0
   -6.8857    3.8706    3.9873 O   0  0  0  0  0  0  0  0  0  0  0  0
   -6.4002    5.5949    2.4261 C   0  0  0  0  0  0  0  0  0  0  0  0
   -7.6844    5.9120    1.9618 C   0  0  0  0  0  0  0  0  0  0  0  0
   -7.8082    6.8387    0.9279 C   0  0  0  0  0  0  0  0  0  0  0  0
   -6.6622    7.3828    0.4378 C   0  0  0  0  0  0  0  0  0  0  0  0
   -5.3998    7.0763    0.8941 C   0  0  0  0  0  0  0  0  0  0  0  0
   -5.2786    6.1394    1.9375 C   0  0  0  0  0  0  0  0  0  0  0  0
   -4.1051    5.5214    2.4817 C   0  0  0  0  0  0  0  0  0  0  0  0
   -2.9341    5.7099    2.1484 C   0  0  0  0  0  0  0  0  0  0  0  0
   -1.5735    5.1612    2.3046 C   0  0  0  0  0  0  0  0  0  0  0  0
   -0.5932    4.7462    2.4133 N   0  0  0  0  0  0  0  0  0  0  0  0
   -2.6643    7.1771    1.6899 C   0  0  0  0  0  0  0  0  0  0  0  0
   -2.4661    8.2348    1.3477 N   0  0  0  0  0  0  0  0  0  0  0  0
   -7.4018    8.2434   -0.5306 C   0  0  0  0  0  0  0  0  0  0  0  0
   -7.1606    7.7127   -1.9103 C   0  0  0  0  0  0  0  0  0  0  0  0
   -8.1800    8.2988   -2.8287 C   0  0  0  0  0  0  0  0  0  0  0  0
   -9.3561    7.9283   -2.3369 C   0  0  0  0  0  0  0  0  0  0  0  0
   -9.1422    6.8966   -1.2545 C   0  0  0  0  0  0  0  0  0  0  0  0
   -7.8217    6.3179   -1.8013 C   0  0  0  0  0  0  0  0  0  0  0  0
   -8.6733    7.5885   -0.0320 C   0  0  0  0  0  0  0  0  0  0  0  0
    7.0356   -1.4425   -7.9916 H   0  0  0  0  0  0  0  0  0  0  0  0
    1.4589   -4.1726   -9.2232 H   0  0  0  0  0  0  0  0  0  0  0  0
    5.1590   -4.2607  -12.4101 H   0  0  0  0  0  0  0  0  0  0  0  0
    2.2025   -5.3885  -13.8217 H   0  0  0  0  0  0  0  0  0  0  0  0
    3.5041   -7.6516  -13.9063 H   0  0  0  0  0  0  0  0  0  0  0  0
    4.8239   -7.8688  -11.6187 H   0  0  0  0  0  0  0  0  0  0  0  0
    3.1271   -7.3809   -9.7011 H   0  0  0  0  0  0  0  0  0  0  0  0
    0.7448   -7.8252  -10.7549 H   0  0  0  0  0  0  0  0  0  0  0  0
    2.0913   -9.2058  -12.5504 H   0  0  0  0  0  0  0  0  0  0  0  0
    0.9617   -8.0206  -13.3868 H   0  0  0  0  0  0  0  0  0  0  0  0
    0.3903   -5.7292  -12.1802 H   0  0  0  0  0  0  0  0  0  0  0  0
    4.5482   -3.5152   -6.1197 H   0  0  0  0  0  0  0  0  0  0  0  0
    3.7030   -5.9023   -2.0306 H   0  0  0  0  0  0  0  0  0  0  0  0
    1.6132   -7.0661   -2.6478 H   0  0  0  0  0  0  0  0  0  0  0  0
   -1.3187   -5.0259   -3.3731 H   0  0  0  0  0  0  0  0  0  0  0  0
   -2.5415   -5.5234   -4.5596 H   0  0  0  0  0  0  0  0  0  0  0  0
   -2.3571   -3.1946   -4.9854 H   0  0  0  0  0  0  0  0  0  0  0  0
   -1.1226   -3.7888   -6.1344 H   0  0  0  0  0  0  0  0  0  0  0  0
   -0.6565   -3.1301   -4.4606 H   0  0  0  0  0  0  0  0  0  0  0  0
    7.8807    0.4595   -3.5572 H   0  0  0  0  0  0  0  0  0  0  0  0
    9.3609    2.0204   -2.2834 H   0  0  0  0  0  0  0  0  0  0  0  0
   11.7295    3.5227    0.9652 H   0  0  0  0  0  0  0  0  0  0  0  0
   10.7298    3.8741   -0.5384 H   0  0  0  0  0  0  0  0  0  0  0  0
   12.7866    1.7268    0.0944 H   0  0  0  0  0  0  0  0  0  0  0  0
   12.5822    2.7463   -1.4555 H   0  0  0  0  0  0  0  0  0  0  0  0
   11.4457    1.4197   -1.1264 H   0  0  0  0  0  0  0  0  0  0  0  0
    6.3435   -1.7857    0.5697 H   0  0  0  0  0  0  0  0  0  0  0  0
    4.5435   -0.1070    3.3267 H   0  0  0  0  0  0  0  0  0  0  0  0
    5.4640   -0.6933    1.9626 H   0  0  0  0  0  0  0  0  0  0  0  0
    5.9354   -0.9497    4.8798 H   0  0  0  0  0  0  0  0  0  0  0  0
    7.1332   -0.6257    3.5452 H   0  0  0  0  0  0  0  0  0  0  0  0
    6.5512   -2.3347    3.9896 H   0  0  0  0  0  0  0  0  0  0  0  0
    0.3327   -4.0699    4.4262 H   0  0  0  0  0  0  0  0  0  0  0  0
   -3.1460   -2.0926    1.1187 H   0  0  0  0  0  0  0  0  0  0  0  0
   -2.5362   -1.3715   -1.1335 H   0  0  0  0  0  0  0  0  0  0  0  0
   -2.4234    0.4703   -2.9347 H   0  0  0  0  0  0  0  0  0  0  0  0
   -1.4842   -0.2370   -4.3285 H   0  0  0  0  0  0  0  0  0  0  0  0
   -2.1745   -1.2927   -3.0687 H   0  0  0  0  0  0  0  0  0  0  0  0
    1.3556   -0.1612    0.2750 H   0  0  0  0  0  0  0  0  0  0  0  0
    0.7436   -0.8460    2.4685 H   0  0  0  0  0  0  0  0  0  0  0  0
   -3.5636   -3.0749    4.8331 H   0  0  0  0  0  0  0  0  0  0  0  0
   -4.4561   -5.3064    4.5517 H   0  0  0  0  0  0  0  0  0  0  0  0
   -3.0346   -7.4989    0.4650 H   0  0  0  0  0  0  0  0  0  0  0  0
   -2.3556   -8.8611    1.4869 H   0  0  0  0  0  0  0  0  0  0  0  0
   -4.0395   -8.9299    0.8764 H   0  0  0  0  0  0  0  0  0  0  0  0
   -1.7735   -6.1532    1.4347 H   0  0  0  0  0  0  0  0  0  0  0  0
   -0.7860   -3.8233    1.6862 H   0  0  0  0  0  0  0  0  0  0  0  0
   -2.9523    0.6294    7.6114 H   0  0  0  0  0  0  0  0  0  0  0  0
   -4.8868   -0.1541    8.8715 H   0  0  0  0  0  0  0  0  0  0  0  0
   -7.9044   -0.5579    8.3478 H   0  0  0  0  0  0  0  0  0  0  0  0
   -8.4913    0.9993    7.7812 H   0  0  0  0  0  0  0  0  0  0  0  0
   -9.3188    0.0903    9.1680 H   0  0  0  0  0  0  0  0  0  0  0  0
   -6.3056    3.8396    9.1335 H   0  0  0  0  0  0  0  0  0  0  0  0
   -4.3563    4.5941    7.8508 H   0  0  0  0  0  0  0  0  0  0  0  0
   -2.3487    5.6510    7.5395 H   0  0  0  0  0  0  0  0  0  0  0  0
   -0.4579    6.7432    8.6583 H   0  0  0  0  0  0  0  0  0  0  0  0
    3.0333    7.5215   10.5873 H   0  0  0  0  0  0  0  0  0  0  0  0
    1.7532    6.6276   11.4466 H   0  0  0  0  0  0  0  0  0  0  0  0
    1.3546    7.8481   10.1256 H   0  0  0  0  0  0  0  0  0  0  0  0
    1.8899    3.2416    8.0508 H   0  0  0  0  0  0  0  0  0  0  0  0
    0.0229    2.2119    6.9559 H   0  0  0  0  0  0  0  0  0  0  0  0
   -2.6167    4.5690    3.9359 H   0  0  0  0  0  0  0  0  0  0  0  0
   -8.5266    5.4447    2.4092 H   0  0  0  0  0  0  0  0  0  0  0  0
   -4.5522    7.4907    0.4321 H   0  0  0  0  0  0  0  0  0  0  0  0
   -7.3021    9.3162   -0.3709 H   0  0  0  0  0  0  0  0  0  0  0  0
   -6.1512    7.7021   -2.2511 H   0  0  0  0  0  0  0  0  0  0  0  0
   -7.9832    8.8936   -3.7327 H   0  0  0  0  0  0  0  0  0  0  0  0
  -10.3078    8.3055   -2.6687 H   0  0  0  0  0  0  0  0  0  0  0  0
   -9.9481    6.2046   -1.1748 H   0  0  0  0  0  0  0  0  0  0  0  0
   -7.9915    5.9657   -2.8539 H   0  0  0  0  0  0  0  0  0  0  0  0
   -7.3231    5.6383   -1.1479 H   0  0  0  0  0  0  0  0  0  0  0  0
   -9.4154    8.2277    0.4792 H   0  0  0  0  0  0  0  0  0  0  0  0
  1  2  2  3
  2  3  1  0
  3  4  2  0
  3  5  1  0
  5  6  2  0
  6  7  1  0
  7  8  2  0
  8  9  1  0
  9 10  2  0
 10 11  1  0
 11 12  2  3
 12 13  1  0
 13 14  3  0
 12 15  1  0
 15 16  3  0
  8 17  1  0
 17 18  1  0
 18 19  1  0
 19 20  2  0
 20 21  1  0
 21 22  1  0
 21 23  1  0
  1 24  1  0
 24 25  2  0
 25 26  1  0
 26 27  2  0
 27 28  1  0
 28 29  2  0
 29 30  1  0
 30 31  2  0
 31 32  1  0
 32 33  1  0
 33 34  1  0
 31 35  1  0
 27 36  1  0
 36 37  2  0
 37 38  1  0
 38 39  1  0
 39 40  2  0
 40 41  1  0
 41 42  2  0
 42 43  1  0
 43 44  1  0
 44 45  1  0
 42 46  1  0
 38 47  2  0
 47 48  1  0
 37 49  1  0
 49 50  2  0
 50 51  1  0
 50 52  1  0
 52 53  2  0
 53 54  1  0
 54 55  1  0
 53 56  1  0
 56 57  2  0
 57 58  1  0
 57 59  1  0
 59 60  2  0
 60 61  1  0
 60 62  1  0
 62 63  2  0
 63 64  1  0
 64 65  1  0
 65 66  2  0
 66 67  1  0
 67 68  2  0
 68 69  1  0
 69 70  1  0
 68 71  1  0
 71 72  2  0
 64 73  1  0
 73 74  2  0
 74 75  1  0
 75 76  2  0
 76 77  1  0
 77 78  1  0
 76 79  1  0
 79 80  2  0
 63 81  1  0
 81 82  1  0
 82 83  1  0
 83 84  2  0
 84 85  1  0
 85 86  1  0
 86 87  2  0
 87 88  1  0
 88 89  2  0
 89 90  1  0
 90 91  1  0
 89 92  1  0
 92 93  2  0
 85 94  1  0
 94 95  2  0
 95 96  1  0
 96 97  2  0
 97 98  1  0
 98 99  1  0
 97100  1  0
100101  2  0
 84102  1  0
102103  1  0
 83104  1  0
104105  2  3
105106  1  0
106107  2  0
106108  1  0
108109  2  0
109110  1  0
110111  2  0
111112  1  0
112113  2  0
113114  1  0
114115  2  3
115116  1  0
116117  3  0
115118  1  0
118119  3  0
111120  1  0
120121  1  0
121122  1  0
122123  2  0
123124  1  0
124125  1  0
124126  1  0
 11  2  1  0
 23 17  1  0
 48 24  1  0
 58 52  1  0
103 62  1  0
114105  1  0
126120  1  0
 10  5  1  0
 22 18  1  0
 47 26  1  0
 61 56  1  0
 72 65  1  0
 80 73  1  0
102 81  2  0
113108  1  0
125121  1  0
 23  7  1  0
 35 28  1  0
 51 36  1  0
 93 86  1  0
101 94  1  0
126110  1  0
 46 39  1  0
  1127  1  0
  6128  1  0
  9129  1  0
 17130  1  0
 18131  1  0
 19132  1  0
 20133  1  0
 21134  1  0
 22135  1  0
 22136  1  0
 23137  1  0
 25138  1  0
 29139  1  0
 30140  1  0
 33141  1  0
 33142  1  0
 34143  1  0
 34144  1  0
 34145  1  0
 40146  1  0
 41147  1  0
 44148  1  0
 44149  1  0
 45150  1  0
 45151  1  0
 45152  1  0
 49153  1  0
 54154  1  0
 54155  1  0
 55156  1  0
 55157  1  0
 55158  1  0
 59159  1  0
 66160  1  0
 67161  1  0
 70162  1  0
 70163  1  0
 70164  1  0
 71165  1  0
 72166  1  0
 74167  1  0
 75168  1  0
 78169  1  0
 78170  1  0
 78171  1  0
 79172  1  0
 80173  1  0
 87174  1  0
 88175  1  0
 91176  1  0
 91177  1  0
 91178  1  0
 92179  1  0
 93180  1  0
 95181  1  0
 96182  1  0
 99183  1  0
 99184  1  0
 99185  1  0
100186  1  0
101187  1  0
104188  1  0
109189  1  0
112190  1  0
120191  1  0
121192  1  0
122193  1  0
123194  1  0
124195  1  0
125196  1  0
125197  1  0
126198  1  0
M  END

