
     RDKit          3D

173190  0  0  0  0  0  0  0  0999 V2000
   -1.6660   -3.2815   -4.0424 C   0  0  0  0  0  0  0  0  0  0  0  0
   -2.5630   -2.5763   -3.3247 C   0  0  0  0  0  0  0  0  0  0  0  0
   -3.9521   -2.9925   -3.1449 C   0  0  0  0  0  0  0  0  0  0  0  0
   -4.6336   -3.6723   -3.9614 O   0  0  0  0  0  0  0  0  0  0  0  0
   -4.3965   -2.5518   -1.8336 C   0  0  0  0  0  0  0  0  0  0  0  0
   -5.6157   -2.8474   -1.1763 C   0  0  0  0  0  0  0  0  0  0  0  0
   -5.7019   -2.3341    0.1077 C   0  0  0  0  0  0  0  0  0  0  0  0
   -4.6598   -1.5545    0.7106 C   0  0  0  0  0  0  0  0  0  0  0  0
   -3.4714   -1.2596    0.0764 C   0  0  0  0  0  0  0  0  0  0  0  0
   -3.3579   -1.7906   -1.2379 C   0  0  0  0  0  0  0  0  0  0  0  0
   -2.2538   -1.6490   -2.2087 C   0  0  0  0  0  0  0  0  0  0  0  0
   -1.5444   -0.5132   -2.3550 C   0  0  0  0  0  0  0  0  0  0  0  0
   -1.1482    0.2868   -1.2287 C   0  0  0  0  0  0  0  0  0  0  0  0
   -0.7874    0.9241   -0.3300 N   0  0  0  0  0  0  0  0  0  0  0  0
   -1.2442    0.0144   -3.6618 C   0  0  0  0  0  0  0  0  0  0  0  0
   -1.0084    0.4403   -4.7113 N   0  0  0  0  0  0  0  0  0  0  0  0
   -5.4678   -1.4099    1.9636 C   0  0  0  0  0  0  0  0  0  0  0  0
   -5.0164   -2.2552    3.1855 C   0  0  0  0  0  0  0  0  0  0  0  0
   -6.1802   -2.2526    4.1477 C   0  0  0  0  0  0  0  0  0  0  0  0
   -7.1348   -3.0005    3.5884 C   0  0  0  0  0  0  0  0  0  0  0  0
   -6.5887   -3.4789    2.2678 C   0  0  0  0  0  0  0  0  0  0  0  0
   -5.1397   -3.6829    2.6753 C   0  0  0  0  0  0  0  0  0  0  0  0
   -6.5277   -2.2213    1.3539 C   0  0  0  0  0  0  0  0  0  0  0  0
   -0.2470   -3.3621   -3.6321 C   0  0  0  0  0  0  0  0  0  0  0  0
    0.2094   -3.9188   -2.4147 C   0  0  0  0  0  0  0  0  0  0  0  0
   -0.3934   -5.0099   -1.6775 N   0  0  0  0  0  0  0  0  0  0  0  0
   -1.7153   -5.4961   -1.9463 C   0  0  0  0  0  0  0  0  0  0  0  0
   -2.7317   -5.3217   -0.9968 C   0  0  0  0  0  0  0  0  0  0  0  0
   -3.9752   -5.9438   -1.1771 C   0  0  0  0  0  0  0  0  0  0  0  0
   -4.2082   -6.7402   -2.3035 C   0  0  0  0  0  0  0  0  0  0  0  0
   -5.7719   -7.6056   -2.4952 S   0  0  0  0  0  0  0  0  0  0  0  0
   -6.5483   -6.2815   -3.4648 C   0  0  0  0  0  0  0  0  0  0  0  0
   -3.1970   -6.9054   -3.2588 C   0  0  0  0  0  0  0  0  0  0  0  0
   -1.9528   -6.2946   -3.0755 C   0  0  0  0  0  0  0  0  0  0  0  0
    0.4763   -5.9212   -0.9814 C   0  0  0  0  0  0  0  0  0  0  0  0
    0.2177   -6.2826    0.3500 C   0  0  0  0  0  0  0  0  0  0  0  0
    1.0544   -7.1837    1.0133 C   0  0  0  0  0  0  0  0  0  0  0  0
    2.1534   -7.7394    0.3479 C   0  0  0  0  0  0  0  0  0  0  0  0
    3.2274   -8.8971    1.1943 S   0  0  0  0  0  0  0  0  0  0  0  0
    4.3878   -7.6083    1.7402 C   0  0  0  0  0  0  0  0  0  0  0  0
    2.4060   -7.4019   -0.9839 C   0  0  0  0  0  0  0  0  0  0  0  0
    1.5727   -6.4955   -1.6482 C   0  0  0  0  0  0  0  0  0  0  0  0
    1.3932   -3.3064   -1.9981 C   0  0  0  0  0  0  0  0  0  0  0  0
    1.8987   -2.9620   -0.4459 S   0  0  0  0  0  0  0  0  0  0  0  0
    2.7793   -1.5534   -0.8375 C   0  0  0  0  0  0  0  0  0  0  0  0
    2.7341   -1.4211   -2.2442 C   0  0  0  0  0  0  0  0  0  0  0  0
    3.5183   -0.4932   -3.0142 N   0  0  0  0  0  0  0  0  0  0  0  0
    3.1446    0.9035   -3.1206 C   0  0  0  0  0  0  0  0  0  0  0  0
    1.8426    1.3138   -2.8014 C   0  0  0  0  0  0  0  0  0  0  0  0
    1.4587    2.6522   -2.9071 C   0  0  0  0  0  0  0  0  0  0  0  0
    2.3859    3.6121   -3.3159 C   0  0  0  0  0  0  0  0  0  0  0  0
    1.8942    5.3258   -3.4615 S   0  0  0  0  0  0  0  0  0  0  0  0
    2.3792    5.7401   -1.7592 C   0  0  0  0  0  0  0  0  0  0  0  0
    3.6941    3.2293   -3.6143 C   0  0  0  0  0  0  0  0  0  0  0  0
    4.0755    1.8873   -3.5107 C   0  0  0  0  0  0  0  0  0  0  0  0
    4.6445   -1.0406   -3.7356 C   0  0  0  0  0  0  0  0  0  0  0  0
    5.5089   -1.9626   -3.1111 C   0  0  0  0  0  0  0  0  0  0  0  0
    6.5565   -2.5503   -3.8213 C   0  0  0  0  0  0  0  0  0  0  0  0
    6.7559   -2.2308   -5.1657 C   0  0  0  0  0  0  0  0  0  0  0  0
    8.0660   -3.0227   -6.0964 S   0  0  0  0  0  0  0  0  0  0  0  0
    9.3427   -1.8556   -5.5302 C   0  0  0  0  0  0  0  0  0  0  0  0
    5.8944   -1.3283   -5.8008 C   0  0  0  0  0  0  0  0  0  0  0  0
    4.8372   -0.7435   -5.0941 C   0  0  0  0  0  0  0  0  0  0  0  0
    1.9213   -2.3866   -2.8455 C   0  0  0  0  0  0  0  0  0  0  0  0
    0.9122   -2.2426   -4.1808 S   0  0  0  0  0  0  0  0  0  0  0  0
    2.9792   -0.4124    0.1140 C   0  0  0  0  0  0  0  0  0  0  0  0
    4.0373    0.4978   -0.0711 C   0  0  0  0  0  0  0  0  0  0  0  0
    5.0775    0.1975   -0.8858 F   0  0  0  0  0  0  0  0  0  0  0  0
    4.0374    1.7363    0.5802 C   0  0  0  0  0  0  0  0  0  0  0  0
    5.0097    2.6354    0.2878 F   0  0  0  0  0  0  0  0  0  0  0  0
    3.0239    2.0662    1.4941 C   0  0  0  0  0  0  0  0  0  0  0  0
    2.0621    1.0985    1.8216 C   0  0  0  0  0  0  0  0  0  0  0  0
    1.1709    1.3164    2.8296 N   0  0  0  0  0  0  0  0  0  0  0  0
    0.2236    0.4006    3.1733 C   0  0  0  0  0  0  0  0  0  0  0  0
   -0.6668    0.6982    4.3528 C   0  0  0  0  0  0  0  0  0  0  0  0
   -1.8854    1.5105    3.9306 C   0  0  0  0  0  0  0  0  0  0  0  0
    0.1217   -0.7861    2.4125 C   0  0  0  0  0  0  0  0  0  0  0  0
    1.0309   -1.0036    1.4297 N   0  0  0  0  0  0  0  0  0  0  0  0
    2.0214   -0.1240    1.1236 C   0  0  0  0  0  0  0  0  0  0  0  0
   -0.9203   -1.8459    2.6512 C   0  0  0  0  0  0  0  0  0  0  0  0
   -0.4109   -2.9187    3.6069 C   0  0  0  0  0  0  0  0  0  0  0  0
    2.9705    3.4245    2.0861 C   0  0  0  0  0  0  0  0  0  0  0  0
    4.0608    3.8880    2.8335 C   0  0  0  0  0  0  0  0  0  0  0  0
    4.0646    5.1780    3.3694 C   0  0  0  0  0  0  0  0  0  0  0  0
    2.9938    6.0528    3.1363 C   0  0  0  0  0  0  0  0  0  0  0  0
    1.9110    5.6098    2.3496 C   0  0  0  0  0  0  0  0  0  0  0  0
    0.9090    6.4605    2.0080 N   0  0  0  0  0  0  0  0  0  0  0  0
   -0.1527    6.0781    1.2526 C   0  0  0  0  0  0  0  0  0  0  0  0
   -1.1629    7.1021    0.9030 C   0  0  0  0  0  0  0  0  0  0  0  0
   -0.7401    8.3435    0.4057 C   0  0  0  0  0  0  0  0  0  0  0  0
   -1.6705    9.3434    0.1122 C   0  0  0  0  0  0  0  0  0  0  0  0
   -3.0321    9.1115    0.3151 C   0  0  0  0  0  0  0  0  0  0  0  0
   -3.4649    7.8823    0.8206 C   0  0  0  0  0  0  0  0  0  0  0  0
   -2.5349    6.8804    1.1204 C   0  0  0  0  0  0  0  0  0  0  0  0
   -0.2220    4.7390    0.8077 C   0  0  0  0  0  0  0  0  0  0  0  0
    0.8040    3.8924    1.1146 N   0  0  0  0  0  0  0  0  0  0  0  0
    1.8752    4.2887    1.8596 C   0  0  0  0  0  0  0  0  0  0  0  0
   -1.3145    4.2579   -0.0591 C   0  0  0  0  0  0  0  0  0  0  0  0
   -2.2999    3.4070    0.4631 C   0  0  0  0  0  0  0  0  0  0  0  0
   -3.3495    2.9641   -0.3445 C   0  0  0  0  0  0  0  0  0  0  0  0
   -3.4203    3.3693   -1.6797 C   0  0  0  0  0  0  0  0  0  0  0  0
   -2.4448    4.2232   -2.2036 C   0  0  0  0  0  0  0  0  0  0  0  0
   -1.4012    4.6809   -1.3944 C   0  0  0  0  0  0  0  0  0  0  0  0
    3.0158    7.4085    3.7330 C   0  0  0  0  0  0  0  0  0  0  0  0
    1.9253    8.0933    4.2650 C   0  0  0  0  0  0  0  0  0  0  0  0
    2.2578    9.3526    4.7814 C   0  0  0  0  0  0  0  0  0  0  0  0
    3.6107    9.6457    4.6707 C   0  0  0  0  0  0  0  0  0  0  0  0
    4.2432   10.8564    5.1152 C   0  0  0  0  0  0  0  0  0  0  0  0
    4.7516   11.8335    5.4712 N   0  0  0  0  0  0  0  0  0  0  0  0
    4.3959    8.3623    3.9267 S   0  0  0  0  0  0  0  0  0  0  0  0
   -2.0147   -3.9902   -4.7896 H   0  0  0  0  0  0  0  0  0  0  0  0
   -6.4133   -3.4234   -1.6270 H   0  0  0  0  0  0  0  0  0  0  0  0
   -2.7063   -0.6849    0.5726 H   0  0  0  0  0  0  0  0  0  0  0  0
   -5.7538   -0.3558    2.1840 H   0  0  0  0  0  0  0  0  0  0  0  0
   -4.0407   -1.9845    3.6352 H   0  0  0  0  0  0  0  0  0  0  0  0
   -6.2121   -1.8136    5.1389 H   0  0  0  0  0  0  0  0  0  0  0  0
   -8.0758   -3.2789    4.0465 H   0  0  0  0  0  0  0  0  0  0  0  0
   -7.1009   -4.3624    1.8355 H   0  0  0  0  0  0  0  0  0  0  0  0
   -5.0093   -4.4512    3.4744 H   0  0  0  0  0  0  0  0  0  0  0  0
   -4.4550   -3.9278    1.8344 H   0  0  0  0  0  0  0  0  0  0  0  0
   -7.4916   -1.6847    1.2038 H   0  0  0  0  0  0  0  0  0  0  0  0
   -2.5590   -4.7207   -0.1136 H   0  0  0  0  0  0  0  0  0  0  0  0
   -4.7491   -5.8111   -0.4311 H   0  0  0  0  0  0  0  0  0  0  0  0
   -6.6547   -5.3780   -2.8404 H   0  0  0  0  0  0  0  0  0  0  0  0
   -5.9374   -6.0583   -4.3664 H   0  0  0  0  0  0  0  0  0  0  0  0
   -7.5535   -6.6183   -3.7958 H   0  0  0  0  0  0  0  0  0  0  0  0
   -3.3684   -7.5237   -4.1301 H   0  0  0  0  0  0  0  0  0  0  0  0
   -1.1652   -6.4573   -3.8008 H   0  0  0  0  0  0  0  0  0  0  0  0
   -0.6202   -5.8539    0.8805 H   0  0  0  0  0  0  0  0  0  0  0  0
    0.8550   -7.4504    2.0478 H   0  0  0  0  0  0  0  0  0  0  0  0
    4.8031   -7.0728    0.8604 H   0  0  0  0  0  0  0  0  0  0  0  0
    5.2217   -8.0865    2.2983 H   0  0  0  0  0  0  0  0  0  0  0  0
    3.8687   -6.8882    2.4056 H   0  0  0  0  0  0  0  0  0  0  0  0
    3.2543   -7.8257   -1.5071 H   0  0  0  0  0  0  0  0  0  0  0  0
    1.7753   -6.2484   -2.6807 H   0  0  0  0  0  0  0  0  0  0  0  0
    1.1174    0.5906   -2.4799 H   0  0  0  0  0  0  0  0  0  0  0  0
    0.4371    2.9325   -2.6809 H   0  0  0  0  0  0  0  0  0  0  0  0
    3.4803    5.6468   -1.6472 H   0  0  0  0  0  0  0  0  0  0  0  0
    2.0659    6.7831   -1.5379 H   0  0  0  0  0  0  0  0  0  0  0  0
    1.8781    5.0601   -1.0432 H   0  0  0  0  0  0  0  0  0  0  0  0
    4.4221    3.9706   -3.9171 H   0  0  0  0  0  0  0  0  0  0  0  0
    5.1030    1.6212   -3.7208 H   0  0  0  0  0  0  0  0  0  0  0  0
    5.3738   -2.2222   -2.0672 H   0  0  0  0  0  0  0  0  0  0  0  0
    7.2086   -3.2583   -3.3256 H   0  0  0  0  0  0  0  0  0  0  0  0
   10.2633   -2.0077   -6.1298 H   0  0  0  0  0  0  0  0  0  0  0  0
    9.5803   -2.0455   -4.4637 H   0  0  0  0  0  0  0  0  0  0  0  0
    9.0047   -0.8063   -5.6584 H   0  0  0  0  0  0  0  0  0  0  0  0
    6.0301   -1.0951   -6.8497 H   0  0  0  0  0  0  0  0  0  0  0  0
    4.1618   -0.0719   -5.6137 H   0  0  0  0  0  0  0  0  0  0  0  0
   -0.9945   -0.2328    4.8575 H   0  0  0  0  0  0  0  0  0  0  0  0
   -0.0951    1.2827    5.1038 H   0  0  0  0  0  0  0  0  0  0  0  0
   -1.5719    2.5417    3.6431 H   0  0  0  0  0  0  0  0  0  0  0  0
   -2.5966    1.5840    4.7863 H   0  0  0  0  0  0  0  0  0  0  0  0
   -2.4114    1.0167    3.0781 H   0  0  0  0  0  0  0  0  0  0  0  0
   -1.8564   -1.4008    3.0408 H   0  0  0  0  0  0  0  0  0  0  0  0
   -1.1719   -2.3299    1.6847 H   0  0  0  0  0  0  0  0  0  0  0  0
   -1.2034   -3.6814    3.7628 H   0  0  0  0  0  0  0  0  0  0  0  0
    0.4841   -3.4197    3.1819 H   0  0  0  0  0  0  0  0  0  0  0  0
   -0.1512   -2.4748    4.5935 H   0  0  0  0  0  0  0  0  0  0  0  0
    4.9075    3.2395    3.0183 H   0  0  0  0  0  0  0  0  0  0  0  0
    4.9096    5.4888    3.9719 H   0  0  0  0  0  0  0  0  0  0  0  0
    0.3147    8.5386    0.2454 H   0  0  0  0  0  0  0  0  0  0  0  0
   -1.3365   10.2994   -0.2683 H   0  0  0  0  0  0  0  0  0  0  0  0
   -3.7517    9.8899    0.0981 H   0  0  0  0  0  0  0  0  0  0  0  0
   -4.5180    7.7089    0.9917 H   0  0  0  0  0  0  0  0  0  0  0  0
   -2.8845    5.9499    1.5490 H   0  0  0  0  0  0  0  0  0  0  0  0
   -2.2597    3.0963    1.4970 H   0  0  0  0  0  0  0  0  0  0  0  0
   -4.1077    2.3088    0.0645 H   0  0  0  0  0  0  0  0  0  0  0  0
   -4.2295    3.0212   -2.3088 H   0  0  0  0  0  0  0  0  0  0  0  0
   -2.5052    4.5384   -3.2349 H   0  0  0  0  0  0  0  0  0  0  0  0
   -0.6633    5.3561   -1.8038 H   0  0  0  0  0  0  0  0  0  0  0  0
    0.9182    7.7005    4.2949 H   0  0  0  0  0  0  0  0  0  0  0  0
    1.5294   10.0200    5.2317 H   0  0  0  0  0  0  0  0  0  0  0  0
  1  2  2  3
  2  3  1  0
  3  4  2  0
  3  5  1  0
  5  6  2  0
  6  7  1  0
  7  8  2  0
  8  9  1  0
  9 10  2  0
 10 11  1  0
 11 12  2  3
 12 13  1  0
 13 14  3  0
 12 15  1  0
 15 16  3  0
  8 17  1  0
 17 18  1  0
 18 19  1  0
 19 20  2  0
 20 21  1  0
 21 22  1  0
 21 23  1  0
  1 24  1  0
 24 25  2  0
 25 26  1  0
 26 27  1  0
 27 28  2  0
 28 29  1  0
 29 30  2  0
 30 31  1  0
 31 32  1  0
 30 33  1  0
 33 34  2  0
 26 35  1  0
 35 36  2  0
 36 37  1  0
 37 38  2  0
 38 39  1  0
 39 40  1  0
 38 41  1  0
 41 42  2  0
 25 43  1  0
 43 44  1  0
 44 45  1  0
 45 46  2  0
 46 47  1  0
 47 48  1  0
 48 49  2  0
 49 50  1  0
 50 51  2  0
 51 52  1  0
 52 53  1  0
 51 54  1  0
 54 55  2  0
 47 56  1  0
 56 57  2  0
 57 58  1  0
 58 59  2  0
 59 60  1  0
 60 61  1  0
 59 62  1  0
 62 63  2  0
 46 64  1  0
 64 65  1  0
 45 66  1  0
 66 67  2  0
 67 68  1  0
 67 69  1  0
 69 70  1  0
 69 71  2  0
 71 72  1  0
 72 73  2  0
 73 74  1  0
 74 75  1  0
 75 76  1  0
 74 77  2  0
 77 78  1  0
 78 79  2  0
 77 80  1  0
 80 81  1  0
 71 82  1  0
 82 83  2  0
 83 84  1  0
 84 85  2  0
 85 86  1  0
 86 87  2  0
 87 88  1  0
 88 89  1  0
 89 90  2  0
 90 91  1  0
 91 92  2  0
 92 93  1  0
 93 94  2  0
 88 95  2  0
 95 96  1  0
 96 97  2  0
 95 98  1  0
 98 99  2  0
 99100  1  0
100101  2  0
101102  1  0
102103  2  0
 85104  1  0
104105  2  0
105106  1  0
106107  2  0
107108  1  0
108109  3  0
107110  1  0
 11  2  1  0
 23 17  1  0
 65 24  1  0
 79 66  1  0
 97 82  1  0
103 98  1  0
110104  1  0
 10  5  1  0
 22 18  1  0
 34 27  1  0
 42 35  1  0
 64 43  2  0
 79 72  1  0
 97 86  1  0
 23  7  1  0
 55 48  1  0
 63 56  1  0
 94 89  1  0
  1111  1  0
  6112  1  0
  9113  1  0
 17114  1  0
 18115  1  0
 19116  1  0
 20117  1  0
 21118  1  0
 22119  1  0
 22120  1  0
 23121  1  0
 28122  1  0
 29123  1  0
 32124  1  0
 32125  1  0
 32126  1  0
 33127  1  0
 34128  1  0
 36129  1  0
 37130  1  0
 40131  1  0
 40132  1  0
 40133  1  0
 41134  1  0
 42135  1  0
 49136  1  0
 50137  1  0
 53138  1  0
 53139  1  0
 53140  1  0
 54141  1  0
 55142  1  0
 57143  1  0
 58144  1  0
 61145  1  0
 61146  1  0
 61147  1  0
 62148  1  0
 63149  1  0
 75150  1  0
 75151  1  0
 76152  1  0
 76153  1  0
 76154  1  0
 80155  1  0
 80156  1  0
 81157  1  0
 81158  1  0
 81159  1  0
 83160  1  0
 84161  1  0
 90162  1  0
 91163  1  0
 92164  1  0
 93165  1  0
 94166  1  0
 99167  1  0
100168  1  0
101169  1  0
102170  1  0
103171  1  0
105172  1  0
106173  1  0
M  END

