
     RDKit          3D

184204  0  0  0  0  0  0  0  0999 V2000
   -4.5838    1.1366    2.9373 C   0  0  0  0  0  0  0  0  0  0  0  0
   -4.6437    0.6416    1.6852 C   0  0  0  0  0  0  0  0  0  0  0  0
   -5.9011    0.2093    1.0741 C   0  0  0  0  0  0  0  0  0  0  0  0
   -7.0568    0.5227    1.4667 O   0  0  0  0  0  0  0  0  0  0  0  0
   -5.5993   -0.7266    0.0100 C   0  0  0  0  0  0  0  0  0  0  0  0
   -6.5168   -1.4361   -0.7998 C   0  0  0  0  0  0  0  0  0  0  0  0
   -5.9169   -2.2894   -1.7086 C   0  0  0  0  0  0  0  0  0  0  0  0
   -4.4981   -2.4602   -1.8025 C   0  0  0  0  0  0  0  0  0  0  0  0
   -3.5946   -1.7806   -1.0013 C   0  0  0  0  0  0  0  0  0  0  0  0
   -4.1898   -0.8603   -0.0958 C   0  0  0  0  0  0  0  0  0  0  0  0
   -3.5388    0.1098    0.8249 C   0  0  0  0  0  0  0  0  0  0  0  0
   -2.3455    0.7193    0.5933 C   0  0  0  0  0  0  0  0  0  0  0  0
   -1.3924    0.2233   -0.3653 C   0  0  0  0  0  0  0  0  0  0  0  0
   -0.6121   -0.1644   -1.1288 N   0  0  0  0  0  0  0  0  0  0  0  0
   -2.0494    2.0360    1.0943 C   0  0  0  0  0  0  0  0  0  0  0  0
   -1.7952    3.1051    1.4552 N   0  0  0  0  0  0  0  0  0  0  0  0
   -4.6672   -3.4400   -2.9234 C   0  0  0  0  0  0  0  0  0  0  0  0
   -4.3310   -2.9238   -4.3549 C   0  0  0  0  0  0  0  0  0  0  0  0
   -4.9410   -3.9255   -5.3058 C   0  0  0  0  0  0  0  0  0  0  0  0
   -6.2665   -3.7732   -5.2192 C   0  0  0  0  0  0  0  0  0  0  0  0
   -6.5075   -2.6704   -4.2157 C   0  0  0  0  0  0  0  0  0  0  0  0
   -5.3180   -1.7859   -4.5517 C   0  0  0  0  0  0  0  0  0  0  0  0
   -6.1218   -3.2688   -2.8288 C   0  0  0  0  0  0  0  0  0  0  0  0
   -3.3690    1.1555    3.7676 C   0  0  0  0  0  0  0  0  0  0  0  0
   -2.4846    0.0840    4.0241 C   0  0  0  0  0  0  0  0  0  0  0  0
   -2.7489   -1.3151    3.7270 N   0  0  0  0  0  0  0  0  0  0  0  0
   -1.6622   -2.2450    3.6118 C   0  0  0  0  0  0  0  0  0  0  0  0
   -0.9104   -2.3127    2.4309 C   0  0  0  0  0  0  0  0  0  0  0  0
    0.1793   -3.1823    2.3388 C   0  0  0  0  0  0  0  0  0  0  0  0
    0.5355   -3.9821    3.4320 C   0  0  0  0  0  0  0  0  0  0  0  0
    1.9657   -5.0559    3.3306 S   0  0  0  0  0  0  0  0  0  0  0  0
    0.9853   -6.5172    2.8672 C   0  0  0  0  0  0  0  0  0  0  0  0
   -0.2200   -3.9243    4.6101 C   0  0  0  0  0  0  0  0  0  0  0  0
   -1.3252   -3.0720    4.6943 C   0  0  0  0  0  0  0  0  0  0  0  0
   -4.0887   -1.8480    3.7087 C   0  0  0  0  0  0  0  0  0  0  0  0
   -5.0465   -1.4307    4.6495 C   0  0  0  0  0  0  0  0  0  0  0  0
   -6.3556   -1.9172    4.5898 C   0  0  0  0  0  0  0  0  0  0  0  0
   -6.7162   -2.8489    3.6091 C   0  0  0  0  0  0  0  0  0  0  0  0
   -8.3996   -3.4574    3.5149 S   0  0  0  0  0  0  0  0  0  0  0  0
   -8.1331   -4.7601    4.7589 C   0  0  0  0  0  0  0  0  0  0  0  0
   -5.7622   -3.2918    2.6878 C   0  0  0  0  0  0  0  0  0  0  0  0
   -4.4569   -2.8000    2.7394 C   0  0  0  0  0  0  0  0  0  0  0  0
   -1.2991    0.5700    4.6016 C   0  0  0  0  0  0  0  0  0  0  0  0
    0.2426   -0.0522    4.7373 S   0  0  0  0  0  0  0  0  0  0  0  0
    1.0162    1.4287    5.0266 C   0  0  0  0  0  0  0  0  0  0  0  0
    0.0311    2.4528    5.0843 C   0  0  0  0  0  0  0  0  0  0  0  0
    0.2767    3.8717    5.2872 N   0  0  0  0  0  0  0  0  0  0  0  0
    1.6005    4.4231    5.3274 C   0  0  0  0  0  0  0  0  0  0  0  0
    2.4551    4.1371    6.4010 C   0  0  0  0  0  0  0  0  0  0  0  0
    3.7786    4.5845    6.3830 C   0  0  0  0  0  0  0  0  0  0  0  0
    4.2565    5.3150    5.2907 C   0  0  0  0  0  0  0  0  0  0  0  0
    5.9784    5.7942    5.2173 S   0  0  0  0  0  0  0  0  0  0  0  0
    6.4968    4.2354    4.4317 C   0  0  0  0  0  0  0  0  0  0  0  0
    3.3897    5.6561    4.2435 C   0  0  0  0  0  0  0  0  0  0  0  0
    2.0609    5.2274    4.2737 C   0  0  0  0  0  0  0  0  0  0  0  0
   -0.7838    4.7133    5.7649 C   0  0  0  0  0  0  0  0  0  0  0  0
   -1.2682    4.5504    7.0703 C   0  0  0  0  0  0  0  0  0  0  0  0
   -2.3451    5.3173    7.5216 C   0  0  0  0  0  0  0  0  0  0  0  0
   -2.9708    6.2261    6.6581 C   0  0  0  0  0  0  0  0  0  0  0  0
   -4.3943    7.1569    7.2210 S   0  0  0  0  0  0  0  0  0  0  0  0
   -5.5750    5.8172    6.8619 C   0  0  0  0  0  0  0  0  0  0  0  0
   -2.4798    6.4024    5.3575 C   0  0  0  0  0  0  0  0  0  0  0  0
   -1.3815    5.6566    4.9158 C   0  0  0  0  0  0  0  0  0  0  0  0
   -1.2446    1.9128    4.8318 C   0  0  0  0  0  0  0  0  0  0  0  0
   -2.6995    2.6029    4.3547 S   0  0  0  0  0  0  0  0  0  0  0  0
    2.4139    1.5597    4.5812 C   0  0  0  0  0  0  0  0  0  0  0  0
    2.6657    2.2770    3.3971 C   0  0  0  0  0  0  0  0  0  0  0  0
    3.8933    2.1263    2.7675 C   0  0  0  0  0  0  0  0  0  0  0  0
    4.2594    2.5534    1.4281 C   0  0  0  0  0  0  0  0  0  0  0  0
    3.6283    3.3657    0.6988 O   0  0  0  0  0  0  0  0  0  0  0  0
    5.4099    1.7546    1.0397 C   0  0  0  0  0  0  0  0  0  0  0  0
    5.7576    0.9312    2.1007 C   0  0  0  0  0  0  0  0  0  0  0  0
    4.8185    1.1905    3.2019 C   0  0  0  0  0  0  0  0  0  0  0  0
    4.5979    0.4624    4.3705 C   0  0  0  0  0  0  0  0  0  0  0  0
    3.3983    0.6722    5.0792 C   0  0  0  0  0  0  0  0  0  0  0  0
    6.5923   -0.1722    1.9042 C   0  0  0  0  0  0  0  0  0  0  0  0
    7.0539   -0.4409    0.6022 C   0  0  0  0  0  0  0  0  0  0  0  0
    6.6628    0.3772   -0.4824 C   0  0  0  0  0  0  0  0  0  0  0  0
    5.8587    1.5082   -0.2501 C   0  0  0  0  0  0  0  0  0  0  0  0
    6.7934   -0.0791   -1.8800 C   0  0  0  0  0  0  0  0  0  0  0  0
    7.4594    0.7372   -2.8098 C   0  0  0  0  0  0  0  0  0  0  0  0
    8.2541    1.7502   -2.3765 F   0  0  0  0  0  0  0  0  0  0  0  0
    7.2018    0.6083   -4.1786 C   0  0  0  0  0  0  0  0  0  0  0  0
    7.7541    1.4945   -5.0433 F   0  0  0  0  0  0  0  0  0  0  0  0
    6.2577   -0.3205   -4.6343 C   0  0  0  0  0  0  0  0  0  0  0  0
    5.6966   -1.2378   -3.7270 C   0  0  0  0  0  0  0  0  0  0  0  0
    4.7894   -2.1574   -4.1489 N   0  0  0  0  0  0  0  0  0  0  0  0
    4.1029   -2.9526   -3.2863 C   0  0  0  0  0  0  0  0  0  0  0  0
    3.0773   -3.8938   -3.8626 C   0  0  0  0  0  0  0  0  0  0  0  0
    1.7395   -3.1855   -4.0586 C   0  0  0  0  0  0  0  0  0  0  0  0
    4.3071   -2.7766   -1.8957 C   0  0  0  0  0  0  0  0  0  0  0  0
    5.2271   -1.8659   -1.4786 N   0  0  0  0  0  0  0  0  0  0  0  0
    5.9416   -1.1018   -2.3476 C   0  0  0  0  0  0  0  0  0  0  0  0
    3.5486   -3.5552   -0.8522 C   0  0  0  0  0  0  0  0  0  0  0  0
    4.2702   -4.8509   -0.4957 C   0  0  0  0  0  0  0  0  0  0  0  0
    5.6681   -0.1452   -5.9764 C   0  0  0  0  0  0  0  0  0  0  0  0
    4.4204    0.3504   -6.1442 C   0  0  0  0  0  0  0  0  0  0  0  0
    3.4781    0.6508   -5.0532 C   0  0  0  0  0  0  0  0  0  0  0  0
    3.7668    0.8769   -3.8479 O   0  0  0  0  0  0  0  0  0  0  0  0
    2.1461    0.7315   -5.5959 C   0  0  0  0  0  0  0  0  0  0  0  0
    0.9415    0.8033   -4.8649 C   0  0  0  0  0  0  0  0  0  0  0  0
   -0.1903    0.7868   -5.6548 C   0  0  0  0  0  0  0  0  0  0  0  0
   -0.1484    0.7124   -7.0848 C   0  0  0  0  0  0  0  0  0  0  0  0
    1.0335    0.6222   -7.8044 C   0  0  0  0  0  0  0  0  0  0  0  0
    2.2172    0.6389   -7.0086 C   0  0  0  0  0  0  0  0  0  0  0  0
    3.6488    0.4989   -7.4186 C   0  0  0  0  0  0  0  0  0  0  0  0
    4.1612    0.7014   -8.6622 C   0  0  0  0  0  0  0  0  0  0  0  0
    5.5784    0.7329   -8.9173 C   0  0  0  0  0  0  0  0  0  0  0  0
    6.7154    0.7613   -9.1363 N   0  0  0  0  0  0  0  0  0  0  0  0
    3.3386    1.0295   -9.7988 C   0  0  0  0  0  0  0  0  0  0  0  0
    2.6907    1.2918  -10.7208 N   0  0  0  0  0  0  0  0  0  0  0  0
   -1.6476    0.7553   -7.1448 C   0  0  0  0  0  0  0  0  0  0  0  0
   -2.2937    2.1066   -7.5724 C   0  0  0  0  0  0  0  0  0  0  0  0
   -3.7496    2.0054   -7.1864 C   0  0  0  0  0  0  0  0  0  0  0  0
   -3.7926    2.0458   -5.8495 C   0  0  0  0  0  0  0  0  0  0  0  0
   -2.3651    2.1787   -5.3794 C   0  0  0  0  0  0  0  0  0  0  0  0
   -1.8372    3.0718   -6.4895 C   0  0  0  0  0  0  0  0  0  0  0  0
   -1.6878    0.8104   -5.6771 C   0  0  0  0  0  0  0  0  0  0  0  0
   -5.4955    1.4750    3.4090 H   0  0  0  0  0  0  0  0  0  0  0  0
   -7.5915   -1.3183   -0.7280 H   0  0  0  0  0  0  0  0  0  0  0  0
   -2.5363   -1.9604   -1.0796 H   0  0  0  0  0  0  0  0  0  0  0  0
   -4.3042   -4.4622   -2.6792 H   0  0  0  0  0  0  0  0  0  0  0  0
   -3.2640   -2.6806   -4.5446 H   0  0  0  0  0  0  0  0  0  0  0  0
   -4.4182   -4.5827   -5.9945 H   0  0  0  0  0  0  0  0  0  0  0  0
   -7.0064   -4.2913   -5.8227 H   0  0  0  0  0  0  0  0  0  0  0  0
   -7.5056   -2.1882   -4.2697 H   0  0  0  0  0  0  0  0  0  0  0  0
   -5.1729   -0.9312   -3.8540 H   0  0  0  0  0  0  0  0  0  0  0  0
   -5.3350   -1.3902   -5.5988 H   0  0  0  0  0  0  0  0  0  0  0  0
   -6.6720   -4.1853   -2.5235 H   0  0  0  0  0  0  0  0  0  0  0  0
   -1.1719   -1.6958    1.5857 H   0  0  0  0  0  0  0  0  0  0  0  0
    0.7556   -3.2200    1.4219 H   0  0  0  0  0  0  0  0  0  0  0  0
    0.4184   -6.3260    1.9328 H   0  0  0  0  0  0  0  0  0  0  0  0
    0.2825   -6.7755    3.6879 H   0  0  0  0  0  0  0  0  0  0  0  0
    1.6705   -7.3756    2.7079 H   0  0  0  0  0  0  0  0  0  0  0  0
    0.0459   -4.5389    5.4607 H   0  0  0  0  0  0  0  0  0  0  0  0
   -1.9009   -3.0274    5.6101 H   0  0  0  0  0  0  0  0  0  0  0  0
   -4.7835   -0.7191    5.4211 H   0  0  0  0  0  0  0  0  0  0  0  0
   -7.0887   -1.5725    5.3114 H   0  0  0  0  0  0  0  0  0  0  0  0
   -8.0617   -4.2994    5.7668 H   0  0  0  0  0  0  0  0  0  0  0  0
   -9.0009   -5.4535    4.7488 H   0  0  0  0  0  0  0  0  0  0  0  0
   -7.2090   -5.3377    4.5419 H   0  0  0  0  0  0  0  0  0  0  0  0
   -6.0348   -4.0079    1.9224 H   0  0  0  0  0  0  0  0  0  0  0  0
   -3.7386   -3.1406    2.0082 H   0  0  0  0  0  0  0  0  0  0  0  0
    2.0990    3.5417    7.2299 H   0  0  0  0  0  0  0  0  0  0  0  0
    4.4408    4.3294    7.2004 H   0  0  0  0  0  0  0  0  0  0  0  0
    7.5871    4.2723    4.2344 H   0  0  0  0  0  0  0  0  0  0  0  0
    6.2831    3.3848    5.1124 H   0  0  0  0  0  0  0  0  0  0  0  0
    5.9590    4.0966    3.4701 H   0  0  0  0  0  0  0  0  0  0  0  0
    3.7526    6.2252    3.3967 H   0  0  0  0  0  0  0  0  0  0  0  0
    1.4083    5.4633    3.4416 H   0  0  0  0  0  0  0  0  0  0  0  0
   -0.8085    3.8305    7.7354 H   0  0  0  0  0  0  0  0  0  0  0  0
   -2.7111    5.1851    8.5318 H   0  0  0  0  0  0  0  0  0  0  0  0
   -5.3088    4.9159    7.4525 H   0  0  0  0  0  0  0  0  0  0  0  0
   -5.5629    5.5753    5.7775 H   0  0  0  0  0  0  0  0  0  0  0  0
   -6.5968    6.1471    7.1482 H   0  0  0  0  0  0  0  0  0  0  0  0
   -2.9522    7.1076    4.6854 H   0  0  0  0  0  0  0  0  0  0  0  0
   -1.0162    5.7898    3.9076 H   0  0  0  0  0  0  0  0  0  0  0  0
    1.8820    2.8415    2.9085 H   0  0  0  0  0  0  0  0  0  0  0  0
    5.2915   -0.3031    4.6922 H   0  0  0  0  0  0  0  0  0  0  0  0
    3.1853    0.0582    5.9472 H   0  0  0  0  0  0  0  0  0  0  0  0
    6.8002   -0.8616    2.7083 H   0  0  0  0  0  0  0  0  0  0  0  0
    7.6324   -1.3376    0.4185 H   0  0  0  0  0  0  0  0  0  0  0  0
    5.4653    2.0928   -1.0768 H   0  0  0  0  0  0  0  0  0  0  0  0
    3.4315   -4.2566   -4.8516 H   0  0  0  0  0  0  0  0  0  0  0  0
    2.9436   -4.7909   -3.2227 H   0  0  0  0  0  0  0  0  0  0  0  0
    0.9882   -3.9067   -4.4463 H   0  0  0  0  0  0  0  0  0  0  0  0
    1.8514   -2.3546   -4.7891 H   0  0  0  0  0  0  0  0  0  0  0  0
    1.3655   -2.7759   -3.0954 H   0  0  0  0  0  0  0  0  0  0  0  0
    2.5120   -3.7789   -1.1873 H   0  0  0  0  0  0  0  0  0  0  0  0
    3.4525   -2.9375    0.0693 H   0  0  0  0  0  0  0  0  0  0  0  0
    4.5402   -5.4181   -1.4101 H   0  0  0  0  0  0  0  0  0  0  0  0
    3.5996   -5.4810    0.1248 H   0  0  0  0  0  0  0  0  0  0  0  0
    5.1876   -4.6265    0.0869 H   0  0  0  0  0  0  0  0  0  0  0  0
    6.2711   -0.4474   -6.8122 H   0  0  0  0  0  0  0  0  0  0  0  0
    0.8987    0.8433   -3.7819 H   0  0  0  0  0  0  0  0  0  0  0  0
    1.0107    0.5096   -8.8766 H   0  0  0  0  0  0  0  0  0  0  0  0
   -2.1000   -0.1605   -7.5899 H   0  0  0  0  0  0  0  0  0  0  0  0
   -2.1033    2.4212   -8.6182 H   0  0  0  0  0  0  0  0  0  0  0  0
   -4.6085    2.0023   -7.8490 H   0  0  0  0  0  0  0  0  0  0  0  0
   -4.6953    2.0805   -5.2445 H   0  0  0  0  0  0  0  0  0  0  0  0
   -2.2371    2.5621   -4.3438 H   0  0  0  0  0  0  0  0  0  0  0  0
   -0.7376    3.2369   -6.4585 H   0  0  0  0  0  0  0  0  0  0  0  0
   -2.3436    4.0663   -6.5372 H   0  0  0  0  0  0  0  0  0  0  0  0
   -2.1533   -0.0779   -5.1942 H   0  0  0  0  0  0  0  0  0  0  0  0
  1  2  2  3
  2  3  1  0
  3  4  2  0
  3  5  1  0
  5  6  2  0
  6  7  1  0
  7  8  2  0
  8  9  1  0
  9 10  2  0
 10 11  1  0
 11 12  2  3
 12 13  1  0
 13 14  3  0
 12 15  1  0
 15 16  3  0
  8 17  1  0
 17 18  1  0
 18 19  1  0
 19 20  2  0
 20 21  1  0
 21 22  1  0
 21 23  1  0
  1 24  1  0
 24 25  2  0
 25 26  1  0
 26 27  1  0
 27 28  2  0
 28 29  1  0
 29 30  2  0
 30 31  1  0
 31 32  1  0
 30 33  1  0
 33 34  2  0
 26 35  1  0
 35 36  2  0
 36 37  1  0
 37 38  2  0
 38 39  1  0
 39 40  1  0
 38 41  1  0
 41 42  2  0
 25 43  1  0
 43 44  1  0
 44 45  1  0
 45 46  2  0
 46 47  1  0
 47 48  1  0
 48 49  2  0
 49 50  1  0
 50 51  2  0
 51 52  1  0
 52 53  1  0
 51 54  1  0
 54 55  2  0
 47 56  1  0
 56 57  2  0
 57 58  1  0
 58 59  2  0
 59 60  1  0
 60 61  1  0
 59 62  1  0
 62 63  2  0
 46 64  1  0
 64 65  1  0
 45 66  1  0
 66 67  2  0
 67 68  1  0
 68 69  1  0
 69 70  2  0
 69 71  1  0
 71 72  2  0
 72 73  1  0
 73 74  1  0
 74 75  2  0
 72 76  1  0
 76 77  2  0
 77 78  1  0
 78 79  2  0
 78 80  1  0
 80 81  2  0
 81 82  1  0
 81 83  1  0
 83 84  1  0
 83 85  2  0
 85 86  1  0
 86 87  2  0
 87 88  1  0
 88 89  1  0
 89 90  1  0
 88 91  2  0
 91 92  1  0
 92 93  2  0
 91 94  1  0
 94 95  1  0
 85 96  1  0
 96 97  2  3
 97 98  1  0
 98 99  2  0
 98100  1  0
100101  2  0
101102  1  0
102103  2  0
103104  1  0
104105  2  0
105106  1  0
106107  2  3
107108  1  0
108109  3  0
107110  1  0
110111  3  0
103112  1  0
112113  1  0
113114  1  0
114115  2  0
115116  1  0
116117  1  0
116118  1  0
 11  2  1  0
 23 17  1  0
 65 24  1  0
 75 66  1  0
 93 80  1  0
106 97  1  0
118112  1  0
 10  5  1  0
 22 18  1  0
 34 27  1  0
 42 35  1  0
 64 43  2  0
 73 68  2  0
 93 86  1  0
105100  1  0
117113  1  0
 23  7  1  0
 55 48  1  0
 63 56  1  0
 79 71  1  0
118102  1  0
  1119  1  0
  6120  1  0
  9121  1  0
 17122  1  0
 18123  1  0
 19124  1  0
 20125  1  0
 21126  1  0
 22127  1  0
 22128  1  0
 23129  1  0
 28130  1  0
 29131  1  0
 32132  1  0
 32133  1  0
 32134  1  0
 33135  1  0
 34136  1  0
 36137  1  0
 37138  1  0
 40139  1  0
 40140  1  0
 40141  1  0
 41142  1  0
 42143  1  0
 49144  1  0
 50145  1  0
 53146  1  0
 53147  1  0
 53148  1  0
 54149  1  0
 55150  1  0
 57151  1  0
 58152  1  0
 61153  1  0
 61154  1  0
 61155  1  0
 62156  1  0
 63157  1  0
 67158  1  0
 74159  1  0
 75160  1  0
 76161  1  0
 77162  1  0
 79163  1  0
 89164  1  0
 89165  1  0
 90166  1  0
 90167  1  0
 90168  1  0
 94169  1  0
 94170  1  0
 95171  1  0
 95172  1  0
 95173  1  0
 96174  1  0
101175  1  0
104176  1  0
112177  1  0
113178  1  0
114179  1  0
115180  1  0
116181  1  0
117182  1  0
117183  1  0
118184  1  0
M  END

