
     RDKit          3D

218241  0  0  0  0  0  0  0  0999 V2000
   -4.6419   -4.1057    4.2960 C   0  0  0  0  0  0  0  0  0  0  0  0
   -4.1184   -5.2493    4.7853 C   0  0  0  0  0  0  0  0  0  0  0  0
   -4.9029   -6.3335    5.3763 C   0  0  0  0  0  0  0  0  0  0  0  0
   -6.0909   -6.2493    5.7914 O   0  0  0  0  0  0  0  0  0  0  0  0
   -4.0905   -7.5383    5.3679 C   0  0  0  0  0  0  0  0  0  0  0  0
   -4.4092   -8.7952    5.9401 C   0  0  0  0  0  0  0  0  0  0  0  0
   -3.3815   -9.7220    5.8625 C   0  0  0  0  0  0  0  0  0  0  0  0
   -2.1230   -9.4379    5.2338 C   0  0  0  0  0  0  0  0  0  0  0  0
   -1.8084   -8.2151    4.6777 C   0  0  0  0  0  0  0  0  0  0  0  0
   -2.8261   -7.2342    4.7975 C   0  0  0  0  0  0  0  0  0  0  0  0
   -2.7405   -5.7757    4.5618 C   0  0  0  0  0  0  0  0  0  0  0  0
   -1.6142   -5.0570    4.7294 C   0  0  0  0  0  0  0  0  0  0  0  0
   -0.3335   -5.5102    4.2712 C   0  0  0  0  0  0  0  0  0  0  0  0
    0.7048   -5.8673    3.8930 N   0  0  0  0  0  0  0  0  0  0  0  0
   -1.6287   -3.8670    5.5389 C   0  0  0  0  0  0  0  0  0  0  0  0
   -1.6454   -2.9115    6.1975 N   0  0  0  0  0  0  0  0  0  0  0  0
   -1.6172  -10.8022    5.5911 C   0  0  0  0  0  0  0  0  0  0  0  0
   -0.5801  -10.8528    6.7546 C   0  0  0  0  0  0  0  0  0  0  0  0
   -0.5180  -12.2963    7.1933 C   0  0  0  0  0  0  0  0  0  0  0  0
   -1.6821  -12.5579    7.7991 C   0  0  0  0  0  0  0  0  0  0  0  0
   -2.4907  -11.2840    7.7486 C   0  0  0  0  0  0  0  0  0  0  0  0
   -1.3566  -10.2864    7.9321 C   0  0  0  0  0  0  0  0  0  0  0  0
   -2.8948  -11.0907    6.2545 C   0  0  0  0  0  0  0  0  0  0  0  0
   -3.8548   -3.2263    3.4132 C   0  0  0  0  0  0  0  0  0  0  0  0
   -3.2496   -3.6425    2.2152 C   0  0  0  0  0  0  0  0  0  0  0  0
   -4.0115   -4.3378    1.2097 N   0  0  0  0  0  0  0  0  0  0  0  0
   -5.1707   -3.6972    0.6047 C   0  0  0  0  0  0  0  0  0  0  0  0
   -6.1766   -4.4506   -0.0397 C   0  0  0  0  0  0  0  0  0  0  0  0
   -7.3147   -3.8253   -0.5684 C   0  0  0  0  0  0  0  0  0  0  0  0
   -7.4754   -2.4406   -0.4489 C   0  0  0  0  0  0  0  0  0  0  0  0
   -8.9579   -1.6377   -1.0619 S   0  0  0  0  0  0  0  0  0  0  0  0
   -8.1491   -0.9841   -2.5646 C   0  0  0  0  0  0  0  0  0  0  0  0
   -6.4857   -1.6793    0.1724 C   0  0  0  0  0  0  0  0  0  0  0  0
   -5.3447   -2.2965    0.6807 C   0  0  0  0  0  0  0  0  0  0  0  0
   -3.5878   -5.6304    0.7648 C   0  0  0  0  0  0  0  0  0  0  0  0
   -2.9938   -5.7796   -0.4959 C   0  0  0  0  0  0  0  0  0  0  0  0
   -2.7766   -7.0560   -1.0298 C   0  0  0  0  0  0  0  0  0  0  0  0
   -3.1447   -8.1952   -0.2963 C   0  0  0  0  0  0  0  0  0  0  0  0
   -2.9699   -9.8195   -1.0344 S   0  0  0  0  0  0  0  0  0  0  0  0
   -1.3400  -10.1364   -0.2892 C   0  0  0  0  0  0  0  0  0  0  0  0
   -3.7266   -8.0498    0.9695 C   0  0  0  0  0  0  0  0  0  0  0  0
   -3.9501   -6.7717    1.4937 C   0  0  0  0  0  0  0  0  0  0  0  0
   -2.2498   -2.7427    1.8599 C   0  0  0  0  0  0  0  0  0  0  0  0
   -1.3030   -2.5688    0.4867 S   0  0  0  0  0  0  0  0  0  0  0  0
   -0.7366   -1.0177    0.9117 C   0  0  0  0  0  0  0  0  0  0  0  0
   -1.3908   -0.5929    2.0853 C   0  0  0  0  0  0  0  0  0  0  0  0
   -1.5661    0.7875    2.4549 N   0  0  0  0  0  0  0  0  0  0  0  0
   -2.6801    1.5561    1.9185 C   0  0  0  0  0  0  0  0  0  0  0  0
   -3.3801    1.1056    0.7742 C   0  0  0  0  0  0  0  0  0  0  0  0
   -4.3996    1.8733    0.2123 C   0  0  0  0  0  0  0  0  0  0  0  0
   -4.7663    3.0898    0.7898 C   0  0  0  0  0  0  0  0  0  0  0  0
   -6.0592    4.0822    0.0386 S   0  0  0  0  0  0  0  0  0  0  0  0
   -7.4097    3.1381    0.8094 C   0  0  0  0  0  0  0  0  0  0  0  0
   -4.1172    3.5369    1.9416 C   0  0  0  0  0  0  0  0  0  0  0  0
   -3.0836    2.7756    2.5042 C   0  0  0  0  0  0  0  0  0  0  0  0
   -0.6841    1.3483    3.4441 C   0  0  0  0  0  0  0  0  0  0  0  0
    0.0610    2.5071    3.1512 C   0  0  0  0  0  0  0  0  0  0  0  0
    0.8745    3.0878    4.1282 C   0  0  0  0  0  0  0  0  0  0  0  0
    0.9375    2.5280    5.4123 C   0  0  0  0  0  0  0  0  0  0  0  0
    1.9953    3.2605    6.6669 S   0  0  0  0  0  0  0  0  0  0  0  0
    0.6804    4.3450    7.3076 C   0  0  0  0  0  0  0  0  0  0  0  0
    0.1988    1.3761    5.7065 C   0  0  0  0  0  0  0  0  0  0  0  0
   -0.6020    0.7840    4.7266 C   0  0  0  0  0  0  0  0  0  0  0  0
   -2.1895   -1.6093    2.6056 C   0  0  0  0  0  0  0  0  0  0  0  0
   -3.3216   -1.6669    3.8441 S   0  0  0  0  0  0  0  0  0  0  0  0
   -0.0558   -0.1414   -0.0419 C   0  0  0  0  0  0  0  0  0  0  0  0
    1.3320    0.0643   -0.1517 C   0  0  0  0  0  0  0  0  0  0  0  0
    2.3338   -0.7286    0.5158 N   0  0  0  0  0  0  0  0  0  0  0  0
    2.3027   -1.0075    1.9235 C   0  0  0  0  0  0  0  0  0  0  0  0
    2.3694   -2.3397    2.3583 C   0  0  0  0  0  0  0  0  0  0  0  0
    2.6109   -2.6369    3.6998 C   0  0  0  0  0  0  0  0  0  0  0  0
    2.7752   -1.6004    4.6265 C   0  0  0  0  0  0  0  0  0  0  0  0
    3.1951   -1.9781    6.3317 S   0  0  0  0  0  0  0  0  0  0  0  0
    1.5085   -2.4769    6.7880 C   0  0  0  0  0  0  0  0  0  0  0  0
    2.6757   -0.2684    4.2074 C   0  0  0  0  0  0  0  0  0  0  0  0
    2.4460    0.0295    2.8562 C   0  0  0  0  0  0  0  0  0  0  0  0
    3.3723   -1.3414   -0.2634 C   0  0  0  0  0  0  0  0  0  0  0  0
    4.7172   -1.0453    0.0069 C   0  0  0  0  0  0  0  0  0  0  0  0
    5.7341   -1.6900   -0.7005 C   0  0  0  0  0  0  0  0  0  0  0  0
    5.4173   -2.6429   -1.6724 C   0  0  0  0  0  0  0  0  0  0  0  0
    6.7298   -3.4785   -2.5661 S   0  0  0  0  0  0  0  0  0  0  0  0
    6.9352   -4.7723   -1.2997 C   0  0  0  0  0  0  0  0  0  0  0  0
    4.0768   -2.9424   -1.9502 C   0  0  0  0  0  0  0  0  0  0  0  0
    3.0545   -2.2871   -1.2528 C   0  0  0  0  0  0  0  0  0  0  0  0
    1.6104    0.8557   -1.2774 C   0  0  0  0  0  0  0  0  0  0  0  0
    3.0195    1.4139   -2.0063 S   0  0  0  0  0  0  0  0  0  0  0  0
    2.2128    2.0817   -3.3566 C   0  0  0  0  0  0  0  0  0  0  0  0
    0.8337    1.8155   -3.2522 C   0  0  0  0  0  0  0  0  0  0  0  0
   -0.0782    1.8462   -4.3686 N   0  0  0  0  0  0  0  0  0  0  0  0
   -1.4654    2.1694   -4.1610 C   0  0  0  0  0  0  0  0  0  0  0  0
   -2.4689    1.2958   -4.6077 C   0  0  0  0  0  0  0  0  0  0  0  0
   -3.8179    1.5912   -4.3811 C   0  0  0  0  0  0  0  0  0  0  0  0
   -4.1759    2.7589   -3.6908 C   0  0  0  0  0  0  0  0  0  0  0  0
   -5.9092    3.1279   -3.3883 S   0  0  0  0  0  0  0  0  0  0  0  0
   -6.1200    3.9967   -4.9733 C   0  0  0  0  0  0  0  0  0  0  0  0
   -3.1786    3.6208   -3.2174 C   0  0  0  0  0  0  0  0  0  0  0  0
   -1.8311    3.3318   -3.4538 C   0  0  0  0  0  0  0  0  0  0  0  0
    0.3738    1.3498   -5.6487 C   0  0  0  0  0  0  0  0  0  0  0  0
    0.1749    2.1117   -6.8162 C   0  0  0  0  0  0  0  0  0  0  0  0
    0.7704    1.7178   -8.0142 C   0  0  0  0  0  0  0  0  0  0  0  0
    1.5514    0.5538   -8.0662 C   0  0  0  0  0  0  0  0  0  0  0  0
    2.4102    0.1158   -9.5837 S   0  0  0  0  0  0  0  0  0  0  0  0
    3.9080    1.0584   -9.1398 C   0  0  0  0  0  0  0  0  0  0  0  0
    1.7067   -0.2377   -6.9219 C   0  0  0  0  0  0  0  0  0  0  0  0
    1.1245    0.1631   -5.7230 C   0  0  0  0  0  0  0  0  0  0  0  0
    0.5394    1.1824   -2.0452 C   0  0  0  0  0  0  0  0  0  0  0  0
   -0.8523    0.5316   -1.3858 S   0  0  0  0  0  0  0  0  0  0  0  0
    2.8639    2.9220   -4.3777 C   0  0  0  0  0  0  0  0  0  0  0  0
    4.5486    2.9809   -4.6612 S   0  0  0  0  0  0  0  0  0  0  0  0
    4.4477    4.3060   -5.6861 C   0  0  0  0  0  0  0  0  0  0  0  0
    5.3849    5.1891   -6.2125 C   0  0  0  0  0  0  0  0  0  0  0  0
    4.7511    6.3431   -6.6985 C   0  0  0  0  0  0  0  0  0  0  0  0
    3.0651    6.2040   -6.5114 S   0  0  0  0  0  0  0  0  0  0  0  0
    3.1560    4.7050   -5.7848 C   0  0  0  0  0  0  0  0  0  0  0  0
    2.2283    3.9533   -5.0790 C   0  0  0  0  0  0  0  0  0  0  0  0
    5.3720    7.6434   -7.0109 C   0  0  0  0  0  0  0  0  0  0  0  0
    6.1208    8.3288   -6.1227 C   0  0  0  0  0  0  0  0  0  0  0  0
    6.6160    7.8037   -4.8474 C   0  0  0  0  0  0  0  0  0  0  0  0
    7.2739    6.7374   -4.6856 O   0  0  0  0  0  0  0  0  0  0  0  0
    6.4358    8.8050   -3.8243 C   0  0  0  0  0  0  0  0  0  0  0  0
    6.5473    8.6193   -2.4332 C   0  0  0  0  0  0  0  0  0  0  0  0
    6.0921    9.6897   -1.6904 C   0  0  0  0  0  0  0  0  0  0  0  0
    5.5451   10.8794   -2.2783 C   0  0  0  0  0  0  0  0  0  0  0  0
    5.4488   11.0703   -3.6514 C   0  0  0  0  0  0  0  0  0  0  0  0
    5.9392    9.9881   -4.4300 C   0  0  0  0  0  0  0  0  0  0  0  0
    5.9213    9.7884   -5.9021 C   0  0  0  0  0  0  0  0  0  0  0  0
    5.9576   10.7430   -6.8664 C   0  0  0  0  0  0  0  0  0  0  0  0
    5.8300   12.1483   -6.5626 C   0  0  0  0  0  0  0  0  0  0  0  0
    5.7228   13.2776   -6.3255 N   0  0  0  0  0  0  0  0  0  0  0  0
    6.2659   10.4028   -8.2330 C   0  0  0  0  0  0  0  0  0  0  0  0
    6.5317   10.1257   -9.3272 N   0  0  0  0  0  0  0  0  0  0  0  0
    5.2097   11.4096   -0.9127 C   0  0  0  0  0  0  0  0  0  0  0  0
    3.7154   11.3620   -0.4515 C   0  0  0  0  0  0  0  0  0  0  0  0
    3.0079   10.1961   -1.1074 C   0  0  0  0  0  0  0  0  0  0  0  0
    3.5255    9.0904   -0.5721 C   0  0  0  0  0  0  0  0  0  0  0  0
    4.5706    9.5421    0.4258 C   0  0  0  0  0  0  0  0  0  0  0  0
    3.8831   10.7909    0.9421 C   0  0  0  0  0  0  0  0  0  0  0  0
    5.7771   10.1948   -0.3176 C   0  0  0  0  0  0  0  0  0  0  0  0
   -5.6591   -3.8312    4.5323 H   0  0  0  0  0  0  0  0  0  0  0  0
   -5.3442   -8.9983    6.4366 H   0  0  0  0  0  0  0  0  0  0  0  0
   -0.8367   -8.0363    4.2501 H   0  0  0  0  0  0  0  0  0  0  0  0
   -1.3883  -11.4442    4.7085 H   0  0  0  0  0  0  0  0  0  0  0  0
    0.3998  -10.3782    6.5449 H   0  0  0  0  0  0  0  0  0  0  0  0
    0.3300  -12.9670    7.1291 H   0  0  0  0  0  0  0  0  0  0  0  0
   -1.9381  -13.4799    8.3190 H   0  0  0  0  0  0  0  0  0  0  0  0
   -3.3230  -11.2184    8.4802 H   0  0  0  0  0  0  0  0  0  0  0  0
   -0.8205  -10.3957    8.9112 H   0  0  0  0  0  0  0  0  0  0  0  0
   -1.6572   -9.2221    7.8173 H   0  0  0  0  0  0  0  0  0  0  0  0
   -3.4795  -11.9239    5.8002 H   0  0  0  0  0  0  0  0  0  0  0  0
   -6.0948   -5.5254   -0.1144 H   0  0  0  0  0  0  0  0  0  0  0  0
   -8.0814   -4.4230   -1.0336 H   0  0  0  0  0  0  0  0  0  0  0  0
   -8.8863   -0.3735   -3.1327 H   0  0  0  0  0  0  0  0  0  0  0  0
   -7.8032   -1.8215   -3.2101 H   0  0  0  0  0  0  0  0  0  0  0  0
   -7.2847   -0.3330   -2.2927 H   0  0  0  0  0  0  0  0  0  0  0  0
   -6.5957   -0.6054    0.2646 H   0  0  0  0  0  0  0  0  0  0  0  0
   -4.6017   -1.6571    1.1378 H   0  0  0  0  0  0  0  0  0  0  0  0
   -2.7583   -4.9072   -1.0900 H   0  0  0  0  0  0  0  0  0  0  0  0
   -2.3586   -7.1532   -2.0199 H   0  0  0  0  0  0  0  0  0  0  0  0
   -0.6323   -9.3122   -0.5316 H   0  0  0  0  0  0  0  0  0  0  0  0
   -0.9344  -11.0855   -0.6958 H   0  0  0  0  0  0  0  0  0  0  0  0
   -1.4417  -10.2315    0.8143 H   0  0  0  0  0  0  0  0  0  0  0  0
   -4.0426   -8.9255    1.5254 H   0  0  0  0  0  0  0  0  0  0  0  0
   -4.4800   -6.6713    2.4298 H   0  0  0  0  0  0  0  0  0  0  0  0
   -3.1436    0.1657    0.3041 H   0  0  0  0  0  0  0  0  0  0  0  0
   -4.9090    1.5174   -0.6788 H   0  0  0  0  0  0  0  0  0  0  0  0
   -8.3831    3.4967    0.4137 H   0  0  0  0  0  0  0  0  0  0  0  0
   -7.3041    2.0612    0.5805 H   0  0  0  0  0  0  0  0  0  0  0  0
   -7.3890    3.2889    1.9047 H   0  0  0  0  0  0  0  0  0  0  0  0
   -4.3969    4.4793    2.3945 H   0  0  0  0  0  0  0  0  0  0  0  0
   -2.6060    3.1514    3.3969 H   0  0  0  0  0  0  0  0  0  0  0  0
    0.0095    2.9545    2.1679 H   0  0  0  0  0  0  0  0  0  0  0  0
    1.4554    3.9681    3.8925 H   0  0  0  0  0  0  0  0  0  0  0  0
    1.0539    4.8701    8.2142 H   0  0  0  0  0  0  0  0  0  0  0  0
    0.4081    5.0965    6.5388 H   0  0  0  0  0  0  0  0  0  0  0  0
   -0.2093    3.7393    7.5869 H   0  0  0  0  0  0  0  0  0  0  0  0
    0.2509    0.9298    6.6931 H   0  0  0  0  0  0  0  0  0  0  0  0
   -1.1703   -0.0982    4.9774 H   0  0  0  0  0  0  0  0  0  0  0  0
    2.2952   -3.1514    1.6461 H   0  0  0  0  0  0  0  0  0  0  0  0
    2.7099   -3.6712    4.0146 H   0  0  0  0  0  0  0  0  0  0  0  0
    0.8045   -1.6418    6.6250 H   0  0  0  0  0  0  0  0  0  0  0  0
    1.2079   -3.3548    6.1839 H   0  0  0  0  0  0  0  0  0  0  0  0
    1.4889   -2.7592    7.8626 H   0  0  0  0  0  0  0  0  0  0  0  0
    2.8506    0.5325    4.9147 H   0  0  0  0  0  0  0  0  0  0  0  0
    2.4560    1.0557    2.5265 H   0  0  0  0  0  0  0  0  0  0  0  0
    4.9729   -0.3187    0.7641 H   0  0  0  0  0  0  0  0  0  0  0  0
    6.7673   -1.4512   -0.4879 H   0  0  0  0  0  0  0  0  0  0  0  0
    7.7700   -5.4394   -1.6092 H   0  0  0  0  0  0  0  0  0  0  0  0
    7.1910   -4.3101   -0.3190 H   0  0  0  0  0  0  0  0  0  0  0  0
    6.0025   -5.3745   -1.2075 H   0  0  0  0  0  0  0  0  0  0  0  0
    3.8273   -3.6869   -2.7018 H   0  0  0  0  0  0  0  0  0  0  0  0
    2.0219   -2.5346   -1.4540 H   0  0  0  0  0  0  0  0  0  0  0  0
   -2.2042    0.3741   -5.1069 H   0  0  0  0  0  0  0  0  0  0  0  0
   -4.5872    0.9022   -4.7147 H   0  0  0  0  0  0  0  0  0  0  0  0
   -5.9550    3.2788   -5.8041 H   0  0  0  0  0  0  0  0  0  0  0  0
   -5.4043    4.8438   -5.0546 H   0  0  0  0  0  0  0  0  0  0  0  0
   -7.1581    4.3943   -5.0431 H   0  0  0  0  0  0  0  0  0  0  0  0
   -3.4494    4.5106   -2.6601 H   0  0  0  0  0  0  0  0  0  0  0  0
   -1.0697    3.9947   -3.0698 H   0  0  0  0  0  0  0  0  0  0  0  0
   -0.3942    3.0344   -6.7768 H   0  0  0  0  0  0  0  0  0  0  0  0
    0.6638    2.3443   -8.8947 H   0  0  0  0  0  0  0  0  0  0  0  0
    3.6521    2.1344   -9.0411 H   0  0  0  0  0  0  0  0  0  0  0  0
    4.6676    0.9340   -9.9367 H   0  0  0  0  0  0  0  0  0  0  0  0
    4.3269    0.6860   -8.1820 H   0  0  0  0  0  0  0  0  0  0  0  0
    2.2939   -1.1515   -6.9690 H   0  0  0  0  0  0  0  0  0  0  0  0
    1.2633   -0.4441   -4.8363 H   0  0  0  0  0  0  0  0  0  0  0  0
    6.4532    5.0184   -6.1834 H   0  0  0  0  0  0  0  0  0  0  0  0
    1.1843    4.2098   -4.9981 H   0  0  0  0  0  0  0  0  0  0  0  0
    4.8632    8.1999   -7.7836 H   0  0  0  0  0  0  0  0  0  0  0  0
    6.8963    7.6991   -1.9856 H   0  0  0  0  0  0  0  0  0  0  0  0
    4.9696   11.9459   -4.0621 H   0  0  0  0  0  0  0  0  0  0  0  0
    5.7627   12.3295   -0.6254 H   0  0  0  0  0  0  0  0  0  0  0  0
    3.1716   12.3290   -0.5030 H   0  0  0  0  0  0  0  0  0  0  0  0
    2.1743   10.2316   -1.8008 H   0  0  0  0  0  0  0  0  0  0  0  0
    3.1854    8.0764   -0.7485 H   0  0  0  0  0  0  0  0  0  0  0  0
    4.8478    8.7911    1.1929 H   0  0  0  0  0  0  0  0  0  0  0  0
    2.9149   10.5833    1.4539 H   0  0  0  0  0  0  0  0  0  0  0  0
    4.5297   11.4141    1.6005 H   0  0  0  0  0  0  0  0  0  0  0  0
    6.6783   10.3741    0.3094 H   0  0  0  0  0  0  0  0  0  0  0  0
  1  2  2  3
  2  3  1  0
  3  4  2  0
  3  5  1  0
  5  6  2  0
  6  7  1  0
  7  8  2  0
  8  9  1  0
  9 10  2  0
 10 11  1  0
 11 12  2  3
 12 13  1  0
 13 14  3  0
 12 15  1  0
 15 16  3  0
  8 17  1  0
 17 18  1  0
 18 19  1  0
 19 20  2  0
 20 21  1  0
 21 22  1  0
 21 23  1  0
  1 24  1  0
 24 25  2  0
 25 26  1  0
 26 27  1  0
 27 28  2  0
 28 29  1  0
 29 30  2  0
 30 31  1  0
 31 32  1  0
 30 33  1  0
 33 34  2  0
 26 35  1  0
 35 36  2  0
 36 37  1  0
 37 38  2  0
 38 39  1  0
 39 40  1  0
 38 41  1  0
 41 42  2  0
 25 43  1  0
 43 44  1  0
 44 45  1  0
 45 46  2  0
 46 47  1  0
 47 48  1  0
 48 49  2  0
 49 50  1  0
 50 51  2  0
 51 52  1  0
 52 53  1  0
 51 54  1  0
 54 55  2  0
 47 56  1  0
 56 57  2  0
 57 58  1  0
 58 59  2  0
 59 60  1  0
 60 61  1  0
 59 62  1  0
 62 63  2  0
 46 64  1  0
 64 65  1  0
 45 66  1  0
 66 67  2  0
 67 68  1  0
 68 69  1  0
 69 70  2  0
 70 71  1  0
 71 72  2  0
 72 73  1  0
 73 74  1  0
 72 75  1  0
 75 76  2  0
 68 77  1  0
 77 78  2  0
 78 79  1  0
 79 80  2  0
 80 81  1  0
 81 82  1  0
 80 83  1  0
 83 84  2  0
 67 85  1  0
 85 86  1  0
 86 87  1  0
 87 88  2  0
 88 89  1  0
 89 90  1  0
 90 91  2  0
 91 92  1  0
 92 93  2  0
 93 94  1  0
 94 95  1  0
 93 96  1  0
 96 97  2  0
 89 98  1  0
 98 99  2  0
 99100  1  0
100101  2  0
101102  1  0
102103  1  0
101104  1  0
104105  2  0
 88106  1  0
106107  1  0
 87108  1  0
108109  1  0
109110  1  0
110111  1  0
111112  2  0
112113  1  0
113114  1  0
114115  1  0
112116  1  0
116117  2  3
117118  1  0
118119  2  0
118120  1  0
120121  2  0
121122  1  0
122123  2  0
123124  1  0
124125  2  0
125126  1  0
126127  2  3
127128  1  0
128129  3  0
127130  1  0
130131  3  0
123132  1  0
132133  1  0
133134  1  0
134135  2  0
135136  1  0
136137  1  0
136138  1  0
 11  2  1  0
 23 17  1  0
 65 24  1  0
107 66  1  0
115108  2  0
126117  1  0
138132  1  0
 10  5  1  0
 22 18  1  0
 34 27  1  0
 42 35  1  0
 64 43  2  0
 76 69  1  0
 84 77  1  0
106 85  2  0
114110  2  0
125120  1  0
137133  1  0
 23  7  1  0
 55 48  1  0
 63 56  1  0
 97 90  1  0
105 98  1  0
138122  1  0
  1139  1  0
  6140  1  0
  9141  1  0
 17142  1  0
 18143  1  0
 19144  1  0
 20145  1  0
 21146  1  0
 22147  1  0
 22148  1  0
 23149  1  0
 28150  1  0
 29151  1  0
 32152  1  0
 32153  1  0
 32154  1  0
 33155  1  0
 34156  1  0
 36157  1  0
 37158  1  0
 40159  1  0
 40160  1  0
 40161  1  0
 41162  1  0
 42163  1  0
 49164  1  0
 50165  1  0
 53166  1  0
 53167  1  0
 53168  1  0
 54169  1  0
 55170  1  0
 57171  1  0
 58172  1  0
 61173  1  0
 61174  1  0
 61175  1  0
 62176  1  0
 63177  1  0
 70178  1  0
 71179  1  0
 74180  1  0
 74181  1  0
 74182  1  0
 75183  1  0
 76184  1  0
 78185  1  0
 79186  1  0
 82187  1  0
 82188  1  0
 82189  1  0
 83190  1  0
 84191  1  0
 91192  1  0
 92193  1  0
 95194  1  0
 95195  1  0
 95196  1  0
 96197  1  0
 97198  1  0
 99199  1  0
100200  1  0
103201  1  0
103202  1  0
103203  1  0
104204  1  0
105205  1  0
111206  1  0
115207  1  0
116208  1  0
121209  1  0
124210  1  0
132211  1  0
133212  1  0
134213  1  0
135214  1  0
136215  1  0
137216  1  0
137217  1  0
138218  1  0
M  END

