
     RDKit          3D

232256  0  0  0  0  0  0  0  0999 V2000
    6.4500    5.3306    2.5720 C   0  0  0  0  0  0  0  0  0  0  0  0
    6.9399    4.4396    3.4562 C   0  0  0  0  0  0  0  0  0  0  0  0
    6.3393    3.1429    3.7906 C   0  0  0  0  0  0  0  0  0  0  0  0
    5.6145    2.4420    3.0399 O   0  0  0  0  0  0  0  0  0  0  0  0
    6.8604    2.7101    5.0655 C   0  0  0  0  0  0  0  0  0  0  0  0
    6.4496    1.5736    5.7972 C   0  0  0  0  0  0  0  0  0  0  0  0
    7.1574    1.3685    6.9618 C   0  0  0  0  0  0  0  0  0  0  0  0
    8.2182    2.2295    7.3900 C   0  0  0  0  0  0  0  0  0  0  0  0
    8.6152    3.3599    6.6873 C   0  0  0  0  0  0  0  0  0  0  0  0
    7.8799    3.6014    5.4893 C   0  0  0  0  0  0  0  0  0  0  0  0
    8.0355    4.6759    4.4625 C   0  0  0  0  0  0  0  0  0  0  0  0
    9.0372    5.5930    4.3748 C   0  0  0  0  0  0  0  0  0  0  0  0
    9.2549    6.3754    3.1821 C   0  0  0  0  0  0  0  0  0  0  0  0
    9.3984    6.9975    2.2214 N   0  0  0  0  0  0  0  0  0  0  0  0
    9.9104    5.8886    5.4761 C   0  0  0  0  0  0  0  0  0  0  0  0
   10.5811    6.1725    6.3807 N   0  0  0  0  0  0  0  0  0  0  0  0
    8.4736    1.3505    8.5798 C   0  0  0  0  0  0  0  0  0  0  0  0
    9.7186    0.4131    8.5388 C   0  0  0  0  0  0  0  0  0  0  0  0
   10.0238    0.0152    7.1132 C   0  0  0  0  0  0  0  0  0  0  0  0
    9.0291   -0.7801    6.7200 C   0  0  0  0  0  0  0  0  0  0  0  0
    8.0786   -0.8951    7.8913 C   0  0  0  0  0  0  0  0  0  0  0  0
    9.0937   -0.8806    9.0197 C   0  0  0  0  0  0  0  0  0  0  0  0
    7.3788    0.4745    8.1465 C   0  0  0  0  0  0  0  0  0  0  0  0
    5.2829    5.1103    1.6999 C   0  0  0  0  0  0  0  0  0  0  0  0
    3.7763    4.5384    2.1938 S   0  0  0  0  0  0  0  0  0  0  0  0
    2.9659    4.7398    0.7339 C   0  0  0  0  0  0  0  0  0  0  0  0
    3.8605    5.3625   -0.1503 C   0  0  0  0  0  0  0  0  0  0  0  0
    3.5289    5.9272   -1.4787 C   0  0  0  0  0  0  0  0  0  0  0  0
    2.3452    6.2376   -1.7725 O   0  0  0  0  0  0  0  0  0  0  0  0
    4.6401    6.2469   -2.3985 C   0  0  0  0  0  0  0  0  0  0  0  0
    4.5228    6.5161   -3.7665 C   0  0  0  0  0  0  0  0  0  0  0  0
    3.2687    6.5617   -4.5911 C   0  0  0  0  0  0  0  0  0  0  0  0
    2.6250    7.9430   -4.5229 C   0  0  0  0  0  0  0  0  0  0  0  0
    6.0630    6.8035   -4.3786 S   0  0  0  0  0  0  0  0  0  0  0  0
    6.8971    6.5939   -2.9324 C   0  0  0  0  0  0  0  0  0  0  0  0
    8.3967    6.6082   -2.8402 C   0  0  0  0  0  0  0  0  0  0  0  0
    8.9553    5.1915   -2.9323 C   0  0  0  0  0  0  0  0  0  0  0  0
    5.9688    6.2847   -1.9250 C   0  0  0  0  0  0  0  0  0  0  0  0
    6.2674    5.9912   -0.5021 C   0  0  0  0  0  0  0  0  0  0  0  0
    7.4342    6.1147   -0.0493 O   0  0  0  0  0  0  0  0  0  0  0  0
    5.1633    5.5177    0.3696 C   0  0  0  0  0  0  0  0  0  0  0  0
    1.6743    4.0999    0.3929 C   0  0  0  0  0  0  0  0  0  0  0  0
    0.7052    3.5777    1.2827 C   0  0  0  0  0  0  0  0  0  0  0  0
    0.8066    3.5403    2.7196 N   0  0  0  0  0  0  0  0  0  0  0  0
   -0.1180    4.3576    3.4755 C   0  0  0  0  0  0  0  0  0  0  0  0
   -0.7329    3.8672    4.6471 C   0  0  0  0  0  0  0  0  0  0  0  0
   -1.6931    4.6249    5.3178 C   0  0  0  0  0  0  0  0  0  0  0  0
   -2.0768    5.8755    4.8183 C   0  0  0  0  0  0  0  0  0  0  0  0
   -3.3574    6.8174    5.6457 S   0  0  0  0  0  0  0  0  0  0  0  0
   -4.7103    6.0067    4.7328 C   0  0  0  0  0  0  0  0  0  0  0  0
   -1.4601    6.3840    3.6704 C   0  0  0  0  0  0  0  0  0  0  0  0
   -0.4870    5.6323    3.0046 C   0  0  0  0  0  0  0  0  0  0  0  0
    1.4810    2.4227    3.3492 C   0  0  0  0  0  0  0  0  0  0  0  0
    1.3074    1.1098    2.8749 C   0  0  0  0  0  0  0  0  0  0  0  0
    1.7982    0.0241    3.6015 C   0  0  0  0  0  0  0  0  0  0  0  0
    2.5397    0.2303    4.7673 C   0  0  0  0  0  0  0  0  0  0  0  0
    3.0544   -1.1800    5.7568 S   0  0  0  0  0  0  0  0  0  0  0  0
    4.4188   -1.7064    4.6594 C   0  0  0  0  0  0  0  0  0  0  0  0
    2.7706    1.5355    5.2177 C   0  0  0  0  0  0  0  0  0  0  0  0
    2.2407    2.6261    4.5164 C   0  0  0  0  0  0  0  0  0  0  0  0
   -0.3423    2.9644    0.5919 C   0  0  0  0  0  0  0  0  0  0  0  0
   -1.6413    2.0202    1.0517 S   0  0  0  0  0  0  0  0  0  0  0  0
   -2.0182    1.4842   -0.5255 C   0  0  0  0  0  0  0  0  0  0  0  0
   -1.1040    2.0775   -1.4133 C   0  0  0  0  0  0  0  0  0  0  0  0
   -1.1599    1.9844   -2.8442 N   0  0  0  0  0  0  0  0  0  0  0  0
   -0.0688    1.3135   -3.5042 C   0  0  0  0  0  0  0  0  0  0  0  0
    0.1897   -0.0409   -3.2391 C   0  0  0  0  0  0  0  0  0  0  0  0
    1.2705   -0.6831   -3.8550 C   0  0  0  0  0  0  0  0  0  0  0  0
    2.1002    0.0241   -4.7315 C   0  0  0  0  0  0  0  0  0  0  0  0
    3.4939   -0.7905   -5.5167 S   0  0  0  0  0  0  0  0  0  0  0  0
    2.5157   -1.3708   -6.9388 C   0  0  0  0  0  0  0  0  0  0  0  0
    1.8603    1.3796   -4.9832 C   0  0  0  0  0  0  0  0  0  0  0  0
    0.7856    2.0226   -4.3645 C   0  0  0  0  0  0  0  0  0  0  0  0
   -1.9871    2.9209   -3.5827 C   0  0  0  0  0  0  0  0  0  0  0  0
   -2.4742    4.1023   -2.9799 C   0  0  0  0  0  0  0  0  0  0  0  0
   -3.2133    5.0273   -3.7210 C   0  0  0  0  0  0  0  0  0  0  0  0
   -3.5050    4.7801   -5.0653 C   0  0  0  0  0  0  0  0  0  0  0  0
   -4.4474    5.9739   -6.0192 S   0  0  0  0  0  0  0  0  0  0  0  0
   -6.0533    5.4313   -5.3409 C   0  0  0  0  0  0  0  0  0  0  0  0
   -3.0323    3.6160   -5.6741 C   0  0  0  0  0  0  0  0  0  0  0  0
   -2.2755    2.6936   -4.9452 C   0  0  0  0  0  0  0  0  0  0  0  0
   -0.1939    2.8896   -0.7462 C   0  0  0  0  0  0  0  0  0  0  0  0
    1.2268    3.6437   -1.1954 S   0  0  0  0  0  0  0  0  0  0  0  0
   -2.5895    0.1510   -0.6979 C   0  0  0  0  0  0  0  0  0  0  0  0
   -3.9482   -0.1244   -0.9196 C   0  0  0  0  0  0  0  0  0  0  0  0
   -4.8149    0.6576   -1.7556 N   0  0  0  0  0  0  0  0  0  0  0  0
   -4.6701    0.5923   -3.1989 C   0  0  0  0  0  0  0  0  0  0  0  0
   -3.8735   -0.4036   -3.8079 C   0  0  0  0  0  0  0  0  0  0  0  0
   -3.7976   -0.5084   -5.1980 C   0  0  0  0  0  0  0  0  0  0  0  0
   -4.5210    0.3697   -6.0144 C   0  0  0  0  0  0  0  0  0  0  0  0
   -4.4688    0.2418   -7.5080 C   0  0  0  0  0  0  0  0  0  0  0  0
   -5.3169    1.3587   -5.4226 C   0  0  0  0  0  0  0  0  0  0  0  0
   -5.3654    1.4913   -4.0300 C   0  0  0  0  0  0  0  0  0  0  0  0
   -6.0077    1.1854   -1.1509 C   0  0  0  0  0  0  0  0  0  0  0  0
   -7.2729    0.8159   -1.6347 C   0  0  0  0  0  0  0  0  0  0  0  0
   -8.4311    1.3432   -1.0604 C   0  0  0  0  0  0  0  0  0  0  0  0
   -8.3425    2.2407    0.0136 C   0  0  0  0  0  0  0  0  0  0  0  0
   -9.5977    2.7910    0.6217 C   0  0  0  0  0  0  0  0  0  0  0  0
   -7.0802    2.5796    0.5273 C   0  0  0  0  0  0  0  0  0  0  0  0
   -5.9187    2.0554   -0.0521 C   0  0  0  0  0  0  0  0  0  0  0  0
   -4.2855   -1.3981   -0.4608 C   0  0  0  0  0  0  0  0  0  0  0  0
   -5.7295   -2.2228   -0.2164 S   0  0  0  0  0  0  0  0  0  0  0  0
   -4.9942   -3.5571    0.5590 C   0  0  0  0  0  0  0  0  0  0  0  0
   -3.6172   -3.3146    0.6663 C   0  0  0  0  0  0  0  0  0  0  0  0
   -2.6978   -4.1220    1.4206 N   0  0  0  0  0  0  0  0  0  0  0  0
   -1.6287   -4.7920    0.7210 C   0  0  0  0  0  0  0  0  0  0  0  0
   -0.3226   -4.8022    1.2404 C   0  0  0  0  0  0  0  0  0  0  0  0
    0.7147   -5.4243    0.5421 C   0  0  0  0  0  0  0  0  0  0  0  0
    0.4588   -6.0591   -0.6811 C   0  0  0  0  0  0  0  0  0  0  0  0
    1.5798   -6.6859   -1.4581 C   0  0  0  0  0  0  0  0  0  0  0  0
   -0.8353   -6.0298   -1.2188 C   0  0  0  0  0  0  0  0  0  0  0  0
   -1.8683   -5.3963   -0.5253 C   0  0  0  0  0  0  0  0  0  0  0  0
   -2.7399   -4.0921    2.8659 C   0  0  0  0  0  0  0  0  0  0  0  0
   -2.4664   -5.2537    3.6044 C   0  0  0  0  0  0  0  0  0  0  0  0
   -2.4343   -5.2152    5.0024 C   0  0  0  0  0  0  0  0  0  0  0  0
   -2.6941   -4.0187    5.6835 C   0  0  0  0  0  0  0  0  0  0  0  0
   -2.5865   -3.9584    7.1802 C   0  0  0  0  0  0  0  0  0  0  0  0
   -2.9780   -2.8569    4.9470 C   0  0  0  0  0  0  0  0  0  0  0  0
   -3.0111   -2.8955    3.5523 C   0  0  0  0  0  0  0  0  0  0  0  0
   -3.2659   -2.1115    0.0750 C   0  0  0  0  0  0  0  0  0  0  0  0
   -1.8710   -1.1990    0.0703 S   0  0  0  0  0  0  0  0  0  0  0  0
   -5.6891   -4.6602    1.2364 C   0  0  0  0  0  0  0  0  0  0  0  0
   -5.6807   -5.9101    0.7441 C   0  0  0  0  0  0  0  0  0  0  0  0
   -5.5196   -7.0846    1.5964 C   0  0  0  0  0  0  0  0  0  0  0  0
   -5.7364   -7.1347    2.8350 O   0  0  0  0  0  0  0  0  0  0  0  0
   -4.9620   -8.1570    0.7924 C   0  0  0  0  0  0  0  0  0  0  0  0
   -4.6032   -9.4581    1.2214 C   0  0  0  0  0  0  0  0  0  0  0  0
   -4.1255  -10.2732    0.2074 C   0  0  0  0  0  0  0  0  0  0  0  0
   -3.9825   -9.8293   -1.1472 C   0  0  0  0  0  0  0  0  0  0  0  0
   -4.3057   -8.5520   -1.5705 C   0  0  0  0  0  0  0  0  0  0  0  0
   -4.8334   -7.7053   -0.5520 C   0  0  0  0  0  0  0  0  0  0  0  0
   -5.3941   -6.3346   -0.6549 C   0  0  0  0  0  0  0  0  0  0  0  0
   -5.9431   -5.7815   -1.7640 C   0  0  0  0  0  0  0  0  0  0  0  0
   -7.0165   -4.8269   -1.6661 C   0  0  0  0  0  0  0  0  0  0  0  0
   -7.8968   -4.0757   -1.5983 N   0  0  0  0  0  0  0  0  0  0  0  0
   -5.6641   -6.2613   -3.0956 C   0  0  0  0  0  0  0  0  0  0  0  0
   -5.4392   -6.6342   -4.1649 N   0  0  0  0  0  0  0  0  0  0  0  0
   -3.4734  -11.1763   -1.5555 C   0  0  0  0  0  0  0  0  0  0  0  0
   -1.9456  -11.2878   -1.8267 C   0  0  0  0  0  0  0  0  0  0  0  0
   -1.6355  -12.7651   -1.8322 C   0  0  0  0  0  0  0  0  0  0  0  0
   -1.7637  -13.1856   -0.5668 C   0  0  0  0  0  0  0  0  0  0  0  0
   -2.1554  -11.9756    0.2496 C   0  0  0  0  0  0  0  0  0  0  0  0
   -1.3343  -10.9294   -0.4835 C   0  0  0  0  0  0  0  0  0  0  0  0
   -3.6164  -11.6321   -0.1688 C   0  0  0  0  0  0  0  0  0  0  0  0
    6.8800    6.3110    2.4984 H   0  0  0  0  0  0  0  0  0  0  0  0
    5.6629    0.9160    5.4698 H   0  0  0  0  0  0  0  0  0  0  0  0
    9.4304    3.9653    7.0482 H   0  0  0  0  0  0  0  0  0  0  0  0
    8.2870    1.8409    9.5599 H   0  0  0  0  0  0  0  0  0  0  0  0
   10.5975    0.7646    9.1237 H   0  0  0  0  0  0  0  0  0  0  0  0
   10.8955    0.2773    6.5304 H   0  0  0  0  0  0  0  0  0  0  0  0
    8.9540   -1.2846    5.7636 H   0  0  0  0  0  0  0  0  0  0  0  0
    7.4061   -1.7756    7.8638 H   0  0  0  0  0  0  0  0  0  0  0  0
    8.6304   -0.8034   10.0298 H   0  0  0  0  0  0  0  0  0  0  0  0
    9.7947   -1.7497    8.9958 H   0  0  0  0  0  0  0  0  0  0  0  0
    6.5191    0.4419    8.8511 H   0  0  0  0  0  0  0  0  0  0  0  0
    2.5508    5.7874   -4.2481 H   0  0  0  0  0  0  0  0  0  0  0  0
    3.5184    6.3345   -5.6498 H   0  0  0  0  0  0  0  0  0  0  0  0
    2.4074    8.2267   -3.4741 H   0  0  0  0  0  0  0  0  0  0  0  0
    1.6705    7.9386   -5.0934 H   0  0  0  0  0  0  0  0  0  0  0  0
    3.2981    8.7025   -4.9679 H   0  0  0  0  0  0  0  0  0  0  0  0
    8.7321    7.0918   -1.8984 H   0  0  0  0  0  0  0  0  0  0  0  0
    8.8088    7.2086   -3.6792 H   0  0  0  0  0  0  0  0  0  0  0  0
    8.6356    4.7121   -3.8813 H   0  0  0  0  0  0  0  0  0  0  0  0
    8.6005    4.5779   -2.0748 H   0  0  0  0  0  0  0  0  0  0  0  0
   10.0639    5.2267   -2.9122 H   0  0  0  0  0  0  0  0  0  0  0  0
   -0.4925    2.8850    5.0372 H   0  0  0  0  0  0  0  0  0  0  0  0
   -2.1561    4.2296    6.2116 H   0  0  0  0  0  0  0  0  0  0  0  0
   -4.6645    4.9047    4.8716 H   0  0  0  0  0  0  0  0  0  0  0  0
   -5.6832    6.3734    5.1232 H   0  0  0  0  0  0  0  0  0  0  0  0
   -4.6423    6.2531    3.6528 H   0  0  0  0  0  0  0  0  0  0  0  0
   -1.7433    7.3558    3.2865 H   0  0  0  0  0  0  0  0  0  0  0  0
   -0.0298    6.0402    2.1121 H   0  0  0  0  0  0  0  0  0  0  0  0
    0.7400    0.9077    1.9813 H   0  0  0  0  0  0  0  0  0  0  0  0
    1.5965   -0.9783    3.2534 H   0  0  0  0  0  0  0  0  0  0  0  0
    4.4696   -2.8166    4.6780 H   0  0  0  0  0  0  0  0  0  0  0  0
    5.3852   -1.3096    5.0256 H   0  0  0  0  0  0  0  0  0  0  0  0
    4.2595   -1.3823    3.6086 H   0  0  0  0  0  0  0  0  0  0  0  0
    3.3216    1.7018    6.1341 H   0  0  0  0  0  0  0  0  0  0  0  0
    2.3849    3.6260    4.9105 H   0  0  0  0  0  0  0  0  0  0  0  0
   -0.4483   -0.5960   -2.5666 H   0  0  0  0  0  0  0  0  0  0  0  0
    1.4528   -1.7317   -3.6541 H   0  0  0  0  0  0  0  0  0  0  0  0
    1.6549   -1.9793   -6.5913 H   0  0  0  0  0  0  0  0  0  0  0  0
    2.1606   -0.4956   -7.5213 H   0  0  0  0  0  0  0  0  0  0  0  0
    3.1587   -1.9991   -7.5878 H   0  0  0  0  0  0  0  0  0  0  0  0
    2.5040    1.9365   -5.6519 H   0  0  0  0  0  0  0  0  0  0  0  0
    0.6226    3.0762   -4.5548 H   0  0  0  0  0  0  0  0  0  0  0  0
   -2.2654    4.3300   -1.9431 H   0  0  0  0  0  0  0  0  0  0  0  0
   -3.5605    5.9347   -3.2437 H   0  0  0  0  0  0  0  0  0  0  0  0
   -6.0741    5.5990   -4.2397 H   0  0  0  0  0  0  0  0  0  0  0  0
   -6.2309    4.3557   -5.5625 H   0  0  0  0  0  0  0  0  0  0  0  0
   -6.8617    6.0324   -5.8101 H   0  0  0  0  0  0  0  0  0  0  0  0
   -3.2514    3.4183   -6.7132 H   0  0  0  0  0  0  0  0  0  0  0  0
   -1.9215    1.7986   -5.4383 H   0  0  0  0  0  0  0  0  0  0  0  0
   -3.3190   -1.1170   -3.2148 H   0  0  0  0  0  0  0  0  0  0  0  0
   -3.1823   -1.2855   -5.6349 H   0  0  0  0  0  0  0  0  0  0  0  0
   -5.3997   -0.2478   -7.8674 H   0  0  0  0  0  0  0  0  0  0  0  0
   -3.5950   -0.3674   -7.8295 H   0  0  0  0  0  0  0  0  0  0  0  0
   -4.3833    1.2458   -7.9736 H   0  0  0  0  0  0  0  0  0  0  0  0
   -5.8765    2.0472   -6.0450 H   0  0  0  0  0  0  0  0  0  0  0  0
   -5.9554    2.2954   -3.6090 H   0  0  0  0  0  0  0  0  0  0  0  0
   -7.3612    0.1189   -2.4586 H   0  0  0  0  0  0  0  0  0  0  0  0
   -9.3982    1.0549   -1.4574 H   0  0  0  0  0  0  0  0  0  0  0  0
   -9.3745    3.6319    1.3165 H   0  0  0  0  0  0  0  0  0  0  0  0
  -10.2680    3.1721   -0.1794 H   0  0  0  0  0  0  0  0  0  0  0  0
  -10.1197    1.9889    1.1837 H   0  0  0  0  0  0  0  0  0  0  0  0
   -6.9934    3.2532    1.3696 H   0  0  0  0  0  0  0  0  0  0  0  0
   -4.9515    2.3355    0.3457 H   0  0  0  0  0  0  0  0  0  0  0  0
   -0.1026   -4.3122    2.1791 H   0  0  0  0  0  0  0  0  0  0  0  0
    1.7142   -5.4144    0.9573 H   0  0  0  0  0  0  0  0  0  0  0  0
    2.0399   -5.9188   -2.1185 H   0  0  0  0  0  0  0  0  0  0  0  0
    2.3564   -7.0857   -0.7707 H   0  0  0  0  0  0  0  0  0  0  0  0
    1.2047   -7.5241   -2.0828 H   0  0  0  0  0  0  0  0  0  0  0  0
   -1.0483   -6.4978   -2.1749 H   0  0  0  0  0  0  0  0  0  0  0  0
   -2.8576   -5.3802   -0.9618 H   0  0  0  0  0  0  0  0  0  0  0  0
   -2.2670   -6.1929    3.0988 H   0  0  0  0  0  0  0  0  0  0  0  0
   -2.1985   -6.1201    5.5568 H   0  0  0  0  0  0  0  0  0  0  0  0
   -1.5328   -3.7518    7.4647 H   0  0  0  0  0  0  0  0  0  0  0  0
   -3.2373   -3.1559    7.5913 H   0  0  0  0  0  0  0  0  0  0  0  0
   -2.9013   -4.9244    7.6339 H   0  0  0  0  0  0  0  0  0  0  0  0
   -3.1625   -1.9178    5.4577 H   0  0  0  0  0  0  0  0  0  0  0  0
   -3.2144   -1.9831    3.0094 H   0  0  0  0  0  0  0  0  0  0  0  0
   -5.8362   -4.5275    2.3015 H   0  0  0  0  0  0  0  0  0  0  0  0
   -4.7135   -9.7984    2.2423 H   0  0  0  0  0  0  0  0  0  0  0  0
   -4.1521   -8.2528   -2.5907 H   0  0  0  0  0  0  0  0  0  0  0  0
   -4.1315  -11.6963   -2.2850 H   0  0  0  0  0  0  0  0  0  0  0  0
   -1.5701  -10.7190   -2.7049 H   0  0  0  0  0  0  0  0  0  0  0  0
   -1.2950  -13.3632   -2.6716 H   0  0  0  0  0  0  0  0  0  0  0  0
   -1.5448  -14.1835   -0.2032 H   0  0  0  0  0  0  0  0  0  0  0  0
   -1.9740  -12.0612    1.3425 H   0  0  0  0  0  0  0  0  0  0  0  0
   -1.5331   -9.8815   -0.1563 H   0  0  0  0  0  0  0  0  0  0  0  0
   -0.2349  -11.1213   -0.4374 H   0  0  0  0  0  0  0  0  0  0  0  0
   -4.3651  -12.4403   -0.0222 H   0  0  0  0  0  0  0  0  0  0  0  0
  1  2  2  3
  2  3  1  0
  3  4  2  0
  3  5  1  0
  5  6  2  0
  6  7  1  0
  7  8  2  0
  8  9  1  0
  9 10  2  0
 10 11  1  0
 11 12  2  3
 12 13  1  0
 13 14  3  0
 12 15  1  0
 15 16  3  0
  8 17  1  0
 17 18  1  0
 18 19  1  0
 19 20  2  0
 20 21  1  0
 21 22  1  0
 21 23  1  0
  1 24  1  0
 24 25  1  0
 25 26  1  0
 26 27  2  0
 27 28  1  0
 28 29  2  0
 28 30  1  0
 30 31  2  0
 31 32  1  0
 32 33  1  0
 31 34  1  0
 34 35  1  0
 35 36  1  0
 36 37  1  0
 35 38  2  0
 38 39  1  0
 39 40  2  0
 39 41  1  0
 26 42  1  0
 42 43  2  0
 43 44  1  0
 44 45  1  0
 45 46  2  0
 46 47  1  0
 47 48  2  0
 48 49  1  0
 49 50  1  0
 48 51  1  0
 51 52  2  0
 44 53  1  0
 53 54  2  0
 54 55  1  0
 55 56  2  0
 56 57  1  0
 57 58  1  0
 56 59  1  0
 59 60  2  0
 43 61  1  0
 61 62  1  0
 62 63  1  0
 63 64  2  0
 64 65  1  0
 65 66  1  0
 66 67  2  0
 67 68  1  0
 68 69  2  0
 69 70  1  0
 70 71  1  0
 69 72  1  0
 72 73  2  0
 65 74  1  0
 74 75  2  0
 75 76  1  0
 76 77  2  0
 77 78  1  0
 78 79  1  0
 77 80  1  0
 80 81  2  0
 64 82  1  0
 82 83  1  0
 63 84  1  0
 84 85  2  0
 85 86  1  0
 86 87  1  0
 87 88  2  0
 88 89  1  0
 89 90  2  0
 90 91  1  0
 90 92  1  0
 92 93  2  0
 86 94  1  0
 94 95  2  0
 95 96  1  0
 96 97  2  0
 97 98  1  0
 97 99  1  0
 99100  2  0
 85101  1  0
101102  1  0
102103  1  0
103104  2  0
104105  1  0
105106  1  0
106107  2  0
107108  1  0
108109  2  0
109110  1  0
109111  1  0
111112  2  0
105113  1  0
113114  2  0
114115  1  0
115116  2  0
116117  1  0
116118  1  0
118119  2  0
104120  1  0
120121  1  0
103122  1  0
122123  2  3
123124  1  0
124125  2  0
124126  1  0
126127  2  0
127128  1  0
128129  2  0
129130  1  0
130131  2  0
131132  1  0
132133  2  3
133134  1  0
134135  3  0
133136  1  0
136137  3  0
129138  1  0
138139  1  0
139140  1  0
140141  2  0
141142  1  0
142143  1  0
142144  1  0
 11  2  1  0
 23 17  1  0
 41 24  2  0
 83 42  1  0
121 84  1  0
132123  1  0
144138  1  0
 10  5  1  0
 22 18  1  0
 41 27  1  0
 52 45  1  0
 60 53  1  0
 82 61  2  0
 93 87  1  0
100 94  1  0
120101  2  0
131126  1  0
143139  1  0
 23  7  1  0
 38 30  1  0
 73 66  1  0
 81 74  1  0
112106  1  0
119113  1  0
144128  1  0
  1145  1  0
  6146  1  0
  9147  1  0
 17148  1  0
 18149  1  0
 19150  1  0
 20151  1  0
 21152  1  0
 22153  1  0
 22154  1  0
 23155  1  0
 32156  1  0
 32157  1  0
 33158  1  0
 33159  1  0
 33160  1  0
 36161  1  0
 36162  1  0
 37163  1  0
 37164  1  0
 37165  1  0
 46166  1  0
 47167  1  0
 50168  1  0
 50169  1  0
 50170  1  0
 51171  1  0
 52172  1  0
 54173  1  0
 55174  1  0
 58175  1  0
 58176  1  0
 58177  1  0
 59178  1  0
 60179  1  0
 67180  1  0
 68181  1  0
 71182  1  0
 71183  1  0
 71184  1  0
 72185  1  0
 73186  1  0
 75187  1  0
 76188  1  0
 79189  1  0
 79190  1  0
 79191  1  0
 80192  1  0
 81193  1  0
 88194  1  0
 89195  1  0
 91196  1  0
 91197  1  0
 91198  1  0
 92199  1  0
 93200  1  0
 95201  1  0
 96202  1  0
 98203  1  0
 98204  1  0
 98205  1  0
 99206  1  0
100207  1  0
107208  1  0
108209  1  0
110210  1  0
110211  1  0
110212  1  0
111213  1  0
112214  1  0
114215  1  0
115216  1  0
117217  1  0
117218  1  0
117219  1  0
118220  1  0
119221  1  0
122222  1  0
127223  1  0
130224  1  0
138225  1  0
139226  1  0
140227  1  0
141228  1  0
142229  1  0
143230  1  0
143231  1  0
144232  1  0
M  END

