
     RDKit          3D

252278  0  0  0  0  0  0  0  0999 V2000
   -5.5679   -6.2847   -3.6947 C   0  0  0  0  0  0  0  0  0  0  0  0
   -5.0116   -5.4771   -4.6185 C   0  0  0  0  0  0  0  0  0  0  0  0
   -3.7571   -4.7296   -4.4510 C   0  0  0  0  0  0  0  0  0  0  0  0
   -2.8401   -4.9813   -3.6214 O   0  0  0  0  0  0  0  0  0  0  0  0
   -3.7202   -3.6560   -5.4168 C   0  0  0  0  0  0  0  0  0  0  0  0
   -2.7448   -2.6379   -5.5254 C   0  0  0  0  0  0  0  0  0  0  0  0
   -3.0356   -1.6863   -6.4829 C   0  0  0  0  0  0  0  0  0  0  0  0
   -4.2236   -1.7196   -7.2818 C   0  0  0  0  0  0  0  0  0  0  0  0
   -5.1825   -2.7154   -7.1824 C   0  0  0  0  0  0  0  0  0  0  0  0
   -4.8814   -3.7298   -6.2281 C   0  0  0  0  0  0  0  0  0  0  0  0
   -5.6578   -4.9486   -5.8578 C   0  0  0  0  0  0  0  0  0  0  0  0
   -6.5847   -5.5823   -6.6186 C   0  0  0  0  0  0  0  0  0  0  0  0
   -7.0656   -6.9014   -6.3021 C   0  0  0  0  0  0  0  0  0  0  0  0
   -7.4536   -7.9651   -6.0572 N   0  0  0  0  0  0  0  0  0  0  0  0
   -7.0441   -5.0515   -7.8744 C   0  0  0  0  0  0  0  0  0  0  0  0
   -7.4204   -4.6412   -8.8887 N   0  0  0  0  0  0  0  0  0  0  0  0
   -3.8190   -0.4453   -7.9656 C   0  0  0  0  0  0  0  0  0  0  0  0
   -3.2828   -0.5382   -9.4270 C   0  0  0  0  0  0  0  0  0  0  0  0
   -2.6075   -1.8712   -9.6432 C   0  0  0  0  0  0  0  0  0  0  0  0
   -1.4942   -1.8615   -8.9066 C   0  0  0  0  0  0  0  0  0  0  0  0
   -1.4505   -0.5176   -8.2134 C   0  0  0  0  0  0  0  0  0  0  0  0
   -2.0486    0.3383   -9.3160 C   0  0  0  0  0  0  0  0  0  0  0  0
   -2.5925   -0.4214   -7.1550 C   0  0  0  0  0  0  0  0  0  0  0  0
   -4.9696   -6.4543   -2.3669 C   0  0  0  0  0  0  0  0  0  0  0  0
   -4.9619   -5.2375   -1.2029 S   0  0  0  0  0  0  0  0  0  0  0  0
   -3.8159   -5.9903   -0.2427 C   0  0  0  0  0  0  0  0  0  0  0  0
   -3.1743   -5.4646    0.9374 C   0  0  0  0  0  0  0  0  0  0  0  0
   -2.1792   -6.1824    1.5395 C   0  0  0  0  0  0  0  0  0  0  0  0
   -1.9167   -7.4977    1.1241 O   0  0  0  0  0  0  0  0  0  0  0  0
   -2.1659   -7.9374   -0.2373 C   0  0  0  0  0  0  0  0  0  0  0  0
   -0.8861   -7.6403   -1.0496 C   0  0  0  0  0  0  0  0  0  0  0  0
   -0.8840   -7.5427   -2.4594 C   0  0  0  0  0  0  0  0  0  0  0  0
    0.3033   -7.3253   -3.1639 C   0  0  0  0  0  0  0  0  0  0  0  0
    1.5218   -7.2066   -2.4858 C   0  0  0  0  0  0  0  0  0  0  0  0
    2.8040   -6.9939   -3.2465 C   0  0  0  0  0  0  0  0  0  0  0  0
    3.5845   -8.2995   -3.3764 C   0  0  0  0  0  0  0  0  0  0  0  0
    1.5429   -7.3407   -1.0934 C   0  0  0  0  0  0  0  0  0  0  0  0
    0.3602   -7.5689   -0.3869 C   0  0  0  0  0  0  0  0  0  0  0  0
   -2.4953   -9.4280   -0.1790 C   0  0  0  0  0  0  0  0  0  0  0  0
   -3.6206   -9.8402    0.5607 C   0  0  0  0  0  0  0  0  0  0  0  0
   -3.9717  -11.1912    0.6429 C   0  0  0  0  0  0  0  0  0  0  0  0
   -3.1908  -12.1653    0.0052 C   0  0  0  0  0  0  0  0  0  0  0  0
   -3.5957  -13.6154    0.0538 C   0  0  0  0  0  0  0  0  0  0  0  0
   -4.5810  -13.9386   -1.0647 C   0  0  0  0  0  0  0  0  0  0  0  0
   -2.0620  -11.7698   -0.7247 C   0  0  0  0  0  0  0  0  0  0  0  0
   -1.7128  -10.4184   -0.8141 C   0  0  0  0  0  0  0  0  0  0  0  0
   -3.3805   -7.1724   -0.8158 C   0  0  0  0  0  0  0  0  0  0  0  0
   -4.0805   -7.4659   -2.0022 C   0  0  0  0  0  0  0  0  0  0  0  0
   -1.4459   -5.4547    2.4858 C   0  0  0  0  0  0  0  0  0  0  0  0
   -1.8696   -4.1184    2.5782 C   0  0  0  0  0  0  0  0  0  0  0  0
   -3.1715   -3.9074    1.5239 S   0  0  0  0  0  0  0  0  0  0  0  0
   -1.0807   -3.0123    3.1637 C   0  0  0  0  0  0  0  0  0  0  0  0
   -1.4654   -1.6587    3.2938 C   0  0  0  0  0  0  0  0  0  0  0  0
   -2.7472   -1.1114    2.9349 N   0  0  0  0  0  0  0  0  0  0  0  0
   -3.6494   -0.7733    4.0033 C   0  0  0  0  0  0  0  0  0  0  0  0
   -3.9529   -1.7186    4.9970 C   0  0  0  0  0  0  0  0  0  0  0  0
   -4.8495   -1.3998    6.0213 C   0  0  0  0  0  0  0  0  0  0  0  0
   -5.4432   -0.1324    6.0690 C   0  0  0  0  0  0  0  0  0  0  0  0
   -6.6263    0.2580    7.3622 S   0  0  0  0  0  0  0  0  0  0  0  0
   -5.3561    0.8326    8.5296 C   0  0  0  0  0  0  0  0  0  0  0  0
   -5.1331    0.8184    5.0904 C   0  0  0  0  0  0  0  0  0  0  0  0
   -4.2383    0.5021    4.0632 C   0  0  0  0  0  0  0  0  0  0  0  0
   -3.0760   -0.8224    1.5491 C   0  0  0  0  0  0  0  0  0  0  0  0
   -4.4229   -0.8104    1.1298 C   0  0  0  0  0  0  0  0  0  0  0  0
   -4.7471   -0.7387   -0.2266 C   0  0  0  0  0  0  0  0  0  0  0  0
   -3.7375   -0.6655   -1.1897 C   0  0  0  0  0  0  0  0  0  0  0  0
   -4.1586   -0.7048   -2.9343 S   0  0  0  0  0  0  0  0  0  0  0  0
   -4.4023    1.0920   -3.0468 C   0  0  0  0  0  0  0  0  0  0  0  0
   -2.3985   -0.6200   -0.7883 C   0  0  0  0  0  0  0  0  0  0  0  0
   -2.0658   -0.7002    0.5693 C   0  0  0  0  0  0  0  0  0  0  0  0
   -0.3759   -0.8422    3.5920 C   0  0  0  0  0  0  0  0  0  0  0  0
   -0.1425    0.7936    3.3546 S   0  0  0  0  0  0  0  0  0  0  0  0
    1.5560    0.7100    3.3222 C   0  0  0  0  0  0  0  0  0  0  0  0
    1.9424   -0.6359    3.4903 C   0  0  0  0  0  0  0  0  0  0  0  0
    3.2673   -1.1518    3.2617 N   0  0  0  0  0  0  0  0  0  0  0  0
    3.8399   -2.0867    4.2103 C   0  0  0  0  0  0  0  0  0  0  0  0
    3.5237   -1.9955    5.5817 C   0  0  0  0  0  0  0  0  0  0  0  0
    4.0810   -2.8839    6.5020 C   0  0  0  0  0  0  0  0  0  0  0  0
    4.9569   -3.8858    6.0708 C   0  0  0  0  0  0  0  0  0  0  0  0
    5.6599   -5.0293    7.2623 S   0  0  0  0  0  0  0  0  0  0  0  0
    7.1107   -3.9836    7.5964 C   0  0  0  0  0  0  0  0  0  0  0  0
    5.2654   -4.0001    4.7101 C   0  0  0  0  0  0  0  0  0  0  0  0
    4.7093   -3.1112    3.7857 C   0  0  0  0  0  0  0  0  0  0  0  0
    3.9404   -0.8364    2.0295 C   0  0  0  0  0  0  0  0  0  0  0  0
    3.2495   -0.9034    0.8051 C   0  0  0  0  0  0  0  0  0  0  0  0
    3.9016   -0.5991   -0.3901 C   0  0  0  0  0  0  0  0  0  0  0  0
    5.2582   -0.2615   -0.3824 C   0  0  0  0  0  0  0  0  0  0  0  0
    6.1098    0.0511   -1.9273 S   0  0  0  0  0  0  0  0  0  0  0  0
    6.3749   -1.7167   -2.2728 C   0  0  0  0  0  0  0  0  0  0  0  0
    5.9522   -0.1867    0.8319 C   0  0  0  0  0  0  0  0  0  0  0  0
    5.2964   -0.4697    2.0315 C   0  0  0  0  0  0  0  0  0  0  0  0
    0.8297   -1.4665    3.6561 C   0  0  0  0  0  0  0  0  0  0  0  0
    0.6085   -3.1082    3.3862 S   0  0  0  0  0  0  0  0  0  0  0  0
    2.3274    1.7538    2.6397 C   0  0  0  0  0  0  0  0  0  0  0  0
    3.0233    2.8107    3.2514 C   0  0  0  0  0  0  0  0  0  0  0  0
    3.3080    2.9006    4.6530 N   0  0  0  0  0  0  0  0  0  0  0  0
    4.6585    2.6362    5.0574 C   0  0  0  0  0  0  0  0  0  0  0  0
    5.5719    3.6848    5.2210 C   0  0  0  0  0  0  0  0  0  0  0  0
    6.8971    3.4105    5.5833 C   0  0  0  0  0  0  0  0  0  0  0  0
    7.3109    2.0848    5.8007 C   0  0  0  0  0  0  0  0  0  0  0  0
    8.7355    1.7761    6.1486 C   0  0  0  0  0  0  0  0  0  0  0  0
    6.3935    1.0385    5.6230 C   0  0  0  0  0  0  0  0  0  0  0  0
    5.0757    1.3184    5.2559 C   0  0  0  0  0  0  0  0  0  0  0  0
    2.2936    3.2978    5.6094 C   0  0  0  0  0  0  0  0  0  0  0  0
    1.0374    3.7694    5.1803 C   0  0  0  0  0  0  0  0  0  0  0  0
    0.0629    4.1521    6.1070 C   0  0  0  0  0  0  0  0  0  0  0  0
    0.3198    4.0579    7.4810 C   0  0  0  0  0  0  0  0  0  0  0  0
   -0.7068    4.5060    8.4809 C   0  0  0  0  0  0  0  0  0  0  0  0
    1.5681    3.6014    7.9197 C   0  0  0  0  0  0  0  0  0  0  0  0
    2.5449    3.2172    6.9947 C   0  0  0  0  0  0  0  0  0  0  0  0
    3.2229    3.8692    2.3645 C   0  0  0  0  0  0  0  0  0  0  0  0
    3.5727    5.4920    2.5661 S   0  0  0  0  0  0  0  0  0  0  0  0
    3.0819    5.9776    1.0029 C   0  0  0  0  0  0  0  0  0  0  0  0
    2.6242    4.8177    0.3237 C   0  0  0  0  0  0  0  0  0  0  0  0
    2.0618    4.7568   -1.0021 N   0  0  0  0  0  0  0  0  0  0  0  0
    0.6210    4.6737   -1.1446 C   0  0  0  0  0  0  0  0  0  0  0  0
    0.0355    3.8018   -2.0840 C   0  0  0  0  0  0  0  0  0  0  0  0
   -1.3481    3.7742   -2.2674 C   0  0  0  0  0  0  0  0  0  0  0  0
   -2.1809    4.6002   -1.5018 C   0  0  0  0  0  0  0  0  0  0  0  0
   -3.6687    4.5538   -1.6883 C   0  0  0  0  0  0  0  0  0  0  0  0
   -1.6159    5.4126   -0.5106 C   0  0  0  0  0  0  0  0  0  0  0  0
   -0.2288    5.4424   -0.3277 C   0  0  0  0  0  0  0  0  0  0  0  0
    2.9458    4.4481   -2.1143 C   0  0  0  0  0  0  0  0  0  0  0  0
    2.6227    4.8643   -3.4214 C   0  0  0  0  0  0  0  0  0  0  0  0
    3.5000    4.6293   -4.4845 C   0  0  0  0  0  0  0  0  0  0  0  0
    4.7181    3.9707   -4.2653 C   0  0  0  0  0  0  0  0  0  0  0  0
    5.6830    3.7310   -5.3884 C   0  0  0  0  0  0  0  0  0  0  0  0
    5.0453    3.5460   -2.9730 C   0  0  0  0  0  0  0  0  0  0  0  0
    4.1725    3.7820   -1.9086 C   0  0  0  0  0  0  0  0  0  0  0  0
    2.7137    3.6857    1.1261 C   0  0  0  0  0  0  0  0  0  0  0  0
    1.9720    2.1941    1.0327 S   0  0  0  0  0  0  0  0  0  0  0  0
    2.6566    7.3797    0.7800 C   0  0  0  0  0  0  0  0  0  0  0  0
    2.1413    7.8437   -0.3659 C   0  0  0  0  0  0  0  0  0  0  0  0
    2.7514    7.6736   -1.6811 C   0  0  0  0  0  0  0  0  0  0  0  0
    3.8989    7.2034   -1.9044 O   0  0  0  0  0  0  0  0  0  0  0  0
    1.8972    8.2927   -2.6726 C   0  0  0  0  0  0  0  0  0  0  0  0
    2.0102    8.1961   -4.0801 C   0  0  0  0  0  0  0  0  0  0  0  0
    0.9036    8.6621   -4.7660 C   0  0  0  0  0  0  0  0  0  0  0  0
   -0.2456    9.2075   -4.1083 C   0  0  0  0  0  0  0  0  0  0  0  0
   -0.3456    9.3443   -2.7368 C   0  0  0  0  0  0  0  0  0  0  0  0
    0.7915    8.8940   -2.0110 C   0  0  0  0  0  0  0  0  0  0  0  0
    0.9463    8.7260   -0.5394 C   0  0  0  0  0  0  0  0  0  0  0  0
    0.0950    9.1786    0.4195 C   0  0  0  0  0  0  0  0  0  0  0  0
   -0.9112   10.1775    0.1546 C   0  0  0  0  0  0  0  0  0  0  0  0
   -1.7194   10.9835   -0.0425 N   0  0  0  0  0  0  0  0  0  0  0  0
    0.1228    8.7014    1.7809 C   0  0  0  0  0  0  0  0  0  0  0  0
    0.1308    8.3124    2.8711 N   0  0  0  0  0  0  0  0  0  0  0  0
   -0.9458    9.3695   -5.4215 C   0  0  0  0  0  0  0  0  0  0  0  0
   -1.0543   10.8219   -5.9696 C   0  0  0  0  0  0  0  0  0  0  0  0
   -1.4282   10.6838   -7.4260 C   0  0  0  0  0  0  0  0  0  0  0  0
   -0.3517   10.1899   -8.0487 C   0  0  0  0  0  0  0  0  0  0  0  0
    0.7134   10.0121   -6.9919 C   0  0  0  0  0  0  0  0  0  0  0  0
    0.3998   11.2314   -6.1391 C   0  0  0  0  0  0  0  0  0  0  0  0
    0.2358    8.8252   -6.1003 C   0  0  0  0  0  0  0  0  0  0  0  0
   -6.5592   -6.6814   -3.8289 H   0  0  0  0  0  0  0  0  0  0  0  0
   -1.8664   -2.5833   -4.8962 H   0  0  0  0  0  0  0  0  0  0  0  0
   -6.0766   -2.6789   -7.7777 H   0  0  0  0  0  0  0  0  0  0  0  0
   -4.4979    0.4150   -7.7626 H   0  0  0  0  0  0  0  0  0  0  0  0
   -4.0047   -0.2455  -10.2171 H   0  0  0  0  0  0  0  0  0  0  0  0
   -2.8999   -2.6489  -10.3390 H   0  0  0  0  0  0  0  0  0  0  0  0
   -0.7332   -2.6362   -8.8996 H   0  0  0  0  0  0  0  0  0  0  0  0
   -0.4438   -0.2124   -7.8556 H   0  0  0  0  0  0  0  0  0  0  0  0
   -2.2730    1.3833   -8.9962 H   0  0  0  0  0  0  0  0  0  0  0  0
   -1.4310    0.3551  -10.2469 H   0  0  0  0  0  0  0  0  0  0  0  0
   -2.5216    0.4542   -6.4667 H   0  0  0  0  0  0  0  0  0  0  0  0
   -1.7816   -7.6526   -3.0407 H   0  0  0  0  0  0  0  0  0  0  0  0
    0.2705   -7.2528   -4.2449 H   0  0  0  0  0  0  0  0  0  0  0  0
    2.5870   -6.5956   -4.2613 H   0  0  0  0  0  0  0  0  0  0  0  0
    3.4291   -6.2422   -2.7200 H   0  0  0  0  0  0  0  0  0  0  0  0
    2.9683   -9.0702   -3.8854 H   0  0  0  0  0  0  0  0  0  0  0  0
    3.8801   -8.6731   -2.3740 H   0  0  0  0  0  0  0  0  0  0  0  0
    4.5039   -8.1236   -3.9740 H   0  0  0  0  0  0  0  0  0  0  0  0
    2.4782   -7.2838   -0.5501 H   0  0  0  0  0  0  0  0  0  0  0  0
    0.4307   -7.6996    0.6856 H   0  0  0  0  0  0  0  0  0  0  0  0
   -4.2375   -9.1110    1.0708 H   0  0  0  0  0  0  0  0  0  0  0  0
   -4.8553  -11.4781    1.2012 H   0  0  0  0  0  0  0  0  0  0  0  0
   -2.7000  -14.2660   -0.0472 H   0  0  0  0  0  0  0  0  0  0  0  0
   -4.0639  -13.8442    1.0343 H   0  0  0  0  0  0  0  0  0  0  0  0
   -5.5141  -13.3510   -0.9338 H   0  0  0  0  0  0  0  0  0  0  0  0
   -4.1341  -13.7054   -2.0527 H   0  0  0  0  0  0  0  0  0  0  0  0
   -4.8367  -15.0182   -1.0344 H   0  0  0  0  0  0  0  0  0  0  0  0
   -1.4440  -12.5102   -1.2233 H   0  0  0  0  0  0  0  0  0  0  0  0
   -0.8258  -10.1660   -1.3800 H   0  0  0  0  0  0  0  0  0  0  0  0
   -3.8842   -8.3312   -2.6261 H   0  0  0  0  0  0  0  0  0  0  0  0
   -0.5735   -5.8495    2.9908 H   0  0  0  0  0  0  0  0  0  0  0  0
   -3.5151   -2.7071    4.9647 H   0  0  0  0  0  0  0  0  0  0  0  0
   -5.0858   -2.1393    6.7761 H   0  0  0  0  0  0  0  0  0  0  0  0
   -4.8053    1.6952    8.0987 H   0  0  0  0  0  0  0  0  0  0  0  0
   -5.8500    1.1515    9.4696 H   0  0  0  0  0  0  0  0  0  0  0  0
   -4.6466    0.0096    8.7568 H   0  0  0  0  0  0  0  0  0  0  0  0
   -5.5870    1.8005    5.1218 H   0  0  0  0  0  0  0  0  0  0  0  0
   -4.0059    1.2472    3.3102 H   0  0  0  0  0  0  0  0  0  0  0  0
   -5.2266   -0.9305    1.8459 H   0  0  0  0  0  0  0  0  0  0  0  0
   -5.7848   -0.7751   -0.5305 H   0  0  0  0  0  0  0  0  0  0  0  0
   -5.2812    1.3910   -2.4385 H   0  0  0  0  0  0  0  0  0  0  0  0
   -4.5795    1.3738   -4.1052 H   0  0  0  0  0  0  0  0  0  0  0  0
   -3.5006    1.6177   -2.6769 H   0  0  0  0  0  0  0  0  0  0  0  0
   -1.6112   -0.5552   -1.5272 H   0  0  0  0  0  0  0  0  0  0  0  0
   -1.0199   -0.7080    0.8428 H   0  0  0  0  0  0  0  0  0  0  0  0
    2.8569   -1.2211    5.9448 H   0  0  0  0  0  0  0  0  0  0  0  0
    3.8391   -2.7909    7.5536 H   0  0  0  0  0  0  0  0  0  0  0  0
    7.7784   -3.9758    6.7102 H   0  0  0  0  0  0  0  0  0  0  0  0
    7.6658   -4.3960    8.4630 H   0  0  0  0  0  0  0  0  0  0  0  0
    6.7982   -2.9454    7.8355 H   0  0  0  0  0  0  0  0  0  0  0  0
    5.9355   -4.7796    4.3696 H   0  0  0  0  0  0  0  0  0  0  0  0
    4.9484   -3.2313    2.7395 H   0  0  0  0  0  0  0  0  0  0  0  0
    2.2050   -1.1905    0.7797 H   0  0  0  0  0  0  0  0  0  0  0  0
    3.3586   -0.6500   -1.3246 H   0  0  0  0  0  0  0  0  0  0  0  0
    6.9423   -1.8188   -3.2206 H   0  0  0  0  0  0  0  0  0  0  0  0
    5.3976   -2.2299   -2.3826 H   0  0  0  0  0  0  0  0  0  0  0  0
    6.9532   -2.1869   -1.4494 H   0  0  0  0  0  0  0  0  0  0  0  0
    7.0012    0.0836    0.8432 H   0  0  0  0  0  0  0  0  0  0  0  0
    5.8450   -0.4123    2.9630 H   0  0  0  0  0  0  0  0  0  0  0  0
    5.2611    4.7084    5.0608 H   0  0  0  0  0  0  0  0  0  0  0  0
    7.5986    4.2296    5.6886 H   0  0  0  0  0  0  0  0  0  0  0  0
    9.2211    2.6475    6.6376 H   0  0  0  0  0  0  0  0  0  0  0  0
    9.2957    1.5186    5.2256 H   0  0  0  0  0  0  0  0  0  0  0  0
    8.7836    0.9177    6.8498 H   0  0  0  0  0  0  0  0  0  0  0  0
    6.6999    0.0086    5.7634 H   0  0  0  0  0  0  0  0  0  0  0  0
    4.3728    0.5160    5.1285 H   0  0  0  0  0  0  0  0  0  0  0  0
    0.8039    3.8596    4.1288 H   0  0  0  0  0  0  0  0  0  0  0  0
   -0.8899    4.5225    5.7498 H   0  0  0  0  0  0  0  0  0  0  0  0
   -0.4540    5.5270    8.8352 H   0  0  0  0  0  0  0  0  0  0  0  0
   -0.7269    3.8153    9.3497 H   0  0  0  0  0  0  0  0  0  0  0  0
   -1.7227    4.5244    8.0334 H   0  0  0  0  0  0  0  0  0  0  0  0
    1.7875    3.5409    8.9777 H   0  0  0  0  0  0  0  0  0  0  0  0
    3.4945    2.8696    7.3743 H   0  0  0  0  0  0  0  0  0  0  0  0
    0.6477    3.1371   -2.6823 H   0  0  0  0  0  0  0  0  0  0  0  0
   -1.7645    3.1139   -3.0156 H   0  0  0  0  0  0  0  0  0  0  0  0
   -3.9197    4.3706   -2.7565 H   0  0  0  0  0  0  0  0  0  0  0  0
   -4.1351    5.5153   -1.3853 H   0  0  0  0  0  0  0  0  0  0  0  0
   -4.0926    3.7340   -1.0702 H   0  0  0  0  0  0  0  0  0  0  0  0
   -2.2454    6.0311    0.1173 H   0  0  0  0  0  0  0  0  0  0  0  0
    0.1756    6.0722    0.4494 H   0  0  0  0  0  0  0  0  0  0  0  0
    1.6995    5.3948   -3.6156 H   0  0  0  0  0  0  0  0  0  0  0  0
    3.2308    4.9703   -5.4758 H   0  0  0  0  0  0  0  0  0  0  0  0
    5.8804    2.6438   -5.4849 H   0  0  0  0  0  0  0  0  0  0  0  0
    5.2850    4.1017   -6.3574 H   0  0  0  0  0  0  0  0  0  0  0  0
    6.6400    4.2534   -5.1803 H   0  0  0  0  0  0  0  0  0  0  0  0
    5.9846    3.0410   -2.7853 H   0  0  0  0  0  0  0  0  0  0  0  0
    4.4665    3.4383   -0.9259 H   0  0  0  0  0  0  0  0  0  0  0  0
    2.4787    7.9317    1.6892 H   0  0  0  0  0  0  0  0  0  0  0  0
    2.8387    7.7132   -4.5783 H   0  0  0  0  0  0  0  0  0  0  0  0
   -1.2616    9.6967   -2.2959 H   0  0  0  0  0  0  0  0  0  0  0  0
   -1.8641    8.7454   -5.5164 H   0  0  0  0  0  0  0  0  0  0  0  0
   -1.6917   11.5143   -5.3784 H   0  0  0  0  0  0  0  0  0  0  0  0
   -2.3537   10.9938   -7.8994 H   0  0  0  0  0  0  0  0  0  0  0  0
   -0.2512   10.0361   -9.1178 H   0  0  0  0  0  0  0  0  0  0  0  0
    1.7523    9.9384   -7.3739 H   0  0  0  0  0  0  0  0  0  0  0  0
    0.9729   11.2803   -5.1873 H   0  0  0  0  0  0  0  0  0  0  0  0
    0.5279   12.1966   -6.6870 H   0  0  0  0  0  0  0  0  0  0  0  0
    0.0587    7.8620   -6.6288 H   0  0  0  0  0  0  0  0  0  0  0  0
  1  2  2  3
  2  3  1  0
  3  4  2  0
  3  5  1  0
  5  6  2  0
  6  7  1  0
  7  8  2  0
  8  9  1  0
  9 10  2  0
 10 11  1  0
 11 12  2  3
 12 13  1  0
 13 14  3  0
 12 15  1  0
 15 16  3  0
  8 17  1  0
 17 18  1  0
 18 19  1  0
 19 20  2  0
 20 21  1  0
 21 22  1  0
 21 23  1  0
  1 24  1  0
 24 25  1  0
 25 26  1  0
 26 27  1  0
 27 28  2  0
 28 29  1  0
 29 30  1  0
 30 31  1  0
 31 32  2  0
 32 33  1  0
 33 34  2  0
 34 35  1  0
 35 36  1  0
 34 37  1  0
 37 38  2  0
 30 39  1  0
 39 40  2  0
 40 41  1  0
 41 42  2  0
 42 43  1  0
 43 44  1  0
 42 45  1  0
 45 46  2  0
 30 47  1  0
 47 48  1  0
 28 49  1  0
 49 50  2  0
 50 51  1  0
 50 52  1  0
 52 53  2  0
 53 54  1  0
 54 55  1  0
 55 56  2  0
 56 57  1  0
 57 58  2  0
 58 59  1  0
 59 60  1  0
 58 61  1  0
 61 62  2  0
 54 63  1  0
 63 64  2  0
 64 65  1  0
 65 66  2  0
 66 67  1  0
 67 68  1  0
 66 69  1  0
 69 70  2  0
 53 71  1  0
 71 72  1  0
 72 73  1  0
 73 74  2  0
 74 75  1  0
 75 76  1  0
 76 77  2  0
 77 78  1  0
 78 79  2  0
 79 80  1  0
 80 81  1  0
 79 82  1  0
 82 83  2  0
 75 84  1  0
 84 85  2  0
 85 86  1  0
 86 87  2  0
 87 88  1  0
 88 89  1  0
 87 90  1  0
 90 91  2  0
 74 92  1  0
 92 93  1  0
 73 94  1  0
 94 95  2  0
 95 96  1  0
 96 97  1  0
 97 98  2  0
 98 99  1  0
 99100  2  0
100101  1  0
100102  1  0
102103  2  0
 96104  1  0
104105  2  0
105106  1  0
106107  2  0
107108  1  0
107109  1  0
109110  2  0
 95111  1  0
111112  1  0
112113  1  0
113114  2  0
114115  1  0
115116  1  0
116117  2  0
117118  1  0
118119  2  0
119120  1  0
119121  1  0
121122  2  0
115123  1  0
123124  2  0
124125  1  0
125126  2  0
126127  1  0
126128  1  0
128129  2  0
114130  1  0
130131  1  0
113132  1  0
132133  2  3
133134  1  0
134135  2  0
134136  1  0
136137  2  0
137138  1  0
138139  2  0
139140  1  0
140141  2  0
141142  1  0
142143  2  3
143144  1  0
144145  3  0
143146  1  0
146147  3  0
139148  1  0
148149  1  0
149150  1  0
150151  2  0
151152  1  0
152153  1  0
152154  1  0
 11  2  1  0
 23 17  1  0
 48 24  2  0
 93 52  1  0
131 94  1  0
142133  1  0
154148  1  0
 10  5  1  0
 22 18  1  0
 47 26  2  0
 62 55  1  0
 70 63  1  0
 92 71  2  0
103 97  1  0
110104  1  0
130111  2  0
141136  1  0
153149  1  0
 23  7  1  0
 51 27  1  0
 83 76  1  0
 91 84  1  0
122116  1  0
129123  1  0
154138  1  0
 38 31  1  0
 46 39  1  0
  1155  1  0
  6156  1  0
  9157  1  0
 17158  1  0
 18159  1  0
 19160  1  0
 20161  1  0
 21162  1  0
 22163  1  0
 22164  1  0
 23165  1  0
 32166  1  0
 33167  1  0
 35168  1  0
 35169  1  0
 36170  1  0
 36171  1  0
 36172  1  0
 37173  1  0
 38174  1  0
 40175  1  0
 41176  1  0
 43177  1  0
 43178  1  0
 44179  1  0
 44180  1  0
 44181  1  0
 45182  1  0
 46183  1  0
 48184  1  0
 49185  1  0
 56186  1  0
 57187  1  0
 60188  1  0
 60189  1  0
 60190  1  0
 61191  1  0
 62192  1  0
 64193  1  0
 65194  1  0
 68195  1  0
 68196  1  0
 68197  1  0
 69198  1  0
 70199  1  0
 77200  1  0
 78201  1  0
 81202  1  0
 81203  1  0
 81204  1  0
 82205  1  0
 83206  1  0
 85207  1  0
 86208  1  0
 89209  1  0
 89210  1  0
 89211  1  0
 90212  1  0
 91213  1  0
 98214  1  0
 99215  1  0
101216  1  0
101217  1  0
101218  1  0
102219  1  0
103220  1  0
105221  1  0
106222  1  0
108223  1  0
108224  1  0
108225  1  0
109226  1  0
110227  1  0
117228  1  0
118229  1  0
120230  1  0
120231  1  0
120232  1  0
121233  1  0
122234  1  0
124235  1  0
125236  1  0
127237  1  0
127238  1  0
127239  1  0
128240  1  0
129241  1  0
132242  1  0
137243  1  0
140244  1  0
148245  1  0
149246  1  0
150247  1  0
151248  1  0
152249  1  0
153250  1  0
153251  1  0
154252  1  0
M  END

