
     RDKit          3D

162181  0  0  0  0  0  0  0  0999 V2000
   -3.1502   -3.9729   -2.8250 C   0  0  0  0  0  0  0  0  0  0  0  0
   -1.8208   -4.1905   -2.8126 C   0  0  0  0  0  0  0  0  0  0  0  0
   -0.8289   -3.3265   -3.4685 C   0  0  0  0  0  0  0  0  0  0  0  0
   -1.0662   -2.2849   -4.1369 O   0  0  0  0  0  0  0  0  0  0  0  0
    0.4785   -3.8978   -3.2976 C   0  0  0  0  0  0  0  0  0  0  0  0
    1.7018   -3.3002   -3.6673 C   0  0  0  0  0  0  0  0  0  0  0  0
    2.8143   -3.9420   -3.1597 C   0  0  0  0  0  0  0  0  0  0  0  0
    2.7385   -5.1143   -2.3423 C   0  0  0  0  0  0  0  0  0  0  0  0
    1.5404   -5.7241   -2.0007 C   0  0  0  0  0  0  0  0  0  0  0  0
    0.3763   -5.0939   -2.5399 C   0  0  0  0  0  0  0  0  0  0  0  0
   -1.0671   -5.3558   -2.2428 C   0  0  0  0  0  0  0  0  0  0  0  0
   -1.5659   -6.3800   -1.5062 C   0  0  0  0  0  0  0  0  0  0  0  0
   -2.8484   -6.3042   -0.8586 C   0  0  0  0  0  0  0  0  0  0  0  0
   -3.8667   -6.2259   -0.3030 N   0  0  0  0  0  0  0  0  0  0  0  0
   -0.8087   -7.5729   -1.2334 C   0  0  0  0  0  0  0  0  0  0  0  0
   -0.2185   -8.5432   -1.0114 N   0  0  0  0  0  0  0  0  0  0  0  0
    4.2280   -5.0927   -2.1467 C   0  0  0  0  0  0  0  0  0  0  0  0
    4.7488   -4.5896   -0.7684 C   0  0  0  0  0  0  0  0  0  0  0  0
    6.2168   -4.2896   -0.9628 C   0  0  0  0  0  0  0  0  0  0  0  0
    6.2866   -3.2023   -1.7390 C   0  0  0  0  0  0  0  0  0  0  0  0
    4.8586   -2.8009   -2.0412 C   0  0  0  0  0  0  0  0  0  0  0  0
    4.2290   -3.1636   -0.7024 C   0  0  0  0  0  0  0  0  0  0  0  0
    4.3054   -3.9029   -2.9989 C   0  0  0  0  0  0  0  0  0  0  0  0
   -3.6838   -2.6253   -3.0458 C   0  0  0  0  0  0  0  0  0  0  0  0
   -4.2912   -2.1464   -4.2058 C   0  0  0  0  0  0  0  0  0  0  0  0
   -4.3940   -0.7419   -4.2348 C   0  0  0  0  0  0  0  0  0  0  0  0
   -4.9278    0.0060   -5.3892 C   0  0  0  0  0  0  0  0  0  0  0  0
   -4.3600   -0.1748   -6.6658 C   0  0  0  0  0  0  0  0  0  0  0  0
   -3.2588   -1.0382   -6.8031 O   0  0  0  0  0  0  0  0  0  0  0  0
   -2.8330   -1.6608   -8.0144 C   0  0  0  0  0  0  0  0  0  0  0  0
   -3.8418   -2.7170   -8.4524 C   0  0  0  0  0  0  0  0  0  0  0  0
   -4.8973    0.5274   -7.7615 C   0  0  0  0  0  0  0  0  0  0  0  0
   -5.9665    1.4063   -7.5813 C   0  0  0  0  0  0  0  0  0  0  0  0
   -6.5300    1.5801   -6.3183 C   0  0  0  0  0  0  0  0  0  0  0  0
   -6.0317    0.8636   -5.2147 C   0  0  0  0  0  0  0  0  0  0  0  0
   -6.6114    0.9530   -3.9393 O   0  0  0  0  0  0  0  0  0  0  0  0
   -7.7037    1.8063   -3.5960 C   0  0  0  0  0  0  0  0  0  0  0  0
   -8.1321    1.5190   -2.1644 C   0  0  0  0  0  0  0  0  0  0  0  0
   -3.8927   -0.1347   -3.0827 C   0  0  0  0  0  0  0  0  0  0  0  0
   -3.2960   -1.3252   -2.0639 S   0  0  0  0  0  0  0  0  0  0  0  0
   -3.4891    1.2622   -2.9173 C   0  0  0  0  0  0  0  0  0  0  0  0
   -2.1553    1.6272   -3.1195 C   0  0  0  0  0  0  0  0  0  0  0  0
   -1.6791    2.5652   -2.1874 C   0  0  0  0  0  0  0  0  0  0  0  0
   -0.3265    2.9094   -1.9783 C   0  0  0  0  0  0  0  0  0  0  0  0
    0.7741    2.4454   -2.8466 C   0  0  0  0  0  0  0  0  0  0  0  0
    1.7506    3.2677   -3.4025 C   0  0  0  0  0  0  0  0  0  0  0  0
    2.7383    2.5684   -4.0991 C   0  0  0  0  0  0  0  0  0  0  0  0
    4.0462    3.3750   -4.9434 Cl  0  0  0  0  0  0  0  0  0  0  0  0
    2.5605    1.1894   -4.0677 C   0  0  0  0  0  0  0  0  0  0  0  0
    3.3665    0.1754   -4.8272 C   0  0  0  0  0  0  0  0  0  0  0  0
    2.7538   -0.0671   -6.2071 C   0  0  0  0  0  0  0  0  0  0  0  0
    1.1645    0.8419   -3.1941 S   0  0  0  0  0  0  0  0  0  0  0  0
   -0.0339    3.6194   -0.7991 C   0  0  0  0  0  0  0  0  0  0  0  0
   -1.0211    4.0590    0.0893 C   0  0  0  0  0  0  0  0  0  0  0  0
   -2.3851    3.8159   -0.1797 C   0  0  0  0  0  0  0  0  0  0  0  0
   -3.4473    4.3128    0.7225 C   0  0  0  0  0  0  0  0  0  0  0  0
   -4.7440    3.4280    1.3387 S   0  0  0  0  0  0  0  0  0  0  0  0
   -5.4678    4.7051    2.1582 C   0  0  0  0  0  0  0  0  0  0  0  0
   -6.7352    4.6013    2.9537 C   0  0  0  0  0  0  0  0  0  0  0  0
   -6.4333    4.2437    4.4061 C   0  0  0  0  0  0  0  0  0  0  0  0
   -4.6917    5.8429    1.9744 C   0  0  0  0  0  0  0  0  0  0  0  0
   -3.5686    5.6257    1.1621 C   0  0  0  0  0  0  0  0  0  0  0  0
   -5.0586    7.4097    2.6757 Cl  0  0  0  0  0  0  0  0  0  0  0  0
   -2.6691    3.0120   -1.3039 C   0  0  0  0  0  0  0  0  0  0  0  0
   -4.0945    2.1949   -1.6534 S   0  0  0  0  0  0  0  0  0  0  0  0
   -0.4990    4.4830    1.3259 C   0  0  0  0  0  0  0  0  0  0  0  0
    0.8742    4.2837    1.4306 C   0  0  0  0  0  0  0  0  0  0  0  0
    1.4609    3.7041   -0.0396 S   0  0  0  0  0  0  0  0  0  0  0  0
    1.6190    4.1052    2.6920 C   0  0  0  0  0  0  0  0  0  0  0  0
    1.1728    3.2232    3.7006 C   0  0  0  0  0  0  0  0  0  0  0  0
   -0.0373    2.3869    3.8189 C   0  0  0  0  0  0  0  0  0  0  0  0
   -0.9645    2.2837    2.9685 O   0  0  0  0  0  0  0  0  0  0  0  0
   -0.0025    1.6126    5.0150 N   0  0  0  0  0  0  0  0  0  0  0  0
   -1.1542    1.0041    5.6752 C   0  0  0  0  0  0  0  0  0  0  0  0
   -1.9599    2.0643    6.4211 C   0  0  0  0  0  0  0  0  0  0  0  0
    1.2362    1.9545    5.6295 C   0  0  0  0  0  0  0  0  0  0  0  0
    1.6237    1.4958    6.7362 O   0  0  0  0  0  0  0  0  0  0  0  0
    1.9659    2.9196    4.8023 C   0  0  0  0  0  0  0  0  0  0  0  0
    3.2723    3.4076    4.9449 C   0  0  0  0  0  0  0  0  0  0  0  0
    3.7343    4.3082    3.9714 C   0  0  0  0  0  0  0  0  0  0  0  0
    2.9132    4.6557    2.8459 C   0  0  0  0  0  0  0  0  0  0  0  0
    3.4510    5.5279    1.9585 N   0  0  0  0  0  0  0  0  0  0  0  0
    4.9321    5.7873    2.6506 S   0  0  0  0  0  0  0  0  0  0  0  0
    4.9671    4.8678    4.0232 N   0  0  0  0  0  0  0  0  0  0  0  0
    4.1617    2.8944    6.0004 C   0  0  0  0  0  0  0  0  0  0  0  0
    4.7191    1.6701    5.9327 C   0  0  0  0  0  0  0  0  0  0  0  0
    4.5236    0.7004    4.8410 C   0  0  0  0  0  0  0  0  0  0  0  0
    4.0578    0.9471    3.6925 O   0  0  0  0  0  0  0  0  0  0  0  0
    4.9053   -0.6138    5.3155 C   0  0  0  0  0  0  0  0  0  0  0  0
    4.7232   -1.8480    4.6478 C   0  0  0  0  0  0  0  0  0  0  0  0
    4.9849   -2.9553    5.4336 C   0  0  0  0  0  0  0  0  0  0  0  0
    5.3834   -2.8547    6.8077 C   0  0  0  0  0  0  0  0  0  0  0  0
    5.5906   -1.6500    7.4589 C   0  0  0  0  0  0  0  0  0  0  0  0
    5.3640   -0.5004    6.6523 C   0  0  0  0  0  0  0  0  0  0  0  0
    5.4097    0.9381    7.0379 C   0  0  0  0  0  0  0  0  0  0  0  0
    6.1542    1.4809    8.0373 C   0  0  0  0  0  0  0  0  0  0  0  0
    6.3231    2.9052    8.1786 C   0  0  0  0  0  0  0  0  0  0  0  0
    6.4681    4.0441    8.3019 N   0  0  0  0  0  0  0  0  0  0  0  0
    6.9782    0.6775    8.8984 C   0  0  0  0  0  0  0  0  0  0  0  0
    7.6557    0.0487    9.5885 N   0  0  0  0  0  0  0  0  0  0  0  0
    5.3357   -4.3470    6.9439 C   0  0  0  0  0  0  0  0  0  0  0  0
    4.1161   -4.9651    7.6879 C   0  0  0  0  0  0  0  0  0  0  0  0
    2.8820   -4.1154    7.4705 C   0  0  0  0  0  0  0  0  0  0  0  0
    2.5547   -4.2345    6.1873 C   0  0  0  0  0  0  0  0  0  0  0  0
    3.5786   -5.1565    5.5677 C   0  0  0  0  0  0  0  0  0  0  0  0
    3.7834   -6.0991    6.7394 C   0  0  0  0  0  0  0  0  0  0  0  0
    4.9688   -4.4533    5.5306 C   0  0  0  0  0  0  0  0  0  0  0  0
   -3.8528   -4.7285   -2.5301 H   0  0  0  0  0  0  0  0  0  0  0  0
    1.7607   -2.3772   -4.2207 H   0  0  0  0  0  0  0  0  0  0  0  0
    1.5268   -6.5576   -1.3230 H   0  0  0  0  0  0  0  0  0  0  0  0
    4.7440   -5.9890   -2.5613 H   0  0  0  0  0  0  0  0  0  0  0  0
    4.5085   -5.2296    0.1048 H   0  0  0  0  0  0  0  0  0  0  0  0
    7.0618   -4.7720   -0.4796 H   0  0  0  0  0  0  0  0  0  0  0  0
    7.1885   -2.6539   -1.9972 H   0  0  0  0  0  0  0  0  0  0  0  0
    4.7212   -1.7541   -2.3754 H   0  0  0  0  0  0  0  0  0  0  0  0
    4.6441   -2.5736    0.1540 H   0  0  0  0  0  0  0  0  0  0  0  0
    3.1204   -3.0751   -0.6832 H   0  0  0  0  0  0  0  0  0  0  0  0
    4.8665   -4.0405   -3.9513 H   0  0  0  0  0  0  0  0  0  0  0  0
   -4.5853   -2.7853   -5.0277 H   0  0  0  0  0  0  0  0  0  0  0  0
   -2.6659   -0.9117   -8.8134 H   0  0  0  0  0  0  0  0  0  0  0  0
   -1.8609   -2.1598   -7.8162 H   0  0  0  0  0  0  0  0  0  0  0  0
   -3.3809   -3.3914   -9.2057 H   0  0  0  0  0  0  0  0  0  0  0  0
   -4.7352   -2.2327   -8.8982 H   0  0  0  0  0  0  0  0  0  0  0  0
   -4.1659   -3.3147   -7.5767 H   0  0  0  0  0  0  0  0  0  0  0  0
   -4.4905    0.4120   -8.7583 H   0  0  0  0  0  0  0  0  0  0  0  0
   -6.3647    1.9529   -8.4278 H   0  0  0  0  0  0  0  0  0  0  0  0
   -7.3623    2.2624   -6.2095 H   0  0  0  0  0  0  0  0  0  0  0  0
   -8.5667    1.6189   -4.2699 H   0  0  0  0  0  0  0  0  0  0  0  0
   -7.3840    2.8683   -3.6759 H   0  0  0  0  0  0  0  0  0  0  0  0
   -7.2574    1.5638   -1.4806 H   0  0  0  0  0  0  0  0  0  0  0  0
   -8.8857    2.2660   -1.8401 H   0  0  0  0  0  0  0  0  0  0  0  0
   -8.5861    0.5087   -2.1100 H   0  0  0  0  0  0  0  0  0  0  0  0
   -1.5083    1.0812   -3.7943 H   0  0  0  0  0  0  0  0  0  0  0  0
    1.7460    4.3496   -3.3081 H   0  0  0  0  0  0  0  0  0  0  0  0
    3.3983   -0.7776   -4.2593 H   0  0  0  0  0  0  0  0  0  0  0  0
    4.4175    0.5207   -4.9457 H   0  0  0  0  0  0  0  0  0  0  0  0
    1.6853   -0.3490   -6.1073 H   0  0  0  0  0  0  0  0  0  0  0  0
    3.2824   -0.9102   -6.6981 H   0  0  0  0  0  0  0  0  0  0  0  0
    2.8416    0.8409   -6.8388 H   0  0  0  0  0  0  0  0  0  0  0  0
   -7.2876    5.5613    2.9134 H   0  0  0  0  0  0  0  0  0  0  0  0
   -7.3844    3.8156    2.5093 H   0  0  0  0  0  0  0  0  0  0  0  0
   -5.7932    5.0268    4.8705 H   0  0  0  0  0  0  0  0  0  0  0  0
   -7.3845    4.1699    4.9715 H   0  0  0  0  0  0  0  0  0  0  0  0
   -5.9126    3.2610    4.4607 H   0  0  0  0  0  0  0  0  0  0  0  0
   -2.8670    6.4070    0.9023 H   0  0  0  0  0  0  0  0  0  0  0  0
   -1.1146    4.7512    2.1790 H   0  0  0  0  0  0  0  0  0  0  0  0
   -0.8106    0.2267    6.3879 H   0  0  0  0  0  0  0  0  0  0  0  0
   -1.8030    0.5145    4.9137 H   0  0  0  0  0  0  0  0  0  0  0  0
   -2.7988    1.5859    6.9641 H   0  0  0  0  0  0  0  0  0  0  0  0
   -2.3713    2.8037    5.7083 H   0  0  0  0  0  0  0  0  0  0  0  0
   -1.3185    2.5920    7.1616 H   0  0  0  0  0  0  0  0  0  0  0  0
    4.2369    3.4896    6.8998 H   0  0  0  0  0  0  0  0  0  0  0  0
    4.3456   -1.9263    3.6372 H   0  0  0  0  0  0  0  0  0  0  0  0
    5.8256   -1.6164    8.5081 H   0  0  0  0  0  0  0  0  0  0  0  0
    6.3170   -4.8201    7.1849 H   0  0  0  0  0  0  0  0  0  0  0  0
    4.2983   -5.2670    8.7413 H   0  0  0  0  0  0  0  0  0  0  0  0
    2.3181   -3.5713    8.2167 H   0  0  0  0  0  0  0  0  0  0  0  0
    1.6809   -3.8068    5.7102 H   0  0  0  0  0  0  0  0  0  0  0  0
    3.2672   -5.6368    4.6212 H   0  0  0  0  0  0  0  0  0  0  0  0
    2.8618   -6.6605    7.0221 H   0  0  0  0  0  0  0  0  0  0  0  0
    4.6206   -6.8168    6.5910 H   0  0  0  0  0  0  0  0  0  0  0  0
    5.7334   -4.9531    4.8987 H   0  0  0  0  0  0  0  0  0  0  0  0
  1  2  2  3
  2  3  1  0
  3  4  2  0
  3  5  1  0
  5  6  2  0
  6  7  1  0
  7  8  2  0
  8  9  1  0
  9 10  2  0
 10 11  1  0
 11 12  2  3
 12 13  1  0
 13 14  3  0
 12 15  1  0
 15 16  3  0
  8 17  1  0
 17 18  1  0
 18 19  1  0
 19 20  2  0
 20 21  1  0
 21 22  1  0
 21 23  1  0
  1 24  1  0
 24 25  2  0
 25 26  1  0
 26 27  1  0
 27 28  2  0
 28 29  1  0
 29 30  1  0
 30 31  1  0
 28 32  1  0
 32 33  2  0
 33 34  1  0
 34 35  2  0
 35 36  1  0
 36 37  1  0
 37 38  1  0
 26 39  2  0
 39 40  1  0
 39 41  1  0
 41 42  2  0
 42 43  1  0
 43 44  2  0
 44 45  1  0
 45 46  2  0
 46 47  1  0
 47 48  1  0
 47 49  2  0
 49 50  1  0
 50 51  1  0
 49 52  1  0
 44 53  1  0
 53 54  2  0
 54 55  1  0
 55 56  1  0
 56 57  1  0
 57 58  1  0
 58 59  1  0
 59 60  1  0
 58 61  2  0
 61 62  1  0
 61 63  1  0
 55 64  2  0
 64 65  1  0
 54 66  1  0
 66 67  2  0
 67 68  1  0
 67 69  1  0
 69 70  2  0
 70 71  1  0
 71 72  2  0
 71 73  1  0
 73 74  1  0
 74 75  1  0
 73 76  1  0
 76 77  2  0
 76 78  1  0
 78 79  2  0
 79 80  1  0
 80 81  1  0
 81 82  2  0
 82 83  1  0
 83 84  1  0
 79 85  1  0
 85 86  2  3
 86 87  1  0
 87 88  2  0
 87 89  1  0
 89 90  2  0
 90 91  1  0
 91 92  2  0
 92 93  1  0
 93 94  2  0
 94 95  1  0
 95 96  2  3
 96 97  1  0
 97 98  3  0
 96 99  1  0
 99100  3  0
 92101  1  0
101102  1  0
102103  1  0
103104  2  0
104105  1  0
105106  1  0
105107  1  0
 11  2  1  0
 23 17  1  0
 40 24  1  0
 65 41  1  0
 81 69  1  0
 95 86  1  0
107101  1  0
 10  5  1  0
 22 18  1  0
 35 27  1  0
 64 43  1  0
 78 70  1  0
 84 80  2  0
 94 89  1  0
106102  1  0
 23  7  1  0
 52 45  1  0
 68 53  1  0
107 91  1  0
 62 56  2  0
  1108  1  0
  6109  1  0
  9110  1  0
 17111  1  0
 18112  1  0
 19113  1  0
 20114  1  0
 21115  1  0
 22116  1  0
 22117  1  0
 23118  1  0
 25119  1  0
 30120  1  0
 30121  1  0
 31122  1  0
 31123  1  0
 31124  1  0
 32125  1  0
 33126  1  0
 34127  1  0
 37128  1  0
 37129  1  0
 38130  1  0
 38131  1  0
 38132  1  0
 42133  1  0
 46134  1  0
 50135  1  0
 50136  1  0
 51137  1  0
 51138  1  0
 51139  1  0
 59140  1  0
 59141  1  0
 60142  1  0
 60143  1  0
 60144  1  0
 62145  1  0
 66146  1  0
 74147  1  0
 74148  1  0
 75149  1  0
 75150  1  0
 75151  1  0
 85152  1  0
 90153  1  0
 93154  1  0
101155  1  0
102156  1  0
103157  1  0
104158  1  0
105159  1  0
106160  1  0
106161  1  0
107162  1  0
M  END

