
     RDKit          3D

153171  0  0  0  0  0  0  0  0999 V2000
   -0.4188    7.3307    0.5824 C   0  0  0  0  0  0  0  0  0  0  0  0
    0.8219    7.5358    0.1102 C   0  0  0  0  0  0  0  0  0  0  0  0
    1.7265    6.5026   -0.4106 C   0  0  0  0  0  0  0  0  0  0  0  0
    1.6844    5.2695   -0.1613 O   0  0  0  0  0  0  0  0  0  0  0  0
    2.7244    7.1447   -1.2389 C   0  0  0  0  0  0  0  0  0  0  0  0
    3.6802    6.5188   -2.0717 C   0  0  0  0  0  0  0  0  0  0  0  0
    4.4030    7.3979   -2.8535 C   0  0  0  0  0  0  0  0  0  0  0  0
    4.2079    8.8140   -2.8212 C   0  0  0  0  0  0  0  0  0  0  0  0
    3.2784    9.4360   -2.0077 C   0  0  0  0  0  0  0  0  0  0  0  0
    2.5383    8.5499   -1.1776 C   0  0  0  0  0  0  0  0  0  0  0  0
    1.4429    8.8538   -0.2168 C   0  0  0  0  0  0  0  0  0  0  0  0
    1.2450   10.0296    0.4343 C   0  0  0  0  0  0  0  0  0  0  0  0
    0.3220   10.1666    1.5309 C   0  0  0  0  0  0  0  0  0  0  0  0
   -0.4161   10.2806    2.4158 N   0  0  0  0  0  0  0  0  0  0  0  0
    2.0832   11.1869    0.2105 C   0  0  0  0  0  0  0  0  0  0  0  0
    2.7573   12.1129    0.0510 N   0  0  0  0  0  0  0  0  0  0  0  0
    5.2871    9.0013   -3.8368 C   0  0  0  0  0  0  0  0  0  0  0  0
    6.6487    9.5359   -3.3121 C   0  0  0  0  0  0  0  0  0  0  0  0
    7.6461    9.2775   -4.4115 C   0  0  0  0  0  0  0  0  0  0  0  0
    7.8302    7.9539   -4.4564 C   0  0  0  0  0  0  0  0  0  0  0  0
    6.9437    7.3601   -3.3861 C   0  0  0  0  0  0  0  0  0  0  0  0
    7.0894    8.4531   -2.3435 C   0  0  0  0  0  0  0  0  0  0  0  0
    5.4822    7.5493   -3.8875 C   0  0  0  0  0  0  0  0  0  0  0  0
   -1.0396    5.9943    0.7087 C   0  0  0  0  0  0  0  0  0  0  0  0
   -1.2632    5.1841   -0.4126 C   0  0  0  0  0  0  0  0  0  0  0  0
   -1.8212    3.8917   -0.2855 C   0  0  0  0  0  0  0  0  0  0  0  0
   -1.8971    3.1521   -1.5099 N   0  0  0  0  0  0  0  0  0  0  0  0
   -1.2899    4.2097   -2.5359 S   0  0  0  0  0  4  0  0  0  0  0  0
   -0.8872    5.5408   -1.7459 N   0  0  0  0  0  0  0  0  0  0  0  0
   -2.1861    3.3715    0.9729 C   0  0  0  0  0  0  0  0  0  0  0  0
   -2.0440    4.2165    2.0919 C   0  0  0  0  0  0  0  0  0  0  0  0
   -2.4386    3.8580    3.3406 N   0  0  0  0  0  0  0  0  0  0  0  0
   -2.0125    5.2035    4.1976 S   0  0  0  0  0  0  0  0  0  0  0  0
   -1.3617    6.2517    3.0974 N   0  0  0  0  0  0  0  0  0  0  0  0
   -1.4703    5.5197    1.9584 C   0  0  0  0  0  0  0  0  0  0  0  0
   -2.6493    1.9731    1.1210 C   0  0  0  0  0  0  0  0  0  0  0  0
   -2.1035    1.0263    2.0114 C   0  0  0  0  0  0  0  0  0  0  0  0
   -0.7952    1.1797    2.5979 N   0  0  0  0  0  0  0  0  0  0  0  0
    0.3254    0.6822    1.8392 C   0  0  0  0  0  0  0  0  0  0  0  0
    1.0576   -0.4214    2.3048 C   0  0  0  0  0  0  0  0  0  0  0  0
    2.0661   -0.9872    1.5235 C   0  0  0  0  0  0  0  0  0  0  0  0
    2.3661   -0.4392    0.2734 C   0  0  0  0  0  0  0  0  0  0  0  0
    3.6736   -1.1397   -0.7337 S   0  0  0  0  0  0  0  0  0  0  0  0
    4.9343    0.0058   -0.0905 C   0  0  0  0  0  0  0  0  0  0  0  0
    1.6343    0.6527   -0.2099 C   0  0  0  0  0  0  0  0  0  0  0  0
    0.6342    1.2202    0.5796 C   0  0  0  0  0  0  0  0  0  0  0  0
   -0.6279    1.4946    3.9960 C   0  0  0  0  0  0  0  0  0  0  0  0
   -1.6102    1.1480    4.9387 C   0  0  0  0  0  0  0  0  0  0  0  0
   -1.4115    1.4265    6.2990 C   0  0  0  0  0  0  0  0  0  0  0  0
   -0.2407    2.0662    6.7259 C   0  0  0  0  0  0  0  0  0  0  0  0
    0.0420    2.3724    8.4721 S   0  0  0  0  0  0  0  0  0  0  0  0
    0.8316    0.7587    8.7656 C   0  0  0  0  0  0  0  0  0  0  0  0
    0.7257    2.4341    5.7844 C   0  0  0  0  0  0  0  0  0  0  0  0
    0.5425    2.1521    4.4313 C   0  0  0  0  0  0  0  0  0  0  0  0
   -2.6443   -0.2380    1.7781 C   0  0  0  0  0  0  0  0  0  0  0  0
   -2.1295   -1.7587    2.2335 S   0  0  0  0  0  0  0  0  0  0  0  0
   -2.9181   -2.5971    0.9731 C   0  0  0  0  0  0  0  0  0  0  0  0
   -3.5837   -1.6356    0.1676 C   0  0  0  0  0  0  0  0  0  0  0  0
   -3.9338   -1.8316   -1.2138 N   0  0  0  0  0  0  0  0  0  0  0  0
   -2.9097   -2.2387   -2.1478 C   0  0  0  0  0  0  0  0  0  0  0  0
   -3.2119   -3.1058   -3.2096 C   0  0  0  0  0  0  0  0  0  0  0  0
   -2.2283   -3.4527   -4.1440 C   0  0  0  0  0  0  0  0  0  0  0  0
   -0.9321   -2.9255   -4.0359 C   0  0  0  0  0  0  0  0  0  0  0  0
    0.2893   -3.2570   -5.3102 S   0  0  0  0  0  0  0  0  0  0  0  0
    0.8941   -4.7901   -4.5511 C   0  0  0  0  0  0  0  0  0  0  0  0
   -0.6175   -2.0806   -2.9671 C   0  0  0  0  0  0  0  0  0  0  0  0
   -1.5968   -1.7384   -2.0296 C   0  0  0  0  0  0  0  0  0  0  0  0
   -5.2147   -1.3536   -1.6845 C   0  0  0  0  0  0  0  0  0  0  0  0
   -5.3117   -0.6008   -2.8745 C   0  0  0  0  0  0  0  0  0  0  0  0
   -6.5519   -0.1562   -3.3335 C   0  0  0  0  0  0  0  0  0  0  0  0
   -7.7180   -0.4728   -2.6302 C   0  0  0  0  0  0  0  0  0  0  0  0
   -9.3144   -0.0020   -3.2926 S   0  0  0  0  0  0  0  0  0  0  0  0
   -9.4045    1.5539   -2.3598 C   0  0  0  0  0  0  0  0  0  0  0  0
   -7.6346   -1.1931   -1.4314 C   0  0  0  0  0  0  0  0  0  0  0  0
   -6.3910   -1.6123   -0.9499 C   0  0  0  0  0  0  0  0  0  0  0  0
   -3.4534   -0.3452    0.6966 C   0  0  0  0  0  0  0  0  0  0  0  0
   -3.6530    1.1659    0.0055 S   0  0  0  0  0  0  0  0  0  0  0  0
   -2.7605   -4.0653    0.7173 C   0  0  0  0  0  0  0  0  0  0  0  0
   -1.6240   -4.7781    1.1724 C   0  0  0  0  0  0  0  0  0  0  0  0
   -1.4872   -6.1805    0.9504 C   0  0  0  0  0  0  0  0  0  0  0  0
   -0.3195   -6.7706    1.5461 N   0  0  0  0  0  0  0  0  0  0  0  0
    0.3525   -5.4822    2.2127 S   0  0  0  0  0  4  0  0  0  0  0  0
   -0.5465   -4.1978    1.9285 N   0  0  0  0  0  0  0  0  0  0  0  0
   -2.4483   -6.9009    0.2262 C   0  0  0  0  0  0  0  0  0  0  0  0
   -3.5970   -6.2158   -0.1957 C   0  0  0  0  0  0  0  0  0  0  0  0
   -4.6100   -6.8365   -0.8593 N   0  0  0  0  0  0  0  0  0  0  0  0
   -5.6693   -5.5919   -1.0432 S   0  0  0  0  0  0  0  0  0  0  0  0
   -4.9410   -4.2837   -0.3401 N   0  0  0  0  0  0  0  0  0  0  0  0
   -3.7636   -4.8195    0.0698 C   0  0  0  0  0  0  0  0  0  0  0  0
   -2.3541   -8.3576    0.0130 C   0  0  0  0  0  0  0  0  0  0  0  0
   -1.2727   -9.0684   -0.3765 C   0  0  0  0  0  0  0  0  0  0  0  0
   -1.2208  -10.5186   -0.1530 C   0  0  0  0  0  0  0  0  0  0  0  0
   -2.1884  -11.2451    0.1816 O   0  0  0  0  0  0  0  0  0  0  0  0
    0.1513  -10.9477   -0.2508 C   0  0  0  0  0  0  0  0  0  0  0  0
    0.6886  -12.1702    0.1369 C   0  0  0  0  0  0  0  0  0  0  0  0
    2.0834  -12.3273    0.1392 C   0  0  0  0  0  0  0  0  0  0  0  0
    2.6096  -13.5522    0.5729 O   0  0  0  0  0  0  0  0  0  0  0  0
    3.9933  -13.8059    0.7729 C   0  0  0  0  0  0  0  0  0  0  0  0
    2.9046  -11.2449   -0.2415 C   0  0  0  0  0  0  0  0  0  0  0  0
    2.3384  -10.0110   -0.5849 C   0  0  0  0  0  0  0  0  0  0  0  0
    0.9418   -9.8761   -0.6146 C   0  0  0  0  0  0  0  0  0  0  0  0
    0.0954   -8.6714   -0.8462 C   0  0  0  0  0  0  0  0  0  0  0  0
    0.4567   -7.5810   -1.5704 C   0  0  0  0  0  0  0  0  0  0  0  0
   -0.4146   -6.4762   -1.8561 C   0  0  0  0  0  0  0  0  0  0  0  0
   -1.0726   -5.5363   -2.0557 N   0  0  0  0  0  0  0  0  0  0  0  0
    1.7378   -7.4973   -2.2257 C   0  0  0  0  0  0  0  0  0  0  0  0
    2.7582   -7.4365   -2.7709 N   0  0  0  0  0  0  0  0  0  0  0  0
   -1.0410    8.1673    0.8608 H   0  0  0  0  0  0  0  0  0  0  0  0
    3.8114    5.4460   -2.1166 H   0  0  0  0  0  0  0  0  0  0  0  0
    3.1328   10.5082   -2.0416 H   0  0  0  0  0  0  0  0  0  0  0  0
    4.9278    9.4628   -4.7920 H   0  0  0  0  0  0  0  0  0  0  0  0
    6.6447   10.5730   -2.9099 H   0  0  0  0  0  0  0  0  0  0  0  0
    8.1929   10.0131   -4.9927 H   0  0  0  0  0  0  0  0  0  0  0  0
    8.5452    7.4326   -5.0827 H   0  0  0  0  0  0  0  0  0  0  0  0
    7.2183    6.3297   -3.0691 H   0  0  0  0  0  0  0  0  0  0  0  0
    8.1422    8.5745   -1.9801 H   0  0  0  0  0  0  0  0  0  0  0  0
    6.4253    8.3311   -1.4577 H   0  0  0  0  0  0  0  0  0  0  0  0
    5.2335    7.0808   -4.8683 H   0  0  0  0  0  0  0  0  0  0  0  0
    0.8226   -0.8599    3.2705 H   0  0  0  0  0  0  0  0  0  0  0  0
    2.6200   -1.8452    1.8899 H   0  0  0  0  0  0  0  0  0  0  0  0
    5.8979   -0.1873   -0.6070 H   0  0  0  0  0  0  0  0  0  0  0  0
    4.6367    1.0573   -0.2914 H   0  0  0  0  0  0  0  0  0  0  0  0
    5.0604   -0.1549    0.9958 H   0  0  0  0  0  0  0  0  0  0  0  0
    1.8502    1.0768   -1.1843 H   0  0  0  0  0  0  0  0  0  0  0  0
    0.0906    2.0728    0.1970 H   0  0  0  0  0  0  0  0  0  0  0  0
   -2.5147    0.6270    4.6389 H   0  0  0  0  0  0  0  0  0  0  0  0
   -2.1602    1.1390    7.0182 H   0  0  0  0  0  0  0  0  0  0  0  0
    1.2377    0.7341    9.7966 H   0  0  0  0  0  0  0  0  0  0  0  0
    1.6690    0.5921    8.0490 H   0  0  0  0  0  0  0  0  0  0  0  0
    0.0841   -0.0544    8.6503 H   0  0  0  0  0  0  0  0  0  0  0  0
    1.6279    2.9350    6.1098 H   0  0  0  0  0  0  0  0  0  0  0  0
    1.3069    2.4497    3.7216 H   0  0  0  0  0  0  0  0  0  0  0  0
   -4.2084   -3.5199   -3.3079 H   0  0  0  0  0  0  0  0  0  0  0  0
   -2.4824   -4.1206   -4.9576 H   0  0  0  0  0  0  0  0  0  0  0  0
    0.0778   -5.5311   -4.4603 H   0  0  0  0  0  0  0  0  0  0  0  0
    1.6901   -5.2194   -5.1919 H   0  0  0  0  0  0  0  0  0  0  0  0
    1.3258   -4.5701   -3.5455 H   0  0  0  0  0  0  0  0  0  0  0  0
    0.3828   -1.6726   -2.8641 H   0  0  0  0  0  0  0  0  0  0  0  0
   -1.3270   -1.0610   -1.2246 H   0  0  0  0  0  0  0  0  0  0  0  0
   -4.4184   -0.3564   -3.4364 H   0  0  0  0  0  0  0  0  0  0  0  0
   -6.6056    0.4051   -4.2526 H   0  0  0  0  0  0  0  0  0  0  0  0
   -8.5185    2.1838   -2.5845 H   0  0  0  0  0  0  0  0  0  0  0  0
  -10.3221    2.1009   -2.6589 H   0  0  0  0  0  0  0  0  0  0  0  0
   -9.4506    1.3372   -1.2717 H   0  0  0  0  0  0  0  0  0  0  0  0
   -8.5330   -1.4476   -0.8861 H   0  0  0  0  0  0  0  0  0  0  0  0
   -6.3520   -2.1524   -0.0163 H   0  0  0  0  0  0  0  0  0  0  0  0
   -3.2546   -8.9050    0.2690 H   0  0  0  0  0  0  0  0  0  0  0  0
    0.0484  -12.9812    0.4695 H   0  0  0  0  0  0  0  0  0  0  0  0
    4.5386  -13.6825   -0.1852 H   0  0  0  0  0  0  0  0  0  0  0  0
    4.1159  -14.8538    1.1209 H   0  0  0  0  0  0  0  0  0  0  0  0
    4.4002  -13.1064    1.5354 H   0  0  0  0  0  0  0  0  0  0  0  0
    3.9838  -11.3307   -0.2239 H   0  0  0  0  0  0  0  0  0  0  0  0
    2.9934   -9.1706   -0.7657 H   0  0  0  0  0  0  0  0  0  0  0  0
  1  2  2  3
  2  3  1  0
  3  4  2  0
  3  5  1  0
  5  6  2  0
  6  7  1  0
  7  8  2  0
  8  9  1  0
  9 10  2  0
 10 11  1  0
 11 12  2  3
 12 13  1  0
 13 14  3  0
 12 15  1  0
 15 16  3  0
  8 17  1  0
 17 18  1  0
 18 19  1  0
 19 20  2  0
 20 21  1  0
 21 22  1  0
 21 23  1  0
  1 24  1  0
 24 25  2  0
 25 26  1  0
 26 27  1  0
 27 28  2  0
 28 29  2  0
 26 30  2  0
 30 31  1  0
 31 32  2  0
 32 33  1  0
 33 34  1  0
 34 35  2  0
 30 36  1  0
 36 37  2  0
 37 38  1  0
 38 39  1  0
 39 40  2  0
 40 41  1  0
 41 42  2  0
 42 43  1  0
 43 44  1  0
 42 45  1  0
 45 46  2  0
 38 47  1  0
 47 48  2  0
 48 49  1  0
 49 50  2  0
 50 51  1  0
 51 52  1  0
 50 53  1  0
 53 54  2  0
 37 55  1  0
 55 56  1  0
 56 57  1  0
 57 58  2  0
 58 59  1  0
 59 60  1  0
 60 61  2  0
 61 62  1  0
 62 63  2  0
 63 64  1  0
 64 65  1  0
 63 66  1  0
 66 67  2  0
 59 68  1  0
 68 69  2  0
 69 70  1  0
 70 71  2  0
 71 72  1  0
 72 73  1  0
 71 74  1  0
 74 75  2  0
 58 76  1  0
 76 77  1  0
 57 78  1  0
 78 79  2  0
 79 80  1  0
 80 81  1  0
 81 82  2  0
 82 83  2  0
 80 84  2  0
 84 85  1  0
 85 86  2  0
 86 87  1  0
 87 88  1  0
 88 89  2  0
 84 90  1  0
 90 91  2  3
 91 92  1  0
 92 93  2  0
 92 94  1  0
 94 95  2  0
 95 96  1  0
 96 97  1  0
 97 98  1  0
 96 99  2  0
 99100  1  0
100101  2  0
101102  1  0
102103  2  3
103104  1  0
104105  3  0
103106  1  0
106107  3  0
 11  2  1  0
 23 17  1  0
 35 24  1  0
 77 36  1  0
 89 78  1  0
102 91  1  0
 10  5  1  0
 22 18  1  0
 29 25  1  0
 35 31  1  0
 46 39  1  0
 54 47  1  0
 76 55  2  0
 83 79  1  0
 89 85  1  0
101 94  1  0
 23  7  1  0
 67 60  1  0
 75 68  1  0
  1108  1  0
  6109  1  0
  9110  1  0
 17111  1  0
 18112  1  0
 19113  1  0
 20114  1  0
 21115  1  0
 22116  1  0
 22117  1  0
 23118  1  0
 40119  1  0
 41120  1  0
 44121  1  0
 44122  1  0
 44123  1  0
 45124  1  0
 46125  1  0
 48126  1  0
 49127  1  0
 52128  1  0
 52129  1  0
 52130  1  0
 53131  1  0
 54132  1  0
 61133  1  0
 62134  1  0
 65135  1  0
 65136  1  0
 65137  1  0
 66138  1  0
 67139  1  0
 69140  1  0
 70141  1  0
 73142  1  0
 73143  1  0
 73144  1  0
 74145  1  0
 75146  1  0
 90147  1  0
 95148  1  0
 98149  1  0
 98150  1  0
 98151  1  0
 99152  1  0
100153  1  0
M  END

