
     RDKit          3D

200218  0  0  0  0  0  0  0  0999 V2000
    5.3906    2.2525    2.5318 C   0  0  0  0  0  0  0  0  0  0  0  0
    6.2295    2.9963    1.7883 C   0  0  0  0  0  0  0  0  0  0  0  0
    6.5618    4.3668    2.1937 C   0  0  0  0  0  0  0  0  0  0  0  0
    6.5540    4.8025    3.3760 O   0  0  0  0  0  0  0  0  0  0  0  0
    6.6993    5.1731    0.9953 C   0  0  0  0  0  0  0  0  0  0  0  0
    6.7063    6.5834    0.9161 C   0  0  0  0  0  0  0  0  0  0  0  0
    6.5817    7.0650   -0.3761 C   0  0  0  0  0  0  0  0  0  0  0  0
    6.4536    6.2158   -1.5237 C   0  0  0  0  0  0  0  0  0  0  0  0
    6.4506    4.8333   -1.4521 C   0  0  0  0  0  0  0  0  0  0  0  0
    6.5939    4.3211   -0.1348 C   0  0  0  0  0  0  0  0  0  0  0  0
    6.4707    2.9204    0.3266 C   0  0  0  0  0  0  0  0  0  0  0  0
    6.9481    1.8355   -0.3187 C   0  0  0  0  0  0  0  0  0  0  0  0
    7.0989    0.5733    0.3619 C   0  0  0  0  0  0  0  0  0  0  0  0
    7.2231   -0.4395    0.9075 N   0  0  0  0  0  0  0  0  0  0  0  0
    7.4707    1.9114   -1.6578 C   0  0  0  0  0  0  0  0  0  0  0  0
    7.9206    1.9771   -2.7222 N   0  0  0  0  0  0  0  0  0  0  0  0
    6.2814    7.4112   -2.4090 C   0  0  0  0  0  0  0  0  0  0  0  0
    4.8458    7.7238   -2.9318 C   0  0  0  0  0  0  0  0  0  0  0  0
    3.8145    7.2588   -1.9302 C   0  0  0  0  0  0  0  0  0  0  0  0
    3.9324    8.0485   -0.8613 C   0  0  0  0  0  0  0  0  0  0  0  0
    5.0464    9.0257   -1.1723 C   0  0  0  0  0  0  0  0  0  0  0  0
    4.7890    9.2149   -2.6560 C   0  0  0  0  0  0  0  0  0  0  0  0
    6.4145    8.2830   -1.2356 C   0  0  0  0  0  0  0  0  0  0  0  0
    4.2598    1.4569    1.9979 C   0  0  0  0  0  0  0  0  0  0  0  0
    3.1422    1.1111    2.7721 C   0  0  0  0  0  0  0  0  0  0  0  0
    3.0081    1.3565    4.1787 N   0  0  0  0  0  0  0  0  0  0  0  0
    3.4912    0.3808    5.1302 C   0  0  0  0  0  0  0  0  0  0  0  0
    3.6879   -0.9600    4.7556 C   0  0  0  0  0  0  0  0  0  0  0  0
    4.1303   -1.9009    5.6865 C   0  0  0  0  0  0  0  0  0  0  0  0
    4.3750   -1.5182    7.0084 C   0  0  0  0  0  0  0  0  0  0  0  0
    4.9423   -2.7298    8.1966 S   0  0  0  0  0  0  0  0  0  0  0  0
    3.2557   -3.2436    8.6528 C   0  0  0  0  0  0  0  0  0  0  0  0
    4.1877   -0.1884    7.3962 C   0  0  0  0  0  0  0  0  0  0  0  0
    3.7589    0.7602    6.4586 C   0  0  0  0  0  0  0  0  0  0  0  0
    2.0802    2.3831    4.5787 C   0  0  0  0  0  0  0  0  0  0  0  0
    2.2275    3.6970    4.1031 C   0  0  0  0  0  0  0  0  0  0  0  0
    1.2872    4.6777    4.4301 C   0  0  0  0  0  0  0  0  0  0  0  0
    0.1743    4.3498    5.2164 C   0  0  0  0  0  0  0  0  0  0  0  0
   -1.0235    5.6097    5.6549 S   0  0  0  0  0  0  0  0  0  0  0  0
   -0.2075    5.9894    7.2346 C   0  0  0  0  0  0  0  0  0  0  0  0
    0.0059    3.0385    5.6705 C   0  0  0  0  0  0  0  0  0  0  0  0
    0.9603    2.0630    5.3626 C   0  0  0  0  0  0  0  0  0  0  0  0
    2.0978    0.6438    1.9927 C   0  0  0  0  0  0  0  0  0  0  0  0
    0.5283    0.2045    2.3339 S   0  0  0  0  0  0  0  0  0  0  0  0
    0.1147   -0.0885    0.7115 C   0  0  0  0  0  0  0  0  0  0  0  0
    1.2357    0.1816   -0.1050 C   0  0  0  0  0  0  0  0  0  0  0  0
    1.2965    0.0132   -1.5352 N   0  0  0  0  0  0  0  0  0  0  0  0
    1.7883   -1.2527   -2.0346 C   0  0  0  0  0  0  0  0  0  0  0  0
    1.1792   -2.4598   -1.6527 C   0  0  0  0  0  0  0  0  0  0  0  0
    1.6283   -3.6766   -2.1678 C   0  0  0  0  0  0  0  0  0  0  0  0
    2.6987   -3.7109   -3.0661 C   0  0  0  0  0  0  0  0  0  0  0  0
    3.2956   -5.2812   -3.6854 S   0  0  0  0  0  0  0  0  0  0  0  0
    2.0419   -5.3961   -4.9965 C   0  0  0  0  0  0  0  0  0  0  0  0
    3.3209   -2.5181   -3.4499 C   0  0  0  0  0  0  0  0  0  0  0  0
    2.8767   -1.2991   -2.9293 C   0  0  0  0  0  0  0  0  0  0  0  0
    1.2129    1.1568   -2.4284 C   0  0  0  0  0  0  0  0  0  0  0  0
    1.4882    2.4639   -1.9760 C   0  0  0  0  0  0  0  0  0  0  0  0
    1.6575    3.5082   -2.8884 C   0  0  0  0  0  0  0  0  0  0  0  0
    1.5315    3.2756   -4.2622 C   0  0  0  0  0  0  0  0  0  0  0  0
    2.0295    4.5370   -5.4374 S   0  0  0  0  0  0  0  0  0  0  0  0
    0.3757    5.2657   -5.6030 C   0  0  0  0  0  0  0  0  0  0  0  0
    1.1245    2.0168   -4.7136 C   0  0  0  0  0  0  0  0  0  0  0  0
    0.9561    0.9682   -3.8028 C   0  0  0  0  0  0  0  0  0  0  0  0
    2.3258    0.5792    0.6652 C   0  0  0  0  0  0  0  0  0  0  0  0
    3.8720    1.1537    0.3529 S   0  0  0  0  0  0  0  0  0  0  0  0
   -1.1967   -0.6088    0.2823 C   0  0  0  0  0  0  0  0  0  0  0  0
   -2.1464   -1.2769    1.0907 C   0  0  0  0  0  0  0  0  0  0  0  0
   -2.2450   -1.1512    2.5239 N   0  0  0  0  0  0  0  0  0  0  0  0
   -3.0695   -0.0958    3.0644 C   0  0  0  0  0  0  0  0  0  0  0  0
   -3.0236    1.2033    2.5219 C   0  0  0  0  0  0  0  0  0  0  0  0
   -3.8642    2.2094    3.0139 C   0  0  0  0  0  0  0  0  0  0  0  0
   -4.7719    1.9237    4.0407 C   0  0  0  0  0  0  0  0  0  0  0  0
   -5.8722    3.1989    4.6504 S   0  0  0  0  0  0  0  0  0  0  0  0
   -7.1898    2.8226    3.4504 C   0  0  0  0  0  0  0  0  0  0  0  0
   -4.8226    0.6372    4.5874 C   0  0  0  0  0  0  0  0  0  0  0  0
   -3.9727   -0.3647    4.1072 C   0  0  0  0  0  0  0  0  0  0  0  0
   -1.6852   -2.1530    3.3986 C   0  0  0  0  0  0  0  0  0  0  0  0
   -0.9723   -1.7640    4.5471 C   0  0  0  0  0  0  0  0  0  0  0  0
   -0.3667   -2.7236    5.3635 C   0  0  0  0  0  0  0  0  0  0  0  0
   -0.5025   -4.0854    5.0641 C   0  0  0  0  0  0  0  0  0  0  0  0
    0.3730   -5.3177    6.0293 S   0  0  0  0  0  0  0  0  0  0  0  0
   -1.0200   -5.6212    7.1576 C   0  0  0  0  0  0  0  0  0  0  0  0
   -1.2770   -4.4767    3.9651 C   0  0  0  0  0  0  0  0  0  0  0  0
   -1.8605   -3.5188    3.1354 C   0  0  0  0  0  0  0  0  0  0  0  0
   -3.2020   -1.7391    0.3176 C   0  0  0  0  0  0  0  0  0  0  0  0
   -4.5602   -2.6632    0.6366 S   0  0  0  0  0  0  0  0  0  0  0  0
   -5.1170   -2.6149   -0.9746 C   0  0  0  0  0  0  0  0  0  0  0  0
   -4.2619   -1.8087   -1.7582 C   0  0  0  0  0  0  0  0  0  0  0  0
   -4.5664   -1.2527   -3.0580 N   0  0  0  0  0  0  0  0  0  0  0  0
   -4.1483    0.0924   -3.3313 C   0  0  0  0  0  0  0  0  0  0  0  0
   -4.5980    1.1476   -2.5172 C   0  0  0  0  0  0  0  0  0  0  0  0
   -4.1231    2.4448   -2.7171 C   0  0  0  0  0  0  0  0  0  0  0  0
   -3.1920    2.6998   -3.7306 C   0  0  0  0  0  0  0  0  0  0  0  0
   -2.5697    4.3625   -3.9514 S   0  0  0  0  0  0  0  0  0  0  0  0
   -3.7214    4.7462   -5.3041 C   0  0  0  0  0  0  0  0  0  0  0  0
   -2.7419    1.6530   -4.5456 C   0  0  0  0  0  0  0  0  0  0  0  0
   -3.2287    0.3533   -4.3542 C   0  0  0  0  0  0  0  0  0  0  0  0
   -5.6507   -1.7467   -3.8510 C   0  0  0  0  0  0  0  0  0  0  0  0
   -6.9570   -1.2784   -3.6211 C   0  0  0  0  0  0  0  0  0  0  0  0
   -8.0118   -1.7341   -4.4105 C   0  0  0  0  0  0  0  0  0  0  0  0
   -7.7660   -2.6218   -5.4652 C   0  0  0  0  0  0  0  0  0  0  0  0
   -9.1225   -3.1625   -6.5047 S   0  0  0  0  0  0  0  0  0  0  0  0
   -9.0505   -1.6954   -7.5782 C   0  0  0  0  0  0  0  0  0  0  0  0
   -6.4650   -3.0841   -5.7014 C   0  0  0  0  0  0  0  0  0  0  0  0
   -5.4090   -2.6509   -4.8925 C   0  0  0  0  0  0  0  0  0  0  0  0
   -3.1640   -1.4034   -0.9946 C   0  0  0  0  0  0  0  0  0  0  0  0
   -1.7616   -0.5535   -1.3184 S   0  0  0  0  0  0  0  0  0  0  0  0
   -6.2142   -3.4639   -1.4347 C   0  0  0  0  0  0  0  0  0  0  0  0
   -6.0506   -4.7662   -1.6905 C   0  0  0  0  0  0  0  0  0  0  0  0
   -4.7287   -5.4414   -1.7002 C   0  0  0  0  0  0  0  0  0  0  0  0
   -4.6462   -6.7611   -1.5053 C   0  0  0  0  0  0  0  0  0  0  0  0
   -3.4355   -7.5762   -1.7501 C   0  0  0  0  0  0  0  0  0  0  0  0
   -2.1568   -7.2909   -1.4303 C   0  0  0  0  0  0  0  0  0  0  0  0
   -1.6830   -6.2184   -0.5309 C   0  0  0  0  0  0  0  0  0  0  0  0
   -2.3776   -5.3227    0.0146 O   0  0  0  0  0  0  0  0  0  0  0  0
   -0.2975   -6.4895   -0.2093 C   0  0  0  0  0  0  0  0  0  0  0  0
    0.1077   -7.6422   -0.8275 C   0  0  0  0  0  0  0  0  0  0  0  0
    1.4546   -7.9581   -0.6449 C   0  0  0  0  0  0  0  0  0  0  0  0
    2.0990   -6.7315    0.3276 S   0  0  0  0  0  0  0  0  0  0  0  0
    0.6888   -5.8298    0.5095 C   0  0  0  0  0  0  0  0  0  0  0  0
    0.6116   -4.2569    1.2700 Cl  0  0  0  0  0  0  0  0  0  0  0  0
   -0.9756   -8.1969   -1.6665 C   0  0  0  0  0  0  0  0  0  0  0  0
   -0.8605   -9.2300   -2.5374 C   0  0  0  0  0  0  0  0  0  0  0  0
    0.2977  -10.0785   -2.5616 C   0  0  0  0  0  0  0  0  0  0  0  0
    1.2238  -10.7774   -2.5941 N   0  0  0  0  0  0  0  0  0  0  0  0
   -1.8504   -9.5157   -3.5437 C   0  0  0  0  0  0  0  0  0  0  0  0
   -2.6368   -9.7545   -4.3578 N   0  0  0  0  0  0  0  0  0  0  0  0
    5.3299    2.4866    3.5881 H   0  0  0  0  0  0  0  0  0  0  0  0
    6.7258    7.2267    1.7871 H   0  0  0  0  0  0  0  0  0  0  0  0
    6.2625    4.2152   -2.3206 H   0  0  0  0  0  0  0  0  0  0  0  0
    7.0963    7.5433   -3.1580 H   0  0  0  0  0  0  0  0  0  0  0  0
    4.6492    7.4255   -3.9808 H   0  0  0  0  0  0  0  0  0  0  0  0
    3.0604    6.4932   -2.0690 H   0  0  0  0  0  0  0  0  0  0  0  0
    3.2942    8.0305    0.0154 H   0  0  0  0  0  0  0  0  0  0  0  0
    5.0383    9.9542   -0.5621 H   0  0  0  0  0  0  0  0  0  0  0  0
    3.7910    9.6705   -2.8755 H   0  0  0  0  0  0  0  0  0  0  0  0
    5.5856    9.8001   -3.1756 H   0  0  0  0  0  0  0  0  0  0  0  0
    7.3090    8.9413   -1.2652 H   0  0  0  0  0  0  0  0  0  0  0  0
    3.4865   -1.2886    3.7419 H   0  0  0  0  0  0  0  0  0  0  0  0
    4.2825   -2.9271    5.3785 H   0  0  0  0  0  0  0  0  0  0  0  0
    2.6767   -2.3691    9.0180 H   0  0  0  0  0  0  0  0  0  0  0  0
    2.7455   -3.6888    7.7717 H   0  0  0  0  0  0  0  0  0  0  0  0
    3.3106   -4.0046    9.4580 H   0  0  0  0  0  0  0  0  0  0  0  0
    4.3787    0.1140    8.4188 H   0  0  0  0  0  0  0  0  0  0  0  0
    3.6425    1.7898    6.7734 H   0  0  0  0  0  0  0  0  0  0  0  0
    3.0723    3.9606    3.4772 H   0  0  0  0  0  0  0  0  0  0  0  0
    1.4137    5.6901    4.0645 H   0  0  0  0  0  0  0  0  0  0  0  0
   -0.1877    5.0834    7.8750 H   0  0  0  0  0  0  0  0  0  0  0  0
   -0.7743    6.7858    7.7572 H   0  0  0  0  0  0  0  0  0  0  0  0
    0.8288    6.3398    7.0523 H   0  0  0  0  0  0  0  0  0  0  0  0
   -0.8619    2.7727    6.2613 H   0  0  0  0  0  0  0  0  0  0  0  0
    0.8066    1.0473    5.7076 H   0  0  0  0  0  0  0  0  0  0  0  0
    0.3478   -2.4589   -0.9713 H   0  0  0  0  0  0  0  0  0  0  0  0
    1.1347   -4.5919   -1.8881 H   0  0  0  0  0  0  0  0  0  0  0  0
    2.0630   -4.4909   -5.6387 H   0  0  0  0  0  0  0  0  0  0  0  0
    1.0320   -5.5123   -4.5462 H   0  0  0  0  0  0  0  0  0  0  0  0
    2.2539   -6.2866   -5.6238 H   0  0  0  0  0  0  0  0  0  0  0  0
    4.1545   -2.5370   -4.1426 H   0  0  0  0  0  0  0  0  0  0  0  0
    3.3744   -0.3868   -3.2319 H   0  0  0  0  0  0  0  0  0  0  0  0
    1.6365    2.6754   -0.9271 H   0  0  0  0  0  0  0  0  0  0  0  0
    1.9448    4.4859   -2.5327 H   0  0  0  0  0  0  0  0  0  0  0  0
    0.0275    5.6476   -4.6194 H   0  0  0  0  0  0  0  0  0  0  0  0
   -0.3328    4.5051   -5.9955 H   0  0  0  0  0  0  0  0  0  0  0  0
    0.4263    6.1136   -6.3160 H   0  0  0  0  0  0  0  0  0  0  0  0
    0.9906    1.8310   -5.7735 H   0  0  0  0  0  0  0  0  0  0  0  0
    0.6860   -0.0086   -4.1822 H   0  0  0  0  0  0  0  0  0  0  0  0
   -2.3436    1.4434    1.7181 H   0  0  0  0  0  0  0  0  0  0  0  0
   -3.8139    3.2043    2.5923 H   0  0  0  0  0  0  0  0  0  0  0  0
   -6.8718    3.1293    2.4326 H   0  0  0  0  0  0  0  0  0  0  0  0
   -8.1024    3.3874    3.7283 H   0  0  0  0  0  0  0  0  0  0  0  0
   -7.4264    1.7381    3.4550 H   0  0  0  0  0  0  0  0  0  0  0  0
   -5.5288    0.4081    5.3768 H   0  0  0  0  0  0  0  0  0  0  0  0
   -4.0406   -1.3576    4.5322 H   0  0  0  0  0  0  0  0  0  0  0  0
   -0.8504   -0.7122    4.7863 H   0  0  0  0  0  0  0  0  0  0  0  0
    0.2261   -2.4076    6.2130 H   0  0  0  0  0  0  0  0  0  0  0  0
   -1.9373   -5.8689    6.5832 H   0  0  0  0  0  0  0  0  0  0  0  0
   -1.1982   -4.7225    7.7837 H   0  0  0  0  0  0  0  0  0  0  0  0
   -0.7711   -6.4784    7.8174 H   0  0  0  0  0  0  0  0  0  0  0  0
   -1.3927   -5.5278    3.7308 H   0  0  0  0  0  0  0  0  0  0  0  0
   -2.4346   -3.8431    2.2780 H   0  0  0  0  0  0  0  0  0  0  0  0
   -5.2977    0.9535   -1.7141 H   0  0  0  0  0  0  0  0  0  0  0  0
   -4.4691    3.2485   -2.0796 H   0  0  0  0  0  0  0  0  0  0  0  0
   -3.6305    5.8192   -5.5637 H   0  0  0  0  0  0  0  0  0  0  0  0
   -3.4609    4.1366   -6.1915 H   0  0  0  0  0  0  0  0  0  0  0  0
   -4.7688    4.5382   -4.9987 H   0  0  0  0  0  0  0  0  0  0  0  0
   -2.0144    1.8419   -5.3266 H   0  0  0  0  0  0  0  0  0  0  0  0
   -2.8690   -0.4575   -4.9806 H   0  0  0  0  0  0  0  0  0  0  0  0
   -7.1499   -0.5779   -2.8192 H   0  0  0  0  0  0  0  0  0  0  0  0
   -9.0149   -1.3701   -4.2242 H   0  0  0  0  0  0  0  0  0  0  0  0
   -8.0886   -1.6719   -8.1293 H   0  0  0  0  0  0  0  0  0  0  0  0
   -9.8868   -1.7397   -8.3039 H   0  0  0  0  0  0  0  0  0  0  0  0
   -9.1558   -0.7711   -6.9738 H   0  0  0  0  0  0  0  0  0  0  0  0
   -6.2660   -3.7684   -6.5140 H   0  0  0  0  0  0  0  0  0  0  0  0
   -4.4036   -3.0011   -5.0785 H   0  0  0  0  0  0  0  0  0  0  0  0
   -7.2119   -3.0466   -1.4610 H   0  0  0  0  0  0  0  0  0  0  0  0
   -6.9327   -5.3566   -1.8971 H   0  0  0  0  0  0  0  0  0  0  0  0
   -3.8428   -4.8671   -1.9577 H   0  0  0  0  0  0  0  0  0  0  0  0
   -5.5709   -7.3057   -1.3543 H   0  0  0  0  0  0  0  0  0  0  0  0
   -3.6576   -8.5565   -2.1375 H   0  0  0  0  0  0  0  0  0  0  0  0
    2.0102   -8.7824   -1.0649 H   0  0  0  0  0  0  0  0  0  0  0  0
  1  2  2  3
  2  3  1  0
  3  4  2  0
  3  5  1  0
  5  6  2  0
  6  7  1  0
  7  8  2  0
  8  9  1  0
  9 10  2  0
 10 11  1  0
 11 12  2  3
 12 13  1  0
 13 14  3  0
 12 15  1  0
 15 16  3  0
  8 17  1  0
 17 18  1  0
 18 19  1  0
 19 20  2  0
 20 21  1  0
 21 22  1  0
 21 23  1  0
  1 24  1  0
 24 25  2  0
 25 26  1  0
 26 27  1  0
 27 28  2  0
 28 29  1  0
 29 30  2  0
 30 31  1  0
 31 32  1  0
 30 33  1  0
 33 34  2  0
 26 35  1  0
 35 36  2  0
 36 37  1  0
 37 38  2  0
 38 39  1  0
 39 40  1  0
 38 41  1  0
 41 42  2  0
 25 43  1  0
 43 44  1  0
 44 45  1  0
 45 46  2  0
 46 47  1  0
 47 48  1  0
 48 49  2  0
 49 50  1  0
 50 51  2  0
 51 52  1  0
 52 53  1  0
 51 54  1  0
 54 55  2  0
 47 56  1  0
 56 57  2  0
 57 58  1  0
 58 59  2  0
 59 60  1  0
 60 61  1  0
 59 62  1  0
 62 63  2  0
 46 64  1  0
 64 65  1  0
 45 66  1  0
 66 67  2  0
 67 68  1  0
 68 69  1  0
 69 70  2  0
 70 71  1  0
 71 72  2  0
 72 73  1  0
 73 74  1  0
 72 75  1  0
 75 76  2  0
 68 77  1  0
 77 78  2  0
 78 79  1  0
 79 80  2  0
 80 81  1  0
 81 82  1  0
 80 83  1  0
 83 84  2  0
 67 85  1  0
 85 86  1  0
 86 87  1  0
 87 88  2  0
 88 89  1  0
 89 90  1  0
 90 91  2  0
 91 92  1  0
 92 93  2  0
 93 94  1  0
 94 95  1  0
 93 96  1  0
 96 97  2  0
 89 98  1  0
 98 99  2  0
 99100  1  0
100101  2  0
101102  1  0
102103  1  0
101104  1  0
104105  2  0
 88106  1  0
106107  1  0
 87108  1  0
108109  2  3
109110  1  0
110111  2  3
111112  1  0
112113  2  3
113114  1  0
114115  2  0
114116  1  0
116117  1  0
117118  2  0
118119  1  0
119120  1  0
120121  1  0
117122  1  0
122123  2  3
123124  1  0
124125  3  0
123126  1  0
126127  3  0
 11  2  1  0
 23 17  1  0
 65 24  1  0
107 66  1  0
122113  1  0
 10  5  1  0
 22 18  1  0
 34 27  1  0
 42 35  1  0
 64 43  2  0
 76 69  1  0
 84 77  1  0
106 85  2  0
120116  2  0
 23  7  1  0
 55 48  1  0
 63 56  1  0
 97 90  1  0
105 98  1  0
  1128  1  0
  6129  1  0
  9130  1  0
 17131  1  0
 18132  1  0
 19133  1  0
 20134  1  0
 21135  1  0
 22136  1  0
 22137  1  0
 23138  1  0
 28139  1  0
 29140  1  0
 32141  1  0
 32142  1  0
 32143  1  0
 33144  1  0
 34145  1  0
 36146  1  0
 37147  1  0
 40148  1  0
 40149  1  0
 40150  1  0
 41151  1  0
 42152  1  0
 49153  1  0
 50154  1  0
 53155  1  0
 53156  1  0
 53157  1  0
 54158  1  0
 55159  1  0
 57160  1  0
 58161  1  0
 61162  1  0
 61163  1  0
 61164  1  0
 62165  1  0
 63166  1  0
 70167  1  0
 71168  1  0
 74169  1  0
 74170  1  0
 74171  1  0
 75172  1  0
 76173  1  0
 78174  1  0
 79175  1  0
 82176  1  0
 82177  1  0
 82178  1  0
 83179  1  0
 84180  1  0
 91181  1  0
 92182  1  0
 95183  1  0
 95184  1  0
 95185  1  0
 96186  1  0
 97187  1  0
 99188  1  0
100189  1  0
103190  1  0
103191  1  0
103192  1  0
104193  1  0
105194  1  0
108195  1  0
109196  1  0
110197  1  0
111198  1  0
112199  1  0
118200  1  0
M  END

