
     RDKit          3D

143159  0  0  0  0  0  0  0  0999 V2000
    2.0626    0.4669    7.0387 C   0  0  0  0  0  0  0  0  0  0  0  0
    1.4053    1.5043    7.5802 C   0  0  0  0  0  0  0  0  0  0  0  0
    0.0803    1.2930    8.1751 C   0  0  0  0  0  0  0  0  0  0  0  0
   -0.2920    0.2370    8.7513 O   0  0  0  0  0  0  0  0  0  0  0  0
   -0.7497    2.4677    7.9707 C   0  0  0  0  0  0  0  0  0  0  0  0
   -2.0829    2.6802    8.3939 C   0  0  0  0  0  0  0  0  0  0  0  0
   -2.6143    3.8952    8.0120 C   0  0  0  0  0  0  0  0  0  0  0  0
   -1.9022    4.8361    7.2046 C   0  0  0  0  0  0  0  0  0  0  0  0
   -0.5950    4.6404    6.7800 C   0  0  0  0  0  0  0  0  0  0  0  0
   -0.0167    3.4170    7.2277 C   0  0  0  0  0  0  0  0  0  0  0  0
    1.3640    2.8832    7.0126 C   0  0  0  0  0  0  0  0  0  0  0  0
    2.4691    3.5885    6.6722 C   0  0  0  0  0  0  0  0  0  0  0  0
    2.4435    4.9977    6.3668 C   0  0  0  0  0  0  0  0  0  0  0  0
    2.4509    6.1264    6.1139 N   0  0  0  0  0  0  0  0  0  0  0  0
    3.7724    2.9670    6.6663 C   0  0  0  0  0  0  0  0  0  0  0  0
    4.8126    2.4658    6.6614 N   0  0  0  0  0  0  0  0  0  0  0  0
   -3.0753    5.7621    7.2240 C   0  0  0  0  0  0  0  0  0  0  0  0
   -3.9940    5.8378    5.9552 C   0  0  0  0  0  0  0  0  0  0  0  0
   -4.0617    4.4965    5.2607 C   0  0  0  0  0  0  0  0  0  0  0  0
   -4.7271    3.6740    6.0784 C   0  0  0  0  0  0  0  0  0  0  0  0
   -5.0822    4.4813    7.3072 C   0  0  0  0  0  0  0  0  0  0  0  0
   -5.3536    5.8173    6.6356 C   0  0  0  0  0  0  0  0  0  0  0  0
   -3.7829    4.8375    8.1033 C   0  0  0  0  0  0  0  0  0  0  0  0
    1.9019   -0.0018    5.6433 C   0  0  0  0  0  0  0  0  0  0  0  0
    1.9116    0.8880    4.5458 C   0  0  0  0  0  0  0  0  0  0  0  0
    1.7342    0.4239    3.2388 C   0  0  0  0  0  0  0  0  0  0  0  0
    1.7282    1.3200    2.2259 F   0  0  0  0  0  0  0  0  0  0  0  0
    1.4991   -0.9346    2.9856 C   0  0  0  0  0  0  0  0  0  0  0  0
    1.5800   -1.8413    4.0451 C   0  0  0  0  0  0  0  0  0  0  0  0
    1.7827   -1.3737    5.3788 C   0  0  0  0  0  0  0  0  0  0  0  0
    1.8869   -2.3293    6.3403 N   0  0  0  0  0  0  0  0  0  0  0  0
    1.6845   -3.6956    5.4331 S   0  0  0  0  0  0  0  0  0  0  0  0
    1.4733   -3.1857    3.8789 N   0  0  0  0  0  0  0  0  0  0  0  0
    1.1962   -1.3756    1.6241 C   0  0  0  0  0  0  0  0  0  0  0  0
   -0.0493   -1.2368    0.9988 C   0  0  0  0  0  0  0  0  0  0  0  0
   -1.2484   -0.7686    1.6289 N   0  0  0  0  0  0  0  0  0  0  0  0
   -1.2988    0.6023    2.0341 C   0  0  0  0  0  0  0  0  0  0  0  0
   -1.1531    1.6118    1.0732 C   0  0  0  0  0  0  0  0  0  0  0  0
   -1.1350    2.9477    1.4566 C   0  0  0  0  0  0  0  0  0  0  0  0
   -1.2222    3.2880    2.8129 C   0  0  0  0  0  0  0  0  0  0  0  0
   -1.1301    5.0148    3.2893 S   0  0  0  0  0  0  0  0  0  0  0  0
    0.6854    5.0187    3.3964 C   0  0  0  0  0  0  0  0  0  0  0  0
   -1.3959    2.2833    3.7832 C   0  0  0  0  0  0  0  0  0  0  0  0
   -1.4501    0.9422    3.3866 C   0  0  0  0  0  0  0  0  0  0  0  0
   -2.4533   -1.5530    1.5007 C   0  0  0  0  0  0  0  0  0  0  0  0
   -2.3895   -2.9579    1.5462 C   0  0  0  0  0  0  0  0  0  0  0  0
   -3.5022   -3.7274    1.2016 C   0  0  0  0  0  0  0  0  0  0  0  0
   -4.7000   -3.1093    0.8295 C   0  0  0  0  0  0  0  0  0  0  0  0
   -6.1102   -4.1068    0.3452 S   0  0  0  0  0  0  0  0  0  0  0  0
   -5.6612   -4.0907   -1.4187 C   0  0  0  0  0  0  0  0  0  0  0  0
   -4.7918   -1.7106    0.8448 C   0  0  0  0  0  0  0  0  0  0  0  0
   -3.6780   -0.9362    1.1793 C   0  0  0  0  0  0  0  0  0  0  0  0
    0.0142   -1.6156   -0.3322 C   0  0  0  0  0  0  0  0  0  0  0  0
   -1.0905   -1.6513   -1.5822 S   0  0  0  0  0  0  0  0  0  0  0  0
    0.0090   -2.2954   -2.7054 C   0  0  0  0  0  0  0  0  0  0  0  0
    1.2651   -2.4628   -2.0794 C   0  0  0  0  0  0  0  0  0  0  0  0
    2.4240   -3.0712   -2.6726 N   0  0  0  0  0  0  0  0  0  0  0  0
    3.5670   -2.2412   -2.9728 C   0  0  0  0  0  0  0  0  0  0  0  0
    4.8660   -2.6701   -2.6433 C   0  0  0  0  0  0  0  0  0  0  0  0
    5.9780   -1.8778   -2.9429 C   0  0  0  0  0  0  0  0  0  0  0  0
    5.8035   -0.6219   -3.5350 C   0  0  0  0  0  0  0  0  0  0  0  0
    7.2328    0.3924   -3.9157 S   0  0  0  0  0  0  0  0  0  0  0  0
    7.3613    1.0765   -2.2326 C   0  0  0  0  0  0  0  0  0  0  0  0
    4.5102   -0.1696   -3.8368 C   0  0  0  0  0  0  0  0  0  0  0  0
    3.3981   -0.9757   -3.5577 C   0  0  0  0  0  0  0  0  0  0  0  0
    2.5204   -4.5118   -2.7038 C   0  0  0  0  0  0  0  0  0  0  0  0
    3.1948   -5.1538   -3.7573 C   0  0  0  0  0  0  0  0  0  0  0  0
    3.1983   -6.5459   -3.8514 C   0  0  0  0  0  0  0  0  0  0  0  0
    2.5156   -7.3144   -2.9049 C   0  0  0  0  0  0  0  0  0  0  0  0
    2.4233   -9.0935   -3.0819 S   0  0  0  0  0  0  0  0  0  0  0  0
    0.9023   -9.0226   -4.0793 C   0  0  0  0  0  0  0  0  0  0  0  0
    1.8666   -6.6933   -1.8326 C   0  0  0  0  0  0  0  0  0  0  0  0
    1.8736   -5.2978   -1.7298 C   0  0  0  0  0  0  0  0  0  0  0  0
    1.2227   -2.0549   -0.7489 C   0  0  0  0  0  0  0  0  0  0  0  0
    2.3320   -2.0190    0.5254 S   0  0  0  0  0  0  0  0  0  0  0  0
   -0.3666   -2.6019   -4.0989 C   0  0  0  0  0  0  0  0  0  0  0  0
   -0.1909   -3.8878   -4.6234 C   0  0  0  0  0  0  0  0  0  0  0  0
   -0.7132   -4.2389   -5.8730 C   0  0  0  0  0  0  0  0  0  0  0  0
   -0.5290   -5.5067   -6.3297 F   0  0  0  0  0  0  0  0  0  0  0  0
   -1.4271   -3.3053   -6.6470 C   0  0  0  0  0  0  0  0  0  0  0  0
   -1.6368   -2.0263   -6.1312 C   0  0  0  0  0  0  0  0  0  0  0  0
   -1.0993   -1.6629   -4.8603 C   0  0  0  0  0  0  0  0  0  0  0  0
   -1.3738   -0.4062   -4.4237 N   0  0  0  0  0  0  0  0  0  0  0  0
   -2.3023    0.1510   -5.6701 S   0  0  0  0  0  0  0  0  0  0  0  0
   -2.3909   -1.0840   -6.7601 N   0  0  0  0  0  0  0  0  0  0  0  0
   -2.0124   -3.7287   -7.9338 C   0  0  0  0  0  0  0  0  0  0  0  0
   -1.7313   -3.1563   -9.1220 C   0  0  0  0  0  0  0  0  0  0  0  0
   -0.7867   -2.0636   -9.4283 C   0  0  0  0  0  0  0  0  0  0  0  0
   -0.2337   -1.2774   -8.6053 O   0  0  0  0  0  0  0  0  0  0  0  0
   -0.6641   -1.9648  -10.8787 C   0  0  0  0  0  0  0  0  0  0  0  0
    0.1648   -1.1393  -11.6271 C   0  0  0  0  0  0  0  0  0  0  0  0
    0.1543   -1.2688  -13.0277 C   0  0  0  0  0  0  0  0  0  0  0  0
    1.2389   -0.2667  -13.9678 Cl  0  0  0  0  0  0  0  0  0  0  0  0
   -0.6811   -2.2446  -13.6400 C   0  0  0  0  0  0  0  0  0  0  0  0
   -0.6850   -2.4643  -15.3875 Cl  0  0  0  0  0  0  0  0  0  0  0  0
   -1.5356   -3.0454  -12.8633 C   0  0  0  0  0  0  0  0  0  0  0  0
   -1.4843   -2.8989  -11.4743 C   0  0  0  0  0  0  0  0  0  0  0  0
   -2.1796   -3.6496  -10.4276 C   0  0  0  0  0  0  0  0  0  0  0  0
   -3.0119   -4.5772  -10.6248 O   0  0  0  0  0  0  0  0  0  0  0  0
    2.7996   -0.0535    7.6668 H   0  0  0  0  0  0  0  0  0  0  0  0
   -2.6266    1.9624    8.9879 H   0  0  0  0  0  0  0  0  0  0  0  0
   -0.0941    5.3747    6.1830 H   0  0  0  0  0  0  0  0  0  0  0  0
   -2.8472    6.7535    7.6832 H   0  0  0  0  0  0  0  0  0  0  0  0
   -3.8092    6.7027    5.2832 H   0  0  0  0  0  0  0  0  0  0  0  0
   -3.7985    4.2703    4.2392 H   0  0  0  0  0  0  0  0  0  0  0  0
   -5.0555    2.6768    5.8384 H   0  0  0  0  0  0  0  0  0  0  0  0
   -5.9088    4.0739    7.9183 H   0  0  0  0  0  0  0  0  0  0  0  0
   -5.5118    6.6585    7.3465 H   0  0  0  0  0  0  0  0  0  0  0  0
   -6.2064    5.7900    5.9165 H   0  0  0  0  0  0  0  0  0  0  0  0
   -3.9552    5.2534    9.1239 H   0  0  0  0  0  0  0  0  0  0  0  0
    2.0665    1.9382    4.6814 H   0  0  0  0  0  0  0  0  0  0  0  0
   -1.0332    1.3593    0.0217 H   0  0  0  0  0  0  0  0  0  0  0  0
   -1.0138    3.7213    0.7085 H   0  0  0  0  0  0  0  0  0  0  0  0
    1.0106    6.0014    3.7938 H   0  0  0  0  0  0  0  0  0  0  0  0
    1.1316    4.8728    2.3916 H   0  0  0  0  0  0  0  0  0  0  0  0
    1.0334    4.2104    4.0725 H   0  0  0  0  0  0  0  0  0  0  0  0
   -1.4610    2.5403    4.8359 H   0  0  0  0  0  0  0  0  0  0  0  0
   -1.5688    0.1642    4.1276 H   0  0  0  0  0  0  0  0  0  0  0  0
   -1.4622   -3.4591    1.8068 H   0  0  0  0  0  0  0  0  0  0  0  0
   -3.4251   -4.8095    1.1996 H   0  0  0  0  0  0  0  0  0  0  0  0
   -6.3818   -4.7185   -1.9791 H   0  0  0  0  0  0  0  0  0  0  0  0
   -4.6398   -4.5003   -1.5689 H   0  0  0  0  0  0  0  0  0  0  0  0
   -5.7073   -3.0557   -1.8103 H   0  0  0  0  0  0  0  0  0  0  0  0
   -5.7132   -1.2210    0.5567 H   0  0  0  0  0  0  0  0  0  0  0  0
   -3.7600    0.1414    1.1339 H   0  0  0  0  0  0  0  0  0  0  0  0
    5.0245   -3.6277   -2.1587 H   0  0  0  0  0  0  0  0  0  0  0  0
    6.9657   -2.2313   -2.7030 H   0  0  0  0  0  0  0  0  0  0  0  0
    7.6174    0.2718   -1.5136 H   0  0  0  0  0  0  0  0  0  0  0  0
    6.4034    1.5574   -1.9410 H   0  0  0  0  0  0  0  0  0  0  0  0
    8.1705    1.8410   -2.2148 H   0  0  0  0  0  0  0  0  0  0  0  0
    4.3691    0.7976   -4.3022 H   0  0  0  0  0  0  0  0  0  0  0  0
    2.4066   -0.6120   -3.8152 H   0  0  0  0  0  0  0  0  0  0  0  0
    3.6839   -4.5623   -4.5226 H   0  0  0  0  0  0  0  0  0  0  0  0
    3.7059   -7.0199   -4.6790 H   0  0  0  0  0  0  0  0  0  0  0  0
    0.1069   -8.4814   -3.5319 H   0  0  0  0  0  0  0  0  0  0  0  0
    0.5614  -10.0567   -4.2771 H   0  0  0  0  0  0  0  0  0  0  0  0
    1.1147   -8.5186   -5.0412 H   0  0  0  0  0  0  0  0  0  0  0  0
    1.3358   -7.2897   -1.0958 H   0  0  0  0  0  0  0  0  0  0  0  0
    1.3515   -4.8445   -0.8947 H   0  0  0  0  0  0  0  0  0  0  0  0
    0.2893   -4.6576   -4.0412 H   0  0  0  0  0  0  0  0  0  0  0  0
   -2.6372   -4.6057   -7.9234 H   0  0  0  0  0  0  0  0  0  0  0  0
    0.8249   -0.4396  -11.1347 H   0  0  0  0  0  0  0  0  0  0  0  0
   -2.1889   -3.7611  -13.3275 H   0  0  0  0  0  0  0  0  0  0  0  0
  1  2  2  3
  2  3  1  0
  3  4  2  0
  3  5  1  0
  5  6  2  0
  6  7  1  0
  7  8  2  0
  8  9  1  0
  9 10  2  0
 10 11  1  0
 11 12  2  3
 12 13  1  0
 13 14  3  0
 12 15  1  0
 15 16  3  0
  8 17  1  0
 17 18  1  0
 18 19  1  0
 19 20  2  0
 20 21  1  0
 21 22  1  0
 21 23  1  0
  1 24  1  0
 24 25  2  0
 25 26  1  0
 26 27  1  0
 26 28  2  0
 28 29  1  0
 29 30  1  0
 30 31  2  0
 31 32  1  0
 32 33  1  0
 28 34  1  0
 34 35  2  0
 35 36  1  0
 36 37  1  0
 37 38  2  0
 38 39  1  0
 39 40  2  0
 40 41  1  0
 41 42  1  0
 40 43  1  0
 43 44  2  0
 36 45  1  0
 45 46  2  0
 46 47  1  0
 47 48  2  0
 48 49  1  0
 49 50  1  0
 48 51  1  0
 51 52  2  0
 35 53  1  0
 53 54  1  0
 54 55  1  0
 55 56  2  0
 56 57  1  0
 57 58  1  0
 58 59  2  0
 59 60  1  0
 60 61  2  0
 61 62  1  0
 62 63  1  0
 61 64  1  0
 64 65  2  0
 57 66  1  0
 66 67  2  0
 67 68  1  0
 68 69  2  0
 69 70  1  0
 70 71  1  0
 69 72  1  0
 72 73  2  0
 56 74  1  0
 74 75  1  0
 55 76  1  0
 76 77  2  0
 77 78  1  0
 78 79  1  0
 78 80  2  0
 80 81  1  0
 81 82  1  0
 82 83  2  0
 83 84  1  0
 84 85  1  0
 80 86  1  0
 86 87  2  3
 87 88  1  0
 88 89  2  0
 88 90  1  0
 90 91  2  0
 91 92  1  0
 92 93  1  0
 92 94  2  0
 94 95  1  0
 94 96  1  0
 96 97  2  0
 97 98  1  0
 98 99  2  0
 11  2  1  0
 23 17  1  0
 30 24  1  0
 75 34  1  0
 82 76  1  0
 98 87  1  0
 10  5  1  0
 22 18  1  0
 33 29  2  0
 44 37  1  0
 52 45  1  0
 74 53  2  0
 85 81  2  0
 97 90  1  0
 23  7  1  0
 65 58  1  0
 73 66  1  0
  1100  1  0
  6101  1  0
  9102  1  0
 17103  1  0
 18104  1  0
 19105  1  0
 20106  1  0
 21107  1  0
 22108  1  0
 22109  1  0
 23110  1  0
 25111  1  0
 38112  1  0
 39113  1  0
 42114  1  0
 42115  1  0
 42116  1  0
 43117  1  0
 44118  1  0
 46119  1  0
 47120  1  0
 50121  1  0
 50122  1  0
 50123  1  0
 51124  1  0
 52125  1  0
 59126  1  0
 60127  1  0
 63128  1  0
 63129  1  0
 63130  1  0
 64131  1  0
 65132  1  0
 67133  1  0
 68134  1  0
 71135  1  0
 71136  1  0
 71137  1  0
 72138  1  0
 73139  1  0
 77140  1  0
 86141  1  0
 91142  1  0
 96143  1  0
M  END

