
     RDKit          3D

157176  0  0  0  0  0  0  0  0999 V2000
   -5.0910   -1.6390   -5.6804 C   0  0  0  0  0  0  0  0  0  0  0  0
   -3.8555   -2.1754   -5.5652 C   0  0  0  0  0  0  0  0  0  0  0  0
   -2.6365   -1.3969   -5.2905 C   0  0  0  0  0  0  0  0  0  0  0  0
   -2.3757   -0.2402   -5.7121 O   0  0  0  0  0  0  0  0  0  0  0  0
   -1.7517   -2.1810   -4.4701 C   0  0  0  0  0  0  0  0  0  0  0  0
   -0.5932   -1.7172   -3.8101 C   0  0  0  0  0  0  0  0  0  0  0  0
   -0.0447   -2.6328   -2.9364 C   0  0  0  0  0  0  0  0  0  0  0  0
   -0.5929   -3.9411   -2.7226 C   0  0  0  0  0  0  0  0  0  0  0  0
   -1.7260   -4.4043   -3.3809 C   0  0  0  0  0  0  0  0  0  0  0  0
   -2.3063   -3.4723   -4.2923 C   0  0  0  0  0  0  0  0  0  0  0  0
   -3.5673   -3.5614   -5.0890 C   0  0  0  0  0  0  0  0  0  0  0  0
   -4.2384   -4.6876   -5.4406 C   0  0  0  0  0  0  0  0  0  0  0  0
   -3.8583   -5.9888   -4.9693 C   0  0  0  0  0  0  0  0  0  0  0  0
   -3.5641   -7.0464   -4.5972 N   0  0  0  0  0  0  0  0  0  0  0  0
   -5.2969   -4.6649   -6.4125 C   0  0  0  0  0  0  0  0  0  0  0  0
   -6.1421   -4.6709   -7.2079 N   0  0  0  0  0  0  0  0  0  0  0  0
    0.4670   -4.2309   -1.6983 C   0  0  0  0  0  0  0  0  0  0  0  0
    1.6386   -5.1792   -2.0982 C   0  0  0  0  0  0  0  0  0  0  0  0
    1.9165   -5.0664   -3.5778 C   0  0  0  0  0  0  0  0  0  0  0  0
    2.4199   -3.8470   -3.7801 C   0  0  0  0  0  0  0  0  0  0  0  0
    2.4667   -3.1679   -2.4294 C   0  0  0  0  0  0  0  0  0  0  0  0
    2.8137   -4.3709   -1.5710 C   0  0  0  0  0  0  0  0  0  0  0  0
    1.0228   -2.8897   -1.9173 C   0  0  0  0  0  0  0  0  0  0  0  0
   -5.3246   -0.2451   -5.2460 C   0  0  0  0  0  0  0  0  0  0  0  0
   -4.9557    0.8453   -6.0458 C   0  0  0  0  0  0  0  0  0  0  0  0
   -4.6057    2.0917   -5.4594 C   0  0  0  0  0  0  0  0  0  0  0  0
   -4.0258    3.0276   -6.3755 N   0  0  0  0  0  0  0  0  0  0  0  0
   -4.0448    2.1754   -7.7240 S   0  0  0  0  0  4  0  0  0  0  0  0
   -4.6678    0.7339   -7.4426 N   0  0  0  0  0  0  0  0  0  0  0  0
   -4.6476    2.2691   -4.0612 C   0  0  0  0  0  0  0  0  0  0  0  0
   -5.2303    1.2416   -3.2924 C   0  0  0  0  0  0  0  0  0  0  0  0
   -5.3982    1.3338   -1.9449 N   0  0  0  0  0  0  0  0  0  0  0  0
   -5.9573   -0.1815   -1.5982 S   0  0  0  0  0  0  0  0  0  0  0  0
   -6.0062   -0.9856   -3.0403 N   0  0  0  0  0  0  0  0  0  0  0  0
   -5.5709   -0.0105   -3.8857 C   0  0  0  0  0  0  0  0  0  0  0  0
   -3.8030    3.2735   -3.3783 C   0  0  0  0  0  0  0  0  0  0  0  0
   -3.3787    4.5103   -3.8355 C   0  0  0  0  0  0  0  0  0  0  0  0
   -2.4793    4.9732   -2.8912 C   0  0  0  0  0  0  0  0  0  0  0  0
   -2.4231    3.9937   -1.9201 C   0  0  0  0  0  0  0  0  0  0  0  0
   -3.2309    3.0163   -2.2276 O   0  0  0  0  0  0  0  0  0  0  0  0
   -1.6076    3.9617   -0.7038 C   0  0  0  0  0  0  0  0  0  0  0  0
   -0.2007    3.9811   -0.6329 C   0  0  0  0  0  0  0  0  0  0  0  0
    0.6753    4.3405   -1.7106 N   0  0  0  0  0  0  0  0  0  0  0  0
    0.6885    5.7048   -2.1861 C   0  0  0  0  0  0  0  0  0  0  0  0
    0.9949    5.9882   -3.5312 C   0  0  0  0  0  0  0  0  0  0  0  0
    0.9609    7.3036   -4.0047 C   0  0  0  0  0  0  0  0  0  0  0  0
    0.5933    8.3478   -3.1505 C   0  0  0  0  0  0  0  0  0  0  0  0
    0.4783   10.0235   -3.7759 S   0  0  0  0  0  0  0  0  0  0  0  0
    2.1612   10.4698   -3.2465 C   0  0  0  0  0  0  0  0  0  0  0  0
    0.2883    8.0815   -1.8131 C   0  0  0  0  0  0  0  0  0  0  0  0
    0.3403    6.7712   -1.3319 C   0  0  0  0  0  0  0  0  0  0  0  0
    1.6564    3.3802   -2.1548 C   0  0  0  0  0  0  0  0  0  0  0  0
    3.0061    3.7532   -2.2982 C   0  0  0  0  0  0  0  0  0  0  0  0
    3.9619    2.8110   -2.6837 C   0  0  0  0  0  0  0  0  0  0  0  0
    3.5806    1.4916   -2.9514 C   0  0  0  0  0  0  0  0  0  0  0  0
    4.8132    0.2821   -3.4481 S   0  0  0  0  0  0  0  0  0  0  0  0
    4.7224    0.7236   -5.2151 C   0  0  0  0  0  0  0  0  0  0  0  0
    2.2407    1.1104   -2.8010 C   0  0  0  0  0  0  0  0  0  0  0  0
    1.2839    2.0477   -2.4049 C   0  0  0  0  0  0  0  0  0  0  0  0
    0.2451    3.5976    0.6278 C   0  0  0  0  0  0  0  0  0  0  0  0
    1.7534    3.4455    1.3608 S   0  0  0  0  0  0  0  0  0  0  0  0
    1.0994    2.9641    2.8579 C   0  0  0  0  0  0  0  0  0  0  0  0
   -0.2974    2.9200    2.7761 C   0  0  0  0  0  0  0  0  0  0  0  0
   -1.1613    2.7044    3.8991 N   0  0  0  0  0  0  0  0  0  0  0  0
   -1.9194    1.4911    3.9754 C   0  0  0  0  0  0  0  0  0  0  0  0
   -1.3152    0.3121    4.4328 C   0  0  0  0  0  0  0  0  0  0  0  0
   -2.0603   -0.8632    4.5430 C   0  0  0  0  0  0  0  0  0  0  0  0
   -3.4132   -0.8710    4.1867 C   0  0  0  0  0  0  0  0  0  0  0  0
   -4.3801   -2.3728    4.3675 S   0  0  0  0  0  0  0  0  0  0  0  0
   -3.9960   -2.9795    2.6969 C   0  0  0  0  0  0  0  0  0  0  0  0
   -4.0199    0.3042    3.7220 C   0  0  0  0  0  0  0  0  0  0  0  0
   -3.2777    1.4863    3.6284 C   0  0  0  0  0  0  0  0  0  0  0  0
   -1.2413    3.6969    4.9451 C   0  0  0  0  0  0  0  0  0  0  0  0
   -1.4384    3.3151    6.2869 C   0  0  0  0  0  0  0  0  0  0  0  0
   -1.4565    4.2762    7.3028 C   0  0  0  0  0  0  0  0  0  0  0  0
   -1.2773    5.6286    6.9897 C   0  0  0  0  0  0  0  0  0  0  0  0
   -1.2551    6.8627    8.2935 S   0  0  0  0  0  0  0  0  0  0  0  0
    0.5369    6.7001    8.5724 C   0  0  0  0  0  0  0  0  0  0  0  0
   -1.1060    6.0202    5.6576 C   0  0  0  0  0  0  0  0  0  0  0  0
   -1.0804    5.0623    4.6430 C   0  0  0  0  0  0  0  0  0  0  0  0
   -0.7360    3.2826    1.5137 C   0  0  0  0  0  0  0  0  0  0  0  0
   -2.2403    3.4451    0.7933 S   0  0  0  0  0  0  0  0  0  0  0  0
    1.8694    2.5146    4.0211 C   0  0  0  0  0  0  0  0  0  0  0  0
    2.2445    1.2245    4.1770 C   0  0  0  0  0  0  0  0  0  0  0  0
    2.1269    0.1989    3.1260 C   0  0  0  0  0  0  0  0  0  0  0  0
    1.7641    0.3848    1.9358 O   0  0  0  0  0  0  0  0  0  0  0  0
    2.4790   -1.0842    3.6724 C   0  0  0  0  0  0  0  0  0  0  0  0
    2.4673   -2.3179    2.9846 C   0  0  0  0  0  0  0  0  0  0  0  0
    2.8268   -3.3960    3.7670 C   0  0  0  0  0  0  0  0  0  0  0  0
    3.1985   -3.2731    5.1432 C   0  0  0  0  0  0  0  0  0  0  0  0
    3.2351   -2.0598    5.8151 C   0  0  0  0  0  0  0  0  0  0  0  0
    2.8242   -0.9338    5.0416 C   0  0  0  0  0  0  0  0  0  0  0  0
    2.6756    0.5114    5.4351 C   0  0  0  0  0  0  0  0  0  0  0  0
    2.7612    1.0141    6.6986 C   0  0  0  0  0  0  0  0  0  0  0  0
    2.8675    0.1672    7.8566 C   0  0  0  0  0  0  0  0  0  0  0  0
    2.9092   -0.5105    8.8002 N   0  0  0  0  0  0  0  0  0  0  0  0
    2.5872    2.4080    7.0134 C   0  0  0  0  0  0  0  0  0  0  0  0
    2.4045    3.5213    7.2712 N   0  0  0  0  0  0  0  0  0  0  0  0
    3.4179   -4.7525    5.2339 C   0  0  0  0  0  0  0  0  0  0  0  0
    4.8869   -5.2729    5.2624 C   0  0  0  0  0  0  0  0  0  0  0  0
    5.7862   -4.3380    4.4906 C   0  0  0  0  0  0  0  0  0  0  0  0
    5.4431   -4.4524    3.2065 C   0  0  0  0  0  0  0  0  0  0  0  0
    4.3200   -5.4602    3.1504 C   0  0  0  0  0  0  0  0  0  0  0  0
    4.7820   -6.3995    4.2492 C   0  0  0  0  0  0  0  0  0  0  0  0
    3.0370   -4.8797    3.8228 C   0  0  0  0  0  0  0  0  0  0  0  0
   -5.9499   -2.2854   -5.6408 H   0  0  0  0  0  0  0  0  0  0  0  0
   -0.2064   -0.7125   -3.9273 H   0  0  0  0  0  0  0  0  0  0  0  0
   -2.1390   -5.3693   -3.1527 H   0  0  0  0  0  0  0  0  0  0  0  0
    0.0722   -4.3812   -0.6696 H   0  0  0  0  0  0  0  0  0  0  0  0
    1.5630   -6.2156   -1.7098 H   0  0  0  0  0  0  0  0  0  0  0  0
    1.8176   -5.8502   -4.3242 H   0  0  0  0  0  0  0  0  0  0  0  0
    2.7977   -3.4607   -4.7219 H   0  0  0  0  0  0  0  0  0  0  0  0
    3.1674   -2.3111   -2.3560 H   0  0  0  0  0  0  0  0  0  0  0  0
    2.7606   -4.1658   -0.4750 H   0  0  0  0  0  0  0  0  0  0  0  0
    3.8051   -4.8207   -1.8189 H   0  0  0  0  0  0  0  0  0  0  0  0
    0.9638   -2.2259   -1.0244 H   0  0  0  0  0  0  0  0  0  0  0  0
   -3.6690    5.0128   -4.7476 H   0  0  0  0  0  0  0  0  0  0  0  0
   -1.9472    5.9099   -2.9211 H   0  0  0  0  0  0  0  0  0  0  0  0
    1.2435    5.1862   -4.2169 H   0  0  0  0  0  0  0  0  0  0  0  0
    1.1988    7.5042   -5.0430 H   0  0  0  0  0  0  0  0  0  0  0  0
    2.3938   11.4964   -3.5966 H   0  0  0  0  0  0  0  0  0  0  0  0
    2.9002    9.7651   -3.6850 H   0  0  0  0  0  0  0  0  0  0  0  0
    2.2296   10.4419   -2.1377 H   0  0  0  0  0  0  0  0  0  0  0  0
    0.0011    8.8836   -1.1471 H   0  0  0  0  0  0  0  0  0  0  0  0
    0.0989    6.5905   -0.2936 H   0  0  0  0  0  0  0  0  0  0  0  0
    3.3227    4.7655   -2.0888 H   0  0  0  0  0  0  0  0  0  0  0  0
    4.9992    3.1148   -2.7791 H   0  0  0  0  0  0  0  0  0  0  0  0
    5.0536    1.7731   -5.3626 H   0  0  0  0  0  0  0  0  0  0  0  0
    5.3989    0.0622   -5.7973 H   0  0  0  0  0  0  0  0  0  0  0  0
    3.6859    0.5946   -5.5939 H   0  0  0  0  0  0  0  0  0  0  0  0
    1.9433    0.0867   -2.9990 H   0  0  0  0  0  0  0  0  0  0  0  0
    0.2548    1.7361   -2.2984 H   0  0  0  0  0  0  0  0  0  0  0  0
   -0.2785    0.3107    4.7227 H   0  0  0  0  0  0  0  0  0  0  0  0
   -1.5841   -1.7649    4.9072 H   0  0  0  0  0  0  0  0  0  0  0  0
   -2.8984   -3.0681    2.5572 H   0  0  0  0  0  0  0  0  0  0  0  0
   -4.4145   -2.2872    1.9360 H   0  0  0  0  0  0  0  0  0  0  0  0
   -4.4541   -3.9795    2.5586 H   0  0  0  0  0  0  0  0  0  0  0  0
   -5.0697    0.3061    3.4571 H   0  0  0  0  0  0  0  0  0  0  0  0
   -3.7593    2.3935    3.2899 H   0  0  0  0  0  0  0  0  0  0  0  0
   -1.5539    2.2725    6.5544 H   0  0  0  0  0  0  0  0  0  0  0  0
   -1.5897    3.9694    8.3344 H   0  0  0  0  0  0  0  0  0  0  0  0
    1.0886    6.8881    7.6272 H   0  0  0  0  0  0  0  0  0  0  0  0
    0.7665    5.6798    8.9466 H   0  0  0  0  0  0  0  0  0  0  0  0
    0.8576    7.4482    9.3295 H   0  0  0  0  0  0  0  0  0  0  0  0
   -0.9759    7.0640    5.4042 H   0  0  0  0  0  0  0  0  0  0  0  0
   -0.9315    5.3907    3.6229 H   0  0  0  0  0  0  0  0  0  0  0  0
    1.9516    3.2365    4.8087 H   0  0  0  0  0  0  0  0  0  0  0  0
    2.2069   -2.4171    1.9403 H   0  0  0  0  0  0  0  0  0  0  0  0
    3.5617   -2.0260    6.8368 H   0  0  0  0  0  0  0  0  0  0  0  0
    2.7223   -5.2728    5.9301 H   0  0  0  0  0  0  0  0  0  0  0  0
    5.2662   -5.5686    6.2656 H   0  0  0  0  0  0  0  0  0  0  0  0
    6.6241   -3.7646    4.8762 H   0  0  0  0  0  0  0  0  0  0  0  0
    5.9554   -3.9878    2.3691 H   0  0  0  0  0  0  0  0  0  0  0  0
    4.1568   -5.9305    2.1577 H   0  0  0  0  0  0  0  0  0  0  0  0
    4.0303   -7.1774    4.5205 H   0  0  0  0  0  0  0  0  0  0  0  0
    5.7622   -6.8890    4.0318 H   0  0  0  0  0  0  0  0  0  0  0  0
    2.1128   -5.4765    3.6640 H   0  0  0  0  0  0  0  0  0  0  0  0
  1  2  2  3
  2  3  1  0
  3  4  2  0
  3  5  1  0
  5  6  2  0
  6  7  1  0
  7  8  2  0
  8  9  1  0
  9 10  2  0
 10 11  1  0
 11 12  2  3
 12 13  1  0
 13 14  3  0
 12 15  1  0
 15 16  3  0
  8 17  1  0
 17 18  1  0
 18 19  1  0
 19 20  2  0
 20 21  1  0
 21 22  1  0
 21 23  1  0
  1 24  1  0
 24 25  2  0
 25 26  1  0
 26 27  1  0
 27 28  2  0
 28 29  2  0
 26 30  2  0
 30 31  1  0
 31 32  2  0
 32 33  1  0
 33 34  1  0
 34 35  2  0
 30 36  1  0
 36 37  2  0
 37 38  1  0
 38 39  2  0
 39 40  1  0
 39 41  1  0
 41 42  2  0
 42 43  1  0
 43 44  1  0
 44 45  2  0
 45 46  1  0
 46 47  2  0
 47 48  1  0
 48 49  1  0
 47 50  1  0
 50 51  2  0
 43 52  1  0
 52 53  2  0
 53 54  1  0
 54 55  2  0
 55 56  1  0
 56 57  1  0
 55 58  1  0
 58 59  2  0
 42 60  1  0
 60 61  1  0
 61 62  1  0
 62 63  2  0
 63 64  1  0
 64 65  1  0
 65 66  2  0
 66 67  1  0
 67 68  2  0
 68 69  1  0
 69 70  1  0
 68 71  1  0
 71 72  2  0
 64 73  1  0
 73 74  2  0
 74 75  1  0
 75 76  2  0
 76 77  1  0
 77 78  1  0
 76 79  1  0
 79 80  2  0
 63 81  1  0
 81 82  1  0
 62 83  1  0
 83 84  2  3
 84 85  1  0
 85 86  2  0
 85 87  1  0
 87 88  2  0
 88 89  1  0
 89 90  2  0
 90 91  1  0
 91 92  2  0
 92 93  1  0
 93 94  2  3
 94 95  1  0
 95 96  3  0
 94 97  1  0
 97 98  3  0
 90 99  1  0
 99100  1  0
100101  1  0
101102  2  0
102103  1  0
103104  1  0
103105  1  0
 11  2  1  0
 23 17  1  0
 35 24  1  0
 40 36  1  0
 82 41  1  0
 93 84  1  0
105 99  1  0
 10  5  1  0
 22 18  1  0
 29 25  1  0
 35 31  1  0
 51 44  1  0
 59 52  1  0
 81 60  2  0
 92 87  1  0
104100  1  0
 23  7  1  0
 72 65  1  0
 80 73  1  0
105 89  1  0
  1106  1  0
  6107  1  0
  9108  1  0
 17109  1  0
 18110  1  0
 19111  1  0
 20112  1  0
 21113  1  0
 22114  1  0
 22115  1  0
 23116  1  0
 37117  1  0
 38118  1  0
 45119  1  0
 46120  1  0
 49121  1  0
 49122  1  0
 49123  1  0
 50124  1  0
 51125  1  0
 53126  1  0
 54127  1  0
 57128  1  0
 57129  1  0
 57130  1  0
 58131  1  0
 59132  1  0
 66133  1  0
 67134  1  0
 70135  1  0
 70136  1  0
 70137  1  0
 71138  1  0
 72139  1  0
 74140  1  0
 75141  1  0
 78142  1  0
 78143  1  0
 78144  1  0
 79145  1  0
 80146  1  0
 83147  1  0
 88148  1  0
 91149  1  0
 99150  1  0
100151  1  0
101152  1  0
102153  1  0
103154  1  0
104155  1  0
104156  1  0
105157  1  0
M  END

