
     RDKit          3D

181199  0  0  0  0  0  0  0  0999 V2000
   -2.2231   -3.9750    2.7289 C   0  0  0  0  0  0  0  0  0  0  0  0
   -2.9971   -2.9092    2.4304 C   0  0  0  0  0  0  0  0  0  0  0  0
   -2.7955   -2.0239    1.2732 C   0  0  0  0  0  0  0  0  0  0  0  0
   -1.8394   -2.0637    0.4506 O   0  0  0  0  0  0  0  0  0  0  0  0
   -3.9248   -1.1411    1.1568 C   0  0  0  0  0  0  0  0  0  0  0  0
   -4.1519   -0.2073    0.1204 C   0  0  0  0  0  0  0  0  0  0  0  0
   -5.3531    0.4643    0.2242 C   0  0  0  0  0  0  0  0  0  0  0  0
   -6.2953    0.2181    1.2740 C   0  0  0  0  0  0  0  0  0  0  0  0
   -6.0867   -0.7109    2.2802 C   0  0  0  0  0  0  0  0  0  0  0  0
   -4.8364   -1.3958    2.2109 C   0  0  0  0  0  0  0  0  0  0  0  0
   -4.2638   -2.4577    3.0985 C   0  0  0  0  0  0  0  0  0  0  0  0
   -4.6762   -2.7596    4.3618 C   0  0  0  0  0  0  0  0  0  0  0  0
   -5.8235   -2.1405    4.9741 C   0  0  0  0  0  0  0  0  0  0  0  0
   -6.7404   -1.6497    5.4871 N   0  0  0  0  0  0  0  0  0  0  0  0
   -3.9468   -3.6450    5.2341 C   0  0  0  0  0  0  0  0  0  0  0  0
   -3.3862   -4.3670    5.9438 N   0  0  0  0  0  0  0  0  0  0  0  0
   -7.2175    1.2556    0.7089 C   0  0  0  0  0  0  0  0  0  0  0  0
   -7.2771    2.6153    1.4658 C   0  0  0  0  0  0  0  0  0  0  0  0
   -7.9340    3.5878    0.5145 C   0  0  0  0  0  0  0  0  0  0  0  0
   -7.0502    3.8148   -0.4635 C   0  0  0  0  0  0  0  0  0  0  0  0
   -5.8324    2.9861   -0.1431 C   0  0  0  0  0  0  0  0  0  0  0  0
   -5.8468    3.1258    1.3698 C   0  0  0  0  0  0  0  0  0  0  0  0
   -6.2531    1.5046   -0.3671 C   0  0  0  0  0  0  0  0  0  0  0  0
   -0.9231   -4.2052    2.0737 C   0  0  0  0  0  0  0  0  0  0  0  0
    0.3859   -3.1887    2.2948 S   0  0  0  0  0  0  0  0  0  0  0  0
    1.2394   -3.5710    0.8945 C   0  0  0  0  0  0  0  0  0  0  0  0
    0.4915   -4.5547    0.2253 C   0  0  0  0  0  0  0  0  0  0  0  0
    0.8420   -5.1770   -1.0689 C   0  0  0  0  0  0  0  0  0  0  0  0
    1.9911   -5.0184   -1.5595 O   0  0  0  0  0  0  0  0  0  0  0  0
   -0.1704   -6.0316   -1.7418 C   0  0  0  0  0  0  0  0  0  0  0  0
   -0.0415   -6.6255   -3.0048 C   0  0  0  0  0  0  0  0  0  0  0  0
    1.1417   -6.6036   -3.9217 C   0  0  0  0  0  0  0  0  0  0  0  0
    2.1812   -7.6301   -3.4906 C   0  0  0  0  0  0  0  0  0  0  0  0
   -1.4486   -7.4860   -3.3237 S   0  0  0  0  0  0  0  0  0  0  0  0
   -2.2616   -7.1021   -1.9032 C   0  0  0  0  0  0  0  0  0  0  0  0
   -3.6477   -7.5841   -1.5792 C   0  0  0  0  0  0  0  0  0  0  0  0
   -3.6066   -8.8496   -0.7298 C   0  0  0  0  0  0  0  0  0  0  0  0
   -1.4120   -6.3068   -1.1212 C   0  0  0  0  0  0  0  0  0  0  0  0
   -1.7089   -5.7807    0.2305 C   0  0  0  0  0  0  0  0  0  0  0  0
   -2.7710   -6.0930    0.8320 O   0  0  0  0  0  0  0  0  0  0  0  0
   -0.7200   -4.8909    0.8756 C   0  0  0  0  0  0  0  0  0  0  0  0
    2.1596   -2.5811    0.2905 C   0  0  0  0  0  0  0  0  0  0  0  0
    2.7772   -1.5803    1.0682 C   0  0  0  0  0  0  0  0  0  0  0  0
    3.3638   -1.8438    2.3620 N   0  0  0  0  0  0  0  0  0  0  0  0
    4.0750   -3.0847    2.5724 C   0  0  0  0  0  0  0  0  0  0  0  0
    3.9018   -3.8108    3.7645 C   0  0  0  0  0  0  0  0  0  0  0  0
    4.6184   -4.9917    3.9814 C   0  0  0  0  0  0  0  0  0  0  0  0
    5.5262   -5.4524    3.0177 C   0  0  0  0  0  0  0  0  0  0  0  0
    6.4540   -6.9623    3.3043 S   0  0  0  0  0  0  0  0  0  0  0  0
    7.7963   -6.1211    4.2073 C   0  0  0  0  0  0  0  0  0  0  0  0
    5.7037   -4.7330    1.8279 C   0  0  0  0  0  0  0  0  0  0  0  0
    4.9829   -3.5573    1.6050 C   0  0  0  0  0  0  0  0  0  0  0  0
    3.5482   -0.8096    3.3357 C   0  0  0  0  0  0  0  0  0  0  0  0
    2.6229   -0.6676    4.3784 C   0  0  0  0  0  0  0  0  0  0  0  0
    2.9073    0.1764    5.4531 C   0  0  0  0  0  0  0  0  0  0  0  0
    4.1004    0.9075    5.4780 C   0  0  0  0  0  0  0  0  0  0  0  0
    4.4776    1.9643    6.8776 S   0  0  0  0  0  0  0  0  0  0  0  0
    5.1999    0.6055    7.8546 C   0  0  0  0  0  0  0  0  0  0  0  0
    5.0099    0.7986    4.4165 C   0  0  0  0  0  0  0  0  0  0  0  0
    4.7445   -0.0760    3.3584 C   0  0  0  0  0  0  0  0  0  0  0  0
    2.8815   -0.3791    0.3569 C   0  0  0  0  0  0  0  0  0  0  0  0
    3.0704    1.2307    0.7706 S   0  0  0  0  0  0  0  0  0  0  0  0
    2.7270    1.8676   -0.7802 C   0  0  0  0  0  0  0  0  0  0  0  0
    2.4737    0.7659   -1.6360 C   0  0  0  0  0  0  0  0  0  0  0  0
    2.4776    0.8252   -3.0748 N   0  0  0  0  0  0  0  0  0  0  0  0
    3.7592    0.6494   -3.7255 C   0  0  0  0  0  0  0  0  0  0  0  0
    4.8969    1.3521   -3.2713 C   0  0  0  0  0  0  0  0  0  0  0  0
    6.1580    1.0801   -3.8037 C   0  0  0  0  0  0  0  0  0  0  0  0
    6.3032    0.1177   -4.8097 C   0  0  0  0  0  0  0  0  0  0  0  0
    7.9425   -0.3244   -5.3964 S   0  0  0  0  0  0  0  0  0  0  0  0
    8.0348    1.0203   -6.6154 C   0  0  0  0  0  0  0  0  0  0  0  0
    5.1768   -0.5591   -5.2942 C   0  0  0  0  0  0  0  0  0  0  0  0
    3.9124   -0.3022   -4.7511 C   0  0  0  0  0  0  0  0  0  0  0  0
    1.2431    0.8430   -3.8355 C   0  0  0  0  0  0  0  0  0  0  0  0
    1.2238    1.3853   -5.1348 C   0  0  0  0  0  0  0  0  0  0  0  0
    0.0564    1.3634   -5.8996 C   0  0  0  0  0  0  0  0  0  0  0  0
   -1.1123    0.8050   -5.3783 C   0  0  0  0  0  0  0  0  0  0  0  0
   -2.5959    0.7510   -6.3827 S   0  0  0  0  0  0  0  0  0  0  0  0
   -2.2691   -0.9329   -6.9932 C   0  0  0  0  0  0  0  0  0  0  0  0
   -1.1214    0.3016   -4.0744 C   0  0  0  0  0  0  0  0  0  0  0  0
    0.0419    0.3305   -3.3005 C   0  0  0  0  0  0  0  0  0  0  0  0
    2.5234   -0.4445   -0.9481 C   0  0  0  0  0  0  0  0  0  0  0  0
    1.9282   -1.9702   -1.2886 S   0  0  0  0  0  0  0  0  0  0  0  0
    2.4296    3.2972   -1.1076 C   0  0  0  0  0  0  0  0  0  0  0  0
    1.8552    3.7540   -2.6242 S   0  0  0  0  0  0  0  0  0  0  0  0
    1.1099    5.1853   -2.1983 C   0  0  0  0  0  0  0  0  0  0  0  0
    1.3139    5.3708   -0.8329 C   0  0  0  0  0  0  0  0  0  0  0  0
    0.6965    6.4479   -0.0266 C   0  0  0  0  0  0  0  0  0  0  0  0
    0.0829    7.3941   -0.5893 O   0  0  0  0  0  0  0  0  0  0  0  0
    0.8114    6.3768    1.4487 C   0  0  0  0  0  0  0  0  0  0  0  0
    0.1256    7.1717    2.3767 C   0  0  0  0  0  0  0  0  0  0  0  0
   -0.9293    8.2101    2.1158 C   0  0  0  0  0  0  0  0  0  0  0  0
   -2.2863    7.5576    1.8655 C   0  0  0  0  0  0  0  0  0  0  0  0
    0.4765    6.5899    3.9138 S   0  0  0  0  0  0  0  0  0  0  0  0
    1.5424    5.3765    3.4443 C   0  0  0  0  0  0  0  0  0  0  0  0
    1.9973    4.2856    4.3672 C   0  0  0  0  0  0  0  0  0  0  0  0
    1.0390    3.1032    4.2840 C   0  0  0  0  0  0  0  0  0  0  0  0
    1.6167    5.3861    2.0475 C   0  0  0  0  0  0  0  0  0  0  0  0
    2.4111    4.4557    1.2142 C   0  0  0  0  0  0  0  0  0  0  0  0
    3.4337    3.8960    1.6905 O   0  0  0  0  0  0  0  0  0  0  0  0
    2.0857    4.3483   -0.2258 C   0  0  0  0  0  0  0  0  0  0  0  0
    0.0630    5.8095   -3.0153 C   0  0  0  0  0  0  0  0  0  0  0  0
   -1.1744    5.2790   -3.1214 C   0  0  0  0  0  0  0  0  0  0  0  0
   -1.6177    4.0097   -2.5239 C   0  0  0  0  0  0  0  0  0  0  0  0
   -1.0507    3.3746   -1.5921 O   0  0  0  0  0  0  0  0  0  0  0  0
   -2.8308    3.5928   -3.1861 C   0  0  0  0  0  0  0  0  0  0  0  0
   -3.5371    2.4034   -3.0134 C   0  0  0  0  0  0  0  0  0  0  0  0
   -4.6553    2.1637   -3.8197 C   0  0  0  0  0  0  0  0  0  0  0  0
   -5.0401    3.1080   -4.7865 C   0  0  0  0  0  0  0  0  0  0  0  0
   -6.1085    2.8592   -5.5832 F   0  0  0  0  0  0  0  0  0  0  0  0
   -4.3127    4.2998   -4.9470 C   0  0  0  0  0  0  0  0  0  0  0  0
   -3.2076    4.5487   -4.1147 C   0  0  0  0  0  0  0  0  0  0  0  0
   -2.2670    5.7059   -4.0503 C   0  0  0  0  0  0  0  0  0  0  0  0
   -2.4844    6.9578   -4.5310 C   0  0  0  0  0  0  0  0  0  0  0  0
   -1.6668    8.0807   -4.1487 C   0  0  0  0  0  0  0  0  0  0  0  0
   -1.0169    8.9886   -3.8401 N   0  0  0  0  0  0  0  0  0  0  0  0
   -3.6262    7.2886   -5.3465 C   0  0  0  0  0  0  0  0  0  0  0  0
   -4.5375    7.5728   -6.0019 N   0  0  0  0  0  0  0  0  0  0  0  0
   -2.5152   -4.6948    3.4723 H   0  0  0  0  0  0  0  0  0  0  0  0
   -3.4540   -0.0484   -0.6935 H   0  0  0  0  0  0  0  0  0  0  0  0
   -6.8462   -0.8885    3.0219 H   0  0  0  0  0  0  0  0  0  0  0  0
   -8.1938    0.8429    0.3679 H   0  0  0  0  0  0  0  0  0  0  0  0
   -7.7129    2.5795    2.4863 H   0  0  0  0  0  0  0  0  0  0  0  0
   -8.8845    4.0955    0.6402 H   0  0  0  0  0  0  0  0  0  0  0  0
   -7.1608    4.5363   -1.2679 H   0  0  0  0  0  0  0  0  0  0  0  0
   -4.8945    3.3040   -0.6436 H   0  0  0  0  0  0  0  0  0  0  0  0
   -5.7247    4.1825    1.7168 H   0  0  0  0  0  0  0  0  0  0  0  0
   -5.1008    2.4940    1.9015 H   0  0  0  0  0  0  0  0  0  0  0  0
   -6.6162    1.2519   -1.3874 H   0  0  0  0  0  0  0  0  0  0  0  0
    0.8121   -6.8372   -4.9543 H   0  0  0  0  0  0  0  0  0  0  0  0
    1.5909   -5.5872   -3.9478 H   0  0  0  0  0  0  0  0  0  0  0  0
    1.7529   -8.6537   -3.5430 H   0  0  0  0  0  0  0  0  0  0  0  0
    3.0593   -7.5817   -4.1699 H   0  0  0  0  0  0  0  0  0  0  0  0
    2.5254   -7.4383   -2.4522 H   0  0  0  0  0  0  0  0  0  0  0  0
   -4.2224   -6.7931   -1.0611 H   0  0  0  0  0  0  0  0  0  0  0  0
   -4.1809   -7.8057   -2.5263 H   0  0  0  0  0  0  0  0  0  0  0  0
   -3.0690   -9.6581   -1.2672 H   0  0  0  0  0  0  0  0  0  0  0  0
   -3.1080   -8.6590    0.2420 H   0  0  0  0  0  0  0  0  0  0  0  0
   -4.6431   -9.1915   -0.5263 H   0  0  0  0  0  0  0  0  0  0  0  0
    3.2076   -3.4645    4.5188 H   0  0  0  0  0  0  0  0  0  0  0  0
    4.4747   -5.5451    4.9003 H   0  0  0  0  0  0  0  0  0  0  0  0
    8.2994   -5.3875    3.5444 H   0  0  0  0  0  0  0  0  0  0  0  0
    8.5316   -6.8776    4.5395 H   0  0  0  0  0  0  0  0  0  0  0  0
    7.3884   -5.6062    5.1039 H   0  0  0  0  0  0  0  0  0  0  0  0
    6.3950   -5.0911    1.0763 H   0  0  0  0  0  0  0  0  0  0  0  0
    5.1443   -3.0045    0.6881 H   0  0  0  0  0  0  0  0  0  0  0  0
    1.7133   -1.2522    4.3814 H   0  0  0  0  0  0  0  0  0  0  0  0
    2.2053    0.2461    6.2760 H   0  0  0  0  0  0  0  0  0  0  0  0
    4.4344   -0.1763    8.0487 H   0  0  0  0  0  0  0  0  0  0  0  0
    5.5535    1.0070    8.8275 H   0  0  0  0  0  0  0  0  0  0  0  0
    6.0633    0.1609    7.3155 H   0  0  0  0  0  0  0  0  0  0  0  0
    5.9347    1.3627    4.4256 H   0  0  0  0  0  0  0  0  0  0  0  0
    5.4739   -0.1985    2.5671 H   0  0  0  0  0  0  0  0  0  0  0  0
    4.8120    2.0985   -2.4956 H   0  0  0  0  0  0  0  0  0  0  0  0
    7.0254    1.6062   -3.4283 H   0  0  0  0  0  0  0  0  0  0  0  0
    7.2597    0.8751   -7.3939 H   0  0  0  0  0  0  0  0  0  0  0  0
    7.8883    2.0006   -6.1076 H   0  0  0  0  0  0  0  0  0  0  0  0
    9.0362    1.0011   -7.0874 H   0  0  0  0  0  0  0  0  0  0  0  0
    5.2896   -1.3102   -6.0730 H   0  0  0  0  0  0  0  0  0  0  0  0
    3.0591   -0.8666   -5.1104 H   0  0  0  0  0  0  0  0  0  0  0  0
    2.1128    1.8312   -5.5565 H   0  0  0  0  0  0  0  0  0  0  0  0
    0.0687    1.7732   -6.9018 H   0  0  0  0  0  0  0  0  0  0  0  0
   -1.2660   -0.9938   -7.4606 H   0  0  0  0  0  0  0  0  0  0  0  0
   -3.0338   -1.2017   -7.7506 H   0  0  0  0  0  0  0  0  0  0  0  0
   -2.3263   -1.6509   -6.1498 H   0  0  0  0  0  0  0  0  0  0  0  0
   -2.0260   -0.1238   -3.6636 H   0  0  0  0  0  0  0  0  0  0  0  0
    0.0016   -0.0687   -2.2948 H   0  0  0  0  0  0  0  0  0  0  0  0
   -0.6476    8.8627    1.2632 H   0  0  0  0  0  0  0  0  0  0  0  0
   -1.0055    8.8707    3.0048 H   0  0  0  0  0  0  0  0  0  0  0  0
   -2.2810    7.0251    0.8925 H   0  0  0  0  0  0  0  0  0  0  0  0
   -2.5296    6.8393    2.6769 H   0  0  0  0  0  0  0  0  0  0  0  0
   -3.0734    8.3420    1.8446 H   0  0  0  0  0  0  0  0  0  0  0  0
    2.0095    4.6680    5.4113 H   0  0  0  0  0  0  0  0  0  0  0  0
    3.0293    3.9612    4.1263 H   0  0  0  0  0  0  0  0  0  0  0  0
    1.3666    2.3076    4.9777 H   0  0  0  0  0  0  0  0  0  0  0  0
    1.0142    2.6942    3.2475 H   0  0  0  0  0  0  0  0  0  0  0  0
    0.0122    3.4191    4.5726 H   0  0  0  0  0  0  0  0  0  0  0  0
    0.3615    6.6599   -3.6011 H   0  0  0  0  0  0  0  0  0  0  0  0
   -3.2190    1.6732   -2.2804 H   0  0  0  0  0  0  0  0  0  0  0  0
   -5.2118    1.2416   -3.7089 H   0  0  0  0  0  0  0  0  0  0  0  0
   -4.6085    4.9762   -5.7307 H   0  0  0  0  0  0  0  0  0  0  0  0
  1  2  2  3
  2  3  1  0
  3  4  2  0
  3  5  1  0
  5  6  2  0
  6  7  1  0
  7  8  2  0
  8  9  1  0
  9 10  2  0
 10 11  1  0
 11 12  2  3
 12 13  1  0
 13 14  3  0
 12 15  1  0
 15 16  3  0
  8 17  1  0
 17 18  1  0
 18 19  1  0
 19 20  2  0
 20 21  1  0
 21 22  1  0
 21 23  1  0
  1 24  1  0
 24 25  1  0
 25 26  1  0
 26 27  2  0
 27 28  1  0
 28 29  2  0
 28 30  1  0
 30 31  2  0
 31 32  1  0
 32 33  1  0
 31 34  1  0
 34 35  1  0
 35 36  1  0
 36 37  1  0
 35 38  2  0
 38 39  1  0
 39 40  2  0
 39 41  1  0
 26 42  1  0
 42 43  2  0
 43 44  1  0
 44 45  1  0
 45 46  2  0
 46 47  1  0
 47 48  2  0
 48 49  1  0
 49 50  1  0
 48 51  1  0
 51 52  2  0
 44 53  1  0
 53 54  2  0
 54 55  1  0
 55 56  2  0
 56 57  1  0
 57 58  1  0
 56 59  1  0
 59 60  2  0
 43 61  1  0
 61 62  1  0
 62 63  1  0
 63 64  2  0
 64 65  1  0
 65 66  1  0
 66 67  2  0
 67 68  1  0
 68 69  2  0
 69 70  1  0
 70 71  1  0
 69 72  1  0
 72 73  2  0
 65 74  1  0
 74 75  2  0
 75 76  1  0
 76 77  2  0
 77 78  1  0
 78 79  1  0
 77 80  1  0
 80 81  2  0
 64 82  1  0
 82 83  1  0
 63 84  1  0
 84 85  1  0
 85 86  1  0
 86 87  2  0
 87 88  1  0
 88 89  2  0
 88 90  1  0
 90 91  2  0
 91 92  1  0
 92 93  1  0
 91 94  1  0
 94 95  1  0
 95 96  1  0
 96 97  1  0
 95 98  2  0
 98 99  1  0
 99100  2  0
 99101  1  0
 86102  1  0
102103  2  3
103104  1  0
104105  2  0
104106  1  0
106107  2  0
107108  1  0
108109  2  0
109110  1  0
109111  1  0
111112  2  0
112113  1  0
113114  2  3
114115  1  0
115116  3  0
114117  1  0
117118  3  0
 11  2  1  0
 23 17  1  0
 41 24  2  0
 83 42  1  0
101 84  2  0
113103  1  0
 10  5  1  0
 22 18  1  0
 41 27  1  0
 52 45  1  0
 60 53  1  0
 82 61  2  0
101 87  1  0
112106  1  0
 23  7  1  0
 38 30  1  0
 73 66  1  0
 81 74  1  0
 98 90  1  0
  1119  1  0
  6120  1  0
  9121  1  0
 17122  1  0
 18123  1  0
 19124  1  0
 20125  1  0
 21126  1  0
 22127  1  0
 22128  1  0
 23129  1  0
 32130  1  0
 32131  1  0
 33132  1  0
 33133  1  0
 33134  1  0
 36135  1  0
 36136  1  0
 37137  1  0
 37138  1  0
 37139  1  0
 46140  1  0
 47141  1  0
 50142  1  0
 50143  1  0
 50144  1  0
 51145  1  0
 52146  1  0
 54147  1  0
 55148  1  0
 58149  1  0
 58150  1  0
 58151  1  0
 59152  1  0
 60153  1  0
 67154  1  0
 68155  1  0
 71156  1  0
 71157  1  0
 71158  1  0
 72159  1  0
 73160  1  0
 75161  1  0
 76162  1  0
 79163  1  0
 79164  1  0
 79165  1  0
 80166  1  0
 81167  1  0
 92168  1  0
 92169  1  0
 93170  1  0
 93171  1  0
 93172  1  0
 96173  1  0
 96174  1  0
 97175  1  0
 97176  1  0
 97177  1  0
102178  1  0
107179  1  0
108180  1  0
111181  1  0
M  END

