
     RDKit          3D

225247  0  0  0  0  0  0  0  0999 V2000
   -0.2303    3.4665   -6.8694 C   0  0  0  0  0  0  0  0  0  0  0  0
   -1.5332    3.7206   -6.6311 C   0  0  0  0  0  0  0  0  0  0  0  0
   -2.3537    3.0979   -5.5821 C   0  0  0  0  0  0  0  0  0  0  0  0
   -1.9424    2.6601   -4.4749 O   0  0  0  0  0  0  0  0  0  0  0  0
   -3.7406    3.1612   -5.9826 C   0  0  0  0  0  0  0  0  0  0  0  0
   -4.8369    2.5192   -5.3653 C   0  0  0  0  0  0  0  0  0  0  0  0
   -6.0265    2.6538   -6.0555 C   0  0  0  0  0  0  0  0  0  0  0  0
   -6.1361    3.3787   -7.2858 C   0  0  0  0  0  0  0  0  0  0  0  0
   -5.0668    4.0215   -7.8912 C   0  0  0  0  0  0  0  0  0  0  0  0
   -3.8369    3.9074   -7.1865 C   0  0  0  0  0  0  0  0  0  0  0  0
   -2.4790    4.4146   -7.5506 C   0  0  0  0  0  0  0  0  0  0  0  0
   -2.1928    5.4649   -8.3581 C   0  0  0  0  0  0  0  0  0  0  0  0
   -3.2056    6.1482   -9.1158 C   0  0  0  0  0  0  0  0  0  0  0  0
   -4.0114    6.7140   -9.7296 N   0  0  0  0  0  0  0  0  0  0  0  0
   -0.8819    6.0682   -8.3895 C   0  0  0  0  0  0  0  0  0  0  0  0
    0.1641    6.5675   -8.4169 N   0  0  0  0  0  0  0  0  0  0  0  0
   -7.5899    3.0329   -7.3789 C   0  0  0  0  0  0  0  0  0  0  0  0
   -8.6043    4.1648   -7.0444 C   0  0  0  0  0  0  0  0  0  0  0  0
   -9.9340    3.4803   -6.8347 C   0  0  0  0  0  0  0  0  0  0  0  0
   -9.8314    2.8028   -5.6845 C   0  0  0  0  0  0  0  0  0  0  0  0
   -8.4396    3.0536   -5.1596 C   0  0  0  0  0  0  0  0  0  0  0  0
   -8.2826    4.5003   -5.5969 C   0  0  0  0  0  0  0  0  0  0  0  0
   -7.4782    2.2889   -6.1188 C   0  0  0  0  0  0  0  0  0  0  0  0
    0.5275    2.4644   -6.1075 C   0  0  0  0  0  0  0  0  0  0  0  0
    1.7773    2.6579   -5.5064 C   0  0  0  0  0  0  0  0  0  0  0  0
    2.6314    3.7839   -5.7454 N   0  0  0  0  0  0  0  0  0  0  0  0
    3.2503    3.9465   -7.0383 C   0  0  0  0  0  0  0  0  0  0  0  0
    3.6210    2.8230   -7.8068 C   0  0  0  0  0  0  0  0  0  0  0  0
    4.2949    2.9855   -9.0189 C   0  0  0  0  0  0  0  0  0  0  0  0
    4.5923    4.2706   -9.4863 C   0  0  0  0  0  0  0  0  0  0  0  0
    5.4861    4.4822  -11.0290 S   0  0  0  0  0  0  0  0  0  0  0  0
    3.9791    4.4305  -12.0479 C   0  0  0  0  0  0  0  0  0  0  0  0
    4.2028    5.3903   -8.7442 C   0  0  0  0  0  0  0  0  0  0  0  0
    3.5391    5.2318   -7.5259 C   0  0  0  0  0  0  0  0  0  0  0  0
    3.0708    4.5760   -4.6276 C   0  0  0  0  0  0  0  0  0  0  0  0
    2.1292    5.1914   -3.7843 C   0  0  0  0  0  0  0  0  0  0  0  0
    2.5582    5.9977   -2.7259 C   0  0  0  0  0  0  0  0  0  0  0  0
    3.9266    6.1832   -2.4875 C   0  0  0  0  0  0  0  0  0  0  0  0
    4.4719    7.1833   -1.0998 S   0  0  0  0  0  0  0  0  0  0  0  0
    4.7324    8.6783   -2.1045 C   0  0  0  0  0  0  0  0  0  0  0  0
    4.8659    5.5576   -3.3169 C   0  0  0  0  0  0  0  0  0  0  0  0
    4.4403    4.7659   -4.3855 C   0  0  0  0  0  0  0  0  0  0  0  0
    2.1762    1.5201   -4.8117 C   0  0  0  0  0  0  0  0  0  0  0  0
    3.4578    1.1246   -3.8035 S   0  0  0  0  0  0  0  0  0  0  0  0
    2.9251   -0.4695   -3.5051 C   0  0  0  0  0  0  0  0  0  0  0  0
    1.7252   -0.6784   -4.2149 C   0  0  0  0  0  0  0  0  0  0  0  0
    1.0195   -1.9258   -4.3092 N   0  0  0  0  0  0  0  0  0  0  0  0
   -0.2685   -2.0385   -3.6750 C   0  0  0  0  0  0  0  0  0  0  0  0
   -1.4374   -2.1083   -4.4563 C   0  0  0  0  0  0  0  0  0  0  0  0
   -2.6661   -2.4109   -3.8660 C   0  0  0  0  0  0  0  0  0  0  0  0
   -2.7364   -2.6686   -2.4935 C   0  0  0  0  0  0  0  0  0  0  0  0
   -4.2718   -3.2450   -1.7778 S   0  0  0  0  0  0  0  0  0  0  0  0
   -3.9289   -4.9914   -2.1540 C   0  0  0  0  0  0  0  0  0  0  0  0
   -1.5897   -2.5428   -1.6997 C   0  0  0  0  0  0  0  0  0  0  0  0
   -0.3634   -2.2253   -2.2892 C   0  0  0  0  0  0  0  0  0  0  0  0
    1.3316   -2.8523   -5.3832 C   0  0  0  0  0  0  0  0  0  0  0  0
    1.9509   -2.4151   -6.5740 C   0  0  0  0  0  0  0  0  0  0  0  0
    2.0969   -3.2841   -7.6575 C   0  0  0  0  0  0  0  0  0  0  0  0
    1.6274   -4.5993   -7.5721 C   0  0  0  0  0  0  0  0  0  0  0  0
    1.7156   -5.6714   -9.0072 S   0  0  0  0  0  0  0  0  0  0  0  0
    3.3622   -6.3145   -8.5860 C   0  0  0  0  0  0  0  0  0  0  0  0
    1.0533   -5.0576   -6.3815 C   0  0  0  0  0  0  0  0  0  0  0  0
    0.9202   -4.1945   -5.2895 C   0  0  0  0  0  0  0  0  0  0  0  0
    1.3409    0.4605   -4.9100 C   0  0  0  0  0  0  0  0  0  0  0  0
    0.0146    0.8571   -5.8490 S   0  0  0  0  0  0  0  0  0  0  0  0
    3.2187   -1.1482   -2.2431 C   0  0  0  0  0  0  0  0  0  0  0  0
    3.3270   -2.5292   -2.0268 C   0  0  0  0  0  0  0  0  0  0  0  0
    3.7416   -3.4425   -2.9990 O   0  0  0  0  0  0  0  0  0  0  0  0
    4.6337   -3.1348   -4.0717 C   0  0  0  0  0  0  0  0  0  0  0  0
    4.9453   -4.4023   -4.8516 C   0  0  0  0  0  0  0  0  0  0  0  0
    2.9598   -2.9199   -0.7070 C   0  0  0  0  0  0  0  0  0  0  0  0
    2.8697   -4.2377   -0.2259 O   0  0  0  0  0  0  0  0  0  0  0  0
    3.0459   -5.4314   -0.9872 C   0  0  0  0  0  0  0  0  0  0  0  0
    4.5203   -5.8116   -1.0568 C   0  0  0  0  0  0  0  0  0  0  0  0
    2.5968   -1.8378    0.0973 C   0  0  0  0  0  0  0  0  0  0  0  0
    2.6976   -0.4442   -0.8185 S   0  0  0  0  0  0  0  0  0  0  0  0
    1.8241   -1.8942    1.3476 C   0  0  0  0  0  0  0  0  0  0  0  0
    2.0655   -2.7008    2.4746 C   0  0  0  0  0  0  0  0  0  0  0  0
    3.3115   -3.3833    2.7203 N   0  0  0  0  0  0  0  0  0  0  0  0
    3.3295   -4.6567    3.3951 C   0  0  0  0  0  0  0  0  0  0  0  0
    4.2762   -4.9145    4.4035 C   0  0  0  0  0  0  0  0  0  0  0  0
    4.2761   -6.1363    5.0794 C   0  0  0  0  0  0  0  0  0  0  0  0
    3.3217   -7.1140    4.7699 C   0  0  0  0  0  0  0  0  0  0  0  0
    3.3407   -8.4341    5.4861 C   0  0  0  0  0  0  0  0  0  0  0  0
    2.3892   -6.8708    3.7492 C   0  0  0  0  0  0  0  0  0  0  0  0
    2.3870   -5.6484    3.0727 C   0  0  0  0  0  0  0  0  0  0  0  0
    4.5424   -2.6839    2.4421 C   0  0  0  0  0  0  0  0  0  0  0  0
    5.5926   -3.3329    1.7748 C   0  0  0  0  0  0  0  0  0  0  0  0
    6.7527   -2.6326    1.4322 C   0  0  0  0  0  0  0  0  0  0  0  0
    6.8815   -1.2755    1.7655 C   0  0  0  0  0  0  0  0  0  0  0  0
    8.1362   -0.5258    1.4252 C   0  0  0  0  0  0  0  0  0  0  0  0
    5.8504   -0.6357    2.4675 C   0  0  0  0  0  0  0  0  0  0  0  0
    4.6892   -1.3332    2.8000 C   0  0  0  0  0  0  0  0  0  0  0  0
    1.1084   -2.4574    3.4676 C   0  0  0  0  0  0  0  0  0  0  0  0
    0.8280   -3.0092    5.0323 S   0  0  0  0  0  0  0  0  0  0  0  0
   -0.4891   -1.9600    5.3128 C   0  0  0  0  0  0  0  0  0  0  0  0
   -0.7073   -1.1767    4.1690 C   0  0  0  0  0  0  0  0  0  0  0  0
   -1.7064   -0.1451    4.0550 N   0  0  0  0  0  0  0  0  0  0  0  0
   -2.5827   -0.1108    2.9106 C   0  0  0  0  0  0  0  0  0  0  0  0
   -3.1438   -1.2964    2.4120 C   0  0  0  0  0  0  0  0  0  0  0  0
   -3.9818   -1.2646    1.2966 C   0  0  0  0  0  0  0  0  0  0  0  0
   -4.2636   -0.0487    0.6539 C   0  0  0  0  0  0  0  0  0  0  0  0
   -5.1215   -0.0214   -0.5774 C   0  0  0  0  0  0  0  0  0  0  0  0
   -3.6867    1.1330    1.1364 C   0  0  0  0  0  0  0  0  0  0  0  0
   -2.8613    1.1055    2.2621 C   0  0  0  0  0  0  0  0  0  0  0  0
   -1.6783    0.9604    4.9740 C   0  0  0  0  0  0  0  0  0  0  0  0
   -0.4897    1.6718    5.1965 C   0  0  0  0  0  0  0  0  0  0  0  0
   -0.4676    2.7408    6.0955 C   0  0  0  0  0  0  0  0  0  0  0  0
   -1.6303    3.1106    6.7879 C   0  0  0  0  0  0  0  0  0  0  0  0
   -1.6067    4.2627    7.7469 C   0  0  0  0  0  0  0  0  0  0  0  0
   -2.8256    2.4203    6.5396 C   0  0  0  0  0  0  0  0  0  0  0  0
   -2.8525    1.3566    5.6349 C   0  0  0  0  0  0  0  0  0  0  0  0
    0.1947   -1.4978    3.1623 C   0  0  0  0  0  0  0  0  0  0  0  0
    0.4782   -0.8958    1.6347 S   0  0  0  0  0  0  0  0  0  0  0  0
   -1.4754   -2.1219    6.3879 C   0  0  0  0  0  0  0  0  0  0  0  0
   -1.6013   -1.2555    7.4060 C   0  0  0  0  0  0  0  0  0  0  0  0
   -0.5518   -0.3268    7.8401 C   0  0  0  0  0  0  0  0  0  0  0  0
    0.6054   -0.2328    7.3518 O   0  0  0  0  0  0  0  0  0  0  0  0
   -1.0373    0.4275    8.9731 C   0  0  0  0  0  0  0  0  0  0  0  0
   -0.3664    1.4801    9.6360 C   0  0  0  0  0  0  0  0  0  0  0  0
   -1.1327    2.1131   10.5977 C   0  0  0  0  0  0  0  0  0  0  0  0
   -2.4821    1.7406   10.8864 C   0  0  0  0  0  0  0  0  0  0  0  0
   -3.1396    0.7063   10.2494 C   0  0  0  0  0  0  0  0  0  0  0  0
   -2.3564    0.0106    9.2824 C   0  0  0  0  0  0  0  0  0  0  0  0
   -2.7581   -1.0822    8.3461 C   0  0  0  0  0  0  0  0  0  0  0  0
   -3.9582   -1.7225    8.3221 C   0  0  0  0  0  0  0  0  0  0  0  0
   -4.4032   -2.5181    7.2084 C   0  0  0  0  0  0  0  0  0  0  0  0
   -4.7796   -3.1557    6.3193 N   0  0  0  0  0  0  0  0  0  0  0  0
   -4.8934   -1.6554    9.4141 C   0  0  0  0  0  0  0  0  0  0  0  0
   -5.6504   -1.6252   10.2889 N   0  0  0  0  0  0  0  0  0  0  0  0
   -2.5794    2.8273   11.9171 C   0  0  0  0  0  0  0  0  0  0  0  0
   -2.5353    2.3660   13.4030 C   0  0  0  0  0  0  0  0  0  0  0  0
   -2.2465    3.6086   14.2133 C   0  0  0  0  0  0  0  0  0  0  0  0
   -0.9776    3.9453   13.9496 C   0  0  0  0  0  0  0  0  0  0  0  0
   -0.4549    2.9192   12.9728 C   0  0  0  0  0  0  0  0  0  0  0  0
   -1.1757    1.6955   13.5139 C   0  0  0  0  0  0  0  0  0  0  0  0
   -1.1916    3.1980   11.6291 C   0  0  0  0  0  0  0  0  0  0  0  0
    0.2803    3.9185   -7.7045 H   0  0  0  0  0  0  0  0  0  0  0  0
   -4.7500    1.9427   -4.4559 H   0  0  0  0  0  0  0  0  0  0  0  0
   -5.1785    4.5083   -8.8432 H   0  0  0  0  0  0  0  0  0  0  0  0
   -7.8473    2.4012   -8.2592 H   0  0  0  0  0  0  0  0  0  0  0  0
   -8.6205    5.0262   -7.7466 H   0  0  0  0  0  0  0  0  0  0  0  0
  -10.8298    3.5748   -7.4364 H   0  0  0  0  0  0  0  0  0  0  0  0
  -10.6302    2.2579   -5.1918 H   0  0  0  0  0  0  0  0  0  0  0  0
   -8.2943    2.8523   -4.0781 H   0  0  0  0  0  0  0  0  0  0  0  0
   -7.2598    4.9123   -5.4400 H   0  0  0  0  0  0  0  0  0  0  0  0
   -9.0282    5.1851   -5.1230 H   0  0  0  0  0  0  0  0  0  0  0  0
   -7.6573    1.1933   -6.2102 H   0  0  0  0  0  0  0  0  0  0  0  0
    3.4340    1.8193   -7.4403 H   0  0  0  0  0  0  0  0  0  0  0  0
    4.6306    2.1180   -9.5670 H   0  0  0  0  0  0  0  0  0  0  0  0
    3.5167    3.4236  -11.9872 H   0  0  0  0  0  0  0  0  0  0  0  0
    4.2455    4.6391  -13.1030 H   0  0  0  0  0  0  0  0  0  0  0  0
    3.2550    5.1977  -11.7015 H   0  0  0  0  0  0  0  0  0  0  0  0
    4.4388    6.3853   -9.0990 H   0  0  0  0  0  0  0  0  0  0  0  0
    3.2438    6.1061   -6.9630 H   0  0  0  0  0  0  0  0  0  0  0  0
    1.0691    5.0520   -3.9572 H   0  0  0  0  0  0  0  0  0  0  0  0
    1.8276    6.4730   -2.0834 H   0  0  0  0  0  0  0  0  0  0  0  0
    3.7836    8.9738   -2.6026 H   0  0  0  0  0  0  0  0  0  0  0  0
    5.0699    9.5061   -1.4450 H   0  0  0  0  0  0  0  0  0  0  0  0
    5.5127    8.4874   -2.8708 H   0  0  0  0  0  0  0  0  0  0  0  0
    5.9261    5.6875   -3.1408 H   0  0  0  0  0  0  0  0  0  0  0  0
    5.1782    4.2863   -5.0206 H   0  0  0  0  0  0  0  0  0  0  0  0
   -1.3817   -1.9719   -5.5311 H   0  0  0  0  0  0  0  0  0  0  0  0
   -3.5482   -2.4930   -4.4851 H   0  0  0  0  0  0  0  0  0  0  0  0
   -4.7634   -5.6148   -1.7713 H   0  0  0  0  0  0  0  0  0  0  0  0
   -3.8498   -5.1307   -3.2528 H   0  0  0  0  0  0  0  0  0  0  0  0
   -2.9841   -5.3122   -1.6678 H   0  0  0  0  0  0  0  0  0  0  0  0
   -1.6353   -2.7350   -0.6376 H   0  0  0  0  0  0  0  0  0  0  0  0
    0.5174   -2.1966   -1.6771 H   0  0  0  0  0  0  0  0  0  0  0  0
    2.2885   -1.3953   -6.6851 H   0  0  0  0  0  0  0  0  0  0  0  0
    2.5419   -2.9234   -8.5781 H   0  0  0  0  0  0  0  0  0  0  0  0
    3.3219   -6.8496   -7.6148 H   0  0  0  0  0  0  0  0  0  0  0  0
    4.0941   -5.4794   -8.5301 H   0  0  0  0  0  0  0  0  0  0  0  0
    3.6845   -7.0209   -9.3782 H   0  0  0  0  0  0  0  0  0  0  0  0
    0.6855   -6.0739   -6.3147 H   0  0  0  0  0  0  0  0  0  0  0  0
    0.4550   -4.5607   -4.3865 H   0  0  0  0  0  0  0  0  0  0  0  0
    4.1730   -2.4014   -4.7639 H   0  0  0  0  0  0  0  0  0  0  0  0
    5.5743   -2.7016   -3.6694 H   0  0  0  0  0  0  0  0  0  0  0  0
    5.6759   -4.1689   -5.6549 H   0  0  0  0  0  0  0  0  0  0  0  0
    5.3855   -5.1665   -4.1749 H   0  0  0  0  0  0  0  0  0  0  0  0
    4.0206   -4.8059   -5.3147 H   0  0  0  0  0  0  0  0  0  0  0  0
    2.5035   -6.2504   -0.4735 H   0  0  0  0  0  0  0  0  0  0  0  0
    2.6039   -5.3358   -1.9975 H   0  0  0  0  0  0  0  0  0  0  0  0
    4.6435   -6.7470   -1.6472 H   0  0  0  0  0  0  0  0  0  0  0  0
    5.1213   -5.0046   -1.5240 H   0  0  0  0  0  0  0  0  0  0  0  0
    4.9106   -5.9967   -0.0345 H   0  0  0  0  0  0  0  0  0  0  0  0
    5.0076   -4.1658    4.6773 H   0  0  0  0  0  0  0  0  0  0  0  0
    5.0162   -6.3177    5.8455 H   0  0  0  0  0  0  0  0  0  0  0  0
    2.3498   -8.9326    5.4379 H   0  0  0  0  0  0  0  0  0  0  0  0
    3.5973   -8.2858    6.5587 H   0  0  0  0  0  0  0  0  0  0  0  0
    4.0997   -9.0966    5.0217 H   0  0  0  0  0  0  0  0  0  0  0  0
    1.6606   -7.6256    3.4797 H   0  0  0  0  0  0  0  0  0  0  0  0
    1.6571   -5.4723    2.2938 H   0  0  0  0  0  0  0  0  0  0  0  0
    5.5020   -4.3745    1.5044 H   0  0  0  0  0  0  0  0  0  0  0  0
    7.5450   -3.1474    0.9046 H   0  0  0  0  0  0  0  0  0  0  0  0
    8.8219   -0.5402    2.2974 H   0  0  0  0  0  0  0  0  0  0  0  0
    8.6489   -0.9894    0.5553 H   0  0  0  0  0  0  0  0  0  0  0  0
    7.8988    0.5281    1.1651 H   0  0  0  0  0  0  0  0  0  0  0  0
    5.9430    0.4048    2.7540 H   0  0  0  0  0  0  0  0  0  0  0  0
    3.9001   -0.8219    3.3360 H   0  0  0  0  0  0  0  0  0  0  0  0
   -2.9402   -2.2444    2.8943 H   0  0  0  0  0  0  0  0  0  0  0  0
   -4.4120   -2.1896    0.9356 H   0  0  0  0  0  0  0  0  0  0  0  0
   -4.4845   -0.1847   -1.4706 H   0  0  0  0  0  0  0  0  0  0  0  0
   -5.8961   -0.8149   -0.5294 H   0  0  0  0  0  0  0  0  0  0  0  0
   -5.6378    0.9574   -0.6743 H   0  0  0  0  0  0  0  0  0  0  0  0
   -3.8681    2.0779    0.6386 H   0  0  0  0  0  0  0  0  0  0  0  0
   -2.4224    2.0300    2.6111 H   0  0  0  0  0  0  0  0  0  0  0  0
    0.4205    1.3925    4.6788 H   0  0  0  0  0  0  0  0  0  0  0  0
    0.4607    3.2730    6.2638 H   0  0  0  0  0  0  0  0  0  0  0  0
   -1.8497    5.2026    7.2079 H   0  0  0  0  0  0  0  0  0  0  0  0
   -0.6044    4.3635    8.2160 H   0  0  0  0  0  0  0  0  0  0  0  0
   -2.3500    4.1113    8.5598 H   0  0  0  0  0  0  0  0  0  0  0  0
   -3.7366    2.6992    7.0574 H   0  0  0  0  0  0  0  0  0  0  0  0
   -3.7799    0.8219    5.4637 H   0  0  0  0  0  0  0  0  0  0  0  0
   -2.1873   -2.9119    6.2276 H   0  0  0  0  0  0  0  0  0  0  0  0
    0.6404    1.7956    9.3946 H   0  0  0  0  0  0  0  0  0  0  0  0
   -4.1712    0.5069   10.4757 H   0  0  0  0  0  0  0  0  0  0  0  0
   -3.3295    3.6138   11.6693 H   0  0  0  0  0  0  0  0  0  0  0  0
   -3.4051    1.7665   13.7490 H   0  0  0  0  0  0  0  0  0  0  0  0
   -2.8980    4.0919   14.9309 H   0  0  0  0  0  0  0  0  0  0  0  0
   -0.4244    4.7492   14.4190 H   0  0  0  0  0  0  0  0  0  0  0  0
    0.6505    2.8415   12.9096 H   0  0  0  0  0  0  0  0  0  0  0  0
   -0.8951    1.4415   14.5643 H   0  0  0  0  0  0  0  0  0  0  0  0
   -1.0629    0.7844   12.8861 H   0  0  0  0  0  0  0  0  0  0  0  0
   -1.0577    4.2197   11.2087 H   0  0  0  0  0  0  0  0  0  0  0  0
  1  2  2  3
  2  3  1  0
  3  4  2  0
  3  5  1  0
  5  6  2  0
  6  7  1  0
  7  8  2  0
  8  9  1  0
  9 10  2  0
 10 11  1  0
 11 12  2  3
 12 13  1  0
 13 14  3  0
 12 15  1  0
 15 16  3  0
  8 17  1  0
 17 18  1  0
 18 19  1  0
 19 20  2  0
 20 21  1  0
 21 22  1  0
 21 23  1  0
  1 24  1  0
 24 25  2  0
 25 26  1  0
 26 27  1  0
 27 28  2  0
 28 29  1  0
 29 30  2  0
 30 31  1  0
 31 32  1  0
 30 33  1  0
 33 34  2  0
 26 35  1  0
 35 36  2  0
 36 37  1  0
 37 38  2  0
 38 39  1  0
 39 40  1  0
 38 41  1  0
 41 42  2  0
 25 43  1  0
 43 44  1  0
 44 45  1  0
 45 46  2  0
 46 47  1  0
 47 48  1  0
 48 49  2  0
 49 50  1  0
 50 51  2  0
 51 52  1  0
 52 53  1  0
 51 54  1  0
 54 55  2  0
 47 56  1  0
 56 57  2  0
 57 58  1  0
 58 59  2  0
 59 60  1  0
 60 61  1  0
 59 62  1  0
 62 63  2  0
 46 64  1  0
 64 65  1  0
 45 66  1  0
 66 67  2  0
 67 68  1  0
 68 69  1  0
 69 70  1  0
 67 71  1  0
 71 72  1  0
 72 73  1  0
 73 74  1  0
 71 75  2  0
 75 76  1  0
 75 77  1  0
 77 78  2  0
 78 79  1  0
 79 80  1  0
 80 81  2  0
 81 82  1  0
 82 83  2  0
 83 84  1  0
 83 85  1  0
 85 86  2  0
 79 87  1  0
 87 88  2  0
 88 89  1  0
 89 90  2  0
 90 91  1  0
 90 92  1  0
 92 93  2  0
 78 94  1  0
 94 95  1  0
 95 96  1  0
 96 97  2  0
 97 98  1  0
 98 99  1  0
 99100  2  0
100101  1  0
101102  2  0
102103  1  0
102104  1  0
104105  2  0
 98106  1  0
106107  2  0
107108  1  0
108109  2  0
109110  1  0
109111  1  0
111112  2  0
 97113  1  0
113114  1  0
 96115  1  0
115116  2  3
116117  1  0
117118  2  0
117119  1  0
119120  2  0
120121  1  0
121122  2  0
122123  1  0
123124  2  0
124125  1  0
125126  2  3
126127  1  0
127128  3  0
126129  1  0
129130  3  0
122131  1  0
131132  1  0
132133  1  0
133134  2  0
134135  1  0
135136  1  0
135137  1  0
 11  2  1  0
 23 17  1  0
 65 24  1  0
 76 66  1  0
114 77  1  0
125116  1  0
137131  1  0
 10  5  1  0
 22 18  1  0
 34 27  1  0
 42 35  1  0
 64 43  2  0
 86 80  1  0
 93 87  1  0
113 94  2  0
124119  1  0
136132  1  0
 23  7  1  0
 55 48  1  0
 63 56  1  0
105 99  1  0
112106  1  0
137121  1  0
  1138  1  0
  6139  1  0
  9140  1  0
 17141  1  0
 18142  1  0
 19143  1  0
 20144  1  0
 21145  1  0
 22146  1  0
 22147  1  0
 23148  1  0
 28149  1  0
 29150  1  0
 32151  1  0
 32152  1  0
 32153  1  0
 33154  1  0
 34155  1  0
 36156  1  0
 37157  1  0
 40158  1  0
 40159  1  0
 40160  1  0
 41161  1  0
 42162  1  0
 49163  1  0
 50164  1  0
 53165  1  0
 53166  1  0
 53167  1  0
 54168  1  0
 55169  1  0
 57170  1  0
 58171  1  0
 61172  1  0
 61173  1  0
 61174  1  0
 62175  1  0
 63176  1  0
 69177  1  0
 69178  1  0
 70179  1  0
 70180  1  0
 70181  1  0
 73182  1  0
 73183  1  0
 74184  1  0
 74185  1  0
 74186  1  0
 81187  1  0
 82188  1  0
 84189  1  0
 84190  1  0
 84191  1  0
 85192  1  0
 86193  1  0
 88194  1  0
 89195  1  0
 91196  1  0
 91197  1  0
 91198  1  0
 92199  1  0
 93200  1  0
100201  1  0
101202  1  0
103203  1  0
103204  1  0
103205  1  0
104206  1  0
105207  1  0
107208  1  0
108209  1  0
110210  1  0
110211  1  0
110212  1  0
111213  1  0
112214  1  0
115215  1  0
120216  1  0
123217  1  0
131218  1  0
132219  1  0
133220  1  0
134221  1  0
135222  1  0
136223  1  0
136224  1  0
137225  1  0
M  END

