
     RDKit          3D

251274  0  0  0  0  0  0  0  0999 V2000
    1.9367    7.7207   -1.7784 C   0  0  0  0  0  0  0  0  0  0  0  0
    0.7509    8.1248   -2.2751 C   0  0  0  0  0  0  0  0  0  0  0  0
   -0.4873    7.3374   -2.1932 C   0  0  0  0  0  0  0  0  0  0  0  0
   -0.6969    6.3658   -1.4177 O   0  0  0  0  0  0  0  0  0  0  0  0
   -1.4528    7.8809   -3.1116 C   0  0  0  0  0  0  0  0  0  0  0  0
   -2.7066    7.3218   -3.4458 C   0  0  0  0  0  0  0  0  0  0  0  0
   -3.3302    7.9461   -4.5032 C   0  0  0  0  0  0  0  0  0  0  0  0
   -2.7597    9.0588   -5.2042 C   0  0  0  0  0  0  0  0  0  0  0  0
   -1.5401    9.6232   -4.8694 C   0  0  0  0  0  0  0  0  0  0  0  0
   -0.8938    9.0209   -3.7508 C   0  0  0  0  0  0  0  0  0  0  0  0
    0.4602    9.2911   -3.1747 C   0  0  0  0  0  0  0  0  0  0  0  0
    1.2147   10.4080   -3.3669 C   0  0  0  0  0  0  0  0  0  0  0  0
    2.5103   10.5917   -2.7802 C   0  0  0  0  0  0  0  0  0  0  0  0
    3.5571   10.7530   -2.3087 N   0  0  0  0  0  0  0  0  0  0  0  0
    0.7349   11.5365   -4.1207 C   0  0  0  0  0  0  0  0  0  0  0  0
    0.3562   12.4497   -4.7248 N   0  0  0  0  0  0  0  0  0  0  0  0
   -3.9039    9.0435   -6.1805 C   0  0  0  0  0  0  0  0  0  0  0  0
   -3.6107    8.4444   -7.5903 C   0  0  0  0  0  0  0  0  0  0  0  0
   -4.9552    8.1800   -8.2225 C   0  0  0  0  0  0  0  0  0  0  0  0
   -5.4935    7.1543   -7.5544 C   0  0  0  0  0  0  0  0  0  0  0  0
   -4.4924    6.7597   -6.4970 C   0  0  0  0  0  0  0  0  0  0  0  0
   -3.2175    7.0078   -7.2796 C   0  0  0  0  0  0  0  0  0  0  0  0
   -4.4903    7.9150   -5.4493 C   0  0  0  0  0  0  0  0  0  0  0  0
    2.1666    6.2862   -1.5305 C   0  0  0  0  0  0  0  0  0  0  0  0
    1.9580    5.3078   -2.5091 C   0  0  0  0  0  0  0  0  0  0  0  0
    2.5745    5.4876   -3.7992 N   0  0  0  0  0  0  0  0  0  0  0  0
    1.8058    5.7865   -4.9808 C   0  0  0  0  0  0  0  0  0  0  0  0
    2.3549    6.6371   -5.9631 C   0  0  0  0  0  0  0  0  0  0  0  0
    1.7901    6.7175   -7.2321 C   0  0  0  0  0  0  0  0  0  0  0  0
    0.6418    5.9751   -7.5374 C   0  0  0  0  0  0  0  0  0  0  0  0
    0.0066    5.9750   -9.2201 S   0  0  0  0  0  0  0  0  0  0  0  0
   -0.5152    7.7224   -9.2027 C   0  0  0  0  0  0  0  0  0  0  0  0
    0.0317    5.1973   -6.5436 C   0  0  0  0  0  0  0  0  0  0  0  0
    0.6138    5.0913   -5.2726 C   0  0  0  0  0  0  0  0  0  0  0  0
    4.0076    5.3526   -3.9192 C   0  0  0  0  0  0  0  0  0  0  0  0
    4.5423    4.4038   -4.7991 C   0  0  0  0  0  0  0  0  0  0  0  0
    5.9251    4.3125   -4.9950 C   0  0  0  0  0  0  0  0  0  0  0  0
    6.7842    5.1952   -4.3328 C   0  0  0  0  0  0  0  0  0  0  0  0
    8.5466    5.1527   -4.6618 S   0  0  0  0  0  0  0  0  0  0  0  0
    8.9224    4.0890   -3.2363 C   0  0  0  0  0  0  0  0  0  0  0  0
    6.2569    6.1600   -3.4713 C   0  0  0  0  0  0  0  0  0  0  0  0
    4.8788    6.2369   -3.2635 C   0  0  0  0  0  0  0  0  0  0  0  0
    1.9345    4.0477   -1.9164 C   0  0  0  0  0  0  0  0  0  0  0  0
    0.7867    2.8416   -2.1180 S   0  0  0  0  0  0  0  0  0  0  0  0
    0.9803    2.1251   -0.5902 C   0  0  0  0  0  0  0  0  0  0  0  0
    1.9661    2.8593    0.1020 C   0  0  0  0  0  0  0  0  0  0  0  0
    2.7467    2.3560    1.2266 N   0  0  0  0  0  0  0  0  0  0  0  0
    2.7480    0.9537    1.5569 C   0  0  0  0  0  0  0  0  0  0  0  0
    3.1203   -0.0027    0.5922 C   0  0  0  0  0  0  0  0  0  0  0  0
    3.1276   -1.3644    0.9162 C   0  0  0  0  0  0  0  0  0  0  0  0
    2.7903   -1.7716    2.2129 C   0  0  0  0  0  0  0  0  0  0  0  0
    2.6507   -3.5214    2.6116 S   0  0  0  0  0  0  0  0  0  0  0  0
    0.9204   -3.6255    2.0430 C   0  0  0  0  0  0  0  0  0  0  0  0
    2.5158   -0.8193    3.1962 C   0  0  0  0  0  0  0  0  0  0  0  0
    2.4905    0.5399    2.8721 C   0  0  0  0  0  0  0  0  0  0  0  0
    3.9737    3.0213    1.5647 C   0  0  0  0  0  0  0  0  0  0  0  0
    4.1527    3.5628    2.8423 C   0  0  0  0  0  0  0  0  0  0  0  0
    5.3887    4.1088    3.1976 C   0  0  0  0  0  0  0  0  0  0  0  0
    6.4452    4.1185    2.2783 C   0  0  0  0  0  0  0  0  0  0  0  0
    8.0545    4.7555    2.7536 S   0  0  0  0  0  0  0  0  0  0  0  0
    8.6721    3.1242    3.2812 C   0  0  0  0  0  0  0  0  0  0  0  0
    6.2601    3.5942    0.9935 C   0  0  0  0  0  0  0  0  0  0  0  0
    5.0322    3.0384    0.6433 C   0  0  0  0  0  0  0  0  0  0  0  0
    2.3366    4.0026   -0.6155 C   0  0  0  0  0  0  0  0  0  0  0  0
    2.5035    5.5776   -0.0284 S   0  0  0  0  0  0  0  0  0  0  0  0
   -0.0214    1.2375    0.0575 C   0  0  0  0  0  0  0  0  0  0  0  0
   -0.8448    0.2406   -0.5329 C   0  0  0  0  0  0  0  0  0  0  0  0
   -0.9188   -0.1010   -1.9358 N   0  0  0  0  0  0  0  0  0  0  0  0
    0.2624   -0.2868   -2.7378 C   0  0  0  0  0  0  0  0  0  0  0  0
    0.2740    0.1168   -4.0842 C   0  0  0  0  0  0  0  0  0  0  0  0
    1.4209   -0.0533   -4.8678 C   0  0  0  0  0  0  0  0  0  0  0  0
    2.5690   -0.6304   -4.3095 C   0  0  0  0  0  0  0  0  0  0  0  0
    4.0456   -0.8470   -5.3084 S   0  0  0  0  0  0  0  0  0  0  0  0
    4.5492    0.8930   -5.1441 C   0  0  0  0  0  0  0  0  0  0  0  0
    2.5622   -1.0475   -2.9720 C   0  0  0  0  0  0  0  0  0  0  0  0
    1.4052   -0.9002   -2.1974 C   0  0  0  0  0  0  0  0  0  0  0  0
   -2.2122   -0.3947   -2.5076 C   0  0  0  0  0  0  0  0  0  0  0  0
   -3.2932    0.4800   -2.2920 C   0  0  0  0  0  0  0  0  0  0  0  0
   -4.5815    0.1263   -2.7109 C   0  0  0  0  0  0  0  0  0  0  0  0
   -4.8055   -1.1005   -3.3506 C   0  0  0  0  0  0  0  0  0  0  0  0
   -6.4731   -1.6087   -3.7537 S   0  0  0  0  0  0  0  0  0  0  0  0
   -6.4587   -0.8394   -5.4031 C   0  0  0  0  0  0  0  0  0  0  0  0
   -3.7284   -1.9639   -3.5983 C   0  0  0  0  0  0  0  0  0  0  0  0
   -2.4378   -1.6098   -3.1838 C   0  0  0  0  0  0  0  0  0  0  0  0
   -1.6804   -0.3341    0.4285 C   0  0  0  0  0  0  0  0  0  0  0  0
   -2.7506   -1.6163    0.4134 S   0  0  0  0  0  0  0  0  0  0  0  0
   -3.1579   -1.5064    2.0640 C   0  0  0  0  0  0  0  0  0  0  0  0
   -2.4403   -0.4339    2.6300 C   0  0  0  0  0  0  0  0  0  0  0  0
   -2.6519    0.0692    3.9633 N   0  0  0  0  0  0  0  0  0  0  0  0
   -1.5695    0.2701    4.8982 C   0  0  0  0  0  0  0  0  0  0  0  0
   -1.6023    1.3462    5.8054 C   0  0  0  0  0  0  0  0  0  0  0  0
   -0.6477    1.4545    6.8178 C   0  0  0  0  0  0  0  0  0  0  0  0
    0.3484    0.4791    6.9450 C   0  0  0  0  0  0  0  0  0  0  0  0
    1.5584    0.5923    8.2669 S   0  0  0  0  0  0  0  0  0  0  0  0
    2.6653    1.6865    7.3296 C   0  0  0  0  0  0  0  0  0  0  0  0
    0.4007   -0.5838    6.0383 C   0  0  0  0  0  0  0  0  0  0  0  0
   -0.5303   -0.6729    5.0000 C   0  0  0  0  0  0  0  0  0  0  0  0
   -3.9904    0.3954    4.3637 C   0  0  0  0  0  0  0  0  0  0  0  0
   -4.6077    1.5592    3.8810 C   0  0  0  0  0  0  0  0  0  0  0  0
   -5.9051    1.8890    4.2835 C   0  0  0  0  0  0  0  0  0  0  0  0
   -6.5988    1.0533    5.1700 C   0  0  0  0  0  0  0  0  0  0  0  0
   -8.2958    1.4343    5.6023 S   0  0  0  0  0  0  0  0  0  0  0  0
   -7.8594    2.4410    7.0686 C   0  0  0  0  0  0  0  0  0  0  0  0
   -5.9793   -0.1007    5.6732 C   0  0  0  0  0  0  0  0  0  0  0  0
   -4.6780   -0.4286    5.2757 C   0  0  0  0  0  0  0  0  0  0  0  0
   -1.6087    0.1755    1.6853 C   0  0  0  0  0  0  0  0  0  0  0  0
   -0.4742    1.4049    1.7038 S   0  0  0  0  0  0  0  0  0  0  0  0
   -3.6736   -2.6744    2.7960 C   0  0  0  0  0  0  0  0  0  0  0  0
   -3.0075   -3.1723    3.9149 C   0  0  0  0  0  0  0  0  0  0  0  0
   -2.9658   -4.5744    3.9706 C   0  0  0  0  0  0  0  0  0  0  0  0
   -2.0999   -5.3210    4.7947 C   0  0  0  0  0  0  0  0  0  0  0  0
   -1.3775   -4.6796    5.9239 C   0  0  0  0  0  0  0  0  0  0  0  0
   -2.1171   -4.0349    6.9310 C   0  0  0  0  0  0  0  0  0  0  0  0
   -1.4601   -3.4055    7.9883 C   0  0  0  0  0  0  0  0  0  0  0  0
   -0.0667   -3.4214    8.0599 C   0  0  0  0  0  0  0  0  0  0  0  0
    0.6906   -4.0619    7.0601 C   0  0  0  0  0  0  0  0  0  0  0  0
    2.0915   -4.1104    7.0972 O   0  0  0  0  0  0  0  0  0  0  0  0
    2.8768   -3.6232    8.1843 C   0  0  0  0  0  0  0  0  0  0  0  0
    4.3454   -3.9272    7.9303 C   0  0  0  0  0  0  0  0  0  0  0  0
    0.0286   -4.6720    5.9867 C   0  0  0  0  0  0  0  0  0  0  0  0
   -1.9200   -6.6711    4.4466 C   0  0  0  0  0  0  0  0  0  0  0  0
   -2.6316   -7.2828    3.4033 C   0  0  0  0  0  0  0  0  0  0  0  0
   -3.5891   -6.5609    2.6631 C   0  0  0  0  0  0  0  0  0  0  0  0
   -4.4050   -7.1986    1.6007 C   0  0  0  0  0  0  0  0  0  0  0  0
   -5.2607   -8.2631    1.9328 C   0  0  0  0  0  0  0  0  0  0  0  0
   -6.1059   -8.8112    0.9628 C   0  0  0  0  0  0  0  0  0  0  0  0
   -6.1132   -8.3028   -0.3382 C   0  0  0  0  0  0  0  0  0  0  0  0
   -5.2575   -7.2368   -0.6836 C   0  0  0  0  0  0  0  0  0  0  0  0
   -5.2351   -6.6660   -1.9656 O   0  0  0  0  0  0  0  0  0  0  0  0
   -6.2182   -6.8772   -2.9772 C   0  0  0  0  0  0  0  0  0  0  0  0
   -7.5211   -6.1667   -2.6239 C   0  0  0  0  0  0  0  0  0  0  0  0
   -4.3865   -6.7148    0.2815 C   0  0  0  0  0  0  0  0  0  0  0  0
   -3.6913   -5.1872    2.9463 C   0  0  0  0  0  0  0  0  0  0  0  0
   -4.3598   -3.9878    1.9812 S   0  0  0  0  0  0  0  0  0  0  0  0
   -2.1653   -8.5731    3.0916 C   0  0  0  0  0  0  0  0  0  0  0  0
   -1.0900   -8.9638    3.8837 C   0  0  0  0  0  0  0  0  0  0  0  0
   -0.7264   -7.7317    4.9784 S   0  0  0  0  0  0  0  0  0  0  0  0
   -0.1497  -10.0309    3.5201 C   0  0  0  0  0  0  0  0  0  0  0  0
    0.8942   -9.7892    2.7058 C   0  0  0  0  0  0  0  0  0  0  0  0
    1.3020   -8.3081    2.0315 S   0  0  0  0  0  0  0  0  0  0  0  0
    2.6731   -8.8753    1.2137 C   0  0  0  0  0  0  0  0  0  0  0  0
    3.4797   -8.0542    0.4870 C   0  0  0  0  0  0  0  0  0  0  0  0
    4.7778   -8.4199   -0.0053 C   0  0  0  0  0  0  0  0  0  0  0  0
    5.8329   -8.6894   -0.4027 N   0  0  0  0  0  0  0  0  0  0  0  0
    3.0896   -6.6895    0.2287 C   0  0  0  0  0  0  0  0  0  0  0  0
    2.7779   -5.5956    0.0081 N   0  0  0  0  0  0  0  0  0  0  0  0
    2.8089  -10.2266    1.4234 N   0  0  0  0  0  0  0  0  0  0  0  0
    3.7718  -11.1271    0.7490 C   0  0  0  0  0  0  0  0  0  0  0  0
    3.5359  -11.1893   -0.7426 C   0  0  0  0  0  0  0  0  0  0  0  0
    2.2328  -11.1335   -1.2858 C   0  0  0  0  0  0  0  0  0  0  0  0
    2.0437  -11.1874   -2.6712 C   0  0  0  0  0  0  0  0  0  0  0  0
    3.1406  -11.3082   -3.5287 C   0  0  0  0  0  0  0  0  0  0  0  0
    4.4331  -11.3998   -2.9996 C   0  0  0  0  0  0  0  0  0  0  0  0
    4.6264  -11.3544   -1.6127 C   0  0  0  0  0  0  0  0  0  0  0  0
    1.8361  -10.7162    2.2569 C   0  0  0  0  0  0  0  0  0  0  0  0
    1.7720  -11.9387    2.5761 O   0  0  0  0  0  0  0  0  0  0  0  0
    2.8076    8.3541   -1.7840 H   0  0  0  0  0  0  0  0  0  0  0  0
   -3.1062    6.4314   -2.9737 H   0  0  0  0  0  0  0  0  0  0  0  0
   -1.1185   10.4020   -5.4799 H   0  0  0  0  0  0  0  0  0  0  0  0
   -4.5097    9.9734   -6.1754 H   0  0  0  0  0  0  0  0  0  0  0  0
   -2.9049    9.0310   -8.2153 H   0  0  0  0  0  0  0  0  0  0  0  0
   -5.3658    8.6379   -9.1217 H   0  0  0  0  0  0  0  0  0  0  0  0
   -6.4174    6.6432   -7.8153 H   0  0  0  0  0  0  0  0  0  0  0  0
   -4.6178    5.7385   -6.0832 H   0  0  0  0  0  0  0  0  0  0  0  0
   -3.1190    6.3626   -8.1885 H   0  0  0  0  0  0  0  0  0  0  0  0
   -2.2897    6.9061   -6.6774 H   0  0  0  0  0  0  0  0  0  0  0  0
   -5.4689    8.1310   -4.9673 H   0  0  0  0  0  0  0  0  0  0  0  0
    3.2627    7.1919   -5.7588 H   0  0  0  0  0  0  0  0  0  0  0  0
    2.2620    7.3366   -7.9845 H   0  0  0  0  0  0  0  0  0  0  0  0
    0.2312    8.3290   -9.7600 H   0  0  0  0  0  0  0  0  0  0  0  0
   -1.4958    7.7987   -9.7223 H   0  0  0  0  0  0  0  0  0  0  0  0
   -0.6172    8.1222   -8.1758 H   0  0  0  0  0  0  0  0  0  0  0  0
   -0.8576    4.6217   -6.7804 H   0  0  0  0  0  0  0  0  0  0  0  0
    0.1717    4.4241   -4.5453 H   0  0  0  0  0  0  0  0  0  0  0  0
    3.8797    3.7549   -5.3551 H   0  0  0  0  0  0  0  0  0  0  0  0
    6.3206    3.5767   -5.6851 H   0  0  0  0  0  0  0  0  0  0  0  0
    8.6112    4.5904   -2.2984 H   0  0  0  0  0  0  0  0  0  0  0  0
    8.3957    3.1196   -3.3377 H   0  0  0  0  0  0  0  0  0  0  0  0
   10.0140    3.9051   -3.1978 H   0  0  0  0  0  0  0  0  0  0  0  0
    6.9120    6.8665   -2.9787 H   0  0  0  0  0  0  0  0  0  0  0  0
    4.5002    7.0146   -2.6185 H   0  0  0  0  0  0  0  0  0  0  0  0
    3.3941    0.3133   -0.4041 H   0  0  0  0  0  0  0  0  0  0  0  0
    3.3794   -2.0960    0.1572 H   0  0  0  0  0  0  0  0  0  0  0  0
    0.8895   -3.6273    0.9335 H   0  0  0  0  0  0  0  0  0  0  0  0
    0.4762   -4.5695    2.4166 H   0  0  0  0  0  0  0  0  0  0  0  0
    0.3196   -2.7730    2.4230 H   0  0  0  0  0  0  0  0  0  0  0  0
    2.3116   -1.1338    4.2042 H   0  0  0  0  0  0  0  0  0  0  0  0
    2.2412    1.2674    3.6343 H   0  0  0  0  0  0  0  0  0  0  0  0
    3.3408    3.5478    3.5662 H   0  0  0  0  0  0  0  0  0  0  0  0
    5.5326    4.5070    4.1944 H   0  0  0  0  0  0  0  0  0  0  0  0
    8.6381    2.4074    2.4357 H   0  0  0  0  0  0  0  0  0  0  0  0
    8.0577    2.7354    4.1209 H   0  0  0  0  0  0  0  0  0  0  0  0
    9.7219    3.2286    3.6203 H   0  0  0  0  0  0  0  0  0  0  0  0
    7.0717    3.5923    0.2780 H   0  0  0  0  0  0  0  0  0  0  0  0
    4.9034    2.6129   -0.3513 H   0  0  0  0  0  0  0  0  0  0  0  0
   -0.5960    0.5930   -4.5241 H   0  0  0  0  0  0  0  0  0  0  0  0
    1.4224    0.2790   -5.8985 H   0  0  0  0  0  0  0  0  0  0  0  0
    5.5126    1.0475   -5.6723 H   0  0  0  0  0  0  0  0  0  0  0  0
    4.6645    1.1716   -4.0739 H   0  0  0  0  0  0  0  0  0  0  0  0
    3.7729    1.5219   -5.6229 H   0  0  0  0  0  0  0  0  0  0  0  0
    3.4508   -1.4850   -2.5343 H   0  0  0  0  0  0  0  0  0  0  0  0
    1.3892   -1.2628   -1.1811 H   0  0  0  0  0  0  0  0  0  0  0  0
   -3.1455    1.4155   -1.7649 H   0  0  0  0  0  0  0  0  0  0  0  0
   -5.4106    0.7981   -2.5119 H   0  0  0  0  0  0  0  0  0  0  0  0
   -5.6358   -1.2621   -6.0170 H   0  0  0  0  0  0  0  0  0  0  0  0
   -7.4293   -1.0423   -5.9067 H   0  0  0  0  0  0  0  0  0  0  0  0
   -6.3312    0.2602   -5.3056 H   0  0  0  0  0  0  0  0  0  0  0  0
   -3.8958   -2.9242   -4.0702 H   0  0  0  0  0  0  0  0  0  0  0  0
   -1.6254   -2.3083   -3.3336 H   0  0  0  0  0  0  0  0  0  0  0  0
   -2.3712    2.1062    5.7396 H   0  0  0  0  0  0  0  0  0  0  0  0
   -0.6871    2.2848    7.5158 H   0  0  0  0  0  0  0  0  0  0  0  0
    3.4643    2.0479    8.0046 H   0  0  0  0  0  0  0  0  0  0  0  0
    3.1229    1.1312    6.4866 H   0  0  0  0  0  0  0  0  0  0  0  0
    2.1016    2.5591    6.9466 H   0  0  0  0  0  0  0  0  0  0  0  0
    1.1596   -1.3519    6.1507 H   0  0  0  0  0  0  0  0  0  0  0  0
   -0.4581   -1.4869    4.2999 H   0  0  0  0  0  0  0  0  0  0  0  0
   -4.0878    2.2024    3.1743 H   0  0  0  0  0  0  0  0  0  0  0  0
   -6.3787    2.7800    3.8826 H   0  0  0  0  0  0  0  0  0  0  0  0
   -8.7574    3.0125    7.3847 H   0  0  0  0  0  0  0  0  0  0  0  0
   -7.5163    1.7865    7.8988 H   0  0  0  0  0  0  0  0  0  0  0  0
   -7.0544    3.1694    6.8300 H   0  0  0  0  0  0  0  0  0  0  0  0
   -6.5157   -0.7502    6.3600 H   0  0  0  0  0  0  0  0  0  0  0  0
   -4.2055   -1.3195    5.6654 H   0  0  0  0  0  0  0  0  0  0  0  0
   -2.3940   -2.5617    4.5431 H   0  0  0  0  0  0  0  0  0  0  0  0
   -3.1997   -4.0134    6.8890 H   0  0  0  0  0  0  0  0  0  0  0  0
   -2.0354   -2.9108    8.7595 H   0  0  0  0  0  0  0  0  0  0  0  0
    0.4105   -2.9289    8.8953 H   0  0  0  0  0  0  0  0  0  0  0  0
    2.5669   -4.1190    9.1303 H   0  0  0  0  0  0  0  0  0  0  0  0
    2.7447   -2.5239    8.2850 H   0  0  0  0  0  0  0  0  0  0  0  0
    4.7029   -3.3614    7.0440 H   0  0  0  0  0  0  0  0  0  0  0  0
    4.9505   -3.6343    8.8140 H   0  0  0  0  0  0  0  0  0  0  0  0
    4.4829   -5.0141    7.7491 H   0  0  0  0  0  0  0  0  0  0  0  0
    0.6051   -5.1315    5.1938 H   0  0  0  0  0  0  0  0  0  0  0  0
   -5.2869   -8.6537    2.9439 H   0  0  0  0  0  0  0  0  0  0  0  0
   -6.7701   -9.6233    1.2260 H   0  0  0  0  0  0  0  0  0  0  0  0
   -6.7803   -8.7474   -1.0637 H   0  0  0  0  0  0  0  0  0  0  0  0
   -5.8313   -6.4465   -3.9280 H   0  0  0  0  0  0  0  0  0  0  0  0
   -6.3890   -7.9607   -3.1460 H   0  0  0  0  0  0  0  0  0  0  0  0
   -8.2397   -6.2617   -3.4651 H   0  0  0  0  0  0  0  0  0  0  0  0
   -7.9773   -6.6085   -1.7163 H   0  0  0  0  0  0  0  0  0  0  0  0
   -7.3305   -5.0875   -2.4425 H   0  0  0  0  0  0  0  0  0  0  0  0
   -3.7137   -5.9103    0.0032 H   0  0  0  0  0  0  0  0  0  0  0  0
   -2.5098   -9.1548    2.2466 H   0  0  0  0  0  0  0  0  0  0  0  0
   -0.3395  -11.0349    3.8815 H   0  0  0  0  0  0  0  0  0  0  0  0
    3.6888  -12.1666    1.1364 H   0  0  0  0  0  0  0  0  0  0  0  0
    4.8063  -10.8002    0.9882 H   0  0  0  0  0  0  0  0  0  0  0  0
    1.3670  -11.0421   -0.6404 H   0  0  0  0  0  0  0  0  0  0  0  0
    1.0421  -11.1285   -3.0806 H   0  0  0  0  0  0  0  0  0  0  0  0
    2.9867  -11.3381   -4.5981 H   0  0  0  0  0  0  0  0  0  0  0  0
    5.2849  -11.4998   -3.6630 H   0  0  0  0  0  0  0  0  0  0  0  0
    5.6350  -11.4302   -1.2212 H   0  0  0  0  0  0  0  0  0  0  0  0
  1  2  2  3
  2  3  1  0
  3  4  2  0
  3  5  1  0
  5  6  2  0
  6  7  1  0
  7  8  2  0
  8  9  1  0
  9 10  2  0
 10 11  1  0
 11 12  2  3
 12 13  1  0
 13 14  3  0
 12 15  1  0
 15 16  3  0
  8 17  1  0
 17 18  1  0
 18 19  1  0
 19 20  2  0
 20 21  1  0
 21 22  1  0
 21 23  1  0
  1 24  1  0
 24 25  2  0
 25 26  1  0
 26 27  1  0
 27 28  2  0
 28 29  1  0
 29 30  2  0
 30 31  1  0
 31 32  1  0
 30 33  1  0
 33 34  2  0
 26 35  1  0
 35 36  2  0
 36 37  1  0
 37 38  2  0
 38 39  1  0
 39 40  1  0
 38 41  1  0
 41 42  2  0
 25 43  1  0
 43 44  1  0
 44 45  1  0
 45 46  2  0
 46 47  1  0
 47 48  1  0
 48 49  2  0
 49 50  1  0
 50 51  2  0
 51 52  1  0
 52 53  1  0
 51 54  1  0
 54 55  2  0
 47 56  1  0
 56 57  2  0
 57 58  1  0
 58 59  2  0
 59 60  1  0
 60 61  1  0
 59 62  1  0
 62 63  2  0
 46 64  1  0
 64 65  1  0
 45 66  1  0
 66 67  2  0
 67 68  1  0
 68 69  1  0
 69 70  2  0
 70 71  1  0
 71 72  2  0
 72 73  1  0
 73 74  1  0
 72 75  1  0
 75 76  2  0
 68 77  1  0
 77 78  2  0
 78 79  1  0
 79 80  2  0
 80 81  1  0
 81 82  1  0
 80 83  1  0
 83 84  2  0
 67 85  1  0
 85 86  1  0
 86 87  1  0
 87 88  2  0
 88 89  1  0
 89 90  1  0
 90 91  2  0
 91 92  1  0
 92 93  2  0
 93 94  1  0
 94 95  1  0
 93 96  1  0
 96 97  2  0
 89 98  1  0
 98 99  2  0
 99100  1  0
100101  2  0
101102  1  0
102103  1  0
101104  1  0
104105  2  0
 88106  1  0
106107  1  0
 87108  1  0
108109  2  0
109110  1  0
110111  2  0
111112  1  0
112113  2  0
113114  1  0
114115  2  0
115116  1  0
116117  1  0
117118  1  0
118119  1  0
116120  2  0
111121  1  0
121122  2  0
122123  1  0
123124  1  0
124125  2  0
125126  1  0
126127  2  0
127128  1  0
128129  1  0
129130  1  0
130131  1  0
128132  2  0
123133  2  0
133134  1  0
122135  1  0
135136  2  0
136137  1  0
136138  1  0
138139  2  3
139140  1  0
140141  1  0
141142  2  3
142143  1  0
143144  3  0
142145  1  0
145146  3  0
141147  1  0
147148  1  0
148149  1  0
149150  2  0
150151  1  0
151152  2  0
152153  1  0
153154  2  0
147155  1  0
155156  2  0
 11  2  1  0
 23 17  1  0
 65 24  1  0
107 66  1  0
134108  1  0
155139  1  0
 10  5  1  0
 22 18  1  0
 34 27  1  0
 42 35  1  0
 64 43  2  0
 76 69  1  0
 84 77  1  0
106 85  2  0
133110  1  0
154149  1  0
 23  7  1  0
 55 48  1  0
 63 56  1  0
 97 90  1  0
105 98  1  0
120112  1  0
137121  1  0
132124  1  0
  1157  1  0
  6158  1  0
  9159  1  0
 17160  1  0
 18161  1  0
 19162  1  0
 20163  1  0
 21164  1  0
 22165  1  0
 22166  1  0
 23167  1  0
 28168  1  0
 29169  1  0
 32170  1  0
 32171  1  0
 32172  1  0
 33173  1  0
 34174  1  0
 36175  1  0
 37176  1  0
 40177  1  0
 40178  1  0
 40179  1  0
 41180  1  0
 42181  1  0
 49182  1  0
 50183  1  0
 53184  1  0
 53185  1  0
 53186  1  0
 54187  1  0
 55188  1  0
 57189  1  0
 58190  1  0
 61191  1  0
 61192  1  0
 61193  1  0
 62194  1  0
 63195  1  0
 70196  1  0
 71197  1  0
 74198  1  0
 74199  1  0
 74200  1  0
 75201  1  0
 76202  1  0
 78203  1  0
 79204  1  0
 82205  1  0
 82206  1  0
 82207  1  0
 83208  1  0
 84209  1  0
 91210  1  0
 92211  1  0
 95212  1  0
 95213  1  0
 95214  1  0
 96215  1  0
 97216  1  0
 99217  1  0
100218  1  0
103219  1  0
103220  1  0
103221  1  0
104222  1  0
105223  1  0
109224  1  0
113225  1  0
114226  1  0
115227  1  0
118228  1  0
118229  1  0
119230  1  0
119231  1  0
119232  1  0
120233  1  0
125234  1  0
126235  1  0
127236  1  0
130237  1  0
130238  1  0
131239  1  0
131240  1  0
131241  1  0
132242  1  0
135243  1  0
138244  1  0
148245  1  0
148246  1  0
150247  1  0
151248  1  0
152249  1  0
153250  1  0
154251  1  0
M  END

