
     RDKit          3D

231251  0  0  0  0  0  0  0  0999 V2000
    5.7437    5.0753   -1.8368 C   0  0  0  0  0  0  0  0  0  0  0  0
    5.8028    3.8877   -2.4842 C   0  0  0  0  0  0  0  0  0  0  0  0
    5.7293    2.6175   -1.7940 C   0  0  0  0  0  0  0  0  0  0  0  0
    6.0579    2.4616   -0.5903 O   0  0  0  0  0  0  0  0  0  0  0  0
    5.4430    1.5820   -2.7795 C   0  0  0  0  0  0  0  0  0  0  0  0
    5.0618    0.2349   -2.5541 C   0  0  0  0  0  0  0  0  0  0  0  0
    4.7269   -0.4452   -3.6601 C   0  0  0  0  0  0  0  0  0  0  0  0
    4.5662    0.0971   -4.9574 C   0  0  0  0  0  0  0  0  0  0  0  0
    5.0622    1.3794   -5.2463 C   0  0  0  0  0  0  0  0  0  0  0  0
    5.3962    2.1534   -4.0726 C   0  0  0  0  0  0  0  0  0  0  0  0
    5.7228    3.6161   -3.9627 C   0  0  0  0  0  0  0  0  0  0  0  0
    5.8634    4.4983   -4.9927 C   0  0  0  0  0  0  0  0  0  0  0  0
    5.9122    4.0841   -6.3591 C   0  0  0  0  0  0  0  0  0  0  0  0
    5.9228    3.8196   -7.5073 N   0  0  0  0  0  0  0  0  0  0  0  0
    5.8636    5.9029   -4.7893 C   0  0  0  0  0  0  0  0  0  0  0  0
    5.8200    7.0937   -4.6884 N   0  0  0  0  0  0  0  0  0  0  0  0
    3.9171   -1.2147   -5.4056 C   0  0  0  0  0  0  0  0  0  0  0  0
    4.7193   -2.0968   -6.3824 C   0  0  0  0  0  0  0  0  0  0  0  0
    4.1922   -3.5023   -6.2082 C   0  0  0  0  0  0  0  0  0  0  0  0
    4.6948   -3.9650   -5.0652 C   0  0  0  0  0  0  0  0  0  0  0  0
    5.3920   -2.7981   -4.4265 C   0  0  0  0  0  0  0  0  0  0  0  0
    6.0470   -2.2495   -5.6798 C   0  0  0  0  0  0  0  0  0  0  0  0
    4.2700   -1.7905   -4.0922 C   0  0  0  0  0  0  0  0  0  0  0  0
    4.8617    5.2830   -0.6514 C   0  0  0  0  0  0  0  0  0  0  0  0
    3.5099    5.0083   -0.7725 C   0  0  0  0  0  0  0  0  0  0  0  0
    2.6093    5.9496   -1.4769 N   0  0  0  0  0  0  0  0  0  0  0  0
    2.2734    5.6498   -2.7994 C   0  0  0  0  0  0  0  0  0  0  0  0
    1.7794    4.3628   -3.1646 C   0  0  0  0  0  0  0  0  0  0  0  0
    1.4926    4.0071   -4.4650 C   0  0  0  0  0  0  0  0  0  0  0  0
    1.7103    4.9351   -5.5038 C   0  0  0  0  0  0  0  0  0  0  0  0
    1.5308    4.4306   -7.2176 S   0  0  0  0  0  0  0  0  0  0  0  0
   -0.2571    4.7347   -7.3810 C   0  0  0  0  0  0  0  0  0  0  0  0
    2.2506    6.1816   -5.1813 C   0  0  0  0  0  0  0  0  0  0  0  0
    2.5804    6.5239   -3.8750 C   0  0  0  0  0  0  0  0  0  0  0  0
    1.9008    6.9164   -0.6553 C   0  0  0  0  0  0  0  0  0  0  0  0
    1.8546    6.8735    0.7269 C   0  0  0  0  0  0  0  0  0  0  0  0
    1.0204    7.7633    1.4093 C   0  0  0  0  0  0  0  0  0  0  0  0
    0.3039    8.7988    0.7866 C   0  0  0  0  0  0  0  0  0  0  0  0
   -0.7483   10.0004    1.6561 S   0  0  0  0  0  0  0  0  0  0  0  0
   -1.0306    9.1034    3.2454 C   0  0  0  0  0  0  0  0  0  0  0  0
    0.5155    9.0117   -0.5752 C   0  0  0  0  0  0  0  0  0  0  0  0
    1.2980    8.0826   -1.2765 C   0  0  0  0  0  0  0  0  0  0  0  0
    3.0555    4.1402    0.2161 C   0  0  0  0  0  0  0  0  0  0  0  0
    1.5724    3.5092    0.4630 S   0  0  0  0  0  0  0  0  0  0  0  0
    1.9659    2.7484    1.9116 C   0  0  0  0  0  0  0  0  0  0  0  0
    3.3496    2.9322    2.2431 C   0  0  0  0  0  0  0  0  0  0  0  0
    4.1184    2.1465    3.2506 N   0  0  0  0  0  0  0  0  0  0  0  0
    5.5728    2.2924    3.4341 C   0  0  0  0  0  0  0  0  0  0  0  0
    6.3898    1.1549    3.6727 C   0  0  0  0  0  0  0  0  0  0  0  0
    7.7838    1.1996    3.4029 C   0  0  0  0  0  0  0  0  0  0  0  0
    8.3639    2.3975    3.0176 C   0  0  0  0  0  0  0  0  0  0  0  0
   10.0984    2.4854    2.4861 S   0  0  0  0  0  0  0  0  0  0  0  0
    9.8651    1.3594    1.0541 C   0  0  0  0  0  0  0  0  0  0  0  0
    7.6096    3.5912    3.0361 C   0  0  0  0  0  0  0  0  0  0  0  0
    6.2350    3.5175    3.3900 C   0  0  0  0  0  0  0  0  0  0  0  0
    3.4344    1.1628    3.9887 C   0  0  0  0  0  0  0  0  0  0  0  0
    3.6341   -0.2029    3.7320 C   0  0  0  0  0  0  0  0  0  0  0  0
    3.1313   -1.1802    4.5915 C   0  0  0  0  0  0  0  0  0  0  0  0
    2.2724   -0.8456    5.6490 C   0  0  0  0  0  0  0  0  0  0  0  0
    1.4354   -2.0550    6.7211 S   0  0  0  0  0  0  0  0  0  0  0  0
    2.3948   -3.6213    6.5974 C   0  0  0  0  0  0  0  0  0  0  0  0
    1.8834    0.5069    5.7813 C   0  0  0  0  0  0  0  0  0  0  0  0
    2.4859    1.4883    4.9835 C   0  0  0  0  0  0  0  0  0  0  0  0
    3.8912    3.7869    1.2420 C   0  0  0  0  0  0  0  0  0  0  0  0
    5.3248    4.5975    0.8456 S   0  0  0  0  0  0  0  0  0  0  0  0
    0.8942    1.9114    2.4672 C   0  0  0  0  0  0  0  0  0  0  0  0
   -0.2234    2.5233    3.0307 C   0  0  0  0  0  0  0  0  0  0  0  0
   -0.1125    3.6797    3.7319 F   0  0  0  0  0  0  0  0  0  0  0  0
   -1.5349    2.0117    2.8642 C   0  0  0  0  0  0  0  0  0  0  0  0
   -2.6179    2.6631    3.3550 F   0  0  0  0  0  0  0  0  0  0  0  0
   -1.6732    0.8334    2.1294 C   0  0  0  0  0  0  0  0  0  0  0  0
   -0.5811    0.1602    1.6072 C   0  0  0  0  0  0  0  0  0  0  0  0
   -0.7382   -0.9632    0.9050 N   0  0  0  0  0  0  0  0  0  0  0  0
    0.3047   -1.6552    0.3774 C   0  0  0  0  0  0  0  0  0  0  0  0
    0.0526   -2.9068   -0.4024 C   0  0  0  0  0  0  0  0  0  0  0  0
    0.2311   -2.7240   -1.9195 C   0  0  0  0  0  0  0  0  0  0  0  0
    1.6224   -1.0875    0.5803 C   0  0  0  0  0  0  0  0  0  0  0  0
    1.7875    0.0462    1.2543 N   0  0  0  0  0  0  0  0  0  0  0  0
    0.7559    0.6998    1.8017 C   0  0  0  0  0  0  0  0  0  0  0  0
    2.8516   -1.8224    0.1023 C   0  0  0  0  0  0  0  0  0  0  0  0
    3.1487   -3.0672    0.9449 C   0  0  0  0  0  0  0  0  0  0  0  0
   -3.0661    0.3511    1.7590 C   0  0  0  0  0  0  0  0  0  0  0  0
   -3.5598   -0.8271    2.2992 C   0  0  0  0  0  0  0  0  0  0  0  0
   -3.4049   -1.2110    3.6907 N   0  0  0  0  0  0  0  0  0  0  0  0
   -2.8870   -2.4471    4.0201 C   0  0  0  0  0  0  0  0  0  0  0  0
   -3.6835   -3.6132    3.8782 C   0  0  0  0  0  0  0  0  0  0  0  0
   -3.0949   -4.8798    3.9733 C   0  0  0  0  0  0  0  0  0  0  0  0
   -1.7574   -5.0287    4.3611 C   0  0  0  0  0  0  0  0  0  0  0  0
   -1.0690   -6.6552    4.6050 S   0  0  0  0  0  0  0  0  0  0  0  0
   -0.0833   -6.6930    3.0726 C   0  0  0  0  0  0  0  0  0  0  0  0
   -1.0042   -3.8910    4.6151 C   0  0  0  0  0  0  0  0  0  0  0  0
   -1.5455   -2.6252    4.4550 C   0  0  0  0  0  0  0  0  0  0  0  0
   -3.6856   -0.2412    4.7342 C   0  0  0  0  0  0  0  0  0  0  0  0
   -4.9976   -0.0022    5.1143 C   0  0  0  0  0  0  0  0  0  0  0  0
   -5.2323    0.9337    6.1321 C   0  0  0  0  0  0  0  0  0  0  0  0
   -4.1965    1.6413    6.7922 C   0  0  0  0  0  0  0  0  0  0  0  0
   -4.6604    2.7661    8.1531 S   0  0  0  0  0  0  0  0  0  0  0  0
   -3.0679    3.6274    8.4309 C   0  0  0  0  0  0  0  0  0  0  0  0
   -2.8908    1.3674    6.4036 C   0  0  0  0  0  0  0  0  0  0  0  0
   -2.6684    0.4468    5.3866 C   0  0  0  0  0  0  0  0  0  0  0  0
   -4.3733   -1.5140    1.3663 C   0  0  0  0  0  0  0  0  0  0  0  0
   -4.6877   -3.1212    0.9845 S   0  0  0  0  0  0  0  0  0  0  0  0
   -5.3927   -2.8513   -0.5582 C   0  0  0  0  0  0  0  0  0  0  0  0
   -5.3113   -1.4507   -0.8003 C   0  0  0  0  0  0  0  0  0  0  0  0
   -5.8384   -0.7640   -1.9837 N   0  0  0  0  0  0  0  0  0  0  0  0
   -7.1905   -0.3234   -1.9152 C   0  0  0  0  0  0  0  0  0  0  0  0
   -7.5429    1.0370   -1.6964 C   0  0  0  0  0  0  0  0  0  0  0  0
   -8.8595    1.4879   -1.8737 C   0  0  0  0  0  0  0  0  0  0  0  0
   -9.9148    0.5818   -1.9297 C   0  0  0  0  0  0  0  0  0  0  0  0
  -11.5839    1.2087   -1.7960 S   0  0  0  0  0  0  0  0  0  0  0  0
  -11.5007    1.6573   -0.0237 C   0  0  0  0  0  0  0  0  0  0  0  0
   -9.6330   -0.7812   -1.9396 C   0  0  0  0  0  0  0  0  0  0  0  0
   -8.2972   -1.2169   -1.9657 C   0  0  0  0  0  0  0  0  0  0  0  0
   -4.8091   -0.2626   -2.8752 C   0  0  0  0  0  0  0  0  0  0  0  0
   -4.6500    1.1231   -3.1425 C   0  0  0  0  0  0  0  0  0  0  0  0
   -3.5654    1.5537   -3.9552 C   0  0  0  0  0  0  0  0  0  0  0  0
   -2.6840    0.6348   -4.5383 C   0  0  0  0  0  0  0  0  0  0  0  0
   -1.5827    1.3458   -5.8237 S   0  0  0  0  0  0  0  0  0  0  0  0
   -0.1747    0.2075   -5.8007 C   0  0  0  0  0  0  0  0  0  0  0  0
   -2.8411   -0.7407   -4.2508 C   0  0  0  0  0  0  0  0  0  0  0  0
   -3.8676   -1.1680   -3.4011 C   0  0  0  0  0  0  0  0  0  0  0  0
   -4.6908   -0.8013    0.2330 C   0  0  0  0  0  0  0  0  0  0  0  0
   -3.7716    0.6023    0.2262 S   0  0  0  0  0  0  0  0  0  0  0  0
   -5.9695   -4.0122   -1.3889 C   0  0  0  0  0  0  0  0  0  0  0  0
   -6.7210   -4.9823   -0.5311 C   0  0  0  0  0  0  0  0  0  0  0  0
   -6.1692   -6.1207   -0.1172 C   0  0  0  0  0  0  0  0  0  0  0  0
   -4.8147   -6.5618   -0.4124 C   0  0  0  0  0  0  0  0  0  0  0  0
   -4.1311   -7.5622    0.2791 C   0  0  0  0  0  0  0  0  0  0  0  0
   -4.8169   -8.8191    1.2162 S   0  0  0  0  0  0  0  0  0  0  0  0
   -3.4290   -9.7979    1.4211 C   0  0  0  0  0  0  0  0  0  0  0  0
   -3.3375  -10.9668    2.0942 C   0  0  0  0  0  0  0  0  0  0  0  0
   -3.9529  -11.0381    3.4147 C   0  0  0  0  0  0  0  0  0  0  0  0
   -4.3885  -11.1711    4.5095 N   0  0  0  0  0  0  0  0  0  0  0  0
   -2.4438  -12.0535    1.7158 C   0  0  0  0  0  0  0  0  0  0  0  0
   -1.7186  -12.8960    1.4450 N   0  0  0  0  0  0  0  0  0  0  0  0
   -2.3358   -9.1388    0.8193 N   0  0  0  0  0  0  0  0  0  0  0  0
   -0.9747   -9.7236    0.6393 C   0  0  0  0  0  0  0  0  0  0  0  0
   -0.7207  -10.4373   -0.7364 C   0  0  0  0  0  0  0  0  0  0  0  0
   -2.7230   -7.9409    0.1681 C   0  0  0  0  0  0  0  0  0  0  0  0
   -1.8742   -7.0446   -0.0162 O   0  0  0  0  0  0  0  0  0  0  0  0
   -4.0204   -5.7191   -1.3914 C   0  0  0  0  0  0  0  0  0  0  0  0
   -4.9623   -4.8450   -2.1831 C   0  0  0  0  0  0  0  0  0  0  0  0
    5.9531    5.9699   -2.3571 H   0  0  0  0  0  0  0  0  0  0  0  0
    5.0455   -0.1864   -1.5826 H   0  0  0  0  0  0  0  0  0  0  0  0
    5.0003    1.6899   -6.2766 H   0  0  0  0  0  0  0  0  0  0  0  0
    2.8176   -1.1435   -5.5756 H   0  0  0  0  0  0  0  0  0  0  0  0
    4.7272   -1.6793   -7.4323 H   0  0  0  0  0  0  0  0  0  0  0  0
    3.5512   -4.0420   -6.8777 H   0  0  0  0  0  0  0  0  0  0  0  0
    4.6055   -4.9749   -4.6827 H   0  0  0  0  0  0  0  0  0  0  0  0
    6.0843   -3.0502   -3.5995 H   0  0  0  0  0  0  0  0  0  0  0  0
    6.6194   -1.2866   -5.5084 H   0  0  0  0  0  0  0  0  0  0  0  0
    6.7126   -2.9854   -6.1926 H   0  0  0  0  0  0  0  0  0  0  0  0
    3.4068   -2.1681   -3.4814 H   0  0  0  0  0  0  0  0  0  0  0  0
    1.6090    3.6079   -2.4013 H   0  0  0  0  0  0  0  0  0  0  0  0
    1.1103    3.0191   -4.7054 H   0  0  0  0  0  0  0  0  0  0  0  0
   -0.8058    4.1754   -6.5970 H   0  0  0  0  0  0  0  0  0  0  0  0
   -0.5760    4.3759   -8.3850 H   0  0  0  0  0  0  0  0  0  0  0  0
   -0.4698    5.8276   -7.3013 H   0  0  0  0  0  0  0  0  0  0  0  0
    2.4383    6.8961   -5.9660 H   0  0  0  0  0  0  0  0  0  0  0  0
    3.0837    7.4424   -3.6566 H   0  0  0  0  0  0  0  0  0  0  0  0
    2.3942    6.1338    1.2943 H   0  0  0  0  0  0  0  0  0  0  0  0
    0.8982    7.6723    2.4491 H   0  0  0  0  0  0  0  0  0  0  0  0
   -0.1378    9.2528    3.9065 H   0  0  0  0  0  0  0  0  0  0  0  0
   -1.9503    9.4934    3.7673 H   0  0  0  0  0  0  0  0  0  0  0  0
   -1.2211    8.0138    3.0845 H   0  0  0  0  0  0  0  0  0  0  0  0
    0.1315    9.8753   -1.1217 H   0  0  0  0  0  0  0  0  0  0  0  0
    1.4407    8.2559   -2.3040 H   0  0  0  0  0  0  0  0  0  0  0  0
    5.9944    0.2126    4.0167 H   0  0  0  0  0  0  0  0  0  0  0  0
    8.4558    0.3408    3.4471 H   0  0  0  0  0  0  0  0  0  0  0  0
   10.6660    1.5411    0.3106 H   0  0  0  0  0  0  0  0  0  0  0  0
    8.8661    1.5331    0.5765 H   0  0  0  0  0  0  0  0  0  0  0  0
    9.9152    0.2944    1.3985 H   0  0  0  0  0  0  0  0  0  0  0  0
    8.0588    4.5835    2.8535 H   0  0  0  0  0  0  0  0  0  0  0  0
    5.6817    4.4219    3.5573 H   0  0  0  0  0  0  0  0  0  0  0  0
    4.2061   -0.5037    2.8910 H   0  0  0  0  0  0  0  0  0  0  0  0
    3.3930   -2.2038    4.3878 H   0  0  0  0  0  0  0  0  0  0  0  0
    3.2472   -3.6020    5.8856 H   0  0  0  0  0  0  0  0  0  0  0  0
    1.6780   -4.4306    6.2686 H   0  0  0  0  0  0  0  0  0  0  0  0
    2.7979   -3.8858    7.5946 H   0  0  0  0  0  0  0  0  0  0  0  0
    1.0715    0.7759    6.4558 H   0  0  0  0  0  0  0  0  0  0  0  0
    2.2005    2.5102    5.1271 H   0  0  0  0  0  0  0  0  0  0  0  0
    0.7094   -3.7402   -0.0537 H   0  0  0  0  0  0  0  0  0  0  0  0
   -0.9759   -3.2385   -0.2186 H   0  0  0  0  0  0  0  0  0  0  0  0
    0.3897   -1.6700   -2.1883 H   0  0  0  0  0  0  0  0  0  0  0  0
   -0.6614   -3.0758   -2.4671 H   0  0  0  0  0  0  0  0  0  0  0  0
    1.1042   -3.3071   -2.2856 H   0  0  0  0  0  0  0  0  0  0  0  0
    3.7400   -1.1409    0.1699 H   0  0  0  0  0  0  0  0  0  0  0  0
    2.7911   -2.1044   -0.9821 H   0  0  0  0  0  0  0  0  0  0  0  0
    2.3995   -3.1983    1.7641 H   0  0  0  0  0  0  0  0  0  0  0  0
    4.1671   -3.0076    1.4230 H   0  0  0  0  0  0  0  0  0  0  0  0
    3.1164   -3.9880    0.3051 H   0  0  0  0  0  0  0  0  0  0  0  0
   -4.7439   -3.5235    3.6464 H   0  0  0  0  0  0  0  0  0  0  0  0
   -3.7113   -5.7666    3.7504 H   0  0  0  0  0  0  0  0  0  0  0  0
    0.5963   -7.5655    3.1242 H   0  0  0  0  0  0  0  0  0  0  0  0
   -0.7522   -6.8011    2.1986 H   0  0  0  0  0  0  0  0  0  0  0  0
    0.5178   -5.7543    2.9663 H   0  0  0  0  0  0  0  0  0  0  0  0
    0.0132   -3.9858    4.9237 H   0  0  0  0  0  0  0  0  0  0  0  0
   -0.9287   -1.7750    4.5995 H   0  0  0  0  0  0  0  0  0  0  0  0
   -5.8256   -0.5272    4.6824 H   0  0  0  0  0  0  0  0  0  0  0  0
   -6.2672    1.0782    6.4550 H   0  0  0  0  0  0  0  0  0  0  0  0
   -2.3186    2.9000    8.8370 H   0  0  0  0  0  0  0  0  0  0  0  0
   -3.1999    4.4261    9.1762 H   0  0  0  0  0  0  0  0  0  0  0  0
   -2.6952    4.0813    7.4757 H   0  0  0  0  0  0  0  0  0  0  0  0
   -2.0794    1.8699    6.8552 H   0  0  0  0  0  0  0  0  0  0  0  0
   -1.6816    0.3097    5.1085 H   0  0  0  0  0  0  0  0  0  0  0  0
   -6.7605    1.6722   -1.3398 H   0  0  0  0  0  0  0  0  0  0  0  0
   -9.0805    2.5326   -1.8564 H   0  0  0  0  0  0  0  0  0  0  0  0
  -10.4636    1.9383    0.2767 H   0  0  0  0  0  0  0  0  0  0  0  0
  -12.1603    2.5236    0.1611 H   0  0  0  0  0  0  0  0  0  0  0  0
  -11.8376    0.7975    0.5802 H   0  0  0  0  0  0  0  0  0  0  0  0
  -10.4521   -1.5042   -1.9220 H   0  0  0  0  0  0  0  0  0  0  0  0
   -8.1862   -2.2772   -1.9727 H   0  0  0  0  0  0  0  0  0  0  0  0
   -5.3249    1.8072   -2.6669 H   0  0  0  0  0  0  0  0  0  0  0  0
   -3.4411    2.6069   -4.1837 H   0  0  0  0  0  0  0  0  0  0  0  0
   -0.5334   -0.7972   -6.0921 H   0  0  0  0  0  0  0  0  0  0  0  0
    0.5169    0.5902   -6.5999 H   0  0  0  0  0  0  0  0  0  0  0  0
    0.3481    0.2159   -4.8180 H   0  0  0  0  0  0  0  0  0  0  0  0
   -2.1234   -1.4663   -4.6593 H   0  0  0  0  0  0  0  0  0  0  0  0
   -3.8769   -2.2011   -3.1427 H   0  0  0  0  0  0  0  0  0  0  0  0
   -6.6420   -3.5261   -2.1288 H   0  0  0  0  0  0  0  0  0  0  0  0
   -7.6985   -4.7442   -0.2832 H   0  0  0  0  0  0  0  0  0  0  0  0
   -6.6968   -6.6654    0.6438 H   0  0  0  0  0  0  0  0  0  0  0  0
   -0.2489   -8.9447    0.7767 H   0  0  0  0  0  0  0  0  0  0  0  0
   -0.7880  -10.4044    1.4388 H   0  0  0  0  0  0  0  0  0  0  0  0
    0.1771  -11.1136   -0.6690 H   0  0  0  0  0  0  0  0  0  0  0  0
   -1.5260  -11.0483   -1.0780 H   0  0  0  0  0  0  0  0  0  0  0  0
   -0.4589   -9.6789   -1.5114 H   0  0  0  0  0  0  0  0  0  0  0  0
   -3.2816   -6.2756   -2.0541 H   0  0  0  0  0  0  0  0  0  0  0  0
   -3.3185   -5.0020   -0.8660 H   0  0  0  0  0  0  0  0  0  0  0  0
   -5.4723   -5.3816   -2.9607 H   0  0  0  0  0  0  0  0  0  0  0  0
   -4.3747   -4.3059   -2.8036 H   0  0  0  0  0  0  0  0  0  0  0  0
  1  2  2  3
  2  3  1  0
  3  4  2  0
  3  5  1  0
  5  6  2  0
  6  7  1  0
  7  8  2  0
  8  9  1  0
  9 10  2  0
 10 11  1  0
 11 12  2  3
 12 13  1  0
 13 14  3  0
 12 15  1  0
 15 16  3  0
  8 17  1  0
 17 18  1  0
 18 19  1  0
 19 20  2  0
 20 21  1  0
 21 22  1  0
 21 23  1  0
  1 24  1  0
 24 25  2  0
 25 26  1  0
 26 27  1  0
 27 28  2  0
 28 29  1  0
 29 30  2  0
 30 31  1  0
 31 32  1  0
 30 33  1  0
 33 34  2  0
 26 35  1  0
 35 36  2  0
 36 37  1  0
 37 38  2  0
 38 39  1  0
 39 40  1  0
 38 41  1  0
 41 42  2  0
 25 43  1  0
 43 44  1  0
 44 45  1  0
 45 46  2  0
 46 47  1  0
 47 48  1  0
 48 49  2  0
 49 50  1  0
 50 51  2  0
 51 52  1  0
 52 53  1  0
 51 54  1  0
 54 55  2  0
 47 56  1  0
 56 57  2  0
 57 58  1  0
 58 59  2  0
 59 60  1  0
 60 61  1  0
 59 62  1  0
 62 63  2  0
 46 64  1  0
 64 65  1  0
 45 66  1  0
 66 67  2  0
 67 68  1  0
 67 69  1  0
 69 70  1  0
 69 71  2  0
 71 72  1  0
 72 73  2  0
 73 74  1  0
 74 75  1  0
 75 76  1  0
 74 77  2  0
 77 78  1  0
 78 79  2  0
 77 80  1  0
 80 81  1  0
 71 82  1  0
 82 83  2  0
 83 84  1  0
 84 85  1  0
 85 86  2  0
 86 87  1  0
 87 88  2  0
 88 89  1  0
 89 90  1  0
 88 91  1  0
 91 92  2  0
 84 93  1  0
 93 94  2  0
 94 95  1  0
 95 96  2  0
 96 97  1  0
 97 98  1  0
 96 99  1  0
 99100  2  0
 83101  1  0
101102  1  0
102103  1  0
103104  2  0
104105  1  0
105106  1  0
106107  2  0
107108  1  0
108109  2  0
109110  1  0
110111  1  0
109112  1  0
112113  2  0
105114  1  0
114115  2  0
115116  1  0
116117  2  0
117118  1  0
118119  1  0
117120  1  0
120121  2  0
104122  1  0
122123  1  0
103124  1  0
124125  1  0
125126  2  0
126127  1  0
127128  2  3
128129  1  0
129130  1  0
130131  2  3
131132  1  0
132133  3  0
131134  1  0
134135  3  0
130136  1  0
136137  1  0
137138  1  0
136139  1  0
139140  2  0
127141  1  0
141142  1  0
 11  2  1  0
 23 17  1  0
 65 24  1  0
 79 66  1  0
123 82  1  0
142124  1  0
 10  5  1  0
 22 18  1  0
 34 27  1  0
 42 35  1  0
 64 43  2  0
 79 72  1  0
 92 85  1  0
100 93  1  0
122101  2  0
139128  1  0
 23  7  1  0
 55 48  1  0
 63 56  1  0
113106  1  0
121114  1  0
  1143  1  0
  6144  1  0
  9145  1  0
 17146  1  0
 18147  1  0
 19148  1  0
 20149  1  0
 21150  1  0
 22151  1  0
 22152  1  0
 23153  1  0
 28154  1  0
 29155  1  0
 32156  1  0
 32157  1  0
 32158  1  0
 33159  1  0
 34160  1  0
 36161  1  0
 37162  1  0
 40163  1  0
 40164  1  0
 40165  1  0
 41166  1  0
 42167  1  0
 49168  1  0
 50169  1  0
 53170  1  0
 53171  1  0
 53172  1  0
 54173  1  0
 55174  1  0
 57175  1  0
 58176  1  0
 61177  1  0
 61178  1  0
 61179  1  0
 62180  1  0
 63181  1  0
 75182  1  0
 75183  1  0
 76184  1  0
 76185  1  0
 76186  1  0
 80187  1  0
 80188  1  0
 81189  1  0
 81190  1  0
 81191  1  0
 86192  1  0
 87193  1  0
 90194  1  0
 90195  1  0
 90196  1  0
 91197  1  0
 92198  1  0
 94199  1  0
 95200  1  0
 98201  1  0
 98202  1  0
 98203  1  0
 99204  1  0
100205  1  0
107206  1  0
108207  1  0
111208  1  0
111209  1  0
111210  1  0
112211  1  0
113212  1  0
115213  1  0
116214  1  0
119215  1  0
119216  1  0
119217  1  0
120218  1  0
121219  1  0
124220  1  0
125221  1  0
126222  1  0
137223  1  0
137224  1  0
138225  1  0
138226  1  0
138227  1  0
141228  1  0
141229  1  0
142230  1  0
142231  1  0
M  END

