
     RDKit          3D

269292  0  0  0  0  0  0  0  0999 V2000
   -5.7605   -2.6918    5.1540 C   0  0  0  0  0  0  0  0  0  0  0  0
   -6.1818   -1.5297    5.6921 C   0  0  0  0  0  0  0  0  0  0  0  0
   -7.5694   -1.3067    6.1013 C   0  0  0  0  0  0  0  0  0  0  0  0
   -8.4274   -2.2002    6.3404 O   0  0  0  0  0  0  0  0  0  0  0  0
   -7.8313    0.1201    6.0710 C   0  0  0  0  0  0  0  0  0  0  0  0
   -9.0839    0.7680    6.2102 C   0  0  0  0  0  0  0  0  0  0  0  0
   -9.0390    2.1266    5.9486 C   0  0  0  0  0  0  0  0  0  0  0  0
   -7.8380    2.8151    5.5730 C   0  0  0  0  0  0  0  0  0  0  0  0
   -6.6105    2.1892    5.4412 C   0  0  0  0  0  0  0  0  0  0  0  0
   -6.6337    0.7956    5.7200 C   0  0  0  0  0  0  0  0  0  0  0  0
   -5.5259   -0.1887    5.6501 C   0  0  0  0  0  0  0  0  0  0  0  0
   -4.2251    0.0577    5.9540 C   0  0  0  0  0  0  0  0  0  0  0  0
   -3.7067    1.3922    6.0957 C   0  0  0  0  0  0  0  0  0  0  0  0
   -3.2793    2.4592    6.2220 N   0  0  0  0  0  0  0  0  0  0  0  0
   -3.3579   -1.0030    6.4059 C   0  0  0  0  0  0  0  0  0  0  0  0
   -2.6831   -1.8586    6.8109 N   0  0  0  0  0  0  0  0  0  0  0  0
   -8.5938    4.1009    5.4431 C   0  0  0  0  0  0  0  0  0  0  0  0
   -8.3926    5.1516    6.5743 C   0  0  0  0  0  0  0  0  0  0  0  0
   -9.5282    6.1380    6.4348 C   0  0  0  0  0  0  0  0  0  0  0  0
  -10.6383    5.4924    6.8074 C   0  0  0  0  0  0  0  0  0  0  0  0
  -10.2176    4.0915    7.1817 C   0  0  0  0  0  0  0  0  0  0  0  0
   -8.8741    4.4153    7.8122 C   0  0  0  0  0  0  0  0  0  0  0  0
   -9.8217    3.4023    5.8411 C   0  0  0  0  0  0  0  0  0  0  0  0
   -4.6002   -2.8136    4.2530 C   0  0  0  0  0  0  0  0  0  0  0  0
   -3.8046   -3.9597    4.0964 C   0  0  0  0  0  0  0  0  0  0  0  0
   -4.1582   -5.2646    4.5931 N   0  0  0  0  0  0  0  0  0  0  0  0
   -5.3395   -5.9373    4.0884 C   0  0  0  0  0  0  0  0  0  0  0  0
   -6.0054   -6.8944    4.8789 C   0  0  0  0  0  0  0  0  0  0  0  0
   -7.1365   -7.5570    4.3895 C   0  0  0  0  0  0  0  0  0  0  0  0
   -7.6124   -7.2767    3.1038 C   0  0  0  0  0  0  0  0  0  0  0  0
   -9.0594   -8.1294    2.4663 S   0  0  0  0  0  0  0  0  0  0  0  0
   -8.1000   -9.4905    1.7350 C   0  0  0  0  0  0  0  0  0  0  0  0
   -6.9661   -6.3204    2.3146 C   0  0  0  0  0  0  0  0  0  0  0  0
   -5.8342   -5.6573    2.7972 C   0  0  0  0  0  0  0  0  0  0  0  0
   -3.2325   -5.9617    5.4443 C   0  0  0  0  0  0  0  0  0  0  0  0
   -2.7609   -7.2354    5.0851 C   0  0  0  0  0  0  0  0  0  0  0  0
   -1.9173   -7.9424    5.9467 C   0  0  0  0  0  0  0  0  0  0  0  0
   -1.5320   -7.3770    7.1685 C   0  0  0  0  0  0  0  0  0  0  0  0
   -0.4983   -8.3058    8.3036 S   0  0  0  0  0  0  0  0  0  0  0  0
    1.0570   -7.6598    7.6148 C   0  0  0  0  0  0  0  0  0  0  0  0
   -1.9841   -6.0989    7.5207 C   0  0  0  0  0  0  0  0  0  0  0  0
   -2.8304   -5.3944    6.6608 C   0  0  0  0  0  0  0  0  0  0  0  0
   -2.8004   -3.7450    3.1522 C   0  0  0  0  0  0  0  0  0  0  0  0
   -1.5809   -4.6936    2.4845 S   0  0  0  0  0  0  0  0  0  0  0  0
   -1.1270   -3.5090    1.3444 C   0  0  0  0  0  0  0  0  0  0  0  0
   -1.9310   -2.3721    1.4904 C   0  0  0  0  0  0  0  0  0  0  0  0
   -2.0279   -1.3218    0.5127 N   0  0  0  0  0  0  0  0  0  0  0  0
   -1.2270   -0.1424    0.6930 C   0  0  0  0  0  0  0  0  0  0  0  0
   -0.1660    0.1317   -0.1835 C   0  0  0  0  0  0  0  0  0  0  0  0
    0.5531    1.3266   -0.0755 C   0  0  0  0  0  0  0  0  0  0  0  0
    0.2127    2.2570    0.9135 C   0  0  0  0  0  0  0  0  0  0  0  0
    1.1384    3.7830    1.0665 S   0  0  0  0  0  0  0  0  0  0  0  0
   -0.0425    4.7285    0.0586 C   0  0  0  0  0  0  0  0  0  0  0  0
   -0.8414    1.9845    1.7957 C   0  0  0  0  0  0  0  0  0  0  0  0
   -1.5568    0.7883    1.6892 C   0  0  0  0  0  0  0  0  0  0  0  0
   -2.9930   -1.4195   -0.5684 C   0  0  0  0  0  0  0  0  0  0  0  0
   -3.7821   -2.5801   -0.7295 C   0  0  0  0  0  0  0  0  0  0  0  0
   -4.7665   -2.6473   -1.7171 C   0  0  0  0  0  0  0  0  0  0  0  0
   -4.9771   -1.5640   -2.5738 C   0  0  0  0  0  0  0  0  0  0  0  0
   -6.2898   -1.6369   -3.7947 S   0  0  0  0  0  0  0  0  0  0  0  0
   -7.5597   -1.0268   -2.6413 C   0  0  0  0  0  0  0  0  0  0  0  0
   -4.1782   -0.4222   -2.4610 C   0  0  0  0  0  0  0  0  0  0  0  0
   -3.1937   -0.3489   -1.4701 C   0  0  0  0  0  0  0  0  0  0  0  0
   -2.8478   -2.5452    2.5227 C   0  0  0  0  0  0  0  0  0  0  0  0
   -4.1152   -1.6324    3.1176 S   0  0  0  0  0  0  0  0  0  0  0  0
    0.1000   -3.5358    0.5470 C   0  0  0  0  0  0  0  0  0  0  0  0
    1.3371   -3.1548    1.0766 C   0  0  0  0  0  0  0  0  0  0  0  0
    1.6243   -3.0566    2.4787 N   0  0  0  0  0  0  0  0  0  0  0  0
    2.5483   -3.9871    3.0492 C   0  0  0  0  0  0  0  0  0  0  0  0
    2.1670   -5.3197    3.2706 C   0  0  0  0  0  0  0  0  0  0  0  0
    3.0679   -6.2233    3.8362 C   0  0  0  0  0  0  0  0  0  0  0  0
    4.3650   -5.8106    4.1673 C   0  0  0  0  0  0  0  0  0  0  0  0
    5.5314   -6.9834    4.8613 S   0  0  0  0  0  0  0  0  0  0  0  0
    6.1988   -7.4560    3.2350 C   0  0  0  0  0  0  0  0  0  0  0  0
    4.7500   -4.4814    3.9443 C   0  0  0  0  0  0  0  0  0  0  0  0
    3.8421   -3.5713    3.4021 C   0  0  0  0  0  0  0  0  0  0  0  0
    1.2214   -1.9172    3.2560 C   0  0  0  0  0  0  0  0  0  0  0  0
    1.5212   -0.6134    2.8309 C   0  0  0  0  0  0  0  0  0  0  0  0
    1.2760    0.4744    3.6713 C   0  0  0  0  0  0  0  0  0  0  0  0
    0.7035    0.2763    4.9307 C   0  0  0  0  0  0  0  0  0  0  0  0
    0.4348    1.6695    6.0274 S   0  0  0  0  0  0  0  0  0  0  0  0
    2.1495    1.6511    6.6357 C   0  0  0  0  0  0  0  0  0  0  0  0
    0.3732   -1.0164    5.3488 C   0  0  0  0  0  0  0  0  0  0  0  0
    0.6342   -2.1088    4.5185 C   0  0  0  0  0  0  0  0  0  0  0  0
    2.2248   -2.7824    0.0786 C   0  0  0  0  0  0  0  0  0  0  0  0
    3.6012   -1.8537    0.1109 S   0  0  0  0  0  0  0  0  0  0  0  0
    3.6376   -1.5507   -1.5635 C   0  0  0  0  0  0  0  0  0  0  0  0
    2.5525   -2.2215   -2.1566 C   0  0  0  0  0  0  0  0  0  0  0  0
    2.5033   -2.5389   -3.5597 N   0  0  0  0  0  0  0  0  0  0  0  0
    3.6493   -3.2187   -4.1314 C   0  0  0  0  0  0  0  0  0  0  0  0
    4.0629   -2.9547   -5.4487 C   0  0  0  0  0  0  0  0  0  0  0  0
    5.1445   -3.6487   -6.0057 C   0  0  0  0  0  0  0  0  0  0  0  0
    5.8379   -4.5988   -5.2471 C   0  0  0  0  0  0  0  0  0  0  0  0
    7.2196   -5.4987   -5.9583 S   0  0  0  0  0  0  0  0  0  0  0  0
    6.2277   -6.9573   -6.3901 C   0  0  0  0  0  0  0  0  0  0  0  0
    5.4657   -4.8344   -3.9228 C   0  0  0  0  0  0  0  0  0  0  0  0
    4.3738   -4.1622   -3.3715 C   0  0  0  0  0  0  0  0  0  0  0  0
    1.2648   -2.4056   -4.2947 C   0  0  0  0  0  0  0  0  0  0  0  0
    0.3728   -1.3522   -4.0155 C   0  0  0  0  0  0  0  0  0  0  0  0
   -0.8405   -1.2481   -4.7019 C   0  0  0  0  0  0  0  0  0  0  0  0
   -1.1639   -2.1771   -5.6970 C   0  0  0  0  0  0  0  0  0  0  0  0
   -2.7012   -2.0271   -6.6100 S   0  0  0  0  0  0  0  0  0  0  0  0
   -3.5548   -3.2951   -5.6193 C   0  0  0  0  0  0  0  0  0  0  0  0
   -0.2788   -3.2167   -5.9937 C   0  0  0  0  0  0  0  0  0  0  0  0
    0.9162   -3.3442   -5.2870 C   0  0  0  0  0  0  0  0  0  0  0  0
    1.7653   -2.8713   -1.1943 C   0  0  0  0  0  0  0  0  0  0  0  0
    0.1684   -3.4118   -1.1596 S   0  0  0  0  0  0  0  0  0  0  0  0
    4.3060   -0.3524   -2.1181 C   0  0  0  0  0  0  0  0  0  0  0  0
    4.9776    0.5477   -1.2791 C   0  0  0  0  0  0  0  0  0  0  0  0
    6.0491    0.1187   -0.4121 N   0  0  0  0  0  0  0  0  0  0  0  0
    6.2740    0.7353    0.8653 C   0  0  0  0  0  0  0  0  0  0  0  0
    5.9805    0.0290    2.0410 C   0  0  0  0  0  0  0  0  0  0  0  0
    6.2415    0.6019    3.2898 C   0  0  0  0  0  0  0  0  0  0  0  0
    6.8274    1.8721    3.3717 C   0  0  0  0  0  0  0  0  0  0  0  0
    7.2279    2.5880    4.9680 S   0  0  0  0  0  0  0  0  0  0  0  0
    5.6537    3.4888    5.0873 C   0  0  0  0  0  0  0  0  0  0  0  0
    7.1490    2.5665    2.2004 C   0  0  0  0  0  0  0  0  0  0  0  0
    6.8669    2.0058    0.9542 C   0  0  0  0  0  0  0  0  0  0  0  0
    7.1376   -0.5846   -1.0348 C   0  0  0  0  0  0  0  0  0  0  0  0
    7.0764   -1.9748   -1.2174 C   0  0  0  0  0  0  0  0  0  0  0  0
    8.0321   -2.6274   -2.0033 C   0  0  0  0  0  0  0  0  0  0  0  0
    9.0656   -1.8975   -2.6023 C   0  0  0  0  0  0  0  0  0  0  0  0
   10.2182   -2.7038   -3.7137 S   0  0  0  0  0  0  0  0  0  0  0  0
    9.1509   -2.4496   -5.1687 C   0  0  0  0  0  0  0  0  0  0  0  0
    9.1555   -0.5182   -2.3919 C   0  0  0  0  0  0  0  0  0  0  0  0
    8.1923    0.1376   -1.6193 C   0  0  0  0  0  0  0  0  0  0  0  0
    4.8851    1.8587   -1.7446 C   0  0  0  0  0  0  0  0  0  0  0  0
    4.4617    3.2033   -0.8408 S   0  0  0  0  0  0  0  0  0  0  0  0
    3.7238    4.0399   -2.1080 C   0  0  0  0  0  0  0  0  0  0  0  0
    3.8713    3.2946   -3.2978 C   0  0  0  0  0  0  0  0  0  0  0  0
    3.9508    3.9078   -4.6156 N   0  0  0  0  0  0  0  0  0  0  0  0
    4.1966    3.1200   -5.7906 C   0  0  0  0  0  0  0  0  0  0  0  0
    3.2494    3.0820   -6.8209 C   0  0  0  0  0  0  0  0  0  0  0  0
    3.5518    2.4733   -8.0405 C   0  0  0  0  0  0  0  0  0  0  0  0
    4.8139    1.9003   -8.2414 C   0  0  0  0  0  0  0  0  0  0  0  0
    5.2231    1.1913   -9.8367 S   0  0  0  0  0  0  0  0  0  0  0  0
    5.7753    2.7841  -10.5329 C   0  0  0  0  0  0  0  0  0  0  0  0
    5.7576    1.9066   -7.2054 C   0  0  0  0  0  0  0  0  0  0  0  0
    5.4557    2.5284   -5.9903 C   0  0  0  0  0  0  0  0  0  0  0  0
    4.2697    5.3146   -4.7254 C   0  0  0  0  0  0  0  0  0  0  0  0
    5.3920    5.8402   -4.0557 C   0  0  0  0  0  0  0  0  0  0  0  0
    5.6301    7.2184   -4.0527 C   0  0  0  0  0  0  0  0  0  0  0  0
    4.7621    8.0823   -4.7293 C   0  0  0  0  0  0  0  0  0  0  0  0
    5.0389    9.8558   -4.6783 S   0  0  0  0  0  0  0  0  0  0  0  0
    4.0884   10.0819   -3.1415 C   0  0  0  0  0  0  0  0  0  0  0  0
    3.6824    7.5604   -5.4531 C   0  0  0  0  0  0  0  0  0  0  0  0
    3.4443    6.1820   -5.4608 C   0  0  0  0  0  0  0  0  0  0  0  0
    4.3796    2.0164   -3.0121 C   0  0  0  0  0  0  0  0  0  0  0  0
    3.7624    0.5170   -3.4819 S   0  0  0  0  0  0  0  0  0  0  0  0
    3.0601    5.3479   -1.9054 C   0  0  0  0  0  0  0  0  0  0  0  0
    1.9385    5.7972   -2.5275 C   0  0  0  0  0  0  0  0  0  0  0  0
    1.1117    4.9821   -3.4593 C   0  0  0  0  0  0  0  0  0  0  0  0
    1.1317    3.7213   -3.3923 O   0  0  0  0  0  0  0  0  0  0  0  0
    0.2011    5.6336   -4.3677 N   0  0  0  0  0  0  0  0  0  0  0  0
   -0.3955    4.8621   -5.4796 C   0  0  0  0  0  0  0  0  0  0  0  0
   -1.7806    4.3447   -5.0993 C   0  0  0  0  0  0  0  0  0  0  0  0
   -0.1545    7.0134   -4.1290 C   0  0  0  0  0  0  0  0  0  0  0  0
   -1.0316    7.8615   -5.2351 S   0  0  0  0  0  0  0  0  0  0  0  0
    0.2663    7.6562   -2.9066 N   0  0  0  0  0  0  0  0  0  0  0  0
   -0.5861    8.6697   -2.2589 C   0  0  0  0  0  0  0  0  0  0  0  0
   -1.8252    8.0154   -1.6418 C   0  0  0  0  0  0  0  0  0  0  0  0
    1.4321    7.1562   -2.2258 C   0  0  0  0  0  0  0  0  0  0  0  0
    2.0238    7.8863   -1.3880 O   0  0  0  0  0  0  0  0  0  0  0  0
   -6.3829   -3.5727    5.2881 H   0  0  0  0  0  0  0  0  0  0  0  0
  -10.0038    0.2493    6.4585 H   0  0  0  0  0  0  0  0  0  0  0  0
   -5.7366    2.7274    5.1087 H   0  0  0  0  0  0  0  0  0  0  0  0
   -8.6148    4.5054    4.4067 H   0  0  0  0  0  0  0  0  0  0  0  0
   -7.3804    5.6001    6.6389 H   0  0  0  0  0  0  0  0  0  0  0  0
   -9.4650    7.1904    6.1810 H   0  0  0  0  0  0  0  0  0  0  0  0
  -11.6310    5.9291    6.8917 H   0  0  0  0  0  0  0  0  0  0  0  0
  -10.9388    3.5359    7.8193 H   0  0  0  0  0  0  0  0  0  0  0  0
   -8.9556    5.0718    8.7166 H   0  0  0  0  0  0  0  0  0  0  0  0
   -8.2682    3.5247    8.0816 H   0  0  0  0  0  0  0  0  0  0  0  0
  -10.6118    3.3781    5.0601 H   0  0  0  0  0  0  0  0  0  0  0  0
   -5.6551   -7.1241    5.8795 H   0  0  0  0  0  0  0  0  0  0  0  0
   -7.6289   -8.2983    5.0048 H   0  0  0  0  0  0  0  0  0  0  0  0
   -7.6597  -10.1109    2.5404 H   0  0  0  0  0  0  0  0  0  0  0  0
   -7.2955   -9.0949    1.0831 H   0  0  0  0  0  0  0  0  0  0  0  0
   -8.7766  -10.1189    1.1233 H   0  0  0  0  0  0  0  0  0  0  0  0
   -7.3342   -6.0959    1.3225 H   0  0  0  0  0  0  0  0  0  0  0  0
   -5.3460   -4.9345    2.1547 H   0  0  0  0  0  0  0  0  0  0  0  0
   -3.0569   -7.6868    4.1450 H   0  0  0  0  0  0  0  0  0  0  0  0
   -1.5740   -8.9347    5.6729 H   0  0  0  0  0  0  0  0  0  0  0  0
    1.9087   -8.1035    8.1696 H   0  0  0  0  0  0  0  0  0  0  0  0
    1.1420   -7.9353    6.5424 H   0  0  0  0  0  0  0  0  0  0  0  0
    1.0928   -6.5550    7.7232 H   0  0  0  0  0  0  0  0  0  0  0  0
   -1.7004   -5.6634    8.4683 H   0  0  0  0  0  0  0  0  0  0  0  0
   -3.2092   -4.4276    6.9570 H   0  0  0  0  0  0  0  0  0  0  0  0
    0.0880   -0.5689   -0.9648 H   0  0  0  0  0  0  0  0  0  0  0  0
    1.3685    1.5246   -0.7616 H   0  0  0  0  0  0  0  0  0  0  0  0
   -0.1050    4.2918   -0.9588 H   0  0  0  0  0  0  0  0  0  0  0  0
    0.3043    5.7776   -0.0106 H   0  0  0  0  0  0  0  0  0  0  0  0
   -1.0478    4.7163    0.5280 H   0  0  0  0  0  0  0  0  0  0  0  0
   -1.1046    2.6983    2.5661 H   0  0  0  0  0  0  0  0  0  0  0  0
   -2.3820    0.6021    2.3636 H   0  0  0  0  0  0  0  0  0  0  0  0
   -3.6624   -3.4381   -0.0820 H   0  0  0  0  0  0  0  0  0  0  0  0
   -5.3843   -3.5371   -1.7960 H   0  0  0  0  0  0  0  0  0  0  0  0
   -7.3069    0.0018   -2.3082 H   0  0  0  0  0  0  0  0  0  0  0  0
   -7.6346   -1.6998   -1.7616 H   0  0  0  0  0  0  0  0  0  0  0  0
   -8.5394   -1.0080   -3.1604 H   0  0  0  0  0  0  0  0  0  0  0  0
   -4.3227    0.4086   -3.1419 H   0  0  0  0  0  0  0  0  0  0  0  0
   -2.6059    0.5569   -1.4079 H   0  0  0  0  0  0  0  0  0  0  0  0
    1.1661   -5.6474    3.0226 H   0  0  0  0  0  0  0  0  0  0  0  0
    2.7598   -7.2477    4.0171 H   0  0  0  0  0  0  0  0  0  0  0  0
    5.4030   -7.9243    2.6182 H   0  0  0  0  0  0  0  0  0  0  0  0
    6.5996   -6.5604    2.7149 H   0  0  0  0  0  0  0  0  0  0  0  0
    7.0215   -8.1864    3.3754 H   0  0  0  0  0  0  0  0  0  0  0  0
    5.7534   -4.1552    4.1919 H   0  0  0  0  0  0  0  0  0  0  0  0
    4.1432   -2.5441    3.2439 H   0  0  0  0  0  0  0  0  0  0  0  0
    1.9901   -0.4353    1.8763 H   0  0  0  0  0  0  0  0  0  0  0  0
    1.5586    1.4700    3.3563 H   0  0  0  0  0  0  0  0  0  0  0  0
    2.3849    0.6725    7.1041 H   0  0  0  0  0  0  0  0  0  0  0  0
    2.8380    1.8264    5.7871 H   0  0  0  0  0  0  0  0  0  0  0  0
    2.2889    2.4565    7.3857 H   0  0  0  0  0  0  0  0  0  0  0  0
   -0.0489   -1.1772    6.3315 H   0  0  0  0  0  0  0  0  0  0  0  0
    0.4057   -3.1097    4.8680 H   0  0  0  0  0  0  0  0  0  0  0  0
    3.5427   -2.2193   -6.0479 H   0  0  0  0  0  0  0  0  0  0  0  0
    5.4448   -3.4466   -7.0267 H   0  0  0  0  0  0  0  0  0  0  0  0
    5.3939   -6.6675   -7.0599 H   0  0  0  0  0  0  0  0  0  0  0  0
    5.8257   -7.4271   -5.4698 H   0  0  0  0  0  0  0  0  0  0  0  0
    6.8740   -7.6923   -6.9123 H   0  0  0  0  0  0  0  0  0  0  0  0
    6.0057   -5.5550   -3.3192 H   0  0  0  0  0  0  0  0  0  0  0  0
    4.0841   -4.3920   -2.3545 H   0  0  0  0  0  0  0  0  0  0  0  0
    0.6207   -0.6133   -3.2678 H   0  0  0  0  0  0  0  0  0  0  0  0
   -1.5186   -0.4366   -4.4718 H   0  0  0  0  0  0  0  0  0  0  0  0
   -3.0283   -4.2688   -5.7077 H   0  0  0  0  0  0  0  0  0  0  0  0
   -3.5820   -2.9882   -4.5547 H   0  0  0  0  0  0  0  0  0  0  0  0
   -4.5905   -3.4148   -5.9976 H   0  0  0  0  0  0  0  0  0  0  0  0
   -0.5230   -3.9337   -6.7692 H   0  0  0  0  0  0  0  0  0  0  0  0
    1.5634   -4.1810   -5.5156 H   0  0  0  0  0  0  0  0  0  0  0  0
    5.5738   -0.9719    1.9867 H   0  0  0  0  0  0  0  0  0  0  0  0
    5.9919    0.0568    4.1891 H   0  0  0  0  0  0  0  0  0  0  0  0
    5.7047    4.2077    5.9297 H   0  0  0  0  0  0  0  0  0  0  0  0
    4.8354    2.7706    5.2780 H   0  0  0  0  0  0  0  0  0  0  0  0
    5.4461    4.0490    4.1529 H   0  0  0  0  0  0  0  0  0  0  0  0
    7.6268    3.5359    2.2554 H   0  0  0  0  0  0  0  0  0  0  0  0
    7.1303    2.5503    0.0602 H   0  0  0  0  0  0  0  0  0  0  0  0
    6.2624   -2.5448   -0.7946 H   0  0  0  0  0  0  0  0  0  0  0  0
    7.9456   -3.6927   -2.1740 H   0  0  0  0  0  0  0  0  0  0  0  0
    9.6732   -2.8052   -6.0765 H   0  0  0  0  0  0  0  0  0  0  0  0
    8.8953   -1.3779   -5.2884 H   0  0  0  0  0  0  0  0  0  0  0  0
    8.2145   -3.0214   -5.0328 H   0  0  0  0  0  0  0  0  0  0  0  0
    9.9450    0.0586   -2.8602 H   0  0  0  0  0  0  0  0  0  0  0  0
    8.2411    1.2142   -1.5253 H   0  0  0  0  0  0  0  0  0  0  0  0
    2.2894    3.5576   -6.6938 H   0  0  0  0  0  0  0  0  0  0  0  0
    2.8231    2.4840   -8.8396 H   0  0  0  0  0  0  0  0  0  0  0  0
    4.9361    3.5133  -10.5408 H   0  0  0  0  0  0  0  0  0  0  0  0
    6.6153    3.1931   -9.9326 H   0  0  0  0  0  0  0  0  0  0  0  0
    6.1216    2.6291  -11.5761 H   0  0  0  0  0  0  0  0  0  0  0  0
    6.7360    1.4694   -7.3589 H   0  0  0  0  0  0  0  0  0  0  0  0
    6.2113    2.5772   -5.2167 H   0  0  0  0  0  0  0  0  0  0  0  0
    6.0554    5.1830   -3.5024 H   0  0  0  0  0  0  0  0  0  0  0  0
    6.4778    7.6135   -3.5092 H   0  0  0  0  0  0  0  0  0  0  0  0
    4.1247   11.1501   -2.8497 H   0  0  0  0  0  0  0  0  0  0  0  0
    3.0325    9.7871   -3.3024 H   0  0  0  0  0  0  0  0  0  0  0  0
    4.5314    9.4736   -2.3269 H   0  0  0  0  0  0  0  0  0  0  0  0
    3.0105    8.2191   -5.9875 H   0  0  0  0  0  0  0  0  0  0  0  0
    2.5845    5.7988   -5.9967 H   0  0  0  0  0  0  0  0  0  0  0  0
    3.4930    5.9522   -1.1135 H   0  0  0  0  0  0  0  0  0  0  0  0
    0.2438    3.9902   -5.7346 H   0  0  0  0  0  0  0  0  0  0  0  0
   -0.4551    5.4832   -6.4003 H   0  0  0  0  0  0  0  0  0  0  0  0
   -2.4619    5.1885   -4.8499 H   0  0  0  0  0  0  0  0  0  0  0  0
   -2.2116    3.7752   -5.9496 H   0  0  0  0  0  0  0  0  0  0  0  0
   -1.7085    3.6674   -4.2168 H   0  0  0  0  0  0  0  0  0  0  0  0
   -0.0351    9.2100   -1.4571 H   0  0  0  0  0  0  0  0  0  0  0  0
   -0.8971    9.4430   -2.9960 H   0  0  0  0  0  0  0  0  0  0  0  0
   -2.3226    7.3477   -2.3750 H   0  0  0  0  0  0  0  0  0  0  0  0
   -2.5469    8.8004   -1.3372 H   0  0  0  0  0  0  0  0  0  0  0  0
   -1.5402    7.4052   -0.7572 H   0  0  0  0  0  0  0  0  0  0  0  0
  1  2  2  3
  2  3  1  0
  3  4  2  0
  3  5  1  0
  5  6  2  0
  6  7  1  0
  7  8  2  0
  8  9  1  0
  9 10  2  0
 10 11  1  0
 11 12  2  3
 12 13  1  0
 13 14  3  0
 12 15  1  0
 15 16  3  0
  8 17  1  0
 17 18  1  0
 18 19  1  0
 19 20  2  0
 20 21  1  0
 21 22  1  0
 21 23  1  0
  1 24  1  0
 24 25  2  0
 25 26  1  0
 26 27  1  0
 27 28  2  0
 28 29  1  0
 29 30  2  0
 30 31  1  0
 31 32  1  0
 30 33  1  0
 33 34  2  0
 26 35  1  0
 35 36  2  0
 36 37  1  0
 37 38  2  0
 38 39  1  0
 39 40  1  0
 38 41  1  0
 41 42  2  0
 25 43  1  0
 43 44  1  0
 44 45  1  0
 45 46  2  0
 46 47  1  0
 47 48  1  0
 48 49  2  0
 49 50  1  0
 50 51  2  0
 51 52  1  0
 52 53  1  0
 51 54  1  0
 54 55  2  0
 47 56  1  0
 56 57  2  0
 57 58  1  0
 58 59  2  0
 59 60  1  0
 60 61  1  0
 59 62  1  0
 62 63  2  0
 46 64  1  0
 64 65  1  0
 45 66  1  0
 66 67  2  0
 67 68  1  0
 68 69  1  0
 69 70  2  0
 70 71  1  0
 71 72  2  0
 72 73  1  0
 73 74  1  0
 72 75  1  0
 75 76  2  0
 68 77  1  0
 77 78  2  0
 78 79  1  0
 79 80  2  0
 80 81  1  0
 81 82  1  0
 80 83  1  0
 83 84  2  0
 67 85  1  0
 85 86  1  0
 86 87  1  0
 87 88  2  0
 88 89  1  0
 89 90  1  0
 90 91  2  0
 91 92  1  0
 92 93  2  0
 93 94  1  0
 94 95  1  0
 93 96  1  0
 96 97  2  0
 89 98  1  0
 98 99  2  0
 99100  1  0
100101  2  0
101102  1  0
102103  1  0
101104  1  0
104105  2  0
 88106  1  0
106107  1  0
 87108  1  0
108109  2  0
109110  1  0
110111  1  0
111112  2  0
112113  1  0
113114  2  0
114115  1  0
115116  1  0
114117  1  0
117118  2  0
110119  1  0
119120  2  0
120121  1  0
121122  2  0
122123  1  0
123124  1  0
122125  1  0
125126  2  0
109127  1  0
127128  1  0
128129  1  0
129130  2  0
130131  1  0
131132  1  0
132133  2  0
133134  1  0
134135  2  0
135136  1  0
136137  1  0
135138  1  0
138139  2  0
131140  1  0
140141  2  0
141142  1  0
142143  2  0
143144  1  0
144145  1  0
143146  1  0
146147  2  0
130148  1  0
148149  1  0
129150  1  0
150151  2  3
151152  1  0
152153  2  0
152154  1  0
154155  1  0
155156  1  0
154157  1  0
157158  2  0
157159  1  0
159160  1  0
160161  1  0
159162  1  0
162163  2  0
 11  2  1  0
 23 17  1  0
 65 24  1  0
107 66  1  0
149108  1  0
162151  1  0
 10  5  1  0
 22 18  1  0
 34 27  1  0
 42 35  1  0
 64 43  2  0
 76 69  1  0
 84 77  1  0
106 85  2  0
118111  1  0
126119  1  0
148127  2  0
 23  7  1  0
 55 48  1  0
 63 56  1  0
 97 90  1  0
105 98  1  0
139132  1  0
147140  1  0
  1164  1  0
  6165  1  0
  9166  1  0
 17167  1  0
 18168  1  0
 19169  1  0
 20170  1  0
 21171  1  0
 22172  1  0
 22173  1  0
 23174  1  0
 28175  1  0
 29176  1  0
 32177  1  0
 32178  1  0
 32179  1  0
 33180  1  0
 34181  1  0
 36182  1  0
 37183  1  0
 40184  1  0
 40185  1  0
 40186  1  0
 41187  1  0
 42188  1  0
 49189  1  0
 50190  1  0
 53191  1  0
 53192  1  0
 53193  1  0
 54194  1  0
 55195  1  0
 57196  1  0
 58197  1  0
 61198  1  0
 61199  1  0
 61200  1  0
 62201  1  0
 63202  1  0
 70203  1  0
 71204  1  0
 74205  1  0
 74206  1  0
 74207  1  0
 75208  1  0
 76209  1  0
 78210  1  0
 79211  1  0
 82212  1  0
 82213  1  0
 82214  1  0
 83215  1  0
 84216  1  0
 91217  1  0
 92218  1  0
 95219  1  0
 95220  1  0
 95221  1  0
 96222  1  0
 97223  1  0
 99224  1  0
100225  1  0
103226  1  0
103227  1  0
103228  1  0
104229  1  0
105230  1  0
112231  1  0
113232  1  0
116233  1  0
116234  1  0
116235  1  0
117236  1  0
118237  1  0
120238  1  0
121239  1  0
124240  1  0
124241  1  0
124242  1  0
125243  1  0
126244  1  0
133245  1  0
134246  1  0
137247  1  0
137248  1  0
137249  1  0
138250  1  0
139251  1  0
141252  1  0
142253  1  0
145254  1  0
145255  1  0
145256  1  0
146257  1  0
147258  1  0
150259  1  0
155260  1  0
155261  1  0
156262  1  0
156263  1  0
156264  1  0
160265  1  0
160266  1  0
161267  1  0
161268  1  0
161269  1  0
M  END

