
     RDKit          3D

183201  0  0  0  0  0  0  0  0999 V2000
   -0.1863   -7.2689   -2.0422 C   0  0  0  0  0  0  0  0  0  0  0  0
    1.0299   -7.3531   -2.6267 C   0  0  0  0  0  0  0  0  0  0  0  0
    1.6107   -6.3344   -3.5011 C   0  0  0  0  0  0  0  0  0  0  0  0
    1.0278   -5.7773   -4.4706 O   0  0  0  0  0  0  0  0  0  0  0  0
    2.9874   -6.1154   -3.1187 C   0  0  0  0  0  0  0  0  0  0  0  0
    3.7926   -5.0065   -3.4574 C   0  0  0  0  0  0  0  0  0  0  0  0
    4.9600   -4.9286   -2.7318 C   0  0  0  0  0  0  0  0  0  0  0  0
    5.3302   -5.8852   -1.7289 C   0  0  0  0  0  0  0  0  0  0  0  0
    4.5521   -6.9835   -1.4057 C   0  0  0  0  0  0  0  0  0  0  0  0
    3.3434   -7.0833   -2.1493 C   0  0  0  0  0  0  0  0  0  0  0  0
    2.1913   -8.0020   -1.9534 C   0  0  0  0  0  0  0  0  0  0  0  0
    2.2231   -9.2531   -1.4473 C   0  0  0  0  0  0  0  0  0  0  0  0
    3.4232   -9.8200   -0.8844 C   0  0  0  0  0  0  0  0  0  0  0  0
    4.3842  -10.2887   -0.4399 N   0  0  0  0  0  0  0  0  0  0  0  0
    1.0897  -10.1349   -1.5574 C   0  0  0  0  0  0  0  0  0  0  0  0
    0.1853  -10.8536   -1.6634 N   0  0  0  0  0  0  0  0  0  0  0  0
    6.5673   -5.1008   -1.4169 C   0  0  0  0  0  0  0  0  0  0  0  0
    7.9147   -5.6806   -1.9451 C   0  0  0  0  0  0  0  0  0  0  0  0
    8.9099   -4.5501   -1.8614 C   0  0  0  0  0  0  0  0  0  0  0  0
    8.5602   -3.6639   -2.8005 C   0  0  0  0  0  0  0  0  0  0  0  0
    7.3384   -4.2265   -3.4877 C   0  0  0  0  0  0  0  0  0  0  0  0
    7.7099   -5.6989   -3.4535 C   0  0  0  0  0  0  0  0  0  0  0  0
    6.1860   -4.1249   -2.4452 C   0  0  0  0  0  0  0  0  0  0  0  0
   -0.9540   -6.0056   -1.8714 C   0  0  0  0  0  0  0  0  0  0  0  0
   -1.9664   -5.8677   -0.9304 C   0  0  0  0  0  0  0  0  0  0  0  0
   -2.1700   -4.5460   -0.4504 C   0  0  0  0  0  0  0  0  0  0  0  0
   -2.9639   -4.2699    0.7885 C   0  0  0  0  0  0  0  0  0  0  0  0
   -2.8698   -5.1700    1.8874 C   0  0  0  0  0  0  0  0  0  0  0  0
   -2.0240   -6.2906    1.8171 O   0  0  0  0  0  0  0  0  0  0  0  0
   -2.4034   -7.5996    2.2425 C   0  0  0  0  0  0  0  0  0  0  0  0
   -1.3386   -8.1771    3.1604 C   0  0  0  0  0  0  0  0  0  0  0  0
   -3.5770   -4.9179    3.0693 C   0  0  0  0  0  0  0  0  0  0  0  0
   -4.3848   -3.7987    3.1819 C   0  0  0  0  0  0  0  0  0  0  0  0
   -4.5222   -2.9316    2.1062 C   0  0  0  0  0  0  0  0  0  0  0  0
   -3.8293   -3.1532    0.8957 C   0  0  0  0  0  0  0  0  0  0  0  0
   -4.0072   -2.2837   -0.1980 O   0  0  0  0  0  0  0  0  0  0  0  0
   -4.9024   -1.1688   -0.1784 C   0  0  0  0  0  0  0  0  0  0  0  0
   -4.8516   -0.4316   -1.5018 C   0  0  0  0  0  0  0  0  0  0  0  0
   -1.3804   -3.6120   -1.1547 C   0  0  0  0  0  0  0  0  0  0  0  0
   -0.4081   -4.4585   -2.2212 S   0  0  0  0  0  0  0  0  0  0  0  0
   -1.2922   -2.1527   -1.0577 C   0  0  0  0  0  0  0  0  0  0  0  0
   -0.7696   -1.3598   -0.0093 C   0  0  0  0  0  0  0  0  0  0  0  0
   -0.2859   -1.8426    1.2611 N   0  0  0  0  0  0  0  0  0  0  0  0
    0.4135   -3.0966    1.3759 C   0  0  0  0  0  0  0  0  0  0  0  0
    0.1298   -3.9546    2.4497 C   0  0  0  0  0  0  0  0  0  0  0  0
    0.7602   -5.1990    2.5427 C   0  0  0  0  0  0  0  0  0  0  0  0
    1.6965   -5.5888    1.5773 C   0  0  0  0  0  0  0  0  0  0  0  0
    2.4313   -7.2202    1.6537 S   0  0  0  0  0  0  0  0  0  0  0  0
    3.7010   -6.7336    2.8593 C   0  0  0  0  0  0  0  0  0  0  0  0
    2.0462   -4.7022    0.5538 C   0  0  0  0  0  0  0  0  0  0  0  0
    1.4057   -3.4600    0.4479 C   0  0  0  0  0  0  0  0  0  0  0  0
   -0.3335   -0.9694    2.3990 C   0  0  0  0  0  0  0  0  0  0  0  0
   -1.5536   -0.4096    2.8150 C   0  0  0  0  0  0  0  0  0  0  0  0
   -1.5705    0.5526    3.8327 C   0  0  0  0  0  0  0  0  0  0  0  0
   -0.3737    0.9806    4.4201 C   0  0  0  0  0  0  0  0  0  0  0  0
   -0.3833    2.2892    5.6466 S   0  0  0  0  0  0  0  0  0  0  0  0
   -0.2572    1.1396    7.0501 C   0  0  0  0  0  0  0  0  0  0  0  0
    0.8402    0.4178    4.0087 C   0  0  0  0  0  0  0  0  0  0  0  0
    0.8591   -0.5689    3.0210 C   0  0  0  0  0  0  0  0  0  0  0  0
   -0.6192   -0.0308   -0.4377 C   0  0  0  0  0  0  0  0  0  0  0  0
    0.1658    1.3051    0.1842 S   0  0  0  0  0  0  0  0  0  0  0  0
    0.0819    2.2368   -1.2429 C   0  0  0  0  0  0  0  0  0  0  0  0
   -0.5953    1.4809   -2.2291 C   0  0  0  0  0  0  0  0  0  0  0  0
   -0.7375    1.8250   -3.6186 N   0  0  0  0  0  0  0  0  0  0  0  0
    0.4325    2.1637   -4.3938 C   0  0  0  0  0  0  0  0  0  0  0  0
    0.3230    3.0235   -5.5015 C   0  0  0  0  0  0  0  0  0  0  0  0
    1.3990    3.1826   -6.3736 C   0  0  0  0  0  0  0  0  0  0  0  0
    2.6051    2.5103   -6.1421 C   0  0  0  0  0  0  0  0  0  0  0  0
    3.9140    2.5787   -7.3611 S   0  0  0  0  0  0  0  0  0  0  0  0
    3.3849    1.0372   -8.1805 C   0  0  0  0  0  0  0  0  0  0  0  0
    2.7522    1.7206   -4.9974 C   0  0  0  0  0  0  0  0  0  0  0  0
    1.6721    1.5477   -4.1273 C   0  0  0  0  0  0  0  0  0  0  0  0
   -1.9886    1.5232   -4.2875 C   0  0  0  0  0  0  0  0  0  0  0  0
   -2.0064    0.8702   -5.5369 C   0  0  0  0  0  0  0  0  0  0  0  0
   -3.2182    0.5600   -6.1592 C   0  0  0  0  0  0  0  0  0  0  0  0
   -4.4318    0.8963   -5.5456 C   0  0  0  0  0  0  0  0  0  0  0  0
   -5.9939    0.4824   -6.3248 S   0  0  0  0  0  0  0  0  0  0  0  0
   -6.0950    2.0174   -7.3025 C   0  0  0  0  0  0  0  0  0  0  0  0
   -4.4243    1.5284   -4.2989 C   0  0  0  0  0  0  0  0  0  0  0  0
   -3.2157    1.8245   -3.6680 C   0  0  0  0  0  0  0  0  0  0  0  0
   -0.9584    0.2276   -1.7256 C   0  0  0  0  0  0  0  0  0  0  0  0
   -1.4668   -1.1894   -2.4520 S   0  0  0  0  0  0  0  0  0  0  0  0
    0.7024    3.5840   -1.3003 C   0  0  0  0  0  0  0  0  0  0  0  0
   -0.0788    4.7512   -1.4032 C   0  0  0  0  0  0  0  0  0  0  0  0
   -1.3445    5.0195   -2.0834 C   0  0  0  0  0  0  0  0  0  0  0  0
   -1.8292    4.3061   -2.9972 O   0  0  0  0  0  0  0  0  0  0  0  0
   -1.8514    6.3114   -1.7539 N   0  0  0  0  0  0  0  0  0  0  0  0
   -2.7696    7.0791   -2.6061 C   0  0  0  0  0  0  0  0  0  0  0  0
   -4.1682    6.4724   -2.5694 C   0  0  0  0  0  0  0  0  0  0  0  0
   -0.8396    6.8722   -0.9185 C   0  0  0  0  0  0  0  0  0  0  0  0
   -0.8746    8.0475   -0.4729 O   0  0  0  0  0  0  0  0  0  0  0  0
    0.2411    5.9076   -0.7054 C   0  0  0  0  0  0  0  0  0  0  0  0
    1.3818    5.9991    0.1039 C   0  0  0  0  0  0  0  0  0  0  0  0
    2.2972    4.9370    0.0353 C   0  0  0  0  0  0  0  0  0  0  0  0
    1.9640    3.7415   -0.6852 C   0  0  0  0  0  0  0  0  0  0  0  0
    2.8799    2.7366   -0.6372 N   0  0  0  0  0  0  0  0  0  0  0  0
    4.0467    3.4390    0.3002 S   0  0  0  0  0  0  0  0  0  0  0  0
    3.4855    4.9414    0.6965 N   0  0  0  0  0  0  0  0  0  0  0  0
    1.4997    7.0615    1.1192 C   0  0  0  0  0  0  0  0  0  0  0  0
    0.6425    7.1462    2.1574 C   0  0  0  0  0  0  0  0  0  0  0  0
   -0.2803    6.0833    2.5830 C   0  0  0  0  0  0  0  0  0  0  0  0
   -0.4769    4.9804    2.0047 O   0  0  0  0  0  0  0  0  0  0  0  0
   -0.8746    6.4664    3.8405 C   0  0  0  0  0  0  0  0  0  0  0  0
   -1.8216    5.7592    4.5815 C   0  0  0  0  0  0  0  0  0  0  0  0
   -2.3399    6.3438    5.7455 C   0  0  0  0  0  0  0  0  0  0  0  0
   -3.3174    5.6787    6.5024 C   0  0  0  0  0  0  0  0  0  0  0  0
   -3.8492    6.2832    7.6464 C   0  0  0  0  0  0  0  0  0  0  0  0
   -3.4141    7.5528    8.0391 C   0  0  0  0  0  0  0  0  0  0  0  0
   -2.4358    8.2201    7.3007 C   0  0  0  0  0  0  0  0  0  0  0  0
   -1.8889    7.6272    6.1526 C   0  0  0  0  0  0  0  0  0  0  0  0
   -0.9116    8.3083    5.3941 C   0  0  0  0  0  0  0  0  0  0  0  0
   -0.4057    7.7107    4.2225 C   0  0  0  0  0  0  0  0  0  0  0  0
    0.5458    8.2316    3.1887 C   0  0  0  0  0  0  0  0  0  0  0  0
    1.0411    9.4903    3.0902 C   0  0  0  0  0  0  0  0  0  0  0  0
    1.6514    9.9936    1.8879 C   0  0  0  0  0  0  0  0  0  0  0  0
    2.1347   10.4268    0.9272 N   0  0  0  0  0  0  0  0  0  0  0  0
    0.9535   10.4486    4.1561 C   0  0  0  0  0  0  0  0  0  0  0  0
    0.9017   11.2356    5.0054 N   0  0  0  0  0  0  0  0  0  0  0  0
   -0.4617   -8.0494   -1.3469 H   0  0  0  0  0  0  0  0  0  0  0  0
    3.4838   -4.2447   -4.1584 H   0  0  0  0  0  0  0  0  0  0  0  0
    4.8225   -7.6347   -0.5916 H   0  0  0  0  0  0  0  0  0  0  0  0
    6.5928   -4.6941   -0.3801 H   0  0  0  0  0  0  0  0  0  0  0  0
    8.2384   -6.6383   -1.4870 H   0  0  0  0  0  0  0  0  0  0  0  0
    9.7960   -4.4929   -1.2416 H   0  0  0  0  0  0  0  0  0  0  0  0
    9.1169   -2.7712   -3.0719 H   0  0  0  0  0  0  0  0  0  0  0  0
    7.1172   -3.8008   -4.4907 H   0  0  0  0  0  0  0  0  0  0  0  0
    8.6429   -5.9283   -4.0203 H   0  0  0  0  0  0  0  0  0  0  0  0
    6.9020   -6.3826   -3.7974 H   0  0  0  0  0  0  0  0  0  0  0  0
    5.9742   -3.1023   -2.0544 H   0  0  0  0  0  0  0  0  0  0  0  0
   -2.4735   -6.7256   -0.5206 H   0  0  0  0  0  0  0  0  0  0  0  0
   -3.3867   -7.5985    2.7600 H   0  0  0  0  0  0  0  0  0  0  0  0
   -2.5004   -8.2508    1.3505 H   0  0  0  0  0  0  0  0  0  0  0  0
   -1.6368   -9.1999    3.4717 H   0  0  0  0  0  0  0  0  0  0  0  0
   -1.2279   -7.5360    4.0600 H   0  0  0  0  0  0  0  0  0  0  0  0
   -0.3739   -8.2332    2.6190 H   0  0  0  0  0  0  0  0  0  0  0  0
   -3.4722   -5.5801    3.9215 H   0  0  0  0  0  0  0  0  0  0  0  0
   -4.9137   -3.6036    4.1051 H   0  0  0  0  0  0  0  0  0  0  0  0
   -5.1735   -2.0756    2.2346 H   0  0  0  0  0  0  0  0  0  0  0  0
   -5.9413   -1.5253   -0.0020 H   0  0  0  0  0  0  0  0  0  0  0  0
   -4.6065   -0.4624    0.6277 H   0  0  0  0  0  0  0  0  0  0  0  0
   -5.0072   -1.1363   -2.3461 H   0  0  0  0  0  0  0  0  0  0  0  0
   -3.8692    0.0689   -1.6022 H   0  0  0  0  0  0  0  0  0  0  0  0
   -5.6446    0.3464   -1.5228 H   0  0  0  0  0  0  0  0  0  0  0  0
   -0.6053   -3.6747    3.1970 H   0  0  0  0  0  0  0  0  0  0  0  0
    0.5097   -5.8682    3.3557 H   0  0  0  0  0  0  0  0  0  0  0  0
    4.3243   -7.6227    3.1049 H   0  0  0  0  0  0  0  0  0  0  0  0
    4.3413   -5.9364    2.4344 H   0  0  0  0  0  0  0  0  0  0  0  0
    3.2180   -6.3798    3.7918 H   0  0  0  0  0  0  0  0  0  0  0  0
    2.7926   -4.9764   -0.1788 H   0  0  0  0  0  0  0  0  0  0  0  0
    1.6712   -2.7876   -0.3558 H   0  0  0  0  0  0  0  0  0  0  0  0
   -2.4777   -0.7013    2.3349 H   0  0  0  0  0  0  0  0  0  0  0  0
   -2.5120    0.9808    4.1478 H   0  0  0  0  0  0  0  0  0  0  0  0
   -0.2394    1.7237    7.9966 H   0  0  0  0  0  0  0  0  0  0  0  0
    0.6893    0.5618    6.9777 H   0  0  0  0  0  0  0  0  0  0  0  0
   -1.1303    0.4513    7.0628 H   0  0  0  0  0  0  0  0  0  0  0  0
    1.7732    0.7421    4.4573 H   0  0  0  0  0  0  0  0  0  0  0  0
    1.8086   -0.9708    2.6886 H   0  0  0  0  0  0  0  0  0  0  0  0
   -0.6189    3.5188   -5.7224 H   0  0  0  0  0  0  0  0  0  0  0  0
    1.2767    3.7924   -7.2581 H   0  0  0  0  0  0  0  0  0  0  0  0
    2.2839    1.0135   -8.3040 H   0  0  0  0  0  0  0  0  0  0  0  0
    3.7087    0.1670   -7.5744 H   0  0  0  0  0  0  0  0  0  0  0  0
    3.8565    0.9728   -9.1808 H   0  0  0  0  0  0  0  0  0  0  0  0
    3.6783    1.1976   -4.8148 H   0  0  0  0  0  0  0  0  0  0  0  0
    1.7843    0.8734   -3.2866 H   0  0  0  0  0  0  0  0  0  0  0  0
   -1.0798    0.5904   -6.0232 H   0  0  0  0  0  0  0  0  0  0  0  0
   -3.2146    0.0558   -7.1180 H   0  0  0  0  0  0  0  0  0  0  0  0
   -5.6214    1.8457   -8.2909 H   0  0  0  0  0  0  0  0  0  0  0  0
   -7.1625    2.2802   -7.4541 H   0  0  0  0  0  0  0  0  0  0  0  0
   -5.5923    2.8675   -6.7944 H   0  0  0  0  0  0  0  0  0  0  0  0
   -5.3590    1.7785   -3.8161 H   0  0  0  0  0  0  0  0  0  0  0  0
   -3.2457    2.2857   -2.6891 H   0  0  0  0  0  0  0  0  0  0  0  0
   -2.8302    8.1314   -2.2473 H   0  0  0  0  0  0  0  0  0  0  0  0
   -2.3825    7.1006   -3.6437 H   0  0  0  0  0  0  0  0  0  0  0  0
   -4.7686    6.8839   -3.4132 H   0  0  0  0  0  0  0  0  0  0  0  0
   -4.6680    6.7276   -1.6106 H   0  0  0  0  0  0  0  0  0  0  0  0
   -4.1379    5.3646   -2.6715 H   0  0  0  0  0  0  0  0  0  0  0  0
    2.3228    7.7397    1.0224 H   0  0  0  0  0  0  0  0  0  0  0  0
   -2.1656    4.7920    4.2420 H   0  0  0  0  0  0  0  0  0  0  0  0
   -3.6731    4.6958    6.2122 H   0  0  0  0  0  0  0  0  0  0  0  0
   -4.6021    5.7666    8.2307 H   0  0  0  0  0  0  0  0  0  0  0  0
   -3.8384    8.0169    8.9196 H   0  0  0  0  0  0  0  0  0  0  0  0
   -2.1133    9.2001    7.6205 H   0  0  0  0  0  0  0  0  0  0  0  0
   -0.5829    9.2750    5.7307 H   0  0  0  0  0  0  0  0  0  0  0  0
  1  2  2  3
  2  3  1  0
  3  4  2  0
  3  5  1  0
  5  6  2  0
  6  7  1  0
  7  8  2  0
  8  9  1  0
  9 10  2  0
 10 11  1  0
 11 12  2  3
 12 13  1  0
 13 14  3  0
 12 15  1  0
 15 16  3  0
  8 17  1  0
 17 18  1  0
 18 19  1  0
 19 20  2  0
 20 21  1  0
 21 22  1  0
 21 23  1  0
  1 24  1  0
 24 25  2  0
 25 26  1  0
 26 27  1  0
 27 28  2  0
 28 29  1  0
 29 30  1  0
 30 31  1  0
 28 32  1  0
 32 33  2  0
 33 34  1  0
 34 35  2  0
 35 36  1  0
 36 37  1  0
 37 38  1  0
 26 39  2  0
 39 40  1  0
 39 41  1  0
 41 42  2  0
 42 43  1  0
 43 44  1  0
 44 45  2  0
 45 46  1  0
 46 47  2  0
 47 48  1  0
 48 49  1  0
 47 50  1  0
 50 51  2  0
 43 52  1  0
 52 53  2  0
 53 54  1  0
 54 55  2  0
 55 56  1  0
 56 57  1  0
 55 58  1  0
 58 59  2  0
 42 60  1  0
 60 61  1  0
 61 62  1  0
 62 63  2  0
 63 64  1  0
 64 65  1  0
 65 66  2  0
 66 67  1  0
 67 68  2  0
 68 69  1  0
 69 70  1  0
 68 71  1  0
 71 72  2  0
 64 73  1  0
 73 74  2  0
 74 75  1  0
 75 76  2  0
 76 77  1  0
 77 78  1  0
 76 79  1  0
 79 80  2  0
 63 81  1  0
 81 82  1  0
 62 83  1  0
 83 84  2  0
 84 85  1  0
 85 86  2  0
 85 87  1  0
 87 88  1  0
 88 89  1  0
 87 90  1  0
 90 91  2  0
 90 92  1  0
 92 93  2  0
 93 94  1  0
 94 95  1  0
 95 96  2  0
 96 97  1  0
 97 98  1  0
 93 99  1  0
 99100  2  3
100101  1  0
101102  2  0
101103  1  0
103104  2  0
104105  1  0
105106  2  0
106107  1  0
107108  2  0
108109  1  0
109110  2  0
110111  1  0
111112  2  0
112113  1  0
113114  2  3
114115  1  0
115116  3  0
114117  1  0
117118  3  0
 11  2  1  0
 23 17  1  0
 40 24  1  0
 82 41  1  0
 95 83  1  0
113100  1  0
 10  5  1  0
 22 18  1  0
 35 27  1  0
 51 44  1  0
 59 52  1  0
 81 60  2  0
 92 84  1  0
 98 94  2  0
112103  1  0
 23  7  1  0
 72 65  1  0
 80 73  1  0
110105  1  0
  1119  1  0
  6120  1  0
  9121  1  0
 17122  1  0
 18123  1  0
 19124  1  0
 20125  1  0
 21126  1  0
 22127  1  0
 22128  1  0
 23129  1  0
 25130  1  0
 30131  1  0
 30132  1  0
 31133  1  0
 31134  1  0
 31135  1  0
 32136  1  0
 33137  1  0
 34138  1  0
 37139  1  0
 37140  1  0
 38141  1  0
 38142  1  0
 38143  1  0
 45144  1  0
 46145  1  0
 49146  1  0
 49147  1  0
 49148  1  0
 50149  1  0
 51150  1  0
 53151  1  0
 54152  1  0
 57153  1  0
 57154  1  0
 57155  1  0
 58156  1  0
 59157  1  0
 66158  1  0
 67159  1  0
 70160  1  0
 70161  1  0
 70162  1  0
 71163  1  0
 72164  1  0
 74165  1  0
 75166  1  0
 78167  1  0
 78168  1  0
 78169  1  0
 79170  1  0
 80171  1  0
 88172  1  0
 88173  1  0
 89174  1  0
 89175  1  0
 89176  1  0
 99177  1  0
104178  1  0
106179  1  0
107180  1  0
108181  1  0
109182  1  0
111183  1  0
M  END

