
     RDKit          3D

210231  0  0  0  0  0  0  0  0999 V2000
    3.5653    3.5747    2.8304 C   0  0  0  0  0  0  0  0  0  0  0  0
    4.7853    4.1268    2.8931 C   0  0  0  0  0  0  0  0  0  0  0  0
    5.7468    3.6963    3.8951 C   0  0  0  0  0  0  0  0  0  0  0  0
    5.8725    2.5239    4.3308 O   0  0  0  0  0  0  0  0  0  0  0  0
    6.7302    4.7457    4.0690 C   0  0  0  0  0  0  0  0  0  0  0  0
    7.9189    4.6309    4.8143 C   0  0  0  0  0  0  0  0  0  0  0  0
    8.8970    5.5244    4.4398 C   0  0  0  0  0  0  0  0  0  0  0  0
    8.7431    6.4498    3.3543 C   0  0  0  0  0  0  0  0  0  0  0  0
    7.5642    6.6105    2.6608 C   0  0  0  0  0  0  0  0  0  0  0  0
    6.5204    5.7353    3.0656 C   0  0  0  0  0  0  0  0  0  0  0  0
    5.2737    5.4040    2.3165 C   0  0  0  0  0  0  0  0  0  0  0  0
    5.0405    5.7997    1.0481 C   0  0  0  0  0  0  0  0  0  0  0  0
    4.7946    4.8428    0.0171 C   0  0  0  0  0  0  0  0  0  0  0  0
    4.6177    4.0316   -0.8018 N   0  0  0  0  0  0  0  0  0  0  0  0
    5.2603    7.1558    0.6349 C   0  0  0  0  0  0  0  0  0  0  0  0
    5.4620    8.2530    0.3072 N   0  0  0  0  0  0  0  0  0  0  0  0
   10.2095    6.7731    3.3964 C   0  0  0  0  0  0  0  0  0  0  0  0
   11.1162    6.1064    2.3116 C   0  0  0  0  0  0  0  0  0  0  0  0
   12.5315    6.2651    2.7977 C   0  0  0  0  0  0  0  0  0  0  0  0
   12.6682    5.4400    3.8503 C   0  0  0  0  0  0  0  0  0  0  0  0
   11.3295    4.7667    4.0367 C   0  0  0  0  0  0  0  0  0  0  0  0
   10.9510    4.6193    2.5721 C   0  0  0  0  0  0  0  0  0  0  0  0
   10.3501    5.8693    4.5483 C   0  0  0  0  0  0  0  0  0  0  0  0
    2.3072    4.2202    2.4078 C   0  0  0  0  0  0  0  0  0  0  0  0
    1.1869    3.9607    3.1990 C   0  0  0  0  0  0  0  0  0  0  0  0
    1.1957    4.2509    4.6079 N   0  0  0  0  0  0  0  0  0  0  0  0
    1.1501    3.2136    5.6207 C   0  0  0  0  0  0  0  0  0  0  0  0
    1.2204    1.8461    5.2734 C   0  0  0  0  0  0  0  0  0  0  0  0
    1.1936    0.8558    6.2675 C   0  0  0  0  0  0  0  0  0  0  0  0
    1.1215    1.2150    7.6160 C   0  0  0  0  0  0  0  0  0  0  0  0
    1.1328   -0.0427    8.8959 S   0  0  0  0  0  0  0  0  0  0  0  0
   -0.6659    0.0342    9.1790 C   0  0  0  0  0  0  0  0  0  0  0  0
    1.0592    2.5677    7.9740 C   0  0  0  0  0  0  0  0  0  0  0  0
    1.0639    3.5515    6.9856 C   0  0  0  0  0  0  0  0  0  0  0  0
    1.4535    5.6176    4.9652 C   0  0  0  0  0  0  0  0  0  0  0  0
    2.7195    6.0005    5.4299 C   0  0  0  0  0  0  0  0  0  0  0  0
    2.9830    7.3432    5.7281 C   0  0  0  0  0  0  0  0  0  0  0  0
    1.9858    8.3089    5.5589 C   0  0  0  0  0  0  0  0  0  0  0  0
    2.3097   10.0196    5.9944 S   0  0  0  0  0  0  0  0  0  0  0  0
    2.8717   10.4869    4.3235 C   0  0  0  0  0  0  0  0  0  0  0  0
    0.7271    7.9345    5.0639 C   0  0  0  0  0  0  0  0  0  0  0  0
    0.4662    6.5958    4.7541 C   0  0  0  0  0  0  0  0  0  0  0  0
    0.0271    3.7253    2.4647 C   0  0  0  0  0  0  0  0  0  0  0  0
   -0.8969    2.3190    2.6245 S   0  0  0  0  0  0  0  0  0  0  0  0
   -1.2480    2.1451    0.9891 C   0  0  0  0  0  0  0  0  0  0  0  0
   -0.6724    3.1903    0.2865 C   0  0  0  0  0  0  0  0  0  0  0  0
   -1.3355    3.7216   -0.8789 N   0  0  0  0  0  0  0  0  0  0  0  0
   -0.7018    3.7228   -2.1843 C   0  0  0  0  0  0  0  0  0  0  0  0
   -1.3041    4.3776   -3.2827 C   0  0  0  0  0  0  0  0  0  0  0  0
   -0.7029    4.3660   -4.5462 C   0  0  0  0  0  0  0  0  0  0  0  0
    0.5197    3.7101   -4.7375 C   0  0  0  0  0  0  0  0  0  0  0  0
    1.2976    3.7415   -6.3573 S   0  0  0  0  0  0  0  0  0  0  0  0
    0.6652    2.1062   -6.8711 C   0  0  0  0  0  0  0  0  0  0  0  0
    1.1474    3.0829   -3.6578 C   0  0  0  0  0  0  0  0  0  0  0  0
    0.5389    3.0722   -2.3925 C   0  0  0  0  0  0  0  0  0  0  0  0
   -2.6335    4.3130   -0.6613 C   0  0  0  0  0  0  0  0  0  0  0  0
   -2.7710    5.7125   -0.6261 C   0  0  0  0  0  0  0  0  0  0  0  0
   -4.0059    6.2922   -0.3213 C   0  0  0  0  0  0  0  0  0  0  0  0
   -5.0995    5.4846    0.0206 C   0  0  0  0  0  0  0  0  0  0  0  0
   -6.6840    6.2291    0.4061 S   0  0  0  0  0  0  0  0  0  0  0  0
   -6.3279    6.4309    2.1821 C   0  0  0  0  0  0  0  0  0  0  0  0
   -4.9639    4.0939    0.0144 C   0  0  0  0  0  0  0  0  0  0  0  0
   -3.7379    3.5116   -0.3227 C   0  0  0  0  0  0  0  0  0  0  0  0
    0.1247    3.9944    1.1104 C   0  0  0  0  0  0  0  0  0  0  0  0
    1.7565    4.2860    0.8072 S   0  0  0  0  0  0  0  0  0  0  0  0
   -1.3942    0.8627    0.3474 C   0  0  0  0  0  0  0  0  0  0  0  0
   -1.3724   -0.1764   -0.2569 C   0  0  0  0  0  0  0  0  0  0  0  0
   -1.2979   -1.4081   -1.0017 C   0  0  0  0  0  0  0  0  0  0  0  0
   -1.5082   -2.6994   -0.4807 C   0  0  0  0  0  0  0  0  0  0  0  0
   -1.6955   -3.0036    0.9124 N   0  0  0  0  0  0  0  0  0  0  0  0
   -2.4872   -2.1730    1.7690 C   0  0  0  0  0  0  0  0  0  0  0  0
   -1.9398   -1.6474    2.9433 C   0  0  0  0  0  0  0  0  0  0  0  0
   -2.7326   -0.9051    3.8211 C   0  0  0  0  0  0  0  0  0  0  0  0
   -4.0914   -0.7161    3.5439 C   0  0  0  0  0  0  0  0  0  0  0  0
   -5.1375    0.1548    4.7069 S   0  0  0  0  0  0  0  0  0  0  0  0
   -5.4597   -1.3273    5.7261 C   0  0  0  0  0  0  0  0  0  0  0  0
   -4.6359   -1.2133    2.3524 C   0  0  0  0  0  0  0  0  0  0  0  0
   -3.8361   -1.9355    1.4650 C   0  0  0  0  0  0  0  0  0  0  0  0
   -1.1597   -4.2227    1.4325 C   0  0  0  0  0  0  0  0  0  0  0  0
   -2.0044   -5.3260    1.6216 C   0  0  0  0  0  0  0  0  0  0  0  0
   -1.4678   -6.5823    1.8946 C   0  0  0  0  0  0  0  0  0  0  0  0
   -0.0897   -6.7228    2.1054 C   0  0  0  0  0  0  0  0  0  0  0  0
    0.6093   -8.3484    2.4084 S   0  0  0  0  0  0  0  0  0  0  0  0
    0.0005   -8.4614    4.1234 C   0  0  0  0  0  0  0  0  0  0  0  0
    0.7521   -5.6091    1.9938 C   0  0  0  0  0  0  0  0  0  0  0  0
    0.2190   -4.3682    1.6243 C   0  0  0  0  0  0  0  0  0  0  0  0
   -1.4041   -3.6518   -1.4924 C   0  0  0  0  0  0  0  0  0  0  0  0
   -1.7538   -5.2856   -1.6050 S   0  0  0  0  0  0  0  0  0  0  0  0
   -1.4249   -5.3967   -3.2793 C   0  0  0  0  0  0  0  0  0  0  0  0
   -1.0549   -4.1288   -3.7500 C   0  0  0  0  0  0  0  0  0  0  0  0
   -0.4327   -3.9170   -5.0256 N   0  0  0  0  0  0  0  0  0  0  0  0
    0.9401   -3.4661   -5.0744 C   0  0  0  0  0  0  0  0  0  0  0  0
    1.8005   -3.7116   -3.9838 C   0  0  0  0  0  0  0  0  0  0  0  0
    3.0224   -3.0527   -3.8806 C   0  0  0  0  0  0  0  0  0  0  0  0
    3.4151   -2.1579   -4.8798 C   0  0  0  0  0  0  0  0  0  0  0  0
    4.8176   -1.0869   -4.5867 S   0  0  0  0  0  0  0  0  0  0  0  0
    3.7640    0.2324   -3.8915 C   0  0  0  0  0  0  0  0  0  0  0  0
    2.6437   -2.0204   -6.0409 C   0  0  0  0  0  0  0  0  0  0  0  0
    1.4057   -2.6616   -6.1343 C   0  0  0  0  0  0  0  0  0  0  0  0
   -1.2764   -3.9032   -6.1850 C   0  0  0  0  0  0  0  0  0  0  0  0
   -2.3628   -3.0113   -6.2427 C   0  0  0  0  0  0  0  0  0  0  0  0
   -3.2019   -3.0102   -7.3607 C   0  0  0  0  0  0  0  0  0  0  0  0
   -2.9594   -3.8833   -8.4283 C   0  0  0  0  0  0  0  0  0  0  0  0
   -4.0845   -3.9346   -9.8202 S   0  0  0  0  0  0  0  0  0  0  0  0
   -3.3818   -2.4583  -10.6300 C   0  0  0  0  0  0  0  0  0  0  0  0
   -1.8815   -4.7732   -8.3631 C   0  0  0  0  0  0  0  0  0  0  0  0
   -1.0544   -4.7952   -7.2304 C   0  0  0  0  0  0  0  0  0  0  0  0
   -1.0690   -3.1804   -2.7232 C   0  0  0  0  0  0  0  0  0  0  0  0
   -0.9060   -1.5118   -2.6617 S   0  0  0  0  0  0  0  0  0  0  0  0
   -1.9816   -6.5072   -4.0861 C   0  0  0  0  0  0  0  0  0  0  0  0
   -3.3321   -6.6286   -4.2011 C   0  0  0  0  0  0  0  0  0  0  0  0
   -4.2907   -5.5862   -3.8401 C   0  0  0  0  0  0  0  0  0  0  0  0
   -4.0954   -4.3462   -3.8516 O   0  0  0  0  0  0  0  0  0  0  0  0
   -5.5271   -6.2135   -3.4655 C   0  0  0  0  0  0  0  0  0  0  0  0
   -6.6937   -5.5765   -2.9878 C   0  0  0  0  0  0  0  0  0  0  0  0
   -7.7221   -6.4629   -2.6870 C   0  0  0  0  0  0  0  0  0  0  0  0
   -7.6023   -7.8823   -2.8433 C   0  0  0  0  0  0  0  0  0  0  0  0
   -6.4629   -8.5047   -3.3153 C   0  0  0  0  0  0  0  0  0  0  0  0
   -5.4235   -7.6119   -3.6560 C   0  0  0  0  0  0  0  0  0  0  0  0
   -4.1147   -7.9142   -4.3159 C   0  0  0  0  0  0  0  0  0  0  0  0
   -3.8095   -8.9560   -5.1205 C   0  0  0  0  0  0  0  0  0  0  0  0
   -4.7166  -10.0600   -5.3094 C   0  0  0  0  0  0  0  0  0  0  0  0
   -5.4837  -10.9139   -5.4931 N   0  0  0  0  0  0  0  0  0  0  0  0
   -2.8723   -8.7648   -6.1988 C   0  0  0  0  0  0  0  0  0  0  0  0
   -2.2263   -8.5357   -7.1270 N   0  0  0  0  0  0  0  0  0  0  0  0
   -9.0192   -8.0622   -2.3998 C   0  0  0  0  0  0  0  0  0  0  0  0
  -10.0394   -8.3959   -3.5218 C   0  0  0  0  0  0  0  0  0  0  0  0
  -11.3978   -8.1536   -2.9136 C   0  0  0  0  0  0  0  0  0  0  0  0
  -11.5148   -6.8268   -2.7635 C   0  0  0  0  0  0  0  0  0  0  0  0
  -10.2343   -6.2179   -3.2831 C   0  0  0  0  0  0  0  0  0  0  0  0
   -9.9719   -7.1782   -4.4349 C   0  0  0  0  0  0  0  0  0  0  0  0
   -9.1404   -6.6089   -2.2442 C   0  0  0  0  0  0  0  0  0  0  0  0
    3.4331    2.6667    3.4078 H   0  0  0  0  0  0  0  0  0  0  0  0
    8.1269    3.8028    5.4766 H   0  0  0  0  0  0  0  0  0  0  0  0
    7.5467    7.2477    1.7842 H   0  0  0  0  0  0  0  0  0  0  0  0
   10.4343    7.8438    3.6123 H   0  0  0  0  0  0  0  0  0  0  0  0
   10.9347    6.4393    1.2663 H   0  0  0  0  0  0  0  0  0  0  0  0
   13.3209    6.8498    2.3368 H   0  0  0  0  0  0  0  0  0  0  0  0
   13.5967    5.2158    4.3531 H   0  0  0  0  0  0  0  0  0  0  0  0
   11.3564    3.8279    4.6374 H   0  0  0  0  0  0  0  0  0  0  0  0
    9.9288    4.2205    2.4070 H   0  0  0  0  0  0  0  0  0  0  0  0
   11.6635    3.9772    1.9966 H   0  0  0  0  0  0  0  0  0  0  0  0
   10.6482    6.3834    5.4995 H   0  0  0  0  0  0  0  0  0  0  0  0
    1.3360    1.5350    4.2430 H   0  0  0  0  0  0  0  0  0  0  0  0
    1.2487   -0.1885    5.9818 H   0  0  0  0  0  0  0  0  0  0  0  0
   -0.9151   -0.5838   10.0658 H   0  0  0  0  0  0  0  0  0  0  0  0
   -0.9873    1.0802    9.3800 H   0  0  0  0  0  0  0  0  0  0  0  0
   -1.2086   -0.3638    8.2952 H   0  0  0  0  0  0  0  0  0  0  0  0
    1.0252    2.8471    9.0137 H   0  0  0  0  0  0  0  0  0  0  0  0
    0.9941    4.5847    7.3039 H   0  0  0  0  0  0  0  0  0  0  0  0
    3.4964    5.2582    5.5694 H   0  0  0  0  0  0  0  0  0  0  0  0
    3.9604    7.6273    6.0944 H   0  0  0  0  0  0  0  0  0  0  0  0
    3.6736    9.7994    3.9744 H   0  0  0  0  0  0  0  0  0  0  0  0
    3.2754   11.5207    4.3583 H   0  0  0  0  0  0  0  0  0  0  0  0
    2.0154   10.4623    3.6120 H   0  0  0  0  0  0  0  0  0  0  0  0
   -0.0502    8.6729    4.9377 H   0  0  0  0  0  0  0  0  0  0  0  0
   -0.5080    6.3150    4.3755 H   0  0  0  0  0  0  0  0  0  0  0  0
   -2.2502    4.8977   -3.1837 H   0  0  0  0  0  0  0  0  0  0  0  0
   -1.1740    4.8960   -5.3699 H   0  0  0  0  0  0  0  0  0  0  0  0
    1.3713    1.3190   -6.5316 H   0  0  0  0  0  0  0  0  0  0  0  0
    0.6053    2.0771   -7.9811 H   0  0  0  0  0  0  0  0  0  0  0  0
   -0.3482    1.9018   -6.4598 H   0  0  0  0  0  0  0  0  0  0  0  0
    2.1076    2.5956   -3.7902 H   0  0  0  0  0  0  0  0  0  0  0  0
    1.0568    2.5714   -1.5810 H   0  0  0  0  0  0  0  0  0  0  0  0
   -1.9193    6.3518   -0.8446 H   0  0  0  0  0  0  0  0  0  0  0  0
   -4.1112    7.3670   -0.3397 H   0  0  0  0  0  0  0  0  0  0  0  0
   -7.1408    7.0345    2.6367 H   0  0  0  0  0  0  0  0  0  0  0  0
   -5.3581    6.9593    2.3313 H   0  0  0  0  0  0  0  0  0  0  0  0
   -6.2960    5.4337    2.6754 H   0  0  0  0  0  0  0  0  0  0  0  0
   -5.8028    3.4580    0.2754 H   0  0  0  0  0  0  0  0  0  0  0  0
   -3.6598    2.4292   -0.3522 H   0  0  0  0  0  0  0  0  0  0  0  0
   -0.8946   -1.8027    3.1787 H   0  0  0  0  0  0  0  0  0  0  0  0
   -2.3046   -0.5005    4.7289 H   0  0  0  0  0  0  0  0  0  0  0  0
   -6.2591   -1.0966    6.4654 H   0  0  0  0  0  0  0  0  0  0  0  0
   -5.7983   -2.1778    5.0937 H   0  0  0  0  0  0  0  0  0  0  0  0
   -4.5362   -1.6172    6.2756 H   0  0  0  0  0  0  0  0  0  0  0  0
   -5.6866   -1.0628    2.1249 H   0  0  0  0  0  0  0  0  0  0  0  0
   -4.2698   -2.3360    0.5546 H   0  0  0  0  0  0  0  0  0  0  0  0
   -3.0694   -5.2203    1.4610 H   0  0  0  0  0  0  0  0  0  0  0  0
   -2.1196   -7.4422    1.9543 H   0  0  0  0  0  0  0  0  0  0  0  0
   -1.0924   -8.6762    4.1127 H   0  0  0  0  0  0  0  0  0  0  0  0
    0.1973   -7.5179    4.6796 H   0  0  0  0  0  0  0  0  0  0  0  0
    0.5211   -9.2988    4.6350 H   0  0  0  0  0  0  0  0  0  0  0  0
    1.8221   -5.7140    2.1468 H   0  0  0  0  0  0  0  0  0  0  0  0
    0.8824   -3.5189    1.4895 H   0  0  0  0  0  0  0  0  0  0  0  0
    1.4979   -4.3599   -3.1777 H   0  0  0  0  0  0  0  0  0  0  0  0
    3.6279   -3.1858   -2.9930 H   0  0  0  0  0  0  0  0  0  0  0  0
    3.1492   -0.1573   -3.0465 H   0  0  0  0  0  0  0  0  0  0  0  0
    4.3986    1.0666   -3.5265 H   0  0  0  0  0  0  0  0  0  0  0  0
    3.0771    0.6146   -4.6793 H   0  0  0  0  0  0  0  0  0  0  0  0
    2.9561   -1.3371   -6.8227 H   0  0  0  0  0  0  0  0  0  0  0  0
    0.7851   -2.4648   -6.9948 H   0  0  0  0  0  0  0  0  0  0  0  0
   -2.5353   -2.3045   -5.4431 H   0  0  0  0  0  0  0  0  0  0  0  0
   -4.0350   -2.3189   -7.3986 H   0  0  0  0  0  0  0  0  0  0  0  0
   -3.4216   -1.5865   -9.9435 H   0  0  0  0  0  0  0  0  0  0  0  0
   -2.3323   -2.6462  -10.9497 H   0  0  0  0  0  0  0  0  0  0  0  0
   -3.9947   -2.2326  -11.5341 H   0  0  0  0  0  0  0  0  0  0  0  0
   -1.6879   -5.4684   -9.1742 H   0  0  0  0  0  0  0  0  0  0  0  0
   -0.2374   -5.5054   -7.1737 H   0  0  0  0  0  0  0  0  0  0  0  0
   -1.3811   -7.3880   -4.2086 H   0  0  0  0  0  0  0  0  0  0  0  0
   -6.7865   -4.5062   -2.8872 H   0  0  0  0  0  0  0  0  0  0  0  0
   -6.4196   -9.5835   -3.3917 H   0  0  0  0  0  0  0  0  0  0  0  0
   -9.1115   -8.6452   -1.4489 H   0  0  0  0  0  0  0  0  0  0  0  0
   -9.9017   -9.3837   -4.0127 H   0  0  0  0  0  0  0  0  0  0  0  0
  -12.1713   -8.8832   -2.7317 H   0  0  0  0  0  0  0  0  0  0  0  0
  -12.4012   -6.3028   -2.4289 H   0  0  0  0  0  0  0  0  0  0  0  0
  -10.2911   -5.1392   -3.5440 H   0  0  0  0  0  0  0  0  0  0  0  0
  -10.7766   -7.1663   -5.2101 H   0  0  0  0  0  0  0  0  0  0  0  0
   -8.9859   -7.0330   -4.9421 H   0  0  0  0  0  0  0  0  0  0  0  0
   -9.3075   -6.2627   -1.2007 H   0  0  0  0  0  0  0  0  0  0  0  0
  1  2  2  3
  2  3  1  0
  3  4  2  0
  3  5  1  0
  5  6  2  0
  6  7  1  0
  7  8  2  0
  8  9  1  0
  9 10  2  0
 10 11  1  0
 11 12  2  3
 12 13  1  0
 13 14  3  0
 12 15  1  0
 15 16  3  0
  8 17  1  0
 17 18  1  0
 18 19  1  0
 19 20  2  0
 20 21  1  0
 21 22  1  0
 21 23  1  0
  1 24  1  0
 24 25  2  0
 25 26  1  0
 26 27  1  0
 27 28  2  0
 28 29  1  0
 29 30  2  0
 30 31  1  0
 31 32  1  0
 30 33  1  0
 33 34  2  0
 26 35  1  0
 35 36  2  0
 36 37  1  0
 37 38  2  0
 38 39  1  0
 39 40  1  0
 38 41  1  0
 41 42  2  0
 25 43  1  0
 43 44  1  0
 44 45  1  0
 45 46  2  0
 46 47  1  0
 47 48  1  0
 48 49  2  0
 49 50  1  0
 50 51  2  0
 51 52  1  0
 52 53  1  0
 51 54  1  0
 54 55  2  0
 47 56  1  0
 56 57  2  0
 57 58  1  0
 58 59  2  0
 59 60  1  0
 60 61  1  0
 59 62  1  0
 62 63  2  0
 46 64  1  0
 64 65  1  0
 45 66  1  0
 66 67  3  0
 67 68  1  0
 68 69  2  0
 69 70  1  0
 70 71  1  0
 71 72  2  0
 72 73  1  0
 73 74  2  0
 74 75  1  0
 75 76  1  0
 74 77  1  0
 77 78  2  0
 70 79  1  0
 79 80  2  0
 80 81  1  0
 81 82  2  0
 82 83  1  0
 83 84  1  0
 82 85  1  0
 85 86  2  0
 69 87  1  0
 87 88  1  0
 88 89  1  0
 89 90  2  0
 90 91  1  0
 91 92  1  0
 92 93  2  0
 93 94  1  0
 94 95  2  0
 95 96  1  0
 96 97  1  0
 95 98  1  0
 98 99  2  0
 91100  1  0
100101  2  0
101102  1  0
102103  2  0
103104  1  0
104105  1  0
103106  1  0
106107  2  0
 90108  1  0
108109  1  0
 89110  1  0
110111  2  3
111112  1  0
112113  2  0
112114  1  0
114115  2  0
115116  1  0
116117  2  0
117118  1  0
118119  2  0
119120  1  0
120121  2  3
121122  1  0
122123  3  0
121124  1  0
124125  3  0
117126  1  0
126127  1  0
127128  1  0
128129  2  0
129130  1  0
130131  1  0
130132  1  0
 11  2  1  0
 23 17  1  0
 65 24  1  0
109 68  1  0
120111  1  0
132126  1  0
 10  5  1  0
 22 18  1  0
 34 27  1  0
 42 35  1  0
 64 43  2  0
 78 71  1  0
 86 79  1  0
108 87  2  0
119114  1  0
131127  1  0
 23  7  1  0
 55 48  1  0
 63 56  1  0
 99 92  1  0
107100  1  0
132116  1  0
  1133  1  0
  6134  1  0
  9135  1  0
 17136  1  0
 18137  1  0
 19138  1  0
 20139  1  0
 21140  1  0
 22141  1  0
 22142  1  0
 23143  1  0
 28144  1  0
 29145  1  0
 32146  1  0
 32147  1  0
 32148  1  0
 33149  1  0
 34150  1  0
 36151  1  0
 37152  1  0
 40153  1  0
 40154  1  0
 40155  1  0
 41156  1  0
 42157  1  0
 49158  1  0
 50159  1  0
 53160  1  0
 53161  1  0
 53162  1  0
 54163  1  0
 55164  1  0
 57165  1  0
 58166  1  0
 61167  1  0
 61168  1  0
 61169  1  0
 62170  1  0
 63171  1  0
 72172  1  0
 73173  1  0
 76174  1  0
 76175  1  0
 76176  1  0
 77177  1  0
 78178  1  0
 80179  1  0
 81180  1  0
 84181  1  0
 84182  1  0
 84183  1  0
 85184  1  0
 86185  1  0
 93186  1  0
 94187  1  0
 97188  1  0
 97189  1  0
 97190  1  0
 98191  1  0
 99192  1  0
101193  1  0
102194  1  0
105195  1  0
105196  1  0
105197  1  0
106198  1  0
107199  1  0
110200  1  0
115201  1  0
118202  1  0
126203  1  0
127204  1  0
128205  1  0
129206  1  0
130207  1  0
131208  1  0
131209  1  0
132210  1  0
M  END

