
     RDKit          3D

189208  0  0  0  0  0  0  0  0999 V2000
    2.5545   -6.2438   -1.5961 C   0  0  0  0  0  0  0  0  0  0  0  0
    3.2177   -5.5971   -2.5767 C   0  0  0  0  0  0  0  0  0  0  0  0
    2.9047   -4.2410   -3.0564 C   0  0  0  0  0  0  0  0  0  0  0  0
    2.3699   -3.3115   -2.3976 O   0  0  0  0  0  0  0  0  0  0  0  0
    3.3045   -4.1322   -4.4352 C   0  0  0  0  0  0  0  0  0  0  0  0
    2.9731   -3.0813   -5.3153 C   0  0  0  0  0  0  0  0  0  0  0  0
    3.3539   -3.3097   -6.6218 C   0  0  0  0  0  0  0  0  0  0  0  0
    4.0299   -4.4974   -7.0488 C   0  0  0  0  0  0  0  0  0  0  0  0
    4.3498   -5.5382   -6.1835 C   0  0  0  0  0  0  0  0  0  0  0  0
    3.9639   -5.3230   -4.8272 C   0  0  0  0  0  0  0  0  0  0  0  0
    4.0488   -6.2312   -3.6459 C   0  0  0  0  0  0  0  0  0  0  0  0
    4.8453   -7.3209   -3.5001 C   0  0  0  0  0  0  0  0  0  0  0  0
    5.0208   -7.9671   -2.2214 C   0  0  0  0  0  0  0  0  0  0  0  0
    5.1667   -8.4832   -1.1952 N   0  0  0  0  0  0  0  0  0  0  0  0
    5.6500   -7.8495   -4.5698 C   0  0  0  0  0  0  0  0  0  0  0  0
    6.3043   -8.2863   -5.4263 N   0  0  0  0  0  0  0  0  0  0  0  0
    4.0251   -4.0066   -8.4674 C   0  0  0  0  0  0  0  0  0  0  0  0
    5.3653   -3.4527   -9.0337 C   0  0  0  0  0  0  0  0  0  0  0  0
    5.0020   -2.6836  -10.2782 C   0  0  0  0  0  0  0  0  0  0  0  0
    4.3579   -1.5826   -9.8709 C   0  0  0  0  0  0  0  0  0  0  0  0
    4.3074   -1.6472   -8.3665 C   0  0  0  0  0  0  0  0  0  0  0  0
    5.6659   -2.2781   -8.1192 C   0  0  0  0  0  0  0  0  0  0  0  0
    3.3180   -2.7976   -8.0284 C   0  0  0  0  0  0  0  0  0  0  0  0
    1.4269   -5.6023   -0.8964 C   0  0  0  0  0  0  0  0  0  0  0  0
    1.6434   -4.5774    0.0346 C   0  0  0  0  0  0  0  0  0  0  0  0
    2.8596   -4.4183    0.6243 N   0  0  0  0  0  0  0  0  0  0  0  0
    3.1039   -3.4135    1.5039 C   0  0  0  0  0  0  0  0  0  0  0  0
    4.2918   -3.5198    2.3742 C   0  0  0  0  0  0  0  0  0  0  0  0
    4.1317   -4.0223    3.6723 C   0  0  0  0  0  0  0  0  0  0  0  0
    5.2394   -4.1937    4.5025 C   0  0  0  0  0  0  0  0  0  0  0  0
    6.5288   -3.8878    4.0491 C   0  0  0  0  0  0  0  0  0  0  0  0
    7.5895   -4.1420    4.9375 O   0  0  0  0  0  0  0  0  0  0  0  0
    8.9511   -3.7332    4.8036 C   0  0  0  0  0  0  0  0  0  0  0  0
    9.0931   -2.2359    5.0480 C   0  0  0  0  0  0  0  0  0  0  0  0
    6.6906   -3.3763    2.7400 C   0  0  0  0  0  0  0  0  0  0  0  0
    5.5737   -3.2022    1.9061 C   0  0  0  0  0  0  0  0  0  0  0  0
    5.7396   -2.7248    0.6479 F   0  0  0  0  0  0  0  0  0  0  0  0
    7.9177   -3.0974    2.2378 F   0  0  0  0  0  0  0  0  0  0  0  0
    5.0622   -4.7048    5.7458 F   0  0  0  0  0  0  0  0  0  0  0  0
    2.9045   -4.3817    4.1234 F   0  0  0  0  0  0  0  0  0  0  0  0
    2.0937   -2.4575    1.7469 C   0  0  0  0  0  0  0  0  0  0  0  0
    2.2940   -1.3360    2.6909 C   0  0  0  0  0  0  0  0  0  0  0  0
    3.2314   -0.3307    2.4113 C   0  0  0  0  0  0  0  0  0  0  0  0
    3.9591   -0.3650    1.2649 F   0  0  0  0  0  0  0  0  0  0  0  0
    3.4023    0.7395    3.3057 C   0  0  0  0  0  0  0  0  0  0  0  0
    4.3130    1.6925    2.9875 F   0  0  0  0  0  0  0  0  0  0  0  0
    2.6348    0.8085    4.4851 C   0  0  0  0  0  0  0  0  0  0  0  0
    2.7304    1.8584    5.4178 O   0  0  0  0  0  0  0  0  0  0  0  0
    3.7721    2.8253    5.4755 C   0  0  0  0  0  0  0  0  0  0  0  0
    3.4887    3.7953    6.6215 C   0  0  0  0  0  0  0  0  0  0  0  0
    1.7208   -0.2139    4.7620 C   0  0  0  0  0  0  0  0  0  0  0  0
    1.0276   -0.1998    5.9253 F   0  0  0  0  0  0  0  0  0  0  0  0
    1.5569   -1.2865    3.8802 C   0  0  0  0  0  0  0  0  0  0  0  0
    0.6985   -2.2865    4.1936 F   0  0  0  0  0  0  0  0  0  0  0  0
    0.8684   -2.6251    1.1694 N   0  0  0  0  0  0  0  0  0  0  0  0
    0.5968   -3.6830    0.3559 C   0  0  0  0  0  0  0  0  0  0  0  0
   -0.6923   -3.8974   -0.1783 C   0  0  0  0  0  0  0  0  0  0  0  0
   -0.9310   -5.0536   -0.9473 C   0  0  0  0  0  0  0  0  0  0  0  0
    0.1244   -5.8858   -1.3189 C   0  0  0  0  0  0  0  0  0  0  0  0
   -0.1058   -6.9118   -2.1789 F   0  0  0  0  0  0  0  0  0  0  0  0
   -2.1858   -5.3372   -1.3910 F   0  0  0  0  0  0  0  0  0  0  0  0
   -1.7615   -2.8728   -0.0415 C   0  0  0  0  0  0  0  0  0  0  0  0
   -2.4147   -2.3664   -1.1951 C   0  0  0  0  0  0  0  0  0  0  0  0
   -2.0462   -2.7991   -2.4729 O   0  0  0  0  0  0  0  0  0  0  0  0
   -0.8686   -2.3240   -3.1242 C   0  0  0  0  0  0  0  0  0  0  0  0
   -1.1329   -0.9666   -3.7712 C   0  0  0  0  0  0  0  0  0  0  0  0
   -3.4504   -1.4246   -1.0799 C   0  0  0  0  0  0  0  0  0  0  0  0
   -4.2160   -1.1094   -2.2115 O   0  0  0  0  0  0  0  0  0  0  0  0
   -5.3021   -1.9583   -2.5850 C   0  0  0  0  0  0  0  0  0  0  0  0
   -5.9247   -1.4572   -3.8778 C   0  0  0  0  0  0  0  0  0  0  0  0
   -3.7493   -0.8432    0.1687 C   0  0  0  0  0  0  0  0  0  0  0  0
   -3.1143   -1.3412    1.3169 C   0  0  0  0  0  0  0  0  0  0  0  0
   -2.1621   -2.3947    1.2198 C   0  0  0  0  0  0  0  0  0  0  0  0
   -1.7105   -2.9085    2.3925 N   0  0  0  0  0  0  0  0  0  0  0  0
   -2.5170   -1.9511    3.4753 S   0  0  0  0  0  0  0  0  0  0  0  0
   -3.4150   -0.9080    2.5725 N   0  0  0  0  0  0  0  0  0  0  0  0
   -4.7537    0.2402    0.2853 C   0  0  0  0  0  0  0  0  0  0  0  0
   -4.4624    1.5357   -0.1742 C   0  0  0  0  0  0  0  0  0  0  0  0
   -3.5554    1.7456   -1.1672 N   0  0  0  0  0  0  0  0  0  0  0  0
   -3.3372    2.9897   -1.6829 C   0  0  0  0  0  0  0  0  0  0  0  0
   -2.5769    3.0877   -2.9452 C   0  0  0  0  0  0  0  0  0  0  0  0
   -1.1756    3.0786   -2.9411 C   0  0  0  0  0  0  0  0  0  0  0  0
   -0.4773    3.2678   -4.1369 C   0  0  0  0  0  0  0  0  0  0  0  0
   -1.1536    3.4205   -5.3540 C   0  0  0  0  0  0  0  0  0  0  0  0
   -0.3635    3.5951   -6.5034 O   0  0  0  0  0  0  0  0  0  0  0  0
   -0.8049    3.5338   -7.8591 C   0  0  0  0  0  0  0  0  0  0  0  0
   -1.1653    2.1038   -8.2488 C   0  0  0  0  0  0  0  0  0  0  0  0
   -2.5671    3.4118   -5.3550 C   0  0  0  0  0  0  0  0  0  0  0  0
   -3.2687    3.2425   -4.1572 C   0  0  0  0  0  0  0  0  0  0  0  0
   -4.6270    3.2887   -4.1669 F   0  0  0  0  0  0  0  0  0  0  0  0
   -3.2845    3.6248   -6.4846 F   0  0  0  0  0  0  0  0  0  0  0  0
    0.8793    3.2956   -4.1249 F   0  0  0  0  0  0  0  0  0  0  0  0
   -0.4982    2.9363   -1.7767 F   0  0  0  0  0  0  0  0  0  0  0  0
   -4.0333    4.0962   -1.1367 C   0  0  0  0  0  0  0  0  0  0  0  0
   -3.9952    5.4487   -1.7634 C   0  0  0  0  0  0  0  0  0  0  0  0
   -5.1970    6.0838   -2.1272 C   0  0  0  0  0  0  0  0  0  0  0  0
   -6.3886    5.5188   -1.8126 F   0  0  0  0  0  0  0  0  0  0  0  0
   -5.1820    7.2762   -2.8647 C   0  0  0  0  0  0  0  0  0  0  0  0
   -6.3690    7.8451   -3.1770 F   0  0  0  0  0  0  0  0  0  0  0  0
   -3.9471    7.8297   -3.2737 C   0  0  0  0  0  0  0  0  0  0  0  0
   -3.8309    8.9565   -4.1072 O   0  0  0  0  0  0  0  0  0  0  0  0
   -4.8823    9.6850   -4.7321 C   0  0  0  0  0  0  0  0  0  0  0  0
   -5.4651    8.9159   -5.9172 C   0  0  0  0  0  0  0  0  0  0  0  0
   -2.7564    7.2401   -2.8335 C   0  0  0  0  0  0  0  0  0  0  0  0
   -1.5668    7.7655   -3.2048 F   0  0  0  0  0  0  0  0  0  0  0  0
   -2.7771    6.0807   -2.0579 C   0  0  0  0  0  0  0  0  0  0  0  0
   -1.6078    5.5737   -1.5912 F   0  0  0  0  0  0  0  0  0  0  0  0
   -4.8943    3.8795   -0.1088 N   0  0  0  0  0  0  0  0  0  0  0  0
   -5.1431    2.6300    0.3761 C   0  0  0  0  0  0  0  0  0  0  0  0
   -6.0817    2.4153    1.3961 C   0  0  0  0  0  0  0  0  0  0  0  0
   -6.6293    1.1331    1.5357 C   0  0  0  0  0  0  0  0  0  0  0  0
   -5.9223    0.0349    1.0344 C   0  0  0  0  0  0  0  0  0  0  0  0
   -6.3107   -1.2198    1.3743 F   0  0  0  0  0  0  0  0  0  0  0  0
   -7.7293    0.9362    2.3009 F   0  0  0  0  0  0  0  0  0  0  0  0
   -6.1581    3.4193    2.4902 C   0  0  0  0  0  0  0  0  0  0  0  0
   -5.5283    3.2168    3.6843 C   0  0  0  0  0  0  0  0  0  0  0  0
   -5.2253    1.8916    4.2732 C   0  0  0  0  0  0  0  0  0  0  0  0
   -5.8383    0.8164    4.0590 O   0  0  0  0  0  0  0  0  0  0  0  0
   -4.2689    2.0410    5.3265 C   0  0  0  0  0  0  0  0  0  0  0  0
   -3.6981    0.9942    6.0749 C   0  0  0  0  0  0  0  0  0  0  0  0
   -2.8189    1.4118    7.0458 C   0  0  0  0  0  0  0  0  0  0  0  0
   -2.5354    2.7902    7.2980 C   0  0  0  0  0  0  0  0  0  0  0  0
   -3.1155    3.8286    6.5814 C   0  0  0  0  0  0  0  0  0  0  0  0
   -4.0007    3.4154    5.5369 C   0  0  0  0  0  0  0  0  0  0  0  0
   -4.7677    4.2207    4.5251 C   0  0  0  0  0  0  0  0  0  0  0  0
   -4.6226    5.5619    4.2982 C   0  0  0  0  0  0  0  0  0  0  0  0
   -5.3454    6.2895    3.2854 C   0  0  0  0  0  0  0  0  0  0  0  0
   -5.9094    6.8968    2.4747 N   0  0  0  0  0  0  0  0  0  0  0  0
   -3.6662    6.3733    5.0015 C   0  0  0  0  0  0  0  0  0  0  0  0
   -2.8798    7.0297    5.5426 N   0  0  0  0  0  0  0  0  0  0  0  0
   -1.6080    2.4038    8.4199 C   0  0  0  0  0  0  0  0  0  0  0  0
   -2.0947    2.5929    9.8899 C   0  0  0  0  0  0  0  0  0  0  0  0
   -3.5933    2.4501    9.9650 C   0  0  0  0  0  0  0  0  0  0  0  0
   -3.8642    1.1693    9.7049 C   0  0  0  0  0  0  0  0  0  0  0  0
   -2.5346    0.4827    9.4725 C   0  0  0  0  0  0  0  0  0  0  0  0
   -1.6916    1.2499   10.4743 C   0  0  0  0  0  0  0  0  0  0  0  0
   -1.8950    0.9949    8.1486 C   0  0  0  0  0  0  0  0  0  0  0  0
    2.6482   -7.3136   -1.4844 H   0  0  0  0  0  0  0  0  0  0  0  0
    2.4298   -2.1978   -5.0037 H   0  0  0  0  0  0  0  0  0  0  0  0
    4.7981   -6.4398   -6.5592 H   0  0  0  0  0  0  0  0  0  0  0  0
    3.4445   -4.6551   -9.1610 H   0  0  0  0  0  0  0  0  0  0  0  0
    6.1805   -4.1972   -9.1536 H   0  0  0  0  0  0  0  0  0  0  0  0
    5.2684   -2.9163  -11.3036 H   0  0  0  0  0  0  0  0  0  0  0  0
    4.0147   -0.7732  -10.5076 H   0  0  0  0  0  0  0  0  0  0  0  0
    4.1149   -0.6818   -7.8540 H   0  0  0  0  0  0  0  0  0  0  0  0
    6.5134   -1.6419   -8.4752 H   0  0  0  0  0  0  0  0  0  0  0  0
    5.8632   -2.5650   -7.0632 H   0  0  0  0  0  0  0  0  0  0  0  0
    2.2873   -2.6864   -8.4331 H   0  0  0  0  0  0  0  0  0  0  0  0
    9.3787   -4.0343    3.8320 H   0  0  0  0  0  0  0  0  0  0  0  0
    9.5417   -4.2612    5.5841 H   0  0  0  0  0  0  0  0  0  0  0  0
    8.6434   -1.6549    4.2217 H   0  0  0  0  0  0  0  0  0  0  0  0
    8.5869   -1.9576    5.9923 H   0  0  0  0  0  0  0  0  0  0  0  0
   10.1693   -1.9805    5.1298 H   0  0  0  0  0  0  0  0  0  0  0  0
    3.8076    3.4162    4.5335 H   0  0  0  0  0  0  0  0  0  0  0  0
    4.7496    2.3274    5.6398 H   0  0  0  0  0  0  0  0  0  0  0  0
    4.3657    4.4474    6.8177 H   0  0  0  0  0  0  0  0  0  0  0  0
    2.6262    4.4382    6.3571 H   0  0  0  0  0  0  0  0  0  0  0  0
    3.2391    3.2320    7.5382 H   0  0  0  0  0  0  0  0  0  0  0  0
   -0.0355   -2.2407   -2.3968 H   0  0  0  0  0  0  0  0  0  0  0  0
   -0.5793   -3.0424   -3.9094 H   0  0  0  0  0  0  0  0  0  0  0  0
   -1.4635   -0.2326   -3.0071 H   0  0  0  0  0  0  0  0  0  0  0  0
   -0.2026   -0.5902   -4.2441 H   0  0  0  0  0  0  0  0  0  0  0  0
   -1.9136   -1.0607   -4.5528 H   0  0  0  0  0  0  0  0  0  0  0  0
   -4.9337   -2.9929   -2.7429 H   0  0  0  0  0  0  0  0  0  0  0  0
   -6.0675   -1.9761   -1.7804 H   0  0  0  0  0  0  0  0  0  0  0  0
   -5.2067   -1.5825   -4.7178 H   0  0  0  0  0  0  0  0  0  0  0  0
   -6.1926   -0.3776   -3.7943 H   0  0  0  0  0  0  0  0  0  0  0  0
   -6.8433   -2.0426   -4.1032 H   0  0  0  0  0  0  0  0  0  0  0  0
   -1.6463    4.2321   -8.0464 H   0  0  0  0  0  0  0  0  0  0  0  0
    0.0330    3.8622   -8.5039 H   0  0  0  0  0  0  0  0  0  0  0  0
   -0.3074    1.4326   -8.0506 H   0  0  0  0  0  0  0  0  0  0  0  0
   -2.0473    1.7499   -7.6731 H   0  0  0  0  0  0  0  0  0  0  0  0
   -1.4127    2.0707   -9.3301 H   0  0  0  0  0  0  0  0  0  0  0  0
   -4.4482   10.6241   -5.1395 H   0  0  0  0  0  0  0  0  0  0  0  0
   -5.6586    9.9877   -4.0058 H   0  0  0  0  0  0  0  0  0  0  0  0
   -6.0470    8.0380   -5.5784 H   0  0  0  0  0  0  0  0  0  0  0  0
   -4.6572    8.5698   -6.5947 H   0  0  0  0  0  0  0  0  0  0  0  0
   -6.1480    9.5762   -6.4922 H   0  0  0  0  0  0  0  0  0  0  0  0
   -6.3797    4.4109    2.1516 H   0  0  0  0  0  0  0  0  0  0  0  0
   -3.9266   -0.0499    5.9017 H   0  0  0  0  0  0  0  0  0  0  0  0
   -2.9026    4.8418    6.8437 H   0  0  0  0  0  0  0  0  0  0  0  0
   -0.5443    2.6762    8.2393 H   0  0  0  0  0  0  0  0  0  0  0  0
   -1.6811    3.4828   10.4018 H   0  0  0  0  0  0  0  0  0  0  0  0
   -4.3145    3.1986   10.2590 H   0  0  0  0  0  0  0  0  0  0  0  0
   -4.8438    0.7049    9.7607 H   0  0  0  0  0  0  0  0  0  0  0  0
   -2.5458   -0.6237    9.6019 H   0  0  0  0  0  0  0  0  0  0  0  0
   -0.5965    1.0355   10.3910 H   0  0  0  0  0  0  0  0  0  0  0  0
   -2.0232    1.1143   11.5293 H   0  0  0  0  0  0  0  0  0  0  0  0
   -1.0125    0.4170    7.8017 H   0  0  0  0  0  0  0  0  0  0  0  0
  1  2  2  3
  2  3  1  0
  3  4  2  0
  3  5  1  0
  5  6  2  0
  6  7  1  0
  7  8  2  0
  8  9  1  0
  9 10  2  0
 10 11  1  0
 11 12  2  3
 12 13  1  0
 13 14  3  0
 12 15  1  0
 15 16  3  0
  8 17  1  0
 17 18  1  0
 18 19  1  0
 19 20  2  0
 20 21  1  0
 21 22  1  0
 21 23  1  0
  1 24  1  0
 24 25  1  0
 25 26  2  0
 26 27  1  0
 27 28  1  0
 28 29  2  0
 29 30  1  0
 30 31  2  0
 31 32  1  0
 32 33  1  0
 33 34  1  0
 31 35  1  0
 35 36  2  0
 36 37  1  0
 35 38  1  0
 30 39  1  0
 29 40  1  0
 27 41  2  0
 41 42  1  0
 42 43  2  0
 43 44  1  0
 43 45  1  0
 45 46  1  0
 45 47  2  0
 47 48  1  0
 48 49  1  0
 49 50  1  0
 47 51  1  0
 51 52  1  0
 51 53  2  0
 53 54  1  0
 41 55  1  0
 55 56  2  0
 56 57  1  0
 57 58  2  0
 58 59  1  0
 59 60  1  0
 58 61  1  0
 57 62  1  0
 62 63  2  0
 63 64  1  0
 64 65  1  0
 65 66  1  0
 63 67  1  0
 67 68  1  0
 68 69  1  0
 69 70  1  0
 67 71  2  0
 71 72  1  0
 72 73  1  0
 73 74  2  0
 74 75  1  0
 75 76  1  0
 71 77  1  0
 77 78  1  0
 78 79  2  0
 79 80  1  0
 80 81  1  0
 81 82  2  0
 82 83  1  0
 83 84  2  0
 84 85  1  0
 85 86  1  0
 86 87  1  0
 84 88  1  0
 88 89  2  0
 89 90  1  0
 88 91  1  0
 83 92  1  0
 82 93  1  0
 80 94  2  0
 94 95  1  0
 95 96  2  0
 96 97  1  0
 96 98  1  0
 98 99  1  0
 98100  2  0
100101  1  0
101102  1  0
102103  1  0
100104  1  0
104105  1  0
104106  2  0
106107  1  0
 94108  1  0
108109  2  0
109110  1  0
110111  2  0
111112  1  0
112113  1  0
111114  1  0
110115  1  0
115116  2  3
116117  1  0
117118  2  0
117119  1  0
119120  2  0
120121  1  0
121122  2  0
122123  1  0
123124  2  0
124125  1  0
125126  2  3
126127  1  0
127128  3  0
126129  1  0
129130  3  0
122131  1  0
131132  1  0
132133  1  0
133134  2  0
134135  1  0
135136  1  0
135137  1  0
 11  2  1  0
 23 17  1  0
 59 24  2  0
 73 62  1  0
112 77  2  0
125116  1  0
137131  1  0
 10  5  1  0
 22 18  1  0
 56 25  1  0
 76 72  2  0
109 78  1  0
124119  1  0
136132  1  0
 23  7  1  0
 36 28  1  0
 53 42  1  0
 89 81  1  0
106 95  1  0
137121  1  0
  1138  1  0
  6139  1  0
  9140  1  0
 17141  1  0
 18142  1  0
 19143  1  0
 20144  1  0
 21145  1  0
 22146  1  0
 22147  1  0
 23148  1  0
 33149  1  0
 33150  1  0
 34151  1  0
 34152  1  0
 34153  1  0
 49154  1  0
 49155  1  0
 50156  1  0
 50157  1  0
 50158  1  0
 65159  1  0
 65160  1  0
 66161  1  0
 66162  1  0
 66163  1  0
 69164  1  0
 69165  1  0
 70166  1  0
 70167  1  0
 70168  1  0
 86169  1  0
 86170  1  0
 87171  1  0
 87172  1  0
 87173  1  0
102174  1  0
102175  1  0
103176  1  0
103177  1  0
103178  1  0
115179  1  0
120180  1  0
123181  1  0
131182  1  0
132183  1  0
133184  1  0
134185  1  0
135186  1  0
136187  1  0
136188  1  0
137189  1  0
M  END

