
     RDKit          3D

198217  0  0  0  0  0  0  0  0999 V2000
    8.7610    0.6305    2.5361 C   0  0  0  0  0  0  0  0  0  0  0  0
    9.6778   -0.3900    2.4857 C   0  0  0  0  0  0  0  0  0  0  0  0
    9.8365   -1.4379    1.8476 C   0  0  0  0  0  0  0  0  0  0  0  0
    8.9139   -1.8208    0.7384 O   0  0  0  0  0  0  0  0  0  0  0  0
   10.8547   -2.3468    2.0416 C   0  0  0  0  0  0  0  0  0  0  0  0
   11.4060   -3.4903    1.5821 C   0  0  0  0  0  0  0  0  0  0  0  0
   12.4335   -4.0762    1.9879 C   0  0  0  0  0  0  0  0  0  0  0  0
   13.1867   -3.5555    3.0790 C   0  0  0  0  0  0  0  0  0  0  0  0
   12.7369   -2.3575    3.6312 C   0  0  0  0  0  0  0  0  0  0  0  0
   11.5860   -1.7181    3.1407 C   0  0  0  0  0  0  0  0  0  0  0  0
   10.9230   -0.4005    3.5375 C   0  0  0  0  0  0  0  0  0  0  0  0
   11.3665    0.5360    4.1703 C   0  0  0  0  0  0  0  0  0  0  0  0
   10.8403    1.9613    3.9968 C   0  0  0  0  0  0  0  0  0  0  0  0
   10.4669    3.0051    3.8747 N   0  0  0  0  0  0  0  0  0  0  0  0
   12.0205    0.3724    5.4471 C   0  0  0  0  0  0  0  0  0  0  0  0
   12.5848    0.2332    6.5036 N   0  0  0  0  0  0  0  0  0  0  0  0
   14.0371   -4.7774    3.0954 C   0  0  0  0  0  0  0  0  0  0  0  0
   13.3268   -5.9363    3.8184 C   0  0  0  0  0  0  0  0  0  0  0  0
   11.9082   -5.8564    3.5174 C   0  0  0  0  0  0  0  0  0  0  0  0
   11.6940   -6.5068    2.3099 C   0  0  0  0  0  0  0  0  0  0  0  0
   13.0402   -6.4870    1.7208 C   0  0  0  0  0  0  0  0  0  0  0  0
   13.7985   -7.0549    2.9240 C   0  0  0  0  0  0  0  0  0  0  0  0
   13.5378   -5.1014    1.7257 C   0  0  0  0  0  0  0  0  0  0  0  0
    7.7012    0.2780    1.4891 C   0  0  0  0  0  0  0  0  0  0  0  0
    6.7452    0.0519    0.8770 C   0  0  0  0  0  0  0  0  0  0  0  0
    5.6976   -0.1918    0.4403 C   0  0  0  0  0  0  0  0  0  0  0  0
    4.8029   -0.4101   -0.5973 C   0  0  0  0  0  0  0  0  0  0  0  0
    5.2849    0.0727   -1.9283 C   0  0  0  0  0  0  0  0  0  0  0  0
    6.1806    0.4168   -2.6893 C   0  0  0  0  0  0  0  0  0  0  0  0
    6.4075    1.0158   -3.7756 C   0  0  0  0  0  0  0  0  0  0  0  0
    5.2353    1.5104   -4.4327 C   0  0  0  0  0  0  0  0  0  0  0  0
    4.8216    2.6195   -5.6902 S   0  0  0  0  0  0  0  0  0  0  0  0
    4.2348    4.1512   -4.9588 C   0  0  0  0  0  0  0  0  0  0  0  0
    3.7710    5.1844   -5.9520 C   0  0  0  0  0  0  0  0  0  0  0  0
    3.8750    0.8822   -3.1004 Se  0  0  0  0  0  2  0  0  0  0  0  0
    3.4997   -0.7125   -0.5916 C   0  0  0  0  0  0  0  0  0  0  0  0
    2.7842   -0.8390    0.7581 C   0  0  0  0  0  0  0  0  0  0  0  0
    3.6954   -0.6246    1.7087 C   0  0  0  0  0  0  0  0  0  0  0  0
    3.2015   -1.3008    3.0446 C   0  0  0  0  0  0  0  0  0  0  0  0
    3.3814   -1.3303    4.3760 C   0  0  0  0  0  0  0  0  0  0  0  0
    2.8504   -2.2660    5.0637 C   0  0  0  0  0  0  0  0  0  0  0  0
    2.1140   -3.3120    4.7331 C   0  0  0  0  0  0  0  0  0  0  0  0
    1.2384   -4.6660    5.4052 S   0  0  0  0  0  0  0  0  0  0  0  0
    0.5742   -5.7315    4.0647 C   0  0  0  0  0  0  0  0  0  0  0  0
   -0.4658   -4.9573    3.2310 C   0  0  0  0  0  0  0  0  0  0  0  0
    2.0867   -2.9221    2.7578 Se  0  0  0  0  0  2  0  0  0  0  0  0
    4.9137   -0.3280    1.8248 C   0  0  0  0  0  0  0  0  0  0  0  0
    6.1802   -0.0322    2.9060 S   0  0  0  0  0  0  0  0  0  0  0  0
    1.5892   -1.0522    0.5629 C   0  0  0  0  0  0  0  0  0  0  0  0
    0.8692   -1.1596   -0.5294 C   0  0  0  0  0  0  0  0  0  0  0  0
    2.1739   -0.9409   -1.6440 S   0  0  0  0  0  0  0  0  0  0  0  0
   -0.6246   -1.0495   -0.6809 C   0  0  0  0  0  0  0  0  0  0  0  0
   -1.4742   -0.8075   -1.6002 C   0  0  0  0  0  0  0  0  0  0  0  0
   -1.3196   -1.5802   -2.9289 N   0  0  0  0  0  0  0  0  0  0  0  0
   -0.2678   -1.2076   -3.7734 C   0  0  0  0  0  0  0  0  0  0  0  0
    0.1626   -0.0074   -4.1086 C   0  0  0  0  0  0  0  0  0  0  0  0
    1.1884    0.3489   -5.0212 C   0  0  0  0  0  0  0  0  0  0  0  0
    1.7646   -0.8527   -5.5845 C   0  0  0  0  0  0  0  0  0  0  0  0
    3.1851   -0.6321   -6.7410 S   0  0  0  0  0  0  0  0  0  0  0  0
    3.9911   -2.2870   -6.8448 C   0  0  0  0  0  0  0  0  0  0  0  0
    1.3781   -1.9707   -5.2837 C   0  0  0  0  0  0  0  0  0  0  0  0
    0.3700   -2.3933   -4.4014 C   0  0  0  0  0  0  0  0  0  0  0  0
   -2.1253   -2.6527   -3.2844 C   0  0  0  0  0  0  0  0  0  0  0  0
   -2.4034   -3.7759   -3.6931 C   0  0  0  0  0  0  0  0  0  0  0  0
   -3.1747   -4.7709   -4.0795 C   0  0  0  0  0  0  0  0  0  0  0  0
   -4.8888   -3.9699   -3.8512 C   0  0  0  0  0  0  0  0  0  0  0  0
   -5.6250   -5.4534   -4.5190 S   0  0  0  0  0  0  0  0  0  0  0  0
   -6.1613   -6.4569   -3.1330 C   0  0  0  0  0  0  0  0  0  0  0  0
   -4.1934   -3.0781   -3.5052 C   0  0  0  0  0  0  0  0  0  0  0  0
   -3.8323   -1.8988   -3.0621 C   0  0  0  0  0  0  0  0  0  0  0  0
   -2.6785   -0.2225   -1.3371 C   0  0  0  0  0  0  0  0  0  0  0  0
   -4.0658    0.5811   -2.1029 S   0  0  0  0  0  0  0  0  0  0  0  0
   -4.9038    1.1384   -0.5840 C   0  0  0  0  0  0  0  0  0  0  0  0
   -4.1074    0.6642    0.2975 C   0  0  0  0  0  0  0  0  0  0  0  0
   -4.4921    0.5870    1.7625 N   0  0  0  0  0  0  0  0  0  0  0  0
   -4.0558    1.6548    2.5371 C   0  0  0  0  0  0  0  0  0  0  0  0
   -4.9824    2.0226    3.7408 C   0  0  0  0  0  0  0  0  0  0  0  0
   -4.3784    3.1707    4.3308 C   0  0  0  0  0  0  0  0  0  0  0  0
   -3.3336    3.8876    4.0999 C   0  0  0  0  0  0  0  0  0  0  0  0
   -2.7346    5.2937    4.9731 S   0  0  0  0  0  0  0  0  0  0  0  0
   -1.3431    4.9102    6.1243 C   0  0  0  0  0  0  0  0  0  0  0  0
   -2.4663    3.4938    2.9209 C   0  0  0  0  0  0  0  0  0  0  0  0
   -3.1003    2.3781    2.3896 C   0  0  0  0  0  0  0  0  0  0  0  0
   -5.2363   -0.5710    2.1046 C   0  0  0  0  0  0  0  0  0  0  0  0
   -6.3692   -0.5877    2.7915 C   0  0  0  0  0  0  0  0  0  0  0  0
   -7.0636   -1.9265    3.0316 C   0  0  0  0  0  0  0  0  0  0  0  0
   -6.5035   -2.9411    2.5294 C   0  0  0  0  0  0  0  0  0  0  0  0
   -7.3767   -4.6110    2.7981 S   0  0  0  0  0  0  0  0  0  0  0  0
   -6.8041   -5.2579    4.3574 C   0  0  0  0  0  0  0  0  0  0  0  0
   -5.3761   -3.0459    1.8060 C   0  0  0  0  0  0  0  0  0  0  0  0
   -4.7305   -1.7927    1.5949 C   0  0  0  0  0  0  0  0  0  0  0  0
   -3.0111    0.0288   -0.0506 C   0  0  0  0  0  0  0  0  0  0  0  0
   -1.5257   -0.5362    0.7967 S   0  0  0  0  0  0  0  0  0  0  0  0
   -6.1224    1.9463   -0.8376 C   0  0  0  0  0  0  0  0  0  0  0  0
   -5.9626    3.3553   -0.7597 C   0  0  0  0  0  0  0  0  0  0  0  0
   -5.0557    4.1622   -0.3937 C   0  0  0  0  0  0  0  0  0  0  0  0
   -4.9774    5.4190   -0.4165 C   0  0  0  0  0  0  0  0  0  0  0  0
   -3.9556    6.4292   -0.0944 C   0  0  0  0  0  0  0  0  0  0  0  0
   -4.0867    7.6067   -0.1634 O   0  0  0  0  0  0  0  0  0  0  0  0
   -2.6661    5.8944    0.3490 O   0  0  0  0  0  0  0  0  0  0  0  0
   -1.7235    6.9111    0.6447 C   0  0  0  0  0  0  0  0  0  0  0  0
   -1.5264    7.8158   -0.5260 C   0  0  0  0  0  0  0  0  0  0  0  0
   -6.5513    5.7276   -1.1563 S   0  0  0  0  0  0  0  0  0  0  0  0
   -7.0914    4.1450   -1.3272 C   0  0  0  0  0  0  0  0  0  0  0  0
   -8.1701    3.4326   -1.8166 C   0  0  0  0  0  0  0  0  0  0  0  0
   -8.2746    2.0677   -1.8683 C   0  0  0  0  0  0  0  0  0  0  0  0
   -7.2075    1.3876   -1.3648 C   0  0  0  0  0  0  0  0  0  0  0  0
   -7.5018    0.0199   -1.5889 N   0  0  0  0  0  0  0  0  0  0  0  0
   -8.7085    0.0506   -2.2279 N   0  0  0  0  0  0  0  0  0  0  0  0
   -9.2756   -1.2465   -2.6307 C   0  0  0  0  0  0  0  0  0  0  0  0
   -8.6611   -1.5095   -3.9977 C   0  0  0  0  0  0  0  0  0  0  0  0
   -9.1710    1.2210   -2.3878 N   0  0  0  0  0  0  0  0  0  0  0  0
   -9.4745    4.1789   -1.9599 C   0  0  0  0  0  0  0  0  0  0  0  0
  -10.5203    3.7215   -1.1756 C   0  0  0  0  0  0  0  0  0  0  0  0
  -10.3832    2.7057   -0.3158 C   0  0  0  0  0  0  0  0  0  0  0  0
  -10.2579    1.6831    0.5710 N   0  0  0  0  0  0  0  0  0  0  0  0
  -11.7989    4.3470   -1.7866 C   0  0  0  0  0  0  0  0  0  0  0  0
  -12.8909    4.1001   -1.1589 C   0  0  0  0  0  0  0  0  0  0  0  0
  -14.1701    4.4972   -1.5046 C   0  0  0  0  0  0  0  0  0  0  0  0
  -15.2726    4.8323   -1.8083 N   0  0  0  0  0  0  0  0  0  0  0  0
  -12.8213    3.4977    0.1998 C   0  0  0  0  0  0  0  0  0  0  0  0
  -12.7640    3.0261    1.3116 N   0  0  0  0  0  0  0  0  0  0  0  0
  -11.3209    5.0228   -2.8382 O   0  0  0  0  0  0  0  0  0  0  0  0
   -9.9564    5.3409   -2.6327 C   0  0  0  0  0  0  0  0  0  0  0  0
   -9.2432    5.8170   -3.8696 C   0  0  0  0  0  0  0  0  0  0  0  0
  -10.0595    6.5304   -1.6227 C   0  0  0  0  0  0  0  0  0  0  0  0
    8.7317    1.4205    3.1417 H   0  0  0  0  0  0  0  0  0  0  0  0
   10.7791   -3.9593    0.7256 H   0  0  0  0  0  0  0  0  0  0  0  0
   13.2451   -1.8860    4.4481 H   0  0  0  0  0  0  0  0  0  0  0  0
   15.0671   -4.6072    3.3088 H   0  0  0  0  0  0  0  0  0  0  0  0
   13.6114   -6.0037    4.8871 H   0  0  0  0  0  0  0  0  0  0  0  0
   11.0338   -5.4346    4.0198 H   0  0  0  0  0  0  0  0  0  0  0  0
   10.7619   -6.8858    2.0039 H   0  0  0  0  0  0  0  0  0  0  0  0
   13.1390   -7.0568    0.8089 H   0  0  0  0  0  0  0  0  0  0  0  0
   13.3824   -8.0603    3.2351 H   0  0  0  0  0  0  0  0  0  0  0  0
   14.9012   -7.0395    2.7357 H   0  0  0  0  0  0  0  0  0  0  0  0
   14.1902   -4.7956    0.8787 H   0  0  0  0  0  0  0  0  0  0  0  0
    7.4996    0.2559   -0.3649 H   0  0  0  0  0  0  0  0  0  0  0  0
    7.2770   -0.0965   -2.2731 H   0  0  0  0  0  0  0  0  0  0  0  0
    7.3413    1.2397   -4.3246 H   0  0  0  0  0  0  0  0  0  0  0  0
    5.1016    4.6194   -4.4105 H   0  0  0  0  0  0  0  0  0  0  0  0
    3.4496    3.9538   -4.1693 H   0  0  0  0  0  0  0  0  0  0  0  0
    4.0905    5.0265   -6.9837 H   0  0  0  0  0  0  0  0  0  0  0  0
    2.6574    5.2720   -5.8728 H   0  0  0  0  0  0  0  0  0  0  0  0
    4.1313    6.2280   -5.6255 H   0  0  0  0  0  0  0  0  0  0  0  0
    4.0193   -0.4833    4.7922 H   0  0  0  0  0  0  0  0  0  0  0  0
    3.0596   -2.2445    6.2608 H   0  0  0  0  0  0  0  0  0  0  0  0
    0.0419   -6.5595    4.5220 H   0  0  0  0  0  0  0  0  0  0  0  0
    1.4028   -6.0959    3.4269 H   0  0  0  0  0  0  0  0  0  0  0  0
   -0.2962   -3.8974    3.1835 H   0  0  0  0  0  0  0  0  0  0  0  0
   -1.4805   -5.1770    3.4517 H   0  0  0  0  0  0  0  0  0  0  0  0
   -0.3327   -5.3827    2.1599 H   0  0  0  0  0  0  0  0  0  0  0  0
    0.8645   -1.1414    1.5430 H   0  0  0  0  0  0  0  0  0  0  0  0
   -0.3042    0.8981   -3.6648 H   0  0  0  0  0  0  0  0  0  0  0  0
    1.4851    1.2892   -5.2895 H   0  0  0  0  0  0  0  0  0  0  0  0
    3.4333   -2.8962   -7.5319 H   0  0  0  0  0  0  0  0  0  0  0  0
    5.0040   -2.1441   -7.2038 H   0  0  0  0  0  0  0  0  0  0  0  0
    4.0974   -2.7527   -5.8423 H   0  0  0  0  0  0  0  0  0  0  0  0
    1.8231   -2.9148   -5.7813 H   0  0  0  0  0  0  0  0  0  0  0  0
    0.1209   -3.3090   -4.1761 H   0  0  0  0  0  0  0  0  0  0  0  0
   -1.2912   -4.4491   -3.6160 H   0  0  0  0  0  0  0  0  0  0  0  0
   -3.4221   -5.6317   -4.4008 H   0  0  0  0  0  0  0  0  0  0  0  0
   -7.2066   -6.8023   -3.3267 H   0  0  0  0  0  0  0  0  0  0  0  0
   -5.5707   -7.3633   -3.0440 H   0  0  0  0  0  0  0  0  0  0  0  0
   -6.1571   -5.9169   -2.2082 H   0  0  0  0  0  0  0  0  0  0  0  0
   -5.5930   -2.3313   -3.4623 H   0  0  0  0  0  0  0  0  0  0  0  0
   -3.1829   -1.4350   -2.3624 H   0  0  0  0  0  0  0  0  0  0  0  0
   -5.7610    1.5020    3.9761 H   0  0  0  0  0  0  0  0  0  0  0  0
   -5.0070    3.4709    5.2555 H   0  0  0  0  0  0  0  0  0  0  0  0
   -0.8558    5.8469    6.3507 H   0  0  0  0  0  0  0  0  0  0  0  0
   -0.6167    4.2664    5.6277 H   0  0  0  0  0  0  0  0  0  0  0  0
   -1.7583    4.4721    7.0869 H   0  0  0  0  0  0  0  0  0  0  0  0
   -1.6617    4.0025    2.6819 H   0  0  0  0  0  0  0  0  0  0  0  0
   -2.3750    2.1139    1.4370 H   0  0  0  0  0  0  0  0  0  0  0  0
   -6.8804    0.2095    3.1999 H   0  0  0  0  0  0  0  0  0  0  0  0
   -7.9577   -1.8214    3.5996 H   0  0  0  0  0  0  0  0  0  0  0  0
   -6.9068   -4.4629    5.1510 H   0  0  0  0  0  0  0  0  0  0  0  0
   -5.8271   -5.7248    4.3668 H   0  0  0  0  0  0  0  0  0  0  0  0
   -7.5782   -6.0226    4.6979 H   0  0  0  0  0  0  0  0  0  0  0  0
   -4.9950   -3.9334    1.4296 H   0  0  0  0  0  0  0  0  0  0  0  0
   -3.8433   -1.8766    1.0195 H   0  0  0  0  0  0  0  0  0  0  0  0
   -4.0350    3.6407    0.0935 H   0  0  0  0  0  0  0  0  0  0  0  0
   -2.0224    7.4737    1.5359 H   0  0  0  0  0  0  0  0  0  0  0  0
   -0.7302    6.4062    0.8966 H   0  0  0  0  0  0  0  0  0  0  0  0
   -0.3925    8.0177   -0.6321 H   0  0  0  0  0  0  0  0  0  0  0  0
   -1.9429    8.8539   -0.3050 H   0  0  0  0  0  0  0  0  0  0  0  0
   -1.8926    7.4974   -1.5097 H   0  0  0  0  0  0  0  0  0  0  0  0
   -8.9554   -2.0257   -1.9583 H   0  0  0  0  0  0  0  0  0  0  0  0
  -10.3810   -1.1582   -2.6671 H   0  0  0  0  0  0  0  0  0  0  0  0
   -7.6472   -1.0841   -4.0383 H   0  0  0  0  0  0  0  0  0  0  0  0
   -9.2426   -1.0829   -4.7853 H   0  0  0  0  0  0  0  0  0  0  0  0
   -8.5823   -2.6345   -4.1973 H   0  0  0  0  0  0  0  0  0  0  0  0
   -9.9935    6.3007   -4.4914 H   0  0  0  0  0  0  0  0  0  0  0  0
   -8.7234    4.9568   -4.3858 H   0  0  0  0  0  0  0  0  0  0  0  0
   -8.4896    6.6211   -3.5583 H   0  0  0  0  0  0  0  0  0  0  0  0
   -9.7524    6.2416   -0.6253 H   0  0  0  0  0  0  0  0  0  0  0  0
  -11.0728    6.9409   -1.5577 H   0  0  0  0  0  0  0  0  0  0  0  0
   -9.4424    7.3697   -2.0460 H   0  0  0  0  0  0  0  0  0  0  0  0
  1  2  2  3
  2  3  1  0
  3  4  2  0
  3  5  1  0
  5  6  2  0
  6  7  1  0
  7  8  2  0
  8  9  1  0
  9 10  2  0
 10 11  1  0
 11 12  2  3
 12 13  1  0
 13 14  3  0
 12 15  1  0
 15 16  3  0
  8 17  1  0
 17 18  1  0
 18 19  1  0
 19 20  2  0
 20 21  1  0
 21 22  1  0
 21 23  1  0
  1 24  1  0
 24 25  2  0
 25 26  1  0
 26 27  2  0
 27 28  1  0
 28 29  2  0
 29 30  1  0
 30 31  2  0
 31 32  1  0
 32 33  1  0
 33 34  1  0
 31 35  1  0
 27 36  1  0
 36 37  2  0
 37 38  1  0
 38 39  1  0
 39 40  2  0
 40 41  1  0
 41 42  2  0
 42 43  1  0
 43 44  1  0
 44 45  1  0
 42 46  1  0
 38 47  2  0
 47 48  1  0
 37 49  1  0
 49 50  2  0
 50 51  1  0
 50 52  1  0
 52 53  2  0
 53 54  1  0
 54 55  1  0
 55 56  2  0
 56 57  1  0
 57 58  2  0
 58 59  1  0
 59 60  1  0
 58 61  1  0
 61 62  2  0
 54 63  1  0
 63 64  2  0
 64 65  1  0
 65 66  2  0
 66 67  1  0
 67 68  1  0
 66 69  1  0
 69 70  2  0
 53 71  1  0
 71 72  1  0
 72 73  1  0
 73 74  2  0
 74 75  1  0
 75 76  1  0
 76 77  2  0
 77 78  1  0
 78 79  2  0
 79 80  1  0
 80 81  1  0
 79 82  1  0
 82 83  2  0
 75 84  1  0
 84 85  2  0
 85 86  1  0
 86 87  2  0
 87 88  1  0
 88 89  1  0
 87 90  1  0
 90 91  2  0
 74 92  1  0
 92 93  1  0
 73 94  1  0
 94 95  2  0
 95 96  1  0
 96 97  2  0
 97 98  1  0
 98 99  2  0
 98100  1  0
100101  1  0
101102  1  0
 97103  1  0
103104  1  0
104105  2  0
105106  1  0
106107  1  0
107108  2  0
108109  1  0
109110  1  0
110111  1  0
109112  1  0
105113  1  0
113114  2  0
114115  1  0
115116  3  0
114117  1  0
117118  2  3
118119  1  0
119120  3  0
118121  1  0
121122  3  0
117123  1  0
123124  1  0
124125  1  0
124126  1  0
 11  2  1  0
 23 17  1  0
 48 24  1  0
 93 52  1  0
107 94  1  0
124113  1  0
 10  5  1  0
 22 18  1  0
 47 26  1  0
 62 55  1  0
 70 63  1  0
 92 71  2  0
104 95  1  0
112106  2  0
 23  7  1  0
 35 28  1  0
 51 36  1  0
 83 76  1  0
 91 84  1  0
 46 39  1  0
  1127  1  0
  6128  1  0
  9129  1  0
 17130  1  0
 18131  1  0
 19132  1  0
 20133  1  0
 21134  1  0
 22135  1  0
 22136  1  0
 23137  1  0
 25138  1  0
 29139  1  0
 30140  1  0
 33141  1  0
 33142  1  0
 34143  1  0
 34144  1  0
 34145  1  0
 40146  1  0
 41147  1  0
 44148  1  0
 44149  1  0
 45150  1  0
 45151  1  0
 45152  1  0
 49153  1  0
 56154  1  0
 57155  1  0
 60156  1  0
 60157  1  0
 60158  1  0
 61159  1  0
 62160  1  0
 64161  1  0
 65162  1  0
 68163  1  0
 68164  1  0
 68165  1  0
 69166  1  0
 70167  1  0
 77168  1  0
 78169  1  0
 81170  1  0
 81171  1  0
 81172  1  0
 82173  1  0
 83174  1  0
 85175  1  0
 86176  1  0
 89177  1  0
 89178  1  0
 89179  1  0
 90180  1  0
 91181  1  0
 96182  1  0
101183  1  0
101184  1  0
102185  1  0
102186  1  0
102187  1  0
110188  1  0
110189  1  0
111190  1  0
111191  1  0
111192  1  0
125193  1  0
125194  1  0
125195  1  0
126196  1  0
126197  1  0
126198  1  0
M  END

