
     RDKit          3D

180199  0  0  0  0  0  0  0  0999 V2000
    0.7906   -3.0702    6.4993 C   0  0  0  0  0  0  0  0  0  0  0  0
    2.1301   -2.9489    6.4189 C   0  0  0  0  0  0  0  0  0  0  0  0
    2.9206   -2.1944    5.4943 C   0  0  0  0  0  0  0  0  0  0  0  0
    2.4790   -1.3423    4.6089 O   0  0  0  0  0  0  0  0  0  0  0  0
    4.3253   -2.4590    5.6234 C   0  0  0  0  0  0  0  0  0  0  0  0
    5.4419   -1.9766    5.0041 C   0  0  0  0  0  0  0  0  0  0  0  0
    6.7317   -2.3515    5.3101 C   0  0  0  0  0  0  0  0  0  0  0  0
    6.8810   -3.2806    6.3180 C   0  0  0  0  0  0  0  0  0  0  0  0
    5.7572   -3.7769    6.9597 C   0  0  0  0  0  0  0  0  0  0  0  0
    4.4852   -3.4206    6.6637 C   0  0  0  0  0  0  0  0  0  0  0  0
    3.1173   -3.7451    7.1799 C   0  0  0  0  0  0  0  0  0  0  0  0
    2.9113   -4.5623    8.1856 C   0  0  0  0  0  0  0  0  0  0  0  0
    3.9719   -5.2659    8.7895 C   0  0  0  0  0  0  0  0  0  0  0  0
    4.9088   -5.8929    9.3199 N   0  0  0  0  0  0  0  0  0  0  0  0
    1.6247   -4.8668    8.7658 C   0  0  0  0  0  0  0  0  0  0  0  0
    0.5736   -5.1005    9.2235 N   0  0  0  0  0  0  0  0  0  0  0  0
    8.3620   -3.2923    6.1006 C   0  0  0  0  0  0  0  0  0  0  0  0
    9.1523   -2.6412    7.1805 C   0  0  0  0  0  0  0  0  0  0  0  0
   10.4473   -2.1950    6.6182 C   0  0  0  0  0  0  0  0  0  0  0  0
   10.2391   -1.1429    5.8422 C   0  0  0  0  0  0  0  0  0  0  0  0
    8.7680   -0.9650    5.7780 C   0  0  0  0  0  0  0  0  0  0  0  0
    8.4496   -1.3125    7.2451 C   0  0  0  0  0  0  0  0  0  0  0  0
    8.2087   -2.1660    5.0782 C   0  0  0  0  0  0  0  0  0  0  0  0
   -0.0018   -2.3237    5.4653 C   0  0  0  0  0  0  0  0  0  0  0  0
   -0.9642   -2.8079    4.6757 C   0  0  0  0  0  0  0  0  0  0  0  0
   -1.7688   -3.9776    4.7599 N   0  0  0  0  0  0  0  0  0  0  0  0
   -1.3616   -5.1116    3.9999 C   0  0  0  0  0  0  0  0  0  0  0  0
   -2.4151   -5.7806    3.3478 C   0  0  0  0  0  0  0  0  0  0  0  0
   -2.1156   -6.8054    2.5124 C   0  0  0  0  0  0  0  0  0  0  0  0
   -0.7928   -7.1564    2.3270 C   0  0  0  0  0  0  0  0  0  0  0  0
   -0.4399   -8.4789    1.1592 S   0  0  0  0  0  0  0  0  0  0  0  0
    1.3211   -8.6337    0.8333 C   0  0  0  0  0  0  0  0  0  0  0  0
    0.2405   -6.4985    2.9763 C   0  0  0  0  0  0  0  0  0  0  0  0
   -0.0769   -5.4428    3.8384 C   0  0  0  0  0  0  0  0  0  0  0  0
   -3.0014   -4.0298    5.4501 C   0  0  0  0  0  0  0  0  0  0  0  0
   -3.4874   -5.0231    6.2272 C   0  0  0  0  0  0  0  0  0  0  0  0
   -4.7641   -4.9946    6.8011 C   0  0  0  0  0  0  0  0  0  0  0  0
   -5.5967   -3.9658    6.6149 C   0  0  0  0  0  0  0  0  0  0  0  0
   -7.2880   -3.8965    7.2489 S   0  0  0  0  0  0  0  0  0  0  0  0
   -8.4673   -4.3535    5.9224 C   0  0  0  0  0  0  0  0  0  0  0  0
   -5.1288   -2.9144    5.8193 C   0  0  0  0  0  0  0  0  0  0  0  0
   -3.8907   -2.9455    5.2665 C   0  0  0  0  0  0  0  0  0  0  0  0
   -1.3855   -1.9128    3.6355 C   0  0  0  0  0  0  0  0  0  0  0  0
   -2.4224   -1.9643    2.2317 S   0  0  0  0  0  0  0  0  0  0  0  0
   -2.0628   -0.3668    1.5912 C   0  0  0  0  0  0  0  0  0  0  0  0
   -1.1823    0.0951    2.4826 C   0  0  0  0  0  0  0  0  0  0  0  0
   -0.6107    1.4114    2.4603 N   0  0  0  0  0  0  0  0  0  0  0  0
    0.4594    1.7968    1.6207 C   0  0  0  0  0  0  0  0  0  0  0  0
    1.5831    0.9876    1.4508 C   0  0  0  0  0  0  0  0  0  0  0  0
    2.6612    1.4451    0.6920 C   0  0  0  0  0  0  0  0  0  0  0  0
    2.6791    2.6587    0.0948 C   0  0  0  0  0  0  0  0  0  0  0  0
    4.0756    3.2539   -0.8860 S   0  0  0  0  0  0  0  0  0  0  0  0
    3.8385    4.9698   -1.3511 C   0  0  0  0  0  0  0  0  0  0  0  0
    1.5437    3.4789    0.2582 C   0  0  0  0  0  0  0  0  0  0  0  0
    0.4930    3.0365    0.9984 C   0  0  0  0  0  0  0  0  0  0  0  0
   -1.0417    2.3531    3.4324 C   0  0  0  0  0  0  0  0  0  0  0  0
   -0.0943    3.1431    4.0634 C   0  0  0  0  0  0  0  0  0  0  0  0
   -0.4041    4.0147    5.0734 C   0  0  0  0  0  0  0  0  0  0  0  0
   -1.7284    4.0806    5.4551 C   0  0  0  0  0  0  0  0  0  0  0  0
   -2.2359    5.1316    6.7912 S   0  0  0  0  0  0  0  0  0  0  0  0
   -2.2454    4.1215    8.3055 C   0  0  0  0  0  0  0  0  0  0  0  0
   -2.6854    3.3120    4.8438 C   0  0  0  0  0  0  0  0  0  0  0  0
   -2.3134    2.4419    3.8214 C   0  0  0  0  0  0  0  0  0  0  0  0
   -0.8457   -0.7476    3.5460 C   0  0  0  0  0  0  0  0  0  0  0  0
    0.2837   -0.7599    4.8683 S   0  0  0  0  0  0  0  0  0  0  0  0
   -2.6412    0.0708    0.3145 C   0  0  0  0  0  0  0  0  0  0  0  0
   -3.6652    0.9278    0.1542 C   0  0  0  0  0  0  0  0  0  0  0  0
   -4.2460    1.5341    1.2075 F   0  0  0  0  0  0  0  0  0  0  0  0
   -4.1521    1.1697   -1.1356 C   0  0  0  0  0  0  0  0  0  0  0  0
   -5.1881    2.0647   -1.2811 F   0  0  0  0  0  0  0  0  0  0  0  0
   -3.6448    0.5791   -2.2591 C   0  0  0  0  0  0  0  0  0  0  0  0
   -2.5964   -0.2931   -2.0967 C   0  0  0  0  0  0  0  0  0  0  0  0
   -2.0374   -0.7773   -3.1948 N   0  0  0  0  0  0  0  0  0  0  0  0
   -0.9317   -1.5443   -3.1111 C   0  0  0  0  0  0  0  0  0  0  0  0
   -0.3419   -2.1015   -4.3526 C   0  0  0  0  0  0  0  0  0  0  0  0
   -0.6867   -3.5472   -4.6072 C   0  0  0  0  0  0  0  0  0  0  0  0
   -0.4149   -1.7977   -1.8692 C   0  0  0  0  0  0  0  0  0  0  0  0
   -0.9957   -1.3032   -0.7330 N   0  0  0  0  0  0  0  0  0  0  0  0
   -2.0950   -0.5426   -0.8012 C   0  0  0  0  0  0  0  0  0  0  0  0
    0.9183   -2.4964   -1.7337 C   0  0  0  0  0  0  0  0  0  0  0  0
    1.9894   -1.4193   -1.9701 C   0  0  0  0  0  0  0  0  0  0  0  0
   -4.1010    1.1130   -3.5271 C   0  0  0  0  0  0  0  0  0  0  0  0
   -5.0064    0.3904   -4.9066 Se  0  0  0  0  0  2  0  0  0  0  0  0
   -5.2818    2.0797   -5.8265 C   0  0  0  0  0  0  0  0  0  0  0  0
   -4.6125    2.9761   -4.8848 C   0  0  0  0  0  0  0  0  0  0  0  0
   -4.4713    4.3645   -5.0554 C   0  0  0  0  0  0  0  0  0  0  0  0
   -3.7725    5.0788   -4.1229 C   0  0  0  0  0  0  0  0  0  0  0  0
   -3.4420    6.5164   -3.9831 C   0  0  0  0  0  0  0  0  0  0  0  0
   -4.2921    7.2487   -2.9696 C   0  0  0  0  0  0  0  0  0  0  0  0
   -3.3226    3.8274   -3.0121 S   0  0  0  0  0  0  0  0  0  0  0  0
   -4.0884    2.5094   -3.8761 C   0  0  0  0  0  0  0  0  0  0  0  0
   -5.7414    2.3974   -7.0842 C   0  0  0  0  0  0  0  0  0  0  0  0
   -5.3186    2.3277   -8.3565 C   0  0  0  0  0  0  0  0  0  0  0  0
   -4.0797    1.7913   -8.8607 C   0  0  0  0  0  0  0  0  0  0  0  0
   -3.5746    0.6881   -8.4498 O   0  0  0  0  0  0  0  0  0  0  0  0
   -3.5267    2.6856   -9.8738 C   0  0  0  0  0  0  0  0  0  0  0  0
   -2.2828    2.6203  -10.4898 C   0  0  0  0  0  0  0  0  0  0  0  0
   -1.8949    3.6752  -11.2903 C   0  0  0  0  0  0  0  0  0  0  0  0
   -2.6959    4.7677  -11.5063 C   0  0  0  0  0  0  0  0  0  0  0  0
   -3.9548    4.7890  -10.8704 C   0  0  0  0  0  0  0  0  0  0  0  0
   -4.3471    3.7618  -10.0613 C   0  0  0  0  0  0  0  0  0  0  0  0
   -5.5390    3.6213   -9.1400 C   0  0  0  0  0  0  0  0  0  0  0  0
   -6.5631    4.3553   -9.1705 C   0  0  0  0  0  0  0  0  0  0  0  0
   -6.6904    5.6095   -9.9061 C   0  0  0  0  0  0  0  0  0  0  0  0
   -6.7983    6.6321  -10.5030 N   0  0  0  0  0  0  0  0  0  0  0  0
   -7.8788    3.9949   -8.5408 C   0  0  0  0  0  0  0  0  0  0  0  0
   -8.8841    3.7212   -8.0809 N   0  0  0  0  0  0  0  0  0  0  0  0
   -1.6827    5.4061  -12.3126 C   0  0  0  0  0  0  0  0  0  0  0  0
   -1.8528    5.3802  -13.7675 C   0  0  0  0  0  0  0  0  0  0  0  0
   -0.4968    5.7497  -14.3542 C   0  0  0  0  0  0  0  0  0  0  0  0
    0.3208    4.7602  -14.0942 C   0  0  0  0  0  0  0  0  0  0  0  0
   -0.4662    3.6862  -13.3935 C   0  0  0  0  0  0  0  0  0  0  0  0
   -1.8262    3.8939  -14.0844 C   0  0  0  0  0  0  0  0  0  0  0  0
   -0.7325    4.2014  -12.0470 C   0  0  0  0  0  0  0  0  0  0  0  0
    0.2780   -3.6505    7.2143 H   0  0  0  0  0  0  0  0  0  0  0  0
    5.3178   -1.2565    4.1933 H   0  0  0  0  0  0  0  0  0  0  0  0
    5.9844   -4.4815    7.7243 H   0  0  0  0  0  0  0  0  0  0  0  0
    8.7697   -4.2287    5.6735 H   0  0  0  0  0  0  0  0  0  0  0  0
    9.2132   -3.1644    8.1238 H   0  0  0  0  0  0  0  0  0  0  0  0
   11.3813   -2.6963    6.8379 H   0  0  0  0  0  0  0  0  0  0  0  0
   10.9636   -0.5203    5.3507 H   0  0  0  0  0  0  0  0  0  0  0  0
    8.4339    0.0007    5.4566 H   0  0  0  0  0  0  0  0  0  0  0  0
    8.9276   -0.6399    7.9484 H   0  0  0  0  0  0  0  0  0  0  0  0
    7.3614   -1.3982    7.3910 H   0  0  0  0  0  0  0  0  0  0  0  0
    8.5633   -2.3843    4.0547 H   0  0  0  0  0  0  0  0  0  0  0  0
   -3.4415   -5.4730    3.5292 H   0  0  0  0  0  0  0  0  0  0  0  0
   -2.9417   -7.3299    2.0023 H   0  0  0  0  0  0  0  0  0  0  0  0
    1.4635   -8.4779   -0.2890 H   0  0  0  0  0  0  0  0  0  0  0  0
    1.7251   -9.6223    1.0459 H   0  0  0  0  0  0  0  0  0  0  0  0
    1.9460   -7.8160    1.2735 H   0  0  0  0  0  0  0  0  0  0  0  0
    1.2719   -6.7379    2.8484 H   0  0  0  0  0  0  0  0  0  0  0  0
    0.7296   -4.9182    4.3210 H   0  0  0  0  0  0  0  0  0  0  0  0
   -2.8535   -5.8814    6.4158 H   0  0  0  0  0  0  0  0  0  0  0  0
   -5.0741   -5.8396    7.3941 H   0  0  0  0  0  0  0  0  0  0  0  0
   -7.9718   -4.7723    5.0045 H   0  0  0  0  0  0  0  0  0  0  0  0
   -9.0485   -3.4585    5.5623 H   0  0  0  0  0  0  0  0  0  0  0  0
   -9.1959   -5.1050    6.2613 H   0  0  0  0  0  0  0  0  0  0  0  0
   -5.7938   -2.0794    5.6496 H   0  0  0  0  0  0  0  0  0  0  0  0
   -3.5270   -2.1087    4.6888 H   0  0  0  0  0  0  0  0  0  0  0  0
    1.5361    0.0244    1.9159 H   0  0  0  0  0  0  0  0  0  0  0  0
    3.5470    0.7884    0.5764 H   0  0  0  0  0  0  0  0  0  0  0  0
    4.7584    5.3849   -1.8450 H   0  0  0  0  0  0  0  0  0  0  0  0
    2.9879    5.0696   -2.0616 H   0  0  0  0  0  0  0  0  0  0  0  0
    3.6156    5.6153   -0.5009 H   0  0  0  0  0  0  0  0  0  0  0  0
    1.5649    4.4486   -0.2160 H   0  0  0  0  0  0  0  0  0  0  0  0
   -0.3556    3.6934    1.1129 H   0  0  0  0  0  0  0  0  0  0  0  0
    0.9685    3.0861    3.7653 H   0  0  0  0  0  0  0  0  0  0  0  0
    0.3538    4.6083    5.5341 H   0  0  0  0  0  0  0  0  0  0  0  0
   -3.2279    4.3877    8.8108 H   0  0  0  0  0  0  0  0  0  0  0  0
   -1.4566    4.4750    8.9613 H   0  0  0  0  0  0  0  0  0  0  0  0
   -2.1584    3.0502    8.1119 H   0  0  0  0  0  0  0  0  0  0  0  0
   -3.7159    3.3391    5.1031 H   0  0  0  0  0  0  0  0  0  0  0  0
   -3.1126    1.8416    3.3917 H   0  0  0  0  0  0  0  0  0  0  0  0
   -0.6691   -1.4852   -5.2163 H   0  0  0  0  0  0  0  0  0  0  0  0
    0.7850   -2.0171   -4.3611 H   0  0  0  0  0  0  0  0  0  0  0  0
    0.1109   -4.0482   -5.2137 H   0  0  0  0  0  0  0  0  0  0  0  0
   -1.6557   -3.6399   -5.1955 H   0  0  0  0  0  0  0  0  0  0  0  0
   -0.7750   -4.0822   -3.6475 H   0  0  0  0  0  0  0  0  0  0  0  0
    1.0493   -3.2337   -2.5370 H   0  0  0  0  0  0  0  0  0  0  0  0
    1.0481   -2.8679   -0.7328 H   0  0  0  0  0  0  0  0  0  0  0  0
    1.5585   -0.4114   -2.0902 H   0  0  0  0  0  0  0  0  0  0  0  0
    2.6079   -1.6263   -2.8772 H   0  0  0  0  0  0  0  0  0  0  0  0
    2.7211   -1.3816   -1.1380 H   0  0  0  0  0  0  0  0  0  0  0  0
   -4.9137    4.9648   -5.8878 H   0  0  0  0  0  0  0  0  0  0  0  0
   -2.3695    6.5835   -3.8601 H   0  0  0  0  0  0  0  0  0  0  0  0
   -3.7164    6.9825   -4.9997 H   0  0  0  0  0  0  0  0  0  0  0  0
   -3.6783    7.5002   -2.0715 H   0  0  0  0  0  0  0  0  0  0  0  0
   -4.7328    8.1765   -3.3538 H   0  0  0  0  0  0  0  0  0  0  0  0
   -5.1035    6.5987   -2.5878 H   0  0  0  0  0  0  0  0  0  0  0  0
   -6.8099    2.8025   -7.0669 H   0  0  0  0  0  0  0  0  0  0  0  0
   -1.6987    1.7456  -10.3145 H   0  0  0  0  0  0  0  0  0  0  0  0
   -4.5250    5.6431  -11.0700 H   0  0  0  0  0  0  0  0  0  0  0  0
   -1.2385    6.3532  -11.8940 H   0  0  0  0  0  0  0  0  0  0  0  0
   -2.6523    5.9470  -14.2122 H   0  0  0  0  0  0  0  0  0  0  0  0
   -0.2993    6.6646  -14.8695 H   0  0  0  0  0  0  0  0  0  0  0  0
    1.3576    4.7249  -14.3029 H   0  0  0  0  0  0  0  0  0  0  0  0
   -0.0586    2.7116  -13.5283 H   0  0  0  0  0  0  0  0  0  0  0  0
   -1.7412    3.7133  -15.1850 H   0  0  0  0  0  0  0  0  0  0  0  0
   -2.6029    3.3698  -13.5695 H   0  0  0  0  0  0  0  0  0  0  0  0
    0.1312    4.4591  -11.3940 H   0  0  0  0  0  0  0  0  0  0  0  0
  1  2  2  3
  2  3  1  0
  3  4  2  0
  3  5  1  0
  5  6  2  0
  6  7  1  0
  7  8  2  0
  8  9  1  0
  9 10  2  0
 10 11  1  0
 11 12  2  3
 12 13  1  0
 13 14  3  0
 12 15  1  0
 15 16  3  0
  8 17  1  0
 17 18  1  0
 18 19  1  0
 19 20  2  0
 20 21  1  0
 21 22  1  0
 21 23  1  0
  1 24  1  0
 24 25  2  0
 25 26  1  0
 26 27  1  0
 27 28  2  0
 28 29  1  0
 29 30  2  0
 30 31  1  0
 31 32  1  0
 30 33  1  0
 33 34  2  0
 26 35  1  0
 35 36  2  0
 36 37  1  0
 37 38  2  0
 38 39  1  0
 39 40  1  0
 38 41  1  0
 41 42  2  0
 25 43  1  0
 43 44  1  0
 44 45  1  0
 45 46  2  0
 46 47  1  0
 47 48  1  0
 48 49  2  0
 49 50  1  0
 50 51  2  0
 51 52  1  0
 52 53  1  0
 51 54  1  0
 54 55  2  0
 47 56  1  0
 56 57  2  0
 57 58  1  0
 58 59  2  0
 59 60  1  0
 60 61  1  0
 59 62  1  0
 62 63  2  0
 46 64  1  0
 64 65  1  0
 45 66  1  0
 66 67  2  0
 67 68  1  0
 67 69  1  0
 69 70  1  0
 69 71  2  0
 71 72  1  0
 72 73  2  0
 73 74  1  0
 74 75  1  0
 75 76  1  0
 74 77  2  0
 77 78  1  0
 78 79  2  0
 77 80  1  0
 80 81  1  0
 71 82  1  0
 82 83  1  0
 83 84  1  0
 84 85  2  0
 85 86  1  0
 86 87  2  0
 87 88  1  0
 88 89  1  0
 87 90  1  0
 90 91  1  0
 84 92  1  0
 92 93  2  3
 93 94  1  0
 94 95  2  0
 94 96  1  0
 96 97  2  0
 97 98  1  0
 98 99  2  0
 99100  1  0
100101  2  0
101102  1  0
102103  2  3
103104  1  0
104105  3  0
103106  1  0
106107  3  0
 99108  1  0
108109  1  0
109110  1  0
110111  2  0
111112  1  0
112113  1  0
112114  1  0
 11  2  1  0
 23 17  1  0
 65 24  1  0
 79 66  1  0
 91 82  2  0
102 93  1  0
114108  1  0
 10  5  1  0
 22 18  1  0
 34 27  1  0
 42 35  1  0
 64 43  2  0
 79 72  1  0
 91 85  1  0
101 96  1  0
113109  1  0
 23  7  1  0
 55 48  1  0
 63 56  1  0
114 98  1  0
  1115  1  0
  6116  1  0
  9117  1  0
 17118  1  0
 18119  1  0
 19120  1  0
 20121  1  0
 21122  1  0
 22123  1  0
 22124  1  0
 23125  1  0
 28126  1  0
 29127  1  0
 32128  1  0
 32129  1  0
 32130  1  0
 33131  1  0
 34132  1  0
 36133  1  0
 37134  1  0
 40135  1  0
 40136  1  0
 40137  1  0
 41138  1  0
 42139  1  0
 49140  1  0
 50141  1  0
 53142  1  0
 53143  1  0
 53144  1  0
 54145  1  0
 55146  1  0
 57147  1  0
 58148  1  0
 61149  1  0
 61150  1  0
 61151  1  0
 62152  1  0
 63153  1  0
 75154  1  0
 75155  1  0
 76156  1  0
 76157  1  0
 76158  1  0
 80159  1  0
 80160  1  0
 81161  1  0
 81162  1  0
 81163  1  0
 86164  1  0
 88165  1  0
 88166  1  0
 89167  1  0
 89168  1  0
 89169  1  0
 92170  1  0
 97171  1  0
100172  1  0
108173  1  0
109174  1  0
110175  1  0
111176  1  0
112177  1  0
113178  1  0
113179  1  0
114180  1  0
M  END

