
     RDKit          3D

212234  0  0  0  0  0  0  0  0999 V2000
   -6.5156    1.4471   -3.1338 C   0  0  0  0  0  0  0  0  0  0  0  0
   -7.0022    0.1950   -3.2778 C   0  0  0  0  0  0  0  0  0  0  0  0
   -6.2396   -1.0488   -3.1613 C   0  0  0  0  0  0  0  0  0  0  0  0
   -5.1273   -1.2765   -3.6915 O   0  0  0  0  0  0  0  0  0  0  0  0
   -7.0698   -2.0686   -2.5746 C   0  0  0  0  0  0  0  0  0  0  0  0
   -6.6696   -3.3592   -2.1720 C   0  0  0  0  0  0  0  0  0  0  0  0
   -7.6690   -4.0775   -1.5441 C   0  0  0  0  0  0  0  0  0  0  0  0
   -8.9851   -3.5565   -1.3132 C   0  0  0  0  0  0  0  0  0  0  0  0
   -9.3847   -2.2906   -1.7250 C   0  0  0  0  0  0  0  0  0  0  0  0
   -8.3783   -1.5536   -2.4100 C   0  0  0  0  0  0  0  0  0  0  0  0
   -8.4225   -0.1839   -2.9958 C   0  0  0  0  0  0  0  0  0  0  0  0
   -9.5287    0.4976   -3.3885 C   0  0  0  0  0  0  0  0  0  0  0  0
   -9.4456    1.6872   -4.2012 C   0  0  0  0  0  0  0  0  0  0  0  0
   -9.3842    2.6425   -4.8510 N   0  0  0  0  0  0  0  0  0  0  0  0
  -10.8628    0.0065   -3.1455 C   0  0  0  0  0  0  0  0  0  0  0  0
  -11.9380   -0.3722   -2.9558 N   0  0  0  0  0  0  0  0  0  0  0  0
   -9.3769   -4.8187   -0.5987 C   0  0  0  0  0  0  0  0  0  0  0  0
   -9.4464   -4.7581    0.9567 C   0  0  0  0  0  0  0  0  0  0  0  0
   -9.4573   -6.1943    1.4289 C   0  0  0  0  0  0  0  0  0  0  0  0
   -8.2293   -6.6774    1.1939 C   0  0  0  0  0  0  0  0  0  0  0  0
   -7.4381   -5.5541    0.5745 C   0  0  0  0  0  0  0  0  0  0  0  0
   -8.0251   -4.3926    1.3590 C   0  0  0  0  0  0  0  0  0  0  0  0
   -8.0320   -5.3546   -0.8519 C   0  0  0  0  0  0  0  0  0  0  0  0
   -5.2745    1.7812   -2.4069 C   0  0  0  0  0  0  0  0  0  0  0  0
   -3.9146    1.5467   -2.7338 C   0  0  0  0  0  0  0  0  0  0  0  0
   -3.4148    0.8542   -3.8926 N   0  0  0  0  0  0  0  0  0  0  0  0
   -3.8262    1.2799   -5.2090 C   0  0  0  0  0  0  0  0  0  0  0  0
   -4.0219    0.3341   -6.2341 C   0  0  0  0  0  0  0  0  0  0  0  0
   -4.3354    0.7495   -7.5304 C   0  0  0  0  0  0  0  0  0  0  0  0
   -4.4618    2.1119   -7.8196 C   0  0  0  0  0  0  0  0  0  0  0  0
   -4.8087    2.6487   -9.5000 S   0  0  0  0  0  0  0  0  0  0  0  0
   -6.6139    2.5852   -9.2799 C   0  0  0  0  0  0  0  0  0  0  0  0
   -4.2957    3.0574   -6.8039 C   0  0  0  0  0  0  0  0  0  0  0  0
   -3.9793    2.6455   -5.5051 C   0  0  0  0  0  0  0  0  0  0  0  0
   -2.4292   -0.1993   -3.7152 C   0  0  0  0  0  0  0  0  0  0  0  0
   -1.3764   -0.3767   -4.6375 C   0  0  0  0  0  0  0  0  0  0  0  0
   -0.4867   -1.4460   -4.5004 C   0  0  0  0  0  0  0  0  0  0  0  0
   -0.6338   -2.3558   -3.4473 C   0  0  0  0  0  0  0  0  0  0  0  0
    0.4574   -3.7704   -3.3218 S   0  0  0  0  0  0  0  0  0  0  0  0
   -0.5189   -4.7742   -4.4867 C   0  0  0  0  0  0  0  0  0  0  0  0
   -1.6372   -2.1602   -2.4974 C   0  0  0  0  0  0  0  0  0  0  0  0
   -2.5144   -1.0778   -2.6142 C   0  0  0  0  0  0  0  0  0  0  0  0
   -3.0744    2.0684   -1.7468 C   0  0  0  0  0  0  0  0  0  0  0  0
   -1.4106    2.1043   -1.5378 S   0  0  0  0  0  0  0  0  0  0  0  0
   -1.4958    2.8754   -0.0242 C   0  0  0  0  0  0  0  0  0  0  0  0
   -2.8324    3.1097    0.3134 C   0  0  0  0  0  0  0  0  0  0  0  0
   -3.2678    3.7353    1.5295 N   0  0  0  0  0  0  0  0  0  0  0  0
   -3.2693    5.1800    1.6496 C   0  0  0  0  0  0  0  0  0  0  0  0
   -2.4332    5.9766    0.8454 C   0  0  0  0  0  0  0  0  0  0  0  0
   -2.3981    7.3639    1.0093 C   0  0  0  0  0  0  0  0  0  0  0  0
   -3.2056    7.9797    1.9732 C   0  0  0  0  0  0  0  0  0  0  0  0
   -3.1190    9.7543    2.2131 S   0  0  0  0  0  0  0  0  0  0  0  0
   -1.7726    9.6489    3.4382 C   0  0  0  0  0  0  0  0  0  0  0  0
   -4.0699    7.2034    2.7486 C   0  0  0  0  0  0  0  0  0  0  0  0
   -4.1119    5.8154    2.5824 C   0  0  0  0  0  0  0  0  0  0  0  0
   -3.5029    2.9056    2.6875 C   0  0  0  0  0  0  0  0  0  0  0  0
   -2.8404    3.1670    3.8998 C   0  0  0  0  0  0  0  0  0  0  0  0
   -3.0340    2.3310    5.0032 C   0  0  0  0  0  0  0  0  0  0  0  0
   -3.9116    1.2474    4.9210 C   0  0  0  0  0  0  0  0  0  0  0  0
   -4.1557    0.1654    6.3273 S   0  0  0  0  0  0  0  0  0  0  0  0
   -5.5032    1.1635    7.0246 C   0  0  0  0  0  0  0  0  0  0  0  0
   -4.5844    0.9880    3.7209 C   0  0  0  0  0  0  0  0  0  0  0  0
   -4.3759    1.8045    2.6090 C   0  0  0  0  0  0  0  0  0  0  0  0
   -3.6851    2.6682   -0.6951 C   0  0  0  0  0  0  0  0  0  0  0  0
   -5.3423    2.6326   -0.9236 S   0  0  0  0  0  0  0  0  0  0  0  0
   -0.3337    2.9951    0.8509 C   0  0  0  0  0  0  0  0  0  0  0  0
   -0.1849    2.3276    2.0539 C   0  0  0  0  0  0  0  0  0  0  0  0
    1.1521    2.4475    2.3561 C   0  0  0  0  0  0  0  0  0  0  0  0
    1.9293    1.7477    3.2893 C   0  0  0  0  0  0  0  0  0  0  0  0
    1.3048    0.7945    4.2254 C   0  0  0  0  0  0  0  0  0  0  0  0
    0.7432   -0.3961    3.7388 C   0  0  0  0  0  0  0  0  0  0  0  0
   -0.0086   -1.2144    4.5838 C   0  0  0  0  0  0  0  0  0  0  0  0
   -0.2222   -0.8461    5.9225 C   0  0  0  0  0  0  0  0  0  0  0  0
   -1.0656   -1.7133    6.8166 C   0  0  0  0  0  0  0  0  0  0  0  0
   -0.2353   -2.8057    7.4775 C   0  0  0  0  0  0  0  0  0  0  0  0
    0.3714    0.3266    6.4158 C   0  0  0  0  0  0  0  0  0  0  0  0
    1.1267    1.1474    5.5704 C   0  0  0  0  0  0  0  0  0  0  0  0
    3.3221    1.8416    3.1113 C   0  0  0  0  0  0  0  0  0  0  0  0
    3.8826    2.7102    2.1905 C   0  0  0  0  0  0  0  0  0  0  0  0
    3.1011    3.4581    1.2810 C   0  0  0  0  0  0  0  0  0  0  0  0
    3.6968    4.3409    0.2495 C   0  0  0  0  0  0  0  0  0  0  0  0
    3.2834    4.2552   -1.0894 C   0  0  0  0  0  0  0  0  0  0  0  0
    3.8058    5.1313   -2.0463 C   0  0  0  0  0  0  0  0  0  0  0  0
    4.7505    6.1032   -1.6795 C   0  0  0  0  0  0  0  0  0  0  0  0
    5.2654    7.0822   -2.7016 C   0  0  0  0  0  0  0  0  0  0  0  0
    4.2942    8.2461   -2.8692 C   0  0  0  0  0  0  0  0  0  0  0  0
    5.1691    6.1827   -0.3417 C   0  0  0  0  0  0  0  0  0  0  0  0
    4.6523    5.3028    0.6149 C   0  0  0  0  0  0  0  0  0  0  0  0
    1.7152    3.2254    1.3614 C   0  0  0  0  0  0  0  0  0  0  0  0
    0.8021    3.5524    0.4785 O   0  0  0  0  0  0  0  0  0  0  0  0
    5.2254    2.4060    2.1447 C   0  0  0  0  0  0  0  0  0  0  0  0
    5.3935    1.3171    3.0072 C   0  0  0  0  0  0  0  0  0  0  0  0
    4.2420    1.0514    3.6110 O   0  0  0  0  0  0  0  0  0  0  0  0
    6.5706    0.3856    3.0550 C   0  0  0  0  0  0  0  0  0  0  0  0
    7.6200    0.4941    2.1096 C   0  0  0  0  0  0  0  0  0  0  0  0
    7.8744    1.6530    1.4554 F   0  0  0  0  0  0  0  0  0  0  0  0
    8.3747   -0.6263    1.7524 C   0  0  0  0  0  0  0  0  0  0  0  0
    9.2557   -0.5396    0.7232 F   0  0  0  0  0  0  0  0  0  0  0  0
    8.1262   -1.8654    2.3578 C   0  0  0  0  0  0  0  0  0  0  0  0
    7.2554   -1.9301    3.4482 C   0  0  0  0  0  0  0  0  0  0  0  0
    7.0789   -3.0999    4.1135 N   0  0  0  0  0  0  0  0  0  0  0  0
    6.2285   -3.2181    5.1668 C   0  0  0  0  0  0  0  0  0  0  0  0
    6.0939   -4.5822    5.7951 C   0  0  0  0  0  0  0  0  0  0  0  0
    4.9238   -5.3488    5.1889 C   0  0  0  0  0  0  0  0  0  0  0  0
    5.4916   -2.0774    5.5756 C   0  0  0  0  0  0  0  0  0  0  0  0
    5.6382   -0.9225    4.8677 N   0  0  0  0  0  0  0  0  0  0  0  0
    6.4877   -0.8073    3.8150 C   0  0  0  0  0  0  0  0  0  0  0  0
    4.5379   -2.0574    6.7384 C   0  0  0  0  0  0  0  0  0  0  0  0
    3.0997   -1.9152    6.2562 C   0  0  0  0  0  0  0  0  0  0  0  0
    8.5389   -3.1075    1.6690 C   0  0  0  0  0  0  0  0  0  0  0  0
    7.6853   -3.7635    0.8562 C   0  0  0  0  0  0  0  0  0  0  0  0
    6.3631   -3.2603    0.4371 C   0  0  0  0  0  0  0  0  0  0  0  0
    5.7189   -2.3050    0.9515 O   0  0  0  0  0  0  0  0  0  0  0  0
    5.9387   -3.9883   -0.7301 C   0  0  0  0  0  0  0  0  0  0  0  0
    4.8056   -3.7135   -1.5280 C   0  0  0  0  0  0  0  0  0  0  0  0
    4.7350   -4.4742   -2.6752 C   0  0  0  0  0  0  0  0  0  0  0  0
    5.7301   -5.4371   -3.0455 C   0  0  0  0  0  0  0  0  0  0  0  0
    6.8404   -5.7172   -2.2606 C   0  0  0  0  0  0  0  0  0  0  0  0
    6.9160   -4.9664   -1.0499 C   0  0  0  0  0  0  0  0  0  0  0  0
    7.9749   -4.9574   -0.0003 C   0  0  0  0  0  0  0  0  0  0  0  0
    8.8562   -5.9520    0.2707 C   0  0  0  0  0  0  0  0  0  0  0  0
    9.6643   -5.9559    1.4614 C   0  0  0  0  0  0  0  0  0  0  0  0
   10.3180   -5.9783    2.4181 N   0  0  0  0  0  0  0  0  0  0  0  0
    8.9411   -7.1459   -0.5275 C   0  0  0  0  0  0  0  0  0  0  0  0
    9.0159   -8.1133   -1.1616 N   0  0  0  0  0  0  0  0  0  0  0  0
    5.0149   -5.7037   -4.3367 C   0  0  0  0  0  0  0  0  0  0  0  0
    5.6249   -5.0786   -5.6216 C   0  0  0  0  0  0  0  0  0  0  0  0
    4.5362   -5.1377   -6.6733 C   0  0  0  0  0  0  0  0  0  0  0  0
    3.6087   -4.2425   -6.3078 C   0  0  0  0  0  0  0  0  0  0  0  0
    4.1001   -3.6178   -5.0330 C   0  0  0  0  0  0  0  0  0  0  0  0
    5.5882   -3.5867   -5.3378 C   0  0  0  0  0  0  0  0  0  0  0  0
    3.9905   -4.7291   -3.9463 C   0  0  0  0  0  0  0  0  0  0  0  0
   -7.2316    2.2494   -3.0939 H   0  0  0  0  0  0  0  0  0  0  0  0
   -5.6632   -3.7443   -2.3169 H   0  0  0  0  0  0  0  0  0  0  0  0
  -10.3704   -1.9185   -1.4925 H   0  0  0  0  0  0  0  0  0  0  0  0
  -10.1967   -5.3751   -1.1004 H   0  0  0  0  0  0  0  0  0  0  0  0
  -10.2523   -4.1151    1.3756 H   0  0  0  0  0  0  0  0  0  0  0  0
  -10.2571   -6.7123    1.9414 H   0  0  0  0  0  0  0  0  0  0  0  0
   -7.8651   -7.6581    1.4880 H   0  0  0  0  0  0  0  0  0  0  0  0
   -6.3341   -5.6661    0.6220 H   0  0  0  0  0  0  0  0  0  0  0  0
   -7.8436   -4.4561    2.4587 H   0  0  0  0  0  0  0  0  0  0  0  0
   -7.6977   -3.3948    1.0010 H   0  0  0  0  0  0  0  0  0  0  0  0
   -8.0073   -6.2465   -1.5148 H   0  0  0  0  0  0  0  0  0  0  0  0
   -3.9221   -0.7253   -6.0325 H   0  0  0  0  0  0  0  0  0  0  0  0
   -4.4679    0.0111   -8.3118 H   0  0  0  0  0  0  0  0  0  0  0  0
   -7.0999    2.9020  -10.2251 H   0  0  0  0  0  0  0  0  0  0  0  0
   -6.9320    1.5476   -9.0412 H   0  0  0  0  0  0  0  0  0  0  0  0
   -6.9248    3.2758   -8.4675 H   0  0  0  0  0  0  0  0  0  0  0  0
   -4.3925    4.1150   -7.0190 H   0  0  0  0  0  0  0  0  0  0  0  0
   -3.8222    3.3891   -4.7375 H   0  0  0  0  0  0  0  0  0  0  0  0
   -1.2472    0.3136   -5.4616 H   0  0  0  0  0  0  0  0  0  0  0  0
    0.3038   -1.5855   -5.2295 H   0  0  0  0  0  0  0  0  0  0  0  0
   -0.0897   -5.7948   -4.5404 H   0  0  0  0  0  0  0  0  0  0  0  0
   -0.4696   -4.3211   -5.4987 H   0  0  0  0  0  0  0  0  0  0  0  0
   -1.5771   -4.8411   -4.1533 H   0  0  0  0  0  0  0  0  0  0  0  0
   -1.7470   -2.8526   -1.6676 H   0  0  0  0  0  0  0  0  0  0  0  0
   -3.2893   -0.9538   -1.8674 H   0  0  0  0  0  0  0  0  0  0  0  0
   -1.7832    5.5407    0.1042 H   0  0  0  0  0  0  0  0  0  0  0  0
   -1.7363    7.9623    0.3936 H   0  0  0  0  0  0  0  0  0  0  0  0
   -1.5323   10.6670    3.8036 H   0  0  0  0  0  0  0  0  0  0  0  0
   -2.0910    9.0233    4.3003 H   0  0  0  0  0  0  0  0  0  0  0  0
   -0.8647    9.2129    2.9713 H   0  0  0  0  0  0  0  0  0  0  0  0
   -4.7094    7.6756    3.4864 H   0  0  0  0  0  0  0  0  0  0  0  0
   -4.7954    5.2361    3.1889 H   0  0  0  0  0  0  0  0  0  0  0  0
   -2.1489    3.9964    3.9712 H   0  0  0  0  0  0  0  0  0  0  0  0
   -2.5041    2.5349    5.9253 H   0  0  0  0  0  0  0  0  0  0  0  0
   -5.1133    2.1450    7.3658 H   0  0  0  0  0  0  0  0  0  0  0  0
   -5.9386    0.6214    7.8902 H   0  0  0  0  0  0  0  0  0  0  0  0
   -6.3025    1.3237    6.2732 H   0  0  0  0  0  0  0  0  0  0  0  0
   -5.2712    0.1527    3.6497 H   0  0  0  0  0  0  0  0  0  0  0  0
   -4.9010    1.5881    1.6947 H   0  0  0  0  0  0  0  0  0  0  0  0
   -0.9037    1.6723    2.5290 H   0  0  0  0  0  0  0  0  0  0  0  0
    0.8583   -0.6670    2.6940 H   0  0  0  0  0  0  0  0  0  0  0  0
   -0.4478   -2.1218    4.1904 H   0  0  0  0  0  0  0  0  0  0  0  0
   -1.5528   -1.0975    7.6015 H   0  0  0  0  0  0  0  0  0  0  0  0
   -1.8780   -2.1884    6.2156 H   0  0  0  0  0  0  0  0  0  0  0  0
    0.3376   -3.3758    6.7185 H   0  0  0  0  0  0  0  0  0  0  0  0
   -0.9073   -3.5090    8.0136 H   0  0  0  0  0  0  0  0  0  0  0  0
    0.4589   -2.3580    8.2189 H   0  0  0  0  0  0  0  0  0  0  0  0
    0.2357    0.6121    7.4499 H   0  0  0  0  0  0  0  0  0  0  0  0
    1.5424    2.0713    5.9566 H   0  0  0  0  0  0  0  0  0  0  0  0
    2.5645    3.5048   -1.3988 H   0  0  0  0  0  0  0  0  0  0  0  0
    3.4683    5.0607   -3.0715 H   0  0  0  0  0  0  0  0  0  0  0  0
    6.2559    7.4764   -2.3861 H   0  0  0  0  0  0  0  0  0  0  0  0
    5.4085    6.5759   -3.6788 H   0  0  0  0  0  0  0  0  0  0  0  0
    4.1375    8.7687   -1.8999 H   0  0  0  0  0  0  0  0  0  0  0  0
    3.3131    7.8800   -3.2551 H   0  0  0  0  0  0  0  0  0  0  0  0
    4.7114    8.9761   -3.5942 H   0  0  0  0  0  0  0  0  0  0  0  0
    5.8817    6.9372   -0.0383 H   0  0  0  0  0  0  0  0  0  0  0  0
    4.9736    5.3961    1.6457 H   0  0  0  0  0  0  0  0  0  0  0  0
    5.9173    2.8130    1.4237 H   0  0  0  0  0  0  0  0  0  0  0  0
    7.0213   -5.1547    5.6069 H   0  0  0  0  0  0  0  0  0  0  0  0
    5.9921   -4.5258    6.8995 H   0  0  0  0  0  0  0  0  0  0  0  0
    5.0345   -5.4054    4.0817 H   0  0  0  0  0  0  0  0  0  0  0  0
    4.8991   -6.3791    5.5978 H   0  0  0  0  0  0  0  0  0  0  0  0
    3.9586   -4.8562    5.4363 H   0  0  0  0  0  0  0  0  0  0  0  0
    4.7825   -1.1803    7.3739 H   0  0  0  0  0  0  0  0  0  0  0  0
    4.6171   -2.9464    7.3927 H   0  0  0  0  0  0  0  0  0  0  0  0
    2.4463   -1.7386    7.1299 H   0  0  0  0  0  0  0  0  0  0  0  0
    2.7714   -2.8370    5.7309 H   0  0  0  0  0  0  0  0  0  0  0  0
    3.0108   -1.0507    5.5689 H   0  0  0  0  0  0  0  0  0  0  0  0
    9.5714   -3.4190    1.7688 H   0  0  0  0  0  0  0  0  0  0  0  0
    4.0896   -2.9346   -1.2943 H   0  0  0  0  0  0  0  0  0  0  0  0
    7.5905   -6.4160   -2.5979 H   0  0  0  0  0  0  0  0  0  0  0  0
    4.6525   -6.7464   -4.4338 H   0  0  0  0  0  0  0  0  0  0  0  0
    6.6080   -5.4837   -5.9380 H   0  0  0  0  0  0  0  0  0  0  0  0
    4.5361   -5.7078   -7.5951 H   0  0  0  0  0  0  0  0  0  0  0  0
    2.7248   -3.9683   -6.8745 H   0  0  0  0  0  0  0  0  0  0  0  0
    3.6261   -2.6504   -4.7635 H   0  0  0  0  0  0  0  0  0  0  0  0
    5.8456   -2.9523   -6.2208 H   0  0  0  0  0  0  0  0  0  0  0  0
    6.2175   -3.2694   -4.4814 H   0  0  0  0  0  0  0  0  0  0  0  0
    2.9801   -5.1674   -3.7932 H   0  0  0  0  0  0  0  0  0  0  0  0
  1  2  2  3
  2  3  1  0
  3  4  2  0
  3  5  1  0
  5  6  2  0
  6  7  1  0
  7  8  2  0
  8  9  1  0
  9 10  2  0
 10 11  1  0
 11 12  2  3
 12 13  1  0
 13 14  3  0
 12 15  1  0
 15 16  3  0
  8 17  1  0
 17 18  1  0
 18 19  1  0
 19 20  2  0
 20 21  1  0
 21 22  1  0
 21 23  1  0
  1 24  1  0
 24 25  2  0
 25 26  1  0
 26 27  1  0
 27 28  2  0
 28 29  1  0
 29 30  2  0
 30 31  1  0
 31 32  1  0
 30 33  1  0
 33 34  2  0
 26 35  1  0
 35 36  2  0
 36 37  1  0
 37 38  2  0
 38 39  1  0
 39 40  1  0
 38 41  1  0
 41 42  2  0
 25 43  1  0
 43 44  1  0
 44 45  1  0
 45 46  2  0
 46 47  1  0
 47 48  1  0
 48 49  2  0
 49 50  1  0
 50 51  2  0
 51 52  1  0
 52 53  1  0
 51 54  1  0
 54 55  2  0
 47 56  1  0
 56 57  2  0
 57 58  1  0
 58 59  2  0
 59 60  1  0
 60 61  1  0
 59 62  1  0
 62 63  2  0
 46 64  1  0
 64 65  1  0
 45 66  1  0
 66 67  2  0
 67 68  1  0
 68 69  2  0
 69 70  1  0
 70 71  2  0
 71 72  1  0
 72 73  2  0
 73 74  1  0
 74 75  1  0
 73 76  1  0
 76 77  2  0
 69 78  1  0
 78 79  2  0
 79 80  1  0
 80 81  1  0
 81 82  2  0
 82 83  1  0
 83 84  2  0
 84 85  1  0
 85 86  1  0
 84 87  1  0
 87 88  2  0
 80 89  2  0
 89 90  1  0
 79 91  1  0
 91 92  2  0
 92 93  1  0
 92 94  1  0
 94 95  2  0
 95 96  1  0
 95 97  1  0
 97 98  1  0
 97 99  2  0
 99100  1  0
100101  2  0
101102  1  0
102103  1  0
103104  1  0
102105  2  0
105106  1  0
106107  2  0
105108  1  0
108109  1  0
 99110  1  0
110111  2  3
111112  1  0
112113  2  0
112114  1  0
114115  2  0
115116  1  0
116117  2  0
117118  1  0
118119  2  0
119120  1  0
120121  2  3
121122  1  0
122123  3  0
121124  1  0
124125  3  0
117126  1  0
126127  1  0
127128  1  0
128129  2  0
129130  1  0
130131  1  0
130132  1  0
 11  2  1  0
 23 17  1  0
 65 24  1  0
 90 66  1  0
107 94  1  0
120111  1  0
132126  1  0
 10  5  1  0
 22 18  1  0
 34 27  1  0
 42 35  1  0
 64 43  2  0
 89 68  1  0
107100  1  0
119114  1  0
131127  1  0
 23  7  1  0
 55 48  1  0
 63 56  1  0
 77 70  1  0
 93 78  1  0
132116  1  0
 88 81  1  0
  1133  1  0
  6134  1  0
  9135  1  0
 17136  1  0
 18137  1  0
 19138  1  0
 20139  1  0
 21140  1  0
 22141  1  0
 22142  1  0
 23143  1  0
 28144  1  0
 29145  1  0
 32146  1  0
 32147  1  0
 32148  1  0
 33149  1  0
 34150  1  0
 36151  1  0
 37152  1  0
 40153  1  0
 40154  1  0
 40155  1  0
 41156  1  0
 42157  1  0
 49158  1  0
 50159  1  0
 53160  1  0
 53161  1  0
 53162  1  0
 54163  1  0
 55164  1  0
 57165  1  0
 58166  1  0
 61167  1  0
 61168  1  0
 61169  1  0
 62170  1  0
 63171  1  0
 67172  1  0
 71173  1  0
 72174  1  0
 74175  1  0
 74176  1  0
 75177  1  0
 75178  1  0
 75179  1  0
 76180  1  0
 77181  1  0
 82182  1  0
 83183  1  0
 85184  1  0
 85185  1  0
 86186  1  0
 86187  1  0
 86188  1  0
 87189  1  0
 88190  1  0
 91191  1  0
103192  1  0
103193  1  0
104194  1  0
104195  1  0
104196  1  0
108197  1  0
108198  1  0
109199  1  0
109200  1  0
109201  1  0
110202  1  0
115203  1  0
118204  1  0
126205  1  0
127206  1  0
128207  1  0
129208  1  0
130209  1  0
131210  1  0
131211  1  0
132212  1  0
M  END

