
     RDKit          3D

181200  0  0  0  0  0  0  0  0999 V2000
    3.1244   -4.1322    2.9231 C   0  0  0  0  0  0  0  0  0  0  0  0
    3.9737   -3.2689    2.3251 C   0  0  0  0  0  0  0  0  0  0  0  0
    4.4487   -3.5103    0.9579 C   0  0  0  0  0  0  0  0  0  0  0  0
    4.6843   -4.6428    0.4558 O   0  0  0  0  0  0  0  0  0  0  0  0
    4.4971   -2.2476    0.2455 C   0  0  0  0  0  0  0  0  0  0  0  0
    4.6832   -2.0460   -1.1425 C   0  0  0  0  0  0  0  0  0  0  0  0
    4.4967   -0.7318   -1.5480 C   0  0  0  0  0  0  0  0  0  0  0  0
    4.1543    0.3257   -0.6450 C   0  0  0  0  0  0  0  0  0  0  0  0
    3.9609    0.1328    0.7103 C   0  0  0  0  0  0  0  0  0  0  0  0
    4.1674   -1.2063    1.1464 C   0  0  0  0  0  0  0  0  0  0  0  0
    3.9821   -1.7883    2.4935 C   0  0  0  0  0  0  0  0  0  0  0  0
    4.2517   -1.1641    3.6659 C   0  0  0  0  0  0  0  0  0  0  0  0
    4.5009   -1.9218    4.8700 C   0  0  0  0  0  0  0  0  0  0  0  0
    4.7101   -2.5341    5.8292 N   0  0  0  0  0  0  0  0  0  0  0  0
    4.4824    0.2520    3.7495 C   0  0  0  0  0  0  0  0  0  0  0  0
    4.6604    1.3940    3.8248 N   0  0  0  0  0  0  0  0  0  0  0  0
    4.1384    1.3131   -1.7779 C   0  0  0  0  0  0  0  0  0  0  0  0
    5.3496    2.2872   -1.9139 C   0  0  0  0  0  0  0  0  0  0  0  0
    6.6085    1.6351   -1.3963 C   0  0  0  0  0  0  0  0  0  0  0  0
    6.9019    0.6506   -2.2461 C   0  0  0  0  0  0  0  0  0  0  0  0
    5.8341    0.6676   -3.3144 C   0  0  0  0  0  0  0  0  0  0  0  0
    5.6127    2.1641   -3.4076 C   0  0  0  0  0  0  0  0  0  0  0  0
    4.4699    0.2258   -2.7057 C   0  0  0  0  0  0  0  0  0  0  0  0
    1.7642   -3.7012    3.3152 C   0  0  0  0  0  0  0  0  0  0  0  0
    0.6575   -3.8817    2.4695 C   0  0  0  0  0  0  0  0  0  0  0  0
    0.6721   -4.7498    1.3222 N   0  0  0  0  0  0  0  0  0  0  0  0
    0.7536   -4.1963   -0.0159 C   0  0  0  0  0  0  0  0  0  0  0  0
    0.3891   -4.9691   -1.1379 C   0  0  0  0  0  0  0  0  0  0  0  0
    0.4785   -4.4389   -2.4269 C   0  0  0  0  0  0  0  0  0  0  0  0
    0.9149   -3.1218   -2.6169 C   0  0  0  0  0  0  0  0  0  0  0  0
    0.9770   -2.4313   -4.2696 S   0  0  0  0  0  0  0  0  0  0  0  0
   -0.7431   -1.8431   -4.2074 C   0  0  0  0  0  0  0  0  0  0  0  0
    1.2624   -2.3397   -1.5175 C   0  0  0  0  0  0  0  0  0  0  0  0
    1.1801   -2.8697   -0.2262 C   0  0  0  0  0  0  0  0  0  0  0  0
    0.7300   -6.1721    1.5776 C   0  0  0  0  0  0  0  0  0  0  0  0
   -0.0909   -6.7476    2.5674 C   0  0  0  0  0  0  0  0  0  0  0  0
    0.0426   -8.0948    2.9081 C   0  0  0  0  0  0  0  0  0  0  0  0
    0.9941   -8.8939    2.2644 C   0  0  0  0  0  0  0  0  0  0  0  0
    1.2501  -10.5875    2.7932 S   0  0  0  0  0  0  0  0  0  0  0  0
    0.1073  -11.3040    1.5788 C   0  0  0  0  0  0  0  0  0  0  0  0
    1.8162   -8.3385    1.2764 C   0  0  0  0  0  0  0  0  0  0  0  0
    1.6889   -6.9874    0.9333 C   0  0  0  0  0  0  0  0  0  0  0  0
   -0.3623   -2.9717    2.7491 C   0  0  0  0  0  0  0  0  0  0  0  0
   -1.5843   -2.3177    1.8111 S   0  0  0  0  0  0  0  0  0  0  0  0
   -1.7942   -0.8963    2.7362 C   0  0  0  0  0  0  0  0  0  0  0  0
   -0.8696   -0.9584    3.8015 C   0  0  0  0  0  0  0  0  0  0  0  0
   -0.8013   -0.0358    4.8988 N   0  0  0  0  0  0  0  0  0  0  0  0
   -1.0811   -0.5834    6.2065 C   0  0  0  0  0  0  0  0  0  0  0  0
   -0.1313   -0.5027    7.2422 C   0  0  0  0  0  0  0  0  0  0  0  0
   -0.3391   -1.1882    8.4457 C   0  0  0  0  0  0  0  0  0  0  0  0
   -1.4974   -1.9482    8.6320 C   0  0  0  0  0  0  0  0  0  0  0  0
   -1.7024   -2.9093   10.1373 S   0  0  0  0  0  0  0  0  0  0  0  0
   -1.0062   -4.4368    9.4107 C   0  0  0  0  0  0  0  0  0  0  0  0
   -2.4734   -1.9887    7.6288 C   0  0  0  0  0  0  0  0  0  0  0  0
   -2.2615   -1.3240    6.4186 C   0  0  0  0  0  0  0  0  0  0  0  0
   -0.1779    1.2591    4.7620 C   0  0  0  0  0  0  0  0  0  0  0  0
    0.8484    1.4720    3.8187 C   0  0  0  0  0  0  0  0  0  0  0  0
    1.4723    2.7203    3.7240 C   0  0  0  0  0  0  0  0  0  0  0  0
    1.1111    3.7516    4.5986 C   0  0  0  0  0  0  0  0  0  0  0  0
    1.9341    5.3440    4.5129 S   0  0  0  0  0  0  0  0  0  0  0  0
    3.1516    4.9092    5.7970 C   0  0  0  0  0  0  0  0  0  0  0  0
    0.0869    3.5511    5.5307 C   0  0  0  0  0  0  0  0  0  0  0  0
   -0.5526    2.3116    5.6159 C   0  0  0  0  0  0  0  0  0  0  0  0
   -0.1123   -2.1310    3.7783 C   0  0  0  0  0  0  0  0  0  0  0  0
    1.3993   -2.4519    4.4110 S   0  0  0  0  0  0  0  0  0  0  0  0
   -2.1448    0.3495    2.0318 C   0  0  0  0  0  0  0  0  0  0  0  0
   -3.4110    0.9641    2.1492 C   0  0  0  0  0  0  0  0  0  0  0  0
   -4.2914    0.6088    3.1804 O   0  0  0  0  0  0  0  0  0  0  0  0
   -4.1578    1.1275    4.5037 C   0  0  0  0  0  0  0  0  0  0  0  0
   -4.5409    2.6020    4.5575 C   0  0  0  0  0  0  0  0  0  0  0  0
   -3.8240    1.9465    1.2135 C   0  0  0  0  0  0  0  0  0  0  0  0
   -5.0544    2.5828    1.4000 O   0  0  0  0  0  0  0  0  0  0  0  0
   -6.2743    2.0761    0.8559 C   0  0  0  0  0  0  0  0  0  0  0  0
   -7.4396    2.5378    1.7077 C   0  0  0  0  0  0  0  0  0  0  0  0
   -2.9855    2.3090    0.1374 C   0  0  0  0  0  0  0  0  0  0  0  0
   -1.6931    1.7710    0.0792 C   0  0  0  0  0  0  0  0  0  0  0  0
   -1.2724    0.8012    1.0251 C   0  0  0  0  0  0  0  0  0  0  0  0
   -0.0163    0.3054    0.8556 N   0  0  0  0  0  0  0  0  0  0  0  0
    0.4757    1.1505   -0.4705 S   0  0  0  0  0  0  0  0  0  0  0  0
   -0.7971    2.1075   -0.8854 N   0  0  0  0  0  0  0  0  0  0  0  0
   -3.4562    3.1382   -0.9921 C   0  0  0  0  0  0  0  0  0  0  0  0
   -2.8944    4.4009   -1.2047 C   0  0  0  0  0  0  0  0  0  0  0  0
   -2.0558    5.0745   -0.4013 N   0  0  0  0  0  0  0  0  0  0  0  0
   -1.6221    6.0930   -1.1416 N   0  0  0  0  0  0  0  0  0  0  0  0
   -0.6910    7.0972   -0.6488 C   0  0  0  0  0  0  0  0  0  0  0  0
   -1.4506    8.1978    0.0864 C   0  0  0  0  0  0  0  0  0  0  0  0
   -2.1174    6.0907   -2.3748 N   0  0  0  0  0  0  0  0  0  0  0  0
   -2.9321    5.0224   -2.4155 C   0  0  0  0  0  0  0  0  0  0  0  0
   -3.5611    4.4538   -3.5192 C   0  0  0  0  0  0  0  0  0  0  0  0
   -4.2518    3.2292   -3.3238 C   0  0  0  0  0  0  0  0  0  0  0  0
   -4.1666    2.5545   -2.0748 C   0  0  0  0  0  0  0  0  0  0  0  0
   -4.7658    0.8914   -1.9474 Cl  0  0  0  0  0  0  0  0  0  0  0  0
   -5.0771    2.4646   -4.6870 Cl  0  0  0  0  0  0  0  0  0  0  0  0
   -3.2849    4.9633   -4.8755 C   0  0  0  0  0  0  0  0  0  0  0  0
   -2.3502    4.3940   -5.6645 C   0  0  0  0  0  0  0  0  0  0  0  0
   -1.5206    3.2451   -5.2864 C   0  0  0  0  0  0  0  0  0  0  0  0
   -1.2174    2.8963   -4.1156 O   0  0  0  0  0  0  0  0  0  0  0  0
   -1.1256    2.5441   -6.4890 C   0  0  0  0  0  0  0  0  0  0  0  0
   -0.5236    1.2702   -6.5606 C   0  0  0  0  0  0  0  0  0  0  0  0
   -0.4869    0.7403   -7.8350 C   0  0  0  0  0  0  0  0  0  0  0  0
   -0.9871    1.4320   -8.9848 C   0  0  0  0  0  0  0  0  0  0  0  0
   -1.5516    2.6993   -8.9247 C   0  0  0  0  0  0  0  0  0  0  0  0
   -1.6036    3.2573   -7.6149 C   0  0  0  0  0  0  0  0  0  0  0  0
   -2.2503    4.5176   -7.1504 C   0  0  0  0  0  0  0  0  0  0  0  0
   -2.4618    5.6352   -7.8811 C   0  0  0  0  0  0  0  0  0  0  0  0
   -2.1977    5.6992   -9.2946 C   0  0  0  0  0  0  0  0  0  0  0  0
   -1.9833    5.7611  -10.4298 N   0  0  0  0  0  0  0  0  0  0  0  0
   -2.8154    6.8881   -7.2603 C   0  0  0  0  0  0  0  0  0  0  0  0
   -3.0910    7.8964   -6.7637 N   0  0  0  0  0  0  0  0  0  0  0  0
   -0.6447    0.2636   -9.8581 C   0  0  0  0  0  0  0  0  0  0  0  0
    0.6125    0.3582  -10.7763 C   0  0  0  0  0  0  0  0  0  0  0  0
    1.6592    1.2396  -10.1280 C   0  0  0  0  0  0  0  0  0  0  0  0
    2.1048    0.5840   -9.0618 C   0  0  0  0  0  0  0  0  0  0  0  0
    1.3491   -0.7233   -9.0118 C   0  0  0  0  0  0  0  0  0  0  0  0
    1.2383   -0.9972  -10.4984 C   0  0  0  0  0  0  0  0  0  0  0  0
   -0.1510   -0.4539   -8.6776 C   0  0  0  0  0  0  0  0  0  0  0  0
    3.1909   -5.1684    2.6091 H   0  0  0  0  0  0  0  0  0  0  0  0
    4.9290   -2.8437   -1.8358 H   0  0  0  0  0  0  0  0  0  0  0  0
    3.6229    0.9345    1.3522 H   0  0  0  0  0  0  0  0  0  0  0  0
    3.1431    1.7711   -1.9796 H   0  0  0  0  0  0  0  0  0  0  0  0
    5.1732    3.3174   -1.5414 H   0  0  0  0  0  0  0  0  0  0  0  0
    7.2326    1.9623   -0.5749 H   0  0  0  0  0  0  0  0  0  0  0  0
    7.7929    0.0376   -2.2182 H   0  0  0  0  0  0  0  0  0  0  0  0
    6.1167    0.1649   -4.2676 H   0  0  0  0  0  0  0  0  0  0  0  0
    4.7341    2.4463   -4.0364 H   0  0  0  0  0  0  0  0  0  0  0  0
    6.5136    2.7302   -3.7439 H   0  0  0  0  0  0  0  0  0  0  0  0
    3.6670    0.0209   -3.4543 H   0  0  0  0  0  0  0  0  0  0  0  0
    0.0249   -5.9830   -1.0159 H   0  0  0  0  0  0  0  0  0  0  0  0
    0.2049   -5.0474   -3.2845 H   0  0  0  0  0  0  0  0  0  0  0  0
   -1.4249   -2.6707   -3.9248 H   0  0  0  0  0  0  0  0  0  0  0  0
   -1.0309   -1.4697   -5.2080 H   0  0  0  0  0  0  0  0  0  0  0  0
   -0.8369   -1.0173   -3.4638 H   0  0  0  0  0  0  0  0  0  0  0  0
    1.6156   -1.3254   -1.6586 H   0  0  0  0  0  0  0  0  0  0  0  0
    1.4747   -2.2393    0.6038 H   0  0  0  0  0  0  0  0  0  0  0  0
   -0.8215   -6.1436    3.0895 H   0  0  0  0  0  0  0  0  0  0  0  0
   -0.5809   -8.5131    3.6884 H   0  0  0  0  0  0  0  0  0  0  0  0
   -0.9069  -10.8539    1.6943 H   0  0  0  0  0  0  0  0  0  0  0  0
    0.4773  -11.1190    0.5507 H   0  0  0  0  0  0  0  0  0  0  0  0
    0.0359  -12.3997    1.7426 H   0  0  0  0  0  0  0  0  0  0  0  0
    2.5808   -8.9358    0.7982 H   0  0  0  0  0  0  0  0  0  0  0  0
    2.3669   -6.5574    0.2113 H   0  0  0  0  0  0  0  0  0  0  0  0
    0.7951    0.0373    7.0888 H   0  0  0  0  0  0  0  0  0  0  0  0
    0.4241   -1.1484    9.2147 H   0  0  0  0  0  0  0  0  0  0  0  0
   -0.7265   -5.1285   10.2286 H   0  0  0  0  0  0  0  0  0  0  0  0
   -1.7715   -4.9211    8.7635 H   0  0  0  0  0  0  0  0  0  0  0  0
   -0.0996   -4.2120    8.8163 H   0  0  0  0  0  0  0  0  0  0  0  0
   -3.3748   -2.5828    7.7618 H   0  0  0  0  0  0  0  0  0  0  0  0
   -2.9997   -1.4187    5.6288 H   0  0  0  0  0  0  0  0  0  0  0  0
    1.1791    0.6715    3.1763 H   0  0  0  0  0  0  0  0  0  0  0  0
    2.2647    2.8692    2.9968 H   0  0  0  0  0  0  0  0  0  0  0  0
    3.8416    5.7615    5.9392 H   0  0  0  0  0  0  0  0  0  0  0  0
    3.7465    4.0217    5.4846 H   0  0  0  0  0  0  0  0  0  0  0  0
    2.6399    4.6925    6.7590 H   0  0  0  0  0  0  0  0  0  0  0  0
   -0.2004    4.3559    6.1981 H   0  0  0  0  0  0  0  0  0  0  0  0
   -1.3394    2.1736    6.3462 H   0  0  0  0  0  0  0  0  0  0  0  0
   -4.8274    0.5551    5.1799 H   0  0  0  0  0  0  0  0  0  0  0  0
   -3.1157    1.0123    4.8581 H   0  0  0  0  0  0  0  0  0  0  0  0
   -3.8568    3.2003    3.9124 H   0  0  0  0  0  0  0  0  0  0  0  0
   -5.5921    2.7457    4.2288 H   0  0  0  0  0  0  0  0  0  0  0  0
   -4.4415    2.9726    5.5966 H   0  0  0  0  0  0  0  0  0  0  0  0
   -6.2515    0.9648    0.8390 H   0  0  0  0  0  0  0  0  0  0  0  0
   -6.3982    2.4607   -0.1754 H   0  0  0  0  0  0  0  0  0  0  0  0
   -7.4066    3.6406    1.8484 H   0  0  0  0  0  0  0  0  0  0  0  0
   -8.3981    2.2633    1.2174 H   0  0  0  0  0  0  0  0  0  0  0  0
   -7.4028    2.0464    2.7039 H   0  0  0  0  0  0  0  0  0  0  0  0
   -0.1238    7.5418   -1.4928 H   0  0  0  0  0  0  0  0  0  0  0  0
    0.0384    6.6209    0.0440 H   0  0  0  0  0  0  0  0  0  0  0  0
   -2.1327    7.7525    0.8445 H   0  0  0  0  0  0  0  0  0  0  0  0
   -0.7291    8.8598    0.6185 H   0  0  0  0  0  0  0  0  0  0  0  0
   -2.0297    8.8115   -0.6382 H   0  0  0  0  0  0  0  0  0  0  0  0
   -3.9965    5.6693   -5.2905 H   0  0  0  0  0  0  0  0  0  0  0  0
   -0.1773    0.7265   -5.6921 H   0  0  0  0  0  0  0  0  0  0  0  0
   -1.9774    3.1590   -9.7996 H   0  0  0  0  0  0  0  0  0  0  0  0
   -1.5272   -0.2236  -10.3281 H   0  0  0  0  0  0  0  0  0  0  0  0
    0.4025    0.5831  -11.8410 H   0  0  0  0  0  0  0  0  0  0  0  0
    2.0398    2.1837  -10.4968 H   0  0  0  0  0  0  0  0  0  0  0  0
    2.9133    0.9021   -8.4126 H   0  0  0  0  0  0  0  0  0  0  0  0
    1.8287   -1.5194   -8.4101 H   0  0  0  0  0  0  0  0  0  0  0  0
    0.5665   -1.8507  -10.7473 H   0  0  0  0  0  0  0  0  0  0  0  0
    2.2237   -1.1374  -10.9970 H   0  0  0  0  0  0  0  0  0  0  0  0
   -0.7428   -1.3619   -8.4243 H   0  0  0  0  0  0  0  0  0  0  0  0
  1  2  2  3
  2  3  1  0
  3  4  2  0
  3  5  1  0
  5  6  2  0
  6  7  1  0
  7  8  2  0
  8  9  1  0
  9 10  2  0
 10 11  1  0
 11 12  2  3
 12 13  1  0
 13 14  3  0
 12 15  1  0
 15 16  3  0
  8 17  1  0
 17 18  1  0
 18 19  1  0
 19 20  2  0
 20 21  1  0
 21 22  1  0
 21 23  1  0
  1 24  1  0
 24 25  2  0
 25 26  1  0
 26 27  1  0
 27 28  2  0
 28 29  1  0
 29 30  2  0
 30 31  1  0
 31 32  1  0
 30 33  1  0
 33 34  2  0
 26 35  1  0
 35 36  2  0
 36 37  1  0
 37 38  2  0
 38 39  1  0
 39 40  1  0
 38 41  1  0
 41 42  2  0
 25 43  1  0
 43 44  1  0
 44 45  1  0
 45 46  2  0
 46 47  1  0
 47 48  1  0
 48 49  2  0
 49 50  1  0
 50 51  2  0
 51 52  1  0
 52 53  1  0
 51 54  1  0
 54 55  2  0
 47 56  1  0
 56 57  2  0
 57 58  1  0
 58 59  2  0
 59 60  1  0
 60 61  1  0
 59 62  1  0
 62 63  2  0
 46 64  1  0
 64 65  1  0
 45 66  1  0
 66 67  2  0
 67 68  1  0
 68 69  1  0
 69 70  1  0
 67 71  1  0
 71 72  1  0
 72 73  1  0
 73 74  1  0
 71 75  2  0
 75 76  1  0
 76 77  1  0
 77 78  2  0
 78 79  1  0
 79 80  1  0
 75 81  1  0
 81 82  1  0
 82 83  2  0
 83 84  1  0
 84 85  1  0
 85 86  1  0
 84 87  1  0
 87 88  2  0
 88 89  1  0
 89 90  2  0
 90 91  1  0
 91 92  1  0
 90 93  1  0
 89 94  1  0
 94 95  2  3
 95 96  1  0
 96 97  2  0
 96 98  1  0
 98 99  2  0
 99100  1  0
100101  2  0
101102  1  0
102103  2  0
103104  1  0
104105  2  3
105106  1  0
106107  3  0
105108  1  0
108109  3  0
101110  1  0
110111  1  0
111112  1  0
112113  2  0
113114  1  0
114115  1  0
114116  1  0
 11  2  1  0
 23 17  1  0
 65 24  1  0
 77 66  1  0
 91 81  2  0
104 95  1  0
116110  1  0
 10  5  1  0
 22 18  1  0
 34 27  1  0
 42 35  1  0
 64 43  2  0
 80 76  2  0
 88 82  1  0
103 98  1  0
115111  1  0
 23  7  1  0
 55 48  1  0
 63 56  1  0
116100  1  0
  1117  1  0
  6118  1  0
  9119  1  0
 17120  1  0
 18121  1  0
 19122  1  0
 20123  1  0
 21124  1  0
 22125  1  0
 22126  1  0
 23127  1  0
 28128  1  0
 29129  1  0
 32130  1  0
 32131  1  0
 32132  1  0
 33133  1  0
 34134  1  0
 36135  1  0
 37136  1  0
 40137  1  0
 40138  1  0
 40139  1  0
 41140  1  0
 42141  1  0
 49142  1  0
 50143  1  0
 53144  1  0
 53145  1  0
 53146  1  0
 54147  1  0
 55148  1  0
 57149  1  0
 58150  1  0
 61151  1  0
 61152  1  0
 61153  1  0
 62154  1  0
 63155  1  0
 69156  1  0
 69157  1  0
 70158  1  0
 70159  1  0
 70160  1  0
 73161  1  0
 73162  1  0
 74163  1  0
 74164  1  0
 74165  1  0
 85166  1  0
 85167  1  0
 86168  1  0
 86169  1  0
 86170  1  0
 94171  1  0
 99172  1  0
102173  1  0
110174  1  0
111175  1  0
112176  1  0
113177  1  0
114178  1  0
115179  1  0
115180  1  0
116181  1  0
M  END

