
     RDKit          3D

234260  0  0  0  0  0  0  0  0999 V2000
   -0.0455    0.0993  -12.2507 C   0  0  0  0  0  0  0  0  0  0  0  0
   -1.1006   -0.6291  -12.6648 C   0  0  0  0  0  0  0  0  0  0  0  0
   -2.3811   -0.7364  -11.9504 C   0  0  0  0  0  0  0  0  0  0  0  0
   -2.8112    0.0555  -11.0660 O   0  0  0  0  0  0  0  0  0  0  0  0
   -3.0960   -1.8930  -12.4438 C   0  0  0  0  0  0  0  0  0  0  0  0
   -4.2857   -2.4492  -11.9192 C   0  0  0  0  0  0  0  0  0  0  0  0
   -4.6198   -3.6762  -12.4612 C   0  0  0  0  0  0  0  0  0  0  0  0
   -3.8247   -4.3290  -13.4568 C   0  0  0  0  0  0  0  0  0  0  0  0
   -2.6754   -3.7769  -13.9940 C   0  0  0  0  0  0  0  0  0  0  0  0
   -2.3362   -2.4971  -13.4735 C   0  0  0  0  0  0  0  0  0  0  0  0
   -1.1337   -1.6602  -13.7457 C   0  0  0  0  0  0  0  0  0  0  0  0
   -0.3464   -1.7158  -14.8569 C   0  0  0  0  0  0  0  0  0  0  0  0
    0.7012   -0.7596  -15.1163 C   0  0  0  0  0  0  0  0  0  0  0  0
    1.5402    0.0056  -15.3399 N   0  0  0  0  0  0  0  0  0  0  0  0
   -0.5839   -2.6534  -15.9245 C   0  0  0  0  0  0  0  0  0  0  0  0
   -0.7569   -3.3942  -16.7971 N   0  0  0  0  0  0  0  0  0  0  0  0
   -4.7163   -5.5338  -13.4038 C   0  0  0  0  0  0  0  0  0  0  0  0
   -4.1854   -6.7915  -12.6489 C   0  0  0  0  0  0  0  0  0  0  0  0
   -3.2768   -6.3744  -11.5156 C   0  0  0  0  0  0  0  0  0  0  0  0
   -4.0455   -5.7705  -10.6094 C   0  0  0  0  0  0  0  0  0  0  0  0
   -5.4525   -5.7909  -11.1573 C   0  0  0  0  0  0  0  0  0  0  0  0
   -5.4236   -7.1411  -11.8410 C   0  0  0  0  0  0  0  0  0  0  0  0
   -5.5492   -4.8557  -12.4036 C   0  0  0  0  0  0  0  0  0  0  0  0
   -0.0152    0.7555  -10.9391 C   0  0  0  0  0  0  0  0  0  0  0  0
   -0.0527    0.0805   -9.7254 C   0  0  0  0  0  0  0  0  0  0  0  0
   -0.0865    0.9450   -8.6241 C   0  0  0  0  0  0  0  0  0  0  0  0
   -0.2038    0.5596   -7.2756 C   0  0  0  0  0  0  0  0  0  0  0  0
    0.0460   -0.8377   -6.8526 C   0  0  0  0  0  0  0  0  0  0  0  0
   -0.6744   -1.5687   -5.9093 C   0  0  0  0  0  0  0  0  0  0  0  0
   -0.0805   -2.8000   -5.5922 C   0  0  0  0  0  0  0  0  0  0  0  0
    1.1008   -3.0273   -6.2841 C   0  0  0  0  0  0  0  0  0  0  0  0
    2.1804   -4.4403   -6.0733 S   0  0  0  0  0  0  0  0  0  0  0  0
    3.2321   -3.6002   -4.8383 C   0  0  0  0  0  0  0  0  0  0  0  0
    4.2858   -4.5607   -4.3080 C   0  0  0  0  0  0  0  0  0  0  0  0
    1.4166   -1.7226   -7.2826 S   0  0  0  0  0  0  0  0  0  0  0  0
   -0.4177    1.5887   -6.3466 C   0  0  0  0  0  0  0  0  0  0  0  0
   -0.4029    2.9477   -6.6910 C   0  0  0  0  0  0  0  0  0  0  0  0
   -0.1955    3.3369   -8.0329 C   0  0  0  0  0  0  0  0  0  0  0  0
   -0.0943    4.7549   -8.4366 C   0  0  0  0  0  0  0  0  0  0  0  0
   -1.0141    5.7565   -8.1329 C   0  0  0  0  0  0  0  0  0  0  0  0
   -0.6366    7.0154   -8.6117 C   0  0  0  0  0  0  0  0  0  0  0  0
    0.5792    7.0019   -9.2794 C   0  0  0  0  0  0  0  0  0  0  0  0
    1.3894    8.4140  -10.0227 S   0  0  0  0  0  0  0  0  0  0  0  0
    2.4633    8.7741   -8.5857 C   0  0  0  0  0  0  0  0  0  0  0  0
    1.6900    9.4981   -7.4898 C   0  0  0  0  0  0  0  0  0  0  0  0
    1.1797    5.4320   -9.3025 S   0  0  0  0  0  0  0  0  0  0  0  0
   -0.0651    2.3020   -8.9801 C   0  0  0  0  0  0  0  0  0  0  0  0
    0.0076    2.4208  -10.6619 S   0  0  0  0  0  0  0  0  0  0  0  0
   -0.5652    3.7971   -5.5766 C   0  0  0  0  0  0  0  0  0  0  0  0
   -0.7850    3.0936   -4.3969 C   0  0  0  0  0  0  0  0  0  0  0  0
   -0.6878    1.4431   -4.7025 S   0  0  0  0  0  0  0  0  0  0  0  0
   -0.9763    3.6368   -3.0500 C   0  0  0  0  0  0  0  0  0  0  0  0
   -1.6750    2.9593   -2.0588 C   0  0  0  0  0  0  0  0  0  0  0  0
   -1.3113    3.3416   -0.7629 C   0  0  0  0  0  0  0  0  0  0  0  0
   -1.6981    2.6671    0.4042 C   0  0  0  0  0  0  0  0  0  0  0  0
   -2.7948    1.6866    0.4105 C   0  0  0  0  0  0  0  0  0  0  0  0
   -4.1448    2.0334    0.2629 C   0  0  0  0  0  0  0  0  0  0  0  0
   -4.9604    0.9477    0.5610 C   0  0  0  0  0  0  0  0  0  0  0  0
   -6.5938    0.8015    0.8981 S   0  0  0  0  0  0  0  0  0  0  0  0
   -6.4505   -0.7966    1.4740 C   0  0  0  0  0  0  0  0  0  0  0  0
   -7.7637   -1.6819    2.4136 Si  0  0  0  0  0  4  0  0  0  0  0  0
   -9.4015   -0.8153    2.0607 C   0  0  0  0  0  0  0  0  0  0  0  0
  -10.6172   -1.6855    2.3546 C   0  0  0  0  0  0  0  0  0  0  0  0
   -7.2443   -1.5225    4.2196 C   0  0  0  0  0  0  0  0  0  0  0  0
   -8.3877   -1.7334    5.2072 C   0  0  0  0  0  0  0  0  0  0  0  0
   -7.7551   -3.4720    1.8198 C   0  0  0  0  0  0  0  0  0  0  0  0
   -8.3300   -4.4441    2.8446 C   0  0  0  0  0  0  0  0  0  0  0  0
   -5.1117   -1.2052    1.4278 C   0  0  0  0  0  0  0  0  0  0  0  0
   -4.3121   -0.1944    0.9041 C   0  0  0  0  0  0  0  0  0  0  0  0
   -2.6542    0.0550    0.8797 S   0  0  0  0  0  0  0  0  0  0  0  0
   -0.9393    2.9187    1.5551 C   0  0  0  0  0  0  0  0  0  0  0  0
    0.0963    3.8539    1.5837 C   0  0  0  0  0  0  0  0  0  0  0  0
    0.3246    4.7077    0.4780 C   0  0  0  0  0  0  0  0  0  0  0  0
    0.9777    6.0306    0.6777 C   0  0  0  0  0  0  0  0  0  0  0  0
    0.7480    6.9222    2.1228 S   0  0  0  0  0  0  0  0  0  0  0  0
    1.2652    8.3713    1.4853 C   0  0  0  0  0  0  0  0  0  0  0  0
    1.1521    9.6880    1.9116 C   0  0  0  0  0  0  0  0  0  0  0  0
    1.4332   10.5738    0.8620 C   0  0  0  0  0  0  0  0  0  0  0  0
    1.1180   12.3959    0.9254 Si  0  0  0  0  0  4  0  0  0  0  0  0
   -0.6510   12.7454    1.4811 C   0  0  0  0  0  0  0  0  0  0  0  0
   -1.6436   11.6968    0.9895 C   0  0  0  0  0  0  0  0  0  0  0  0
    1.4507   13.1900   -0.7490 C   0  0  0  0  0  0  0  0  0  0  0  0
    0.3486   12.9110   -1.7620 C   0  0  0  0  0  0  0  0  0  0  0  0
    2.2894   13.2099    2.1530 C   0  0  0  0  0  0  0  0  0  0  0  0
    2.3682   12.4521    3.4751 C   0  0  0  0  0  0  0  0  0  0  0  0
    1.7998    9.6953   -0.5518 S   0  0  0  0  0  0  0  0  0  0  0  0
    1.6055    8.1992    0.1832 C   0  0  0  0  0  0  0  0  0  0  0  0
    1.4677    6.9076   -0.3155 C   0  0  0  0  0  0  0  0  0  0  0  0
   -0.3377    4.3488   -0.7202 C   0  0  0  0  0  0  0  0  0  0  0  0
    0.0500    4.7523   -2.3155 S   0  0  0  0  0  0  0  0  0  0  0  0
    0.9521    3.6939    2.6898 C   0  0  0  0  0  0  0  0  0  0  0  0
    0.5858    2.6370    3.5285 C   0  0  0  0  0  0  0  0  0  0  0  0
   -0.8437    1.9697    2.9332 S   0  0  0  0  0  0  0  0  0  0  0  0
    1.5820    1.7156    4.0634 C   0  0  0  0  0  0  0  0  0  0  0  0
    1.7741    1.3740    5.4014 C   0  0  0  0  0  0  0  0  0  0  0  0
    2.4757    0.1553    5.5560 C   0  0  0  0  0  0  0  0  0  0  0  0
    2.8369   -0.4778    6.7738 C   0  0  0  0  0  0  0  0  0  0  0  0
    2.6256    0.1697    8.0863 C   0  0  0  0  0  0  0  0  0  0  0  0
    1.4385    0.7360    8.5522 C   0  0  0  0  0  0  0  0  0  0  0  0
    1.5885    1.4190    9.7610 C   0  0  0  0  0  0  0  0  0  0  0  0
    2.8915    1.3966   10.2429 C   0  0  0  0  0  0  0  0  0  0  0  0
    3.4687    2.2510   11.7125 S   0  0  0  0  0  0  0  0  0  0  0  0
    3.8928    3.8036   10.8330 C   0  0  0  0  0  0  0  0  0  0  0  0
    5.3688    3.8162   10.4501 C   0  0  0  0  0  0  0  0  0  0  0  0
    3.8562    0.5230    9.1848 S   0  0  0  0  0  0  0  0  0  0  0  0
    3.4973   -1.7203    6.6674 C   0  0  0  0  0  0  0  0  0  0  0  0
    3.8256   -2.3011    5.4365 C   0  0  0  0  0  0  0  0  0  0  0  0
    3.4635   -1.6750    4.2291 C   0  0  0  0  0  0  0  0  0  0  0  0
    3.6420   -2.3286    2.9185 C   0  0  0  0  0  0  0  0  0  0  0  0
    4.8451   -2.7463    2.3656 C   0  0  0  0  0  0  0  0  0  0  0  0
    4.7100   -3.3061    1.0896 C   0  0  0  0  0  0  0  0  0  0  0  0
    3.3953   -3.3233    0.6450 C   0  0  0  0  0  0  0  0  0  0  0  0
    2.8514   -3.8568   -0.9815 S   0  0  0  0  0  0  0  0  0  0  0  0
    2.4825   -5.5740   -0.4810 C   0  0  0  0  0  0  0  0  0  0  0  0
    1.0280   -5.6979   -0.0352 C   0  0  0  0  0  0  0  0  0  0  0  0
    2.4055   -2.6424    1.8184 S   0  0  0  0  0  0  0  0  0  0  0  0
    2.8065   -0.4387    4.3328 C   0  0  0  0  0  0  0  0  0  0  0  0
    2.2663    0.5309    3.0850 S   0  0  0  0  0  0  0  0  0  0  0  0
    4.4852   -3.5319    5.5575 C   0  0  0  0  0  0  0  0  0  0  0  0
    4.5966   -3.9545    6.8748 C   0  0  0  0  0  0  0  0  0  0  0  0
    3.9637   -2.7652    7.9025 S   0  0  0  0  0  0  0  0  0  0  0  0
    5.3730   -5.1209    7.3166 C   0  0  0  0  0  0  0  0  0  0  0  0
    4.8497   -6.1395    8.0163 C   0  0  0  0  0  0  0  0  0  0  0  0
    5.6517   -6.9494    8.9296 C   0  0  0  0  0  0  0  0  0  0  0  0
    6.9174   -6.9800    8.9832 O   0  0  0  0  0  0  0  0  0  0  0  0
    4.7544   -7.6125    9.8556 C   0  0  0  0  0  0  0  0  0  0  0  0
    5.1118   -8.4414   10.9448 C   0  0  0  0  0  0  0  0  0  0  0  0
    4.0316   -8.9222   11.6609 C   0  0  0  0  0  0  0  0  0  0  0  0
    2.6749   -8.5997   11.3381 C   0  0  0  0  0  0  0  0  0  0  0  0
    2.3166   -7.7738   10.2827 C   0  0  0  0  0  0  0  0  0  0  0  0
    3.4129   -7.2957    9.5131 C   0  0  0  0  0  0  0  0  0  0  0  0
    3.4130   -6.4540    8.2809 C   0  0  0  0  0  0  0  0  0  0  0  0
    2.4170   -6.4119    7.3626 C   0  0  0  0  0  0  0  0  0  0  0  0
    2.6850   -6.1774    5.9621 C   0  0  0  0  0  0  0  0  0  0  0  0
    2.8968   -6.0218    4.8351 N   0  0  0  0  0  0  0  0  0  0  0  0
    1.0579   -6.7732    7.6697 C   0  0  0  0  0  0  0  0  0  0  0  0
   -0.0408   -7.0585    7.8989 N   0  0  0  0  0  0  0  0  0  0  0  0
    2.1828   -9.4615   12.4659 C   0  0  0  0  0  0  0  0  0  0  0  0
    1.5578  -10.8477   12.1052 C   0  0  0  0  0  0  0  0  0  0  0  0
    2.1843  -11.3890   10.8377 C   0  0  0  0  0  0  0  0  0  0  0  0
    3.4471  -11.6831   11.1377 C   0  0  0  0  0  0  0  0  0  0  0  0
    3.6410  -11.3409   12.5973 C   0  0  0  0  0  0  0  0  0  0  0  0
    2.2668  -11.7285   13.1123 C   0  0  0  0  0  0  0  0  0  0  0  0
    3.5719   -9.7939   12.7968 C   0  0  0  0  0  0  0  0  0  0  0  0
    0.8919    0.0832  -12.7824 H   0  0  0  0  0  0  0  0  0  0  0  0
   -4.8458   -2.0002  -11.1103 H   0  0  0  0  0  0  0  0  0  0  0  0
   -2.0665   -4.3430  -14.6767 H   0  0  0  0  0  0  0  0  0  0  0  0
   -5.2501   -5.7448  -14.3565 H   0  0  0  0  0  0  0  0  0  0  0  0
   -3.7885   -7.5984  -13.2951 H   0  0  0  0  0  0  0  0  0  0  0  0
   -2.2173   -6.5780  -11.4067 H   0  0  0  0  0  0  0  0  0  0  0  0
   -3.7194   -5.3966   -9.6439 H   0  0  0  0  0  0  0  0  0  0  0  0
   -6.2525   -5.6556  -10.3983 H   0  0  0  0  0  0  0  0  0  0  0  0
   -6.3213   -7.3451  -12.4679 H   0  0  0  0  0  0  0  0  0  0  0  0
   -5.2607   -7.9908  -11.1352 H   0  0  0  0  0  0  0  0  0  0  0  0
   -6.5792   -4.6379  -12.7516 H   0  0  0  0  0  0  0  0  0  0  0  0
   -0.1085   -0.9983   -9.6617 H   0  0  0  0  0  0  0  0  0  0  0  0
   -1.5943   -1.2265   -5.4519 H   0  0  0  0  0  0  0  0  0  0  0  0
   -0.4870   -3.4900   -4.8677 H   0  0  0  0  0  0  0  0  0  0  0  0
    2.6047   -3.2394   -3.9937 H   0  0  0  0  0  0  0  0  0  0  0  0
    3.7352   -2.7274   -5.3100 H   0  0  0  0  0  0  0  0  0  0  0  0
    3.7990   -5.4262   -3.8176 H   0  0  0  0  0  0  0  0  0  0  0  0
    4.9187   -4.0367   -3.5635 H   0  0  0  0  0  0  0  0  0  0  0  0
    4.9277   -4.9137   -5.1400 H   0  0  0  0  0  0  0  0  0  0  0  0
   -1.9307    5.5845   -7.5810 H   0  0  0  0  0  0  0  0  0  0  0  0
   -1.2266    7.9067   -8.4642 H   0  0  0  0  0  0  0  0  0  0  0  0
    3.2898    9.4332   -8.9342 H   0  0  0  0  0  0  0  0  0  0  0  0
    2.9163    7.8403   -8.1833 H   0  0  0  0  0  0  0  0  0  0  0  0
    0.9182    8.8315   -7.0535 H   0  0  0  0  0  0  0  0  0  0  0  0
    1.2050   10.4083   -7.9056 H   0  0  0  0  0  0  0  0  0  0  0  0
    2.3895    9.8107   -6.6836 H   0  0  0  0  0  0  0  0  0  0  0  0
   -0.5370    4.8763   -5.6152 H   0  0  0  0  0  0  0  0  0  0  0  0
   -2.3168    2.1151   -2.2695 H   0  0  0  0  0  0  0  0  0  0  0  0
   -4.5108    3.0343    0.0745 H   0  0  0  0  0  0  0  0  0  0  0  0
   -9.4470    0.1103    2.6702 H   0  0  0  0  0  0  0  0  0  0  0  0
   -9.4152   -0.5268    0.9919 H   0  0  0  0  0  0  0  0  0  0  0  0
  -10.6302   -2.0050    3.4140 H   0  0  0  0  0  0  0  0  0  0  0  0
  -11.5344   -1.1011    2.1535 H   0  0  0  0  0  0  0  0  0  0  0  0
  -10.6210   -2.5785    1.6966 H   0  0  0  0  0  0  0  0  0  0  0  0
   -6.4328   -2.2517    4.4232 H   0  0  0  0  0  0  0  0  0  0  0  0
   -6.8301   -0.5031    4.3703 H   0  0  0  0  0  0  0  0  0  0  0  0
   -9.1586   -0.9440    5.0718 H   0  0  0  0  0  0  0  0  0  0  0  0
   -7.9922   -1.6702    6.2411 H   0  0  0  0  0  0  0  0  0  0  0  0
   -8.8531   -2.7340    5.0707 H   0  0  0  0  0  0  0  0  0  0  0  0
   -8.3265   -3.5382    0.8717 H   0  0  0  0  0  0  0  0  0  0  0  0
   -6.7045   -3.7640    1.6071 H   0  0  0  0  0  0  0  0  0  0  0  0
   -9.3931   -4.2102    3.0584 H   0  0  0  0  0  0  0  0  0  0  0  0
   -7.7440   -4.4091    3.7875 H   0  0  0  0  0  0  0  0  0  0  0  0
   -8.2717   -5.4749    2.4407 H   0  0  0  0  0  0  0  0  0  0  0  0
   -4.7281   -2.1253    1.8507 H   0  0  0  0  0  0  0  0  0  0  0  0
    0.7758    9.9770    2.8854 H   0  0  0  0  0  0  0  0  0  0  0  0
   -0.9476   13.7454    1.1066 H   0  0  0  0  0  0  0  0  0  0  0  0
   -0.6810   12.7689    2.5918 H   0  0  0  0  0  0  0  0  0  0  0  0
   -2.6702   11.9983    1.2864 H   0  0  0  0  0  0  0  0  0  0  0  0
   -1.6113   11.6004   -0.1163 H   0  0  0  0  0  0  0  0  0  0  0  0
   -1.4266   10.7050    1.4466 H   0  0  0  0  0  0  0  0  0  0  0  0
    1.5417   14.2842   -0.6054 H   0  0  0  0  0  0  0  0  0  0  0  0
    2.4175   12.8085   -1.1385 H   0  0  0  0  0  0  0  0  0  0  0  0
    0.6258   13.3514   -2.7432 H   0  0  0  0  0  0  0  0  0  0  0  0
   -0.6049   13.3780   -1.4340 H   0  0  0  0  0  0  0  0  0  0  0  0
    0.1978   11.8180   -1.8983 H   0  0  0  0  0  0  0  0  0  0  0  0
    1.9286   14.2453    2.3369 H   0  0  0  0  0  0  0  0  0  0  0  0
    3.3035   13.2575    1.6955 H   0  0  0  0  0  0  0  0  0  0  0  0
    2.9056   11.4890    3.3281 H   0  0  0  0  0  0  0  0  0  0  0  0
    1.3551   12.2627    3.8883 H   0  0  0  0  0  0  0  0  0  0  0  0
    2.9418   13.0569    4.2120 H   0  0  0  0  0  0  0  0  0  0  0  0
    1.6270    6.6650   -1.3503 H   0  0  0  0  0  0  0  0  0  0  0  0
    1.9077    4.1922    2.7718 H   0  0  0  0  0  0  0  0  0  0  0  0
    1.3637    1.9591    6.2126 H   0  0  0  0  0  0  0  0  0  0  0  0
    0.4932    0.6634    8.0223 H   0  0  0  0  0  0  0  0  0  0  0  0
    0.7775    1.9392   10.2547 H   0  0  0  0  0  0  0  0  0  0  0  0
    3.2684    3.9286    9.9211 H   0  0  0  0  0  0  0  0  0  0  0  0
    3.6845    4.6638   11.5055 H   0  0  0  0  0  0  0  0  0  0  0  0
    5.6468    2.8912    9.9004 H   0  0  0  0  0  0  0  0  0  0  0  0
    5.5721    4.6866    9.7946 H   0  0  0  0  0  0  0  0  0  0  0  0
    5.9954    3.8946   11.3628 H   0  0  0  0  0  0  0  0  0  0  0  0
    5.8049   -2.6269    2.8547 H   0  0  0  0  0  0  0  0  0  0  0  0
    5.5475   -3.6640    0.4990 H   0  0  0  0  0  0  0  0  0  0  0  0
    2.6442   -6.2345   -1.3602 H   0  0  0  0  0  0  0  0  0  0  0  0
    3.1677   -5.9111    0.3330 H   0  0  0  0  0  0  0  0  0  0  0  0
    0.3480   -5.3740   -0.8582 H   0  0  0  0  0  0  0  0  0  0  0  0
    0.8051   -6.7584    0.2135 H   0  0  0  0  0  0  0  0  0  0  0  0
    0.8365   -5.0713    0.8632 H   0  0  0  0  0  0  0  0  0  0  0  0
    4.8464   -4.1148    4.7257 H   0  0  0  0  0  0  0  0  0  0  0  0
    6.4451   -5.0553    7.1968 H   0  0  0  0  0  0  0  0  0  0  0  0
    6.1353   -8.6796   11.2057 H   0  0  0  0  0  0  0  0  0  0  0  0
    1.2851   -7.5415   10.0920 H   0  0  0  0  0  0  0  0  0  0  0  0
    1.6435   -8.9047   13.2663 H   0  0  0  0  0  0  0  0  0  0  0  0
    0.4475  -10.8840   12.1294 H   0  0  0  0  0  0  0  0  0  0  0  0
    1.6908  -11.5766    9.8932 H   0  0  0  0  0  0  0  0  0  0  0  0
    4.1586  -12.1667   10.4781 H   0  0  0  0  0  0  0  0  0  0  0  0
    4.4989  -11.8463   13.0894 H   0  0  0  0  0  0  0  0  0  0  0  0
    2.0443  -12.8165   12.9952 H   0  0  0  0  0  0  0  0  0  0  0  0
    2.0937  -11.4293   14.1685 H   0  0  0  0  0  0  0  0  0  0  0  0
    3.8853   -9.4366   13.8022 H   0  0  0  0  0  0  0  0  0  0  0  0
  1  2  2  3
  2  3  1  0
  3  4  2  0
  3  5  1  0
  5  6  2  0
  6  7  1  0
  7  8  2  0
  8  9  1  0
  9 10  2  0
 10 11  1  0
 11 12  2  3
 12 13  1  0
 13 14  3  0
 12 15  1  0
 15 16  3  0
  8 17  1  0
 17 18  1  0
 18 19  1  0
 19 20  2  0
 20 21  1  0
 21 22  1  0
 21 23  1  0
  1 24  1  0
 24 25  2  0
 25 26  1  0
 26 27  2  0
 27 28  1  0
 28 29  2  0
 29 30  1  0
 30 31  2  0
 31 32  1  0
 32 33  1  0
 33 34  1  0
 31 35  1  0
 27 36  1  0
 36 37  2  0
 37 38  1  0
 38 39  1  0
 39 40  2  0
 40 41  1  0
 41 42  2  0
 42 43  1  0
 43 44  1  0
 44 45  1  0
 42 46  1  0
 38 47  2  0
 47 48  1  0
 37 49  1  0
 49 50  2  0
 50 51  1  0
 50 52  1  0
 52 53  2  0
 53 54  1  0
 54 55  2  0
 55 56  1  0
 56 57  2  0
 57 58  1  0
 58 59  1  0
 59 60  1  0
 60 61  1  0
 61 62  1  0
 62 63  1  0
 61 64  1  0
 64 65  1  0
 61 66  1  0
 66 67  1  0
 60 68  2  0
 68 69  1  0
 69 70  1  0
 55 71  1  0
 71 72  2  0
 72 73  1  0
 73 74  1  0
 74 75  1  0
 75 76  1  0
 76 77  1  0
 77 78  2  0
 78 79  1  0
 79 80  1  0
 80 81  1  0
 79 82  1  0
 82 83  1  0
 79 84  1  0
 84 85  1  0
 78 86  1  0
 86 87  1  0
 87 88  1  0
 73 89  2  0
 89 90  1  0
 72 91  1  0
 91 92  2  0
 92 93  1  0
 92 94  1  0
 94 95  2  0
 95 96  1  0
 96 97  2  0
 97 98  1  0
 98 99  2  0
 99100  1  0
100101  2  0
101102  1  0
102103  1  0
103104  1  0
101105  1  0
 97106  1  0
106107  2  0
107108  1  0
108109  1  0
109110  2  0
110111  1  0
111112  2  0
112113  1  0
113114  1  0
114115  1  0
112116  1  0
108117  2  0
117118  1  0
107119  1  0
119120  2  0
120121  1  0
120122  1  0
122123  2  3
123124  1  0
124125  2  0
124126  1  0
126127  2  0
127128  1  0
128129  2  0
129130  1  0
130131  2  0
131132  1  0
132133  2  3
133134  1  0
134135  3  0
133136  1  0
136137  3  0
129138  1  0
138139  1  0
139140  1  0
140141  2  0
141142  1  0
142143  1  0
142144  1  0
 11  2  1  0
 23 17  1  0
 48 24  1  0
 90 52  1  0
118 94  1  0
132123  1  0
144138  1  0
 10  5  1  0
 22 18  1  0
 47 26  1  0
 89 54  1  0
117 96  1  0
131126  1  0
143139  1  0
 23  7  1  0
 35 28  1  0
 51 36  1  0
 70 56  1  0
 93 71  1  0
105 98  1  0
121106  1  0
144128  1  0
 46 39  1  0
 69 58  2  0
 88 74  2  0
116109  1  0
 87 76  2  0
  1145  1  0
  6146  1  0
  9147  1  0
 17148  1  0
 18149  1  0
 19150  1  0
 20151  1  0
 21152  1  0
 22153  1  0
 22154  1  0
 23155  1  0
 25156  1  0
 29157  1  0
 30158  1  0
 33159  1  0
 33160  1  0
 34161  1  0
 34162  1  0
 34163  1  0
 40164  1  0
 41165  1  0
 44166  1  0
 44167  1  0
 45168  1  0
 45169  1  0
 45170  1  0
 49171  1  0
 53172  1  0
 57173  1  0
 62174  1  0
 62175  1  0
 63176  1  0
 63177  1  0
 63178  1  0
 64179  1  0
 64180  1  0
 65181  1  0
 65182  1  0
 65183  1  0
 66184  1  0
 66185  1  0
 67186  1  0
 67187  1  0
 67188  1  0
 68189  1  0
 77190  1  0
 80191  1  0
 80192  1  0
 81193  1  0
 81194  1  0
 81195  1  0
 82196  1  0
 82197  1  0
 83198  1  0
 83199  1  0
 83200  1  0
 84201  1  0
 84202  1  0
 85203  1  0
 85204  1  0
 85205  1  0
 88206  1  0
 91207  1  0
 95208  1  0
 99209  1  0
100210  1  0
103211  1  0
103212  1  0
104213  1  0
104214  1  0
104215  1  0
110216  1  0
111217  1  0
114218  1  0
114219  1  0
115220  1  0
115221  1  0
115222  1  0
119223  1  0
122224  1  0
127225  1  0
130226  1  0
138227  1  0
139228  1  0
140229  1  0
141230  1  0
142231  1  0
143232  1  0
143233  1  0
144234  1  0
M  END

