
     RDKit          3D

203224  0  0  0  0  0  0  0  0999 V2000
    0.0007   -3.5041   -8.9083 C   0  0  0  0  0  0  0  0  0  0  0  0
    0.9985   -2.6351   -8.5118 C   0  0  0  0  0  0  0  0  0  0  0  0
    1.0409   -1.8628   -7.2994 C   0  0  0  0  0  0  0  0  0  0  0  0
   -0.0010   -1.3363   -6.7606 O   0  0  0  0  0  0  0  0  0  0  0  0
    2.3523   -1.7329   -6.7707 C   0  0  0  0  0  0  0  0  0  0  0  0
    2.7504   -1.1558   -5.5833 C   0  0  0  0  0  0  0  0  0  0  0  0
    4.0578   -1.2188   -5.1722 C   0  0  0  0  0  0  0  0  0  0  0  0
    4.9721   -1.8661   -5.9633 C   0  0  0  0  0  0  0  0  0  0  0  0
    4.5450   -2.4337   -7.1596 C   0  0  0  0  0  0  0  0  0  0  0  0
    3.2362   -2.3763   -7.5631 C   0  0  0  0  0  0  0  0  0  0  0  0
    2.4526   -3.0075   -8.7475 C   0  0  0  0  0  0  0  0  0  0  0  0
    3.0126   -3.5996   -9.6209 C   0  0  0  0  0  0  0  0  0  0  0  0
    2.7388   -4.2973  -10.9868 C   0  0  0  0  0  0  0  0  0  0  0  0
    2.6007   -4.6545  -11.6838 N   0  0  0  0  0  0  0  0  0  0  0  0
    4.3570   -4.3140   -9.2353 C   0  0  0  0  0  0  0  0  0  0  0  0
    5.3515   -4.8522   -8.9299 N   0  0  0  0  0  0  0  0  0  0  0  0
    6.0747   -1.6670   -5.0101 C   0  0  0  0  0  0  0  0  0  0  0  0
    6.4056   -2.8964   -4.1654 C   0  0  0  0  0  0  0  0  0  0  0  0
    7.0644   -2.4145   -2.9253 C   0  0  0  0  0  0  0  0  0  0  0  0
    6.1393   -1.8400   -2.1640 C   0  0  0  0  0  0  0  0  0  0  0  0
    4.8886   -1.7860   -2.9316 C   0  0  0  0  0  0  0  0  0  0  0  0
    4.9820   -3.1648   -3.6109 C   0  0  0  0  0  0  0  0  0  0  0  0
    5.1082   -0.8990   -4.1366 C   0  0  0  0  0  0  0  0  0  0  0  0
   -1.0321   -3.5710   -7.7535 C   0  0  0  0  0  0  0  0  0  0  0  0
   -0.7263   -4.6494   -6.8397 C   0  0  0  0  0  0  0  0  0  0  0  0
   -1.2107   -4.5370   -5.6046 C   0  0  0  0  0  0  0  0  0  0  0  0
   -0.6809   -5.2656   -4.4829 C   0  0  0  0  0  0  0  0  0  0  0  0
   -0.0096   -6.5205   -4.6577 C   0  0  0  0  0  0  0  0  0  0  0  0
    0.6747   -7.4014   -3.9204 C   0  0  0  0  0  0  0  0  0  0  0  0
    1.1235   -8.5754   -4.3862 C   0  0  0  0  0  0  0  0  0  0  0  0
    0.9330   -8.9918   -5.6409 C   0  0  0  0  0  0  0  0  0  0  0  0
    1.3200  -10.4251   -6.6081 S   0  0  0  0  0  0  0  0  0  0  0  0
    0.7297  -10.0677   -8.3250 C   0  0  0  0  0  0  0  0  0  0  0  0
    1.6090   -8.9335   -8.8364 C   0  0  0  0  0  0  0  0  0  0  0  0
   -0.0771   -7.4596   -6.3491 Se  0  0  0  0  0  2  0  0  0  0  0  0
   -0.9044   -4.8285   -3.2142 C   0  0  0  0  0  0  0  0  0  0  0  0
   -1.6274   -3.7254   -2.9171 C   0  0  0  0  0  0  0  0  0  0  0  0
   -2.2006   -2.9999   -4.0361 C   0  0  0  0  0  0  0  0  0  0  0  0
   -2.8488   -1.7298   -3.7523 C   0  0  0  0  0  0  0  0  0  0  0  0
   -2.4897   -0.7693   -2.8693 C   0  0  0  0  0  0  0  0  0  0  0  0
   -3.2854    0.2290   -2.5344 C   0  0  0  0  0  0  0  0  0  0  0  0
   -4.5055    0.3917   -3.0241 C   0  0  0  0  0  0  0  0  0  0  0  0
   -5.8322    1.5496   -2.8106 S   0  0  0  0  0  0  0  0  0  0  0  0
   -6.5593    1.1730   -1.1719 C   0  0  0  0  0  0  0  0  0  0  0  0
   -7.0948   -0.2189   -1.2032 C   0  0  0  0  0  0  0  0  0  0  0  0
   -4.5918   -1.1844   -4.2178 Se  0  0  0  0  0  2  0  0  0  0  0  0
   -1.9572   -3.4404   -5.3021 C   0  0  0  0  0  0  0  0  0  0  0  0
   -1.9639   -2.5776   -6.8509 S   0  0  0  0  0  0  0  0  0  0  0  0
   -1.5659   -3.2527   -1.6750 C   0  0  0  0  0  0  0  0  0  0  0  0
   -0.7144   -3.9513   -0.7608 C   0  0  0  0  0  0  0  0  0  0  0  0
   -0.1260   -5.1842   -1.6705 S   0  0  0  0  0  0  0  0  0  0  0  0
   -0.2954   -3.2214    0.4892 C   0  0  0  0  0  0  0  0  0  0  0  0
   -0.4964   -3.2173    1.7974 C   0  0  0  0  0  0  0  0  0  0  0  0
   -0.8653   -4.4524    2.4380 N   0  0  0  0  0  0  0  0  0  0  0  0
   -2.1598   -4.8393    2.8602 C   0  0  0  0  0  0  0  0  0  0  0  0
   -2.5751   -6.1266    2.5182 C   0  0  0  0  0  0  0  0  0  0  0  0
   -3.7762   -6.6466    2.9867 C   0  0  0  0  0  0  0  0  0  0  0  0
   -4.5956   -5.9119    3.8014 C   0  0  0  0  0  0  0  0  0  0  0  0
   -6.1154   -6.5952    4.5088 S   0  0  0  0  0  0  0  0  0  0  0  0
   -5.6551   -7.4173    6.0889 C   0  0  0  0  0  0  0  0  0  0  0  0
   -4.1911   -4.6324    4.1356 C   0  0  0  0  0  0  0  0  0  0  0  0
   -3.0017   -4.1245    3.6695 C   0  0  0  0  0  0  0  0  0  0  0  0
    0.1337   -5.4689    2.7314 C   0  0  0  0  0  0  0  0  0  0  0  0
    0.1595   -6.1192    3.9381 C   0  0  0  0  0  0  0  0  0  0  0  0
    1.0560   -7.1440    4.2076 C   0  0  0  0  0  0  0  0  0  0  0  0
    1.9309   -7.5025    3.2139 C   0  0  0  0  0  0  0  0  0  0  0  0
    3.0677   -8.8810    3.4777 S   0  0  0  0  0  0  0  0  0  0  0  0
    3.9053   -9.2317    1.9226 C   0  0  0  0  0  0  0  0  0  0  0  0
    1.9343   -6.8641    1.9986 C   0  0  0  0  0  0  0  0  0  0  0  0
    1.0210   -5.8291    1.7597 C   0  0  0  0  0  0  0  0  0  0  0  0
   -0.1718   -2.0498    2.4794 C   0  0  0  0  0  0  0  0  0  0  0  0
   -0.5234   -1.2708    4.0035 S   0  0  0  0  0  0  0  0  0  0  0  0
    0.0259    0.3190    3.6442 C   0  0  0  0  0  0  0  0  0  0  0  0
    0.4835    0.2284    2.3923 C   0  0  0  0  0  0  0  0  0  0  0  0
    1.1446    1.2567    1.6161 N   0  0  0  0  0  0  0  0  0  0  0  0
    0.3367    1.8981    0.6304 C   0  0  0  0  0  0  0  0  0  0  0  0
    0.9191    2.0823   -0.6064 C   0  0  0  0  0  0  0  0  0  0  0  0
    0.2645    2.6955   -1.6312 C   0  0  0  0  0  0  0  0  0  0  0  0
   -1.0234    3.1521   -1.4434 C   0  0  0  0  0  0  0  0  0  0  0  0
   -1.9239    3.9803   -2.7589 S   0  0  0  0  0  0  0  0  0  0  0  0
   -3.5163    4.5852   -2.1592 C   0  0  0  0  0  0  0  0  0  0  0  0
   -1.6060    2.9673   -0.2030 C   0  0  0  0  0  0  0  0  0  0  0  0
   -0.9308    2.3377    0.8422 C   0  0  0  0  0  0  0  0  0  0  0  0
    2.4723    1.6055    1.6996 C   0  0  0  0  0  0  0  0  0  0  0  0
    3.4350    0.6333    1.8460 C   0  0  0  0  0  0  0  0  0  0  0  0
    4.7924    0.9479    1.7449 C   0  0  0  0  0  0  0  0  0  0  0  0
    5.2187    2.2567    1.4968 C   0  0  0  0  0  0  0  0  0  0  0  0
    6.9608    2.6814    1.3483 S   0  0  0  0  0  0  0  0  0  0  0  0
    7.6494    3.3570    2.8758 C   0  0  0  0  0  0  0  0  0  0  0  0
    4.2593    3.2390    1.3537 C   0  0  0  0  0  0  0  0  0  0  0  0
    2.9357    2.8758    1.4608 C   0  0  0  0  0  0  0  0  0  0  0  0
    0.3357   -1.0399    1.8460 C   0  0  0  0  0  0  0  0  0  0  0  0
    0.3973   -1.5786    0.2433 S   0  0  0  0  0  0  0  0  0  0  0  0
   -0.2402    1.5460    4.4424 C   0  0  0  0  0  0  0  0  0  0  0  0
   -1.5341    1.7957    4.9791 C   0  0  0  0  0  0  0  0  0  0  0  0
   -2.4639    0.7028    5.0152 O   0  0  0  0  0  0  0  0  0  0  0  0
   -3.3762    0.3782    4.0604 C   0  0  0  0  0  0  0  0  0  0  0  0
   -4.1554   -0.8643    4.5882 C   0  0  0  0  0  0  0  0  0  0  0  0
   -1.8036    3.0004    5.4107 C   0  0  0  0  0  0  0  0  0  0  0  0
   -3.0748    3.3546    5.9550 O   0  0  0  0  0  0  0  0  0  0  0  0
   -4.1476    3.8293    5.2484 C   0  0  0  0  0  0  0  0  0  0  0  0
   -3.9415    5.1320    4.4943 C   0  0  0  0  0  0  0  0  0  0  0  0
   -0.7792    3.9953    5.3250 C   0  0  0  0  0  0  0  0  0  0  0  0
    0.4326    3.0596    4.6328 S   0  0  0  0  0  0  0  0  0  0  0  0
   -1.0232    5.3048    5.7685 C   0  0  0  0  0  0  0  0  0  0  0  0
   -0.7470    6.5595    5.5634 C   0  0  0  0  0  0  0  0  0  0  0  0
   -1.3583    7.6266    6.4303 C   0  0  0  0  0  0  0  0  0  0  0  0
   -2.2476    7.4742    7.2915 O   0  0  0  0  0  0  0  0  0  0  0  0
   -0.7285    8.8896    6.0922 C   0  0  0  0  0  0  0  0  0  0  0  0
   -1.0176   10.1621    6.6043 C   0  0  0  0  0  0  0  0  0  0  0  0
   -0.3729   11.2540    6.1543 C   0  0  0  0  0  0  0  0  0  0  0  0
    0.5850   11.1048    5.1886 C   0  0  0  0  0  0  0  0  0  0  0  0
    0.8783    9.8405    4.6656 C   0  0  0  0  0  0  0  0  0  0  0  0
    0.2132    8.7281    5.1191 C   0  0  0  0  0  0  0  0  0  0  0  0
    0.2242    7.2724    4.7622 C   0  0  0  0  0  0  0  0  0  0  0  0
    0.7734    6.8300    3.6312 C   0  0  0  0  0  0  0  0  0  0  0  0
    1.7589    7.5951    2.9305 C   0  0  0  0  0  0  0  0  0  0  0  0
    2.5817    8.2420    2.3197 N   0  0  0  0  0  0  0  0  0  0  0  0
    0.2642    5.7932    2.8929 C   0  0  0  0  0  0  0  0  0  0  0  0
   -0.2130    4.8082    2.2136 N   0  0  0  0  0  0  0  0  0  0  0  0
    0.9553   12.5585    5.2226 C   0  0  0  0  0  0  0  0  0  0  0  0
    0.5948   13.3670    3.9971 C   0  0  0  0  0  0  0  0  0  0  0  0
    0.3503   14.7729    4.4566 C   0  0  0  0  0  0  0  0  0  0  0  0
   -0.8354   14.8321    5.0973 C   0  0  0  0  0  0  0  0  0  0  0  0
   -1.2532   13.4315    5.2537 C   0  0  0  0  0  0  0  0  0  0  0  0
   -0.8605   12.8844    3.8630 C   0  0  0  0  0  0  0  0  0  0  0  0
   -0.2616   12.7482    6.1319 C   0  0  0  0  0  0  0  0  0  0  0  0
   -0.0874   -3.9767   -9.7484 H   0  0  0  0  0  0  0  0  0  0  0  0
    2.0444   -0.6518   -4.9476 H   0  0  0  0  0  0  0  0  0  0  0  0
    5.3009   -2.8481   -7.7868 H   0  0  0  0  0  0  0  0  0  0  0  0
    6.9466   -1.1649   -5.3846 H   0  0  0  0  0  0  0  0  0  0  0  0
    6.8346   -3.7429   -4.6454 H   0  0  0  0  0  0  0  0  0  0  0  0
    8.0920   -2.4939   -2.6600 H   0  0  0  0  0  0  0  0  0  0  0  0
    6.2731   -1.4963   -1.1599 H   0  0  0  0  0  0  0  0  0  0  0  0
    3.9744   -1.6564   -2.4008 H   0  0  0  0  0  0  0  0  0  0  0  0
    4.2312   -3.2620   -4.3921 H   0  0  0  0  0  0  0  0  0  0  0  0
    4.9981   -3.9445   -2.8378 H   0  0  0  0  0  0  0  0  0  0  0  0
    5.2960    0.1571   -3.9805 H   0  0  0  0  0  0  0  0  0  0  0  0
   -0.1258   -5.4484   -7.2703 H   0  0  0  0  0  0  0  0  0  0  0  0
    0.8755   -7.1147   -2.8308 H   0  0  0  0  0  0  0  0  0  0  0  0
    1.7029   -9.2886   -3.7081 H   0  0  0  0  0  0  0  0  0  0  0  0
    0.7942  -10.9620   -8.9491 H   0  0  0  0  0  0  0  0  0  0  0  0
   -0.3034   -9.6545   -8.2978 H   0  0  0  0  0  0  0  0  0  0  0  0
    1.1039   -8.2953   -9.5662 H   0  0  0  0  0  0  0  0  0  0  0  0
    1.9029   -8.3478   -7.9184 H   0  0  0  0  0  0  0  0  0  0  0  0
    2.5514   -9.3968   -9.2142 H   0  0  0  0  0  0  0  0  0  0  0  0
   -1.4167   -0.8420   -2.4628 H   0  0  0  0  0  0  0  0  0  0  0  0
   -2.9408    1.0135   -1.7733 H   0  0  0  0  0  0  0  0  0  0  0  0
   -5.7892    1.3444   -0.3734 H   0  0  0  0  0  0  0  0  0  0  0  0
   -7.3741    1.9094   -1.0099 H   0  0  0  0  0  0  0  0  0  0  0  0
   -6.3132   -0.8962   -0.7317 H   0  0  0  0  0  0  0  0  0  0  0  0
   -8.0380   -0.3246   -0.6016 H   0  0  0  0  0  0  0  0  0  0  0  0
   -7.2582   -0.5874   -2.2226 H   0  0  0  0  0  0  0  0  0  0  0  0
   -2.1334   -2.4221   -1.2163 H   0  0  0  0  0  0  0  0  0  0  0  0
   -1.9435   -6.7252    1.8885 H   0  0  0  0  0  0  0  0  0  0  0  0
   -4.0877   -7.6450    2.7252 H   0  0  0  0  0  0  0  0  0  0  0  0
   -4.7567   -6.9706    6.5147 H   0  0  0  0  0  0  0  0  0  0  0  0
   -5.4549   -8.4903    5.9661 H   0  0  0  0  0  0  0  0  0  0  0  0
   -6.4750   -7.3460    6.8524 H   0  0  0  0  0  0  0  0  0  0  0  0
   -4.8219   -4.0452    4.7718 H   0  0  0  0  0  0  0  0  0  0  0  0
   -2.6885   -3.1353    3.9553 H   0  0  0  0  0  0  0  0  0  0  0  0
   -0.5276   -5.8247    4.6818 H   0  0  0  0  0  0  0  0  0  0  0  0
    1.0543   -7.6363    5.1836 H   0  0  0  0  0  0  0  0  0  0  0  0
    3.1721   -9.6329    1.1734 H   0  0  0  0  0  0  0  0  0  0  0  0
    4.3433   -8.3668    1.4268 H   0  0  0  0  0  0  0  0  0  0  0  0
    4.6646  -10.0503    2.0478 H   0  0  0  0  0  0  0  0  0  0  0  0
    2.6346   -7.1437    1.2119 H   0  0  0  0  0  0  0  0  0  0  0  0
    1.0877   -5.3353    0.8135 H   0  0  0  0  0  0  0  0  0  0  0  0
    1.9309    1.7450   -0.8269 H   0  0  0  0  0  0  0  0  0  0  0  0
    0.6868    2.8534   -2.6082 H   0  0  0  0  0  0  0  0  0  0  0  0
   -3.4255    5.5570   -1.6579 H   0  0  0  0  0  0  0  0  0  0  0  0
   -4.2356    4.6202   -3.0353 H   0  0  0  0  0  0  0  0  0  0  0  0
   -3.9752    3.8673   -1.4219 H   0  0  0  0  0  0  0  0  0  0  0  0
   -2.6210    3.3343   -0.0522 H   0  0  0  0  0  0  0  0  0  0  0  0
   -1.4184    2.2054    1.8070 H   0  0  0  0  0  0  0  0  0  0  0  0
    3.1462   -0.3778    2.0483 H   0  0  0  0  0  0  0  0  0  0  0  0
    5.5831    0.2212    1.8542 H   0  0  0  0  0  0  0  0  0  0  0  0
    7.1501    4.3142    3.1474 H   0  0  0  0  0  0  0  0  0  0  0  0
    8.7263    3.5895    2.7097 H   0  0  0  0  0  0  0  0  0  0  0  0
    7.4756    2.6417    3.6959 H   0  0  0  0  0  0  0  0  0  0  0  0
    4.5629    4.2547    1.1704 H   0  0  0  0  0  0  0  0  0  0  0  0
    2.1795    3.6785    1.3374 H   0  0  0  0  0  0  0  0  0  0  0  0
   -4.1475    1.1277    3.8782 H   0  0  0  0  0  0  0  0  0  0  0  0
   -2.9106    0.1030    3.0648 H   0  0  0  0  0  0  0  0  0  0  0  0
   -5.0705   -0.5363    5.1005 H   0  0  0  0  0  0  0  0  0  0  0  0
   -3.5505   -1.4203    5.3334 H   0  0  0  0  0  0  0  0  0  0  0  0
   -4.4246   -1.5403    3.7427 H   0  0  0  0  0  0  0  0  0  0  0  0
   -4.6692    3.1618    4.5617 H   0  0  0  0  0  0  0  0  0  0  0  0
   -4.9668    4.1070    6.0143 H   0  0  0  0  0  0  0  0  0  0  0  0
   -3.7659    5.9861    5.1308 H   0  0  0  0  0  0  0  0  0  0  0  0
   -4.8530    5.2653    3.8571 H   0  0  0  0  0  0  0  0  0  0  0  0
   -3.0961    4.9339    3.7916 H   0  0  0  0  0  0  0  0  0  0  0  0
   -1.7147    5.2132    6.7567 H   0  0  0  0  0  0  0  0  0  0  0  0
   -1.7651   10.2485    7.3700 H   0  0  0  0  0  0  0  0  0  0  0  0
    1.6376    9.7932    3.9406 H   0  0  0  0  0  0  0  0  0  0  0  0
    1.9138   12.7644    5.7151 H   0  0  0  0  0  0  0  0  0  0  0  0
    1.1619   13.2479    3.1227 H   0  0  0  0  0  0  0  0  0  0  0  0
    0.9893   15.6200    4.3379 H   0  0  0  0  0  0  0  0  0  0  0  0
   -1.4016   15.6629    5.4407 H   0  0  0  0  0  0  0  0  0  0  0  0
   -2.3109   13.3028    5.4926 H   0  0  0  0  0  0  0  0  0  0  0  0
   -1.3798   13.3998    3.0379 H   0  0  0  0  0  0  0  0  0  0  0  0
   -0.9111   11.8004    3.8041 H   0  0  0  0  0  0  0  0  0  0  0  0
   -0.0868   13.1080    7.1369 H   0  0  0  0  0  0  0  0  0  0  0  0
  1  2  2  3
  2  3  1  0
  3  4  2  0
  3  5  1  0
  5  6  2  0
  6  7  1  0
  7  8  2  0
  8  9  1  0
  9 10  2  0
 10 11  1  0
 11 12  2  3
 12 13  1  0
 13 14  3  0
 12 15  1  0
 15 16  3  0
  8 17  1  0
 17 18  1  0
 18 19  1  0
 19 20  2  0
 20 21  1  0
 21 22  1  0
 21 23  1  0
  1 24  1  0
 24 25  2  0
 25 26  1  0
 26 27  2  0
 27 28  1  0
 28 29  2  0
 29 30  1  0
 30 31  2  0
 31 32  1  0
 32 33  1  0
 33 34  1  0
 31 35  1  0
 27 36  1  0
 36 37  2  0
 37 38  1  0
 38 39  1  0
 39 40  2  0
 40 41  1  0
 41 42  2  0
 42 43  1  0
 43 44  1  0
 44 45  1  0
 42 46  1  0
 38 47  2  0
 47 48  1  0
 37 49  1  0
 49 50  2  0
 50 51  1  0
 50 52  1  0
 52 53  2  0
 53 54  1  0
 54 55  1  0
 55 56  2  0
 56 57  1  0
 57 58  2  0
 58 59  1  0
 59 60  1  0
 58 61  1  0
 61 62  2  0
 54 63  1  0
 63 64  2  0
 64 65  1  0
 65 66  2  0
 66 67  1  0
 67 68  1  0
 66 69  1  0
 69 70  2  0
 53 71  1  0
 71 72  1  0
 72 73  1  0
 73 74  2  0
 74 75  1  0
 75 76  1  0
 76 77  2  0
 77 78  1  0
 78 79  2  0
 79 80  1  0
 80 81  1  0
 79 82  1  0
 82 83  2  0
 75 84  1  0
 84 85  2  0
 85 86  1  0
 86 87  2  0
 87 88  1  0
 88 89  1  0
 87 90  1  0
 90 91  2  0
 74 92  1  0
 92 93  1  0
 73 94  1  0
 94 95  2  0
 95 96  1  0
 96 97  1  0
 97 98  1  0
 95 99  1  0
 99100  1  0
100101  1  0
101102  1  0
 99103  2  0
103104  1  0
103105  1  0
105106  2  3
106107  1  0
107108  2  0
107109  1  0
109110  2  0
110111  1  0
111112  2  0
112113  1  0
113114  2  0
114115  1  0
115116  2  3
116117  1  0
117118  3  0
116119  1  0
119120  3  0
112121  1  0
121122  1  0
122123  1  0
123124  2  0
124125  1  0
125126  1  0
125127  1  0
 11  2  1  0
 23 17  1  0
 48 24  1  0
 93 52  1  0
104 94  1  0
115106  1  0
127121  1  0
 10  5  1  0
 22 18  1  0
 47 26  1  0
 62 55  1  0
 70 63  1  0
 92 71  2  0
114109  1  0
126122  1  0
 23  7  1  0
 35 28  1  0
 51 36  1  0
 83 76  1  0
 91 84  1  0
127111  1  0
 46 39  1  0
  1128  1  0
  6129  1  0
  9130  1  0
 17131  1  0
 18132  1  0
 19133  1  0
 20134  1  0
 21135  1  0
 22136  1  0
 22137  1  0
 23138  1  0
 25139  1  0
 29140  1  0
 30141  1  0
 33142  1  0
 33143  1  0
 34144  1  0
 34145  1  0
 34146  1  0
 40147  1  0
 41148  1  0
 44149  1  0
 44150  1  0
 45151  1  0
 45152  1  0
 45153  1  0
 49154  1  0
 56155  1  0
 57156  1  0
 60157  1  0
 60158  1  0
 60159  1  0
 61160  1  0
 62161  1  0
 64162  1  0
 65163  1  0
 68164  1  0
 68165  1  0
 68166  1  0
 69167  1  0
 70168  1  0
 77169  1  0
 78170  1  0
 81171  1  0
 81172  1  0
 81173  1  0
 82174  1  0
 83175  1  0
 85176  1  0
 86177  1  0
 89178  1  0
 89179  1  0
 89180  1  0
 90181  1  0
 91182  1  0
 97183  1  0
 97184  1  0
 98185  1  0
 98186  1  0
 98187  1  0
101188  1  0
101189  1  0
102190  1  0
102191  1  0
102192  1  0
105193  1  0
110194  1  0
113195  1  0
121196  1  0
122197  1  0
123198  1  0
124199  1  0
125200  1  0
126201  1  0
126202  1  0
127203  1  0
M  END

