
     RDKit          3D

206229  0  0  0  0  0  0  0  0999 V2000
    3.4857    6.2064   -0.0413 C   0  0  0  0  0  0  0  0  0  0  0  0
    2.6498    7.2500    0.0699 C   0  0  0  0  0  0  0  0  0  0  0  0
    1.1939    7.1983   -0.1071 C   0  0  0  0  0  0  0  0  0  0  0  0
    0.5336    6.2238   -0.5613 O   0  0  0  0  0  0  0  0  0  0  0  0
    0.6404    8.4891    0.2224 C   0  0  0  0  0  0  0  0  0  0  0  0
   -0.7194    8.7558    0.5298 C   0  0  0  0  0  0  0  0  0  0  0  0
   -0.9109    9.9654    1.1744 C   0  0  0  0  0  0  0  0  0  0  0  0
    0.1584   10.8702    1.4770 C   0  0  0  0  0  0  0  0  0  0  0  0
    1.4792   10.6316    1.1490 C   0  0  0  0  0  0  0  0  0  0  0  0
    1.7056    9.3896    0.4894 C   0  0  0  0  0  0  0  0  0  0  0  0
    3.0017    8.6795    0.3241 C   0  0  0  0  0  0  0  0  0  0  0  0
    4.2329    9.2071    0.5395 C   0  0  0  0  0  0  0  0  0  0  0  0
    4.4769   10.6199    0.4575 C   0  0  0  0  0  0  0  0  0  0  0  0
    4.6905   11.7583    0.4094 N   0  0  0  0  0  0  0  0  0  0  0  0
    5.2949    8.4304    1.1245 C   0  0  0  0  0  0  0  0  0  0  0  0
    6.1094    7.8313    1.6829 N   0  0  0  0  0  0  0  0  0  0  0  0
   -0.7943   11.7803    2.1968 C   0  0  0  0  0  0  0  0  0  0  0  0
   -1.2225   13.1134    1.5050 C   0  0  0  0  0  0  0  0  0  0  0  0
   -1.2048   12.9423    0.0042 C   0  0  0  0  0  0  0  0  0  0  0  0
   -2.1945   12.0955   -0.2967 C   0  0  0  0  0  0  0  0  0  0  0  0
   -2.8573   11.7254    1.0144 C   0  0  0  0  0  0  0  0  0  0  0  0
   -2.7215   13.0534    1.7378 C   0  0  0  0  0  0  0  0  0  0  0  0
   -1.8892   10.8599    1.8757 C   0  0  0  0  0  0  0  0  0  0  0  0
    3.0505    4.8078    0.1073 C   0  0  0  0  0  0  0  0  0  0  0  0
    2.2243    4.3013    1.1328 C   0  0  0  0  0  0  0  0  0  0  0  0
    1.7091    5.0487    2.2486 N   0  0  0  0  0  0  0  0  0  0  0  0
    2.5211    5.0895    3.4384 C   0  0  0  0  0  0  0  0  0  0  0  0
    3.7935    5.6786    3.4099 C   0  0  0  0  0  0  0  0  0  0  0  0
    4.6018    5.6769    4.5514 C   0  0  0  0  0  0  0  0  0  0  0  0
    4.1511    5.0696    5.7297 C   0  0  0  0  0  0  0  0  0  0  0  0
    5.1905    5.0686    7.1910 S   0  0  0  0  0  0  0  0  0  0  0  0
    6.0285    3.5101    6.7599 C   0  0  0  0  0  0  0  0  0  0  0  0
    2.8817    4.4737    5.7645 C   0  0  0  0  0  0  0  0  0  0  0  0
    2.0709    4.4856    4.6268 C   0  0  0  0  0  0  0  0  0  0  0  0
    0.2947    5.3532    2.3483 C   0  0  0  0  0  0  0  0  0  0  0  0
   -0.6749    4.6040    1.6478 C   0  0  0  0  0  0  0  0  0  0  0  0
   -2.0354    4.8649    1.8187 C   0  0  0  0  0  0  0  0  0  0  0  0
   -2.4557    5.8802    2.6816 C   0  0  0  0  0  0  0  0  0  0  0  0
   -4.2056    6.1638    2.9480 S   0  0  0  0  0  0  0  0  0  0  0  0
   -4.3316    4.8965    4.2489 C   0  0  0  0  0  0  0  0  0  0  0  0
   -1.5035    6.6692    3.3407 C   0  0  0  0  0  0  0  0  0  0  0  0
   -0.1380    6.4138    3.1698 C   0  0  0  0  0  0  0  0  0  0  0  0
    2.1516    2.9176    1.0682 C   0  0  0  0  0  0  0  0  0  0  0  0
    1.4163    1.7550    2.0230 S   0  0  0  0  0  0  0  0  0  0  0  0
    2.0268    0.4472    1.1187 C   0  0  0  0  0  0  0  0  0  0  0  0
    2.8198    0.9394    0.0666 C   0  0  0  0  0  0  0  0  0  0  0  0
    3.5808    0.1391   -0.8435 N   0  0  0  0  0  0  0  0  0  0  0  0
    3.0373   -0.0210   -2.1655 C   0  0  0  0  0  0  0  0  0  0  0  0
    3.6008    0.6706   -3.2457 C   0  0  0  0  0  0  0  0  0  0  0  0
    3.0880    0.5017   -4.5391 C   0  0  0  0  0  0  0  0  0  0  0  0
    1.9914   -0.3430   -4.7527 C   0  0  0  0  0  0  0  0  0  0  0  0
    1.3681   -0.6009   -6.4174 S   0  0  0  0  0  0  0  0  0  0  0  0
    0.3322    0.9010   -6.4084 C   0  0  0  0  0  0  0  0  0  0  0  0
    1.4163   -1.0213   -3.6717 C   0  0  0  0  0  0  0  0  0  0  0  0
    1.9307   -0.8552   -2.3796 C   0  0  0  0  0  0  0  0  0  0  0  0
    4.9912   -0.1025   -0.5937 C   0  0  0  0  0  0  0  0  0  0  0  0
    5.6588    0.5007    0.4953 C   0  0  0  0  0  0  0  0  0  0  0  0
    7.0268    0.2988    0.6949 C   0  0  0  0  0  0  0  0  0  0  0  0
    7.7530   -0.5252   -0.1721 C   0  0  0  0  0  0  0  0  0  0  0  0
    9.5146   -0.7488    0.0707 S   0  0  0  0  0  0  0  0  0  0  0  0
    9.3135   -2.0995    1.2722 C   0  0  0  0  0  0  0  0  0  0  0  0
    7.1067   -1.1322   -1.2504 C   0  0  0  0  0  0  0  0  0  0  0  0
    5.7323   -0.9471   -1.4513 C   0  0  0  0  0  0  0  0  0  0  0  0
    2.8571    2.3344    0.0719 C   0  0  0  0  0  0  0  0  0  0  0  0
    3.6788    3.5081   -0.8085 S   0  0  0  0  0  0  0  0  0  0  0  0
    1.6649   -0.9483    1.3914 C   0  0  0  0  0  0  0  0  0  0  0  0
    0.5535   -1.3135    2.1366 C   0  0  0  0  0  0  0  0  0  0  0  0
    0.5245   -2.6884    2.0995 C   0  0  0  0  0  0  0  0  0  0  0  0
   -0.4408   -3.6053    2.5617 C   0  0  0  0  0  0  0  0  0  0  0  0
   -1.6653   -3.1873    3.2707 C   0  0  0  0  0  0  0  0  0  0  0  0
   -2.9421   -3.7177    3.0740 C   0  0  0  0  0  0  0  0  0  0  0  0
   -3.9198   -3.1342    3.8981 C   0  0  0  0  0  0  0  0  0  0  0  0
   -5.6059   -3.6165    3.8304 Cl  0  0  0  0  0  0  0  0  0  0  0  0
   -3.4094   -2.1605    4.7549 C   0  0  0  0  0  0  0  0  0  0  0  0
   -4.1871   -1.3412    5.7448 C   0  0  0  0  0  0  0  0  0  0  0  0
   -4.3429    0.0952    5.2551 C   0  0  0  0  0  0  0  0  0  0  0  0
   -1.7554   -2.0205    4.4853 S   0  0  0  0  0  0  0  0  0  0  0  0
   -0.2083   -4.9463    2.2096 C   0  0  0  0  0  0  0  0  0  0  0  0
    0.9257   -5.3448    1.5142 C   0  0  0  0  0  0  0  0  0  0  0  0
    1.8938   -4.4264    1.0439 C   0  0  0  0  0  0  0  0  0  0  0  0
    3.0601   -4.8316    0.2241 C   0  0  0  0  0  0  0  0  0  0  0  0
    3.7763   -3.9050   -0.9921 S   0  0  0  0  0  0  0  0  0  0  0  0
    4.9549   -5.0291   -1.4127 C   0  0  0  0  0  0  0  0  0  0  0  0
    5.9851   -4.8207   -2.4806 C   0  0  0  0  0  0  0  0  0  0  0  0
    7.3953   -4.7248   -1.8966 C   0  0  0  0  0  0  0  0  0  0  0  0
    4.8009   -6.1529   -0.6019 C   0  0  0  0  0  0  0  0  0  0  0  0
    3.7559   -6.0331    0.3204 C   0  0  0  0  0  0  0  0  0  0  0  0
    5.7813   -7.6046   -0.7197 Cl  0  0  0  0  0  0  0  0  0  0  0  0
    1.6240   -3.0741    1.3418 C   0  0  0  0  0  0  0  0  0  0  0  0
    2.2959   -2.0158    0.9386 O   0  0  0  0  0  0  0  0  0  0  0  0
    0.7575   -6.6913    1.2582 C   0  0  0  0  0  0  0  0  0  0  0  0
   -0.4820   -7.0178    1.7994 C   0  0  0  0  0  0  0  0  0  0  0  0
   -1.0212   -5.9653    2.3820 O   0  0  0  0  0  0  0  0  0  0  0  0
   -1.2010   -8.2847    1.5423 C   0  0  0  0  0  0  0  0  0  0  0  0
   -2.5916   -8.2225    1.2818 C   0  0  0  0  0  0  0  0  0  0  0  0
   -3.1689   -9.2169    0.4758 C   0  0  0  0  0  0  0  0  0  0  0  0
   -4.2940   -9.0809   -0.2811 N   0  0  0  0  0  0  0  0  0  0  0  0
   -5.2716   -7.9838   -0.2256 C   0  0  0  0  0  0  0  0  0  0  0  0
   -6.6871   -8.5245   -0.0456 C   0  0  0  0  0  0  0  0  0  0  0  0
   -4.1420   -9.9713   -1.3011 C   0  0  0  0  0  0  0  0  0  0  0  0
   -3.0028  -10.7363   -1.1263 C   0  0  0  0  0  0  0  0  0  0  0  0
   -2.3955  -10.2719    0.0207 C   0  0  0  0  0  0  0  0  0  0  0  0
   -1.0704  -10.4470    0.4209 C   0  0  0  0  0  0  0  0  0  0  0  0
   -0.4767   -9.4454    1.1939 C   0  0  0  0  0  0  0  0  0  0  0  0
   -2.4082  -11.4355   -2.1818 C   0  0  0  0  0  0  0  0  0  0  0  0
   -2.8976  -11.2117   -3.4765 C   0  0  0  0  0  0  0  0  0  0  0  0
   -3.9725  -10.3195   -3.6797 C   0  0  0  0  0  0  0  0  0  0  0  0
   -4.7099   -9.8450   -2.5745 C   0  0  0  0  0  0  0  0  0  0  0  0
   -4.1480   -9.7187   -5.0258 C   0  0  0  0  0  0  0  0  0  0  0  0
   -4.1647   -8.3797   -5.2414 C   0  0  0  0  0  0  0  0  0  0  0  0
   -3.8989   -7.3401   -4.2276 C   0  0  0  0  0  0  0  0  0  0  0  0
   -3.4430   -7.5085   -3.0680 O   0  0  0  0  0  0  0  0  0  0  0  0
   -4.0143   -6.0508   -4.8336 C   0  0  0  0  0  0  0  0  0  0  0  0
   -4.2186   -4.8407   -4.1342 C   0  0  0  0  0  0  0  0  0  0  0  0
   -4.4977   -3.7732   -4.9490 C   0  0  0  0  0  0  0  0  0  0  0  0
   -4.5271   -3.8625   -6.3787 C   0  0  0  0  0  0  0  0  0  0  0  0
   -4.3700   -5.0610   -7.0705 C   0  0  0  0  0  0  0  0  0  0  0  0
   -4.1403   -6.1964   -6.2344 C   0  0  0  0  0  0  0  0  0  0  0  0
   -4.2504   -7.6516   -6.5538 C   0  0  0  0  0  0  0  0  0  0  0  0
   -4.5197   -8.1851   -7.7660 C   0  0  0  0  0  0  0  0  0  0  0  0
   -5.2181   -9.4402   -7.9157 C   0  0  0  0  0  0  0  0  0  0  0  0
   -5.8720  -10.3863   -8.0459 N   0  0  0  0  0  0  0  0  0  0  0  0
   -4.2177   -7.4937   -8.9896 C   0  0  0  0  0  0  0  0  0  0  0  0
   -3.9674   -6.9509   -9.9820 N   0  0  0  0  0  0  0  0  0  0  0  0
   -4.7996   -2.3878   -6.4682 C   0  0  0  0  0  0  0  0  0  0  0  0
   -3.6159   -1.4187   -6.8010 C   0  0  0  0  0  0  0  0  0  0  0  0
   -2.3128   -1.9415   -6.2311 C   0  0  0  0  0  0  0  0  0  0  0  0
   -2.4140   -1.8388   -4.9027 C   0  0  0  0  0  0  0  0  0  0  0  0
   -3.7820   -1.2749   -4.6153 C   0  0  0  0  0  0  0  0  0  0  0  0
   -3.8967   -0.3211   -5.7923 C   0  0  0  0  0  0  0  0  0  0  0  0
   -4.8725   -2.3231   -5.0058 C   0  0  0  0  0  0  0  0  0  0  0  0
    4.5479    6.3643   -0.1535 H   0  0  0  0  0  0  0  0  0  0  0  0
   -1.5215    8.0345    0.3980 H   0  0  0  0  0  0  0  0  0  0  0  0
    2.2616   11.2966    1.4968 H   0  0  0  0  0  0  0  0  0  0  0  0
   -0.5952   11.8681    3.2904 H   0  0  0  0  0  0  0  0  0  0  0  0
   -0.7180   14.0260    1.8798 H   0  0  0  0  0  0  0  0  0  0  0  0
   -0.5745   13.4627   -0.7113 H   0  0  0  0  0  0  0  0  0  0  0  0
   -2.4877   11.7892   -1.2982 H   0  0  0  0  0  0  0  0  0  0  0  0
   -3.8926   11.3374    0.9241 H   0  0  0  0  0  0  0  0  0  0  0  0
   -3.2794   13.8909    1.2520 H   0  0  0  0  0  0  0  0  0  0  0  0
   -3.0047   13.0092    2.8219 H   0  0  0  0  0  0  0  0  0  0  0  0
   -2.3555   10.3955    2.7815 H   0  0  0  0  0  0  0  0  0  0  0  0
    4.1608    6.1413    2.5059 H   0  0  0  0  0  0  0  0  0  0  0  0
    5.5787    6.1473    4.5115 H   0  0  0  0  0  0  0  0  0  0  0  0
    6.7574    3.2592    7.5591 H   0  0  0  0  0  0  0  0  0  0  0  0
    6.5752    3.6264    5.7987 H   0  0  0  0  0  0  0  0  0  0  0  0
    5.2874    2.6860    6.6816 H   0  0  0  0  0  0  0  0  0  0  0  0
    2.5192    4.0044    6.6723 H   0  0  0  0  0  0  0  0  0  0  0  0
    1.1042    4.0062    4.6602 H   0  0  0  0  0  0  0  0  0  0  0  0
   -0.3897    3.8031    0.9736 H   0  0  0  0  0  0  0  0  0  0  0  0
   -2.7611    4.2572    1.2913 H   0  0  0  0  0  0  0  0  0  0  0  0
   -4.0981    3.8941    3.8356 H   0  0  0  0  0  0  0  0  0  0  0  0
   -5.3684    4.8773    4.6374 H   0  0  0  0  0  0  0  0  0  0  0  0
   -3.6413    5.1294    5.0874 H   0  0  0  0  0  0  0  0  0  0  0  0
   -1.8190    7.4781    3.9860 H   0  0  0  0  0  0  0  0  0  0  0  0
    0.5814    7.0394    3.6829 H   0  0  0  0  0  0  0  0  0  0  0  0
    4.4482    1.3240   -3.0924 H   0  0  0  0  0  0  0  0  0  0  0  0
    3.5527    1.0293   -5.3625 H   0  0  0  0  0  0  0  0  0  0  0  0
   -0.1629    1.0072   -7.3932 H   0  0  0  0  0  0  0  0  0  0  0  0
    0.9635    1.7925   -6.2260 H   0  0  0  0  0  0  0  0  0  0  0  0
   -0.4456    0.8327   -5.6188 H   0  0  0  0  0  0  0  0  0  0  0  0
    0.5837   -1.6920   -3.8272 H   0  0  0  0  0  0  0  0  0  0  0  0
    1.4905   -1.3942   -1.5514 H   0  0  0  0  0  0  0  0  0  0  0  0
    5.1350    1.1573    1.1794 H   0  0  0  0  0  0  0  0  0  0  0  0
    7.5232    0.7998    1.5176 H   0  0  0  0  0  0  0  0  0  0  0  0
    8.6230   -1.7952    2.0871 H   0  0  0  0  0  0  0  0  0  0  0  0
    8.9247   -3.0113    0.7737 H   0  0  0  0  0  0  0  0  0  0  0  0
   10.3001   -2.3210    1.7262 H   0  0  0  0  0  0  0  0  0  0  0  0
    7.6669   -1.7417   -1.9488 H   0  0  0  0  0  0  0  0  0  0  0  0
    5.2660   -1.4410   -2.2901 H   0  0  0  0  0  0  0  0  0  0  0  0
   -0.1707   -0.6425    2.5797 H   0  0  0  0  0  0  0  0  0  0  0  0
   -3.1657   -4.4816    2.3369 H   0  0  0  0  0  0  0  0  0  0  0  0
   -5.1908   -1.7806    5.8952 H   0  0  0  0  0  0  0  0  0  0  0  0
   -3.6509   -1.3425    6.7165 H   0  0  0  0  0  0  0  0  0  0  0  0
   -3.3463    0.5720    5.1257 H   0  0  0  0  0  0  0  0  0  0  0  0
   -4.8945    0.1242    4.2951 H   0  0  0  0  0  0  0  0  0  0  0  0
   -4.9102    0.6803    6.0107 H   0  0  0  0  0  0  0  0  0  0  0  0
    5.9365   -5.6514   -3.2147 H   0  0  0  0  0  0  0  0  0  0  0  0
    5.7624   -3.8761   -3.0267 H   0  0  0  0  0  0  0  0  0  0  0  0
    8.1020   -4.3919   -2.6831 H   0  0  0  0  0  0  0  0  0  0  0  0
    7.7290   -5.7145   -1.5171 H   0  0  0  0  0  0  0  0  0  0  0  0
    7.4174   -3.9914   -1.0592 H   0  0  0  0  0  0  0  0  0  0  0  0
    3.5478   -6.8039    1.0486 H   0  0  0  0  0  0  0  0  0  0  0  0
    1.3587   -7.3198    0.6149 H   0  0  0  0  0  0  0  0  0  0  0  0
   -3.1266   -7.3080    1.5048 H   0  0  0  0  0  0  0  0  0  0  0  0
   -5.0778   -7.3070    0.6331 H   0  0  0  0  0  0  0  0  0  0  0  0
   -5.2140   -7.3679   -1.1528 H   0  0  0  0  0  0  0  0  0  0  0  0
   -6.9768   -9.1550   -0.9074 H   0  0  0  0  0  0  0  0  0  0  0  0
   -6.7486   -9.1324    0.8833 H   0  0  0  0  0  0  0  0  0  0  0  0
   -7.4055   -7.6784    0.0303 H   0  0  0  0  0  0  0  0  0  0  0  0
   -0.4601  -11.2549    0.0250 H   0  0  0  0  0  0  0  0  0  0  0  0
    0.5869   -9.5010    1.3692 H   0  0  0  0  0  0  0  0  0  0  0  0
   -1.4817  -11.9872   -2.0434 H   0  0  0  0  0  0  0  0  0  0  0  0
   -2.3611  -11.6146   -4.3242 H   0  0  0  0  0  0  0  0  0  0  0  0
   -5.5272   -9.1550   -2.7439 H   0  0  0  0  0  0  0  0  0  0  0  0
   -4.1226  -10.3996   -5.8588 H   0  0  0  0  0  0  0  0  0  0  0  0
   -4.2191   -4.7697   -3.0514 H   0  0  0  0  0  0  0  0  0  0  0  0
   -4.5003   -5.0949   -8.1395 H   0  0  0  0  0  0  0  0  0  0  0  0
   -5.7669   -2.1337   -6.9647 H   0  0  0  0  0  0  0  0  0  0  0  0
   -3.5629   -1.0934   -7.8571 H   0  0  0  0  0  0  0  0  0  0  0  0
   -1.4602   -2.3291   -6.7824 H   0  0  0  0  0  0  0  0  0  0  0  0
   -1.6578   -2.1152   -4.1806 H   0  0  0  0  0  0  0  0  0  0  0  0
   -3.9089   -0.8148   -3.6059 H   0  0  0  0  0  0  0  0  0  0  0  0
   -3.1205    0.4859   -5.7831 H   0  0  0  0  0  0  0  0  0  0  0  0
   -4.9100    0.1400   -5.9009 H   0  0  0  0  0  0  0  0  0  0  0  0
   -5.8931   -2.1084   -4.6102 H   0  0  0  0  0  0  0  0  0  0  0  0
  1  2  2  3
  2  3  1  0
  3  4  2  0
  3  5  1  0
  5  6  2  0
  6  7  1  0
  7  8  2  0
  8  9  1  0
  9 10  2  0
 10 11  1  0
 11 12  2  3
 12 13  1  0
 13 14  3  0
 12 15  1  0
 15 16  3  0
  8 17  1  0
 17 18  1  0
 18 19  1  0
 19 20  2  0
 20 21  1  0
 21 22  1  0
 21 23  1  0
  1 24  1  0
 24 25  2  0
 25 26  1  0
 26 27  1  0
 27 28  2  0
 28 29  1  0
 29 30  2  0
 30 31  1  0
 31 32  1  0
 30 33  1  0
 33 34  2  0
 26 35  1  0
 35 36  2  0
 36 37  1  0
 37 38  2  0
 38 39  1  0
 39 40  1  0
 38 41  1  0
 41 42  2  0
 25 43  1  0
 43 44  1  0
 44 45  1  0
 45 46  2  0
 46 47  1  0
 47 48  1  0
 48 49  2  0
 49 50  1  0
 50 51  2  0
 51 52  1  0
 52 53  1  0
 51 54  1  0
 54 55  2  0
 47 56  1  0
 56 57  2  0
 57 58  1  0
 58 59  2  0
 59 60  1  0
 60 61  1  0
 59 62  1  0
 62 63  2  0
 46 64  1  0
 64 65  1  0
 45 66  1  0
 66 67  2  0
 67 68  1  0
 68 69  2  0
 69 70  1  0
 70 71  2  0
 71 72  1  0
 72 73  1  0
 72 74  2  0
 74 75  1  0
 75 76  1  0
 74 77  1  0
 69 78  1  0
 78 79  2  0
 79 80  1  0
 80 81  1  0
 81 82  1  0
 82 83  1  0
 83 84  1  0
 84 85  1  0
 83 86  2  0
 86 87  1  0
 86 88  1  0
 80 89  2  0
 89 90  1  0
 79 91  1  0
 91 92  2  0
 92 93  1  0
 92 94  1  0
 94 95  2  0
 95 96  1  0
 96 97  1  0
 97 98  1  0
 98 99  1  0
 97100  1  0
100101  2  0
101102  1  0
102103  1  0
103104  2  0
101105  1  0
105106  2  0
106107  1  0
107108  2  0
107109  1  0
109110  2  3
110111  1  0
111112  2  0
111113  1  0
113114  2  0
114115  1  0
115116  2  0
116117  1  0
117118  2  0
118119  1  0
119120  2  3
120121  1  0
121122  3  0
120123  1  0
123124  3  0
116125  1  0
125126  1  0
126127  1  0
127128  2  0
128129  1  0
129130  1  0
129131  1  0
 11  2  1  0
 23 17  1  0
 65 24  1  0
 90 66  1  0
104 94  1  0
119110  1  0
131125  1  0
 10  5  1  0
 22 18  1  0
 34 27  1  0
 42 35  1  0
 64 43  2  0
 89 68  1  0
102 96  2  0
118113  1  0
130126  1  0
 23  7  1  0
 55 48  1  0
 63 56  1  0
 77 70  1  0
 93 78  1  0
108100  1  0
131115  1  0
 87 81  2  0
  1132  1  0
  6133  1  0
  9134  1  0
 17135  1  0
 18136  1  0
 19137  1  0
 20138  1  0
 21139  1  0
 22140  1  0
 22141  1  0
 23142  1  0
 28143  1  0
 29144  1  0
 32145  1  0
 32146  1  0
 32147  1  0
 33148  1  0
 34149  1  0
 36150  1  0
 37151  1  0
 40152  1  0
 40153  1  0
 40154  1  0
 41155  1  0
 42156  1  0
 49157  1  0
 50158  1  0
 53159  1  0
 53160  1  0
 53161  1  0
 54162  1  0
 55163  1  0
 57164  1  0
 58165  1  0
 61166  1  0
 61167  1  0
 61168  1  0
 62169  1  0
 63170  1  0
 67171  1  0
 71172  1  0
 75173  1  0
 75174  1  0
 76175  1  0
 76176  1  0
 76177  1  0
 84178  1  0
 84179  1  0
 85180  1  0
 85181  1  0
 85182  1  0
 87183  1  0
 91184  1  0
 95185  1  0
 98186  1  0
 98187  1  0
 99188  1  0
 99189  1  0
 99190  1  0
103191  1  0
104192  1  0
105193  1  0
106194  1  0
108195  1  0
109196  1  0
114197  1  0
117198  1  0
125199  1  0
126200  1  0
127201  1  0
128202  1  0
129203  1  0
130204  1  0
130205  1  0
131206  1  0
M  END

