
     RDKit          3D

217239  0  0  0  0  0  0  0  0999 V2000
    1.5388    6.0987    7.5648 C   0  0  0  0  0  0  0  0  0  0  0  0
    1.5922    7.1827    6.7577 C   0  0  0  0  0  0  0  0  0  0  0  0
    1.0821    7.2330    5.3754 C   0  0  0  0  0  0  0  0  0  0  0  0
    0.7031    6.2619    4.6677 O   0  0  0  0  0  0  0  0  0  0  0  0
    1.0668    8.6051    4.9307 C   0  0  0  0  0  0  0  0  0  0  0  0
    0.5633    9.0742    3.6935 C   0  0  0  0  0  0  0  0  0  0  0  0
    0.7336   10.4325    3.5074 C   0  0  0  0  0  0  0  0  0  0  0  0
    1.3744   11.2782    4.4695 C   0  0  0  0  0  0  0  0  0  0  0  0
    1.8511   10.8201    5.6930 C   0  0  0  0  0  0  0  0  0  0  0  0
    1.6506    9.4282    5.9244 C   0  0  0  0  0  0  0  0  0  0  0  0
    2.0348    8.5816    7.0991 C   0  0  0  0  0  0  0  0  0  0  0  0
    2.8090    8.9642    8.1528 C   0  0  0  0  0  0  0  0  0  0  0  0
    3.1661   10.3331    8.4133 C   0  0  0  0  0  0  0  0  0  0  0  0
    3.4517   11.4304    8.6508 N   0  0  0  0  0  0  0  0  0  0  0  0
    3.3287    8.0293    9.1175 C   0  0  0  0  0  0  0  0  0  0  0  0
    3.7417    7.2975    9.9172 N   0  0  0  0  0  0  0  0  0  0  0  0
    1.2155   12.4535    3.5595 C   0  0  0  0  0  0  0  0  0  0  0  0
    2.4834   12.9559    2.7961 C   0  0  0  0  0  0  0  0  0  0  0  0
    3.4190   11.8006    2.5224 C   0  0  0  0  0  0  0  0  0  0  0  0
    2.8063   11.0212    1.6275 C   0  0  0  0  0  0  0  0  0  0  0  0
    1.4778   11.6697    1.3275 C   0  0  0  0  0  0  0  0  0  0  0  0
    1.8975   13.1257    1.4053 C   0  0  0  0  0  0  0  0  0  0  0  0
    0.5514   11.5911    2.5790 C   0  0  0  0  0  0  0  0  0  0  0  0
    1.3941    4.7358    7.0392 C   0  0  0  0  0  0  0  0  0  0  0  0
    0.2390    4.2133    6.4552 C   0  0  0  0  0  0  0  0  0  0  0  0
    0.5107    3.2050    5.5176 C   0  0  0  0  0  0  0  0  0  0  0  0
   -0.4085    2.6221    4.6137 C   0  0  0  0  0  0  0  0  0  0  0  0
   -1.8722    2.8376    4.6831 C   0  0  0  0  0  0  0  0  0  0  0  0
   -2.8254    1.8192    4.5941 C   0  0  0  0  0  0  0  0  0  0  0  0
   -4.1449    2.2853    4.5338 C   0  0  0  0  0  0  0  0  0  0  0  0
   -4.2170    3.6713    4.5767 C   0  0  0  0  0  0  0  0  0  0  0  0
   -5.7303    4.6212    4.5344 S   0  0  0  0  0  0  0  0  0  0  0  0
   -5.9260    4.7015    6.3495 C   0  0  0  0  0  0  0  0  0  0  0  0
   -5.0527    5.8023    6.9462 C   0  0  0  0  0  0  0  0  0  0  0  0
   -2.6666    4.3213    4.6351 S   0  0  0  0  0  0  0  0  0  0  0  0
    0.1377    1.8271    3.5923 C   0  0  0  0  0  0  0  0  0  0  0  0
    1.4970    1.5247    3.5177 C   0  0  0  0  0  0  0  0  0  0  0  0
    2.3894    1.9842    4.5028 C   0  0  0  0  0  0  0  0  0  0  0  0
    3.7803    1.5032    4.5498 C   0  0  0  0  0  0  0  0  0  0  0  0
    4.9408    2.2683    4.6252 C   0  0  0  0  0  0  0  0  0  0  0  0
    6.1060    1.4951    4.7370 C   0  0  0  0  0  0  0  0  0  0  0  0
    5.8458    0.1271    4.7502 C   0  0  0  0  0  0  0  0  0  0  0  0
    7.0467   -1.1781    4.9639 S   0  0  0  0  0  0  0  0  0  0  0  0
    6.7143   -1.3302    6.7512 C   0  0  0  0  0  0  0  0  0  0  0  0
    7.5053   -2.4909    7.3350 C   0  0  0  0  0  0  0  0  0  0  0  0
    4.1963   -0.1221    4.5990 S   0  0  0  0  0  0  0  0  0  0  0  0
    1.8697    2.8770    5.4497 C   0  0  0  0  0  0  0  0  0  0  0  0
    2.7282    3.8735    6.4950 S   0  0  0  0  0  0  0  0  0  0  0  0
    1.8616    0.8886    2.3289 C   0  0  0  0  0  0  0  0  0  0  0  0
    0.7980    0.7379    1.4464 C   0  0  0  0  0  0  0  0  0  0  0  0
   -0.6063    1.3126    2.1787 S   0  0  0  0  0  0  0  0  0  0  0  0
    0.9383    0.2688    0.0607 C   0  0  0  0  0  0  0  0  0  0  0  0
    0.0452    0.4260   -1.0044 C   0  0  0  0  0  0  0  0  0  0  0  0
   -1.3043    1.0364   -0.8856 C   0  0  0  0  0  0  0  0  0  0  0  0
   -2.4563    0.2048   -0.8187 C   0  0  0  0  0  0  0  0  0  0  0  0
   -3.7172    0.7852   -0.6264 C   0  0  0  0  0  0  0  0  0  0  0  0
   -3.8630    2.1666   -0.4798 C   0  0  0  0  0  0  0  0  0  0  0  0
   -5.2323    2.7682   -0.3277 C   0  0  0  0  0  0  0  0  0  0  0  0
   -5.7937    3.1994   -1.6799 C   0  0  0  0  0  0  0  0  0  0  0  0
   -2.7365    2.9867   -0.5580 C   0  0  0  0  0  0  0  0  0  0  0  0
   -1.4557    2.4451   -0.7823 C   0  0  0  0  0  0  0  0  0  0  0  0
   -0.2904    3.4100   -0.8916 C   0  0  0  0  0  0  0  0  0  0  0  0
   -0.4116    4.2904   -2.1339 C   0  0  0  0  0  0  0  0  0  0  0  0
   -2.3760   -1.3122   -0.8689 C   0  0  0  0  0  0  0  0  0  0  0  0
   -2.1609   -1.9022    0.5183 C   0  0  0  0  0  0  0  0  0  0  0  0
    0.4699   -0.2227   -2.1727 C   0  0  0  0  0  0  0  0  0  0  0  0
    1.6762   -0.9034   -2.0449 C   0  0  0  0  0  0  0  0  0  0  0  0
    2.2237   -0.6743   -0.4724 S   0  0  0  0  0  0  0  0  0  0  0  0
    2.0166   -2.0829   -2.8500 C   0  0  0  0  0  0  0  0  0  0  0  0
    1.5580   -2.3203   -4.1690 C   0  0  0  0  0  0  0  0  0  0  0  0
    1.4312   -1.2992   -5.2002 N   0  0  0  0  0  0  0  0  0  0  0  0
    1.9315    0.0382   -4.9882 C   0  0  0  0  0  0  0  0  0  0  0  0
    1.1244    1.1556   -5.2764 C   0  0  0  0  0  0  0  0  0  0  0  0
    1.6521    2.4514   -5.1987 C   0  0  0  0  0  0  0  0  0  0  0  0
    2.9894    2.6422   -4.8351 C   0  0  0  0  0  0  0  0  0  0  0  0
    3.7065    4.2900   -4.8638 S   0  0  0  0  0  0  0  0  0  0  0  0
    3.4350    4.6380   -3.0922 C   0  0  0  0  0  0  0  0  0  0  0  0
    3.7933    1.5375   -4.5258 C   0  0  0  0  0  0  0  0  0  0  0  0
    3.2690    0.2433   -4.6048 C   0  0  0  0  0  0  0  0  0  0  0  0
    1.3788   -1.7116   -6.5787 C   0  0  0  0  0  0  0  0  0  0  0  0
    0.3298   -1.2922   -7.4221 C   0  0  0  0  0  0  0  0  0  0  0  0
    0.3415   -1.6366   -8.7800 C   0  0  0  0  0  0  0  0  0  0  0  0
    1.3871   -2.4079   -9.3032 C   0  0  0  0  0  0  0  0  0  0  0  0
    1.4065   -2.8333  -11.0469 S   0  0  0  0  0  0  0  0  0  0  0  0
    2.6173   -1.5434  -11.4822 C   0  0  0  0  0  0  0  0  0  0  0  0
    2.4201   -2.8431   -8.4681 C   0  0  0  0  0  0  0  0  0  0  0  0
    2.4268   -2.4811   -7.1184 C   0  0  0  0  0  0  0  0  0  0  0  0
    1.3134   -3.6956   -4.3622 C   0  0  0  0  0  0  0  0  0  0  0  0
    0.3657   -4.5540   -5.4522 S   0  0  0  0  0  0  0  0  0  0  0  0
    0.4005   -6.0052   -4.5725 C   0  0  0  0  0  0  0  0  0  0  0  0
    1.1711   -5.8295   -3.4064 C   0  0  0  0  0  0  0  0  0  0  0  0
    1.3386   -6.8468   -2.3863 N   0  0  0  0  0  0  0  0  0  0  0  0
    1.5159   -6.4748   -1.0098 C   0  0  0  0  0  0  0  0  0  0  0  0
    0.4843   -5.8247   -0.3114 C   0  0  0  0  0  0  0  0  0  0  0  0
    0.6850   -5.3949    1.0041 C   0  0  0  0  0  0  0  0  0  0  0  0
    1.9240   -5.6058    1.6328 C   0  0  0  0  0  0  0  0  0  0  0  0
    2.2009   -4.9995    3.2997 S   0  0  0  0  0  0  0  0  0  0  0  0
    2.6937   -3.3407    2.7275 C   0  0  0  0  0  0  0  0  0  0  0  0
    2.9474   -6.2787    0.9477 C   0  0  0  0  0  0  0  0  0  0  0  0
    2.7487   -6.7105   -0.3705 C   0  0  0  0  0  0  0  0  0  0  0  0
    1.4468   -8.2433   -2.7362 C   0  0  0  0  0  0  0  0  0  0  0  0
    2.1928   -8.6517   -3.8590 C   0  0  0  0  0  0  0  0  0  0  0  0
    2.2639  -10.0048   -4.2015 C   0  0  0  0  0  0  0  0  0  0  0  0
    1.6064  -10.9615   -3.4214 C   0  0  0  0  0  0  0  0  0  0  0  0
    1.6481  -12.6924   -3.9022 S   0  0  0  0  0  0  0  0  0  0  0  0
    3.1603  -13.0644   -2.9575 C   0  0  0  0  0  0  0  0  0  0  0  0
    0.8760  -10.5631   -2.2962 C   0  0  0  0  0  0  0  0  0  0  0  0
    0.8022   -9.2139   -1.9507 C   0  0  0  0  0  0  0  0  0  0  0  0
    1.6459   -4.5109   -3.3278 C   0  0  0  0  0  0  0  0  0  0  0  0
    2.2164   -3.5807   -2.0731 S   0  0  0  0  0  0  0  0  0  0  0  0
   -0.5693   -7.0912   -4.7508 C   0  0  0  0  0  0  0  0  0  0  0  0
   -1.7281   -7.1359   -4.0604 C   0  0  0  0  0  0  0  0  0  0  0  0
   -2.2176   -6.0794   -3.1561 C   0  0  0  0  0  0  0  0  0  0  0  0
   -1.7159   -4.9356   -3.0068 O   0  0  0  0  0  0  0  0  0  0  0  0
   -3.3811   -6.5584   -2.4467 C   0  0  0  0  0  0  0  0  0  0  0  0
   -4.1020   -5.8714   -1.4378 C   0  0  0  0  0  0  0  0  0  0  0  0
   -5.0972   -6.6371   -0.8536 C   0  0  0  0  0  0  0  0  0  0  0  0
   -5.3515   -7.9971   -1.2192 C   0  0  0  0  0  0  0  0  0  0  0  0
   -4.6446   -8.6729   -2.1945 C   0  0  0  0  0  0  0  0  0  0  0  0
   -3.6548   -7.8909   -2.8556 C   0  0  0  0  0  0  0  0  0  0  0  0
   -2.7058   -8.2726   -3.9467 C   0  0  0  0  0  0  0  0  0  0  0  0
   -2.8054   -9.3720   -4.7407 C   0  0  0  0  0  0  0  0  0  0  0  0
   -1.8879   -9.6643   -5.8063 C   0  0  0  0  0  0  0  0  0  0  0  0
   -1.1560   -9.9200   -6.6664 N   0  0  0  0  0  0  0  0  0  0  0  0
   -3.9207  -10.2811   -4.6747 C   0  0  0  0  0  0  0  0  0  0  0  0
   -4.8177  -11.0128   -4.6304 N   0  0  0  0  0  0  0  0  0  0  0  0
   -6.4399   -8.0942   -0.1933 C   0  0  0  0  0  0  0  0  0  0  0  0
   -6.1081   -8.8786    1.1139 C   0  0  0  0  0  0  0  0  0  0  0  0
   -7.1784   -8.5091    2.1118 C   0  0  0  0  0  0  0  0  0  0  0  0
   -6.9551   -7.2303    2.4415 C   0  0  0  0  0  0  0  0  0  0  0  0
   -5.7390   -6.7887    1.6681 C   0  0  0  0  0  0  0  0  0  0  0  0
   -4.9547   -8.0959    1.7086 C   0  0  0  0  0  0  0  0  0  0  0  0
   -6.1841   -6.6967    0.1798 C   0  0  0  0  0  0  0  0  0  0  0  0
    1.7743    6.1721    8.6085 H   0  0  0  0  0  0  0  0  0  0  0  0
    0.1184    8.4292    2.9457 H   0  0  0  0  0  0  0  0  0  0  0  0
    2.3422   11.5004    6.3590 H   0  0  0  0  0  0  0  0  0  0  0  0
    0.5690   13.2667    3.9629 H   0  0  0  0  0  0  0  0  0  0  0  0
    2.9662   13.8625    3.2230 H   0  0  0  0  0  0  0  0  0  0  0  0
    4.4191   11.6477    2.9348 H   0  0  0  0  0  0  0  0  0  0  0  0
    3.2091   10.1227    1.1764 H   0  0  0  0  0  0  0  0  0  0  0  0
    1.0107   11.3672    0.3674 H   0  0  0  0  0  0  0  0  0  0  0  0
    1.0353   13.8355    1.3499 H   0  0  0  0  0  0  0  0  0  0  0  0
    2.6534   13.4108    0.6294 H   0  0  0  0  0  0  0  0  0  0  0  0
   -0.5196   11.8674    2.3888 H   0  0  0  0  0  0  0  0  0  0  0  0
   -0.7306    4.6715    6.5943 H   0  0  0  0  0  0  0  0  0  0  0  0
   -2.5717    0.7697    4.5575 H   0  0  0  0  0  0  0  0  0  0  0  0
   -5.0112    1.6414    4.4451 H   0  0  0  0  0  0  0  0  0  0  0  0
   -5.6821    3.7292    6.8243 H   0  0  0  0  0  0  0  0  0  0  0  0
   -6.9924    4.9296    6.5659 H   0  0  0  0  0  0  0  0  0  0  0  0
   -5.1816    6.7499    6.3810 H   0  0  0  0  0  0  0  0  0  0  0  0
   -3.9838    5.4954    6.9197 H   0  0  0  0  0  0  0  0  0  0  0  0
   -5.3368    5.9721    8.0049 H   0  0  0  0  0  0  0  0  0  0  0  0
    4.9501    3.3537    4.5818 H   0  0  0  0  0  0  0  0  0  0  0  0
    7.0982    1.9194    4.7895 H   0  0  0  0  0  0  0  0  0  0  0  0
    6.9980   -0.3849    7.2613 H   0  0  0  0  0  0  0  0  0  0  0  0
    5.6326   -1.5267    6.9094 H   0  0  0  0  0  0  0  0  0  0  0  0
    7.4337   -2.4876    8.4447 H   0  0  0  0  0  0  0  0  0  0  0  0
    7.1011   -3.4568    6.9551 H   0  0  0  0  0  0  0  0  0  0  0  0
    8.5748   -2.4069    7.0560 H   0  0  0  0  0  0  0  0  0  0  0  0
    2.8863    0.6487    2.0633 H   0  0  0  0  0  0  0  0  0  0  0  0
   -4.5961    0.1519   -0.5838 H   0  0  0  0  0  0  0  0  0  0  0  0
   -5.9304    2.0362    0.1400 H   0  0  0  0  0  0  0  0  0  0  0  0
   -5.1838    3.6452    0.3569 H   0  0  0  0  0  0  0  0  0  0  0  0
   -5.1627    3.9980   -2.1225 H   0  0  0  0  0  0  0  0  0  0  0  0
   -6.8227    3.5886   -1.5465 H   0  0  0  0  0  0  0  0  0  0  0  0
   -5.8279    2.3286   -2.3737 H   0  0  0  0  0  0  0  0  0  0  0  0
   -2.8609    4.0562   -0.4430 H   0  0  0  0  0  0  0  0  0  0  0  0
    0.6854    2.8860   -0.9240 H   0  0  0  0  0  0  0  0  0  0  0  0
   -0.2684    4.0550    0.0107 H   0  0  0  0  0  0  0  0  0  0  0  0
   -1.3413    4.9008   -2.1020 H   0  0  0  0  0  0  0  0  0  0  0  0
   -0.4392    3.6652   -3.0510 H   0  0  0  0  0  0  0  0  0  0  0  0
    0.4545    4.9778   -2.1979 H   0  0  0  0  0  0  0  0  0  0  0  0
   -1.5654   -1.6519   -1.5436 H   0  0  0  0  0  0  0  0  0  0  0  0
   -3.3131   -1.7296   -1.2948 H   0  0  0  0  0  0  0  0  0  0  0  0
   -2.1062   -3.0101    0.4553 H   0  0  0  0  0  0  0  0  0  0  0  0
   -1.2191   -1.5304    0.9707 H   0  0  0  0  0  0  0  0  0  0  0  0
   -3.0120   -1.6250    1.1802 H   0  0  0  0  0  0  0  0  0  0  0  0
   -0.1616   -0.3048   -3.0439 H   0  0  0  0  0  0  0  0  0  0  0  0
    0.0909    1.0288   -5.5648 H   0  0  0  0  0  0  0  0  0  0  0  0
    1.0272    3.3074   -5.4355 H   0  0  0  0  0  0  0  0  0  0  0  0
    3.1191    3.7406   -2.5298 H   0  0  0  0  0  0  0  0  0  0  0  0
    4.3784    5.0173   -2.6450 H   0  0  0  0  0  0  0  0  0  0  0  0
    2.6554    5.4189   -2.9991 H   0  0  0  0  0  0  0  0  0  0  0  0
    4.8302    1.6880   -4.2444 H   0  0  0  0  0  0  0  0  0  0  0  0
    3.9187   -0.5978   -4.3919 H   0  0  0  0  0  0  0  0  0  0  0  0
   -0.4825   -0.6993   -7.0263 H   0  0  0  0  0  0  0  0  0  0  0  0
   -0.4628   -1.3024   -9.4265 H   0  0  0  0  0  0  0  0  0  0  0  0
    3.5881   -1.7537  -10.9839 H   0  0  0  0  0  0  0  0  0  0  0  0
    2.7724   -1.5422  -12.5807 H   0  0  0  0  0  0  0  0  0  0  0  0
    2.2509   -0.5452  -11.1657 H   0  0  0  0  0  0  0  0  0  0  0  0
    3.2339   -3.4459   -8.8697 H   0  0  0  0  0  0  0  0  0  0  0  0
    3.2448   -2.8103   -6.4850 H   0  0  0  0  0  0  0  0  0  0  0  0
   -0.4595   -5.6362   -0.8025 H   0  0  0  0  0  0  0  0  0  0  0  0
   -0.1125   -4.8734    1.5187 H   0  0  0  0  0  0  0  0  0  0  0  0
    1.8393   -2.8451    2.2145 H   0  0  0  0  0  0  0  0  0  0  0  0
    2.9758   -2.7394    3.6146 H   0  0  0  0  0  0  0  0  0  0  0  0
    3.5623   -3.4085    2.0319 H   0  0  0  0  0  0  0  0  0  0  0  0
    3.9023   -6.4536    1.4278 H   0  0  0  0  0  0  0  0  0  0  0  0
    3.5555   -7.2022   -0.8996 H   0  0  0  0  0  0  0  0  0  0  0  0
    2.7130   -7.9204   -4.4695 H   0  0  0  0  0  0  0  0  0  0  0  0
    2.8409  -10.3084   -5.0704 H   0  0  0  0  0  0  0  0  0  0  0  0
    3.4037  -14.1427   -3.0668 H   0  0  0  0  0  0  0  0  0  0  0  0
    4.0115  -12.4588   -3.3441 H   0  0  0  0  0  0  0  0  0  0  0  0
    3.0061  -12.8318   -1.8809 H   0  0  0  0  0  0  0  0  0  0  0  0
    0.3594  -11.2966   -1.6933 H   0  0  0  0  0  0  0  0  0  0  0  0
    0.2229   -8.9153   -1.0892 H   0  0  0  0  0  0  0  0  0  0  0  0
   -0.2357   -7.9169   -5.3489 H   0  0  0  0  0  0  0  0  0  0  0  0
   -3.8895   -4.8537   -1.1326 H   0  0  0  0  0  0  0  0  0  0  0  0
   -4.8437   -9.7215   -2.3700 H   0  0  0  0  0  0  0  0  0  0  0  0
   -7.4493   -8.2719   -0.6249 H   0  0  0  0  0  0  0  0  0  0  0  0
   -5.9350   -9.9744    0.9919 H   0  0  0  0  0  0  0  0  0  0  0  0
   -7.9337   -9.1583    2.5496 H   0  0  0  0  0  0  0  0  0  0  0  0
   -7.5071   -6.6620    3.1872 H   0  0  0  0  0  0  0  0  0  0  0  0
   -5.2218   -5.8923    2.0746 H   0  0  0  0  0  0  0  0  0  0  0  0
   -4.6964   -8.4211    2.7484 H   0  0  0  0  0  0  0  0  0  0  0  0
   -4.0302   -8.0902    1.0914 H   0  0  0  0  0  0  0  0  0  0  0  0
   -7.0274   -6.0025   -0.0234 H   0  0  0  0  0  0  0  0  0  0  0  0
  1  2  2  3
  2  3  1  0
  3  4  2  0
  3  5  1  0
  5  6  2  0
  6  7  1  0
  7  8  2  0
  8  9  1  0
  9 10  2  0
 10 11  1  0
 11 12  2  3
 12 13  1  0
 13 14  3  0
 12 15  1  0
 15 16  3  0
  8 17  1  0
 17 18  1  0
 18 19  1  0
 19 20  2  0
 20 21  1  0
 21 22  1  0
 21 23  1  0
  1 24  1  0
 24 25  2  0
 25 26  1  0
 26 27  2  0
 27 28  1  0
 28 29  2  0
 29 30  1  0
 30 31  2  0
 31 32  1  0
 32 33  1  0
 33 34  1  0
 31 35  1  0
 27 36  1  0
 36 37  2  0
 37 38  1  0
 38 39  1  0
 39 40  2  0
 40 41  1  0
 41 42  2  0
 42 43  1  0
 43 44  1  0
 44 45  1  0
 42 46  1  0
 38 47  2  0
 47 48  1  0
 37 49  1  0
 49 50  2  0
 50 51  1  0
 50 52  1  0
 52 53  2  0
 53 54  1  0
 54 55  2  0
 55 56  1  0
 56 57  2  0
 57 58  1  0
 58 59  1  0
 57 60  1  0
 60 61  2  0
 61 62  1  0
 62 63  1  0
 55 64  1  0
 64 65  1  0
 53 66  1  0
 66 67  2  0
 67 68  1  0
 67 69  1  0
 69 70  2  0
 70 71  1  0
 71 72  1  0
 72 73  2  0
 73 74  1  0
 74 75  2  0
 75 76  1  0
 76 77  1  0
 75 78  1  0
 78 79  2  0
 71 80  1  0
 80 81  2  0
 81 82  1  0
 82 83  2  0
 83 84  1  0
 84 85  1  0
 83 86  1  0
 86 87  2  0
 70 88  1  0
 88 89  1  0
 89 90  1  0
 90 91  2  0
 91 92  1  0
 92 93  1  0
 93 94  2  0
 94 95  1  0
 95 96  2  0
 96 97  1  0
 97 98  1  0
 96 99  1  0
 99100  2  0
 92101  1  0
101102  2  0
102103  1  0
103104  2  0
104105  1  0
105106  1  0
104107  1  0
107108  2  0
 91109  1  0
109110  1  0
 90111  1  0
111112  2  3
112113  1  0
113114  2  0
113115  1  0
115116  2  0
116117  1  0
117118  2  0
118119  1  0
119120  2  0
120121  1  0
121122  2  3
122123  1  0
123124  3  0
122125  1  0
125126  3  0
118127  1  0
127128  1  0
128129  1  0
129130  2  0
130131  1  0
131132  1  0
131133  1  0
 11  2  1  0
 23 17  1  0
 48 24  1  0
 68 52  1  0
110 69  1  0
121112  1  0
133127  1  0
 10  5  1  0
 22 18  1  0
 47 26  1  0
 61 54  1  0
 79 72  1  0
 87 80  1  0
109 88  2  0
120115  1  0
132128  1  0
 23  7  1  0
 35 28  1  0
 51 36  1  0
100 93  1  0
108101  1  0
133117  1  0
 46 39  1  0
  1134  1  0
  6135  1  0
  9136  1  0
 17137  1  0
 18138  1  0
 19139  1  0
 20140  1  0
 21141  1  0
 22142  1  0
 22143  1  0
 23144  1  0
 25145  1  0
 29146  1  0
 30147  1  0
 33148  1  0
 33149  1  0
 34150  1  0
 34151  1  0
 34152  1  0
 40153  1  0
 41154  1  0
 44155  1  0
 44156  1  0
 45157  1  0
 45158  1  0
 45159  1  0
 49160  1  0
 56161  1  0
 58162  1  0
 58163  1  0
 59164  1  0
 59165  1  0
 59166  1  0
 60167  1  0
 62168  1  0
 62169  1  0
 63170  1  0
 63171  1  0
 63172  1  0
 64173  1  0
 64174  1  0
 65175  1  0
 65176  1  0
 65177  1  0
 66178  1  0
 73179  1  0
 74180  1  0
 77181  1  0
 77182  1  0
 77183  1  0
 78184  1  0
 79185  1  0
 81186  1  0
 82187  1  0
 85188  1  0
 85189  1  0
 85190  1  0
 86191  1  0
 87192  1  0
 94193  1  0
 95194  1  0
 98195  1  0
 98196  1  0
 98197  1  0
 99198  1  0
100199  1  0
102200  1  0
103201  1  0
106202  1  0
106203  1  0
106204  1  0
107205  1  0
108206  1  0
111207  1  0
116208  1  0
119209  1  0
127210  1  0
128211  1  0
129212  1  0
130213  1  0
131214  1  0
132215  1  0
132216  1  0
133217  1  0
M  END

