
     RDKit          3D

196218  0  0  0  0  0  0  0  0999 V2000
    6.9491    5.8255   -0.7858 C   0  0  0  0  0  0  0  0  0  0  0  0
    7.0964    5.1332    0.3679 C   0  0  0  0  0  0  0  0  0  0  0  0
    5.9835    4.6235    1.1863 C   0  0  0  0  0  0  0  0  0  0  0  0
    4.7520    4.7579    0.9589 O   0  0  0  0  0  0  0  0  0  0  0  0
    6.5071    3.9615    2.3436 C   0  0  0  0  0  0  0  0  0  0  0  0
    5.7478    3.3174    3.3429 C   0  0  0  0  0  0  0  0  0  0  0  0
    6.5077    2.7382    4.3341 C   0  0  0  0  0  0  0  0  0  0  0  0
    7.9374    2.7631    4.3366 C   0  0  0  0  0  0  0  0  0  0  0  0
    8.6860    3.4052    3.3624 C   0  0  0  0  0  0  0  0  0  0  0  0
    7.9207    4.0140    2.3251 C   0  0  0  0  0  0  0  0  0  0  0  0
    8.3650    4.7176    1.0731 C   0  0  0  0  0  0  0  0  0  0  0  0
    9.6396    4.7782    0.5911 C   0  0  0  0  0  0  0  0  0  0  0  0
    9.9615    5.2322   -0.7358 C   0  0  0  0  0  0  0  0  0  0  0  0
   10.2481    5.5776   -1.8052 N   0  0  0  0  0  0  0  0  0  0  0  0
   10.7801    4.3020    1.3272 C   0  0  0  0  0  0  0  0  0  0  0  0
   11.7226    3.9326    1.8858 N   0  0  0  0  0  0  0  0  0  0  0  0
    7.9604    1.9259    5.5806 C   0  0  0  0  0  0  0  0  0  0  0  0
    8.3154    0.4183    5.3965 C   0  0  0  0  0  0  0  0  0  0  0  0
    7.8912   -0.2646    6.6751 C   0  0  0  0  0  0  0  0  0  0  0  0
    6.5521   -0.2605    6.6851 C   0  0  0  0  0  0  0  0  0  0  0  0
    6.1175    0.4253    5.4110 C   0  0  0  0  0  0  0  0  0  0  0  0
    7.2066   -0.0939    4.4845 C   0  0  0  0  0  0  0  0  0  0  0  0
    6.4937    1.9247    5.5866 C   0  0  0  0  0  0  0  0  0  0  0  0
    5.6698    5.8277   -1.5242 C   0  0  0  0  0  0  0  0  0  0  0  0
    4.5664    6.5879   -1.1041 C   0  0  0  0  0  0  0  0  0  0  0  0
    3.2488    6.2449   -1.5162 C   0  0  0  0  0  0  0  0  0  0  0  0
    2.2092    6.9709   -0.8496 N   0  0  0  0  0  0  0  0  0  0  0  0
    3.0803    7.9068    0.1075 S   0  0  0  0  0  4  0  0  0  0  0  0
    4.6346    7.6025   -0.0959 N   0  0  0  0  0  0  0  0  0  0  0  0
    3.0206    5.1562   -2.3689 C   0  0  0  0  0  0  0  0  0  0  0  0
    4.1368    4.5499   -2.9677 C   0  0  0  0  0  0  0  0  0  0  0  0
    4.0212    3.5729   -3.9053 N   0  0  0  0  0  0  0  0  0  0  0  0
    5.6140    3.1928   -4.1329 S   0  0  0  0  0  0  0  0  0  0  0  0
    6.4707    4.1605   -3.1020 N   0  0  0  0  0  0  0  0  0  0  0  0
    5.4603    4.8756   -2.5387 C   0  0  0  0  0  0  0  0  0  0  0  0
    1.7456    4.4332   -2.3243 C   0  0  0  0  0  0  0  0  0  0  0  0
    1.5555    3.2283   -1.6342 C   0  0  0  0  0  0  0  0  0  0  0  0
    2.5142    2.6056   -0.7570 N   0  0  0  0  0  0  0  0  0  0  0  0
    2.2771    2.6883    0.6711 C   0  0  0  0  0  0  0  0  0  0  0  0
    2.5039    1.5801    1.5148 C   0  0  0  0  0  0  0  0  0  0  0  0
    2.2108    1.6534    2.8803 C   0  0  0  0  0  0  0  0  0  0  0  0
    1.6785    2.8271    3.4250 C   0  0  0  0  0  0  0  0  0  0  0  0
    1.2397    2.9013    5.1646 S   0  0  0  0  0  0  0  0  0  0  0  0
    2.9059    3.3969    5.7055 C   0  0  0  0  0  0  0  0  0  0  0  0
    1.4571    3.9348    2.6000 C   0  0  0  0  0  0  0  0  0  0  0  0
    1.7451    3.8647    1.2362 C   0  0  0  0  0  0  0  0  0  0  0  0
    3.5233    1.7244   -1.2987 C   0  0  0  0  0  0  0  0  0  0  0  0
    3.2425    0.9020   -2.4101 C   0  0  0  0  0  0  0  0  0  0  0  0
    4.2180    0.0389   -2.9147 C   0  0  0  0  0  0  0  0  0  0  0  0
    5.4867   -0.0165   -2.3265 C   0  0  0  0  0  0  0  0  0  0  0  0
    6.7230   -1.1626   -2.9466 S   0  0  0  0  0  0  0  0  0  0  0  0
    7.2882   -0.0489   -4.2699 C   0  0  0  0  0  0  0  0  0  0  0  0
    5.7799    0.8053   -1.2295 C   0  0  0  0  0  0  0  0  0  0  0  0
    4.8035    1.6561   -0.7133 C   0  0  0  0  0  0  0  0  0  0  0  0
    0.2662    2.7601   -1.7965 C   0  0  0  0  0  0  0  0  0  0  0  0
   -0.4399    1.3112   -1.4142 S   0  0  0  0  0  0  0  0  0  0  0  0
   -1.9001    1.6462   -2.2251 C   0  0  0  0  0  0  0  0  0  0  0  0
   -1.8450    2.9580   -2.7770 C   0  0  0  0  0  0  0  0  0  0  0  0
   -2.9703    3.6651   -3.3642 N   0  0  0  0  0  0  0  0  0  0  0  0
   -2.9095    5.0874   -3.5604 C   0  0  0  0  0  0  0  0  0  0  0  0
   -2.7579    5.9454   -2.4575 C   0  0  0  0  0  0  0  0  0  0  0  0
   -2.6817    7.3255   -2.6442 C   0  0  0  0  0  0  0  0  0  0  0  0
   -2.7963    7.8679   -3.9301 C   0  0  0  0  0  0  0  0  0  0  0  0
   -2.7128    9.6466   -4.1633 S   0  0  0  0  0  0  0  0  0  0  0  0
   -4.4819    9.8917   -3.8200 C   0  0  0  0  0  0  0  0  0  0  0  0
   -2.9778    7.0178   -5.0314 C   0  0  0  0  0  0  0  0  0  0  0  0
   -3.0338    5.6344   -4.8479 C   0  0  0  0  0  0  0  0  0  0  0  0
   -4.2906    3.1038   -3.3002 C   0  0  0  0  0  0  0  0  0  0  0  0
   -4.9787    2.7758   -4.4775 C   0  0  0  0  0  0  0  0  0  0  0  0
   -6.2221    2.1383   -4.4054 C   0  0  0  0  0  0  0  0  0  0  0  0
   -6.7903    1.8369   -3.1634 C   0  0  0  0  0  0  0  0  0  0  0  0
   -8.3322    0.9271   -3.0828 S   0  0  0  0  0  0  0  0  0  0  0  0
   -7.5013   -0.6952   -3.0812 C   0  0  0  0  0  0  0  0  0  0  0  0
   -6.1315    2.2168   -1.9865 C   0  0  0  0  0  0  0  0  0  0  0  0
   -4.8904    2.8560   -2.0543 C   0  0  0  0  0  0  0  0  0  0  0  0
   -0.5706    3.5212   -2.5503 C   0  0  0  0  0  0  0  0  0  0  0  0
    0.2888    4.8759   -3.0912 S   0  0  0  0  0  0  0  0  0  0  0  0
   -2.7739    0.5157   -2.6293 C   0  0  0  0  0  0  0  0  0  0  0  0
   -2.9658    0.2644   -3.9985 C   0  0  0  0  0  0  0  0  0  0  0  0
   -3.2784   -1.0244   -4.4555 C   0  0  0  0  0  0  0  0  0  0  0  0
   -3.3606   -2.0948   -3.5593 C   0  0  0  0  0  0  0  0  0  0  0  0
   -3.2094   -1.8400   -2.1787 C   0  0  0  0  0  0  0  0  0  0  0  0
   -3.0854   -2.8645   -1.2931 N   0  0  0  0  0  0  0  0  0  0  0  0
   -2.8831   -2.6696    0.0329 C   0  0  0  0  0  0  0  0  0  0  0  0
   -2.4392   -3.8175    0.8429 C   0  0  0  0  0  0  0  0  0  0  0  0
   -1.2196   -4.4277    0.5247 C   0  0  0  0  0  0  0  0  0  0  0  0
   -0.7168   -5.4635    1.3149 C   0  0  0  0  0  0  0  0  0  0  0  0
   -1.4526   -5.9391    2.4125 C   0  0  0  0  0  0  0  0  0  0  0  0
   -0.8856   -7.0152    3.3097 C   0  0  0  0  0  0  0  0  0  0  0  0
   -0.4469   -8.2551    2.5269 C   0  0  0  0  0  0  0  0  0  0  0  0
   -2.6871   -5.3374    2.7193 C   0  0  0  0  0  0  0  0  0  0  0  0
   -3.1867   -4.2938    1.9298 C   0  0  0  0  0  0  0  0  0  0  0  0
   -2.8104   -1.3489    0.5126 C   0  0  0  0  0  0  0  0  0  0  0  0
   -2.8343   -0.3263   -0.3807 N   0  0  0  0  0  0  0  0  0  0  0  0
   -2.9988   -0.5279   -1.7152 C   0  0  0  0  0  0  0  0  0  0  0  0
   -2.5675   -1.0362    1.9295 C   0  0  0  0  0  0  0  0  0  0  0  0
   -1.3266   -0.5194    2.3269 C   0  0  0  0  0  0  0  0  0  0  0  0
   -1.1078   -0.1652    3.6610 C   0  0  0  0  0  0  0  0  0  0  0  0
   -2.1329   -0.3155    4.6098 C   0  0  0  0  0  0  0  0  0  0  0  0
   -1.9229    0.1397    6.0287 C   0  0  0  0  0  0  0  0  0  0  0  0
   -2.3778    1.5879    6.1953 C   0  0  0  0  0  0  0  0  0  0  0  0
   -3.3823   -0.8096    4.2024 C   0  0  0  0  0  0  0  0  0  0  0  0
   -3.5987   -1.1661    2.8685 C   0  0  0  0  0  0  0  0  0  0  0  0
   -3.2630   -3.4755   -4.0873 C   0  0  0  0  0  0  0  0  0  0  0  0
   -3.9458   -4.5196   -3.5798 C   0  0  0  0  0  0  0  0  0  0  0  0
   -5.0917   -4.4096   -2.6736 C   0  0  0  0  0  0  0  0  0  0  0  0
   -5.9540   -3.4890   -2.6901 O   0  0  0  0  0  0  0  0  0  0  0  0
   -5.0540   -5.5078   -1.7320 C   0  0  0  0  0  0  0  0  0  0  0  0
   -5.8179   -5.6551   -0.5515 C   0  0  0  0  0  0  0  0  0  0  0  0
   -5.3653   -6.6634    0.2860 C   0  0  0  0  0  0  0  0  0  0  0  0
   -4.2149   -7.4666   -0.0109 C   0  0  0  0  0  0  0  0  0  0  0  0
   -3.4771   -7.3424   -1.1748 C   0  0  0  0  0  0  0  0  0  0  0  0
   -3.9594   -6.3484   -2.0682 C   0  0  0  0  0  0  0  0  0  0  0  0
   -3.3522   -5.8646   -3.3356 C   0  0  0  0  0  0  0  0  0  0  0  0
   -2.5789   -6.5822   -4.1842 C   0  0  0  0  0  0  0  0  0  0  0  0
   -2.2406   -7.9593   -3.9289 C   0  0  0  0  0  0  0  0  0  0  0  0
   -1.9625   -9.0654   -3.7353 N   0  0  0  0  0  0  0  0  0  0  0  0
   -2.1418   -6.0534   -5.4523 C   0  0  0  0  0  0  0  0  0  0  0  0
   -1.7740   -5.6262   -6.4616 N   0  0  0  0  0  0  0  0  0  0  0  0
   -4.3566   -8.1829    1.3006 C   0  0  0  0  0  0  0  0  0  0  0  0
   -4.8982   -9.6439    1.2761 C   0  0  0  0  0  0  0  0  0  0  0  0
   -5.8406   -9.8248    0.1091 C   0  0  0  0  0  0  0  0  0  0  0  0
   -6.9189   -9.0862    0.3727 C   0  0  0  0  0  0  0  0  0  0  0  0
   -6.6803   -8.4301    1.7129 C   0  0  0  0  0  0  0  0  0  0  0  0
   -5.9206   -9.5549    2.3954 C   0  0  0  0  0  0  0  0  0  0  0  0
   -5.5427   -7.3732    1.5979 C   0  0  0  0  0  0  0  0  0  0  0  0
    7.7914    6.2367   -1.3095 H   0  0  0  0  0  0  0  0  0  0  0  0
    4.6723    3.2601    3.3208 H   0  0  0  0  0  0  0  0  0  0  0  0
    9.7563    3.4068    3.4301 H   0  0  0  0  0  0  0  0  0  0  0  0
    8.4229    2.4272    6.4609 H   0  0  0  0  0  0  0  0  0  0  0  0
    9.3528    0.2033    5.0664 H   0  0  0  0  0  0  0  0  0  0  0  0
    8.5341   -0.7597    7.3960 H   0  0  0  0  0  0  0  0  0  0  0  0
    5.9189   -0.7535    7.4170 H   0  0  0  0  0  0  0  0  0  0  0  0
    5.0712    0.2294    5.0899 H   0  0  0  0  0  0  0  0  0  0  0  0
    7.2044   -1.2074    4.3756 H   0  0  0  0  0  0  0  0  0  0  0  0
    7.1972    0.3652    3.4751 H   0  0  0  0  0  0  0  0  0  0  0  0
    6.0306    2.4425    6.4544 H   0  0  0  0  0  0  0  0  0  0  0  0
    2.8732    0.6483    1.1112 H   0  0  0  0  0  0  0  0  0  0  0  0
    2.3779    0.7886    3.5133 H   0  0  0  0  0  0  0  0  0  0  0  0
    3.5962    2.5388    5.5734 H   0  0  0  0  0  0  0  0  0  0  0  0
    3.2587    4.2742    5.1219 H   0  0  0  0  0  0  0  0  0  0  0  0
    2.8805    3.6688    6.7823 H   0  0  0  0  0  0  0  0  0  0  0  0
    1.0397    4.8464    3.0113 H   0  0  0  0  0  0  0  0  0  0  0  0
    1.5498    4.7269    0.6182 H   0  0  0  0  0  0  0  0  0  0  0  0
    2.2676    0.9226   -2.8817 H   0  0  0  0  0  0  0  0  0  0  0  0
    3.9881   -0.5882   -3.7682 H   0  0  0  0  0  0  0  0  0  0  0  0
    7.7966    0.8332   -3.8275 H   0  0  0  0  0  0  0  0  0  0  0  0
    6.4232    0.2753   -4.8855 H   0  0  0  0  0  0  0  0  0  0  0  0
    8.0069   -0.5917   -4.9166 H   0  0  0  0  0  0  0  0  0  0  0  0
    6.7579    0.7657   -0.7665 H   0  0  0  0  0  0  0  0  0  0  0  0
    5.0381    2.2672    0.1457 H   0  0  0  0  0  0  0  0  0  0  0  0
   -2.6828    5.5348   -1.4566 H   0  0  0  0  0  0  0  0  0  0  0  0
   -2.5499    7.9762   -1.7868 H   0  0  0  0  0  0  0  0  0  0  0  0
   -4.7213   10.9738   -3.8923 H   0  0  0  0  0  0  0  0  0  0  0  0
   -5.0937    9.3339   -4.5604 H   0  0  0  0  0  0  0  0  0  0  0  0
   -4.7184    9.5400   -2.7930 H   0  0  0  0  0  0  0  0  0  0  0  0
   -3.0620    7.4302   -6.0287 H   0  0  0  0  0  0  0  0  0  0  0  0
   -3.1595    4.9852   -5.7033 H   0  0  0  0  0  0  0  0  0  0  0  0
   -4.5340    2.9707   -5.4452 H   0  0  0  0  0  0  0  0  0  0  0  0
   -6.7290    1.8554   -5.3190 H   0  0  0  0  0  0  0  0  0  0  0  0
   -6.9353   -0.8291   -4.0246 H   0  0  0  0  0  0  0  0  0  0  0  0
   -8.2659   -1.4938   -3.0049 H   0  0  0  0  0  0  0  0  0  0  0  0
   -6.8116   -0.7693   -2.2157 H   0  0  0  0  0  0  0  0  0  0  0  0
   -6.5719    1.9960   -1.0227 H   0  0  0  0  0  0  0  0  0  0  0  0
   -4.3768    3.1277   -1.1386 H   0  0  0  0  0  0  0  0  0  0  0  0
   -2.7426    1.0311   -4.7325 H   0  0  0  0  0  0  0  0  0  0  0  0
   -3.3345   -1.2016   -5.5216 H   0  0  0  0  0  0  0  0  0  0  0  0
   -0.6339   -4.0726   -0.3138 H   0  0  0  0  0  0  0  0  0  0  0  0
    0.2541   -5.8764    1.0763 H   0  0  0  0  0  0  0  0  0  0  0  0
   -1.6469   -7.3346    4.0553 H   0  0  0  0  0  0  0  0  0  0  0  0
   -0.0170   -6.6055    3.8633 H   0  0  0  0  0  0  0  0  0  0  0  0
    0.4692   -8.0456    1.9348 H   0  0  0  0  0  0  0  0  0  0  0  0
   -1.2562   -8.5984    1.8430 H   0  0  0  0  0  0  0  0  0  0  0  0
   -0.2165   -9.0783    3.2406 H   0  0  0  0  0  0  0  0  0  0  0  0
   -3.2610   -5.6705    3.5752 H   0  0  0  0  0  0  0  0  0  0  0  0
   -4.1463   -3.8576    2.1746 H   0  0  0  0  0  0  0  0  0  0  0  0
   -0.5296   -0.3906    1.6014 H   0  0  0  0  0  0  0  0  0  0  0  0
   -0.1451    0.2317    3.9519 H   0  0  0  0  0  0  0  0  0  0  0  0
   -2.4957   -0.5100    6.7255 H   0  0  0  0  0  0  0  0  0  0  0  0
   -0.8491    0.0555    6.3055 H   0  0  0  0  0  0  0  0  0  0  0  0
   -1.8069    2.2516    5.5088 H   0  0  0  0  0  0  0  0  0  0  0  0
   -3.4639    1.6830    5.9738 H   0  0  0  0  0  0  0  0  0  0  0  0
   -2.1984    1.9235    7.2436 H   0  0  0  0  0  0  0  0  0  0  0  0
   -4.1934   -0.9070    4.9144 H   0  0  0  0  0  0  0  0  0  0  0  0
   -4.5768   -1.5222    2.5632 H   0  0  0  0  0  0  0  0  0  0  0  0
   -2.3856   -3.6513   -4.6924 H   0  0  0  0  0  0  0  0  0  0  0  0
   -6.6350   -4.9969   -0.2803 H   0  0  0  0  0  0  0  0  0  0  0  0
   -2.5805   -7.9157   -1.3356 H   0  0  0  0  0  0  0  0  0  0  0  0
   -3.5188   -8.0102    2.0051 H   0  0  0  0  0  0  0  0  0  0  0  0
   -4.1287  -10.4361    1.3924 H   0  0  0  0  0  0  0  0  0  0  0  0
   -5.7219  -10.4820   -0.7454 H   0  0  0  0  0  0  0  0  0  0  0  0
   -7.8196   -9.0520   -0.2277 H   0  0  0  0  0  0  0  0  0  0  0  0
   -7.5945   -8.0892    2.2381 H   0  0  0  0  0  0  0  0  0  0  0  0
   -5.4800   -9.2622    3.3783 H   0  0  0  0  0  0  0  0  0  0  0  0
   -6.5253  -10.4871    2.5276 H   0  0  0  0  0  0  0  0  0  0  0  0
   -5.4210   -6.7210    2.4878 H   0  0  0  0  0  0  0  0  0  0  0  0
  1  2  2  3
  2  3  1  0
  3  4  2  0
  3  5  1  0
  5  6  2  0
  6  7  1  0
  7  8  2  0
  8  9  1  0
  9 10  2  0
 10 11  1  0
 11 12  2  3
 12 13  1  0
 13 14  3  0
 12 15  1  0
 15 16  3  0
  8 17  1  0
 17 18  1  0
 18 19  1  0
 19 20  2  0
 20 21  1  0
 21 22  1  0
 21 23  1  0
  1 24  1  0
 24 25  2  0
 25 26  1  0
 26 27  1  0
 27 28  2  0
 28 29  2  0
 26 30  2  0
 30 31  1  0
 31 32  2  0
 32 33  1  0
 33 34  1  0
 34 35  2  0
 30 36  1  0
 36 37  2  0
 37 38  1  0
 38 39  1  0
 39 40  2  0
 40 41  1  0
 41 42  2  0
 42 43  1  0
 43 44  1  0
 42 45  1  0
 45 46  2  0
 38 47  1  0
 47 48  2  0
 48 49  1  0
 49 50  2  0
 50 51  1  0
 51 52  1  0
 50 53  1  0
 53 54  2  0
 37 55  1  0
 55 56  1  0
 56 57  1  0
 57 58  2  0
 58 59  1  0
 59 60  1  0
 60 61  2  0
 61 62  1  0
 62 63  2  0
 63 64  1  0
 64 65  1  0
 63 66  1  0
 66 67  2  0
 59 68  1  0
 68 69  2  0
 69 70  1  0
 70 71  2  0
 71 72  1  0
 72 73  1  0
 71 74  1  0
 74 75  2  0
 58 76  1  0
 76 77  1  0
 57 78  1  0
 78 79  2  0
 79 80  1  0
 80 81  2  0
 81 82  1  0
 82 83  2  0
 83 84  1  0
 84 85  1  0
 85 86  2  0
 86 87  1  0
 87 88  2  0
 88 89  1  0
 89 90  1  0
 88 91  1  0
 91 92  2  0
 84 93  2  0
 93 94  1  0
 94 95  2  0
 93 96  1  0
 96 97  2  0
 97 98  1  0
 98 99  2  0
 99100  1  0
100101  1  0
 99102  1  0
102103  2  0
 81104  1  0
104105  2  3
105106  1  0
106107  2  0
106108  1  0
108109  2  0
109110  1  0
110111  2  0
111112  1  0
112113  2  0
113114  1  0
114115  2  3
115116  1  0
116117  3  0
115118  1  0
118119  3  0
111120  1  0
120121  1  0
121122  1  0
122123  2  0
123124  1  0
124125  1  0
124126  1  0
 11  2  1  0
 23 17  1  0
 35 24  1  0
 77 36  1  0
 95 78  1  0
103 96  1  0
114105  1  0
126120  1  0
 10  5  1  0
 22 18  1  0
 29 25  1  0
 35 31  1  0
 46 39  1  0
 54 47  1  0
 76 55  2  0
 95 82  1  0
113108  1  0
125121  1  0
 23  7  1  0
 67 60  1  0
 75 68  1  0
 92 85  1  0
126110  1  0
  1127  1  0
  6128  1  0
  9129  1  0
 17130  1  0
 18131  1  0
 19132  1  0
 20133  1  0
 21134  1  0
 22135  1  0
 22136  1  0
 23137  1  0
 40138  1  0
 41139  1  0
 44140  1  0
 44141  1  0
 44142  1  0
 45143  1  0
 46144  1  0
 48145  1  0
 49146  1  0
 52147  1  0
 52148  1  0
 52149  1  0
 53150  1  0
 54151  1  0
 61152  1  0
 62153  1  0
 65154  1  0
 65155  1  0
 65156  1  0
 66157  1  0
 67158  1  0
 69159  1  0
 70160  1  0
 73161  1  0
 73162  1  0
 73163  1  0
 74164  1  0
 75165  1  0
 79166  1  0
 80167  1  0
 86168  1  0
 87169  1  0
 89170  1  0
 89171  1  0
 90172  1  0
 90173  1  0
 90174  1  0
 91175  1  0
 92176  1  0
 97177  1  0
 98178  1  0
100179  1  0
100180  1  0
101181  1  0
101182  1  0
101183  1  0
102184  1  0
103185  1  0
104186  1  0
109187  1  0
112188  1  0
120189  1  0
121190  1  0
122191  1  0
123192  1  0
124193  1  0
125194  1  0
125195  1  0
126196  1  0
M  END

