
     RDKit          3D

232255  0  0  0  0  0  0  0  0999 V2000
   -2.1514    4.3358   -6.8867 C   0  0  0  0  0  0  0  0  0  0  0  0
   -2.5552    3.2209   -7.5302 C   0  0  0  0  0  0  0  0  0  0  0  0
   -3.4237    2.2231   -6.8681 C   0  0  0  0  0  0  0  0  0  0  0  0
   -4.5610    1.9565   -7.3370 O   0  0  0  0  0  0  0  0  0  0  0  0
   -2.5542    1.1242   -6.5446 C   0  0  0  0  0  0  0  0  0  0  0  0
   -2.8494    0.0953   -5.6357 C   0  0  0  0  0  0  0  0  0  0  0  0
   -2.1782   -1.0789   -5.9273 C   0  0  0  0  0  0  0  0  0  0  0  0
   -1.2811   -1.2360   -7.0430 C   0  0  0  0  0  0  0  0  0  0  0  0
   -0.9041   -0.1730   -7.8583 C   0  0  0  0  0  0  0  0  0  0  0  0
   -1.5367    1.0624   -7.5309 C   0  0  0  0  0  0  0  0  0  0  0  0
   -1.5400    2.3716   -8.2433 C   0  0  0  0  0  0  0  0  0  0  0  0
   -0.7597    2.7780   -9.2778 C   0  0  0  0  0  0  0  0  0  0  0  0
    0.3018    1.9689   -9.8094 C   0  0  0  0  0  0  0  0  0  0  0  0
    1.1599    1.3158  -10.2363 N   0  0  0  0  0  0  0  0  0  0  0  0
   -0.9648    4.0625   -9.8925 C   0  0  0  0  0  0  0  0  0  0  0  0
   -1.1321    5.0976  -10.3818 N   0  0  0  0  0  0  0  0  0  0  0  0
   -1.3083   -2.7250   -6.8636 C   0  0  0  0  0  0  0  0  0  0  0  0
   -2.2267   -3.5249   -7.8537 C   0  0  0  0  0  0  0  0  0  0  0  0
   -2.3986   -4.9056   -7.2556 C   0  0  0  0  0  0  0  0  0  0  0  0
   -3.1679   -4.7429   -6.1699 C   0  0  0  0  0  0  0  0  0  0  0  0
   -3.5000   -3.2699   -6.0810 C   0  0  0  0  0  0  0  0  0  0  0  0
   -3.6232   -2.9738   -7.5704 C   0  0  0  0  0  0  0  0  0  0  0  0
   -2.1732   -2.5560   -5.6899 C   0  0  0  0  0  0  0  0  0  0  0  0
   -2.1010    4.3744   -5.4046 C   0  0  0  0  0  0  0  0  0  0  0  0
   -0.8920    4.3075   -4.7029 C   0  0  0  0  0  0  0  0  0  0  0  0
    0.3575    4.7903   -5.2195 N   0  0  0  0  0  0  0  0  0  0  0  0
    1.1417    4.0105   -6.1475 C   0  0  0  0  0  0  0  0  0  0  0  0
    1.2456    2.6177   -6.0018 C   0  0  0  0  0  0  0  0  0  0  0  0
    2.1609    1.9002   -6.7909 C   0  0  0  0  0  0  0  0  0  0  0  0
    2.9556    2.5649   -7.7381 C   0  0  0  0  0  0  0  0  0  0  0  0
    4.2093    1.6714   -8.6667 S   0  0  0  0  0  0  0  0  0  0  0  0
    5.5286    2.0489   -7.4699 C   0  0  0  0  0  0  0  0  0  0  0  0
    2.7829    3.9396   -7.9358 C   0  0  0  0  0  0  0  0  0  0  0  0
    1.8805    4.6587   -7.1491 C   0  0  0  0  0  0  0  0  0  0  0  0
    0.8626    6.0355   -4.6986 C   0  0  0  0  0  0  0  0  0  0  0  0
    2.1989    6.1580   -4.2928 C   0  0  0  0  0  0  0  0  0  0  0  0
    2.6476    7.3368   -3.6883 C   0  0  0  0  0  0  0  0  0  0  0  0
    1.7667    8.4079   -3.4810 C   0  0  0  0  0  0  0  0  0  0  0  0
    2.3281    9.8916   -2.6457 S   0  0  0  0  0  0  0  0  0  0  0  0
    1.8208    9.2905   -0.9963 C   0  0  0  0  0  0  0  0  0  0  0  0
    0.4425    8.3076   -3.9261 C   0  0  0  0  0  0  0  0  0  0  0  0
   -0.0111    7.1290   -4.5242 C   0  0  0  0  0  0  0  0  0  0  0  0
   -1.0795    3.9254   -3.3845 C   0  0  0  0  0  0  0  0  0  0  0  0
   -0.0358    3.3874   -2.1983 S   0  0  0  0  0  0  0  0  0  0  0  0
   -1.2635    2.8528   -1.1360 C   0  0  0  0  0  0  0  0  0  0  0  0
   -2.5149    3.1309   -1.7419 C   0  0  0  0  0  0  0  0  0  0  0  0
   -3.8162    2.9146   -1.1371 N   0  0  0  0  0  0  0  0  0  0  0  0
   -4.3794    1.5923   -1.0740 C   0  0  0  0  0  0  0  0  0  0  0  0
   -4.4432    0.8018   -2.2231 C   0  0  0  0  0  0  0  0  0  0  0  0
   -4.9914   -0.4805   -2.1761 C   0  0  0  0  0  0  0  0  0  0  0  0
   -5.4784   -0.9923   -0.9665 C   0  0  0  0  0  0  0  0  0  0  0  0
   -6.1119   -2.6771   -0.8888 S   0  0  0  0  0  0  0  0  0  0  0  0
   -7.8664   -2.1781   -0.9016 C   0  0  0  0  0  0  0  0  0  0  0  0
   -5.4387   -0.1950    0.1834 C   0  0  0  0  0  0  0  0  0  0  0  0
   -4.9388    1.1077    0.1210 C   0  0  0  0  0  0  0  0  0  0  0  0
   -4.6367    4.0787   -0.9092 C   0  0  0  0  0  0  0  0  0  0  0  0
   -6.0117    4.0567   -1.1949 C   0  0  0  0  0  0  0  0  0  0  0  0
   -6.7774    5.2236   -1.0755 C   0  0  0  0  0  0  0  0  0  0  0  0
   -6.1723    6.4234   -0.6788 C   0  0  0  0  0  0  0  0  0  0  0  0
   -7.1555    7.9201   -0.5134 S   0  0  0  0  0  0  0  0  0  0  0  0
   -7.4382    7.7134    1.2814 C   0  0  0  0  0  0  0  0  0  0  0  0
   -4.8043    6.4569   -0.3977 C   0  0  0  0  0  0  0  0  0  0  0  0
   -4.0409    5.2890   -0.5012 C   0  0  0  0  0  0  0  0  0  0  0  0
   -2.3607    3.7108   -3.0104 C   0  0  0  0  0  0  0  0  0  0  0  0
   -3.3900    4.0435   -4.3117 S   0  0  0  0  0  0  0  0  0  0  0  0
   -1.0289    1.9078   -0.0316 C   0  0  0  0  0  0  0  0  0  0  0  0
   -0.1774    0.7929   -0.1650 C   0  0  0  0  0  0  0  0  0  0  0  0
    1.1956    0.9389   -0.5873 N   0  0  0  0  0  0  0  0  0  0  0  0
    2.0217    1.9029    0.0905 C   0  0  0  0  0  0  0  0  0  0  0  0
    2.0072    2.0128    1.4940 C   0  0  0  0  0  0  0  0  0  0  0  0
    2.8656    2.9000    2.1504 C   0  0  0  0  0  0  0  0  0  0  0  0
    3.7348    3.7132    1.4029 C   0  0  0  0  0  0  0  0  0  0  0  0
    4.8104    4.8932    2.2260 S   0  0  0  0  0  0  0  0  0  0  0  0
    6.1124    3.6723    2.5966 C   0  0  0  0  0  0  0  0  0  0  0  0
    3.7567    3.6063    0.0078 C   0  0  0  0  0  0  0  0  0  0  0  0
    2.9172    2.7031   -0.6474 C   0  0  0  0  0  0  0  0  0  0  0  0
    1.8503   -0.0450   -1.3931 C   0  0  0  0  0  0  0  0  0  0  0  0
    2.8672   -0.8327   -0.8256 C   0  0  0  0  0  0  0  0  0  0  0  0
    3.7513   -1.5400   -1.6465 C   0  0  0  0  0  0  0  0  0  0  0  0
    3.6516   -1.4280   -3.0397 C   0  0  0  0  0  0  0  0  0  0  0  0
    4.9429   -2.0951   -4.1028 S   0  0  0  0  0  0  0  0  0  0  0  0
    6.0123   -0.6255   -3.9026 C   0  0  0  0  0  0  0  0  0  0  0  0
    2.5960   -0.6948   -3.6021 C   0  0  0  0  0  0  0  0  0  0  0  0
    1.7003   -0.0045   -2.7799 C   0  0  0  0  0  0  0  0  0  0  0  0
   -0.5685   -0.2149    0.7137 C   0  0  0  0  0  0  0  0  0  0  0  0
   -0.1291   -1.8155    0.9416 S   0  0  0  0  0  0  0  0  0  0  0  0
   -1.1681   -2.0400    2.2707 C   0  0  0  0  0  0  0  0  0  0  0  0
   -1.8695   -0.8642    2.5458 C   0  0  0  0  0  0  0  0  0  0  0  0
   -2.3648   -0.5407    3.8545 N   0  0  0  0  0  0  0  0  0  0  0  0
   -1.4203   -0.1890    4.8842 C   0  0  0  0  0  0  0  0  0  0  0  0
   -1.4809   -0.7994    6.1483 C   0  0  0  0  0  0  0  0  0  0  0  0
   -0.6386   -0.3880    7.1869 C   0  0  0  0  0  0  0  0  0  0  0  0
    0.2943    0.6407    6.9682 C   0  0  0  0  0  0  0  0  0  0  0  0
    1.3633    1.1834    8.3090 S   0  0  0  0  0  0  0  0  0  0  0  0
    0.2734    2.5681    8.7750 C   0  0  0  0  0  0  0  0  0  0  0  0
    0.3811    1.2363    5.7102 C   0  0  0  0  0  0  0  0  0  0  0  0
   -0.4682    0.8306    4.6740 C   0  0  0  0  0  0  0  0  0  0  0  0
   -3.7753   -0.5247    4.1434 C   0  0  0  0  0  0  0  0  0  0  0  0
   -4.2971    0.4312    5.0343 C   0  0  0  0  0  0  0  0  0  0  0  0
   -5.6384    0.3937    5.4252 C   0  0  0  0  0  0  0  0  0  0  0  0
   -6.4819   -0.6007    4.9120 C   0  0  0  0  0  0  0  0  0  0  0  0
   -8.1828   -0.7127    5.4806 S   0  0  0  0  0  0  0  0  0  0  0  0
   -8.8189    0.4727    4.2566 C   0  0  0  0  0  0  0  0  0  0  0  0
   -5.9809   -1.5343    3.9937 C   0  0  0  0  0  0  0  0  0  0  0  0
   -4.6342   -1.4951    3.6059 C   0  0  0  0  0  0  0  0  0  0  0  0
   -1.5268    0.1236    1.6162 C   0  0  0  0  0  0  0  0  0  0  0  0
   -2.0586    1.6843    1.3077 S   0  0  0  0  0  0  0  0  0  0  0  0
   -1.4569   -3.3522    2.8497 C   0  0  0  0  0  0  0  0  0  0  0  0
   -0.7482   -3.8617    3.8512 C   0  0  0  0  0  0  0  0  0  0  0  0
   -0.6632   -5.3130    3.7085 C   0  0  0  0  0  0  0  0  0  0  0  0
   -1.5493   -5.6144    2.6192 C   0  0  0  0  0  0  0  0  0  0  0  0
   -1.8978   -6.7719    2.2454 O   0  0  0  0  0  0  0  0  0  0  0  0
   -2.0263   -4.3930    2.0484 N   0  0  0  0  0  0  0  0  0  0  0  0
   -3.1608   -4.2536    1.1411 C   0  0  0  0  0  0  0  0  0  0  0  0
   -2.8815   -4.9329   -0.2008 C   0  0  0  0  0  0  0  0  0  0  0  0
    0.6320   -5.6597    3.7481 C   0  0  0  0  0  0  0  0  0  0  0  0
    1.4827   -4.5480    4.0790 N   0  0  0  0  0  0  0  0  0  0  0  0
    2.7998   -4.3638    3.4735 C   0  0  0  0  0  0  0  0  0  0  0  0
    2.6945   -3.5168    2.2089 C   0  0  0  0  0  0  0  0  0  0  0  0
    0.5786   -3.4733    4.2635 C   0  0  0  0  0  0  0  0  0  0  0  0
    0.9190   -2.3253    4.6411 O   0  0  0  0  0  0  0  0  0  0  0  0
    1.0902   -7.0475    3.9561 C   0  0  0  0  0  0  0  0  0  0  0  0
    1.3227   -7.4979    5.2084 C   0  0  0  0  0  0  0  0  0  0  0  0
    2.6364   -8.0448    5.5872 C   0  0  0  0  0  0  0  0  0  0  0  0
    3.4031   -8.7304    4.8587 O   0  0  0  0  0  0  0  0  0  0  0  0
    3.0015   -7.4807    6.8826 C   0  0  0  0  0  0  0  0  0  0  0  0
    4.2769   -7.4840    7.4966 C   0  0  0  0  0  0  0  0  0  0  0  0
    4.3679   -6.6043    8.5649 C   0  0  0  0  0  0  0  0  0  0  0  0
    3.2794   -5.7866    9.0155 C   0  0  0  0  0  0  0  0  0  0  0  0
    2.0220   -5.7925    8.4361 C   0  0  0  0  0  0  0  0  0  0  0  0
    1.9093   -6.6858    7.3459 C   0  0  0  0  0  0  0  0  0  0  0  0
    0.7794   -6.8446    6.4231 C   0  0  0  0  0  0  0  0  0  0  0  0
   -0.5306   -6.7844    6.7406 C   0  0  0  0  0  0  0  0  0  0  0  0
   -1.5309   -7.3535    5.8832 C   0  0  0  0  0  0  0  0  0  0  0  0
   -2.3428   -7.8336    5.2088 N   0  0  0  0  0  0  0  0  0  0  0  0
   -1.0216   -6.0287    7.8653 C   0  0  0  0  0  0  0  0  0  0  0  0
   -1.4544   -5.3957    8.7400 N   0  0  0  0  0  0  0  0  0  0  0  0
    4.1695   -5.0941    9.9977 C   0  0  0  0  0  0  0  0  0  0  0  0
    4.6344   -3.6374    9.6609 C   0  0  0  0  0  0  0  0  0  0  0  0
    4.7084   -3.4390    8.1640 C   0  0  0  0  0  0  0  0  0  0  0  0
    5.7110   -4.2005    7.7246 C   0  0  0  0  0  0  0  0  0  0  0  0
    6.2992   -4.8832    8.9461 C   0  0  0  0  0  0  0  0  0  0  0  0
    6.1122   -3.7635    9.9439 C   0  0  0  0  0  0  0  0  0  0  0  0
    5.2951   -5.9275    9.5337 C   0  0  0  0  0  0  0  0  0  0  0  0
   -1.3895    4.9219   -7.3786 H   0  0  0  0  0  0  0  0  0  0  0  0
   -3.7038    0.1049   -4.9678 H   0  0  0  0  0  0  0  0  0  0  0  0
   -0.3047   -0.3332   -8.7470 H   0  0  0  0  0  0  0  0  0  0  0  0
   -0.3152   -3.1822   -6.6476 H   0  0  0  0  0  0  0  0  0  0  0  0
   -1.9115   -3.5078   -8.9132 H   0  0  0  0  0  0  0  0  0  0  0  0
   -2.0644   -5.8562   -7.6821 H   0  0  0  0  0  0  0  0  0  0  0  0
   -3.5762   -5.5443   -5.5578 H   0  0  0  0  0  0  0  0  0  0  0  0
   -4.3844   -3.0220   -5.4535 H   0  0  0  0  0  0  0  0  0  0  0  0
   -3.7517   -1.8909   -7.8111 H   0  0  0  0  0  0  0  0  0  0  0  0
   -4.4411   -3.5453   -8.0691 H   0  0  0  0  0  0  0  0  0  0  0  0
   -1.7180   -2.8514   -4.7198 H   0  0  0  0  0  0  0  0  0  0  0  0
    0.6661    2.0838   -5.2534 H   0  0  0  0  0  0  0  0  0  0  0  0
    2.2596    0.8303   -6.6576 H   0  0  0  0  0  0  0  0  0  0  0  0
    5.6233    3.1493   -7.3118 H   0  0  0  0  0  0  0  0  0  0  0  0
    5.3197    1.5541   -6.4961 H   0  0  0  0  0  0  0  0  0  0  0  0
    6.4911    1.6639   -7.8657 H   0  0  0  0  0  0  0  0  0  0  0  0
    3.3592    4.4573   -8.6905 H   0  0  0  0  0  0  0  0  0  0  0  0
    1.7945    5.7267   -7.2938 H   0  0  0  0  0  0  0  0  0  0  0  0
    2.8883    5.3256   -4.4065 H   0  0  0  0  0  0  0  0  0  0  0  0
    3.6767    7.4070   -3.3590 H   0  0  0  0  0  0  0  0  0  0  0  0
    2.3124    8.3226   -0.7577 H   0  0  0  0  0  0  0  0  0  0  0  0
    0.7158    9.1656   -0.9463 H   0  0  0  0  0  0  0  0  0  0  0  0
    2.1232   10.0333   -0.2286 H   0  0  0  0  0  0  0  0  0  0  0  0
   -0.2436    9.1397   -3.7876 H   0  0  0  0  0  0  0  0  0  0  0  0
   -1.0451    7.0676   -4.8340 H   0  0  0  0  0  0  0  0  0  0  0  0
   -4.0757    1.2108   -3.1539 H   0  0  0  0  0  0  0  0  0  0  0  0
   -5.0346   -1.0737   -3.0775 H   0  0  0  0  0  0  0  0  0  0  0  0
   -8.0440   -1.3200   -0.2239 H   0  0  0  0  0  0  0  0  0  0  0  0
   -8.1875   -1.9302   -1.9445 H   0  0  0  0  0  0  0  0  0  0  0  0
   -8.4874   -3.0313   -0.5373 H   0  0  0  0  0  0  0  0  0  0  0  0
   -5.8270   -0.5746    1.1238 H   0  0  0  0  0  0  0  0  0  0  0  0
   -4.9451    1.7234    1.0168 H   0  0  0  0  0  0  0  0  0  0  0  0
   -6.5027    3.1477   -1.5262 H   0  0  0  0  0  0  0  0  0  0  0  0
   -7.8311    5.1926   -1.3165 H   0  0  0  0  0  0  0  0  0  0  0  0
   -6.8031    6.9205    1.7375 H   0  0  0  0  0  0  0  0  0  0  0  0
   -7.2106    8.6716    1.7861 H   0  0  0  0  0  0  0  0  0  0  0  0
   -8.5058    7.4630    1.4576 H   0  0  0  0  0  0  0  0  0  0  0  0
   -4.3242    7.3830   -0.0997 H   0  0  0  0  0  0  0  0  0  0  0  0
   -2.9838    5.3346   -0.2773 H   0  0  0  0  0  0  0  0  0  0  0  0
    1.3586    1.3856    2.0896 H   0  0  0  0  0  0  0  0  0  0  0  0
    2.8461    2.9732    3.2360 H   0  0  0  0  0  0  0  0  0  0  0  0
    6.1912    2.8949    1.8065 H   0  0  0  0  0  0  0  0  0  0  0  0
    7.0824    4.1946    2.6538 H   0  0  0  0  0  0  0  0  0  0  0  0
    5.8978    3.1884    3.5718 H   0  0  0  0  0  0  0  0  0  0  0  0
    4.4180    4.2391   -0.5757 H   0  0  0  0  0  0  0  0  0  0  0  0
    2.9340    2.6352   -1.7310 H   0  0  0  0  0  0  0  0  0  0  0  0
    3.0177   -0.8478    0.2434 H   0  0  0  0  0  0  0  0  0  0  0  0
    4.5740   -2.0960   -1.2059 H   0  0  0  0  0  0  0  0  0  0  0  0
    5.4012    0.2846   -3.9391 H   0  0  0  0  0  0  0  0  0  0  0  0
    6.5570   -0.6797   -2.9384 H   0  0  0  0  0  0  0  0  0  0  0  0
    6.7338   -0.5712   -4.7405 H   0  0  0  0  0  0  0  0  0  0  0  0
    2.5218   -0.5957   -4.6756 H   0  0  0  0  0  0  0  0  0  0  0  0
    0.9540    0.6413   -3.2243 H   0  0  0  0  0  0  0  0  0  0  0  0
   -2.2056   -1.5788    6.3225 H   0  0  0  0  0  0  0  0  0  0  0  0
   -0.6915   -0.8793    8.1450 H   0  0  0  0  0  0  0  0  0  0  0  0
    0.1071    3.2390    7.9060 H   0  0  0  0  0  0  0  0  0  0  0  0
   -0.7060    2.1941    9.1453 H   0  0  0  0  0  0  0  0  0  0  0  0
    0.7710    3.1503    9.5722 H   0  0  0  0  0  0  0  0  0  0  0  0
    1.1034    2.0262    5.5230 H   0  0  0  0  0  0  0  0  0  0  0  0
   -0.4032    1.3629    3.7308 H   0  0  0  0  0  0  0  0  0  0  0  0
   -3.6707    1.2030    5.4588 H   0  0  0  0  0  0  0  0  0  0  0  0
   -6.0145    1.1196    6.1410 H   0  0  0  0  0  0  0  0  0  0  0  0
   -8.5922    0.1212    3.2272 H   0  0  0  0  0  0  0  0  0  0  0  0
   -9.9184    0.5521    4.3782 H   0  0  0  0  0  0  0  0  0  0  0  0
   -8.3692    1.4727    4.4233 H   0  0  0  0  0  0  0  0  0  0  0  0
   -6.6245   -2.3091    3.5960 H   0  0  0  0  0  0  0  0  0  0  0  0
   -4.2544   -2.2532    2.9297 H   0  0  0  0  0  0  0  0  0  0  0  0
   -3.3651   -3.1851    0.9592 H   0  0  0  0  0  0  0  0  0  0  0  0
   -4.0636   -4.6999    1.6219 H   0  0  0  0  0  0  0  0  0  0  0  0
   -2.1684   -5.7773   -0.0969 H   0  0  0  0  0  0  0  0  0  0  0  0
   -3.8404   -5.3297   -0.6195 H   0  0  0  0  0  0  0  0  0  0  0  0
   -2.4502   -4.1928   -0.9060 H   0  0  0  0  0  0  0  0  0  0  0  0
    3.2688   -5.3361    3.2257 H   0  0  0  0  0  0  0  0  0  0  0  0
    3.4631   -3.8311    4.1982 H   0  0  0  0  0  0  0  0  0  0  0  0
    1.9036   -3.9239    1.5402 H   0  0  0  0  0  0  0  0  0  0  0  0
    3.6425   -3.5136    1.6391 H   0  0  0  0  0  0  0  0  0  0  0  0
    2.4464   -2.4675    2.4715 H   0  0  0  0  0  0  0  0  0  0  0  0
    1.6410   -7.4984    3.1341 H   0  0  0  0  0  0  0  0  0  0  0  0
    5.1273   -8.0213    7.1044 H   0  0  0  0  0  0  0  0  0  0  0  0
    1.2647   -5.0785    8.7179 H   0  0  0  0  0  0  0  0  0  0  0  0
    3.8873   -5.2581   11.0630 H   0  0  0  0  0  0  0  0  0  0  0  0
    4.1083   -2.8263   10.2109 H   0  0  0  0  0  0  0  0  0  0  0  0
    3.9982   -2.9003    7.5388 H   0  0  0  0  0  0  0  0  0  0  0  0
    5.9741   -4.3899    6.6827 H   0  0  0  0  0  0  0  0  0  0  0  0
    7.3395   -5.2512    8.8214 H   0  0  0  0  0  0  0  0  0  0  0  0
    6.3529   -4.0504   10.9982 H   0  0  0  0  0  0  0  0  0  0  0  0
    6.7005   -2.8409    9.6839 H   0  0  0  0  0  0  0  0  0  0  0  0
    5.7125   -6.5992   10.3241 H   0  0  0  0  0  0  0  0  0  0  0  0
  1  2  2  3
  2  3  1  0
  3  4  2  0
  3  5  1  0
  5  6  2  0
  6  7  1  0
  7  8  2  0
  8  9  1  0
  9 10  2  0
 10 11  1  0
 11 12  2  3
 12 13  1  0
 13 14  3  0
 12 15  1  0
 15 16  3  0
  8 17  1  0
 17 18  1  0
 18 19  1  0
 19 20  2  0
 20 21  1  0
 21 22  1  0
 21 23  1  0
  1 24  1  0
 24 25  2  0
 25 26  1  0
 26 27  1  0
 27 28  2  0
 28 29  1  0
 29 30  2  0
 30 31  1  0
 31 32  1  0
 30 33  1  0
 33 34  2  0
 26 35  1  0
 35 36  2  0
 36 37  1  0
 37 38  2  0
 38 39  1  0
 39 40  1  0
 38 41  1  0
 41 42  2  0
 25 43  1  0
 43 44  1  0
 44 45  1  0
 45 46  2  0
 46 47  1  0
 47 48  1  0
 48 49  2  0
 49 50  1  0
 50 51  2  0
 51 52  1  0
 52 53  1  0
 51 54  1  0
 54 55  2  0
 47 56  1  0
 56 57  2  0
 57 58  1  0
 58 59  2  0
 59 60  1  0
 60 61  1  0
 59 62  1  0
 62 63  2  0
 46 64  1  0
 64 65  1  0
 45 66  1  0
 66 67  2  0
 67 68  1  0
 68 69  1  0
 69 70  2  0
 70 71  1  0
 71 72  2  0
 72 73  1  0
 73 74  1  0
 72 75  1  0
 75 76  2  0
 68 77  1  0
 77 78  2  0
 78 79  1  0
 79 80  2  0
 80 81  1  0
 81 82  1  0
 80 83  1  0
 83 84  2  0
 67 85  1  0
 85 86  1  0
 86 87  1  0
 87 88  2  0
 88 89  1  0
 89 90  1  0
 90 91  2  0
 91 92  1  0
 92 93  2  0
 93 94  1  0
 94 95  1  0
 93 96  1  0
 96 97  2  0
 89 98  1  0
 98 99  2  0
 99100  1  0
100101  2  0
101102  1  0
102103  1  0
101104  1  0
104105  2  0
 88106  1  0
106107  1  0
 87108  1  0
108109  2  0
109110  1  0
110111  1  0
111112  2  0
111113  1  0
113114  1  0
114115  1  0
110116  2  0
116117  1  0
117118  1  0
118119  1  0
117120  1  0
120121  2  0
116122  1  0
122123  2  3
123124  1  0
124125  2  0
124126  1  0
126127  2  0
127128  1  0
128129  2  0
129130  1  0
130131  2  0
131132  1  0
132133  2  3
133134  1  0
134135  3  0
133136  1  0
136137  3  0
129138  1  0
138139  1  0
139140  1  0
140141  2  0
141142  1  0
142143  1  0
142144  1  0
 11  2  1  0
 23 17  1  0
 65 24  1  0
107 66  1  0
113108  1  0
132123  1  0
144138  1  0
 10  5  1  0
 22 18  1  0
 34 27  1  0
 42 35  1  0
 64 43  2  0
 76 69  1  0
 84 77  1  0
106 85  2  0
120109  1  0
131126  1  0
143139  1  0
 23  7  1  0
 55 48  1  0
 63 56  1  0
 97 90  1  0
105 98  1  0
144128  1  0
  1145  1  0
  6146  1  0
  9147  1  0
 17148  1  0
 18149  1  0
 19150  1  0
 20151  1  0
 21152  1  0
 22153  1  0
 22154  1  0
 23155  1  0
 28156  1  0
 29157  1  0
 32158  1  0
 32159  1  0
 32160  1  0
 33161  1  0
 34162  1  0
 36163  1  0
 37164  1  0
 40165  1  0
 40166  1  0
 40167  1  0
 41168  1  0
 42169  1  0
 49170  1  0
 50171  1  0
 53172  1  0
 53173  1  0
 53174  1  0
 54175  1  0
 55176  1  0
 57177  1  0
 58178  1  0
 61179  1  0
 61180  1  0
 61181  1  0
 62182  1  0
 63183  1  0
 70184  1  0
 71185  1  0
 74186  1  0
 74187  1  0
 74188  1  0
 75189  1  0
 76190  1  0
 78191  1  0
 79192  1  0
 82193  1  0
 82194  1  0
 82195  1  0
 83196  1  0
 84197  1  0
 91198  1  0
 92199  1  0
 95200  1  0
 95201  1  0
 95202  1  0
 96203  1  0
 97204  1  0
 99205  1  0
100206  1  0
103207  1  0
103208  1  0
103209  1  0
104210  1  0
105211  1  0
114212  1  0
114213  1  0
115214  1  0
115215  1  0
115216  1  0
118217  1  0
118218  1  0
119219  1  0
119220  1  0
119221  1  0
122222  1  0
127223  1  0
130224  1  0
138225  1  0
139226  1  0
140227  1  0
141228  1  0
142229  1  0
143230  1  0
143231  1  0
144232  1  0
M  END

