
     RDKit          3D

174190  0  0  0  0  0  0  0  0999 V2000
    5.8944    2.2801   -2.9994 C   0  0  0  0  0  0  0  0  0  0  0  0
    6.7343    2.0793   -1.9709 C   0  0  0  0  0  0  0  0  0  0  0  0
    6.3336    1.5797   -0.6323 C   0  0  0  0  0  0  0  0  0  0  0  0
    5.1550    1.4935   -0.1668 O   0  0  0  0  0  0  0  0  0  0  0  0
    7.5344    1.1561    0.0475 C   0  0  0  0  0  0  0  0  0  0  0  0
    7.5424    0.6499    1.3634 C   0  0  0  0  0  0  0  0  0  0  0  0
    8.8412    0.3579    1.7742 C   0  0  0  0  0  0  0  0  0  0  0  0
    9.9967    0.5530    0.9679 C   0  0  0  0  0  0  0  0  0  0  0  0
    9.9728    1.0794   -0.3087 C   0  0  0  0  0  0  0  0  0  0  0  0
    8.6624    1.3660   -0.7801 C   0  0  0  0  0  0  0  0  0  0  0  0
    8.2001    1.9691   -2.0947 C   0  0  0  0  0  0  0  0  0  0  0  0
    8.9735    2.4926   -3.0850 C   0  0  0  0  0  0  0  0  0  0  0  0
    8.7827    3.9087   -3.3219 C   0  0  0  0  0  0  0  0  0  0  0  0
    8.5920    5.0410   -3.5567 N   0  0  0  0  0  0  0  0  0  0  0  0
   10.3802    2.1730   -3.1820 C   0  0  0  0  0  0  0  0  0  0  0  0
   11.5386    2.0333   -3.1855 N   0  0  0  0  0  0  0  0  0  0  0  0
   10.8982    0.3463    2.1413 C   0  0  0  0  0  0  0  0  0  0  0  0
   11.6085    1.6273    2.7650 C   0  0  0  0  0  0  0  0  0  0  0  0
   12.0893    1.1936    4.1422 C   0  0  0  0  0  0  0  0  0  0  0  0
   10.9808    1.0990    4.8979 C   0  0  0  0  0  0  0  0  0  0  0  0
    9.8092    1.4385    4.0031 C   0  0  0  0  0  0  0  0  0  0  0  0
   10.4437    2.5797    3.1879 C   0  0  0  0  0  0  0  0  0  0  0  0
    9.7155    0.2056    2.9909 C   0  0  0  0  0  0  0  0  0  0  0  0
    4.5594    1.6164   -3.0130 C   0  0  0  0  0  0  0  0  0  0  0  0
    3.3841    2.3230   -3.3356 C   0  0  0  0  0  0  0  0  0  0  0  0
    3.4658    3.6489   -3.6496 F   0  0  0  0  0  0  0  0  0  0  0  0
    2.1503    1.6575   -3.3220 C   0  0  0  0  0  0  0  0  0  0  0  0
    1.1548    2.1631   -4.0463 F   0  0  0  0  0  0  0  0  0  0  0  0
    2.0308    0.4126   -2.7187 C   0  0  0  0  0  0  0  0  0  0  0  0
    3.1991   -0.3952   -2.7012 C   0  0  0  0  0  0  0  0  0  0  0  0
    3.1379   -1.7558   -2.6422 N   0  0  0  0  0  0  0  0  0  0  0  0
    4.2588   -2.5302   -2.5930 C   0  0  0  0  0  0  0  0  0  0  0  0
    4.0426   -4.0216   -2.6715 C   0  0  0  0  0  0  0  0  0  0  0  0
    4.0899   -4.7074   -1.3037 C   0  0  0  0  0  0  0  0  0  0  0  0
    5.5127   -1.9009   -2.5396 C   0  0  0  0  0  0  0  0  0  0  0  0
    5.5805   -0.5530   -2.6658 N   0  0  0  0  0  0  0  0  0  0  0  0
    4.4531    0.2270   -2.8103 C   0  0  0  0  0  0  0  0  0  0  0  0
    6.8098   -2.6551   -2.4267 C   0  0  0  0  0  0  0  0  0  0  0  0
    7.2445   -2.7085   -0.9605 C   0  0  0  0  0  0  0  0  0  0  0  0
    0.7570   -0.0643   -2.1068 C   0  0  0  0  0  0  0  0  0  0  0  0
   -0.4104    0.6684   -1.7915 C   0  0  0  0  0  0  0  0  0  0  0  0
   -0.5375    2.1258   -1.7152 N   0  0  0  0  0  0  0  0  0  0  0  0
   -1.4374    2.9193   -2.5564 C   0  0  0  0  0  0  0  0  0  0  0  0
   -0.9093    3.9426   -3.3768 C   0  0  0  0  0  0  0  0  0  0  0  0
   -1.7483    4.9520   -3.8888 C   0  0  0  0  0  0  0  0  0  0  0  0
   -3.0942    5.0131   -3.5358 C   0  0  0  0  0  0  0  0  0  0  0  0
   -4.1545    6.3092   -4.2211 S   0  0  0  0  0  0  0  0  0  0  0  0
   -3.5140    7.6464   -3.1429 C   0  0  0  0  0  0  0  0  0  0  0  0
   -3.6284    4.0050   -2.7158 C   0  0  0  0  0  0  0  0  0  0  0  0
   -2.8074    2.9401   -2.2861 C   0  0  0  0  0  0  0  0  0  0  0  0
   -0.0049    2.8144   -0.5420 C   0  0  0  0  0  0  0  0  0  0  0  0
   -0.8817    3.5520    0.3076 C   0  0  0  0  0  0  0  0  0  0  0  0
   -0.3889    4.3512    1.3402 C   0  0  0  0  0  0  0  0  0  0  0  0
    0.9761    4.4513    1.5812 C   0  0  0  0  0  0  0  0  0  0  0  0
    1.5972    5.5862    2.8126 S   0  0  0  0  0  0  0  0  0  0  0  0
    1.7501    4.3699    4.1570 C   0  0  0  0  0  0  0  0  0  0  0  0
    1.8726    3.7448    0.7501 C   0  0  0  0  0  0  0  0  0  0  0  0
    1.3910    2.9022   -0.2884 C   0  0  0  0  0  0  0  0  0  0  0  0
   -1.3355   -0.2148   -1.1934 C   0  0  0  0  0  0  0  0  0  0  0  0
   -2.7589    0.0339   -0.4058 S   0  0  0  0  0  0  0  0  0  0  0  0
   -2.9903   -1.6416   -0.0268 C   0  0  0  0  0  0  0  0  0  0  0  0
   -1.7443   -2.2918   -0.0598 C   0  0  0  0  0  0  0  0  0  0  0  0
   -1.1535   -2.6456    1.2184 N   0  0  0  0  0  0  0  0  0  0  0  0
   -0.4342   -3.8939    1.4621 C   0  0  0  0  0  0  0  0  0  0  0  0
   -0.7506   -5.0963    0.7948 C   0  0  0  0  0  0  0  0  0  0  0  0
   -0.1594   -6.3125    1.2340 C   0  0  0  0  0  0  0  0  0  0  0  0
    0.7790   -6.3344    2.2880 C   0  0  0  0  0  0  0  0  0  0  0  0
    1.5046   -7.8789    2.8585 S   0  0  0  0  0  0  0  0  0  0  0  0
    0.4077   -8.0506    4.3006 C   0  0  0  0  0  0  0  0  0  0  0  0
    1.1783   -5.1298    2.8678 C   0  0  0  0  0  0  0  0  0  0  0  0
    0.6136   -3.9224    2.4589 C   0  0  0  0  0  0  0  0  0  0  0  0
   -1.3241   -1.6899    2.3086 C   0  0  0  0  0  0  0  0  0  0  0  0
   -2.1005   -1.9973    3.4427 C   0  0  0  0  0  0  0  0  0  0  0  0
   -2.3134   -1.0098    4.4292 C   0  0  0  0  0  0  0  0  0  0  0  0
   -1.8939    0.3143    4.1884 C   0  0  0  0  0  0  0  0  0  0  0  0
   -2.4789    1.6338    5.2550 S   0  0  0  0  0  0  0  0  0  0  0  0
   -4.2198    1.5576    4.6193 C   0  0  0  0  0  0  0  0  0  0  0  0
   -1.0269    0.5888    3.1416 C   0  0  0  0  0  0  0  0  0  0  0  0
   -0.7104   -0.4196    2.2244 C   0  0  0  0  0  0  0  0  0  0  0  0
   -0.9551   -1.5378   -0.9663 C   0  0  0  0  0  0  0  0  0  0  0  0
    0.6414   -1.6484   -1.3772 S   0  0  0  0  0  0  0  0  0  0  0  0
   -4.2849   -2.2519    0.4452 C   0  0  0  0  0  0  0  0  0  0  0  0
   -4.3739   -3.4352    1.2075 C   0  0  0  0  0  0  0  0  0  0  0  0
   -3.2861   -4.0850    1.6810 F   0  0  0  0  0  0  0  0  0  0  0  0
   -5.6328   -3.9750    1.5815 C   0  0  0  0  0  0  0  0  0  0  0  0
   -5.6813   -5.0316    2.4347 F   0  0  0  0  0  0  0  0  0  0  0  0
   -6.8252   -3.4728    1.0329 C   0  0  0  0  0  0  0  0  0  0  0  0
   -6.7724   -2.4065    0.1345 C   0  0  0  0  0  0  0  0  0  0  0  0
   -7.8846   -1.9711   -0.5670 N   0  0  0  0  0  0  0  0  0  0  0  0
   -7.8232   -0.9213   -1.4446 C   0  0  0  0  0  0  0  0  0  0  0  0
   -9.0190   -0.6781   -2.3163 C   0  0  0  0  0  0  0  0  0  0  0  0
   -8.6532   -0.5968   -3.8097 C   0  0  0  0  0  0  0  0  0  0  0  0
   -6.6102   -0.2101   -1.5503 C   0  0  0  0  0  0  0  0  0  0  0  0
   -5.4941   -0.7382   -0.9882 N   0  0  0  0  0  0  0  0  0  0  0  0
   -5.5108   -1.7982   -0.1401 C   0  0  0  0  0  0  0  0  0  0  0  0
   -6.4253    1.1244   -2.2024 C   0  0  0  0  0  0  0  0  0  0  0  0
   -5.5445    0.9703   -3.4360 C   0  0  0  0  0  0  0  0  0  0  0  0
   -8.1203   -3.9173    1.6375 C   0  0  0  0  0  0  0  0  0  0  0  0
   -8.8808   -3.1058    2.4409 C   0  0  0  0  0  0  0  0  0  0  0  0
  -10.3169   -3.5046    2.5750 C   0  0  0  0  0  0  0  0  0  0  0  0
  -10.7702   -4.6670    2.7414 O   0  0  0  0  0  0  0  0  0  0  0  0
  -11.1326   -2.3281    2.3625 C   0  0  0  0  0  0  0  0  0  0  0  0
  -12.6603   -2.0832    1.7269 S   0  0  0  0  0  0  0  0  0  0  0  0
  -12.3116   -0.5133    1.2190 C   0  0  0  0  0  0  0  0  0  0  0  0
  -13.5354    0.6475    0.3034 Br  0  0  0  0  0  0  0  0  0  0  0  0
  -10.9941   -0.1648    1.4915 C   0  0  0  0  0  0  0  0  0  0  0  0
  -10.3451   -1.2299    2.1423 C   0  0  0  0  0  0  0  0  0  0  0  0
   -8.9294   -1.5830    2.2947 C   0  0  0  0  0  0  0  0  0  0  0  0
   -7.9091   -0.6939    2.5212 C   0  0  0  0  0  0  0  0  0  0  0  0
   -6.6749   -1.1548    3.0878 C   0  0  0  0  0  0  0  0  0  0  0  0
   -5.6967   -1.5452    3.5660 N   0  0  0  0  0  0  0  0  0  0  0  0
   -8.1749    0.7072    2.6143 C   0  0  0  0  0  0  0  0  0  0  0  0
   -8.3280    1.8518    2.6854 N   0  0  0  0  0  0  0  0  0  0  0  0
    6.2373    2.5925   -3.9903 H   0  0  0  0  0  0  0  0  0  0  0  0
    6.6618    0.5442    2.0271 H   0  0  0  0  0  0  0  0  0  0  0  0
   10.8703    1.4049   -0.7945 H   0  0  0  0  0  0  0  0  0  0  0  0
   11.5533   -0.5639    2.0516 H   0  0  0  0  0  0  0  0  0  0  0  0
   12.4068    2.0940    2.1422 H   0  0  0  0  0  0  0  0  0  0  0  0
   13.1154    1.0181    4.4965 H   0  0  0  0  0  0  0  0  0  0  0  0
   10.9587    0.9380    6.0008 H   0  0  0  0  0  0  0  0  0  0  0  0
    8.8778    1.7039    4.5331 H   0  0  0  0  0  0  0  0  0  0  0  0
    9.8166    3.1679    2.4556 H   0  0  0  0  0  0  0  0  0  0  0  0
   10.7992    3.4564    3.8338 H   0  0  0  0  0  0  0  0  0  0  0  0
    9.5715   -0.7831    3.4379 H   0  0  0  0  0  0  0  0  0  0  0  0
    4.7475   -4.4941   -3.3964 H   0  0  0  0  0  0  0  0  0  0  0  0
    3.0095   -4.2178   -3.0993 H   0  0  0  0  0  0  0  0  0  0  0  0
    3.3584   -4.2199   -0.6358 H   0  0  0  0  0  0  0  0  0  0  0  0
    5.0964   -4.6747   -0.8614 H   0  0  0  0  0  0  0  0  0  0  0  0
    3.7552   -5.7717   -1.4074 H   0  0  0  0  0  0  0  0  0  0  0  0
    6.7156   -3.6986   -2.8278 H   0  0  0  0  0  0  0  0  0  0  0  0
    7.5798   -2.1566   -3.0576 H   0  0  0  0  0  0  0  0  0  0  0  0
    6.3972   -2.8992   -0.3058 H   0  0  0  0  0  0  0  0  0  0  0  0
    7.9248   -3.5934   -0.8217 H   0  0  0  0  0  0  0  0  0  0  0  0
    7.7601   -1.7660   -0.6798 H   0  0  0  0  0  0  0  0  0  0  0  0
    0.1572    4.0850   -3.4389 H   0  0  0  0  0  0  0  0  0  0  0  0
   -1.2908    5.6936   -4.5437 H   0  0  0  0  0  0  0  0  0  0  0  0
   -4.0198    7.6705   -2.1428 H   0  0  0  0  0  0  0  0  0  0  0  0
   -3.5968    8.6125   -3.6865 H   0  0  0  0  0  0  0  0  0  0  0  0
   -2.4301    7.4985   -2.9719 H   0  0  0  0  0  0  0  0  0  0  0  0
   -4.6689    4.0658   -2.3834 H   0  0  0  0  0  0  0  0  0  0  0  0
   -3.2464    2.3271   -1.5174 H   0  0  0  0  0  0  0  0  0  0  0  0
   -1.9514    3.5196    0.1852 H   0  0  0  0  0  0  0  0  0  0  0  0
   -1.1524    4.9074    1.9129 H   0  0  0  0  0  0  0  0  0  0  0  0
    0.7558    4.0001    4.5370 H   0  0  0  0  0  0  0  0  0  0  0  0
    2.3969    3.5090    3.8621 H   0  0  0  0  0  0  0  0  0  0  0  0
    2.2631    4.8659    5.0123 H   0  0  0  0  0  0  0  0  0  0  0  0
    2.9277    3.8345    0.9062 H   0  0  0  0  0  0  0  0  0  0  0  0
    2.1248    2.3450   -0.9156 H   0  0  0  0  0  0  0  0  0  0  0  0
   -1.5525   -5.1380   -0.0232 H   0  0  0  0  0  0  0  0  0  0  0  0
   -0.4434   -7.2246    0.7498 H   0  0  0  0  0  0  0  0  0  0  0  0
    0.6234   -7.2472    5.0267 H   0  0  0  0  0  0  0  0  0  0  0  0
   -0.6751   -8.0086    4.0010 H   0  0  0  0  0  0  0  0  0  0  0  0
    0.6113   -9.0295    4.7947 H   0  0  0  0  0  0  0  0  0  0  0  0
    1.9648   -5.0823    3.6829 H   0  0  0  0  0  0  0  0  0  0  0  0
    0.9263   -3.0532    2.9750 H   0  0  0  0  0  0  0  0  0  0  0  0
   -2.4871   -3.0096    3.5767 H   0  0  0  0  0  0  0  0  0  0  0  0
   -2.9654   -1.2392    5.2491 H   0  0  0  0  0  0  0  0  0  0  0  0
   -4.9445    1.5249    5.4759 H   0  0  0  0  0  0  0  0  0  0  0  0
   -4.4900    2.3278    3.8527 H   0  0  0  0  0  0  0  0  0  0  0  0
   -4.3689    0.6184    4.0266 H   0  0  0  0  0  0  0  0  0  0  0  0
   -0.6387    1.5851    2.9135 H   0  0  0  0  0  0  0  0  0  0  0  0
    0.0382   -0.1752    1.4782 H   0  0  0  0  0  0  0  0  0  0  0  0
   -9.6518   -1.5724   -2.2211 H   0  0  0  0  0  0  0  0  0  0  0  0
   -9.5917    0.2073   -1.9800 H   0  0  0  0  0  0  0  0  0  0  0  0
   -9.5811   -0.6480   -4.4294 H   0  0  0  0  0  0  0  0  0  0  0  0
   -7.9689   -1.4485   -4.1013 H   0  0  0  0  0  0  0  0  0  0  0  0
   -8.1593    0.3551   -4.0660 H   0  0  0  0  0  0  0  0  0  0  0  0
   -5.8605    1.8002   -1.4836 H   0  0  0  0  0  0  0  0  0  0  0  0
   -7.3847    1.6627   -2.4427 H   0  0  0  0  0  0  0  0  0  0  0  0
   -4.4937    1.1052   -3.1169 H   0  0  0  0  0  0  0  0  0  0  0  0
   -5.5792   -0.0509   -3.8820 H   0  0  0  0  0  0  0  0  0  0  0  0
   -5.6613    1.7993   -4.1836 H   0  0  0  0  0  0  0  0  0  0  0  0
   -7.9631   -3.7665    2.7552 H   0  0  0  0  0  0  0  0  0  0  0  0
  -10.5538    0.7857    1.1529 H   0  0  0  0  0  0  0  0  0  0  0  0
  1  2  2  3
  2  3  1  0
  3  4  2  0
  3  5  1  0
  5  6  2  0
  6  7  1  0
  7  8  2  0
  8  9  1  0
  9 10  2  0
 10 11  1  0
 11 12  2  3
 12 13  1  0
 13 14  3  0
 12 15  1  0
 15 16  3  0
  8 17  1  0
 17 18  1  0
 18 19  1  0
 19 20  2  0
 20 21  1  0
 21 22  1  0
 21 23  1  0
  1 24  1  0
 24 25  2  0
 25 26  1  0
 25 27  1  0
 27 28  1  0
 27 29  2  0
 29 30  1  0
 30 31  2  0
 31 32  1  0
 32 33  1  0
 33 34  1  0
 32 35  2  0
 35 36  1  0
 36 37  2  0
 35 38  1  0
 38 39  1  0
 29 40  1  0
 40 41  2  0
 41 42  1  0
 42 43  1  0
 43 44  2  0
 44 45  1  0
 45 46  2  0
 46 47  1  0
 47 48  1  0
 46 49  1  0
 49 50  2  0
 42 51  1  0
 51 52  2  0
 52 53  1  0
 53 54  2  0
 54 55  1  0
 55 56  1  0
 54 57  1  0
 57 58  2  0
 41 59  1  0
 59 60  1  0
 60 61  1  0
 61 62  2  0
 62 63  1  0
 63 64  1  0
 64 65  2  0
 65 66  1  0
 66 67  2  0
 67 68  1  0
 68 69  1  0
 67 70  1  0
 70 71  2  0
 63 72  1  0
 72 73  2  0
 73 74  1  0
 74 75  2  0
 75 76  1  0
 76 77  1  0
 75 78  1  0
 78 79  2  0
 62 80  1  0
 80 81  1  0
 61 82  1  0
 82 83  2  0
 83 84  1  0
 83 85  1  0
 85 86  1  0
 85 87  2  0
 87 88  1  0
 88 89  2  0
 89 90  1  0
 90 91  1  0
 91 92  1  0
 90 93  2  0
 93 94  1  0
 94 95  2  0
 93 96  1  0
 96 97  1  0
 87 98  1  0
 98 99  2  3
 99100  1  0
100101  2  0
100102  1  0
102103  1  0
103104  1  0
104105  1  0
104106  2  0
106107  1  0
107108  1  0
108109  2  3
109110  1  0
110111  3  0
109112  1  0
112113  3  0
 11  2  1  0
 23 17  1  0
 37 24  1  0
 81 40  1  0
 95 82  1  0
108 99  1  0
 10  5  1  0
 22 18  1  0
 37 30  1  0
 50 43  1  0
 58 51  1  0
 80 59  2  0
 95 88  1  0
107102  2  0
 23  7  1  0
 71 64  1  0
 79 72  1  0
  1114  1  0
  6115  1  0
  9116  1  0
 17117  1  0
 18118  1  0
 19119  1  0
 20120  1  0
 21121  1  0
 22122  1  0
 22123  1  0
 23124  1  0
 33125  1  0
 33126  1  0
 34127  1  0
 34128  1  0
 34129  1  0
 38130  1  0
 38131  1  0
 39132  1  0
 39133  1  0
 39134  1  0
 44135  1  0
 45136  1  0
 48137  1  0
 48138  1  0
 48139  1  0
 49140  1  0
 50141  1  0
 52142  1  0
 53143  1  0
 56144  1  0
 56145  1  0
 56146  1  0
 57147  1  0
 58148  1  0
 65149  1  0
 66150  1  0
 69151  1  0
 69152  1  0
 69153  1  0
 70154  1  0
 71155  1  0
 73156  1  0
 74157  1  0
 77158  1  0
 77159  1  0
 77160  1  0
 78161  1  0
 79162  1  0
 91163  1  0
 91164  1  0
 92165  1  0
 92166  1  0
 92167  1  0
 96168  1  0
 96169  1  0
 97170  1  0
 97171  1  0
 97172  1  0
 98173  1  0
106174  1  0
M  END

