
     RDKit          3D

185204  0  0  0  0  0  0  0  0999 V2000
   -5.4993    2.2379   -5.2911 C   0  0  0  0  0  0  0  0  0  0  0  0
   -5.0552    1.5813   -6.3788 C   0  0  0  0  0  0  0  0  0  0  0  0
   -5.6726    0.3683   -6.9270 C   0  0  0  0  0  0  0  0  0  0  0  0
   -6.8896    0.0525   -6.8251 O   0  0  0  0  0  0  0  0  0  0  0  0
   -4.7589   -0.2439   -7.8538 C   0  0  0  0  0  0  0  0  0  0  0  0
   -5.0142   -1.3944   -8.6338 C   0  0  0  0  0  0  0  0  0  0  0  0
   -4.0143   -1.6902   -9.5378 C   0  0  0  0  0  0  0  0  0  0  0  0
   -2.8299   -0.9002   -9.6781 C   0  0  0  0  0  0  0  0  0  0  0  0
   -2.5849    0.2398   -8.9291 C   0  0  0  0  0  0  0  0  0  0  0  0
   -3.5977    0.5603   -7.9734 C   0  0  0  0  0  0  0  0  0  0  0  0
   -3.7356    1.7531   -7.0806 C   0  0  0  0  0  0  0  0  0  0  0  0
   -2.8282    2.7599   -6.9206 C   0  0  0  0  0  0  0  0  0  0  0  0
   -1.4890    2.6926   -7.4440 C   0  0  0  0  0  0  0  0  0  0  0  0
   -0.4061    2.6577   -7.8526 N   0  0  0  0  0  0  0  0  0  0  0  0
   -3.1327    3.9983   -6.2498 C   0  0  0  0  0  0  0  0  0  0  0  0
   -3.3528    5.0062   -5.7253 N   0  0  0  0  0  0  0  0  0  0  0  0
   -2.3450   -1.8005  -10.7787 C   0  0  0  0  0  0  0  0  0  0  0  0
   -1.2017   -2.7956  -10.4052 C   0  0  0  0  0  0  0  0  0  0  0  0
   -1.1743   -3.8211  -11.5151 C   0  0  0  0  0  0  0  0  0  0  0  0
   -2.2873   -4.5550  -11.3869 C   0  0  0  0  0  0  0  0  0  0  0  0
   -3.0285   -3.9985  -10.1925 C   0  0  0  0  0  0  0  0  0  0  0  0
   -1.8325   -3.6504   -9.3191 C   0  0  0  0  0  0  0  0  0  0  0  0
   -3.5609   -2.6063  -10.6328 C   0  0  0  0  0  0  0  0  0  0  0  0
   -5.3501    1.6475   -3.9226 C   0  0  0  0  0  0  0  0  0  0  0  0
   -6.0931    0.5425   -3.4515 C   0  0  0  0  0  0  0  0  0  0  0  0
   -7.0610   -0.0269   -4.2153 N   0  0  0  0  0  0  0  0  0  0  0  0
   -7.7672   -1.1061   -3.7911 C   0  0  0  0  0  0  0  0  0  0  0  0
   -7.5039   -1.6566   -2.5383 C   0  0  0  0  0  0  0  0  0  0  0  0
   -8.2165   -2.7868   -2.1218 O   0  0  0  0  0  0  0  0  0  0  0  0
   -7.9891   -3.4475   -0.8772 C   0  0  0  0  0  0  0  0  0  0  0  0
   -6.7300   -4.3021   -0.9415 C   0  0  0  0  0  0  0  0  0  0  0  0
   -6.5604   -1.0765   -1.7434 N   0  0  0  0  0  0  0  0  0  0  0  0
   -5.8527    0.0107   -2.1556 C   0  0  0  0  0  0  0  0  0  0  0  0
   -4.8895    0.6036   -1.3211 C   0  0  0  0  0  0  0  0  0  0  0  0
   -4.1858    1.7254   -1.7854 C   0  0  0  0  0  0  0  0  0  0  0  0
   -4.4176    2.2408   -3.0534 C   0  0  0  0  0  0  0  0  0  0  0  0
   -3.6880    3.3188   -3.4409 F   0  0  0  0  0  0  0  0  0  0  0  0
   -3.2256    2.3056   -1.0166 F   0  0  0  0  0  0  0  0  0  0  0  0
   -4.4918    0.0339   -0.0099 C   0  0  0  0  0  0  0  0  0  0  0  0
   -4.5127    0.8761    1.1148 C   0  0  0  0  0  0  0  0  0  0  0  0
   -5.3240    1.9663    1.1248 F   0  0  0  0  0  0  0  0  0  0  0  0
   -3.5271    0.7593    2.0992 C   0  0  0  0  0  0  0  0  0  0  0  0
   -3.3699    1.7966    2.9525 F   0  0  0  0  0  0  0  0  0  0  0  0
   -2.5546   -0.2553    2.0114 C   0  0  0  0  0  0  0  0  0  0  0  0
   -2.7465   -1.2828    1.0682 C   0  0  0  0  0  0  0  0  0  0  0  0
   -1.8967   -2.3416    1.0208 N   0  0  0  0  0  0  0  0  0  0  0  0
   -1.9087   -3.2416    0.0021 C   0  0  0  0  0  0  0  0  0  0  0  0
   -0.9142   -4.3759    0.0595 C   0  0  0  0  0  0  0  0  0  0  0  0
    0.5180   -3.8454    0.0865 C   0  0  0  0  0  0  0  0  0  0  0  0
   -2.8068   -3.0334   -1.0764 C   0  0  0  0  0  0  0  0  0  0  0  0
   -3.6501   -1.9685   -1.0270 N   0  0  0  0  0  0  0  0  0  0  0  0
   -3.6786   -1.1107    0.0249 C   0  0  0  0  0  0  0  0  0  0  0  0
   -2.8255   -3.8801   -2.3245 C   0  0  0  0  0  0  0  0  0  0  0  0
   -1.6915   -3.4975   -3.2653 C   0  0  0  0  0  0  0  0  0  0  0  0
   -1.1522    0.1234    2.2933 C   0  0  0  0  0  0  0  0  0  0  0  0
   -0.5075    0.4248    3.5115 C   0  0  0  0  0  0  0  0  0  0  0  0
   -1.0069    0.1163    4.8217 N   0  0  0  0  0  0  0  0  0  0  0  0
   -0.3584   -0.9229    5.5972 C   0  0  0  0  0  0  0  0  0  0  0  0
   -0.2854   -0.8335    7.0009 C   0  0  0  0  0  0  0  0  0  0  0  0
    0.3744   -1.8130    7.7408 C   0  0  0  0  0  0  0  0  0  0  0  0
    0.9917   -2.8913    7.0906 C   0  0  0  0  0  0  0  0  0  0  0  0
    1.8766   -4.1244    8.0428 S   0  0  0  0  0  0  0  0  0  0  0  0
    3.4488   -3.2101    7.9914 C   0  0  0  0  0  0  0  0  0  0  0  0
    0.9224   -2.9916    5.6994 C   0  0  0  0  0  0  0  0  0  0  0  0
    0.2569   -2.0169    4.9559 C   0  0  0  0  0  0  0  0  0  0  0  0
   -2.0414    0.9357    5.3877 C   0  0  0  0  0  0  0  0  0  0  0  0
   -3.1547    0.3430    6.0007 C   0  0  0  0  0  0  0  0  0  0  0  0
   -4.1912    1.1389    6.4992 C   0  0  0  0  0  0  0  0  0  0  0  0
   -4.1282    2.5274    6.3708 C   0  0  0  0  0  0  0  0  0  0  0  0
   -5.5017    3.5432    6.9221 S   0  0  0  0  0  0  0  0  0  0  0  0
   -6.3641    3.4340    5.3206 C   0  0  0  0  0  0  0  0  0  0  0  0
   -3.0033    3.1302    5.7981 C   0  0  0  0  0  0  0  0  0  0  0  0
   -1.9578    2.3368    5.3148 C   0  0  0  0  0  0  0  0  0  0  0  0
    0.7828    0.9176    3.2786 C   0  0  0  0  0  0  0  0  0  0  0  0
    2.0112    1.5704    4.2333 S   0  0  0  0  0  0  0  0  0  0  0  0
    3.0200    1.9465    2.8972 C   0  0  0  0  0  0  0  0  0  0  0  0
    2.3613    1.5896    1.7179 C   0  0  0  0  0  0  0  0  0  0  0  0
    2.8939    1.7411    0.3916 N   0  0  0  0  0  0  0  0  0  0  0  0
    2.4178    2.7902   -0.4879 C   0  0  0  0  0  0  0  0  0  0  0  0
    1.4176    3.6964   -0.0715 C   0  0  0  0  0  0  0  0  0  0  0  0
    0.9211    4.6654   -0.9516 C   0  0  0  0  0  0  0  0  0  0  0  0
    1.4365    4.7667   -2.2479 C   0  0  0  0  0  0  0  0  0  0  0  0
    0.7709    5.9777   -3.3920 S   0  0  0  0  0  0  0  0  0  0  0  0
    1.9606    7.2719   -2.9247 C   0  0  0  0  0  0  0  0  0  0  0  0
    2.4580    3.9090   -2.6578 C   0  0  0  0  0  0  0  0  0  0  0  0
    2.9431    2.9294   -1.7862 C   0  0  0  0  0  0  0  0  0  0  0  0
    3.5525    0.5753   -0.1278 C   0  0  0  0  0  0  0  0  0  0  0  0
    2.8783   -0.2861   -1.0085 C   0  0  0  0  0  0  0  0  0  0  0  0
    3.4556   -1.4972   -1.3906 C   0  0  0  0  0  0  0  0  0  0  0  0
    4.7177   -1.8584   -0.9034 C   0  0  0  0  0  0  0  0  0  0  0  0
    5.4230   -3.4507   -1.3304 S   0  0  0  0  0  0  0  0  0  0  0  0
    6.2682   -2.8100   -2.8086 C   0  0  0  0  0  0  0  0  0  0  0  0
    5.4083   -0.9888   -0.0502 C   0  0  0  0  0  0  0  0  0  0  0  0
    4.8268    0.2227    0.3390 C   0  0  0  0  0  0  0  0  0  0  0  0
    1.1319    1.0138    1.9754 C   0  0  0  0  0  0  0  0  0  0  0  0
   -0.1036    0.4881    0.9974 S   0  0  0  0  0  0  0  0  0  0  0  0
    4.2151    2.7948    2.9091 C   0  0  0  0  0  0  0  0  0  0  0  0
    5.3749    2.4894    3.5141 C   0  0  0  0  0  0  0  0  0  0  0  0
    5.5889    1.4198    4.4933 C   0  0  0  0  0  0  0  0  0  0  0  0
    4.8205    0.4494    4.7304 O   0  0  0  0  0  0  0  0  0  0  0  0
    6.8567    1.6553    5.1584 C   0  0  0  0  0  0  0  0  0  0  0  0
    7.4061    0.9242    6.2429 C   0  0  0  0  0  0  0  0  0  0  0  0
    8.6141    1.4227    6.6991 C   0  0  0  0  0  0  0  0  0  0  0  0
    9.2468    2.5777    6.1324 C   0  0  0  0  0  0  0  0  0  0  0  0
    8.7076    3.3058    5.0884 C   0  0  0  0  0  0  0  0  0  0  0  0
    7.4774    2.7944    4.5817 C   0  0  0  0  0  0  0  0  0  0  0  0
    6.6350    3.2893    3.4557 C   0  0  0  0  0  0  0  0  0  0  0  0
    7.0424    4.0816    2.4274 C   0  0  0  0  0  0  0  0  0  0  0  0
    6.2827    4.2279    1.2136 C   0  0  0  0  0  0  0  0  0  0  0  0
    5.6768    4.3524    0.2318 N   0  0  0  0  0  0  0  0  0  0  0  0
    8.3389    4.7077    2.3971 C   0  0  0  0  0  0  0  0  0  0  0  0
    9.3774    5.2187    2.3442 N   0  0  0  0  0  0  0  0  0  0  0  0
   10.3740    2.4637    7.1123 C   0  0  0  0  0  0  0  0  0  0  0  0
   10.3829    3.4873    8.2878 C   0  0  0  0  0  0  0  0  0  0  0  0
   11.3471    2.9390    9.3078 C   0  0  0  0  0  0  0  0  0  0  0  0
   10.7595    1.8582    9.8398 C   0  0  0  0  0  0  0  0  0  0  0  0
    9.4195    1.7143    9.1570 C   0  0  0  0  0  0  0  0  0  0  0  0
    9.0789    3.1881    9.0098 C   0  0  0  0  0  0  0  0  0  0  0  0
    9.7305    1.2780    7.6924 C   0  0  0  0  0  0  0  0  0  0  0  0
   -5.3252    3.2997   -5.2834 H   0  0  0  0  0  0  0  0  0  0  0  0
   -5.9268   -1.9704   -8.5657 H   0  0  0  0  0  0  0  0  0  0  0  0
   -1.7111    0.8340   -9.1257 H   0  0  0  0  0  0  0  0  0  0  0  0
   -2.2433   -1.2957  -11.7649 H   0  0  0  0  0  0  0  0  0  0  0  0
   -0.2186   -2.3398  -10.1606 H   0  0  0  0  0  0  0  0  0  0  0  0
   -0.3747   -4.0008  -12.2293 H   0  0  0  0  0  0  0  0  0  0  0  0
   -2.5483   -5.4279  -11.9748 H   0  0  0  0  0  0  0  0  0  0  0  0
   -3.7741   -4.6825   -9.7390 H   0  0  0  0  0  0  0  0  0  0  0  0
   -1.2168   -4.5408   -9.0381 H   0  0  0  0  0  0  0  0  0  0  0  0
   -2.0903   -3.0907   -8.3955 H   0  0  0  0  0  0  0  0  0  0  0  0
   -4.2331   -2.6035  -11.5207 H   0  0  0  0  0  0  0  0  0  0  0  0
   -8.5162   -1.5430   -4.4377 H   0  0  0  0  0  0  0  0  0  0  0  0
   -8.8575   -4.1094   -0.6756 H   0  0  0  0  0  0  0  0  0  0  0  0
   -7.9196   -2.7102   -0.0444 H   0  0  0  0  0  0  0  0  0  0  0  0
   -6.5828   -4.8270    0.0260 H   0  0  0  0  0  0  0  0  0  0  0  0
   -5.8425   -3.6684   -1.1391 H   0  0  0  0  0  0  0  0  0  0  0  0
   -6.8290   -5.0578   -1.7494 H   0  0  0  0  0  0  0  0  0  0  0  0
   -1.0986   -4.9568    0.9905 H   0  0  0  0  0  0  0  0  0  0  0  0
   -1.0155   -5.0835   -0.7843 H   0  0  0  0  0  0  0  0  0  0  0  0
    0.6934   -3.1673   -0.7802 H   0  0  0  0  0  0  0  0  0  0  0  0
    0.7013   -3.2941    1.0305 H   0  0  0  0  0  0  0  0  0  0  0  0
    1.2316   -4.6949    0.0255 H   0  0  0  0  0  0  0  0  0  0  0  0
   -3.7904   -3.7241   -2.8589 H   0  0  0  0  0  0  0  0  0  0  0  0
   -2.7900   -4.9612   -2.0728 H   0  0  0  0  0  0  0  0  0  0  0  0
   -0.7125   -3.5894   -2.7651 H   0  0  0  0  0  0  0  0  0  0  0  0
   -1.8210   -2.4516   -3.6091 H   0  0  0  0  0  0  0  0  0  0  0  0
   -1.6932   -4.1727   -4.1410 H   0  0  0  0  0  0  0  0  0  0  0  0
   -0.7219    0.0077    7.5256 H   0  0  0  0  0  0  0  0  0  0  0  0
    0.4267   -1.7313    8.8204 H   0  0  0  0  0  0  0  0  0  0  0  0
    3.3313   -2.2172    8.4757 H   0  0  0  0  0  0  0  0  0  0  0  0
    3.7773   -3.0785    6.9396 H   0  0  0  0  0  0  0  0  0  0  0  0
    4.2207   -3.7823    8.5453 H   0  0  0  0  0  0  0  0  0  0  0  0
    1.3978   -3.8204    5.1894 H   0  0  0  0  0  0  0  0  0  0  0  0
    0.2151   -2.1224    3.8796 H   0  0  0  0  0  0  0  0  0  0  0  0
   -3.2317   -0.7339    6.0742 H   0  0  0  0  0  0  0  0  0  0  0  0
   -5.0564    0.6718    6.9536 H   0  0  0  0  0  0  0  0  0  0  0  0
   -5.7074    3.8046    4.5076 H   0  0  0  0  0  0  0  0  0  0  0  0
   -7.2803    4.0575    5.3539 H   0  0  0  0  0  0  0  0  0  0  0  0
   -6.6540    2.3790    5.1103 H   0  0  0  0  0  0  0  0  0  0  0  0
   -2.9486    4.2045    5.6997 H   0  0  0  0  0  0  0  0  0  0  0  0
   -1.1008    2.8133    4.8550 H   0  0  0  0  0  0  0  0  0  0  0  0
    0.9944    3.6492    0.9225 H   0  0  0  0  0  0  0  0  0  0  0  0
    0.1363    5.3357   -0.6273 H   0  0  0  0  0  0  0  0  0  0  0  0
    1.7730    8.1758   -3.5398 H   0  0  0  0  0  0  0  0  0  0  0  0
    1.8344    7.5385   -1.8543 H   0  0  0  0  0  0  0  0  0  0  0  0
    2.9995    6.9194   -3.1052 H   0  0  0  0  0  0  0  0  0  0  0  0
    2.8740    3.9934   -3.6541 H   0  0  0  0  0  0  0  0  0  0  0  0
    3.7378    2.2824   -2.1357 H   0  0  0  0  0  0  0  0  0  0  0  0
    1.8843   -0.0328   -1.3670 H   0  0  0  0  0  0  0  0  0  0  0  0
    2.9142   -2.1653   -2.0507 H   0  0  0  0  0  0  0  0  0  0  0  0
    6.9867   -2.0125   -2.5224 H   0  0  0  0  0  0  0  0  0  0  0  0
    5.5245   -2.4095   -3.5289 H   0  0  0  0  0  0  0  0  0  0  0  0
    6.8252   -3.6389   -3.2925 H   0  0  0  0  0  0  0  0  0  0  0  0
    6.3848   -1.2581    0.3307 H   0  0  0  0  0  0  0  0  0  0  0  0
    5.3581    0.8752    1.0215 H   0  0  0  0  0  0  0  0  0  0  0  0
    4.1308    3.7027    2.3396 H   0  0  0  0  0  0  0  0  0  0  0  0
    6.9256    0.0596    6.6795 H   0  0  0  0  0  0  0  0  0  0  0  0
    9.2021    4.1962    4.7294 H   0  0  0  0  0  0  0  0  0  0  0  0
   11.3599    2.2683    6.6352 H   0  0  0  0  0  0  0  0  0  0  0  0
   10.5487    4.5482    7.9998 H   0  0  0  0  0  0  0  0  0  0  0  0
   12.2785    3.3807    9.6438 H   0  0  0  0  0  0  0  0  0  0  0  0
   11.1394    1.2821   10.6761 H   0  0  0  0  0  0  0  0  0  0  0  0
    8.6800    1.0883    9.6982 H   0  0  0  0  0  0  0  0  0  0  0  0
    8.1643    3.3827    8.4043 H   0  0  0  0  0  0  0  0  0  0  0  0
    8.9804    3.7191    9.9879 H   0  0  0  0  0  0  0  0  0  0  0  0
   10.3076    0.3334    7.5787 H   0  0  0  0  0  0  0  0  0  0  0  0
  1  2  2  3
  2  3  1  0
  3  4  2  0
  3  5  1  0
  5  6  2  0
  6  7  1  0
  7  8  2  0
  8  9  1  0
  9 10  2  0
 10 11  1  0
 11 12  2  3
 12 13  1  0
 13 14  3  0
 12 15  1  0
 15 16  3  0
  8 17  1  0
 17 18  1  0
 18 19  1  0
 19 20  2  0
 20 21  1  0
 21 22  1  0
 21 23  1  0
  1 24  1  0
 24 25  1  0
 25 26  2  0
 26 27  1  0
 27 28  2  0
 28 29  1  0
 29 30  1  0
 30 31  1  0
 28 32  1  0
 32 33  2  0
 33 34  1  0
 34 35  2  0
 35 36  1  0
 36 37  1  0
 35 38  1  0
 34 39  1  0
 39 40  2  0
 40 41  1  0
 40 42  1  0
 42 43  1  0
 42 44  2  0
 44 45  1  0
 45 46  2  0
 46 47  1  0
 47 48  1  0
 48 49  1  0
 47 50  2  0
 50 51  1  0
 51 52  2  0
 50 53  1  0
 53 54  1  0
 44 55  1  0
 55 56  2  0
 56 57  1  0
 57 58  1  0
 58 59  2  0
 59 60  1  0
 60 61  2  0
 61 62  1  0
 62 63  1  0
 61 64  1  0
 64 65  2  0
 57 66  1  0
 66 67  2  0
 67 68  1  0
 68 69  2  0
 69 70  1  0
 70 71  1  0
 69 72  1  0
 72 73  2  0
 56 74  1  0
 74 75  1  0
 75 76  1  0
 76 77  2  0
 77 78  1  0
 78 79  1  0
 79 80  2  0
 80 81  1  0
 81 82  2  0
 82 83  1  0
 83 84  1  0
 82 85  1  0
 85 86  2  0
 78 87  1  0
 87 88  2  0
 88 89  1  0
 89 90  2  0
 90 91  1  0
 91 92  1  0
 90 93  1  0
 93 94  2  0
 77 95  1  0
 95 96  1  0
 76 97  1  0
 97 98  2  3
 98 99  1  0
 99100  2  0
 99101  1  0
101102  2  0
102103  1  0
103104  2  0
104105  1  0
105106  2  0
106107  1  0
107108  2  3
108109  1  0
109110  3  0
108111  1  0
111112  3  0
104113  1  0
113114  1  0
114115  1  0
115116  2  0
116117  1  0
117118  1  0
117119  1  0
 11  2  1  0
 23 17  1  0
 36 24  2  0
 52 39  1  0
 96 55  1  0
107 98  1  0
119113  1  0
 10  5  1  0
 22 18  1  0
 33 25  1  0
 52 45  1  0
 65 58  1  0
 73 66  1  0
 95 74  2  0
106101  1  0
118114  1  0
 23  7  1  0
 86 79  1  0
 94 87  1  0
119103  1  0
  1120  1  0
  6121  1  0
  9122  1  0
 17123  1  0
 18124  1  0
 19125  1  0
 20126  1  0
 21127  1  0
 22128  1  0
 22129  1  0
 23130  1  0
 27131  1  0
 30132  1  0
 30133  1  0
 31134  1  0
 31135  1  0
 31136  1  0
 48137  1  0
 48138  1  0
 49139  1  0
 49140  1  0
 49141  1  0
 53142  1  0
 53143  1  0
 54144  1  0
 54145  1  0
 54146  1  0
 59147  1  0
 60148  1  0
 63149  1  0
 63150  1  0
 63151  1  0
 64152  1  0
 65153  1  0
 67154  1  0
 68155  1  0
 71156  1  0
 71157  1  0
 71158  1  0
 72159  1  0
 73160  1  0
 80161  1  0
 81162  1  0
 84163  1  0
 84164  1  0
 84165  1  0
 85166  1  0
 86167  1  0
 88168  1  0
 89169  1  0
 92170  1  0
 92171  1  0
 92172  1  0
 93173  1  0
 94174  1  0
 97175  1  0
102176  1  0
105177  1  0
113178  1  0
114179  1  0
115180  1  0
116181  1  0
117182  1  0
118183  1  0
118184  1  0
119185  1  0
M  END

