
     RDKit          3D

252277  0  0  0  0  0  0  0  0999 V2000
   -0.5724   -2.4954    6.1437 C   0  0  0  0  0  0  0  0  0  0  0  0
   -0.2003   -3.7155    5.7075 C   0  0  0  0  0  0  0  0  0  0  0  0
    0.3875   -4.0476    4.4011 C   0  0  0  0  0  0  0  0  0  0  0  0
    0.1579   -3.4708    3.3067 O   0  0  0  0  0  0  0  0  0  0  0  0
    1.1724   -5.2570    4.5456 C   0  0  0  0  0  0  0  0  0  0  0  0
    2.1077   -5.7851    3.6264 C   0  0  0  0  0  0  0  0  0  0  0  0
    2.8495   -6.8367    4.1253 C   0  0  0  0  0  0  0  0  0  0  0  0
    2.6946   -7.3427    5.4593 C   0  0  0  0  0  0  0  0  0  0  0  0
    1.7673   -6.8370    6.3577 C   0  0  0  0  0  0  0  0  0  0  0  0
    0.9757   -5.7717    5.8514 C   0  0  0  0  0  0  0  0  0  0  0  0
   -0.0205   -4.9299    6.5577 C   0  0  0  0  0  0  0  0  0  0  0  0
   -0.8116   -5.3181    7.5893 C   0  0  0  0  0  0  0  0  0  0  0  0
   -1.9203   -4.5186    8.0473 C   0  0  0  0  0  0  0  0  0  0  0  0
   -2.8083   -3.8806    8.4228 N   0  0  0  0  0  0  0  0  0  0  0  0
   -0.7287   -6.6387    8.1527 C   0  0  0  0  0  0  0  0  0  0  0  0
   -0.6716   -7.7067    8.5912 N   0  0  0  0  0  0  0  0  0  0  0  0
    3.8226   -8.3108    5.2382 C   0  0  0  0  0  0  0  0  0  0  0  0
    5.1843   -7.9596    5.9107 C   0  0  0  0  0  0  0  0  0  0  0  0
    6.2158   -8.8309    5.2335 C   0  0  0  0  0  0  0  0  0  0  0  0
    6.3486   -8.3615    3.9868 C   0  0  0  0  0  0  0  0  0  0  0  0
    5.4053   -7.1887    3.8665 C   0  0  0  0  0  0  0  0  0  0  0  0
    5.5501   -6.6305    5.2727 C   0  0  0  0  0  0  0  0  0  0  0  0
    3.9738   -7.7945    3.8727 C   0  0  0  0  0  0  0  0  0  0  0  0
   -0.4279   -1.2372    5.3840 C   0  0  0  0  0  0  0  0  0  0  0  0
   -1.2631   -0.1175    5.5248 C   0  0  0  0  0  0  0  0  0  0  0  0
   -2.4908   -0.1065    6.2663 N   0  0  0  0  0  0  0  0  0  0  0  0
   -3.6708   -0.7275    5.7001 C   0  0  0  0  0  0  0  0  0  0  0  0
   -3.7859   -0.9448    4.3117 C   0  0  0  0  0  0  0  0  0  0  0  0
   -4.9611   -1.4716    3.7650 C   0  0  0  0  0  0  0  0  0  0  0  0
   -6.0358   -1.7923    4.5976 C   0  0  0  0  0  0  0  0  0  0  0  0
   -7.5736   -2.3984    3.8886 S   0  0  0  0  0  0  0  0  0  0  0  0
   -8.2137   -0.7251    3.5523 C   0  0  0  0  0  0  0  0  0  0  0  0
   -5.9177   -1.6317    5.9788 C   0  0  0  0  0  0  0  0  0  0  0  0
   -4.7412   -1.1177    6.5313 C   0  0  0  0  0  0  0  0  0  0  0  0
   -2.5528    0.7380    7.4362 C   0  0  0  0  0  0  0  0  0  0  0  0
   -1.4944    0.7373    8.3647 C   0  0  0  0  0  0  0  0  0  0  0  0
   -1.5324    1.5778    9.4837 C   0  0  0  0  0  0  0  0  0  0  0  0
   -2.6158    2.4363    9.6767 C   0  0  0  0  0  0  0  0  0  0  0  0
   -2.6570    3.5200   11.1055 S   0  0  0  0  0  0  0  0  0  0  0  0
   -3.6669    2.3754   12.1031 C   0  0  0  0  0  0  0  0  0  0  0  0
   -3.6535    2.4732    8.7401 C   0  0  0  0  0  0  0  0  0  0  0  0
   -3.6266    1.6211    7.6303 C   0  0  0  0  0  0  0  0  0  0  0  0
   -0.8486    0.9324    4.7136 C   0  0  0  0  0  0  0  0  0  0  0  0
   -1.5133    2.3854    4.2548 S   0  0  0  0  0  0  0  0  0  0  0  0
   -0.4016    2.7169    2.9930 C   0  0  0  0  0  0  0  0  0  0  0  0
    0.5403    1.6415    2.9902 C   0  0  0  0  0  0  0  0  0  0  0  0
    1.7901    1.6065    2.2821 N   0  0  0  0  0  0  0  0  0  0  0  0
    2.9705    2.1859    2.9097 C   0  0  0  0  0  0  0  0  0  0  0  0
    4.1921    2.2618    2.2049 C   0  0  0  0  0  0  0  0  0  0  0  0
    5.3596    2.6996    2.8334 C   0  0  0  0  0  0  0  0  0  0  0  0
    5.3321    3.0912    4.1707 C   0  0  0  0  0  0  0  0  0  0  0  0
    6.8487    3.5816    4.9893 S   0  0  0  0  0  0  0  0  0  0  0  0
    7.2081    1.9013    5.5934 C   0  0  0  0  0  0  0  0  0  0  0  0
    4.1251    3.0750    4.8752 C   0  0  0  0  0  0  0  0  0  0  0  0
    2.9549    2.6263    4.2555 C   0  0  0  0  0  0  0  0  0  0  0  0
    1.9639    0.6034    1.2521 C   0  0  0  0  0  0  0  0  0  0  0  0
    1.2651    0.6992    0.0411 C   0  0  0  0  0  0  0  0  0  0  0  0
    1.6114   -0.1091   -1.0475 C   0  0  0  0  0  0  0  0  0  0  0  0
    2.6382   -1.0490   -0.9240 C   0  0  0  0  0  0  0  0  0  0  0  0
    3.1644   -2.0004   -2.3516 S   0  0  0  0  0  0  0  0  0  0  0  0
    4.3893   -0.7772   -2.9036 C   0  0  0  0  0  0  0  0  0  0  0  0
    3.2643   -1.2323    0.3134 C   0  0  0  0  0  0  0  0  0  0  0  0
    2.9205   -0.4201    1.3991 C   0  0  0  0  0  0  0  0  0  0  0  0
    0.2415    0.6846    3.9602 C   0  0  0  0  0  0  0  0  0  0  0  0
    0.8390   -0.8379    4.3067 S   0  0  0  0  0  0  0  0  0  0  0  0
   -0.7929    3.5160    1.7825 C   0  0  0  0  0  0  0  0  0  0  0  0
   -2.1530    3.5153    1.3754 C   0  0  0  0  0  0  0  0  0  0  0  0
   -3.1655    3.3123    2.2579 F   0  0  0  0  0  0  0  0  0  0  0  0
   -2.4856    3.5480    0.0202 C   0  0  0  0  0  0  0  0  0  0  0  0
   -3.7740    3.3153   -0.3426 F   0  0  0  0  0  0  0  0  0  0  0  0
   -1.4834    3.5763   -0.9469 C   0  0  0  0  0  0  0  0  0  0  0  0
   -0.1710    3.8914   -0.5487 C   0  0  0  0  0  0  0  0  0  0  0  0
    0.8139    4.0655   -1.4674 N   0  0  0  0  0  0  0  0  0  0  0  0
    2.0737    4.4139   -1.1066 C   0  0  0  0  0  0  0  0  0  0  0  0
    3.1053    4.5710   -2.1452 C   0  0  0  0  0  0  0  0  0  0  0  0
    2.9961    5.5832   -3.1061 C   0  0  0  0  0  0  0  0  0  0  0  0
    3.9997    5.7537   -4.0632 C   0  0  0  0  0  0  0  0  0  0  0  0
    5.1181    4.9140   -4.0646 C   0  0  0  0  0  0  0  0  0  0  0  0
    5.2308    3.8839   -3.1135 C   0  0  0  0  0  0  0  0  0  0  0  0
    6.3416    3.0329   -3.0491 O   0  0  0  0  0  0  0  0  0  0  0  0
    7.5183    3.1861   -3.8338 C   0  0  0  0  0  0  0  0  0  0  0  0
    8.5348    2.1325   -3.4235 C   0  0  0  0  0  0  0  0  0  0  0  0
    4.2074    3.7026   -2.1774 C   0  0  0  0  0  0  0  0  0  0  0  0
    2.3471    4.6694    0.2538 C   0  0  0  0  0  0  0  0  0  0  0  0
    1.3995    4.3649    1.1892 N   0  0  0  0  0  0  0  0  0  0  0  0
    0.1636    3.9270    0.8251 C   0  0  0  0  0  0  0  0  0  0  0  0
    3.4539    5.5674    0.6383 C   0  0  0  0  0  0  0  0  0  0  0  0
    3.1631    6.9089    0.9129 C   0  0  0  0  0  0  0  0  0  0  0  0
    4.1916    7.8151    1.1837 C   0  0  0  0  0  0  0  0  0  0  0  0
    5.5143    7.3837    1.2287 C   0  0  0  0  0  0  0  0  0  0  0  0
    5.8239    6.0298    0.9937 C   0  0  0  0  0  0  0  0  0  0  0  0
    7.1353    5.5327    1.0721 O   0  0  0  0  0  0  0  0  0  0  0  0
    8.2751    6.3543    1.3095 C   0  0  0  0  0  0  0  0  0  0  0  0
    9.5059    5.4747    1.4634 C   0  0  0  0  0  0  0  0  0  0  0  0
    4.7895    5.1375    0.6654 C   0  0  0  0  0  0  0  0  0  0  0  0
   -1.6971    2.7589   -2.1473 C   0  0  0  0  0  0  0  0  0  0  0  0
   -2.3269    3.0860   -3.3689 C   0  0  0  0  0  0  0  0  0  0  0  0
   -2.7728    4.4114   -3.7516 N   0  0  0  0  0  0  0  0  0  0  0  0
   -3.7485    4.5876   -4.7875 C   0  0  0  0  0  0  0  0  0  0  0  0
   -3.3657    5.1054   -6.0314 C   0  0  0  0  0  0  0  0  0  0  0  0
   -4.3042    5.2203   -7.0637 C   0  0  0  0  0  0  0  0  0  0  0  0
   -5.6310    4.8157   -6.8560 C   0  0  0  0  0  0  0  0  0  0  0  0
   -6.6457    4.9323   -7.9552 C   0  0  0  0  0  0  0  0  0  0  0  0
   -6.0168    4.3201   -5.6049 C   0  0  0  0  0  0  0  0  0  0  0  0
   -5.0786    4.2058   -4.5706 C   0  0  0  0  0  0  0  0  0  0  0  0
   -2.2909    5.5816   -3.0793 C   0  0  0  0  0  0  0  0  0  0  0  0
   -3.0790    6.2100   -2.1081 C   0  0  0  0  0  0  0  0  0  0  0  0
   -2.6058    7.3431   -1.4368 C   0  0  0  0  0  0  0  0  0  0  0  0
   -1.3413    7.8714   -1.7442 C   0  0  0  0  0  0  0  0  0  0  0  0
   -0.8301    9.0656   -1.0032 C   0  0  0  0  0  0  0  0  0  0  0  0
   -0.5681    7.2562   -2.7393 C   0  0  0  0  0  0  0  0  0  0  0  0
   -1.0340    6.1106   -3.3959 C   0  0  0  0  0  0  0  0  0  0  0  0
   -2.5403    1.9134   -4.1272 C   0  0  0  0  0  0  0  0  0  0  0  0
   -3.3290    1.5206   -5.5685 S   0  0  0  0  0  0  0  0  0  0  0  0
   -3.0984   -0.1637   -5.3945 C   0  0  0  0  0  0  0  0  0  0  0  0
   -2.5081   -0.4294   -4.1533 C   0  0  0  0  0  0  0  0  0  0  0  0
   -2.7007   -1.6471   -3.4161 N   0  0  0  0  0  0  0  0  0  0  0  0
   -3.9604   -1.8983   -2.7238 C   0  0  0  0  0  0  0  0  0  0  0  0
   -4.9192   -0.8774   -2.5466 C   0  0  0  0  0  0  0  0  0  0  0  0
   -6.0492   -1.0873   -1.7494 C   0  0  0  0  0  0  0  0  0  0  0  0
   -6.2431   -2.3173   -1.1078 C   0  0  0  0  0  0  0  0  0  0  0  0
   -7.4303   -2.5271   -0.2155 C   0  0  0  0  0  0  0  0  0  0  0  0
   -5.3422   -3.3633   -1.3445 C   0  0  0  0  0  0  0  0  0  0  0  0
   -4.2220   -3.1609   -2.1527 C   0  0  0  0  0  0  0  0  0  0  0  0
   -1.5342   -2.3901   -3.0270 C   0  0  0  0  0  0  0  0  0  0  0  0
   -1.1422   -2.4335   -1.6782 C   0  0  0  0  0  0  0  0  0  0  0  0
   -0.1165   -3.2876   -1.2626 C   0  0  0  0  0  0  0  0  0  0  0  0
    0.5435   -4.1005   -2.1987 C   0  0  0  0  0  0  0  0  0  0  0  0
    1.6101   -5.0556   -1.7575 C   0  0  0  0  0  0  0  0  0  0  0  0
    0.1632   -4.0485   -3.5461 C   0  0  0  0  0  0  0  0  0  0  0  0
   -0.8616   -3.1907   -3.9600 C   0  0  0  0  0  0  0  0  0  0  0  0
   -2.1596    0.7585   -3.5224 C   0  0  0  0  0  0  0  0  0  0  0  0
   -1.5582    1.0707   -2.0139 S   0  0  0  0  0  0  0  0  0  0  0  0
   -3.6967   -1.1722   -6.2526 C   0  0  0  0  0  0  0  0  0  0  0  0
   -3.0083   -2.0829   -6.9683 C   0  0  0  0  0  0  0  0  0  0  0  0
   -3.6403   -3.3424   -7.3858 C   0  0  0  0  0  0  0  0  0  0  0  0
   -4.8314   -3.6830   -7.1435 O   0  0  0  0  0  0  0  0  0  0  0  0
   -2.6477   -4.2014   -7.9849 C   0  0  0  0  0  0  0  0  0  0  0  0
   -2.7768   -5.5788   -8.2931 C   0  0  0  0  0  0  0  0  0  0  0  0
   -1.5873   -6.1936   -8.6531 C   0  0  0  0  0  0  0  0  0  0  0  0
   -0.3409   -5.4903   -8.7140 C   0  0  0  0  0  0  0  0  0  0  0  0
   -0.2053   -4.1523   -8.3978 C   0  0  0  0  0  0  0  0  0  0  0  0
   -1.4186   -3.4982   -8.0474 C   0  0  0  0  0  0  0  0  0  0  0  0
   -1.5897   -2.1248   -7.4926 C   0  0  0  0  0  0  0  0  0  0  0  0
   -0.7012   -1.1233   -7.7036 C   0  0  0  0  0  0  0  0  0  0  0  0
   -0.5810    0.0685   -6.9026 C   0  0  0  0  0  0  0  0  0  0  0  0
   -0.3792    1.0313   -6.2829 N   0  0  0  0  0  0  0  0  0  0  0  0
    0.2807   -1.2070   -8.7573 C   0  0  0  0  0  0  0  0  0  0  0  0
    1.0588   -1.2651   -9.6138 N   0  0  0  0  0  0  0  0  0  0  0  0
    0.3818   -6.7585   -9.0662 C   0  0  0  0  0  0  0  0  0  0  0  0
    1.2692   -7.4180   -7.9712 C   0  0  0  0  0  0  0  0  0  0  0  0
    0.7292   -7.0858   -6.6049 C   0  0  0  0  0  0  0  0  0  0  0  0
   -0.4355   -7.7229   -6.4967 C   0  0  0  0  0  0  0  0  0  0  0  0
   -0.6476   -8.4786   -7.7959 C   0  0  0  0  0  0  0  0  0  0  0  0
    0.7943   -8.8577   -8.0765 C   0  0  0  0  0  0  0  0  0  0  0  0
   -0.8920   -7.4790   -8.9696 C   0  0  0  0  0  0  0  0  0  0  0  0
   -0.9222   -2.3760    7.1569 H   0  0  0  0  0  0  0  0  0  0  0  0
    2.2755   -5.3631    2.6419 H   0  0  0  0  0  0  0  0  0  0  0  0
    1.7227   -7.1957    7.3738 H   0  0  0  0  0  0  0  0  0  0  0  0
    3.5149   -9.3789    5.3010 H   0  0  0  0  0  0  0  0  0  0  0  0
    5.1954   -7.9877    7.0217 H   0  0  0  0  0  0  0  0  0  0  0  0
    6.8181   -9.6122    5.6827 H   0  0  0  0  0  0  0  0  0  0  0  0
    7.0771   -8.6952    3.2591 H   0  0  0  0  0  0  0  0  0  0  0  0
    5.6256   -6.4851    3.0393 H   0  0  0  0  0  0  0  0  0  0  0  0
    4.8500   -5.7992    5.5134 H   0  0  0  0  0  0  0  0  0  0  0  0
    6.5866   -6.2932    5.5119 H   0  0  0  0  0  0  0  0  0  0  0  0
    3.7562   -8.5345    3.0681 H   0  0  0  0  0  0  0  0  0  0  0  0
   -2.9842   -0.6677    3.6348 H   0  0  0  0  0  0  0  0  0  0  0  0
   -5.0414   -1.5952    2.6917 H   0  0  0  0  0  0  0  0  0  0  0  0
   -7.5790   -0.2246    2.7942 H   0  0  0  0  0  0  0  0  0  0  0  0
   -8.2296   -0.1195    4.4877 H   0  0  0  0  0  0  0  0  0  0  0  0
   -9.2479   -0.8074    3.1591 H   0  0  0  0  0  0  0  0  0  0  0  0
   -6.7404   -1.8964    6.6334 H   0  0  0  0  0  0  0  0  0  0  0  0
   -4.6702   -1.0042    7.6066 H   0  0  0  0  0  0  0  0  0  0  0  0
   -0.6372    0.0925    8.2230 H   0  0  0  0  0  0  0  0  0  0  0  0
   -0.7162    1.5555   10.1988 H   0  0  0  0  0  0  0  0  0  0  0  0
   -3.0772    1.4715   12.3602 H   0  0  0  0  0  0  0  0  0  0  0  0
   -3.9714    2.8905   13.0362 H   0  0  0  0  0  0  0  0  0  0  0  0
   -4.5827    2.0792   11.5525 H   0  0  0  0  0  0  0  0  0  0  0  0
   -4.4829    3.1572    8.8720 H   0  0  0  0  0  0  0  0  0  0  0  0
   -4.4324    1.6779    6.9101 H   0  0  0  0  0  0  0  0  0  0  0  0
    4.2466    1.9600    1.1655 H   0  0  0  0  0  0  0  0  0  0  0  0
    6.2910    2.7198    2.2818 H   0  0  0  0  0  0  0  0  0  0  0  0
    8.1875    1.9024    6.1122 H   0  0  0  0  0  0  0  0  0  0  0  0
    7.2495    1.1850    4.7470 H   0  0  0  0  0  0  0  0  0  0  0  0
    6.4258    1.5839    6.3135 H   0  0  0  0  0  0  0  0  0  0  0  0
    4.0967    3.3711    5.9193 H   0  0  0  0  0  0  0  0  0  0  0  0
    2.0498    2.5981    4.8471 H   0  0  0  0  0  0  0  0  0  0  0  0
    0.4998    1.4371   -0.0781 H   0  0  0  0  0  0  0  0  0  0  0  0
    1.1099    0.0147   -2.0004 H   0  0  0  0  0  0  0  0  0  0  0  0
    5.0570   -0.4989   -2.0675 H   0  0  0  0  0  0  0  0  0  0  0  0
    4.9955   -1.2176   -3.7194 H   0  0  0  0  0  0  0  0  0  0  0  0
    3.8722    0.1273   -3.2786 H   0  0  0  0  0  0  0  0  0  0  0  0
    4.0434   -1.9803    0.4187 H   0  0  0  0  0  0  0  0  0  0  0  0
    3.4452   -0.5429    2.3355 H   0  0  0  0  0  0  0  0  0  0  0  0
    2.1510    6.2511   -3.1025 H   0  0  0  0  0  0  0  0  0  0  0  0
    3.9105    6.5419   -4.8028 H   0  0  0  0  0  0  0  0  0  0  0  0
    5.8888    5.0797   -4.8048 H   0  0  0  0  0  0  0  0  0  0  0  0
    7.9537    4.1920   -3.6566 H   0  0  0  0  0  0  0  0  0  0  0  0
    7.2758    3.0680   -4.9084 H   0  0  0  0  0  0  0  0  0  0  0  0
    9.4638    2.2506   -4.0193 H   0  0  0  0  0  0  0  0  0  0  0  0
    8.7819    2.2406   -2.3477 H   0  0  0  0  0  0  0  0  0  0  0  0
    8.1228    1.1157   -3.6022 H   0  0  0  0  0  0  0  0  0  0  0  0
    4.2816    2.9000   -1.4566 H   0  0  0  0  0  0  0  0  0  0  0  0
    2.1401    7.2648    0.8722 H   0  0  0  0  0  0  0  0  0  0  0  0
    3.9596    8.8586    1.3543 H   0  0  0  0  0  0  0  0  0  0  0  0
    6.2820    8.1130    1.4370 H   0  0  0  0  0  0  0  0  0  0  0  0
    8.4236    7.0405    0.4435 H   0  0  0  0  0  0  0  0  0  0  0  0
    8.1346    6.9449    2.2410 H   0  0  0  0  0  0  0  0  0  0  0  0
    9.4104    4.8444    2.3702 H   0  0  0  0  0  0  0  0  0  0  0  0
    9.6065    4.7938    0.5816 H   0  0  0  0  0  0  0  0  0  0  0  0
   10.4168    6.1009    1.5512 H   0  0  0  0  0  0  0  0  0  0  0  0
    5.0395    4.1190    0.4324 H   0  0  0  0  0  0  0  0  0  0  0  0
   -2.3359    5.4047   -6.2099 H   0  0  0  0  0  0  0  0  0  0  0  0
   -3.9908    5.6126   -8.0239 H   0  0  0  0  0  0  0  0  0  0  0  0
   -6.1626    5.1193   -8.9385 H   0  0  0  0  0  0  0  0  0  0  0  0
   -7.3383    5.7722   -7.7292 H   0  0  0  0  0  0  0  0  0  0  0  0
   -7.2297    3.9876   -8.0383 H   0  0  0  0  0  0  0  0  0  0  0  0
   -7.0412    4.0114   -5.4311 H   0  0  0  0  0  0  0  0  0  0  0  0
   -5.3865    3.8107   -3.6103 H   0  0  0  0  0  0  0  0  0  0  0  0
   -4.0547    5.8106   -1.8588 H   0  0  0  0  0  0  0  0  0  0  0  0
   -3.2200    7.8060   -0.6711 H   0  0  0  0  0  0  0  0  0  0  0  0
   -1.5583    9.8991   -1.0805 H   0  0  0  0  0  0  0  0  0  0  0  0
    0.1383    9.4087   -1.4185 H   0  0  0  0  0  0  0  0  0  0  0  0
   -0.6829    8.8054    0.0646 H   0  0  0  0  0  0  0  0  0  0  0  0
    0.3943    7.6650   -3.0089 H   0  0  0  0  0  0  0  0  0  0  0  0
   -0.4208    5.6411   -4.1567 H   0  0  0  0  0  0  0  0  0  0  0  0
   -4.7939    0.0970   -2.9945 H   0  0  0  0  0  0  0  0  0  0  0  0
   -6.7607   -0.2783   -1.6125 H   0  0  0  0  0  0  0  0  0  0  0  0
   -7.1994   -3.2652    0.5822 H   0  0  0  0  0  0  0  0  0  0  0  0
   -7.7276   -1.5766    0.2777 H   0  0  0  0  0  0  0  0  0  0  0  0
   -8.2793   -2.9045   -0.8295 H   0  0  0  0  0  0  0  0  0  0  0  0
   -5.4978   -4.3315   -0.8872 H   0  0  0  0  0  0  0  0  0  0  0  0
   -3.5415   -3.9880   -2.2944 H   0  0  0  0  0  0  0  0  0  0  0  0
   -1.6608   -1.8328   -0.9430 H   0  0  0  0  0  0  0  0  0  0  0  0
    0.1625   -3.3111   -0.2160 H   0  0  0  0  0  0  0  0  0  0  0  0
    1.9234   -4.8702   -0.7066 H   0  0  0  0  0  0  0  0  0  0  0  0
    2.5034   -4.9571   -2.4134 H   0  0  0  0  0  0  0  0  0  0  0  0
    1.2257   -6.0982   -1.8406 H   0  0  0  0  0  0  0  0  0  0  0  0
    0.6547   -4.6751   -4.2790 H   0  0  0  0  0  0  0  0  0  0  0  0
   -1.1700   -3.1922   -4.9953 H   0  0  0  0  0  0  0  0  0  0  0  0
   -4.7561   -1.3234   -6.1135 H   0  0  0  0  0  0  0  0  0  0  0  0
   -3.7076   -6.1197   -8.2062 H   0  0  0  0  0  0  0  0  0  0  0  0
    0.7728   -3.6956   -8.3482 H   0  0  0  0  0  0  0  0  0  0  0  0
    0.8211   -6.7464  -10.0909 H   0  0  0  0  0  0  0  0  0  0  0  0
    2.3640   -7.2806   -8.0913 H   0  0  0  0  0  0  0  0  0  0  0  0
    1.2103   -6.4943   -5.8280 H   0  0  0  0  0  0  0  0  0  0  0  0
   -1.0649   -7.7514   -5.6097 H   0  0  0  0  0  0  0  0  0  0  0  0
   -1.3633   -9.3245   -7.7294 H   0  0  0  0  0  0  0  0  0  0  0  0
    0.9498   -9.3077   -9.0844 H   0  0  0  0  0  0  0  0  0  0  0  0
    1.2339   -9.5311   -7.2988 H   0  0  0  0  0  0  0  0  0  0  0  0
   -1.2186   -7.9372   -9.9262 H   0  0  0  0  0  0  0  0  0  0  0  0
  1  2  2  3
  2  3  1  0
  3  4  2  0
  3  5  1  0
  5  6  2  0
  6  7  1  0
  7  8  2  0
  8  9  1  0
  9 10  2  0
 10 11  1  0
 11 12  2  3
 12 13  1  0
 13 14  3  0
 12 15  1  0
 15 16  3  0
  8 17  1  0
 17 18  1  0
 18 19  1  0
 19 20  2  0
 20 21  1  0
 21 22  1  0
 21 23  1  0
  1 24  1  0
 24 25  2  0
 25 26  1  0
 26 27  1  0
 27 28  2  0
 28 29  1  0
 29 30  2  0
 30 31  1  0
 31 32  1  0
 30 33  1  0
 33 34  2  0
 26 35  1  0
 35 36  2  0
 36 37  1  0
 37 38  2  0
 38 39  1  0
 39 40  1  0
 38 41  1  0
 41 42  2  0
 25 43  1  0
 43 44  1  0
 44 45  1  0
 45 46  2  0
 46 47  1  0
 47 48  1  0
 48 49  2  0
 49 50  1  0
 50 51  2  0
 51 52  1  0
 52 53  1  0
 51 54  1  0
 54 55  2  0
 47 56  1  0
 56 57  2  0
 57 58  1  0
 58 59  2  0
 59 60  1  0
 60 61  1  0
 59 62  1  0
 62 63  2  0
 46 64  1  0
 64 65  1  0
 45 66  1  0
 66 67  2  0
 67 68  1  0
 67 69  1  0
 69 70  1  0
 69 71  2  0
 71 72  1  0
 72 73  2  0
 73 74  1  0
 74 75  1  0
 75 76  2  0
 76 77  1  0
 77 78  2  0
 78 79  1  0
 79 80  1  0
 80 81  1  0
 81 82  1  0
 79 83  2  0
 74 84  2  0
 84 85  1  0
 85 86  2  0
 84 87  1  0
 87 88  2  0
 88 89  1  0
 89 90  2  0
 90 91  1  0
 91 92  1  0
 92 93  1  0
 93 94  1  0
 91 95  2  0
 71 96  1  0
 96 97  2  0
 97 98  1  0
 98 99  1  0
 99100  2  0
100101  1  0
101102  2  0
102103  1  0
102104  1  0
104105  2  0
 98106  1  0
106107  2  0
107108  1  0
108109  2  0
109110  1  0
109111  1  0
111112  2  0
 97113  1  0
113114  1  0
114115  1  0
115116  2  0
116117  1  0
117118  1  0
118119  2  0
119120  1  0
120121  2  0
121122  1  0
121123  1  0
123124  2  0
117125  1  0
125126  2  0
126127  1  0
127128  2  0
128129  1  0
128130  1  0
130131  2  0
116132  1  0
132133  1  0
115134  1  0
134135  2  3
135136  1  0
136137  2  0
136138  1  0
138139  2  0
139140  1  0
140141  2  0
141142  1  0
142143  2  0
143144  1  0
144145  2  3
145146  1  0
146147  3  0
145148  1  0
148149  3  0
141150  1  0
150151  1  0
151152  1  0
152153  2  0
153154  1  0
154155  1  0
154156  1  0
 11  2  1  0
 23 17  1  0
 65 24  1  0
 86 66  1  0
 95 87  1  0
133 96  1  0
144135  1  0
156150  1  0
 10  5  1  0
 22 18  1  0
 34 27  1  0
 42 35  1  0
 64 43  2  0
 86 72  1  0
105 99  1  0
112106  1  0
132113  2  0
143138  1  0
155151  1  0
 23  7  1  0
 55 48  1  0
 63 56  1  0
 83 75  1  0
124118  1  0
131125  1  0
156140  1  0
  1157  1  0
  6158  1  0
  9159  1  0
 17160  1  0
 18161  1  0
 19162  1  0
 20163  1  0
 21164  1  0
 22165  1  0
 22166  1  0
 23167  1  0
 28168  1  0
 29169  1  0
 32170  1  0
 32171  1  0
 32172  1  0
 33173  1  0
 34174  1  0
 36175  1  0
 37176  1  0
 40177  1  0
 40178  1  0
 40179  1  0
 41180  1  0
 42181  1  0
 49182  1  0
 50183  1  0
 53184  1  0
 53185  1  0
 53186  1  0
 54187  1  0
 55188  1  0
 57189  1  0
 58190  1  0
 61191  1  0
 61192  1  0
 61193  1  0
 62194  1  0
 63195  1  0
 76196  1  0
 77197  1  0
 78198  1  0
 81199  1  0
 81200  1  0
 82201  1  0
 82202  1  0
 82203  1  0
 83204  1  0
 88205  1  0
 89206  1  0
 90207  1  0
 93208  1  0
 93209  1  0
 94210  1  0
 94211  1  0
 94212  1  0
 95213  1  0
100214  1  0
101215  1  0
103216  1  0
103217  1  0
103218  1  0
104219  1  0
105220  1  0
107221  1  0
108222  1  0
110223  1  0
110224  1  0
110225  1  0
111226  1  0
112227  1  0
119228  1  0
120229  1  0
122230  1  0
122231  1  0
122232  1  0
123233  1  0
124234  1  0
126235  1  0
127236  1  0
129237  1  0
129238  1  0
129239  1  0
130240  1  0
131241  1  0
134242  1  0
139243  1  0
142244  1  0
150245  1  0
151246  1  0
152247  1  0
153248  1  0
154249  1  0
155250  1  0
155251  1  0
156252  1  0
M  END

