
     RDKit          3D

208231  0  0  0  0  0  0  0  0999 V2000
    7.1477   -2.7635    5.4988 C   0  0  0  0  0  0  0  0  0  0  0  0
    6.3399   -3.5654    6.2202 C   0  0  0  0  0  0  0  0  0  0  0  0
    4.9246   -3.2961    6.5101 C   0  0  0  0  0  0  0  0  0  0  0  0
    4.3616   -2.1683    6.5037 O   0  0  0  0  0  0  0  0  0  0  0  0
    4.2573   -4.5515    6.7723 C   0  0  0  0  0  0  0  0  0  0  0  0
    2.8749   -4.7498    6.9998 C   0  0  0  0  0  0  0  0  0  0  0  0
    2.5069   -6.0761    7.0975 C   0  0  0  0  0  0  0  0  0  0  0  0
    3.4380   -7.1537    6.9545 C   0  0  0  0  0  0  0  0  0  0  0  0
    4.7952   -6.9691    6.7452 C   0  0  0  0  0  0  0  0  0  0  0  0
    5.2016   -5.6052    6.6814 C   0  0  0  0  0  0  0  0  0  0  0  0
    6.5586   -5.0220    6.4712 C   0  0  0  0  0  0  0  0  0  0  0  0
    7.7547   -5.6503    6.6213 C   0  0  0  0  0  0  0  0  0  0  0  0
    8.9966   -4.9238    6.6746 C   0  0  0  0  0  0  0  0  0  0  0  0
   10.0036   -4.3511    6.7256 N   0  0  0  0  0  0  0  0  0  0  0  0
    7.8643   -7.0688    6.8306 C   0  0  0  0  0  0  0  0  0  0  0  0
    7.9638   -8.2162    6.9751 N   0  0  0  0  0  0  0  0  0  0  0  0
    2.3297   -8.1522    7.1001 C   0  0  0  0  0  0  0  0  0  0  0  0
    1.8232   -8.8760    5.8143 C   0  0  0  0  0  0  0  0  0  0  0  0
    1.9708   -7.9709    4.6132 C   0  0  0  0  0  0  0  0  0  0  0  0
    1.0950   -6.9772    4.7738 C   0  0  0  0  0  0  0  0  0  0  0  0
    0.3861   -7.2364    6.0844 C   0  0  0  0  0  0  0  0  0  0  0  0
    0.3263   -8.7521    6.0250 C   0  0  0  0  0  0  0  0  0  0  0  0
    1.3793   -7.0514    7.2730 C   0  0  0  0  0  0  0  0  0  0  0  0
    6.6346   -1.5809    4.7987 C   0  0  0  0  0  0  0  0  0  0  0  0
    6.0396   -1.6642    3.2383 S   0  0  0  0  0  0  0  0  0  0  0  0
    5.4488   -0.0926    3.1513 C   0  0  0  0  0  0  0  0  0  0  0  0
    5.7364    0.5430    4.3704 C   0  0  0  0  0  0  0  0  0  0  0  0
    5.4368    1.9512    4.7255 C   0  0  0  0  0  0  0  0  0  0  0  0
    5.0937    2.7757    3.8414 O   0  0  0  0  0  0  0  0  0  0  0  0
    5.6618    2.3894    6.1252 C   0  0  0  0  0  0  0  0  0  0  0  0
    5.3100    3.6341    6.6670 C   0  0  0  0  0  0  0  0  0  0  0  0
    4.5864    4.7623    5.9966 C   0  0  0  0  0  0  0  0  0  0  0  0
    5.5533    5.6963    5.2790 C   0  0  0  0  0  0  0  0  0  0  0  0
    5.8611    3.6931    8.2516 S   0  0  0  0  0  0  0  0  0  0  0  0
    6.5149    2.1423    8.2994 C   0  0  0  0  0  0  0  0  0  0  0  0
    7.2793    1.6076    9.4748 C   0  0  0  0  0  0  0  0  0  0  0  0
    8.7783    1.8038    9.2730 C   0  0  0  0  0  0  0  0  0  0  0  0
    6.3216    1.5440    7.0477 C   0  0  0  0  0  0  0  0  0  0  0  0
    6.7425    0.1765    6.6523 C   0  0  0  0  0  0  0  0  0  0  0  0
    7.3668   -0.5731    7.4490 O   0  0  0  0  0  0  0  0  0  0  0  0
    6.3927   -0.3001    5.2957 C   0  0  0  0  0  0  0  0  0  0  0  0
    4.6259    0.3734    2.0162 C   0  0  0  0  0  0  0  0  0  0  0  0
    4.5500   -0.2843    0.7961 C   0  0  0  0  0  0  0  0  0  0  0  0
    3.5917    0.3936    0.0794 C   0  0  0  0  0  0  0  0  0  0  0  0
    3.0118    0.1078   -1.1696 C   0  0  0  0  0  0  0  0  0  0  0  0
    3.2325   -1.1827   -1.8525 C   0  0  0  0  0  0  0  0  0  0  0  0
    3.3095   -1.3939   -3.2256 C   0  0  0  0  0  0  0  0  0  0  0  0
    3.4864   -2.7402   -3.5738 C   0  0  0  0  0  0  0  0  0  0  0  0
    3.6723   -3.2750   -5.2346 Cl  0  0  0  0  0  0  0  0  0  0  0  0
    3.5232   -3.5973   -2.4764 C   0  0  0  0  0  0  0  0  0  0  0  0
    3.8131   -5.0692   -2.5020 C   0  0  0  0  0  0  0  0  0  0  0  0
    5.3167   -5.3156   -2.5244 C   0  0  0  0  0  0  0  0  0  0  0  0
    3.3606   -2.6790   -1.0838 S   0  0  0  0  0  0  0  0  0  0  0  0
    2.0436    1.0366   -1.6048 C   0  0  0  0  0  0  0  0  0  0  0  0
    1.6420    2.1106   -0.8195 C   0  0  0  0  0  0  0  0  0  0  0  0
    2.1486    2.3262    0.4829 C   0  0  0  0  0  0  0  0  0  0  0  0
    1.5317    3.2624    1.4484 C   0  0  0  0  0  0  0  0  0  0  0  0
    2.3260    3.9882    2.7449 S   0  0  0  0  0  0  0  0  0  0  0  0
    0.9576    4.5907    3.5099 C   0  0  0  0  0  0  0  0  0  0  0  0
    0.9432    5.1951    4.8792 C   0  0  0  0  0  0  0  0  0  0  0  0
    0.8710    4.1036    5.9464 C   0  0  0  0  0  0  0  0  0  0  0  0
   -0.1564    4.2088    2.7612 C   0  0  0  0  0  0  0  0  0  0  0  0
    0.1632    3.4686    1.6169 C   0  0  0  0  0  0  0  0  0  0  0  0
   -1.8131    4.5258    3.2427 Cl  0  0  0  0  0  0  0  0  0  0  0  0
    3.1659    1.4370    0.8829 C   0  0  0  0  0  0  0  0  0  0  0  0
    3.7916    1.3956    2.0382 O   0  0  0  0  0  0  0  0  0  0  0  0
    0.6325    2.7418   -1.5145 C   0  0  0  0  0  0  0  0  0  0  0  0
    0.4473    1.9699   -2.6548 C   0  0  0  0  0  0  0  0  0  0  0  0
    1.3191    0.9808   -2.6982 O   0  0  0  0  0  0  0  0  0  0  0  0
   -0.7038    2.0804   -3.5612 C   0  0  0  0  0  0  0  0  0  0  0  0
   -0.8276    1.3578   -4.7653 C   0  0  0  0  0  0  0  0  0  0  0  0
    0.0907    1.5858   -5.8524 N   0  0  0  0  0  0  0  0  0  0  0  0
    0.5190    0.5152   -6.7078 C   0  0  0  0  0  0  0  0  0  0  0  0
    1.7955   -0.0320   -6.5436 C   0  0  0  0  0  0  0  0  0  0  0  0
    2.2932   -0.9546   -7.4647 C   0  0  0  0  0  0  0  0  0  0  0  0
    1.5091   -1.3514   -8.5520 C   0  0  0  0  0  0  0  0  0  0  0  0
    2.1595   -2.5207   -9.7502 S   0  0  0  0  0  0  0  0  0  0  0  0
    1.5363   -3.9744   -8.8520 C   0  0  0  0  0  0  0  0  0  0  0  0
    0.2416   -0.7897   -8.7376 C   0  0  0  0  0  0  0  0  0  0  0  0
   -0.2406    0.1581   -7.8334 C   0  0  0  0  0  0  0  0  0  0  0  0
    0.3117    2.9403   -6.3076 C   0  0  0  0  0  0  0  0  0  0  0  0
    1.5909    3.3606   -6.7106 C   0  0  0  0  0  0  0  0  0  0  0  0
    1.7924    4.6555   -7.2008 C   0  0  0  0  0  0  0  0  0  0  0  0
    0.7179    5.5444   -7.2966 C   0  0  0  0  0  0  0  0  0  0  0  0
    0.9660    7.1861   -7.9761 S   0  0  0  0  0  0  0  0  0  0  0  0
    1.2906    7.9435   -6.3511 C   0  0  0  0  0  0  0  0  0  0  0  0
   -0.5575    5.1414   -6.8934 C   0  0  0  0  0  0  0  0  0  0  0  0
   -0.7604    3.8504   -6.4021 C   0  0  0  0  0  0  0  0  0  0  0  0
   -2.1759    1.0791   -5.0067 C   0  0  0  0  0  0  0  0  0  0  0  0
   -2.9977    0.0046   -5.9977 S   0  0  0  0  0  0  0  0  0  0  0  0
   -4.5326    0.3475   -5.3446 C   0  0  0  0  0  0  0  0  0  0  0  0
   -4.4051    1.3516   -4.3599 C   0  0  0  0  0  0  0  0  0  0  0  0
   -5.4831    2.0984   -3.7534 N   0  0  0  0  0  0  0  0  0  0  0  0
   -6.8237    1.5923   -3.7126 C   0  0  0  0  0  0  0  0  0  0  0  0
   -7.3019    0.9473   -2.5620 C   0  0  0  0  0  0  0  0  0  0  0  0
   -8.6299    0.5176   -2.5022 C   0  0  0  0  0  0  0  0  0  0  0  0
   -9.4912    0.7413   -3.5863 C   0  0  0  0  0  0  0  0  0  0  0  0
  -11.2166    0.2651   -3.4968 S   0  0  0  0  0  0  0  0  0  0  0  0
  -10.9075   -1.4187   -4.1068 C   0  0  0  0  0  0  0  0  0  0  0  0
   -9.0152    1.3820   -4.7338 C   0  0  0  0  0  0  0  0  0  0  0  0
   -7.6857    1.8138   -4.7960 C   0  0  0  0  0  0  0  0  0  0  0  0
   -5.3092    3.5098   -3.5137 C   0  0  0  0  0  0  0  0  0  0  0  0
   -4.7585    4.3397   -4.5086 C   0  0  0  0  0  0  0  0  0  0  0  0
   -4.5467    5.6969   -4.2616 C   0  0  0  0  0  0  0  0  0  0  0  0
   -4.8888    6.2452   -3.0217 C   0  0  0  0  0  0  0  0  0  0  0  0
   -4.6028    7.9888   -2.7046 S   0  0  0  0  0  0  0  0  0  0  0  0
   -2.8788    7.7337   -2.1834 C   0  0  0  0  0  0  0  0  0  0  0  0
   -5.4580    5.4319   -2.0332 C   0  0  0  0  0  0  0  0  0  0  0  0
   -5.6781    4.0733   -2.2815 C   0  0  0  0  0  0  0  0  0  0  0  0
   -3.0622    1.6665   -4.1637 C   0  0  0  0  0  0  0  0  0  0  0  0
   -2.2448    2.4697   -2.9501 S   0  0  0  0  0  0  0  0  0  0  0  0
   -5.6576   -0.5816   -5.5011 C   0  0  0  0  0  0  0  0  0  0  0  0
   -5.9356   -1.5329   -4.5876 C   0  0  0  0  0  0  0  0  0  0  0  0
   -5.3133   -1.6462   -3.2598 C   0  0  0  0  0  0  0  0  0  0  0  0
   -4.2146   -1.1424   -2.8959 O   0  0  0  0  0  0  0  0  0  0  0  0
   -6.1712   -2.4380   -2.4115 C   0  0  0  0  0  0  0  0  0  0  0  0
   -6.0476   -2.6134   -1.0150 C   0  0  0  0  0  0  0  0  0  0  0  0
   -7.0998   -3.3042   -0.4434 C   0  0  0  0  0  0  0  0  0  0  0  0
   -8.2087   -3.8026   -1.1990 C   0  0  0  0  0  0  0  0  0  0  0  0
   -8.3252   -3.6473   -2.5696 C   0  0  0  0  0  0  0  0  0  0  0  0
   -7.2622   -2.9220   -3.1765 C   0  0  0  0  0  0  0  0  0  0  0  0
   -7.0945   -2.4777   -4.5906 C   0  0  0  0  0  0  0  0  0  0  0  0
   -7.6939   -3.0045   -5.6859 C   0  0  0  0  0  0  0  0  0  0  0  0
   -7.2244   -2.7314   -7.0207 C   0  0  0  0  0  0  0  0  0  0  0  0
   -6.8383   -2.5368   -8.0948 N   0  0  0  0  0  0  0  0  0  0  0  0
   -8.7621   -3.9619   -5.6016 C   0  0  0  0  0  0  0  0  0  0  0  0
   -9.6268   -4.7335   -5.5523 N   0  0  0  0  0  0  0  0  0  0  0  0
   -8.8486   -4.3205    0.0527 C   0  0  0  0  0  0  0  0  0  0  0  0
   -8.8124   -5.8590    0.3065 C   0  0  0  0  0  0  0  0  0  0  0  0
   -7.5720   -6.4581   -0.3135 C   0  0  0  0  0  0  0  0  0  0  0  0
   -6.5348   -5.9975    0.3871 C   0  0  0  0  0  0  0  0  0  0  0  0
   -7.1034   -5.1028    1.4632 C   0  0  0  0  0  0  0  0  0  0  0  0
   -8.3798   -5.8695    1.7623 C   0  0  0  0  0  0  0  0  0  0  0  0
   -7.7108   -3.8160    0.8266 C   0  0  0  0  0  0  0  0  0  0  0  0
    8.0923   -3.1331    5.1390 H   0  0  0  0  0  0  0  0  0  0  0  0
    2.1618   -3.9387    7.0582 H   0  0  0  0  0  0  0  0  0  0  0  0
    5.4449   -7.8146    6.6025 H   0  0  0  0  0  0  0  0  0  0  0  0
    2.4220   -8.8038    7.9976 H   0  0  0  0  0  0  0  0  0  0  0  0
    2.2077   -9.9099    5.6736 H   0  0  0  0  0  0  0  0  0  0  0  0
    2.6036   -8.1250    3.7459 H   0  0  0  0  0  0  0  0  0  0  0  0
    0.8869   -6.1877    4.0608 H   0  0  0  0  0  0  0  0  0  0  0  0
   -0.5896   -6.7237    6.1980 H   0  0  0  0  0  0  0  0  0  0  0  0
   -0.2758   -9.1444    5.1677 H   0  0  0  0  0  0  0  0  0  0  0  0
   -0.0325   -9.2204    6.9736 H   0  0  0  0  0  0  0  0  0  0  0  0
    0.9033   -7.0223    8.2815 H   0  0  0  0  0  0  0  0  0  0  0  0
    3.8462    4.3673    5.2754 H   0  0  0  0  0  0  0  0  0  0  0  0
    4.0232    5.3393    6.7594 H   0  0  0  0  0  0  0  0  0  0  0  0
    6.1239    5.1442    4.5020 H   0  0  0  0  0  0  0  0  0  0  0  0
    4.9834    6.5102    4.7862 H   0  0  0  0  0  0  0  0  0  0  0  0
    6.2627    6.1446    6.0074 H   0  0  0  0  0  0  0  0  0  0  0  0
    6.9675    2.1521   10.3920 H   0  0  0  0  0  0  0  0  0  0  0  0
    7.0488    0.5342    9.6369 H   0  0  0  0  0  0  0  0  0  0  0  0
    9.0122    2.8832    9.1589 H   0  0  0  0  0  0  0  0  0  0  0  0
    9.3281    1.4132   10.1540 H   0  0  0  0  0  0  0  0  0  0  0  0
    9.1289    1.2582    8.3700 H   0  0  0  0  0  0  0  0  0  0  0  0
    5.1065   -1.1612    0.4923 H   0  0  0  0  0  0  0  0  0  0  0  0
    3.2781   -0.5905   -3.9418 H   0  0  0  0  0  0  0  0  0  0  0  0
    3.3492   -5.5310   -3.3979 H   0  0  0  0  0  0  0  0  0  0  0  0
    3.3778   -5.5526   -1.5988 H   0  0  0  0  0  0  0  0  0  0  0  0
    5.5197   -6.4069   -2.5395 H   0  0  0  0  0  0  0  0  0  0  0  0
    5.7912   -4.8776   -1.6202 H   0  0  0  0  0  0  0  0  0  0  0  0
    5.7731   -4.8641   -3.4285 H   0  0  0  0  0  0  0  0  0  0  0  0
    0.0751    5.8749    4.9878 H   0  0  0  0  0  0  0  0  0  0  0  0
    1.8663    5.7971    5.0241 H   0  0  0  0  0  0  0  0  0  0  0  0
   -0.0727    3.5252    5.8380 H   0  0  0  0  0  0  0  0  0  0  0  0
    0.8911    4.5652    6.9552 H   0  0  0  0  0  0  0  0  0  0  0  0
    1.7315    3.4092    5.8565 H   0  0  0  0  0  0  0  0  0  0  0  0
   -0.5951    3.0288    0.9828 H   0  0  0  0  0  0  0  0  0  0  0  0
    0.0357    3.5880   -1.2000 H   0  0  0  0  0  0  0  0  0  0  0  0
    2.4258    0.3263   -5.7438 H   0  0  0  0  0  0  0  0  0  0  0  0
    3.3011   -1.3350   -7.3503 H   0  0  0  0  0  0  0  0  0  0  0  0
    1.9457   -3.9925   -7.8207 H   0  0  0  0  0  0  0  0  0  0  0  0
    1.8604   -4.8924   -9.3831 H   0  0  0  0  0  0  0  0  0  0  0  0
    0.4267   -3.9536   -8.8116 H   0  0  0  0  0  0  0  0  0  0  0  0
   -0.3586   -1.0645   -9.5947 H   0  0  0  0  0  0  0  0  0  0  0  0
   -1.1847    0.6468   -8.0327 H   0  0  0  0  0  0  0  0  0  0  0  0
    2.4369    2.6874   -6.6423 H   0  0  0  0  0  0  0  0  0  0  0  0
    2.7837    4.9634   -7.5106 H   0  0  0  0  0  0  0  0  0  0  0  0
    2.1709    7.4604   -5.8729 H   0  0  0  0  0  0  0  0  0  0  0  0
    1.5015    9.0238   -6.4916 H   0  0  0  0  0  0  0  0  0  0  0  0
    0.4012    7.8334   -5.6929 H   0  0  0  0  0  0  0  0  0  0  0  0
   -1.3941    5.8246   -6.9710 H   0  0  0  0  0  0  0  0  0  0  0  0
   -1.7641    3.5556   -6.1210 H   0  0  0  0  0  0  0  0  0  0  0  0
   -6.6456    0.7888   -1.7149 H   0  0  0  0  0  0  0  0  0  0  0  0
   -8.9924    0.0167   -1.6131 H   0  0  0  0  0  0  0  0  0  0  0  0
  -10.3821   -1.9913   -3.3173 H   0  0  0  0  0  0  0  0  0  0  0  0
  -10.2918   -1.3974   -5.0315 H   0  0  0  0  0  0  0  0  0  0  0  0
  -11.8737   -1.9138   -4.3253 H   0  0  0  0  0  0  0  0  0  0  0  0
   -9.6721    1.5601   -5.5738 H   0  0  0  0  0  0  0  0  0  0  0  0
   -7.3274    2.3215   -5.6822 H   0  0  0  0  0  0  0  0  0  0  0  0
   -4.4772    3.9293   -5.4730 H   0  0  0  0  0  0  0  0  0  0  0  0
   -4.1074    6.3173   -5.0329 H   0  0  0  0  0  0  0  0  0  0  0  0
   -2.4475    8.7090   -1.8735 H   0  0  0  0  0  0  0  0  0  0  0  0
   -2.8389    7.0355   -1.3208 H   0  0  0  0  0  0  0  0  0  0  0  0
   -2.2843    7.3213   -3.0250 H   0  0  0  0  0  0  0  0  0  0  0  0
   -5.7301    5.8545   -1.0743 H   0  0  0  0  0  0  0  0  0  0  0  0
   -6.1176    3.4549   -1.5069 H   0  0  0  0  0  0  0  0  0  0  0  0
   -6.2537   -0.4718   -6.3944 H   0  0  0  0  0  0  0  0  0  0  0  0
   -5.2283   -2.2068   -0.4352 H   0  0  0  0  0  0  0  0  0  0  0  0
   -9.1914   -4.0136   -3.0867 H   0  0  0  0  0  0  0  0  0  0  0  0
   -9.8168   -3.8290    0.3053 H   0  0  0  0  0  0  0  0  0  0  0  0
   -9.7543   -6.3987    0.0820 H   0  0  0  0  0  0  0  0  0  0  0  0
   -7.5288   -7.1875   -1.1189 H   0  0  0  0  0  0  0  0  0  0  0  0
   -5.4989   -6.2954    0.2561 H   0  0  0  0  0  0  0  0  0  0  0  0
   -6.4309   -4.9338    2.3328 H   0  0  0  0  0  0  0  0  0  0  0  0
   -8.1988   -6.8931    2.1687 H   0  0  0  0  0  0  0  0  0  0  0  0
   -9.0788   -5.3191    2.4394 H   0  0  0  0  0  0  0  0  0  0  0  0
   -7.9765   -3.0139    1.5502 H   0  0  0  0  0  0  0  0  0  0  0  0
  1  2  2  3
  2  3  1  0
  3  4  2  0
  3  5  1  0
  5  6  2  0
  6  7  1  0
  7  8  2  0
  8  9  1  0
  9 10  2  0
 10 11  1  0
 11 12  2  3
 12 13  1  0
 13 14  3  0
 12 15  1  0
 15 16  3  0
  8 17  1  0
 17 18  1  0
 18 19  1  0
 19 20  2  0
 20 21  1  0
 21 22  1  0
 21 23  1  0
  1 24  1  0
 24 25  1  0
 25 26  1  0
 26 27  2  0
 27 28  1  0
 28 29  2  0
 28 30  1  0
 30 31  2  0
 31 32  1  0
 32 33  1  0
 31 34  1  0
 34 35  1  0
 35 36  1  0
 36 37  1  0
 35 38  2  0
 38 39  1  0
 39 40  2  0
 39 41  1  0
 26 42  1  0
 42 43  2  0
 43 44  1  0
 44 45  2  0
 45 46  1  0
 46 47  2  0
 47 48  1  0
 48 49  1  0
 48 50  2  0
 50 51  1  0
 51 52  1  0
 50 53  1  0
 45 54  1  0
 54 55  2  0
 55 56  1  0
 56 57  1  0
 57 58  1  0
 58 59  1  0
 59 60  1  0
 60 61  1  0
 59 62  2  0
 62 63  1  0
 62 64  1  0
 56 65  2  0
 65 66  1  0
 55 67  1  0
 67 68  2  0
 68 69  1  0
 68 70  1  0
 70 71  2  0
 71 72  1  0
 72 73  1  0
 73 74  2  0
 74 75  1  0
 75 76  2  0
 76 77  1  0
 77 78  1  0
 76 79  1  0
 79 80  2  0
 72 81  1  0
 81 82  2  0
 82 83  1  0
 83 84  2  0
 84 85  1  0
 85 86  1  0
 84 87  1  0
 87 88  2  0
 71 89  1  0
 89 90  1  0
 90 91  1  0
 91 92  2  0
 92 93  1  0
 93 94  1  0
 94 95  2  0
 95 96  1  0
 96 97  2  0
 97 98  1  0
 98 99  1  0
 97100  1  0
100101  2  0
 93102  1  0
102103  2  0
103104  1  0
104105  2  0
105106  1  0
106107  1  0
105108  1  0
108109  2  0
 92110  1  0
110111  1  0
 91112  1  0
112113  2  3
113114  1  0
114115  2  0
114116  1  0
116117  2  0
117118  1  0
118119  2  0
119120  1  0
120121  2  0
121122  1  0
122123  2  3
123124  1  0
124125  3  0
123126  1  0
126127  3  0
119128  1  0
128129  1  0
129130  1  0
130131  2  0
131132  1  0
132133  1  0
132134  1  0
 11  2  1  0
 23 17  1  0
 41 24  2  0
 66 42  1  0
111 70  1  0
122113  1  0
134128  1  0
 10  5  1  0
 22 18  1  0
 41 27  1  0
 65 44  1  0
 80 73  1  0
 88 81  1  0
110 89  2  0
121116  1  0
133129  1  0
 23  7  1  0
 38 30  1  0
 53 46  1  0
 69 54  1  0
101 94  1  0
109102  1  0
134118  1  0
 63 57  2  0
  1135  1  0
  6136  1  0
  9137  1  0
 17138  1  0
 18139  1  0
 19140  1  0
 20141  1  0
 21142  1  0
 22143  1  0
 22144  1  0
 23145  1  0
 32146  1  0
 32147  1  0
 33148  1  0
 33149  1  0
 33150  1  0
 36151  1  0
 36152  1  0
 37153  1  0
 37154  1  0
 37155  1  0
 43156  1  0
 47157  1  0
 51158  1  0
 51159  1  0
 52160  1  0
 52161  1  0
 52162  1  0
 60163  1  0
 60164  1  0
 61165  1  0
 61166  1  0
 61167  1  0
 63168  1  0
 67169  1  0
 74170  1  0
 75171  1  0
 78172  1  0
 78173  1  0
 78174  1  0
 79175  1  0
 80176  1  0
 82177  1  0
 83178  1  0
 86179  1  0
 86180  1  0
 86181  1  0
 87182  1  0
 88183  1  0
 95184  1  0
 96185  1  0
 99186  1  0
 99187  1  0
 99188  1  0
100189  1  0
101190  1  0
103191  1  0
104192  1  0
107193  1  0
107194  1  0
107195  1  0
108196  1  0
109197  1  0
112198  1  0
117199  1  0
120200  1  0
128201  1  0
129202  1  0
130203  1  0
131204  1  0
132205  1  0
133206  1  0
133207  1  0
134208  1  0
M  END

