
     RDKit          3D

238262  0  0  0  0  0  0  0  0999 V2000
    1.2003   -2.6031   -7.5393 C   0  0  0  0  0  0  0  0  0  0  0  0
    1.3258   -3.3458   -6.4178 C   0  0  0  0  0  0  0  0  0  0  0  0
    0.9970   -2.8942   -5.0527 C   0  0  0  0  0  0  0  0  0  0  0  0
    0.9151   -1.7070   -4.6475 O   0  0  0  0  0  0  0  0  0  0  0  0
    0.6972   -4.0480   -4.2410 C   0  0  0  0  0  0  0  0  0  0  0  0
    0.1340   -4.0317   -2.9478 C   0  0  0  0  0  0  0  0  0  0  0  0
   -0.2986   -5.2681   -2.5178 C   0  0  0  0  0  0  0  0  0  0  0  0
   -0.1539   -6.4666   -3.2922 C   0  0  0  0  0  0  0  0  0  0  0  0
    0.4386   -6.4910   -4.5498 C   0  0  0  0  0  0  0  0  0  0  0  0
    0.8823   -5.2189   -5.0149 C   0  0  0  0  0  0  0  0  0  0  0  0
    1.4349   -4.8332   -6.3441 C   0  0  0  0  0  0  0  0  0  0  0  0
    2.1006   -5.6394   -7.2066 C   0  0  0  0  0  0  0  0  0  0  0  0
    2.3294   -7.0326   -6.9275 C   0  0  0  0  0  0  0  0  0  0  0  0
    2.5276   -8.1498   -6.7055 N   0  0  0  0  0  0  0  0  0  0  0  0
    2.7769   -5.1182   -8.3678 C   0  0  0  0  0  0  0  0  0  0  0  0
    3.3212   -4.7010   -9.2985 N   0  0  0  0  0  0  0  0  0  0  0  0
   -0.8704   -7.2542   -2.2321 C   0  0  0  0  0  0  0  0  0  0  0  0
    0.0031   -8.1639   -1.3178 C   0  0  0  0  0  0  0  0  0  0  0  0
   -0.8683   -8.5158   -0.1371 C   0  0  0  0  0  0  0  0  0  0  0  0
   -1.0074   -7.3952    0.5811 C   0  0  0  0  0  0  0  0  0  0  0  0
   -0.2231   -6.3234   -0.1415 C   0  0  0  0  0  0  0  0  0  0  0  0
    0.9333   -7.1738   -0.6362 C   0  0  0  0  0  0  0  0  0  0  0  0
   -1.0190   -6.0257   -1.4437 C   0  0  0  0  0  0  0  0  0  0  0  0
    0.6867   -1.2262   -7.4859 C   0  0  0  0  0  0  0  0  0  0  0  0
    1.4315   -0.1360   -7.0003 C   0  0  0  0  0  0  0  0  0  0  0  0
    2.8773   -0.1126   -6.9497 N   0  0  0  0  0  0  0  0  0  0  0  0
    3.6434   -0.5960   -8.0687 C   0  0  0  0  0  0  0  0  0  0  0  0
    4.8011   -1.3644   -7.8582 C   0  0  0  0  0  0  0  0  0  0  0  0
    5.5561   -1.8123   -8.9444 C   0  0  0  0  0  0  0  0  0  0  0  0
    5.1750   -1.4785  -10.2506 C   0  0  0  0  0  0  0  0  0  0  0  0
    6.1670   -2.0217  -11.6437 S   0  0  0  0  0  0  0  0  0  0  0  0
    7.2590   -0.5660  -11.5743 C   0  0  0  0  0  0  0  0  0  0  0  0
    4.0183   -0.7202  -10.4681 C   0  0  0  0  0  0  0  0  0  0  0  0
    3.2542   -0.2817   -9.3825 C   0  0  0  0  0  0  0  0  0  0  0  0
    3.5686    0.5495   -5.8786 C   0  0  0  0  0  0  0  0  0  0  0  0
    3.7639   -0.1046   -4.6540 C   0  0  0  0  0  0  0  0  0  0  0  0
    4.3302    0.5775   -3.5772 C   0  0  0  0  0  0  0  0  0  0  0  0
    4.6902    1.9230   -3.7082 C   0  0  0  0  0  0  0  0  0  0  0  0
    5.3023    2.8199   -2.2818 S   0  0  0  0  0  0  0  0  0  0  0  0
    3.6368    3.3356   -1.7597 C   0  0  0  0  0  0  0  0  0  0  0  0
    4.5447    2.5664   -4.9454 C   0  0  0  0  0  0  0  0  0  0  0  0
    3.9987    1.8783   -6.0325 C   0  0  0  0  0  0  0  0  0  0  0  0
    0.5848    0.8185   -6.4181 C   0  0  0  0  0  0  0  0  0  0  0  0
    0.8525    1.9851   -5.2576 S   0  0  0  0  0  0  0  0  0  0  0  0
   -0.7644    2.1254   -4.7587 C   0  0  0  0  0  0  0  0  0  0  0  0
   -1.5449    1.2640   -5.5545 C   0  0  0  0  0  0  0  0  0  0  0  0
   -2.9906    1.3057   -5.5868 N   0  0  0  0  0  0  0  0  0  0  0  0
   -3.6533    2.5698   -5.7963 C   0  0  0  0  0  0  0  0  0  0  0  0
   -4.8865    2.8399   -5.1745 C   0  0  0  0  0  0  0  0  0  0  0  0
   -5.5330    4.0600   -5.3945 C   0  0  0  0  0  0  0  0  0  0  0  0
   -4.9706    5.0119   -6.2560 C   0  0  0  0  0  0  0  0  0  0  0  0
   -5.8135    6.5693   -6.5472 S   0  0  0  0  0  0  0  0  0  0  0  0
   -4.9185    7.4372   -5.2189 C   0  0  0  0  0  0  0  0  0  0  0  0
   -3.7518    4.7436   -6.8885 C   0  0  0  0  0  0  0  0  0  0  0  0
   -3.0921    3.5370   -6.6537 C   0  0  0  0  0  0  0  0  0  0  0  0
   -3.7538    0.1049   -5.7669 C   0  0  0  0  0  0  0  0  0  0  0  0
   -4.1087   -0.3242   -7.0555 C   0  0  0  0  0  0  0  0  0  0  0  0
   -4.7923   -1.5316   -7.2233 C   0  0  0  0  0  0  0  0  0  0  0  0
   -5.1642   -2.2896   -6.1044 C   0  0  0  0  0  0  0  0  0  0  0  0
   -6.0268   -3.8492   -6.3096 S   0  0  0  0  0  0  0  0  0  0  0  0
   -4.5010   -4.8438   -6.1989 C   0  0  0  0  0  0  0  0  0  0  0  0
   -4.8695   -1.8243   -4.8169 C   0  0  0  0  0  0  0  0  0  0  0  0
   -4.1840   -0.6245   -4.6500 C   0  0  0  0  0  0  0  0  0  0  0  0
   -0.7507    0.5406   -6.4562 C   0  0  0  0  0  0  0  0  0  0  0  0
   -0.9666   -0.9388   -7.2058 S   0  0  0  0  0  0  0  0  0  0  0  0
   -1.0026    2.4154   -3.3316 C   0  0  0  0  0  0  0  0  0  0  0  0
   -0.4372    3.5736   -2.7494 C   0  0  0  0  0  0  0  0  0  0  0  0
   -0.1532    4.7726   -3.4243 C   0  0  0  0  0  0  0  0  0  0  0  0
    0.5410    5.6766   -2.6295 C   0  0  0  0  0  0  0  0  0  0  0  0
    0.9206    7.0319   -3.0078 C   0  0  0  0  0  0  0  0  0  0  0  0
    1.9738    7.5431   -2.5340 O   0  0  0  0  0  0  0  0  0  0  0  0
    0.0847    7.7753   -3.8502 O   0  0  0  0  0  0  0  0  0  0  0  0
    0.2026    9.1849   -4.0043 C   0  0  0  0  0  0  0  0  0  0  0  0
   -0.1910    9.9048   -2.7151 C   0  0  0  0  0  0  0  0  0  0  0  0
    0.8084    5.0052   -1.1119 S   0  0  0  0  0  0  0  0  0  0  0  0
    0.0151    3.5611   -1.4171 C   0  0  0  0  0  0  0  0  0  0  0  0
   -0.1090    2.4302   -0.5804 C   0  0  0  0  0  0  0  0  0  0  0  0
   -0.8110    1.3539   -1.1404 C   0  0  0  0  0  0  0  0  0  0  0  0
   -1.2270    1.3455   -2.4469 C   0  0  0  0  0  0  0  0  0  0  0  0
   -1.7437    0.1354   -2.7085 N   0  0  0  0  0  0  0  0  0  0  0  0
   -1.6703   -0.5328   -1.5622 N   0  0  0  0  0  0  0  0  0  0  0  0
   -2.2636   -1.8541   -1.3627 C   0  0  0  0  0  0  0  0  0  0  0  0
   -3.6496   -1.7177   -0.7423 C   0  0  0  0  0  0  0  0  0  0  0  0
   -1.1010    0.1634   -0.5860 N   0  0  0  0  0  0  0  0  0  0  0  0
    0.5843    2.3095    0.7212 C   0  0  0  0  0  0  0  0  0  0  0  0
    0.6352    3.2740    1.7463 C   0  0  0  0  0  0  0  0  0  0  0  0
   -0.2708    4.3896    1.8478 N   0  0  0  0  0  0  0  0  0  0  0  0
    0.1657    5.6441    2.4096 C   0  0  0  0  0  0  0  0  0  0  0  0
    1.4118    6.1915    2.0566 C   0  0  0  0  0  0  0  0  0  0  0  0
    1.8192    7.4209    2.5863 C   0  0  0  0  0  0  0  0  0  0  0  0
    1.0117    8.0878    3.5121 C   0  0  0  0  0  0  0  0  0  0  0  0
    1.5471    9.6489    4.2154 S   0  0  0  0  0  0  0  0  0  0  0  0
    0.5987   10.6476    3.0287 C   0  0  0  0  0  0  0  0  0  0  0  0
   -0.2055    7.5232    3.9066 C   0  0  0  0  0  0  0  0  0  0  0  0
   -0.6345    6.3160    3.3474 C   0  0  0  0  0  0  0  0  0  0  0  0
   -1.6553    4.1819    1.5045 C   0  0  0  0  0  0  0  0  0  0  0  0
   -2.3429    3.0588    1.9952 C   0  0  0  0  0  0  0  0  0  0  0  0
   -3.6440    2.7855    1.5674 C   0  0  0  0  0  0  0  0  0  0  0  0
   -4.2608    3.6153    0.6249 C   0  0  0  0  0  0  0  0  0  0  0  0
   -5.9128    3.2418    0.0371 S   0  0  0  0  0  0  0  0  0  0  0  0
   -5.3489    1.9612   -1.1268 C   0  0  0  0  0  0  0  0  0  0  0  0
   -3.5884    4.7461    0.1474 C   0  0  0  0  0  0  0  0  0  0  0  0
   -2.2986    5.0396    0.5981 C   0  0  0  0  0  0  0  0  0  0  0  0
    1.3953    2.8155    2.8246 C   0  0  0  0  0  0  0  0  0  0  0  0
    1.6151    3.3741    4.3825 S   0  0  0  0  0  0  0  0  0  0  0  0
    2.2750    1.9184    4.9598 C   0  0  0  0  0  0  0  0  0  0  0  0
    2.4275    0.9989    3.8913 C   0  0  0  0  0  0  0  0  0  0  0  0
    3.0685   -0.3071    3.9582 N   0  0  0  0  0  0  0  0  0  0  0  0
    3.5006   -0.9735    2.7571 C   0  0  0  0  0  0  0  0  0  0  0  0
    3.0950   -2.2907    2.4961 C   0  0  0  0  0  0  0  0  0  0  0  0
    3.5201   -2.9413    1.3371 C   0  0  0  0  0  0  0  0  0  0  0  0
    4.3310   -2.2750    0.4120 C   0  0  0  0  0  0  0  0  0  0  0  0
    4.8097   -3.0945   -1.1089 S   0  0  0  0  0  0  0  0  0  0  0  0
    3.2078   -2.7729   -1.9101 C   0  0  0  0  0  0  0  0  0  0  0  0
    4.7598   -0.9685    0.6776 C   0  0  0  0  0  0  0  0  0  0  0  0
    4.3609   -0.3248    1.8534 C   0  0  0  0  0  0  0  0  0  0  0  0
    3.5915   -0.8374    5.1832 C   0  0  0  0  0  0  0  0  0  0  0  0
    4.8179   -0.3690    5.6832 C   0  0  0  0  0  0  0  0  0  0  0  0
    5.3948   -0.9692    6.8067 C   0  0  0  0  0  0  0  0  0  0  0  0
    4.7599   -2.0529    7.4257 C   0  0  0  0  0  0  0  0  0  0  0  0
    5.5379   -2.8749    8.8193 S   0  0  0  0  0  0  0  0  0  0  0  0
    6.2890   -4.1574    7.7677 C   0  0  0  0  0  0  0  0  0  0  0  0
    3.5357   -2.5180    6.9353 C   0  0  0  0  0  0  0  0  0  0  0  0
    2.9581   -1.9175    5.8132 C   0  0  0  0  0  0  0  0  0  0  0  0
    1.8742    1.5461    2.7204 C   0  0  0  0  0  0  0  0  0  0  0  0
    1.4268    0.9193    1.2258 S   0  0  0  0  0  0  0  0  0  0  0  0
    2.4435    1.6741    6.3984 C   0  0  0  0  0  0  0  0  0  0  0  0
    1.6450    0.8618    7.1180 C   0  0  0  0  0  0  0  0  0  0  0  0
    2.0464    0.3108    8.4123 C   0  0  0  0  0  0  0  0  0  0  0  0
    2.9710    0.7485    9.1486 O   0  0  0  0  0  0  0  0  0  0  0  0
    1.2510   -0.8709    8.6784 C   0  0  0  0  0  0  0  0  0  0  0  0
    1.2981   -1.6915    9.8306 C   0  0  0  0  0  0  0  0  0  0  0  0
    0.3380   -2.6875    9.8453 C   0  0  0  0  0  0  0  0  0  0  0  0
   -0.5977   -2.8882    8.7780 C   0  0  0  0  0  0  0  0  0  0  0  0
   -0.6362   -2.1056    7.6391 C   0  0  0  0  0  0  0  0  0  0  0  0
    0.3271   -1.0578    7.6115 C   0  0  0  0  0  0  0  0  0  0  0  0
    0.4718    0.0658    6.6473 C   0  0  0  0  0  0  0  0  0  0  0  0
   -0.5165    0.5076    5.8394 C   0  0  0  0  0  0  0  0  0  0  0  0
   -1.4398   -0.3848    5.1955 C   0  0  0  0  0  0  0  0  0  0  0  0
   -2.1852   -1.0865    4.6532 N   0  0  0  0  0  0  0  0  0  0  0  0
   -0.8449    1.9060    5.7555 C   0  0  0  0  0  0  0  0  0  0  0  0
   -1.1354    3.0230    5.6992 N   0  0  0  0  0  0  0  0  0  0  0  0
   -1.2617   -3.9920    9.5430 C   0  0  0  0  0  0  0  0  0  0  0  0
   -2.6383   -3.6442   10.1855 C   0  0  0  0  0  0  0  0  0  0  0  0
   -2.9087   -4.7317   11.1960 C   0  0  0  0  0  0  0  0  0  0  0  0
   -2.0415   -4.5423   12.1971 C   0  0  0  0  0  0  0  0  0  0  0  0
   -1.2088   -3.3382   11.8234 C   0  0  0  0  0  0  0  0  0  0  0  0
   -2.2925   -2.5152   11.1435 C   0  0  0  0  0  0  0  0  0  0  0  0
   -0.3063   -3.7863   10.6363 C   0  0  0  0  0  0  0  0  0  0  0  0
    1.2498   -3.0677   -8.5126 H   0  0  0  0  0  0  0  0  0  0  0  0
    0.0013   -3.1249   -2.3745 H   0  0  0  0  0  0  0  0  0  0  0  0
    0.4674   -7.3962   -5.1390 H   0  0  0  0  0  0  0  0  0  0  0  0
   -1.8315   -7.6967   -2.5806 H   0  0  0  0  0  0  0  0  0  0  0  0
    0.4943   -9.0238   -1.8185 H   0  0  0  0  0  0  0  0  0  0  0  0
   -1.2446   -9.4949    0.1337 H   0  0  0  0  0  0  0  0  0  0  0  0
   -1.5126   -7.3079    1.5374 H   0  0  0  0  0  0  0  0  0  0  0  0
    0.0485   -5.4376    0.4731 H   0  0  0  0  0  0  0  0  0  0  0  0
    1.6259   -6.6397   -1.3235 H   0  0  0  0  0  0  0  0  0  0  0  0
    1.5345   -7.6269    0.1891 H   0  0  0  0  0  0  0  0  0  0  0  0
   -2.0717   -5.6939   -1.3026 H   0  0  0  0  0  0  0  0  0  0  0  0
    5.1090   -1.6232   -6.8535 H   0  0  0  0  0  0  0  0  0  0  0  0
    6.4441   -2.4052   -8.7711 H   0  0  0  0  0  0  0  0  0  0  0  0
    7.8020   -0.5407  -10.6061 H   0  0  0  0  0  0  0  0  0  0  0  0
    8.0004   -0.6329  -12.3985 H   0  0  0  0  0  0  0  0  0  0  0  0
    6.6705    0.3676  -11.6972 H   0  0  0  0  0  0  0  0  0  0  0  0
    3.7145   -0.4635  -11.4715 H   0  0  0  0  0  0  0  0  0  0  0  0
    2.3749    0.3242   -9.5644 H   0  0  0  0  0  0  0  0  0  0  0  0
    3.4696   -1.1374   -4.5388 H   0  0  0  0  0  0  0  0  0  0  0  0
    4.4659    0.0744   -2.6293 H   0  0  0  0  0  0  0  0  0  0  0  0
    3.2354    4.0709   -2.4902 H   0  0  0  0  0  0  0  0  0  0  0  0
    3.6977    3.8151   -0.7600 H   0  0  0  0  0  0  0  0  0  0  0  0
    2.9527    2.4616   -1.6937 H   0  0  0  0  0  0  0  0  0  0  0  0
    4.8287    3.6048   -5.0526 H   0  0  0  0  0  0  0  0  0  0  0  0
    3.8540    2.3899   -6.9753 H   0  0  0  0  0  0  0  0  0  0  0  0
   -5.3381    2.1166   -4.5075 H   0  0  0  0  0  0  0  0  0  0  0  0
   -6.4808    4.2585   -4.9102 H   0  0  0  0  0  0  0  0  0  0  0  0
   -5.3486    8.4509   -5.0932 H   0  0  0  0  0  0  0  0  0  0  0  0
   -3.8463    7.5333   -5.4884 H   0  0  0  0  0  0  0  0  0  0  0  0
   -5.0144    6.8857   -4.2607 H   0  0  0  0  0  0  0  0  0  0  0  0
   -3.3151    5.4730   -7.5587 H   0  0  0  0  0  0  0  0  0  0  0  0
   -2.1599    3.3431   -7.1632 H   0  0  0  0  0  0  0  0  0  0  0  0
   -3.8047    0.2487   -7.9271 H   0  0  0  0  0  0  0  0  0  0  0  0
   -5.0180   -1.8861   -8.2196 H   0  0  0  0  0  0  0  0  0  0  0  0
   -4.0096   -4.6802   -5.2172 H   0  0  0  0  0  0  0  0  0  0  0  0
   -3.8033   -4.5672   -7.0145 H   0  0  0  0  0  0  0  0  0  0  0  0
   -4.7579   -5.9161   -6.2946 H   0  0  0  0  0  0  0  0  0  0  0  0
   -5.1762   -2.3895   -3.9431 H   0  0  0  0  0  0  0  0  0  0  0  0
   -4.0022   -0.2506   -3.6559 H   0  0  0  0  0  0  0  0  0  0  0  0
   -0.4294    4.9665   -4.4523 H   0  0  0  0  0  0  0  0  0  0  0  0
   -0.4696    9.5092   -4.8252 H   0  0  0  0  0  0  0  0  0  0  0  0
    1.2434    9.4541   -4.2873 H   0  0  0  0  0  0  0  0  0  0  0  0
   -1.1864    9.5517   -2.3616 H   0  0  0  0  0  0  0  0  0  0  0  0
   -0.2360   11.0002   -2.8958 H   0  0  0  0  0  0  0  0  0  0  0  0
    0.5594    9.7043   -1.9181 H   0  0  0  0  0  0  0  0  0  0  0  0
   -2.3469   -2.3796   -2.3388 H   0  0  0  0  0  0  0  0  0  0  0  0
   -1.6179   -2.4592   -0.6882 H   0  0  0  0  0  0  0  0  0  0  0  0
   -4.3031   -1.0995   -1.3932 H   0  0  0  0  0  0  0  0  0  0  0  0
   -4.1103   -2.7205   -0.6287 H   0  0  0  0  0  0  0  0  0  0  0  0
   -3.5718   -1.2394    0.2572 H   0  0  0  0  0  0  0  0  0  0  0  0
    2.0629    5.6831    1.3571 H   0  0  0  0  0  0  0  0  0  0  0  0
    2.7648    7.8493    2.2831 H   0  0  0  0  0  0  0  0  0  0  0  0
   -0.4857   10.4341    3.1313 H   0  0  0  0  0  0  0  0  0  0  0  0
    0.9250   10.4260    1.9907 H   0  0  0  0  0  0  0  0  0  0  0  0
    0.7732   11.7227    3.2397 H   0  0  0  0  0  0  0  0  0  0  0  0
   -0.8260    8.0222    4.6378 H   0  0  0  0  0  0  0  0  0  0  0  0
   -1.5795    5.8921    3.6640 H   0  0  0  0  0  0  0  0  0  0  0  0
   -1.8592    2.3841    2.6928 H   0  0  0  0  0  0  0  0  0  0  0  0
   -4.1576    1.9129    1.9480 H   0  0  0  0  0  0  0  0  0  0  0  0
   -4.9975    1.0785   -0.5549 H   0  0  0  0  0  0  0  0  0  0  0  0
   -4.5300    2.3408   -1.7721 H   0  0  0  0  0  0  0  0  0  0  0  0
   -6.2002    1.6533   -1.7678 H   0  0  0  0  0  0  0  0  0  0  0  0
   -4.0600    5.3968   -0.5783 H   0  0  0  0  0  0  0  0  0  0  0  0
   -1.7799    5.9052    0.2045 H   0  0  0  0  0  0  0  0  0  0  0  0
    2.4351   -2.8100    3.1778 H   0  0  0  0  0  0  0  0  0  0  0  0
    3.1947   -3.9550    1.1466 H   0  0  0  0  0  0  0  0  0  0  0  0
    3.0237   -1.6825   -1.9821 H   0  0  0  0  0  0  0  0  0  0  0  0
    3.2210   -3.2066   -2.9276 H   0  0  0  0  0  0  0  0  0  0  0  0
    2.3872   -3.2409   -1.3301 H   0  0  0  0  0  0  0  0  0  0  0  0
    5.3952   -0.4507   -0.0286 H   0  0  0  0  0  0  0  0  0  0  0  0
    4.7059    0.6838    2.0526 H   0  0  0  0  0  0  0  0  0  0  0  0
    5.3292    0.4494    5.1910 H   0  0  0  0  0  0  0  0  0  0  0  0
    6.3454   -0.6093    7.1796 H   0  0  0  0  0  0  0  0  0  0  0  0
    6.9788   -4.7736    8.3792 H   0  0  0  0  0  0  0  0  0  0  0  0
    5.4951   -4.8129    7.3495 H   0  0  0  0  0  0  0  0  0  0  0  0
    6.8625   -3.6947    6.9361 H   0  0  0  0  0  0  0  0  0  0  0  0
    3.0367   -3.3481    7.4155 H   0  0  0  0  0  0  0  0  0  0  0  0
    2.0174   -2.2949    5.4353 H   0  0  0  0  0  0  0  0  0  0  0  0
    3.3012    2.1297    6.8770 H   0  0  0  0  0  0  0  0  0  0  0  0
    1.9769   -1.5264   10.6563 H   0  0  0  0  0  0  0  0  0  0  0  0
   -1.3845   -2.2771    6.8850 H   0  0  0  0  0  0  0  0  0  0  0  0
   -1.1958   -4.9866    9.0440 H   0  0  0  0  0  0  0  0  0  0  0  0
   -3.4640   -3.4421    9.4727 H   0  0  0  0  0  0  0  0  0  0  0  0
   -3.6941   -5.4785   11.1682 H   0  0  0  0  0  0  0  0  0  0  0  0
   -2.0011   -5.1083   13.1211 H   0  0  0  0  0  0  0  0  0  0  0  0
   -0.6835   -2.8433   12.6681 H   0  0  0  0  0  0  0  0  0  0  0  0
   -3.1350   -2.2360   11.8206 H   0  0  0  0  0  0  0  0  0  0  0  0
   -1.9224   -1.5906   10.6447 H   0  0  0  0  0  0  0  0  0  0  0  0
    0.3673   -4.6488   10.8374 H   0  0  0  0  0  0  0  0  0  0  0  0
  1  2  2  3
  2  3  1  0
  3  4  2  0
  3  5  1  0
  5  6  2  0
  6  7  1  0
  7  8  2  0
  8  9  1  0
  9 10  2  0
 10 11  1  0
 11 12  2  3
 12 13  1  0
 13 14  3  0
 12 15  1  0
 15 16  3  0
  8 17  1  0
 17 18  1  0
 18 19  1  0
 19 20  2  0
 20 21  1  0
 21 22  1  0
 21 23  1  0
  1 24  1  0
 24 25  2  0
 25 26  1  0
 26 27  1  0
 27 28  2  0
 28 29  1  0
 29 30  2  0
 30 31  1  0
 31 32  1  0
 30 33  1  0
 33 34  2  0
 26 35  1  0
 35 36  2  0
 36 37  1  0
 37 38  2  0
 38 39  1  0
 39 40  1  0
 38 41  1  0
 41 42  2  0
 25 43  1  0
 43 44  1  0
 44 45  1  0
 45 46  2  0
 46 47  1  0
 47 48  1  0
 48 49  2  0
 49 50  1  0
 50 51  2  0
 51 52  1  0
 52 53  1  0
 51 54  1  0
 54 55  2  0
 47 56  1  0
 56 57  2  0
 57 58  1  0
 58 59  2  0
 59 60  1  0
 60 61  1  0
 59 62  1  0
 62 63  2  0
 46 64  1  0
 64 65  1  0
 45 66  1  0
 66 67  2  0
 67 68  1  0
 68 69  2  0
 69 70  1  0
 70 71  2  0
 70 72  1  0
 72 73  1  0
 73 74  1  0
 69 75  1  0
 75 76  1  0
 76 77  2  0
 77 78  1  0
 78 79  1  0
 79 80  2  0
 80 81  1  0
 81 82  1  0
 82 83  1  0
 81 84  1  0
 77 85  1  0
 85 86  2  0
 86 87  1  0
 87 88  1  0
 88 89  2  0
 89 90  1  0
 90 91  2  0
 91 92  1  0
 92 93  1  0
 91 94  1  0
 94 95  2  0
 87 96  1  0
 96 97  2  0
 97 98  1  0
 98 99  2  0
 99100  1  0
100101  1  0
 99102  1  0
102103  2  0
 86104  1  0
104105  1  0
105106  1  0
106107  2  0
107108  1  0
108109  1  0
109110  2  0
110111  1  0
111112  2  0
112113  1  0
113114  1  0
112115  1  0
115116  2  0
108117  1  0
117118  2  0
118119  1  0
119120  2  0
120121  1  0
121122  1  0
120123  1  0
123124  2  0
107125  1  0
125126  1  0
106127  1  0
127128  2  3
128129  1  0
129130  2  0
129131  1  0
131132  2  0
132133  1  0
133134  2  0
134135  1  0
135136  2  0
136137  1  0
137138  2  3
138139  1  0
139140  3  0
138141  1  0
141142  3  0
134143  1  0
143144  1  0
144145  1  0
145146  2  0
146147  1  0
147148  1  0
147149  1  0
 11  2  1  0
 23 17  1  0
 65 24  1  0
 79 66  1  0
126 85  1  0
137128  1  0
149143  1  0
 10  5  1  0
 22 18  1  0
 34 27  1  0
 42 35  1  0
 64 43  2  0
 76 67  1  0
 84 78  2  0
 95 88  1  0
103 96  1  0
125104  2  0
136131  1  0
148144  1  0
 23  7  1  0
 55 48  1  0
 63 56  1  0
116109  1  0
124117  1  0
149133  1  0
  1150  1  0
  6151  1  0
  9152  1  0
 17153  1  0
 18154  1  0
 19155  1  0
 20156  1  0
 21157  1  0
 22158  1  0
 22159  1  0
 23160  1  0
 28161  1  0
 29162  1  0
 32163  1  0
 32164  1  0
 32165  1  0
 33166  1  0
 34167  1  0
 36168  1  0
 37169  1  0
 40170  1  0
 40171  1  0
 40172  1  0
 41173  1  0
 42174  1  0
 49175  1  0
 50176  1  0
 53177  1  0
 53178  1  0
 53179  1  0
 54180  1  0
 55181  1  0
 57182  1  0
 58183  1  0
 61184  1  0
 61185  1  0
 61186  1  0
 62187  1  0
 63188  1  0
 68189  1  0
 73190  1  0
 73191  1  0
 74192  1  0
 74193  1  0
 74194  1  0
 82195  1  0
 82196  1  0
 83197  1  0
 83198  1  0
 83199  1  0
 89200  1  0
 90201  1  0
 93202  1  0
 93203  1  0
 93204  1  0
 94205  1  0
 95206  1  0
 97207  1  0
 98208  1  0
101209  1  0
101210  1  0
101211  1  0
102212  1  0
103213  1  0
110214  1  0
111215  1  0
114216  1  0
114217  1  0
114218  1  0
115219  1  0
116220  1  0
118221  1  0
119222  1  0
122223  1  0
122224  1  0
122225  1  0
123226  1  0
124227  1  0
127228  1  0
132229  1  0
135230  1  0
143231  1  0
144232  1  0
145233  1  0
146234  1  0
147235  1  0
148236  1  0
148237  1  0
149238  1  0
M  END

