
     RDKit          3D

179198  0  0  0  0  0  0  0  0999 V2000
    3.9035   -5.3495    4.5888 C   0  0  0  0  0  0  0  0  0  0  0  0
    4.8122   -6.1196    3.9600 C   0  0  0  0  0  0  0  0  0  0  0  0
    4.5450   -6.8408    2.7086 C   0  0  0  0  0  0  0  0  0  0  0  0
    3.4393   -7.3483    2.3683 O   0  0  0  0  0  0  0  0  0  0  0  0
    5.7471   -6.8599    1.9148 C   0  0  0  0  0  0  0  0  0  0  0  0
    5.8570   -7.2465    0.5604 C   0  0  0  0  0  0  0  0  0  0  0  0
    7.0915   -6.9726    0.0045 C   0  0  0  0  0  0  0  0  0  0  0  0
    8.1609   -6.3490    0.7276 C   0  0  0  0  0  0  0  0  0  0  0  0
    8.0558   -5.9752    2.0607 C   0  0  0  0  0  0  0  0  0  0  0  0
    6.7990   -6.2684    2.6617 C   0  0  0  0  0  0  0  0  0  0  0  0
    6.2919   -5.9295    4.0222 C   0  0  0  0  0  0  0  0  0  0  0  0
    7.0296   -5.6593    5.1245 C   0  0  0  0  0  0  0  0  0  0  0  0
    6.4401   -5.5134    6.4279 C   0  0  0  0  0  0  0  0  0  0  0  0
    5.9835   -5.3884    7.4884 N   0  0  0  0  0  0  0  0  0  0  0  0
    8.4644   -5.6039    5.0972 C   0  0  0  0  0  0  0  0  0  0  0  0
    9.6211   -5.5546    5.0921 N   0  0  0  0  0  0  0  0  0  0  0  0
    9.0332   -6.3942   -0.4972 C   0  0  0  0  0  0  0  0  0  0  0  0
   10.1569   -7.4682   -0.5110 C   0  0  0  0  0  0  0  0  0  0  0  0
   10.6029   -7.5842   -1.9501 C   0  0  0  0  0  0  0  0  0  0  0  0
    9.6016   -8.1796   -2.6105 C   0  0  0  0  0  0  0  0  0  0  0  0
    8.5120   -8.4339   -1.6004 C   0  0  0  0  0  0  0  0  0  0  0  0
    9.3833   -8.7744   -0.4034 C   0  0  0  0  0  0  0  0  0  0  0  0
    7.9351   -7.0383   -1.2325 C   0  0  0  0  0  0  0  0  0  0  0  0
    2.7139   -4.8679    3.8659 C   0  0  0  0  0  0  0  0  0  0  0  0
    2.7491   -4.2255    2.3026 S   0  0  0  0  0  0  0  0  0  0  0  0
    1.1696   -3.6469    2.2396 C   0  0  0  0  0  0  0  0  0  0  0  0
    0.5960   -3.9433    3.4693 C   0  0  0  0  0  0  0  0  0  0  0  0
   -0.6638   -3.6615    3.9991 C   0  0  0  0  0  0  0  0  0  0  0  0
   -0.7788   -4.1066    5.3229 C   0  0  0  0  0  0  0  0  0  0  0  0
   -2.0357   -4.0550    6.1398 C   0  0  0  0  0  0  0  0  0  0  0  0
   -2.8862   -5.2978    5.8961 C   0  0  0  0  0  0  0  0  0  0  0  0
    0.6786   -4.8414    5.8202 S   0  0  0  0  0  0  0  0  0  0  0  0
    1.4471   -4.5840    4.3490 C   0  0  0  0  0  0  0  0  0  0  0  0
    0.5940   -2.8778    1.1301 C   0  0  0  0  0  0  0  0  0  0  0  0
    1.2221   -1.8061    0.4639 C   0  0  0  0  0  0  0  0  0  0  0  0
    2.5285   -1.2960    0.7857 N   0  0  0  0  0  0  0  0  0  0  0  0
    3.6686   -1.8074    0.0635 C   0  0  0  0  0  0  0  0  0  0  0  0
    4.8322   -2.1881    0.7539 C   0  0  0  0  0  0  0  0  0  0  0  0
    5.9331   -2.6997    0.0602 C   0  0  0  0  0  0  0  0  0  0  0  0
    5.9013   -2.7937   -1.3386 C   0  0  0  0  0  0  0  0  0  0  0  0
    7.3313   -3.4045   -2.2348 S   0  0  0  0  0  0  0  0  0  0  0  0
    8.1787   -1.7880   -2.2371 C   0  0  0  0  0  0  0  0  0  0  0  0
    4.7458   -2.4116   -2.0322 C   0  0  0  0  0  0  0  0  0  0  0  0
    3.6367   -1.9214   -1.3350 C   0  0  0  0  0  0  0  0  0  0  0  0
    2.6548   -0.1665    1.6812 C   0  0  0  0  0  0  0  0  0  0  0  0
    3.6735    0.7949    1.4926 C   0  0  0  0  0  0  0  0  0  0  0  0
    3.7902    1.8836    2.3646 C   0  0  0  0  0  0  0  0  0  0  0  0
    2.8931    2.0349    3.4281 C   0  0  0  0  0  0  0  0  0  0  0  0
    3.0649    3.4192    4.5605 S   0  0  0  0  0  0  0  0  0  0  0  0
    2.0526    4.5457    3.5443 C   0  0  0  0  0  0  0  0  0  0  0  0
    1.8755    1.0945    3.6136 C   0  0  0  0  0  0  0  0  0  0  0  0
    1.7593    0.0007    2.7521 C   0  0  0  0  0  0  0  0  0  0  0  0
    0.3214   -1.1444   -0.3621 C   0  0  0  0  0  0  0  0  0  0  0  0
    0.3172    0.3646   -1.0786 S   0  0  0  0  0  0  0  0  0  0  0  0
   -1.3505    0.3573   -1.4470 C   0  0  0  0  0  0  0  0  0  0  0  0
   -1.8973   -0.8652   -1.0030 C   0  0  0  0  0  0  0  0  0  0  0  0
   -3.2871   -1.2364   -1.0450 N   0  0  0  0  0  0  0  0  0  0  0  0
   -4.2993   -0.4205   -0.4181 C   0  0  0  0  0  0  0  0  0  0  0  0
   -5.6192   -0.4351   -0.9091 C   0  0  0  0  0  0  0  0  0  0  0  0
   -6.6412    0.2186   -0.2152 C   0  0  0  0  0  0  0  0  0  0  0  0
   -6.3557    0.9183    0.9588 C   0  0  0  0  0  0  0  0  0  0  0  0
   -7.6906    1.6356    1.9195 S   0  0  0  0  0  0  0  0  0  0  0  0
   -7.7753    3.1660    0.9459 C   0  0  0  0  0  0  0  0  0  0  0  0
   -5.0398    0.9924    1.4193 C   0  0  0  0  0  0  0  0  0  0  0  0
   -4.0107    0.3346    0.7349 C   0  0  0  0  0  0  0  0  0  0  0  0
   -3.6189   -2.5523   -1.5406 C   0  0  0  0  0  0  0  0  0  0  0  0
   -3.0882   -3.0072   -2.7593 C   0  0  0  0  0  0  0  0  0  0  0  0
   -3.4060   -4.2795   -3.2418 C   0  0  0  0  0  0  0  0  0  0  0  0
   -4.2438   -5.1237   -2.5026 C   0  0  0  0  0  0  0  0  0  0  0  0
   -4.6847   -6.7407   -3.1446 S   0  0  0  0  0  0  0  0  0  0  0  0
   -3.2147   -7.5637   -2.4575 C   0  0  0  0  0  0  0  0  0  0  0  0
   -4.7500   -4.6944   -1.2705 C   0  0  0  0  0  0  0  0  0  0  0  0
   -4.4409   -3.4164   -0.7903 C   0  0  0  0  0  0  0  0  0  0  0  0
   -0.9297   -1.6614   -0.3975 C   0  0  0  0  0  0  0  0  0  0  0  0
   -1.0351   -2.9769    0.6391 S   0  0  0  0  0  0  0  0  0  0  0  0
   -2.1243    1.5223   -1.9397 C   0  0  0  0  0  0  0  0  0  0  0  0
   -1.9680    2.8063   -1.3554 C   0  0  0  0  0  0  0  0  0  0  0  0
   -0.8746    3.0743   -0.5246 O   0  0  0  0  0  0  0  0  0  0  0  0
    0.3576    3.6127   -1.0163 C   0  0  0  0  0  0  0  0  0  0  0  0
    0.2184    5.0610   -1.4841 C   0  0  0  0  0  0  0  0  0  0  0  0
   -2.9158    3.8294   -1.6127 C   0  0  0  0  0  0  0  0  0  0  0  0
   -2.8534    5.0745   -0.9628 O   0  0  0  0  0  0  0  0  0  0  0  0
   -2.7762    5.2470    0.4547 C   0  0  0  0  0  0  0  0  0  0  0  0
   -4.0694    4.8012    1.1187 C   0  0  0  0  0  0  0  0  0  0  0  0
   -3.9380    3.6250   -2.5563 C   0  0  0  0  0  0  0  0  0  0  0  0
   -4.0291    2.4005   -3.2128 C   0  0  0  0  0  0  0  0  0  0  0  0
   -3.1252    1.3482   -2.9061 C   0  0  0  0  0  0  0  0  0  0  0  0
   -3.2914    0.1956   -3.5997 N   0  0  0  0  0  0  0  0  0  0  0  0
   -4.5869    0.5844   -4.5461 S   0  0  0  0  0  0  0  0  0  0  0  0
   -4.9724    2.1403   -4.1550 N   0  0  0  0  0  0  0  0  0  0  0  0
   -4.9006    4.6988   -2.8453 C   0  0  0  0  0  0  0  0  0  0  0  0
   -4.5843    5.7471   -3.6218 C   0  0  0  0  0  0  0  0  0  0  0  0
   -3.2796    5.9694   -4.2568 C   0  0  0  0  0  0  0  0  0  0  0  0
   -2.4009    5.0973   -4.4850 O   0  0  0  0  0  0  0  0  0  0  0  0
   -3.1490    7.3746   -4.5627 C   0  0  0  0  0  0  0  0  0  0  0  0
   -1.9838    8.0403   -5.0003 C   0  0  0  0  0  0  0  0  0  0  0  0
   -2.0987    9.4162   -5.0050 C   0  0  0  0  0  0  0  0  0  0  0  0
   -3.2865   10.1054   -4.5911 C   0  0  0  0  0  0  0  0  0  0  0  0
   -4.4412    9.4539   -4.1830 C   0  0  0  0  0  0  0  0  0  0  0  0
   -4.3513    8.0350   -4.2006 C   0  0  0  0  0  0  0  0  0  0  0  0
   -5.3413    7.0236   -3.7442 C   0  0  0  0  0  0  0  0  0  0  0  0
   -6.6874    7.1701   -3.7075 C   0  0  0  0  0  0  0  0  0  0  0  0
   -7.3316    8.4192   -4.0205 C   0  0  0  0  0  0  0  0  0  0  0  0
   -7.8680    9.4166   -4.2698 N   0  0  0  0  0  0  0  0  0  0  0  0
   -7.5761    6.0560   -3.4947 C   0  0  0  0  0  0  0  0  0  0  0  0
   -8.2898    5.1601   -3.3304 N   0  0  0  0  0  0  0  0  0  0  0  0
   -2.5914   11.4243   -4.7489 C   0  0  0  0  0  0  0  0  0  0  0  0
   -2.1353   12.1560   -3.4486 C   0  0  0  0  0  0  0  0  0  0  0  0
   -1.7972   11.1455   -2.3703 C   0  0  0  0  0  0  0  0  0  0  0  0
   -0.6922   10.5126   -2.7731 C   0  0  0  0  0  0  0  0  0  0  0  0
   -0.3183   11.1103   -4.1167 C   0  0  0  0  0  0  0  0  0  0  0  0
   -0.7229   12.5491   -3.8494 C   0  0  0  0  0  0  0  0  0  0  0  0
   -1.3810   10.7216   -5.1889 C   0  0  0  0  0  0  0  0  0  0  0  0
    4.1616   -4.8047    5.4824 H   0  0  0  0  0  0  0  0  0  0  0  0
    5.0446   -7.6750   -0.0106 H   0  0  0  0  0  0  0  0  0  0  0  0
    8.8563   -5.4552    2.5530 H   0  0  0  0  0  0  0  0  0  0  0  0
    9.3165   -5.3908   -0.8770 H   0  0  0  0  0  0  0  0  0  0  0  0
   10.9703   -7.3221    0.2295 H   0  0  0  0  0  0  0  0  0  0  0  0
   11.5754   -7.3403   -2.3565 H   0  0  0  0  0  0  0  0  0  0  0  0
    9.6193   -8.4847   -3.6479 H   0  0  0  0  0  0  0  0  0  0  0  0
    7.7668   -9.2035   -1.8877 H   0  0  0  0  0  0  0  0  0  0  0  0
   10.0199   -9.6771   -0.5550 H   0  0  0  0  0  0  0  0  0  0  0  0
    8.8257   -8.8958    0.5517 H   0  0  0  0  0  0  0  0  0  0  0  0
    7.5368   -6.4466   -2.0828 H   0  0  0  0  0  0  0  0  0  0  0  0
   -1.4641   -3.1734    3.4622 H   0  0  0  0  0  0  0  0  0  0  0  0
   -1.7758   -3.9838    7.2170 H   0  0  0  0  0  0  0  0  0  0  0  0
   -2.6227   -3.1486    5.8653 H   0  0  0  0  0  0  0  0  0  0  0  0
   -2.3402   -6.2077    6.2193 H   0  0  0  0  0  0  0  0  0  0  0  0
   -3.1422   -5.3883    4.8171 H   0  0  0  0  0  0  0  0  0  0  0  0
   -3.8330   -5.2220    6.4768 H   0  0  0  0  0  0  0  0  0  0  0  0
    4.8800   -2.1067    1.8386 H   0  0  0  0  0  0  0  0  0  0  0  0
    6.8182   -3.0014    0.6082 H   0  0  0  0  0  0  0  0  0  0  0  0
    9.0599   -1.8537   -2.9062 H   0  0  0  0  0  0  0  0  0  0  0  0
    8.5239   -1.5529   -1.2121 H   0  0  0  0  0  0  0  0  0  0  0  0
    7.5014   -0.9950   -2.6150 H   0  0  0  0  0  0  0  0  0  0  0  0
    4.7127   -2.4798   -3.1118 H   0  0  0  0  0  0  0  0  0  0  0  0
    2.7591   -1.6099   -1.8921 H   0  0  0  0  0  0  0  0  0  0  0  0
    4.3764    0.7029    0.6729 H   0  0  0  0  0  0  0  0  0  0  0  0
    4.5761    2.6067    2.2096 H   0  0  0  0  0  0  0  0  0  0  0  0
    2.4913    4.6430    2.5307 H   0  0  0  0  0  0  0  0  0  0  0  0
    1.0113    4.1690    3.4669 H   0  0  0  0  0  0  0  0  0  0  0  0
    2.0451    5.5425    4.0240 H   0  0  0  0  0  0  0  0  0  0  0  0
    1.1755    1.2108    4.4330 H   0  0  0  0  0  0  0  0  0  0  0  0
    0.9691   -0.7231    2.9341 H   0  0  0  0  0  0  0  0  0  0  0  0
   -5.8641   -0.9889   -1.8046 H   0  0  0  0  0  0  0  0  0  0  0  0
   -7.6591    0.1620   -0.5847 H   0  0  0  0  0  0  0  0  0  0  0  0
   -8.5734    3.8198    1.3627 H   0  0  0  0  0  0  0  0  0  0  0  0
   -8.0216    2.9305   -0.1093 H   0  0  0  0  0  0  0  0  0  0  0  0
   -6.8064    3.7021    0.9936 H   0  0  0  0  0  0  0  0  0  0  0  0
   -4.8136    1.5284    2.3349 H   0  0  0  0  0  0  0  0  0  0  0  0
   -3.0085    0.3671    1.1382 H   0  0  0  0  0  0  0  0  0  0  0  0
   -2.4294   -2.3746   -3.3414 H   0  0  0  0  0  0  0  0  0  0  0  0
   -3.0084   -4.6097   -4.1966 H   0  0  0  0  0  0  0  0  0  0  0  0
   -2.2926   -7.1049   -2.8765 H   0  0  0  0  0  0  0  0  0  0  0  0
   -3.2447   -8.6415   -2.7304 H   0  0  0  0  0  0  0  0  0  0  0  0
   -3.2130   -7.4773   -1.3521 H   0  0  0  0  0  0  0  0  0  0  0  0
   -5.3857   -5.3444   -0.6856 H   0  0  0  0  0  0  0  0  0  0  0  0
   -4.8357   -3.1021    0.1668 H   0  0  0  0  0  0  0  0  0  0  0  0
    1.1175    3.5719   -0.2063 H   0  0  0  0  0  0  0  0  0  0  0  0
    0.7248    3.0034   -1.8683 H   0  0  0  0  0  0  0  0  0  0  0  0
   -0.1233    5.7064   -0.6510 H   0  0  0  0  0  0  0  0  0  0  0  0
    1.2016    5.4249   -1.8465 H   0  0  0  0  0  0  0  0  0  0  0  0
   -0.4961    5.1136   -2.3270 H   0  0  0  0  0  0  0  0  0  0  0  0
   -1.9220    4.6939    0.8975 H   0  0  0  0  0  0  0  0  0  0  0  0
   -2.6167    6.3252    0.6703 H   0  0  0  0  0  0  0  0  0  0  0  0
   -4.2320    3.7183    0.9570 H   0  0  0  0  0  0  0  0  0  0  0  0
   -4.0206    4.9995    2.2085 H   0  0  0  0  0  0  0  0  0  0  0  0
   -4.9255    5.3639    0.6926 H   0  0  0  0  0  0  0  0  0  0  0  0
   -5.8218    4.6794   -2.2878 H   0  0  0  0  0  0  0  0  0  0  0  0
   -1.0608    7.5253   -5.2559 H   0  0  0  0  0  0  0  0  0  0  0  0
   -5.2880   10.0117   -3.8165 H   0  0  0  0  0  0  0  0  0  0  0  0
   -3.0359   12.0841   -5.5301 H   0  0  0  0  0  0  0  0  0  0  0  0
   -2.7861   12.9899   -3.1181 H   0  0  0  0  0  0  0  0  0  0  0  0
   -2.2950   11.0045   -1.4137 H   0  0  0  0  0  0  0  0  0  0  0  0
   -0.1486    9.7637   -2.2118 H   0  0  0  0  0  0  0  0  0  0  0  0
    0.7379   10.9590   -4.4141 H   0  0  0  0  0  0  0  0  0  0  0  0
   -0.6817   13.1969   -4.7580 H   0  0  0  0  0  0  0  0  0  0  0  0
   -0.1424   13.0305   -3.0224 H   0  0  0  0  0  0  0  0  0  0  0  0
   -1.0895   10.9344   -6.2415 H   0  0  0  0  0  0  0  0  0  0  0  0
  1  2  2  3
  2  3  1  0
  3  4  2  0
  3  5  1  0
  5  6  2  0
  6  7  1  0
  7  8  2  0
  8  9  1  0
  9 10  2  0
 10 11  1  0
 11 12  2  3
 12 13  1  0
 13 14  3  0
 12 15  1  0
 15 16  3  0
  8 17  1  0
 17 18  1  0
 18 19  1  0
 19 20  2  0
 20 21  1  0
 21 22  1  0
 21 23  1  0
  1 24  1  0
 24 25  1  0
 25 26  1  0
 26 27  2  0
 27 28  1  0
 28 29  2  0
 29 30  1  0
 30 31  1  0
 29 32  1  0
 32 33  1  0
 26 34  1  0
 34 35  2  0
 35 36  1  0
 36 37  1  0
 37 38  2  0
 38 39  1  0
 39 40  2  0
 40 41  1  0
 41 42  1  0
 40 43  1  0
 43 44  2  0
 36 45  1  0
 45 46  2  0
 46 47  1  0
 47 48  2  0
 48 49  1  0
 49 50  1  0
 48 51  1  0
 51 52  2  0
 35 53  1  0
 53 54  1  0
 54 55  1  0
 55 56  2  0
 56 57  1  0
 57 58  1  0
 58 59  2  0
 59 60  1  0
 60 61  2  0
 61 62  1  0
 62 63  1  0
 61 64  1  0
 64 65  2  0
 57 66  1  0
 66 67  2  0
 67 68  1  0
 68 69  2  0
 69 70  1  0
 70 71  1  0
 69 72  1  0
 72 73  2  0
 56 74  1  0
 74 75  1  0
 55 76  1  0
 76 77  2  0
 77 78  1  0
 78 79  1  0
 79 80  1  0
 77 81  1  0
 81 82  1  0
 82 83  1  0
 83 84  1  0
 81 85  2  0
 85 86  1  0
 86 87  1  0
 87 88  2  0
 88 89  1  0
 89 90  1  0
 85 91  1  0
 91 92  2  3
 92 93  1  0
 93 94  2  0
 93 95  1  0
 95 96  2  0
 96 97  1  0
 97 98  2  0
 98 99  1  0
 99100  2  0
100101  1  0
101102  2  3
102103  1  0
103104  3  0
102105  1  0
105106  3  0
 98107  1  0
107108  1  0
108109  1  0
109110  2  0
110111  1  0
111112  1  0
111113  1  0
 11  2  1  0
 23 17  1  0
 33 24  2  0
 75 34  1  0
 87 76  1  0
101 92  1  0
113107  1  0
 10  5  1  0
 22 18  1  0
 33 27  1  0
 44 37  1  0
 52 45  1  0
 74 53  2  0
 90 86  2  0
100 95  1  0
112108  1  0
 23  7  1  0
 65 58  1  0
 73 66  1  0
113 97  1  0
  1114  1  0
  6115  1  0
  9116  1  0
 17117  1  0
 18118  1  0
 19119  1  0
 20120  1  0
 21121  1  0
 22122  1  0
 22123  1  0
 23124  1  0
 28125  1  0
 30126  1  0
 30127  1  0
 31128  1  0
 31129  1  0
 31130  1  0
 38131  1  0
 39132  1  0
 42133  1  0
 42134  1  0
 42135  1  0
 43136  1  0
 44137  1  0
 46138  1  0
 47139  1  0
 50140  1  0
 50141  1  0
 50142  1  0
 51143  1  0
 52144  1  0
 59145  1  0
 60146  1  0
 63147  1  0
 63148  1  0
 63149  1  0
 64150  1  0
 65151  1  0
 67152  1  0
 68153  1  0
 71154  1  0
 71155  1  0
 71156  1  0
 72157  1  0
 73158  1  0
 79159  1  0
 79160  1  0
 80161  1  0
 80162  1  0
 80163  1  0
 83164  1  0
 83165  1  0
 84166  1  0
 84167  1  0
 84168  1  0
 91169  1  0
 96170  1  0
 99171  1  0
107172  1  0
108173  1  0
109174  1  0
110175  1  0
111176  1  0
112177  1  0
112178  1  0
113179  1  0
M  END

