
     RDKit          3D

209229  0  0  0  0  0  0  0  0999 V2000
    3.3207   -7.1828   -2.4484 C   0  0  0  0  0  0  0  0  0  0  0  0
    3.2192   -7.5247   -3.7426 C   0  0  0  0  0  0  0  0  0  0  0  0
    4.3815   -7.3499   -4.6166 C   0  0  0  0  0  0  0  0  0  0  0  0
    5.5791   -7.5592   -4.2963 O   0  0  0  0  0  0  0  0  0  0  0  0
    3.9478   -6.6851   -5.8327 C   0  0  0  0  0  0  0  0  0  0  0  0
    4.7605   -5.9821   -6.7479 C   0  0  0  0  0  0  0  0  0  0  0  0
    4.0528   -5.1402   -7.5895 C   0  0  0  0  0  0  0  0  0  0  0  0
    2.6246   -5.0135   -7.5548 C   0  0  0  0  0  0  0  0  0  0  0  0
    1.8188   -5.7189   -6.6768 C   0  0  0  0  0  0  0  0  0  0  0  0
    2.5360   -6.5712   -5.7990 C   0  0  0  0  0  0  0  0  0  0  0  0
    2.0372   -7.2674   -4.6008 C   0  0  0  0  0  0  0  0  0  0  0  0
    0.8628   -7.9265   -4.4995 C   0  0  0  0  0  0  0  0  0  0  0  0
   -0.1993   -7.7595   -5.4558 C   0  0  0  0  0  0  0  0  0  0  0  0
   -1.0565   -7.6192   -6.2213 N   0  0  0  0  0  0  0  0  0  0  0  0
    0.6538   -8.9056   -3.4623 C   0  0  0  0  0  0  0  0  0  0  0  0
    0.4989   -9.6914   -2.6279 N   0  0  0  0  0  0  0  0  0  0  0  0
    2.6783   -3.9141   -8.5748 C   0  0  0  0  0  0  0  0  0  0  0  0
    2.4554   -2.4713   -8.0333 C   0  0  0  0  0  0  0  0  0  0  0  0
    2.9416   -1.5413   -9.1169 C   0  0  0  0  0  0  0  0  0  0  0  0
    4.2740   -1.6601   -9.1495 C   0  0  0  0  0  0  0  0  0  0  0  0
    4.6411   -2.6659   -8.0877 C   0  0  0  0  0  0  0  0  0  0  0  0
    3.5977   -2.2917   -7.0479 C   0  0  0  0  0  0  0  0  0  0  0  0
    4.1397   -4.0446   -8.6118 C   0  0  0  0  0  0  0  0  0  0  0  0
    2.4464   -6.1586   -1.8378 C   0  0  0  0  0  0  0  0  0  0  0  0
    2.9098   -4.9680   -1.2540 C   0  0  0  0  0  0  0  0  0  0  0  0
    4.2876   -4.6647   -0.9730 N   0  0  0  0  0  0  0  0  0  0  0  0
    4.6320   -4.2918    0.3760 C   0  0  0  0  0  0  0  0  0  0  0  0
    5.2801   -3.0713    0.6328 C   0  0  0  0  0  0  0  0  0  0  0  0
    5.5149   -2.6612    1.9478 C   0  0  0  0  0  0  0  0  0  0  0  0
    5.1263   -3.4749    3.0182 C   0  0  0  0  0  0  0  0  0  0  0  0
    5.3858   -2.9257    4.7057 S   0  0  0  0  0  0  0  0  0  0  0  0
    7.1171   -3.4806    4.7637 C   0  0  0  0  0  0  0  0  0  0  0  0
    4.5004   -4.7034    2.7683 C   0  0  0  0  0  0  0  0  0  0  0  0
    4.2443   -5.1044    1.4548 C   0  0  0  0  0  0  0  0  0  0  0  0
    5.2498   -4.5035   -2.0321 C   0  0  0  0  0  0  0  0  0  0  0  0
    6.5732   -4.9332   -1.8412 C   0  0  0  0  0  0  0  0  0  0  0  0
    7.5659   -4.6121   -2.7708 C   0  0  0  0  0  0  0  0  0  0  0  0
    7.2513   -3.8473   -3.8989 C   0  0  0  0  0  0  0  0  0  0  0  0
    8.5681   -3.2676   -4.9732 S   0  0  0  0  0  0  0  0  0  0  0  0
    8.4064   -4.6324   -6.1602 C   0  0  0  0  0  0  0  0  0  0  0  0
    5.9262   -3.4590   -4.1254 C   0  0  0  0  0  0  0  0  0  0  0  0
    4.9246   -3.7925   -3.2039 C   0  0  0  0  0  0  0  0  0  0  0  0
    1.8550   -4.1471   -0.8723 C   0  0  0  0  0  0  0  0  0  0  0  0
    1.7703   -2.6017   -0.2550 S   0  0  0  0  0  0  0  0  0  0  0  0
    0.0681   -2.5488   -0.2751 C   0  0  0  0  0  0  0  0  0  0  0  0
   -0.4499   -3.7676   -0.7690 C   0  0  0  0  0  0  0  0  0  0  0  0
   -1.8510   -4.1226   -0.8613 N   0  0  0  0  0  0  0  0  0  0  0  0
   -2.8801   -3.1264   -0.8910 C   0  0  0  0  0  0  0  0  0  0  0  0
   -3.0506   -2.3192   -2.0216 C   0  0  0  0  0  0  0  0  0  0  0  0
   -4.0221   -1.3132   -2.0269 C   0  0  0  0  0  0  0  0  0  0  0  0
   -4.8331   -1.1181   -0.9034 C   0  0  0  0  0  0  0  0  0  0  0  0
   -6.0910    0.1642   -0.9164 S   0  0  0  0  0  0  0  0  0  0  0  0
   -4.9639    1.4514   -0.2837 C   0  0  0  0  0  0  0  0  0  0  0  0
   -4.6937   -1.9491    0.2128 C   0  0  0  0  0  0  0  0  0  0  0  0
   -3.7203   -2.9525    0.2194 C   0  0  0  0  0  0  0  0  0  0  0  0
   -2.2584   -5.4941   -0.7468 C   0  0  0  0  0  0  0  0  0  0  0  0
   -2.8678   -6.1400   -1.8331 C   0  0  0  0  0  0  0  0  0  0  0  0
   -3.2975   -7.4651   -1.7131 C   0  0  0  0  0  0  0  0  0  0  0  0
   -3.1286   -8.1490   -0.4993 C   0  0  0  0  0  0  0  0  0  0  0  0
   -3.7371   -9.8273   -0.3117 S   0  0  0  0  0  0  0  0  0  0  0  0
   -2.2109  -10.5933   -0.9316 C   0  0  0  0  0  0  0  0  0  0  0  0
   -2.5165   -7.5073    0.5846 C   0  0  0  0  0  0  0  0  0  0  0  0
   -2.0737   -6.1880    0.4592 C   0  0  0  0  0  0  0  0  0  0  0  0
    0.6052   -4.6295   -1.1020 C   0  0  0  0  0  0  0  0  0  0  0  0
    0.7358   -6.1373   -1.8256 S   0  0  0  0  0  0  0  0  0  0  0  0
   -0.6452   -1.3220    0.0992 C   0  0  0  0  0  0  0  0  0  0  0  0
   -0.8864   -0.3570   -0.8854 C   0  0  0  0  0  0  0  0  0  0  0  0
   -1.2472    0.9435   -0.5310 C   0  0  0  0  0  0  0  0  0  0  0  0
   -1.3327    1.3099    0.8167 C   0  0  0  0  0  0  0  0  0  0  0  0
   -1.1717    0.3288    1.8143 C   0  0  0  0  0  0  0  0  0  0  0  0
   -1.2585    0.6490    3.1344 N   0  0  0  0  0  0  0  0  0  0  0  0
   -1.0283   -0.2717    4.1058 C   0  0  0  0  0  0  0  0  0  0  0  0
   -0.6719   -1.5726    3.7467 C   0  0  0  0  0  0  0  0  0  0  0  0
   -0.5708   -1.9009    2.4350 N   0  0  0  0  0  0  0  0  0  0  0  0
   -0.8127   -0.9863    1.4519 C   0  0  0  0  0  0  0  0  0  0  0  0
   -1.4063    2.7348    1.1675 C   0  0  0  0  0  0  0  0  0  0  0  0
   -0.3409    3.6456    1.0232 C   0  0  0  0  0  0  0  0  0  0  0  0
    0.9728    3.2723    0.5762 N   0  0  0  0  0  0  0  0  0  0  0  0
    2.0228    2.9957    1.5402 C   0  0  0  0  0  0  0  0  0  0  0  0
    1.7053    2.5560    2.8413 C   0  0  0  0  0  0  0  0  0  0  0  0
    2.7099    2.3434    3.7908 C   0  0  0  0  0  0  0  0  0  0  0  0
    4.0459    2.5740    3.4593 C   0  0  0  0  0  0  0  0  0  0  0  0
    5.3281    2.3502    4.6962 S   0  0  0  0  0  0  0  0  0  0  0  0
    5.6764    0.6342    4.1945 C   0  0  0  0  0  0  0  0  0  0  0  0
    4.3790    3.0050    2.1732 C   0  0  0  0  0  0  0  0  0  0  0  0
    3.3779    3.2095    1.2165 C   0  0  0  0  0  0  0  0  0  0  0  0
    1.2859    3.4750   -0.8083 C   0  0  0  0  0  0  0  0  0  0  0  0
    1.4540    4.7731   -1.3066 C   0  0  0  0  0  0  0  0  0  0  0  0
    1.7803    4.9749   -2.6515 C   0  0  0  0  0  0  0  0  0  0  0  0
    1.9019    3.8791   -3.5126 C   0  0  0  0  0  0  0  0  0  0  0  0
    2.2770    4.1360   -5.2480 S   0  0  0  0  0  0  0  0  0  0  0  0
    0.5519    4.5156   -5.6885 C   0  0  0  0  0  0  0  0  0  0  0  0
    1.7476    2.5800   -3.0154 C   0  0  0  0  0  0  0  0  0  0  0  0
    1.4638    2.3761   -1.6615 C   0  0  0  0  0  0  0  0  0  0  0  0
   -0.5872    4.8205    1.7257 C   0  0  0  0  0  0  0  0  0  0  0  0
    0.4230    6.0477    2.2593 S   0  0  0  0  0  0  0  0  0  0  0  0
   -0.7141    6.6571    3.3671 C   0  0  0  0  0  0  0  0  0  0  0  0
   -1.8508    5.8315    3.3902 C   0  0  0  0  0  0  0  0  0  0  0  0
   -2.6574    5.6608    4.5698 N   0  0  0  0  0  0  0  0  0  0  0  0
   -1.9876    5.2874    5.7935 C   0  0  0  0  0  0  0  0  0  0  0  0
   -0.9405    4.3453    5.7741 C   0  0  0  0  0  0  0  0  0  0  0  0
   -0.2941    3.9788    6.9575 C   0  0  0  0  0  0  0  0  0  0  0  0
   -0.6953    4.5352    8.1755 C   0  0  0  0  0  0  0  0  0  0  0  0
    0.1137    4.0355    9.6952 S   0  0  0  0  0  0  0  0  0  0  0  0
   -1.0120    2.6308    9.9701 C   0  0  0  0  0  0  0  0  0  0  0  0
   -1.7266    5.4817    8.2024 C   0  0  0  0  0  0  0  0  0  0  0  0
   -2.3691    5.8594    7.0171 C   0  0  0  0  0  0  0  0  0  0  0  0
   -4.0987    5.6101    4.4626 C   0  0  0  0  0  0  0  0  0  0  0  0
   -4.8566    4.7568    5.2930 C   0  0  0  0  0  0  0  0  0  0  0  0
   -6.2489    4.7188    5.1900 C   0  0  0  0  0  0  0  0  0  0  0  0
   -6.9065    5.5266    4.2552 C   0  0  0  0  0  0  0  0  0  0  0  0
   -8.6929    5.4682    4.1167 S   0  0  0  0  0  0  0  0  0  0  0  0
   -8.6646    4.1748    2.8374 C   0  0  0  0  0  0  0  0  0  0  0  0
   -6.1655    6.3683    3.4188 C   0  0  0  0  0  0  0  0  0  0  0  0
   -4.7719    6.3990    3.5109 C   0  0  0  0  0  0  0  0  0  0  0  0
   -1.7639    4.8483    2.4082 C   0  0  0  0  0  0  0  0  0  0  0  0
   -2.5802    3.3954    2.2117 S   0  0  0  0  0  0  0  0  0  0  0  0
   -0.4486    7.7411    4.3267 C   0  0  0  0  0  0  0  0  0  0  0  0
   -1.3307    8.7303    4.5412 C   0  0  0  0  0  0  0  0  0  0  0  0
   -1.4872    9.3955    5.8325 C   0  0  0  0  0  0  0  0  0  0  0  0
   -0.6479    9.4024    6.7682 O   0  0  0  0  0  0  0  0  0  0  0  0
   -2.8231    9.9579    5.8874 C   0  0  0  0  0  0  0  0  0  0  0  0
   -3.4604   10.5959    6.9528 C   0  0  0  0  0  0  0  0  0  0  0  0
   -4.7866   11.0225    6.7775 C   0  0  0  0  0  0  0  0  0  0  0  0
   -5.4618   10.7673    5.5676 C   0  0  0  0  0  0  0  0  0  0  0  0
   -6.7535   11.1582    5.4168 F   0  0  0  0  0  0  0  0  0  0  0  0
   -4.8083   10.1100    4.5146 C   0  0  0  0  0  0  0  0  0  0  0  0
   -3.4679    9.7352    4.6788 C   0  0  0  0  0  0  0  0  0  0  0  0
   -2.5266    9.0920    3.7280 C   0  0  0  0  0  0  0  0  0  0  0  0
   -2.5649    9.1977    2.3726 C   0  0  0  0  0  0  0  0  0  0  0  0
   -1.4007    8.9712    1.5576 C   0  0  0  0  0  0  0  0  0  0  0  0
   -0.4704    8.8081    0.8859 N   0  0  0  0  0  0  0  0  0  0  0  0
   -3.7119    9.7007    1.6646 C   0  0  0  0  0  0  0  0  0  0  0  0
   -4.6232   10.1012    1.0750 N   0  0  0  0  0  0  0  0  0  0  0  0
    4.2945   -7.2941   -1.9829 H   0  0  0  0  0  0  0  0  0  0  0  0
    5.8360   -6.0084   -6.7192 H   0  0  0  0  0  0  0  0  0  0  0  0
    0.7600   -5.5234   -6.5952 H   0  0  0  0  0  0  0  0  0  0  0  0
    2.1577   -4.1574   -9.5290 H   0  0  0  0  0  0  0  0  0  0  0  0
    1.4419   -2.2535   -7.6397 H   0  0  0  0  0  0  0  0  0  0  0  0
    2.3528   -0.8306   -9.6864 H   0  0  0  0  0  0  0  0  0  0  0  0
    4.9472   -1.0611   -9.7539 H   0  0  0  0  0  0  0  0  0  0  0  0
    5.6988   -2.6341   -7.7481 H   0  0  0  0  0  0  0  0  0  0  0  0
    3.5490   -2.9770   -6.1771 H   0  0  0  0  0  0  0  0  0  0  0  0
    3.7029   -1.2447   -6.6701 H   0  0  0  0  0  0  0  0  0  0  0  0
    4.5597   -4.3720   -9.5885 H   0  0  0  0  0  0  0  0  0  0  0  0
    5.5704   -2.4200   -0.1837 H   0  0  0  0  0  0  0  0  0  0  0  0
    5.9979   -1.7090    2.1324 H   0  0  0  0  0  0  0  0  0  0  0  0
    7.1693   -4.5829    4.6375 H   0  0  0  0  0  0  0  0  0  0  0  0
    7.7054   -2.9830    3.9643 H   0  0  0  0  0  0  0  0  0  0  0  0
    7.5516   -3.2074    5.7477 H   0  0  0  0  0  0  0  0  0  0  0  0
    4.1875   -5.3330    3.5935 H   0  0  0  0  0  0  0  0  0  0  0  0
    3.7317   -6.0410    1.2756 H   0  0  0  0  0  0  0  0  0  0  0  0
    6.8444   -5.4826   -0.9464 H   0  0  0  0  0  0  0  0  0  0  0  0
    8.5895   -4.9131   -2.5864 H   0  0  0  0  0  0  0  0  0  0  0  0
    8.3110   -5.6080   -5.6377 H   0  0  0  0  0  0  0  0  0  0  0  0
    7.5250   -4.4479   -6.8059 H   0  0  0  0  0  0  0  0  0  0  0  0
    9.3105   -4.6585   -6.8031 H   0  0  0  0  0  0  0  0  0  0  0  0
    5.6817   -2.8629   -4.9921 H   0  0  0  0  0  0  0  0  0  0  0  0
    3.9151   -3.4410   -3.3683 H   0  0  0  0  0  0  0  0  0  0  0  0
   -2.4157   -2.4552   -2.8896 H   0  0  0  0  0  0  0  0  0  0  0  0
   -4.1338   -0.6801   -2.8981 H   0  0  0  0  0  0  0  0  0  0  0  0
   -4.0617    1.5147   -0.9253 H   0  0  0  0  0  0  0  0  0  0  0  0
   -5.4809    2.4316   -0.2956 H   0  0  0  0  0  0  0  0  0  0  0  0
   -4.6669    1.2117    0.7581 H   0  0  0  0  0  0  0  0  0  0  0  0
   -5.3357   -1.8216    1.0776 H   0  0  0  0  0  0  0  0  0  0  0  0
   -3.6070   -3.5827    1.0928 H   0  0  0  0  0  0  0  0  0  0  0  0
   -3.0106   -5.6148   -2.7688 H   0  0  0  0  0  0  0  0  0  0  0  0
   -3.7663   -7.9601   -2.5534 H   0  0  0  0  0  0  0  0  0  0  0  0
   -2.2729  -11.6909   -0.7895 H   0  0  0  0  0  0  0  0  0  0  0  0
   -1.3312  -10.2063   -0.3795 H   0  0  0  0  0  0  0  0  0  0  0  0
   -2.1013  -10.3776   -2.0140 H   0  0  0  0  0  0  0  0  0  0  0  0
   -2.3879   -8.0278    1.5245 H   0  0  0  0  0  0  0  0  0  0  0  0
   -1.6073   -5.6949    1.3032 H   0  0  0  0  0  0  0  0  0  0  0  0
   -0.7263   -0.5917   -1.9278 H   0  0  0  0  0  0  0  0  0  0  0  0
   -1.3775    1.6835   -1.3125 H   0  0  0  0  0  0  0  0  0  0  0  0
   -1.1064    0.0095    5.1495 H   0  0  0  0  0  0  0  0  0  0  0  0
   -0.4832   -2.3165    4.5095 H   0  0  0  0  0  0  0  0  0  0  0  0
    0.6798    2.3945    3.1384 H   0  0  0  0  0  0  0  0  0  0  0  0
    2.4462    2.0108    4.7869 H   0  0  0  0  0  0  0  0  0  0  0  0
    6.3680    0.1707    4.9302 H   0  0  0  0  0  0  0  0  0  0  0  0
    4.7416    0.0361    4.1523 H   0  0  0  0  0  0  0  0  0  0  0  0
    6.1636    0.6357    3.1964 H   0  0  0  0  0  0  0  0  0  0  0  0
    5.4148    3.1838    1.9084 H   0  0  0  0  0  0  0  0  0  0  0  0
    3.6704    3.5607    0.2377 H   0  0  0  0  0  0  0  0  0  0  0  0
    1.3590    5.6278   -0.6503 H   0  0  0  0  0  0  0  0  0  0  0  0
    1.9210    5.9804   -3.0262 H   0  0  0  0  0  0  0  0  0  0  0  0
   -0.1245    3.6933   -5.3752 H   0  0  0  0  0  0  0  0  0  0  0  0
    0.4841    4.6553   -6.7870 H   0  0  0  0  0  0  0  0  0  0  0  0
    0.2479    5.4624   -5.1946 H   0  0  0  0  0  0  0  0  0  0  0  0
    1.8601    1.7244   -3.6740 H   0  0  0  0  0  0  0  0  0  0  0  0
    1.3835    1.3690   -1.2778 H   0  0  0  0  0  0  0  0  0  0  0  0
   -0.6241    3.8866    4.8437 H   0  0  0  0  0  0  0  0  0  0  0  0
    0.5068    3.2476    6.9262 H   0  0  0  0  0  0  0  0  0  0  0  0
   -2.0634    2.9864   10.0087 H   0  0  0  0  0  0  0  0  0  0  0  0
   -0.7607    2.1493   10.9374 H   0  0  0  0  0  0  0  0  0  0  0  0
   -0.8978    1.8876    9.1530 H   0  0  0  0  0  0  0  0  0  0  0  0
   -2.0319    5.9211    9.1423 H   0  0  0  0  0  0  0  0  0  0  0  0
   -3.1585    6.5962    7.0522 H   0  0  0  0  0  0  0  0  0  0  0  0
   -4.3703    4.1076    6.0084 H   0  0  0  0  0  0  0  0  0  0  0  0
   -6.8133    4.0608    5.8328 H   0  0  0  0  0  0  0  0  0  0  0  0
   -8.1729    3.2594    3.2317 H   0  0  0  0  0  0  0  0  0  0  0  0
   -9.7063    3.9274    2.5439 H   0  0  0  0  0  0  0  0  0  0  0  0
   -8.1158    4.5388    1.9419 H   0  0  0  0  0  0  0  0  0  0  0  0
   -6.6657    6.9892    2.6881 H   0  0  0  0  0  0  0  0  0  0  0  0
   -4.2207    7.0350    2.8371 H   0  0  0  0  0  0  0  0  0  0  0  0
    0.3941    7.6155    4.9941 H   0  0  0  0  0  0  0  0  0  0  0  0
   -2.9429   10.7703    7.8853 H   0  0  0  0  0  0  0  0  0  0  0  0
   -5.3035   11.5418    7.5781 H   0  0  0  0  0  0  0  0  0  0  0  0
   -5.3607    9.8874    3.6172 H   0  0  0  0  0  0  0  0  0  0  0  0
  1  2  2  3
  2  3  1  0
  3  4  2  0
  3  5  1  0
  5  6  2  0
  6  7  1  0
  7  8  2  0
  8  9  1  0
  9 10  2  0
 10 11  1  0
 11 12  2  3
 12 13  1  0
 13 14  3  0
 12 15  1  0
 15 16  3  0
  8 17  1  0
 17 18  1  0
 18 19  1  0
 19 20  2  0
 20 21  1  0
 21 22  1  0
 21 23  1  0
  1 24  1  0
 24 25  2  0
 25 26  1  0
 26 27  1  0
 27 28  2  0
 28 29  1  0
 29 30  2  0
 30 31  1  0
 31 32  1  0
 30 33  1  0
 33 34  2  0
 26 35  1  0
 35 36  2  0
 36 37  1  0
 37 38  2  0
 38 39  1  0
 39 40  1  0
 38 41  1  0
 41 42  2  0
 25 43  1  0
 43 44  1  0
 44 45  1  0
 45 46  2  0
 46 47  1  0
 47 48  1  0
 48 49  2  0
 49 50  1  0
 50 51  2  0
 51 52  1  0
 52 53  1  0
 51 54  1  0
 54 55  2  0
 47 56  1  0
 56 57  2  0
 57 58  1  0
 58 59  2  0
 59 60  1  0
 60 61  1  0
 59 62  1  0
 62 63  2  0
 46 64  1  0
 64 65  1  0
 45 66  1  0
 66 67  2  0
 67 68  1  0
 68 69  2  0
 69 70  1  0
 70 71  2  0
 71 72  1  0
 72 73  2  0
 73 74  1  0
 74 75  2  0
 69 76  1  0
 76 77  2  0
 77 78  1  0
 78 79  1  0
 79 80  2  0
 80 81  1  0
 81 82  2  0
 82 83  1  0
 83 84  1  0
 82 85  1  0
 85 86  2  0
 78 87  1  0
 87 88  2  0
 88 89  1  0
 89 90  2  0
 90 91  1  0
 91 92  1  0
 90 93  1  0
 93 94  2  0
 77 95  1  0
 95 96  1  0
 96 97  1  0
 97 98  2  0
 98 99  1  0
 99100  1  0
100101  2  0
101102  1  0
102103  2  0
103104  1  0
104105  1  0
103106  1  0
106107  2  0
 99108  1  0
108109  2  0
109110  1  0
110111  2  0
111112  1  0
112113  1  0
111114  1  0
114115  2  0
 98116  1  0
116117  1  0
 97118  1  0
118119  2  3
119120  1  0
120121  2  0
120122  1  0
122123  2  0
123124  1  0
124125  2  0
125126  1  0
125127  1  0
127128  2  0
128129  1  0
129130  2  3
130131  1  0
131132  3  0
130133  1  0
133134  3  0
 11  2  1  0
 23 17  1  0
 65 24  1  0
 75 66  1  0
117 76  1  0
129119  1  0
 10  5  1  0
 22 18  1  0
 34 27  1  0
 42 35  1  0
 64 43  2  0
 75 70  1  0
 86 79  1  0
 94 87  1  0
116 95  2  0
128122  1  0
 23  7  1  0
 55 48  1  0
 63 56  1  0
107100  1  0
115108  1  0
  1135  1  0
  6136  1  0
  9137  1  0
 17138  1  0
 18139  1  0
 19140  1  0
 20141  1  0
 21142  1  0
 22143  1  0
 22144  1  0
 23145  1  0
 28146  1  0
 29147  1  0
 32148  1  0
 32149  1  0
 32150  1  0
 33151  1  0
 34152  1  0
 36153  1  0
 37154  1  0
 40155  1  0
 40156  1  0
 40157  1  0
 41158  1  0
 42159  1  0
 49160  1  0
 50161  1  0
 53162  1  0
 53163  1  0
 53164  1  0
 54165  1  0
 55166  1  0
 57167  1  0
 58168  1  0
 61169  1  0
 61170  1  0
 61171  1  0
 62172  1  0
 63173  1  0
 67174  1  0
 68175  1  0
 72176  1  0
 73177  1  0
 80178  1  0
 81179  1  0
 84180  1  0
 84181  1  0
 84182  1  0
 85183  1  0
 86184  1  0
 88185  1  0
 89186  1  0
 92187  1  0
 92188  1  0
 92189  1  0
 93190  1  0
 94191  1  0
101192  1  0
102193  1  0
105194  1  0
105195  1  0
105196  1  0
106197  1  0
107198  1  0
109199  1  0
110200  1  0
113201  1  0
113202  1  0
113203  1  0
114204  1  0
115205  1  0
118206  1  0
123207  1  0
124208  1  0
127209  1  0
M  END

