
     RDKit          3D

181201  0  0  0  0  0  0  0  0999 V2000
    2.6808   -2.3939   -8.2931 C   0  0  0  0  0  0  0  0  0  0  0  0
    3.6745   -1.4825   -8.3302 C   0  0  0  0  0  0  0  0  0  0  0  0
    4.2989   -0.8817   -7.1421 C   0  0  0  0  0  0  0  0  0  0  0  0
    3.9379   -1.0425   -5.9431 O   0  0  0  0  0  0  0  0  0  0  0  0
    5.4614   -0.1349   -7.5551 C   0  0  0  0  0  0  0  0  0  0  0  0
    6.3672    0.5443   -6.7095 C   0  0  0  0  0  0  0  0  0  0  0  0
    7.3850    1.1889   -7.3822 C   0  0  0  0  0  0  0  0  0  0  0  0
    7.5084    1.1748   -8.8084 C   0  0  0  0  0  0  0  0  0  0  0  0
    6.6416    0.4862   -9.6418 C   0  0  0  0  0  0  0  0  0  0  0  0
    5.5859   -0.1988   -8.9703 C   0  0  0  0  0  0  0  0  0  0  0  0
    4.4500   -1.0024   -9.5210 C   0  0  0  0  0  0  0  0  0  0  0  0
    4.0430   -1.0631  -10.8142 C   0  0  0  0  0  0  0  0  0  0  0  0
    4.8293   -0.5547  -11.9059 C   0  0  0  0  0  0  0  0  0  0  0  0
    5.4486   -0.1588  -12.8007 N   0  0  0  0  0  0  0  0  0  0  0  0
    2.7287   -1.5245  -11.1819 C   0  0  0  0  0  0  0  0  0  0  0  0
    1.6724   -1.8887  -11.4854 N   0  0  0  0  0  0  0  0  0  0  0  0
    8.7421    2.0330   -8.7265 C   0  0  0  0  0  0  0  0  0  0  0  0
   10.1226    1.3515   -8.9818 C   0  0  0  0  0  0  0  0  0  0  0  0
   10.0566   -0.1040   -8.5852 C   0  0  0  0  0  0  0  0  0  0  0  0
    9.9312   -0.1316   -7.2561 C   0  0  0  0  0  0  0  0  0  0  0  0
    9.9276    1.3081   -6.7934 C   0  0  0  0  0  0  0  0  0  0  0  0
   10.9094    1.8838   -7.7947 C   0  0  0  0  0  0  0  0  0  0  0  0
    8.6240    2.0235   -7.2641 C   0  0  0  0  0  0  0  0  0  0  0  0
    1.7902   -2.4856   -7.1240 C   0  0  0  0  0  0  0  0  0  0  0  0
    1.8413   -3.5781   -6.2445 C   0  0  0  0  0  0  0  0  0  0  0  0
    1.2365   -3.5138   -4.9625 C   0  0  0  0  0  0  0  0  0  0  0  0
    1.4665   -4.6604   -4.1339 N   0  0  0  0  0  0  0  0  0  0  0  0
    2.3611   -5.5468   -5.1187 S   0  0  0  0  0  4  0  0  0  0  0  0
    2.5787   -4.7768   -6.4975 N   0  0  0  0  0  0  0  0  0  0  0  0
    0.5502   -2.3664   -4.5421 C   0  0  0  0  0  0  0  0  0  0  0  0
    0.4179   -1.3051   -5.4589 C   0  0  0  0  0  0  0  0  0  0  0  0
   -0.2207   -0.1452   -5.1547 N   0  0  0  0  0  0  0  0  0  0  0  0
   -0.0094    0.6997   -6.5570 S   0  0  0  0  0  0  0  0  0  0  0  0
    0.8736   -0.2829   -7.5483 N   0  0  0  0  0  0  0  0  0  0  0  0
    1.0211   -1.3743   -6.7502 C   0  0  0  0  0  0  0  0  0  0  0  0
    0.2251   -2.1401   -3.1258 C   0  0  0  0  0  0  0  0  0  0  0  0
   -1.0450   -1.7651   -2.6298 C   0  0  0  0  0  0  0  0  0  0  0  0
   -2.3077   -2.3341   -3.0560 N   0  0  0  0  0  0  0  0  0  0  0  0
   -3.3154   -2.6374   -2.0701 C   0  0  0  0  0  0  0  0  0  0  0  0
   -4.6522   -2.2615   -2.2820 C   0  0  0  0  0  0  0  0  0  0  0  0
   -5.6073   -2.4589   -1.2769 C   0  0  0  0  0  0  0  0  0  0  0  0
   -5.2335   -3.0406   -0.0578 C   0  0  0  0  0  0  0  0  0  0  0  0
   -6.4232   -3.2053    1.2782 S   0  0  0  0  0  0  0  0  0  0  0  0
   -6.7890   -4.9558    0.9249 C   0  0  0  0  0  0  0  0  0  0  0  0
   -3.9141   -3.4570    0.1382 C   0  0  0  0  0  0  0  0  0  0  0  0
   -2.9672   -3.2835   -0.8707 C   0  0  0  0  0  0  0  0  0  0  0  0
   -2.4465   -2.9337   -4.3497 C   0  0  0  0  0  0  0  0  0  0  0  0
   -2.7077   -2.1360   -5.4692 C   0  0  0  0  0  0  0  0  0  0  0  0
   -2.8118   -2.7230   -6.7372 C   0  0  0  0  0  0  0  0  0  0  0  0
   -2.6643   -4.1089   -6.8861 C   0  0  0  0  0  0  0  0  0  0  0  0
   -2.7224   -4.8596   -8.5097 S   0  0  0  0  0  0  0  0  0  0  0  0
   -0.9377   -4.6368   -8.7999 C   0  0  0  0  0  0  0  0  0  0  0  0
   -2.4387   -4.9075   -5.7645 C   0  0  0  0  0  0  0  0  0  0  0  0
   -2.3200   -4.3222   -4.5017 C   0  0  0  0  0  0  0  0  0  0  0  0
   -0.9034   -0.9835   -1.4776 C   0  0  0  0  0  0  0  0  0  0  0  0
   -1.9618   -0.1212   -0.5005 S   0  0  0  0  0  0  0  0  0  0  0  0
   -0.7565    0.4278    0.5711 C   0  0  0  0  0  0  0  0  0  0  0  0
    0.4890   -0.0833    0.1607 C   0  0  0  0  0  0  0  0  0  0  0  0
    1.7158    0.0159    0.9042 N   0  0  0  0  0  0  0  0  0  0  0  0
    2.2801    1.2988    1.2318 C   0  0  0  0  0  0  0  0  0  0  0  0
    2.9954    1.4720    2.4285 C   0  0  0  0  0  0  0  0  0  0  0  0
    3.6441    2.6795    2.7033 C   0  0  0  0  0  0  0  0  0  0  0  0
    3.6040    3.7192    1.7687 C   0  0  0  0  0  0  0  0  0  0  0  0
    4.5238    5.2308    2.0709 S   0  0  0  0  0  0  0  0  0  0  0  0
    6.0376    4.6021    1.2699 C   0  0  0  0  0  0  0  0  0  0  0  0
    2.8685    3.5717    0.5895 C   0  0  0  0  0  0  0  0  0  0  0  0
    2.2090    2.3693    0.3196 C   0  0  0  0  0  0  0  0  0  0  0  0
    2.4387   -1.1988    1.1918 C   0  0  0  0  0  0  0  0  0  0  0  0
    3.8230   -1.2750    0.9657 C   0  0  0  0  0  0  0  0  0  0  0  0
    4.5120   -2.4661    1.2032 C   0  0  0  0  0  0  0  0  0  0  0  0
    3.8253   -3.5973    1.6613 C   0  0  0  0  0  0  0  0  0  0  0  0
    4.7200   -5.1192    1.9841 S   0  0  0  0  0  0  0  0  0  0  0  0
    5.0086   -4.7159    3.7395 C   0  0  0  0  0  0  0  0  0  0  0  0
    2.4477   -3.5312    1.8817 C   0  0  0  0  0  0  0  0  0  0  0  0
    1.7564   -2.3402    1.6526 C   0  0  0  0  0  0  0  0  0  0  0  0
    0.3568   -0.8333   -1.0100 C   0  0  0  0  0  0  0  0  0  0  0  0
    1.4304   -1.5713   -2.0588 S   0  0  0  0  0  0  0  0  0  0  0  0
   -1.0744    1.2293    1.7595 C   0  0  0  0  0  0  0  0  0  0  0  0
   -0.5655    1.0497    3.0466 C   0  0  0  0  0  0  0  0  0  0  0  0
   -1.3054    1.7372    4.0316 C   0  0  0  0  0  0  0  0  0  0  0  0
   -1.1233    1.6445    5.4269 C   0  0  0  0  0  0  0  0  0  0  0  0
    0.0682    0.9992    6.0166 C   0  0  0  0  0  0  0  0  0  0  0  0
    1.3885    1.2889    5.6733 C   0  0  0  0  0  0  0  0  0  0  0  0
    2.3228    0.6152    6.4641 C   0  0  0  0  0  0  0  0  0  0  0  0
    3.6638    0.7615    6.3156 F   0  0  0  0  0  0  0  0  0  0  0  0
    1.7491   -0.1857    7.4403 C   0  0  0  0  0  0  0  0  0  0  0  0
    2.6268   -1.0994    8.7110 S   0  0  0  0  0  0  0  0  0  0  0  0
    2.5123    0.2329    9.9568 C   0  0  0  0  0  0  0  0  0  0  0  0
    3.6209    1.2583    9.7640 C   0  0  0  0  0  0  0  0  0  0  0  0
    0.0793   -0.0923    7.3045 S   0  0  0  0  0  0  0  0  0  0  0  0
   -2.1365    2.2092    6.2343 C   0  0  0  0  0  0  0  0  0  0  0  0
   -3.2427    2.8834    5.6973 C   0  0  0  0  0  0  0  0  0  0  0  0
   -3.3745    3.0581    4.3071 C   0  0  0  0  0  0  0  0  0  0  0  0
   -4.5176    3.7966    3.7159 C   0  0  0  0  0  0  0  0  0  0  0  0
   -5.0408    5.3246    4.2061 S   0  0  0  0  0  0  0  0  0  0  0  0
   -6.3357    5.4112    3.1359 C   0  0  0  0  0  0  0  0  0  0  0  0
   -7.5488    6.7279    3.1031 S   0  0  0  0  0  0  0  0  0  0  0  0
   -6.5813    7.8661    2.0436 C   0  0  0  0  0  0  0  0  0  0  0  0
   -6.3242    9.1701    2.7933 C   0  0  0  0  0  0  0  0  0  0  0  0
   -6.3793    4.2471    2.3869 C   0  0  0  0  0  0  0  0  0  0  0  0
   -5.3654    3.3384    2.7114 C   0  0  0  0  0  0  0  0  0  0  0  0
   -7.3334    3.9904    1.4628 F   0  0  0  0  0  0  0  0  0  0  0  0
   -2.3963    2.4424    3.5058 C   0  0  0  0  0  0  0  0  0  0  0  0
   -2.4140    2.2489    1.8366 S   0  0  0  0  0  0  0  0  0  0  0  0
   -4.2195    3.1857    6.6518 C   0  0  0  0  0  0  0  0  0  0  0  0
   -3.8938    2.7603    7.9313 C   0  0  0  0  0  0  0  0  0  0  0  0
   -2.3731    2.0360    7.8967 S   0  0  0  0  0  0  0  0  0  0  0  0
   -4.9179    2.4901    8.9493 C   0  0  0  0  0  0  0  0  0  0  0  0
   -5.7050    1.3973    8.8709 C   0  0  0  0  0  0  0  0  0  0  0  0
   -5.5829    0.3446    7.8474 C   0  0  0  0  0  0  0  0  0  0  0  0
   -4.5305    0.0113    7.2422 O   0  0  0  0  0  0  0  0  0  0  0  0
   -6.8802   -0.2732    7.6650 C   0  0  0  0  0  0  0  0  0  0  0  0
   -7.2858   -1.1875    6.6808 C   0  0  0  0  0  0  0  0  0  0  0  0
   -6.1589   -1.8615    5.5089 Cl  0  0  0  0  0  0  0  0  0  0  0  0
   -8.6383   -1.5490    6.6195 C   0  0  0  0  0  0  0  0  0  0  0  0
   -9.5650   -0.9772    7.5090 C   0  0  0  0  0  0  0  0  0  0  0  0
  -11.4203   -1.4111    7.3578 Br  0  0  0  0  0  0  0  0  0  0  0  0
   -9.1409   -0.0585    8.4829 C   0  0  0  0  0  0  0  0  0  0  0  0
   -7.7789    0.2786    8.5642 C   0  0  0  0  0  0  0  0  0  0  0  0
   -7.0729    1.2569    9.4497 C   0  0  0  0  0  0  0  0  0  0  0  0
   -7.5204    1.7892   10.6166 C   0  0  0  0  0  0  0  0  0  0  0  0
   -6.6485    2.5079   11.5097 C   0  0  0  0  0  0  0  0  0  0  0  0
   -5.9564    3.0886   12.2356 N   0  0  0  0  0  0  0  0  0  0  0  0
   -8.8647    1.5891   11.0923 C   0  0  0  0  0  0  0  0  0  0  0  0
   -9.9503    1.4433   11.4765 N   0  0  0  0  0  0  0  0  0  0  0  0
    2.4516   -3.0139   -9.1445 H   0  0  0  0  0  0  0  0  0  0  0  0
    6.2755    0.5652   -5.6277 H   0  0  0  0  0  0  0  0  0  0  0  0
    6.8004    0.4869  -10.7065 H   0  0  0  0  0  0  0  0  0  0  0  0
    8.6258    3.0444   -9.1744 H   0  0  0  0  0  0  0  0  0  0  0  0
   10.5710    1.5511   -9.9796 H   0  0  0  0  0  0  0  0  0  0  0  0
   10.1558   -0.9667   -9.2329 H   0  0  0  0  0  0  0  0  0  0  0  0
    9.9068   -1.0233   -6.6396 H   0  0  0  0  0  0  0  0  0  0  0  0
   10.1924    1.4604   -5.7280 H   0  0  0  0  0  0  0  0  0  0  0  0
   10.9759    2.9976   -7.7651 H   0  0  0  0  0  0  0  0  0  0  0  0
   11.9363    1.4481   -7.7110 H   0  0  0  0  0  0  0  0  0  0  0  0
    8.4524    3.0296   -6.8188 H   0  0  0  0  0  0  0  0  0  0  0  0
   -4.9423   -1.7755   -3.2062 H   0  0  0  0  0  0  0  0  0  0  0  0
   -6.6264   -2.1285   -1.4309 H   0  0  0  0  0  0  0  0  0  0  0  0
   -7.4378   -5.3531    1.7282 H   0  0  0  0  0  0  0  0  0  0  0  0
   -7.3175   -5.0406   -0.0464 H   0  0  0  0  0  0  0  0  0  0  0  0
   -5.8557   -5.5542    0.8973 H   0  0  0  0  0  0  0  0  0  0  0  0
   -3.6154   -3.9062    1.0757 H   0  0  0  0  0  0  0  0  0  0  0  0
   -1.9468   -3.6060   -0.7012 H   0  0  0  0  0  0  0  0  0  0  0  0
   -2.8190   -1.0627   -5.3645 H   0  0  0  0  0  0  0  0  0  0  0  0
   -2.9867   -2.0975   -7.6045 H   0  0  0  0  0  0  0  0  0  0  0  0
   -0.7009   -3.5565   -8.8955 H   0  0  0  0  0  0  0  0  0  0  0  0
   -0.6569   -5.1524   -9.7398 H   0  0  0  0  0  0  0  0  0  0  0  0
   -0.3486   -5.0792   -7.9687 H   0  0  0  0  0  0  0  0  0  0  0  0
   -2.3364   -5.9828   -5.8643 H   0  0  0  0  0  0  0  0  0  0  0  0
   -2.1255   -4.9440   -3.6338 H   0  0  0  0  0  0  0  0  0  0  0  0
    3.0546    0.6660    3.1494 H   0  0  0  0  0  0  0  0  0  0  0  0
    4.2029    2.7898    3.6208 H   0  0  0  0  0  0  0  0  0  0  0  0
    6.8018    5.4033    1.2518 H   0  0  0  0  0  0  0  0  0  0  0  0
    6.4401    3.7380    1.8371 H   0  0  0  0  0  0  0  0  0  0  0  0
    5.8168    4.2950    0.2247 H   0  0  0  0  0  0  0  0  0  0  0  0
    2.8344    4.3748   -0.1365 H   0  0  0  0  0  0  0  0  0  0  0  0
    1.6753    2.2574   -0.6191 H   0  0  0  0  0  0  0  0  0  0  0  0
    4.3636   -0.4199    0.5806 H   0  0  0  0  0  0  0  0  0  0  0  0
    5.5834   -2.5106    1.0349 H   0  0  0  0  0  0  0  0  0  0  0  0
    5.5428   -3.7447    3.8290 H   0  0  0  0  0  0  0  0  0  0  0  0
    5.6353   -5.5092    4.1955 H   0  0  0  0  0  0  0  0  0  0  0  0
    4.0422   -4.6559    4.2804 H   0  0  0  0  0  0  0  0  0  0  0  0
    1.9134   -4.3974    2.2493 H   0  0  0  0  0  0  0  0  0  0  0  0
    0.6904   -2.2989    1.8340 H   0  0  0  0  0  0  0  0  0  0  0  0
    0.2288    0.3522    3.2745 H   0  0  0  0  0  0  0  0  0  0  0  0
    1.6665    1.9964    4.9037 H   0  0  0  0  0  0  0  0  0  0  0  0
    1.5167    0.7287    9.9109 H   0  0  0  0  0  0  0  0  0  0  0  0
    2.5998   -0.2145   10.9651 H   0  0  0  0  0  0  0  0  0  0  0  0
    4.6120    0.7565    9.7809 H   0  0  0  0  0  0  0  0  0  0  0  0
    3.4795    1.8012    8.8054 H   0  0  0  0  0  0  0  0  0  0  0  0
    3.5791    2.0043   10.5840 H   0  0  0  0  0  0  0  0  0  0  0  0
   -5.6170    7.4269    1.7181 H   0  0  0  0  0  0  0  0  0  0  0  0
   -7.1886    8.0800    1.1403 H   0  0  0  0  0  0  0  0  0  0  0  0
   -5.9093    9.9189    2.0875 H   0  0  0  0  0  0  0  0  0  0  0  0
   -5.6065    9.0008    3.6226 H   0  0  0  0  0  0  0  0  0  0  0  0
   -7.2739    9.5693    3.2060 H   0  0  0  0  0  0  0  0  0  0  0  0
   -5.2775    2.3651    2.2491 H   0  0  0  0  0  0  0  0  0  0  0  0
   -5.2000    3.5736    6.4066 H   0  0  0  0  0  0  0  0  0  0  0  0
   -5.2040    3.3284    9.5659 H   0  0  0  0  0  0  0  0  0  0  0  0
   -8.9734   -2.2396    5.8556 H   0  0  0  0  0  0  0  0  0  0  0  0
   -9.8838    0.3957    9.1161 H   0  0  0  0  0  0  0  0  0  0  0  0
  1  2  2  3
  2  3  1  0
  3  4  2  0
  3  5  1  0
  5  6  2  0
  6  7  1  0
  7  8  2  0
  8  9  1  0
  9 10  2  0
 10 11  1  0
 11 12  2  3
 12 13  1  0
 13 14  3  0
 12 15  1  0
 15 16  3  0
  8 17  1  0
 17 18  1  0
 18 19  1  0
 19 20  2  0
 20 21  1  0
 21 22  1  0
 21 23  1  0
  1 24  1  0
 24 25  2  0
 25 26  1  0
 26 27  1  0
 27 28  2  0
 28 29  2  0
 26 30  2  0
 30 31  1  0
 31 32  2  0
 32 33  1  0
 33 34  1  0
 34 35  2  0
 30 36  1  0
 36 37  2  0
 37 38  1  0
 38 39  1  0
 39 40  2  0
 40 41  1  0
 41 42  2  0
 42 43  1  0
 43 44  1  0
 42 45  1  0
 45 46  2  0
 38 47  1  0
 47 48  2  0
 48 49  1  0
 49 50  2  0
 50 51  1  0
 51 52  1  0
 50 53  1  0
 53 54  2  0
 37 55  1  0
 55 56  1  0
 56 57  1  0
 57 58  2  0
 58 59  1  0
 59 60  1  0
 60 61  2  0
 61 62  1  0
 62 63  2  0
 63 64  1  0
 64 65  1  0
 63 66  1  0
 66 67  2  0
 59 68  1  0
 68 69  2  0
 69 70  1  0
 70 71  2  0
 71 72  1  0
 72 73  1  0
 71 74  1  0
 74 75  2  0
 58 76  1  0
 76 77  1  0
 57 78  1  0
 78 79  2  0
 79 80  1  0
 80 81  2  0
 81 82  1  0
 82 83  2  0
 83 84  1  0
 84 85  1  0
 84 86  2  0
 86 87  1  0
 87 88  1  0
 88 89  1  0
 86 90  1  0
 81 91  1  0
 91 92  2  0
 92 93  1  0
 93 94  1  0
 94 95  1  0
 95 96  1  0
 96 97  1  0
 97 98  1  0
 98 99  1  0
 96100  2  0
100101  1  0
100102  1  0
 93103  2  0
103104  1  0
 92105  1  0
105106  2  0
106107  1  0
106108  1  0
108109  2  3
109110  1  0
110111  2  0
110112  1  0
112113  2  0
113114  1  0
113115  1  0
115116  2  0
116117  1  0
116118  1  0
118119  2  0
119120  1  0
120121  2  3
121122  1  0
122123  3  0
121124  1  0
124125  3  0
 11  2  1  0
 23 17  1  0
 35 24  1  0
 77 36  1  0
104 78  1  0
120109  1  0
 10  5  1  0
 22 18  1  0
 29 25  1  0
 35 31  1  0
 46 39  1  0
 54 47  1  0
 76 55  2  0
103 80  1  0
119112  1  0
 23  7  1  0
 67 60  1  0
 75 68  1  0
 90 82  1  0
107 91  1  0
101 94  2  0
  1126  1  0
  6127  1  0
  9128  1  0
 17129  1  0
 18130  1  0
 19131  1  0
 20132  1  0
 21133  1  0
 22134  1  0
 22135  1  0
 23136  1  0
 40137  1  0
 41138  1  0
 44139  1  0
 44140  1  0
 44141  1  0
 45142  1  0
 46143  1  0
 48144  1  0
 49145  1  0
 52146  1  0
 52147  1  0
 52148  1  0
 53149  1  0
 54150  1  0
 61151  1  0
 62152  1  0
 65153  1  0
 65154  1  0
 65155  1  0
 66156  1  0
 67157  1  0
 69158  1  0
 70159  1  0
 73160  1  0
 73161  1  0
 73162  1  0
 74163  1  0
 75164  1  0
 79165  1  0
 83166  1  0
 88167  1  0
 88168  1  0
 89169  1  0
 89170  1  0
 89171  1  0
 98172  1  0
 98173  1  0
 99174  1  0
 99175  1  0
 99176  1  0
101177  1  0
105178  1  0
108179  1  0
115180  1  0
118181  1  0
M  END

