
     RDKit          3D

222247  0  0  0  0  0  0  0  0999 V2000
   11.0107   -0.5842   -0.3234 C   0  0  0  0  0  0  0  0  0  0  0  0
   11.2866   -1.6283    0.4795 C   0  0  0  0  0  0  0  0  0  0  0  0
   10.2876   -2.5154    1.0906 C   0  0  0  0  0  0  0  0  0  0  0  0
    9.1198   -2.2027    1.4481 O   0  0  0  0  0  0  0  0  0  0  0  0
   10.8558   -3.8448    1.1905 C   0  0  0  0  0  0  0  0  0  0  0  0
   10.1765   -5.0408    1.5146 C   0  0  0  0  0  0  0  0  0  0  0  0
   10.9273   -6.1797    1.3003 C   0  0  0  0  0  0  0  0  0  0  0  0
   12.2680   -6.1559    0.7923 C   0  0  0  0  0  0  0  0  0  0  0  0
   12.9506   -4.9857    0.5037 C   0  0  0  0  0  0  0  0  0  0  0  0
   12.2025   -3.7983    0.7441 C   0  0  0  0  0  0  0  0  0  0  0  0
   12.5620   -2.3890    0.4485 C   0  0  0  0  0  0  0  0  0  0  0  0
   13.8047   -1.8538    0.4006 C   0  0  0  0  0  0  0  0  0  0  0  0
   14.9949   -2.6636    0.4722 C   0  0  0  0  0  0  0  0  0  0  0  0
   15.9589   -3.3045    0.5260 N   0  0  0  0  0  0  0  0  0  0  0  0
   14.0069   -0.4243    0.4431 C   0  0  0  0  0  0  0  0  0  0  0  0
   14.1802    0.7187    0.4991 N   0  0  0  0  0  0  0  0  0  0  0  0
   12.2906   -7.6547    0.7449 C   0  0  0  0  0  0  0  0  0  0  0  0
   12.1435   -8.3024   -0.6644 C   0  0  0  0  0  0  0  0  0  0  0  0
   11.8026   -9.7544   -0.4208 C   0  0  0  0  0  0  0  0  0  0  0  0
   10.5537   -9.7722    0.0662 C   0  0  0  0  0  0  0  0  0  0  0  0
   10.0971   -8.3368    0.1280 C   0  0  0  0  0  0  0  0  0  0  0  0
   10.7784   -7.8186   -1.1297 C   0  0  0  0  0  0  0  0  0  0  0  0
   10.9217   -7.6776    1.2710 C   0  0  0  0  0  0  0  0  0  0  0  0
    9.6367   -0.1696   -0.6250 C   0  0  0  0  0  0  0  0  0  0  0  0
    8.7480    0.4390    0.2531 C   0  0  0  0  0  0  0  0  0  0  0  0
    7.5667    0.5356   -0.4635 C   0  0  0  0  0  0  0  0  0  0  0  0
    6.2820    0.9854   -0.0865 C   0  0  0  0  0  0  0  0  0  0  0  0
    5.9725    1.5640    1.2409 C   0  0  0  0  0  0  0  0  0  0  0  0
    6.8124    2.3711    2.0061 C   0  0  0  0  0  0  0  0  0  0  0  0
    6.2339    2.7908    3.2089 C   0  0  0  0  0  0  0  0  0  0  0  0
    6.8792    3.5803    4.1017 F   0  0  0  0  0  0  0  0  0  0  0  0
    4.9292    2.3465    3.3868 C   0  0  0  0  0  0  0  0  0  0  0  0
    4.0431    2.6367    4.5591 C   0  0  0  0  0  0  0  0  0  0  0  0
    4.3737    1.7207    5.7321 C   0  0  0  0  0  0  0  0  0  0  0  0
    4.5094    1.4022    2.0617 S   0  0  0  0  0  0  0  0  0  0  0  0
    5.2797    0.7924   -1.0545 C   0  0  0  0  0  0  0  0  0  0  0  0
    5.5284    0.2388   -2.3039 C   0  0  0  0  0  0  0  0  0  0  0  0
    6.8202   -0.1736   -2.6915 C   0  0  0  0  0  0  0  0  0  0  0  0
    7.1229   -0.7703   -4.0105 C   0  0  0  0  0  0  0  0  0  0  0  0
    8.3101   -1.9345   -4.3072 S   0  0  0  0  0  0  0  0  0  0  0  0
    8.0994   -1.9954   -5.9725 C   0  0  0  0  0  0  0  0  0  0  0  0
    8.8697   -2.8767   -6.9099 C   0  0  0  0  0  0  0  0  0  0  0  0
    8.3323   -4.3012   -6.8729 C   0  0  0  0  0  0  0  0  0  0  0  0
    7.0803   -1.1145   -6.3212 C   0  0  0  0  0  0  0  0  0  0  0  0
    6.5461   -0.4156   -5.2300 C   0  0  0  0  0  0  0  0  0  0  0  0
    6.6632   -0.9225   -7.5962 F   0  0  0  0  0  0  0  0  0  0  0  0
    7.8181   -0.0231   -1.7089 C   0  0  0  0  0  0  0  0  0  0  0  0
    9.0678   -0.4064   -1.7868 O   0  0  0  0  0  0  0  0  0  0  0  0
    4.3013    0.1421   -2.9397 C   0  0  0  0  0  0  0  0  0  0  0  0
    3.3980    0.6760   -2.0320 C   0  0  0  0  0  0  0  0  0  0  0  0
    4.0053    1.0596   -0.9289 O   0  0  0  0  0  0  0  0  0  0  0  0
    1.9503    0.7719   -2.1919 C   0  0  0  0  0  0  0  0  0  0  0  0
    1.0738   -0.1401   -1.5881 C   0  0  0  0  0  0  0  0  0  0  0  0
    1.4422   -1.4800   -1.2336 N   0  0  0  0  0  0  0  0  0  0  0  0
    1.2982   -1.9344    0.1270 C   0  0  0  0  0  0  0  0  0  0  0  0
    0.7571   -3.2021    0.4004 C   0  0  0  0  0  0  0  0  0  0  0  0
    0.6079   -3.6391    1.7172 C   0  0  0  0  0  0  0  0  0  0  0  0
    1.0114   -2.8217    2.7770 C   0  0  0  0  0  0  0  0  0  0  0  0
    0.8619   -3.4045    4.4624 S   0  0  0  0  0  0  0  0  0  0  0  0
    2.5177   -4.1603    4.4665 C   0  0  0  0  0  0  0  0  0  0  0  0
    1.5411   -1.5510    2.5157 C   0  0  0  0  0  0  0  0  0  0  0  0
    1.6792   -1.1064    1.1958 C   0  0  0  0  0  0  0  0  0  0  0  0
    1.8019   -2.4005   -2.2830 C   0  0  0  0  0  0  0  0  0  0  0  0
    2.8630   -3.2997   -2.0996 C   0  0  0  0  0  0  0  0  0  0  0  0
    3.1306   -4.2795   -3.0609 C   0  0  0  0  0  0  0  0  0  0  0  0
    2.3393   -4.3702   -4.2116 C   0  0  0  0  0  0  0  0  0  0  0  0
    2.5831   -5.7175   -5.3714 S   0  0  0  0  0  0  0  0  0  0  0  0
    1.3544   -6.7846   -4.5468 C   0  0  0  0  0  0  0  0  0  0  0  0
    1.3217   -3.4347   -4.4313 C   0  0  0  0  0  0  0  0  0  0  0  0
    1.0539   -2.4520   -3.4727 C   0  0  0  0  0  0  0  0  0  0  0  0
   -0.1494    0.4491   -1.2715 C   0  0  0  0  0  0  0  0  0  0  0  0
   -1.4321    0.0199   -0.2837 S   0  0  0  0  0  0  0  0  0  0  0  0
   -2.1786    1.5522   -0.3405 C   0  0  0  0  0  0  0  0  0  0  0  0
   -1.3936    2.4117   -1.1370 C   0  0  0  0  0  0  0  0  0  0  0  0
   -1.5692    3.8353   -1.2645 N   0  0  0  0  0  0  0  0  0  0  0  0
   -0.4702    4.6588   -0.8197 C   0  0  0  0  0  0  0  0  0  0  0  0
    0.1225    4.4102    0.4307 C   0  0  0  0  0  0  0  0  0  0  0  0
    1.3679    4.9575    0.7452 C   0  0  0  0  0  0  0  0  0  0  0  0
    2.0353    5.7593   -0.1844 C   0  0  0  0  0  0  0  0  0  0  0  0
    3.7115    6.3025    0.1525 S   0  0  0  0  0  0  0  0  0  0  0  0
    4.4717    4.8403   -0.6272 C   0  0  0  0  0  0  0  0  0  0  0  0
    1.4188    6.0788   -1.4005 C   0  0  0  0  0  0  0  0  0  0  0  0
    0.1723    5.5296   -1.7184 C   0  0  0  0  0  0  0  0  0  0  0  0
   -2.6185    4.3554   -2.1158 C   0  0  0  0  0  0  0  0  0  0  0  0
   -3.2659    3.5265   -3.0589 C   0  0  0  0  0  0  0  0  0  0  0  0
   -4.3650    3.9922   -3.7795 C   0  0  0  0  0  0  0  0  0  0  0  0
   -4.8125    5.3078   -3.6100 C   0  0  0  0  0  0  0  0  0  0  0  0
   -6.2862    5.8786   -4.4622 S   0  0  0  0  0  0  0  0  0  0  0  0
   -5.4234    6.1783   -6.0379 C   0  0  0  0  0  0  0  0  0  0  0  0
   -4.1447    6.1553   -2.7194 C   0  0  0  0  0  0  0  0  0  0  0  0
   -3.0653    5.6804   -1.9686 C   0  0  0  0  0  0  0  0  0  0  0  0
   -0.2659    1.7497   -1.6225 C   0  0  0  0  0  0  0  0  0  0  0  0
    1.1724    2.2752   -2.3110 S   0  0  0  0  0  0  0  0  0  0  0  0
   -3.3109    1.9046    0.5340 C   0  0  0  0  0  0  0  0  0  0  0  0
   -4.3331    2.8079    0.2659 C   0  0  0  0  0  0  0  0  0  0  0  0
   -5.1920    2.6975    1.3398 C   0  0  0  0  0  0  0  0  0  0  0  0
   -6.4698    3.2436    1.5417 C   0  0  0  0  0  0  0  0  0  0  0  0
   -7.0243    4.3148    0.6864 C   0  0  0  0  0  0  0  0  0  0  0  0
   -6.3046    5.4016    0.1921 C   0  0  0  0  0  0  0  0  0  0  0  0
   -7.1034    6.3405   -0.4667 C   0  0  0  0  0  0  0  0  0  0  0  0
   -6.6159    7.5054   -0.9639 F   0  0  0  0  0  0  0  0  0  0  0  0
   -8.4471    5.9956   -0.5130 C   0  0  0  0  0  0  0  0  0  0  0  0
   -9.5567    6.8508   -1.0445 C   0  0  0  0  0  0  0  0  0  0  0  0
  -10.1040    7.7703    0.0401 C   0  0  0  0  0  0  0  0  0  0  0  0
   -8.6528    4.5415    0.3129 S   0  0  0  0  0  0  0  0  0  0  0  0
   -7.1695    2.7300    2.6444 C   0  0  0  0  0  0  0  0  0  0  0  0
   -6.5890    1.8673    3.5698 C   0  0  0  0  0  0  0  0  0  0  0  0
   -5.2752    1.3496    3.3962 C   0  0  0  0  0  0  0  0  0  0  0  0
   -4.6092    0.4105    4.3466 C   0  0  0  0  0  0  0  0  0  0  0  0
   -5.3445   -0.4463    5.6083 S   0  0  0  0  0  0  0  0  0  0  0  0
   -3.9683   -1.2105    6.1789 C   0  0  0  0  0  0  0  0  0  0  0  0
   -3.9227   -2.1929    7.3045 C   0  0  0  0  0  0  0  0  0  0  0  0
   -4.1766   -3.6066    6.7995 C   0  0  0  0  0  0  0  0  0  0  0  0
   -2.9040   -0.8352    5.3703 C   0  0  0  0  0  0  0  0  0  0  0  0
   -3.2491    0.0754    4.3675 C   0  0  0  0  0  0  0  0  0  0  0  0
   -1.6424   -1.3153    5.5266 F   0  0  0  0  0  0  0  0  0  0  0  0
   -4.6392    1.7623    2.1988 C   0  0  0  0  0  0  0  0  0  0  0  0
   -3.5207    1.3073    1.6903 O   0  0  0  0  0  0  0  0  0  0  0  0
   -7.5711    1.6246    4.5156 C   0  0  0  0  0  0  0  0  0  0  0  0
   -8.7022    2.2657    4.0325 C   0  0  0  0  0  0  0  0  0  0  0  0
   -8.4255    2.9485    2.9427 O   0  0  0  0  0  0  0  0  0  0  0  0
  -10.0650    2.1392    4.5682 C   0  0  0  0  0  0  0  0  0  0  0  0
  -11.0274    1.5193    3.8606 C   0  0  0  0  0  0  0  0  0  0  0  0
  -12.4260    1.9528    3.8659 C   0  0  0  0  0  0  0  0  0  0  0  0
  -13.0011    2.5834    4.7920 O   0  0  0  0  0  0  0  0  0  0  0  0
  -12.9993    1.6449    2.5640 C   0  0  0  0  0  0  0  0  0  0  0  0
  -14.2508    2.0582    2.0532 C   0  0  0  0  0  0  0  0  0  0  0  0
  -14.4284    1.7650    0.7105 C   0  0  0  0  0  0  0  0  0  0  0  0
  -13.4384    1.0988   -0.0834 C   0  0  0  0  0  0  0  0  0  0  0  0
  -12.2152    0.6831    0.4112 C   0  0  0  0  0  0  0  0  0  0  0  0
  -12.0237    0.9643    1.7888 C   0  0  0  0  0  0  0  0  0  0  0  0
  -10.8346    0.7088    2.6280 C   0  0  0  0  0  0  0  0  0  0  0  0
  -10.0148   -0.3631    2.5225 C   0  0  0  0  0  0  0  0  0  0  0  0
   -9.2801   -0.8651    3.6567 C   0  0  0  0  0  0  0  0  0  0  0  0
   -8.6990   -1.2970    4.5609 N   0  0  0  0  0  0  0  0  0  0  0  0
   -9.9976   -1.2023    1.3483 C   0  0  0  0  0  0  0  0  0  0  0  0
   -9.9800   -1.8907    0.4181 N   0  0  0  0  0  0  0  0  0  0  0  0
  -14.2907    1.2471   -1.3053 C   0  0  0  0  0  0  0  0  0  0  0  0
  -13.8772    2.3314   -2.3477 C   0  0  0  0  0  0  0  0  0  0  0  0
  -13.1991    3.4894   -1.6526 C   0  0  0  0  0  0  0  0  0  0  0  0
  -14.1345    4.0952   -0.9218 C   0  0  0  0  0  0  0  0  0  0  0  0
  -15.4179    3.3312   -1.1436 C   0  0  0  0  0  0  0  0  0  0  0  0
  -15.2292    2.9680   -2.6064 C   0  0  0  0  0  0  0  0  0  0  0  0
  -15.3128    1.9168   -0.4961 C   0  0  0  0  0  0  0  0  0  0  0  0
   11.7844   -0.2146   -0.9792 H   0  0  0  0  0  0  0  0  0  0  0  0
    9.1367   -5.0703    1.8154 H   0  0  0  0  0  0  0  0  0  0  0  0
   13.9352   -5.0049    0.0677 H   0  0  0  0  0  0  0  0  0  0  0  0
   13.0503   -8.1203    1.4128 H   0  0  0  0  0  0  0  0  0  0  0  0
   12.9836   -8.1209   -1.3704 H   0  0  0  0  0  0  0  0  0  0  0  0
   12.3877  -10.6244   -0.7056 H   0  0  0  0  0  0  0  0  0  0  0  0
    9.9561  -10.6588    0.2562 H   0  0  0  0  0  0  0  0  0  0  0  0
    8.9981   -8.1879    0.1768 H   0  0  0  0  0  0  0  0  0  0  0  0
   10.4254   -8.3239   -2.0613 H   0  0  0  0  0  0  0  0  0  0  0  0
   10.7128   -6.7166   -1.2726 H   0  0  0  0  0  0  0  0  0  0  0  0
   10.8135   -8.1414    2.2754 H   0  0  0  0  0  0  0  0  0  0  0  0
    8.9282    0.6966    1.2907 H   0  0  0  0  0  0  0  0  0  0  0  0
    7.8034    2.6770    1.7019 H   0  0  0  0  0  0  0  0  0  0  0  0
    4.1791    3.6939    4.8646 H   0  0  0  0  0  0  0  0  0  0  0  0
    2.9824    2.4906    4.2636 H   0  0  0  0  0  0  0  0  0  0  0  0
    5.4110    1.9016    6.0875 H   0  0  0  0  0  0  0  0  0  0  0  0
    4.2620    0.6554    5.4376 H   0  0  0  0  0  0  0  0  0  0  0  0
    3.6698    1.9285    6.5677 H   0  0  0  0  0  0  0  0  0  0  0  0
    9.9389   -2.8740   -6.6121 H   0  0  0  0  0  0  0  0  0  0  0  0
    8.7964   -2.4797   -7.9457 H   0  0  0  0  0  0  0  0  0  0  0  0
    8.4053   -4.7176   -5.8450 H   0  0  0  0  0  0  0  0  0  0  0  0
    7.2706   -4.3200   -7.2036 H   0  0  0  0  0  0  0  0  0  0  0  0
    8.9349   -4.9384   -7.5565 H   0  0  0  0  0  0  0  0  0  0  0  0
    5.7966    0.3522   -5.3418 H   0  0  0  0  0  0  0  0  0  0  0  0
    4.0748   -0.2957   -3.9021 H   0  0  0  0  0  0  0  0  0  0  0  0
    0.4406   -3.8523   -0.4067 H   0  0  0  0  0  0  0  0  0  0  0  0
    0.1846   -4.6157    1.9138 H   0  0  0  0  0  0  0  0  0  0  0  0
    2.6942   -4.6413    5.4503 H   0  0  0  0  0  0  0  0  0  0  0  0
    3.2955   -3.3867    4.2976 H   0  0  0  0  0  0  0  0  0  0  0  0
    2.5865   -4.9332    3.6710 H   0  0  0  0  0  0  0  0  0  0  0  0
    1.8488   -0.9114    3.3326 H   0  0  0  0  0  0  0  0  0  0  0  0
    2.0860   -0.1220    1.0028 H   0  0  0  0  0  0  0  0  0  0  0  0
    3.4613   -3.2593   -1.1988 H   0  0  0  0  0  0  0  0  0  0  0  0
    3.9315   -4.9891   -2.8924 H   0  0  0  0  0  0  0  0  0  0  0  0
    1.6553   -6.9718   -3.4936 H   0  0  0  0  0  0  0  0  0  0  0  0
    1.2915   -7.7538   -5.0826 H   0  0  0  0  0  0  0  0  0  0  0  0
    0.3525   -6.3032   -4.5606 H   0  0  0  0  0  0  0  0  0  0  0  0
    0.7087   -3.4981   -5.3237 H   0  0  0  0  0  0  0  0  0  0  0  0
    0.2277   -1.7697   -3.6347 H   0  0  0  0  0  0  0  0  0  0  0  0
   -0.3485    3.7281    1.1253 H   0  0  0  0  0  0  0  0  0  0  0  0
    1.8411    4.7017    1.6831 H   0  0  0  0  0  0  0  0  0  0  0  0
    3.9542    3.9110   -0.3112 H   0  0  0  0  0  0  0  0  0  0  0  0
    4.4178    4.9369   -1.7312 H   0  0  0  0  0  0  0  0  0  0  0  0
    5.5375    4.7701   -0.3231 H   0  0  0  0  0  0  0  0  0  0  0  0
    1.9339    6.6975   -2.1255 H   0  0  0  0  0  0  0  0  0  0  0  0
   -0.2470    5.7117   -2.7007 H   0  0  0  0  0  0  0  0  0  0  0  0
   -2.9481    2.5027   -3.2138 H   0  0  0  0  0  0  0  0  0  0  0  0
   -4.8765    3.3277   -4.4680 H   0  0  0  0  0  0  0  0  0  0  0  0
   -6.1357    6.6274   -6.7614 H   0  0  0  0  0  0  0  0  0  0  0  0
   -4.5741    6.8769   -5.8861 H   0  0  0  0  0  0  0  0  0  0  0  0
   -5.0530    5.2182   -6.4545 H   0  0  0  0  0  0  0  0  0  0  0  0
   -4.4866    7.1729   -2.5783 H   0  0  0  0  0  0  0  0  0  0  0  0
   -2.6006    6.3367   -1.2458 H   0  0  0  0  0  0  0  0  0  0  0  0
   -4.5069    3.3695   -0.6367 H   0  0  0  0  0  0  0  0  0  0  0  0
   -5.2434    5.5457    0.3546 H   0  0  0  0  0  0  0  0  0  0  0  0
   -9.1802    7.4678   -1.8907 H   0  0  0  0  0  0  0  0  0  0  0  0
  -10.3748    6.2038   -1.4290 H   0  0  0  0  0  0  0  0  0  0  0  0
  -10.5151    7.1747    0.8838 H   0  0  0  0  0  0  0  0  0  0  0  0
  -10.9140    8.4048   -0.3775 H   0  0  0  0  0  0  0  0  0  0  0  0
   -9.2998    8.4358    0.4222 H   0  0  0  0  0  0  0  0  0  0  0  0
   -2.9254   -2.1528    7.7926 H   0  0  0  0  0  0  0  0  0  0  0  0
   -4.6890   -1.9238    8.0633 H   0  0  0  0  0  0  0  0  0  0  0  0
   -4.0355   -4.3297    7.6294 H   0  0  0  0  0  0  0  0  0  0  0  0
   -3.4678   -3.8605    5.9788 H   0  0  0  0  0  0  0  0  0  0  0  0
   -5.2150   -3.6999    6.4206 H   0  0  0  0  0  0  0  0  0  0  0  0
   -2.5078    0.4741    3.6894 H   0  0  0  0  0  0  0  0  0  0  0  0
   -7.5367    1.0035    5.3922 H   0  0  0  0  0  0  0  0  0  0  0  0
  -10.3398    2.7898    5.3901 H   0  0  0  0  0  0  0  0  0  0  0  0
  -14.9736    2.6160    2.6321 H   0  0  0  0  0  0  0  0  0  0  0  0
  -11.4646    0.2530   -0.2314 H   0  0  0  0  0  0  0  0  0  0  0  0
  -14.6261    0.2789   -1.7424 H   0  0  0  0  0  0  0  0  0  0  0  0
  -13.3523    1.9452   -3.2494 H   0  0  0  0  0  0  0  0  0  0  0  0
  -12.1689    3.8151   -1.7699 H   0  0  0  0  0  0  0  0  0  0  0  0
  -13.9974    4.9937   -0.3312 H   0  0  0  0  0  0  0  0  0  0  0  0
  -16.3442    3.8900   -0.9039 H   0  0  0  0  0  0  0  0  0  0  0  0
  -15.9943    2.2500   -2.9901 H   0  0  0  0  0  0  0  0  0  0  0  0
  -15.1777    3.8567   -3.2768 H   0  0  0  0  0  0  0  0  0  0  0  0
  -16.2740    1.3534   -0.4310 H   0  0  0  0  0  0  0  0  0  0  0  0
  1  2  2  3
  2  3  1  0
  3  4  2  0
  3  5  1  0
  5  6  2  0
  6  7  1  0
  7  8  2  0
  8  9  1  0
  9 10  2  0
 10 11  1  0
 11 12  2  3
 12 13  1  0
 13 14  3  0
 12 15  1  0
 15 16  3  0
  8 17  1  0
 17 18  1  0
 18 19  1  0
 19 20  2  0
 20 21  1  0
 21 22  1  0
 21 23  1  0
  1 24  1  0
 24 25  2  0
 25 26  1  0
 26 27  2  0
 27 28  1  0
 28 29  2  0
 29 30  1  0
 30 31  1  0
 30 32  2  0
 32 33  1  0
 33 34  1  0
 32 35  1  0
 27 36  1  0
 36 37  2  0
 37 38  1  0
 38 39  1  0
 39 40  1  0
 40 41  1  0
 41 42  1  0
 42 43  1  0
 41 44  2  0
 44 45  1  0
 44 46  1  0
 38 47  2  0
 47 48  1  0
 37 49  1  0
 49 50  2  0
 50 51  1  0
 50 52  1  0
 52 53  2  0
 53 54  1  0
 54 55  1  0
 55 56  2  0
 56 57  1  0
 57 58  2  0
 58 59  1  0
 59 60  1  0
 58 61  1  0
 61 62  2  0
 54 63  1  0
 63 64  2  0
 64 65  1  0
 65 66  2  0
 66 67  1  0
 67 68  1  0
 66 69  1  0
 69 70  2  0
 53 71  1  0
 71 72  1  0
 72 73  1  0
 73 74  2  0
 74 75  1  0
 75 76  1  0
 76 77  2  0
 77 78  1  0
 78 79  2  0
 79 80  1  0
 80 81  1  0
 79 82  1  0
 82 83  2  0
 75 84  1  0
 84 85  2  0
 85 86  1  0
 86 87  2  0
 87 88  1  0
 88 89  1  0
 87 90  1  0
 90 91  2  0
 74 92  1  0
 92 93  1  0
 73 94  1  0
 94 95  2  0
 95 96  1  0
 96 97  2  0
 97 98  1  0
 98 99  2  0
 99100  1  0
100101  1  0
100102  2  0
102103  1  0
103104  1  0
102105  1  0
 97106  1  0
106107  2  0
107108  1  0
108109  1  0
109110  1  0
110111  1  0
111112  1  0
112113  1  0
111114  2  0
114115  1  0
114116  1  0
108117  2  0
117118  1  0
107119  1  0
119120  2  0
120121  1  0
120122  1  0
122123  2  3
123124  1  0
124125  2  0
124126  1  0
126127  2  0
127128  1  0
128129  2  0
129130  1  0
130131  2  0
131132  1  0
132133  2  3
133134  1  0
134135  3  0
133136  1  0
136137  3  0
129138  1  0
138139  1  0
139140  1  0
140141  2  0
141142  1  0
142143  1  0
142144  1  0
 11  2  1  0
 23 17  1  0
 48 24  1  0
 93 52  1  0
118 94  1  0
132123  1  0
144138  1  0
 10  5  1  0
 22 18  1  0
 47 26  1  0
 62 55  1  0
 70 63  1  0
 92 71  2  0
117 96  1  0
131126  1  0
143139  1  0
 23  7  1  0
 35 28  1  0
 51 36  1  0
 83 76  1  0
 91 84  1  0
105 98  1  0
121106  1  0
144128  1  0
 45 39  2  0
115109  2  0
  1145  1  0
  6146  1  0
  9147  1  0
 17148  1  0
 18149  1  0
 19150  1  0
 20151  1  0
 21152  1  0
 22153  1  0
 22154  1  0
 23155  1  0
 25156  1  0
 29157  1  0
 33158  1  0
 33159  1  0
 34160  1  0
 34161  1  0
 34162  1  0
 42163  1  0
 42164  1  0
 43165  1  0
 43166  1  0
 43167  1  0
 45168  1  0
 49169  1  0
 56170  1  0
 57171  1  0
 60172  1  0
 60173  1  0
 60174  1  0
 61175  1  0
 62176  1  0
 64177  1  0
 65178  1  0
 68179  1  0
 68180  1  0
 68181  1  0
 69182  1  0
 70183  1  0
 77184  1  0
 78185  1  0
 81186  1  0
 81187  1  0
 81188  1  0
 82189  1  0
 83190  1  0
 85191  1  0
 86192  1  0
 89193  1  0
 89194  1  0
 89195  1  0
 90196  1  0
 91197  1  0
 95198  1  0
 99199  1  0
103200  1  0
103201  1  0
104202  1  0
104203  1  0
104204  1  0
112205  1  0
112206  1  0
113207  1  0
113208  1  0
113209  1  0
115210  1  0
119211  1  0
122212  1  0
127213  1  0
130214  1  0
138215  1  0
139216  1  0
140217  1  0
141218  1  0
142219  1  0
143220  1  0
143221  1  0
144222  1  0
M  END

