
     RDKit          3D

206229  0  0  0  0  0  0  0  0999 V2000
    6.2906   -4.2185   -2.8561 C   0  0  0  0  0  0  0  0  0  0  0  0
    6.9290   -4.5734   -1.7233 C   0  0  0  0  0  0  0  0  0  0  0  0
    6.2793   -5.1690   -0.5451 C   0  0  0  0  0  0  0  0  0  0  0  0
    5.0802   -5.5499   -0.4658 O   0  0  0  0  0  0  0  0  0  0  0  0
    7.2764   -5.3939    0.4747 C   0  0  0  0  0  0  0  0  0  0  0  0
    7.0467   -5.8275    1.8018 C   0  0  0  0  0  0  0  0  0  0  0  0
    8.1682   -5.7869    2.6030 C   0  0  0  0  0  0  0  0  0  0  0  0
    9.4504   -5.3492    2.1385 C   0  0  0  0  0  0  0  0  0  0  0  0
    9.6886   -4.9435    0.8365 C   0  0  0  0  0  0  0  0  0  0  0  0
    8.5481   -5.0035   -0.0210 C   0  0  0  0  0  0  0  0  0  0  0  0
    8.3978   -4.5269   -1.4290 C   0  0  0  0  0  0  0  0  0  0  0  0
    9.3915   -4.0435   -2.2227 C   0  0  0  0  0  0  0  0  0  0  0  0
    9.1262   -3.2433   -3.3876 C   0  0  0  0  0  0  0  0  0  0  0  0
    8.9196   -2.5839   -4.3167 N   0  0  0  0  0  0  0  0  0  0  0  0
   10.7873   -4.2562   -1.9397 C   0  0  0  0  0  0  0  0  0  0  0  0
   11.9134   -4.4263   -1.7353 N   0  0  0  0  0  0  0  0  0  0  0  0
   10.0321   -5.5510    3.5025 C   0  0  0  0  0  0  0  0  0  0  0  0
   10.9479   -6.7912    3.6884 C   0  0  0  0  0  0  0  0  0  0  0  0
   11.0737   -6.9958    5.1771 C   0  0  0  0  0  0  0  0  0  0  0  0
    9.8794   -7.4242    5.6022 C   0  0  0  0  0  0  0  0  0  0  0  0
    8.9899   -7.4933    4.3869 C   0  0  0  0  0  0  0  0  0  0  0  0
   10.0206   -7.9523    3.3719 C   0  0  0  0  0  0  0  0  0  0  0  0
    8.7262   -6.0150    3.9759 C   0  0  0  0  0  0  0  0  0  0  0  0
    4.8790   -3.7771   -2.8649 C   0  0  0  0  0  0  0  0  0  0  0  0
    4.0562   -3.6300   -4.0019 C   0  0  0  0  0  0  0  0  0  0  0  0
    4.4624   -3.9185   -5.3490 N   0  0  0  0  0  0  0  0  0  0  0  0
    5.4707   -3.0875   -5.9746 C   0  0  0  0  0  0  0  0  0  0  0  0
    5.6530   -1.7466   -5.5733 C   0  0  0  0  0  0  0  0  0  0  0  0
    6.6125   -0.9426   -6.1960 C   0  0  0  0  0  0  0  0  0  0  0  0
    7.3875   -1.4583   -7.2390 C   0  0  0  0  0  0  0  0  0  0  0  0
    8.5619   -0.4009   -8.0880 S   0  0  0  0  0  0  0  0  0  0  0  0
    9.9656   -0.9015   -7.0477 C   0  0  0  0  0  0  0  0  0  0  0  0
    7.2317   -2.7918   -7.6306 C   0  0  0  0  0  0  0  0  0  0  0  0
    6.2882   -3.6054   -6.9946 C   0  0  0  0  0  0  0  0  0  0  0  0
    3.6641   -4.8576   -6.1033 C   0  0  0  0  0  0  0  0  0  0  0  0
    3.1228   -5.9914   -5.4676 C   0  0  0  0  0  0  0  0  0  0  0  0
    2.2825   -6.8625   -6.1626 C   0  0  0  0  0  0  0  0  0  0  0  0
    1.9555   -6.6085   -7.4986 C   0  0  0  0  0  0  0  0  0  0  0  0
    0.8556   -7.7100   -8.3840 S   0  0  0  0  0  0  0  0  0  0  0  0
   -0.6366   -6.7668   -7.9470 C   0  0  0  0  0  0  0  0  0  0  0  0
    2.4947   -5.4912   -8.1438 C   0  0  0  0  0  0  0  0  0  0  0  0
    3.3256   -4.6059   -7.4470 C   0  0  0  0  0  0  0  0  0  0  0  0
    2.8946   -2.9122   -3.7094 C   0  0  0  0  0  0  0  0  0  0  0  0
    1.7385   -2.1360   -4.6597 S   0  0  0  0  0  0  0  0  0  0  0  0
    1.1349   -1.1889   -3.3770 C   0  0  0  0  0  0  0  0  0  0  0  0
    1.8671   -1.4722   -2.2151 C   0  0  0  0  0  0  0  0  0  0  0  0
    1.8399   -0.6715   -1.0223 N   0  0  0  0  0  0  0  0  0  0  0  0
    0.7635   -0.8597   -0.0814 C   0  0  0  0  0  0  0  0  0  0  0  0
    0.2243   -2.1410    0.1356 C   0  0  0  0  0  0  0  0  0  0  0  0
   -0.7720   -2.3383    1.0931 C   0  0  0  0  0  0  0  0  0  0  0  0
   -1.2523   -1.2563    1.8368 C   0  0  0  0  0  0  0  0  0  0  0  0
   -2.5103   -1.5214    3.0890 S   0  0  0  0  0  0  0  0  0  0  0  0
   -3.8854   -1.3379    1.9118 C   0  0  0  0  0  0  0  0  0  0  0  0
   -0.7408    0.0275    1.6121 C   0  0  0  0  0  0  0  0  0  0  0  0
    0.2637    0.2255    0.6582 C   0  0  0  0  0  0  0  0  0  0  0  0
    3.0415    0.0535   -0.6675 C   0  0  0  0  0  0  0  0  0  0  0  0
    3.8309    0.6473   -1.6731 C   0  0  0  0  0  0  0  0  0  0  0  0
    5.0879    1.1734   -1.3748 C   0  0  0  0  0  0  0  0  0  0  0  0
    5.5852    1.0997   -0.0735 C   0  0  0  0  0  0  0  0  0  0  0  0
    7.2698    1.6183    0.2617 S   0  0  0  0  0  0  0  0  0  0  0  0
    7.9628   -0.0355   -0.0791 C   0  0  0  0  0  0  0  0  0  0  0  0
    4.7903    0.5669    0.9482 C   0  0  0  0  0  0  0  0  0  0  0  0
    3.5258    0.0436    0.6535 C   0  0  0  0  0  0  0  0  0  0  0  0
    2.8200   -2.4528   -2.4391 C   0  0  0  0  0  0  0  0  0  0  0  0
    4.1671   -2.9286   -1.5748 S   0  0  0  0  0  0  0  0  0  0  0  0
    0.2794   -0.0105   -3.5464 C   0  0  0  0  0  0  0  0  0  0  0  0
   -1.0637   -0.0213   -3.9124 C   0  0  0  0  0  0  0  0  0  0  0  0
   -1.6764    1.2365   -3.7590 C   0  0  0  0  0  0  0  0  0  0  0  0
   -3.0547    1.5186   -3.8847 C   0  0  0  0  0  0  0  0  0  0  0  0
   -4.0182    0.5044   -4.3581 C   0  0  0  0  0  0  0  0  0  0  0  0
   -5.3147   -0.0850   -3.4611 S   0  0  0  0  0  0  0  0  0  0  0  0
   -5.8677   -1.1673   -4.6243 C   0  0  0  0  0  0  0  0  0  0  0  0
   -7.0717   -2.0509   -4.4590 C   0  0  0  0  0  0  0  0  0  0  0  0
   -8.3334   -1.2180   -4.2330 C   0  0  0  0  0  0  0  0  0  0  0  0
   -5.0324   -1.0843   -5.7404 C   0  0  0  0  0  0  0  0  0  0  0  0
   -5.2453   -2.0495   -7.1946 Cl  0  0  0  0  0  0  0  0  0  0  0  0
   -3.9970   -0.1494   -5.5902 C   0  0  0  0  0  0  0  0  0  0  0  0
   -2.8196    0.1962   -6.8542 Cl  0  0  0  0  0  0  0  0  0  0  0  0
   -3.4814    2.7893   -3.4421 C   0  0  0  0  0  0  0  0  0  0  0  0
   -2.5908    3.7593   -2.9690 C   0  0  0  0  0  0  0  0  0  0  0  0
   -1.2130    3.4957   -2.9056 C   0  0  0  0  0  0  0  0  0  0  0  0
   -0.2585    4.4581   -2.3252 C   0  0  0  0  0  0  0  0  0  0  0  0
   -0.2445    4.9339   -0.7097 S   0  0  0  0  0  0  0  0  0  0  0  0
    1.1123    5.9258   -0.8255 C   0  0  0  0  0  0  0  0  0  0  0  0
    1.7501    6.6344    0.3287 C   0  0  0  0  0  0  0  0  0  0  0  0
    2.8602    5.7903    0.9360 C   0  0  0  0  0  0  0  0  0  0  0  0
    1.5892    5.8706   -2.1345 C   0  0  0  0  0  0  0  0  0  0  0  0
    0.8249    5.0478   -2.9723 C   0  0  0  0  0  0  0  0  0  0  0  0
    1.1894    4.7841   -4.6756 Cl  0  0  0  0  0  0  0  0  0  0  0  0
    3.0283    6.7261   -2.6771 Cl  0  0  0  0  0  0  0  0  0  0  0  0
   -0.7947    2.2193   -3.2961 C   0  0  0  0  0  0  0  0  0  0  0  0
    0.7155    1.5380   -3.0560 S   0  0  0  0  0  0  0  0  0  0  0  0
   -3.2293    4.8994   -2.4609 C   0  0  0  0  0  0  0  0  0  0  0  0
   -4.6208    4.8081   -2.4699 C   0  0  0  0  0  0  0  0  0  0  0  0
   -5.0552    3.3431   -3.1964 S   0  0  0  0  0  0  0  0  0  0  0  0
   -5.4906    5.5675   -1.5568 C   0  0  0  0  0  0  0  0  0  0  0  0
   -5.0141    5.8360   -0.2561 C   0  0  0  0  0  0  0  0  0  0  0  0
   -5.8916    6.3782    0.6803 C   0  0  0  0  0  0  0  0  0  0  0  0
   -5.6700    6.5446    2.0067 N   0  0  0  0  0  0  0  0  0  0  0  0
   -4.4324    6.2454    2.7389 C   0  0  0  0  0  0  0  0  0  0  0  0
   -3.4389    7.3945    2.5866 C   0  0  0  0  0  0  0  0  0  0  0  0
   -6.8567    6.9674    2.5089 C   0  0  0  0  0  0  0  0  0  0  0  0
   -7.8127    7.0702    1.5138 C   0  0  0  0  0  0  0  0  0  0  0  0
   -7.1920    6.6870    0.3430 C   0  0  0  0  0  0  0  0  0  0  0  0
   -7.6938    6.4546   -0.9390 C   0  0  0  0  0  0  0  0  0  0  0  0
   -6.8332    5.8775   -1.8939 C   0  0  0  0  0  0  0  0  0  0  0  0
   -9.1429    7.3935    1.7948 C   0  0  0  0  0  0  0  0  0  0  0  0
   -9.5031    7.5743    3.1442 C   0  0  0  0  0  0  0  0  0  0  0  0
   -8.5416    7.4144    4.1719 C   0  0  0  0  0  0  0  0  0  0  0  0
   -7.1957    7.1531    3.8491 C   0  0  0  0  0  0  0  0  0  0  0  0
   -8.9257    7.3810    5.5913 C   0  0  0  0  0  0  0  0  0  0  0  0
   -9.5208    6.3086    6.1487 C   0  0  0  0  0  0  0  0  0  0  0  0
   -9.9420    5.0953    5.4273 C   0  0  0  0  0  0  0  0  0  0  0  0
  -10.1930    5.0016    4.1965 O   0  0  0  0  0  0  0  0  0  0  0  0
   -9.9818    3.9900    6.3571 C   0  0  0  0  0  0  0  0  0  0  0  0
  -10.1578    2.6205    6.0434 C   0  0  0  0  0  0  0  0  0  0  0  0
   -9.9374    1.7702    7.1100 C   0  0  0  0  0  0  0  0  0  0  0  0
   -9.5398    2.2285    8.4058 C   0  0  0  0  0  0  0  0  0  0  0  0
   -9.3772    3.5680    8.7219 C   0  0  0  0  0  0  0  0  0  0  0  0
   -9.6506    4.4673    7.6507 C   0  0  0  0  0  0  0  0  0  0  0  0
   -9.4935    5.9483    7.5991 C   0  0  0  0  0  0  0  0  0  0  0  0
   -9.5090    6.7961    8.6593 C   0  0  0  0  0  0  0  0  0  0  0  0
   -9.6752    6.3344   10.0111 C   0  0  0  0  0  0  0  0  0  0  0  0
   -9.8190    5.9705   11.0997 N   0  0  0  0  0  0  0  0  0  0  0  0
   -9.4719    8.2298    8.5035 C   0  0  0  0  0  0  0  0  0  0  0  0
   -9.4239    9.3768    8.3903 N   0  0  0  0  0  0  0  0  0  0  0  0
   -9.4136    0.8117    8.8848 C   0  0  0  0  0  0  0  0  0  0  0  0
   -7.9830    0.2049    9.0321 C   0  0  0  0  0  0  0  0  0  0  0  0
   -7.0481    0.8290    8.0209 C   0  0  0  0  0  0  0  0  0  0  0  0
   -7.4407    0.3978    6.8230 C   0  0  0  0  0  0  0  0  0  0  0  0
   -8.6349   -0.4990    7.0552 C   0  0  0  0  0  0  0  0  0  0  0  0
   -8.2003   -1.1424    8.3605 C   0  0  0  0  0  0  0  0  0  0  0  0
   -9.8442    0.3410    7.5625 C   0  0  0  0  0  0  0  0  0  0  0  0
    6.8305   -4.0910   -3.7751 H   0  0  0  0  0  0  0  0  0  0  0  0
    6.0722   -6.1117    2.1683 H   0  0  0  0  0  0  0  0  0  0  0  0
   10.6568   -4.5646    0.5509 H   0  0  0  0  0  0  0  0  0  0  0  0
   10.3882   -4.6070    3.9764 H   0  0  0  0  0  0  0  0  0  0  0  0
   11.9075   -6.7688    3.1338 H   0  0  0  0  0  0  0  0  0  0  0  0
   11.9644   -6.9167    5.7873 H   0  0  0  0  0  0  0  0  0  0  0  0
    9.6351   -7.7492    6.6102 H   0  0  0  0  0  0  0  0  0  0  0  0
    8.0854   -8.1379    4.4889 H   0  0  0  0  0  0  0  0  0  0  0  0
    9.6525   -7.9664    2.3204 H   0  0  0  0  0  0  0  0  0  0  0  0
   10.4648   -8.9492    3.6060 H   0  0  0  0  0  0  0  0  0  0  0  0
    8.2524   -5.3747    4.7551 H   0  0  0  0  0  0  0  0  0  0  0  0
    5.0458   -1.3137   -4.7887 H   0  0  0  0  0  0  0  0  0  0  0  0
    6.7299    0.0892   -5.8819 H   0  0  0  0  0  0  0  0  0  0  0  0
   10.1282   -1.9946   -7.1278 H   0  0  0  0  0  0  0  0  0  0  0  0
   10.8793   -0.3773   -7.3869 H   0  0  0  0  0  0  0  0  0  0  0  0
    9.7689   -0.6243   -5.9931 H   0  0  0  0  0  0  0  0  0  0  0  0
    7.8333   -3.1989   -8.4334 H   0  0  0  0  0  0  0  0  0  0  0  0
    6.1892   -4.6394   -7.2957 H   0  0  0  0  0  0  0  0  0  0  0  0
    3.3530   -6.1953   -4.4300 H   0  0  0  0  0  0  0  0  0  0  0  0
    1.8652   -7.7218   -5.6551 H   0  0  0  0  0  0  0  0  0  0  0  0
   -0.7982   -6.7983   -6.8465 H   0  0  0  0  0  0  0  0  0  0  0  0
   -1.5119   -7.2188   -8.4563 H   0  0  0  0  0  0  0  0  0  0  0  0
   -0.5367   -5.7105   -8.2809 H   0  0  0  0  0  0  0  0  0  0  0  0
    2.2371   -5.2844   -9.1758 H   0  0  0  0  0  0  0  0  0  0  0  0
    3.6804   -3.7148   -7.9515 H   0  0  0  0  0  0  0  0  0  0  0  0
    0.5890   -2.9951   -0.4207 H   0  0  0  0  0  0  0  0  0  0  0  0
   -1.1641   -3.3319    1.2668 H   0  0  0  0  0  0  0  0  0  0  0  0
   -4.8436   -1.4510    2.4563 H   0  0  0  0  0  0  0  0  0  0  0  0
   -3.8565   -0.3303    1.4469 H   0  0  0  0  0  0  0  0  0  0  0  0
   -3.8248   -2.1162    1.1213 H   0  0  0  0  0  0  0  0  0  0  0  0
   -1.1109    0.8707    2.1837 H   0  0  0  0  0  0  0  0  0  0  0  0
    0.6577    1.2230    0.4985 H   0  0  0  0  0  0  0  0  0  0  0  0
    3.4973    0.6577   -2.7028 H   0  0  0  0  0  0  0  0  0  0  0  0
    5.6944    1.5902   -2.1697 H   0  0  0  0  0  0  0  0  0  0  0  0
    7.6038   -0.4226   -1.0585 H   0  0  0  0  0  0  0  0  0  0  0  0
    9.0692    0.0309   -0.1059 H   0  0  0  0  0  0  0  0  0  0  0  0
    7.6638   -0.7409    0.7227 H   0  0  0  0  0  0  0  0  0  0  0  0
    5.1722    0.5143    1.9591 H   0  0  0  0  0  0  0  0  0  0  0  0
    2.9590   -0.4329    1.4438 H   0  0  0  0  0  0  0  0  0  0  0  0
   -1.5904   -0.9269   -4.1871 H   0  0  0  0  0  0  0  0  0  0  0  0
   -7.2182   -2.6848   -5.3569 H   0  0  0  0  0  0  0  0  0  0  0  0
   -6.9098   -2.7185   -3.5868 H   0  0  0  0  0  0  0  0  0  0  0  0
   -9.2270   -1.8819   -4.2463 H   0  0  0  0  0  0  0  0  0  0  0  0
   -8.2878   -0.7081   -3.2471 H   0  0  0  0  0  0  0  0  0  0  0  0
   -8.4477   -0.4565   -5.0353 H   0  0  0  0  0  0  0  0  0  0  0  0
    2.1603    7.6111   -0.0051 H   0  0  0  0  0  0  0  0  0  0  0  0
    0.9774    6.8345    1.1048 H   0  0  0  0  0  0  0  0  0  0  0  0
    2.4591    4.8101    1.2747 H   0  0  0  0  0  0  0  0  0  0  0  0
    3.6671    5.6159    0.1881 H   0  0  0  0  0  0  0  0  0  0  0  0
    3.2984    6.3177    1.8070 H   0  0  0  0  0  0  0  0  0  0  0  0
   -2.7061    5.7187   -1.9966 H   0  0  0  0  0  0  0  0  0  0  0  0
   -4.0104    5.5522    0.0400 H   0  0  0  0  0  0  0  0  0  0  0  0
   -4.6333    6.0746    3.8189 H   0  0  0  0  0  0  0  0  0  0  0  0
   -3.9786    5.3080    2.3566 H   0  0  0  0  0  0  0  0  0  0  0  0
   -3.2017    7.5495    1.5133 H   0  0  0  0  0  0  0  0  0  0  0  0
   -2.5002    7.1502    3.1300 H   0  0  0  0  0  0  0  0  0  0  0  0
   -3.8706    8.3281    3.0024 H   0  0  0  0  0  0  0  0  0  0  0  0
   -8.7291    6.6657   -1.1811 H   0  0  0  0  0  0  0  0  0  0  0  0
   -7.2114    5.6493   -2.8824 H   0  0  0  0  0  0  0  0  0  0  0  0
   -9.8810    7.4541    1.0089 H   0  0  0  0  0  0  0  0  0  0  0  0
  -10.5355    7.7866    3.3929 H   0  0  0  0  0  0  0  0  0  0  0  0
   -6.4660    7.0318    4.6407 H   0  0  0  0  0  0  0  0  0  0  0  0
   -8.4240    8.1028    6.2164 H   0  0  0  0  0  0  0  0  0  0  0  0
  -10.3803    2.2633    5.0481 H   0  0  0  0  0  0  0  0  0  0  0  0
   -9.0041    3.8663    9.6897 H   0  0  0  0  0  0  0  0  0  0  0  0
  -10.1182    0.5486    9.7045 H   0  0  0  0  0  0  0  0  0  0  0  0
   -7.5888    0.1679   10.0715 H   0  0  0  0  0  0  0  0  0  0  0  0
   -6.1749    1.4433    8.2198 H   0  0  0  0  0  0  0  0  0  0  0  0
   -6.9495    0.6007    5.8776 H   0  0  0  0  0  0  0  0  0  0  0  0
   -8.8603   -1.2036    6.2289 H   0  0  0  0  0  0  0  0  0  0  0  0
   -7.2645   -1.7448    8.2694 H   0  0  0  0  0  0  0  0  0  0  0  0
   -8.9985   -1.7577    8.8412 H   0  0  0  0  0  0  0  0  0  0  0  0
  -10.8210   -0.1919    7.5742 H   0  0  0  0  0  0  0  0  0  0  0  0
  1  2  2  3
  2  3  1  0
  3  4  2  0
  3  5  1  0
  5  6  2  0
  6  7  1  0
  7  8  2  0
  8  9  1  0
  9 10  2  0
 10 11  1  0
 11 12  2  3
 12 13  1  0
 13 14  3  0
 12 15  1  0
 15 16  3  0
  8 17  1  0
 17 18  1  0
 18 19  1  0
 19 20  2  0
 20 21  1  0
 21 22  1  0
 21 23  1  0
  1 24  1  0
 24 25  2  0
 25 26  1  0
 26 27  1  0
 27 28  2  0
 28 29  1  0
 29 30  2  0
 30 31  1  0
 31 32  1  0
 30 33  1  0
 33 34  2  0
 26 35  1  0
 35 36  2  0
 36 37  1  0
 37 38  2  0
 38 39  1  0
 39 40  1  0
 38 41  1  0
 41 42  2  0
 25 43  1  0
 43 44  1  0
 44 45  1  0
 45 46  2  0
 46 47  1  0
 47 48  1  0
 48 49  2  0
 49 50  1  0
 50 51  2  0
 51 52  1  0
 52 53  1  0
 51 54  1  0
 54 55  2  0
 47 56  1  0
 56 57  2  0
 57 58  1  0
 58 59  2  0
 59 60  1  0
 60 61  1  0
 59 62  1  0
 62 63  2  0
 46 64  1  0
 64 65  1  0
 45 66  1  0
 66 67  2  0
 67 68  1  0
 68 69  2  0
 69 70  1  0
 70 71  1  0
 71 72  1  0
 72 73  1  0
 73 74  1  0
 72 75  2  0
 75 76  1  0
 75 77  1  0
 77 78  1  0
 69 79  1  0
 79 80  2  0
 80 81  1  0
 81 82  1  0
 82 83  1  0
 83 84  1  0
 84 85  1  0
 85 86  1  0
 84 87  2  0
 87 88  1  0
 88 89  1  0
 87 90  1  0
 81 91  2  0
 91 92  1  0
 80 93  1  0
 93 94  2  0
 94 95  1  0
 94 96  1  0
 96 97  2  0
 97 98  1  0
 98 99  1  0
 99100  1  0
100101  1  0
 99102  1  0
102103  2  0
103104  1  0
104105  1  0
105106  2  0
103107  1  0
107108  2  0
108109  1  0
109110  2  0
109111  1  0
111112  2  3
112113  1  0
113114  2  0
113115  1  0
115116  2  0
116117  1  0
117118  2  0
118119  1  0
119120  2  0
120121  1  0
121122  2  3
122123  1  0
123124  3  0
122125  1  0
125126  3  0
118127  1  0
127128  1  0
128129  1  0
129130  2  0
130131  1  0
131132  1  0
131133  1  0
 11  2  1  0
 23 17  1  0
 65 24  1  0
 92 66  1  0
106 96  1  0
121112  1  0
133127  1  0
 10  5  1  0
 22 18  1  0
 34 27  1  0
 42 35  1  0
 64 43  2  0
 91 68  1  0
104 98  2  0
120115  1  0
132128  1  0
 23  7  1  0
 55 48  1  0
 63 56  1  0
 77 70  2  0
 95 79  1  0
110102  1  0
133117  1  0
 88 82  2  0
  1134  1  0
  6135  1  0
  9136  1  0
 17137  1  0
 18138  1  0
 19139  1  0
 20140  1  0
 21141  1  0
 22142  1  0
 22143  1  0
 23144  1  0
 28145  1  0
 29146  1  0
 32147  1  0
 32148  1  0
 32149  1  0
 33150  1  0
 34151  1  0
 36152  1  0
 37153  1  0
 40154  1  0
 40155  1  0
 40156  1  0
 41157  1  0
 42158  1  0
 49159  1  0
 50160  1  0
 53161  1  0
 53162  1  0
 53163  1  0
 54164  1  0
 55165  1  0
 57166  1  0
 58167  1  0
 61168  1  0
 61169  1  0
 61170  1  0
 62171  1  0
 63172  1  0
 67173  1  0
 73174  1  0
 73175  1  0
 74176  1  0
 74177  1  0
 74178  1  0
 85179  1  0
 85180  1  0
 86181  1  0
 86182  1  0
 86183  1  0
 93184  1  0
 97185  1  0
100186  1  0
100187  1  0
101188  1  0
101189  1  0
101190  1  0
105191  1  0
106192  1  0
107193  1  0
108194  1  0
110195  1  0
111196  1  0
116197  1  0
119198  1  0
127199  1  0
128200  1  0
129201  1  0
130202  1  0
131203  1  0
132204  1  0
132205  1  0
133206  1  0
M  END

