
     RDKit          3D

149167  0  0  0  0  0  0  0  0999 V2000
   -0.8301    0.6072    5.6475 C   0  0  0  0  0  0  0  0  0  0  0  0
   -1.9726    1.2516    5.9727 C   0  0  0  0  0  0  0  0  0  0  0  0
   -2.5931    2.3047    5.1543 C   0  0  0  0  0  0  0  0  0  0  0  0
   -2.2248    2.6847    4.0081 O   0  0  0  0  0  0  0  0  0  0  0  0
   -3.7703    2.7900    5.8249 C   0  0  0  0  0  0  0  0  0  0  0  0
   -4.6097    3.8437    5.3887 C   0  0  0  0  0  0  0  0  0  0  0  0
   -5.6640    4.1034    6.2340 C   0  0  0  0  0  0  0  0  0  0  0  0
   -5.9357    3.3287    7.4119 C   0  0  0  0  0  0  0  0  0  0  0  0
   -5.1292    2.2752    7.8226 C   0  0  0  0  0  0  0  0  0  0  0  0
   -3.9784    2.0444    7.0118 C   0  0  0  0  0  0  0  0  0  0  0  0
   -2.8560    1.0685    7.1855 C   0  0  0  0  0  0  0  0  0  0  0  0
   -2.6444    0.2756    8.2715 C   0  0  0  0  0  0  0  0  0  0  0  0
   -3.4661    0.3020    9.4522 C   0  0  0  0  0  0  0  0  0  0  0  0
   -4.1009    0.3042   10.4158 N   0  0  0  0  0  0  0  0  0  0  0  0
   -1.5505   -0.6557    8.3617 C   0  0  0  0  0  0  0  0  0  0  0  0
   -0.6855   -1.4154    8.4542 N   0  0  0  0  0  0  0  0  0  0  0  0
   -7.1428    4.1813    7.7074 C   0  0  0  0  0  0  0  0  0  0  0  0
   -7.0502    5.1973    8.8868 C   0  0  0  0  0  0  0  0  0  0  0  0
   -5.6127    5.6210    9.0777 C   0  0  0  0  0  0  0  0  0  0  0  0
   -5.2937    6.3560    8.0110 C   0  0  0  0  0  0  0  0  0  0  0  0
   -6.5195    6.4088    7.1261 C   0  0  0  0  0  0  0  0  0  0  0  0
   -7.5839    6.4467    8.2161 C   0  0  0  0  0  0  0  0  0  0  0  0
   -6.8284    5.0006    6.5310 C   0  0  0  0  0  0  0  0  0  0  0  0
   -0.1518    0.7726    4.3495 C   0  0  0  0  0  0  0  0  0  0  0  0
    0.6415    1.8972    4.0605 C   0  0  0  0  0  0  0  0  0  0  0  0
    1.2515    2.0649    2.7912 C   0  0  0  0  0  0  0  0  0  0  0  0
    2.0609    3.2372    2.6513 N   0  0  0  0  0  0  0  0  0  0  0  0
    1.8886    3.8721    4.1052 S   0  0  0  0  0  4  0  0  0  0  0  0
    0.9433    2.9393    4.9962 N   0  0  0  0  0  0  0  0  0  0  0  0
    1.0613    1.1187    1.7748 C   0  0  0  0  0  0  0  0  0  0  0  0
    0.3098   -0.0278    2.0677 C   0  0  0  0  0  0  0  0  0  0  0  0
    0.0698   -1.0062    1.1525 N   0  0  0  0  0  0  0  0  0  0  0  0
   -0.9468   -1.9965    2.0107 S   0  0  0  0  0  0  0  0  0  0  0  0
   -1.1047   -1.2913    3.4964 N   0  0  0  0  0  0  0  0  0  0  0  0
   -0.3169   -0.1904    3.3411 C   0  0  0  0  0  0  0  0  0  0  0  0
    1.5591    1.3167    0.4085 C   0  0  0  0  0  0  0  0  0  0  0  0
    2.7072    0.6568   -0.0545 C   0  0  0  0  0  0  0  0  0  0  0  0
    3.9175    0.4969    0.7056 N   0  0  0  0  0  0  0  0  0  0  0  0
    5.0224    1.3672    0.3548 C   0  0  0  0  0  0  0  0  0  0  0  0
    4.7957    2.7393    0.1249 C   0  0  0  0  0  0  0  0  0  0  0  0
    5.8580    3.5784   -0.2432 C   0  0  0  0  0  0  0  0  0  0  0  0
    7.1524    3.0737   -0.3558 C   0  0  0  0  0  0  0  0  0  0  0  0
    8.5145    4.1621   -0.7715 S   0  0  0  0  0  0  0  0  0  0  0  0
    8.7406    4.7122    0.9440 C   0  0  0  0  0  0  0  0  0  0  0  0
    7.3893    1.7114   -0.1387 C   0  0  0  0  0  0  0  0  0  0  0  0
    6.3301    0.8592    0.2018 C   0  0  0  0  0  0  0  0  0  0  0  0
    4.1006   -0.6160    1.6155 C   0  0  0  0  0  0  0  0  0  0  0  0
    3.4286   -1.8349    1.4074 C   0  0  0  0  0  0  0  0  0  0  0  0
    3.7613   -2.9624    2.1675 C   0  0  0  0  0  0  0  0  0  0  0  0
    4.7412   -2.8817    3.1676 C   0  0  0  0  0  0  0  0  0  0  0  0
    5.2439   -4.3455    4.0705 S   0  0  0  0  0  0  0  0  0  0  0  0
    6.5216   -4.8206    2.8597 C   0  0  0  0  0  0  0  0  0  0  0  0
    5.3504   -1.6534    3.4405 C   0  0  0  0  0  0  0  0  0  0  0  0
    5.0231   -0.5211    2.6800 C   0  0  0  0  0  0  0  0  0  0  0  0
    2.5884    0.2514   -1.3828 C   0  0  0  0  0  0  0  0  0  0  0  0
    3.2200   -1.1108   -2.1294 S   0  0  0  0  0  0  0  0  0  0  0  0
    1.9784   -1.2470   -3.2728 C   0  0  0  0  0  0  0  0  0  0  0  0
    1.0722   -0.1855   -3.0927 C   0  0  0  0  0  0  0  0  0  0  0  0
   -0.0572    0.0801   -3.9680 N   0  0  0  0  0  0  0  0  0  0  0  0
   -1.3154    0.4645   -3.3821 C   0  0  0  0  0  0  0  0  0  0  0  0
   -2.1398   -0.5026   -2.7971 C   0  0  0  0  0  0  0  0  0  0  0  0
   -3.3521   -0.1319   -2.2178 C   0  0  0  0  0  0  0  0  0  0  0  0
   -3.7512    1.2078   -2.2183 C   0  0  0  0  0  0  0  0  0  0  0  0
   -5.3192    1.6763   -1.4935 S   0  0  0  0  0  0  0  0  0  0  0  0
   -4.5881    2.0707    0.1252 C   0  0  0  0  0  0  0  0  0  0  0  0
   -2.9509    2.1773   -2.8441 C   0  0  0  0  0  0  0  0  0  0  0  0
   -1.7355    1.8067   -3.4294 C   0  0  0  0  0  0  0  0  0  0  0  0
    0.1260    0.1646   -5.4145 C   0  0  0  0  0  0  0  0  0  0  0  0
    1.4125    0.2286   -5.9873 C   0  0  0  0  0  0  0  0  0  0  0  0
    1.5879    0.2491   -7.3727 C   0  0  0  0  0  0  0  0  0  0  0  0
    0.4799    0.3054   -8.2171 C   0  0  0  0  0  0  0  0  0  0  0  0
    0.7118    0.3594   -9.9969 S   0  0  0  0  0  0  0  0  0  0  0  0
    1.1892    2.1089  -10.0297 C   0  0  0  0  0  0  0  0  0  0  0  0
   -0.8095    0.3202   -7.6709 C   0  0  0  0  0  0  0  0  0  0  0  0
   -0.9886    0.2217   -6.2858 C   0  0  0  0  0  0  0  0  0  0  0  0
    1.4200    0.5999   -1.9928 C   0  0  0  0  0  0  0  0  0  0  0  0
    0.4587    1.4033   -0.8784 S   0  0  0  0  0  0  0  0  0  0  0  0
    1.5776   -2.5645   -3.7924 C   0  0  0  0  0  0  0  0  0  0  0  0
    0.6586   -3.3454   -3.0645 C   0  0  0  0  0  0  0  0  0  0  0  0
    0.2780   -4.6381   -3.4965 C   0  0  0  0  0  0  0  0  0  0  0  0
   -0.7080   -5.2749   -2.6689 N   0  0  0  0  0  0  0  0  0  0  0  0
   -0.8866   -4.1747   -1.5262 S   0  0  0  0  0  4  0  0  0  0  0  0
    0.0497   -2.9250   -1.8349 N   0  0  0  0  0  0  0  0  0  0  0  0
    0.8605   -5.2165   -4.6395 C   0  0  0  0  0  0  0  0  0  0  0  0
    1.7837   -4.4433   -5.3693 C   0  0  0  0  0  0  0  0  0  0  0  0
    2.4096   -4.9084   -6.4890 N   0  0  0  0  0  0  0  0  0  0  0  0
    3.3647   -3.6149   -6.8584 S   0  0  0  0  0  0  0  0  0  0  0  0
    3.0655   -2.4736   -5.7004 N   0  0  0  0  0  0  0  0  0  0  0  0
    2.1498   -3.1289   -4.9405 C   0  0  0  0  0  0  0  0  0  0  0  0
    0.4755   -6.5698   -5.1027 C   0  0  0  0  0  0  0  0  0  0  0  0
    0.5748   -7.6943   -4.3678 C   0  0  0  0  0  0  0  0  0  0  0  0
    0.9568   -7.7874   -2.9500 C   0  0  0  0  0  0  0  0  0  0  0  0
    1.6676   -6.9663   -2.3049 O   0  0  0  0  0  0  0  0  0  0  0  0
    0.4242   -9.0303   -2.4223 C   0  0  0  0  0  0  0  0  0  0  0  0
    0.3742   -9.4603   -1.0969 C   0  0  0  0  0  0  0  0  0  0  0  0
   -0.3150  -10.6447   -0.8041 C   0  0  0  0  0  0  0  0  0  0  0  0
   -0.9594  -11.3654   -1.8272 C   0  0  0  0  0  0  0  0  0  0  0  0
   -1.6487  -12.4881   -1.5277 F   0  0  0  0  0  0  0  0  0  0  0  0
   -0.8942  -10.9141   -3.1557 C   0  0  0  0  0  0  0  0  0  0  0  0
   -0.1644   -9.7480   -3.4480 C   0  0  0  0  0  0  0  0  0  0  0  0
    0.0359   -9.0370   -4.7414 C   0  0  0  0  0  0  0  0  0  0  0  0
    0.0427   -9.5976   -5.9702 C   0  0  0  0  0  0  0  0  0  0  0  0
    0.5553   -8.9041   -7.1306 C   0  0  0  0  0  0  0  0  0  0  0  0
    0.9857   -8.3533   -8.0552 N   0  0  0  0  0  0  0  0  0  0  0  0
   -0.3218  -10.9732   -6.1946 C   0  0  0  0  0  0  0  0  0  0  0  0
   -0.6161  -12.0775   -6.3773 N   0  0  0  0  0  0  0  0  0  0  0  0
   -0.4312   -0.1741    6.2559 H   0  0  0  0  0  0  0  0  0  0  0  0
   -4.4288    4.4110    4.4862 H   0  0  0  0  0  0  0  0  0  0  0  0
   -5.3857    1.7214    8.7050 H   0  0  0  0  0  0  0  0  0  0  0  0
   -8.1229    3.6501    7.6139 H   0  0  0  0  0  0  0  0  0  0  0  0
   -7.5917    4.9022    9.8089 H   0  0  0  0  0  0  0  0  0  0  0  0
   -4.9898    5.4596    9.9458 H   0  0  0  0  0  0  0  0  0  0  0  0
   -4.3617    6.8985    7.8733 H   0  0  0  0  0  0  0  0  0  0  0  0
   -6.5367    7.2556    6.4063 H   0  0  0  0  0  0  0  0  0  0  0  0
   -7.5255    7.3559    8.8600 H   0  0  0  0  0  0  0  0  0  0  0  0
   -8.6309    6.3285    7.8285 H   0  0  0  0  0  0  0  0  0  0  0  0
   -7.6329    4.9802    5.7539 H   0  0  0  0  0  0  0  0  0  0  0  0
    3.8024    3.1536    0.2095 H   0  0  0  0  0  0  0  0  0  0  0  0
    5.6590    4.6299   -0.3888 H   0  0  0  0  0  0  0  0  0  0  0  0
    7.7863    5.1236    1.3350 H   0  0  0  0  0  0  0  0  0  0  0  0
    9.0742    3.8696    1.5850 H   0  0  0  0  0  0  0  0  0  0  0  0
    9.5033    5.5234    0.9700 H   0  0  0  0  0  0  0  0  0  0  0  0
    8.3909    1.3154   -0.2498 H   0  0  0  0  0  0  0  0  0  0  0  0
    6.5347   -0.1995    0.3331 H   0  0  0  0  0  0  0  0  0  0  0  0
    2.6933   -1.9371    0.6222 H   0  0  0  0  0  0  0  0  0  0  0  0
    3.2726   -3.9059    1.9688 H   0  0  0  0  0  0  0  0  0  0  0  0
    7.1759   -3.9581    2.6028 H   0  0  0  0  0  0  0  0  0  0  0  0
    7.1637   -5.6102    3.3040 H   0  0  0  0  0  0  0  0  0  0  0  0
    6.0386   -5.2006    1.9386 H   0  0  0  0  0  0  0  0  0  0  0  0
    6.0890   -1.5758    4.2286 H   0  0  0  0  0  0  0  0  0  0  0  0
    5.5182    0.4222    2.8926 H   0  0  0  0  0  0  0  0  0  0  0  0
   -1.8594   -1.5461   -2.8066 H   0  0  0  0  0  0  0  0  0  0  0  0
   -3.9777   -0.8782   -1.7595 H   0  0  0  0  0  0  0  0  0  0  0  0
   -3.8748    2.9143    0.0286 H   0  0  0  0  0  0  0  0  0  0  0  0
   -5.4066    2.3668    0.8100 H   0  0  0  0  0  0  0  0  0  0  0  0
   -4.0668    1.1923    0.5443 H   0  0  0  0  0  0  0  0  0  0  0  0
   -3.2602    3.2108   -2.8729 H   0  0  0  0  0  0  0  0  0  0  0  0
   -1.1078    2.5576   -3.9029 H   0  0  0  0  0  0  0  0  0  0  0  0
    2.3048    0.2521   -5.3813 H   0  0  0  0  0  0  0  0  0  0  0  0
    2.5873    0.2419   -7.7943 H   0  0  0  0  0  0  0  0  0  0  0  0
    2.0454    2.2800   -9.3424 H   0  0  0  0  0  0  0  0  0  0  0  0
    0.3514    2.7588   -9.7149 H   0  0  0  0  0  0  0  0  0  0  0  0
    1.5029    2.3819  -11.0571 H   0  0  0  0  0  0  0  0  0  0  0  0
   -1.6773    0.3814   -8.3158 H   0  0  0  0  0  0  0  0  0  0  0  0
   -2.0025    0.2116   -5.8999 H   0  0  0  0  0  0  0  0  0  0  0  0
    0.0674   -6.6227   -6.1048 H   0  0  0  0  0  0  0  0  0  0  0  0
    0.8403   -8.8825   -0.3127 H   0  0  0  0  0  0  0  0  0  0  0  0
   -0.3760  -10.9842    0.2234 H   0  0  0  0  0  0  0  0  0  0  0  0
   -1.4474  -11.4476   -3.9134 H   0  0  0  0  0  0  0  0  0  0  0  0
  1  2  2  3
  2  3  1  0
  3  4  2  0
  3  5  1  0
  5  6  2  0
  6  7  1  0
  7  8  2  0
  8  9  1  0
  9 10  2  0
 10 11  1  0
 11 12  2  3
 12 13  1  0
 13 14  3  0
 12 15  1  0
 15 16  3  0
  8 17  1  0
 17 18  1  0
 18 19  1  0
 19 20  2  0
 20 21  1  0
 21 22  1  0
 21 23  1  0
  1 24  1  0
 24 25  2  0
 25 26  1  0
 26 27  1  0
 27 28  2  0
 28 29  2  0
 26 30  2  0
 30 31  1  0
 31 32  2  0
 32 33  1  0
 33 34  1  0
 34 35  2  0
 30 36  1  0
 36 37  2  0
 37 38  1  0
 38 39  1  0
 39 40  2  0
 40 41  1  0
 41 42  2  0
 42 43  1  0
 43 44  1  0
 42 45  1  0
 45 46  2  0
 38 47  1  0
 47 48  2  0
 48 49  1  0
 49 50  2  0
 50 51  1  0
 51 52  1  0
 50 53  1  0
 53 54  2  0
 37 55  1  0
 55 56  1  0
 56 57  1  0
 57 58  2  0
 58 59  1  0
 59 60  1  0
 60 61  2  0
 61 62  1  0
 62 63  2  0
 63 64  1  0
 64 65  1  0
 63 66  1  0
 66 67  2  0
 59 68  1  0
 68 69  2  0
 69 70  1  0
 70 71  2  0
 71 72  1  0
 72 73  1  0
 71 74  1  0
 74 75  2  0
 58 76  1  0
 76 77  1  0
 57 78  1  0
 78 79  2  0
 79 80  1  0
 80 81  1  0
 81 82  2  0
 82 83  2  0
 80 84  2  0
 84 85  1  0
 85 86  2  0
 86 87  1  0
 87 88  1  0
 88 89  2  0
 84 90  1  0
 90 91  2  3
 91 92  1  0
 92 93  2  0
 92 94  1  0
 94 95  2  0
 95 96  1  0
 96 97  2  0
 97 98  1  0
 97 99  1  0
 99100  2  0
100101  1  0
101102  2  3
102103  1  0
103104  3  0
102105  1  0
105106  3  0
 11  2  1  0
 23 17  1  0
 35 24  1  0
 77 36  1  0
 89 78  1  0
101 91  1  0
 10  5  1  0
 22 18  1  0
 29 25  1  0
 35 31  1  0
 46 39  1  0
 54 47  1  0
 76 55  2  0
 83 79  1  0
 89 85  1  0
100 94  1  0
 23  7  1  0
 67 60  1  0
 75 68  1  0
  1107  1  0
  6108  1  0
  9109  1  0
 17110  1  0
 18111  1  0
 19112  1  0
 20113  1  0
 21114  1  0
 22115  1  0
 22116  1  0
 23117  1  0
 40118  1  0
 41119  1  0
 44120  1  0
 44121  1  0
 44122  1  0
 45123  1  0
 46124  1  0
 48125  1  0
 49126  1  0
 52127  1  0
 52128  1  0
 52129  1  0
 53130  1  0
 54131  1  0
 61132  1  0
 62133  1  0
 65134  1  0
 65135  1  0
 65136  1  0
 66137  1  0
 67138  1  0
 69139  1  0
 70140  1  0
 73141  1  0
 73142  1  0
 73143  1  0
 74144  1  0
 75145  1  0
 90146  1  0
 95147  1  0
 96148  1  0
 99149  1  0
M  END

