
     RDKit          3D

110127  0  0  0  0  0  0  0  0999 V2000
   -0.5289   -5.8616    4.2607 C   0  0  0  0  0  0  0  0  0  0  0  0
    0.3560   -6.1857    3.2985 C   0  0  0  0  0  0  0  0  0  0  0  0
    0.7268   -5.3208    2.1654 C   0  0  0  0  0  0  0  0  0  0  0  0
    0.6010   -4.0681    2.1051 O   0  0  0  0  0  0  0  0  0  0  0  0
    1.2284   -6.1472    1.0942 C   0  0  0  0  0  0  0  0  0  0  0  0
    1.4713   -5.7465   -0.2385 C   0  0  0  0  0  0  0  0  0  0  0  0
    1.7186   -6.7972   -1.1000 C   0  0  0  0  0  0  0  0  0  0  0  0
    1.7138   -8.1700   -0.6867 C   0  0  0  0  0  0  0  0  0  0  0  0
    1.4829   -8.5666    0.6221 C   0  0  0  0  0  0  0  0  0  0  0  0
    1.2600   -7.4949    1.5313 C   0  0  0  0  0  0  0  0  0  0  0  0
    0.8534   -7.5525    2.9605 C   0  0  0  0  0  0  0  0  0  0  0  0
    1.1276   -8.5517    3.8355 C   0  0  0  0  0  0  0  0  0  0  0  0
    1.9095   -9.7013    3.4519 C   0  0  0  0  0  0  0  0  0  0  0  0
    2.5571  -10.6123    3.1619 N   0  0  0  0  0  0  0  0  0  0  0  0
    0.8161   -8.4575    5.2372 C   0  0  0  0  0  0  0  0  0  0  0  0
    0.5568   -8.3922    6.3645 N   0  0  0  0  0  0  0  0  0  0  0  0
    1.9352   -8.6104   -2.1050 C   0  0  0  0  0  0  0  0  0  0  0  0
    0.7009   -9.1985   -2.8520 C   0  0  0  0  0  0  0  0  0  0  0  0
    1.0594   -9.1855   -4.3206 C   0  0  0  0  0  0  0  0  0  0  0  0
    1.0697   -7.9024   -4.7004 C   0  0  0  0  0  0  0  0  0  0  0  0
    0.7187   -7.0920   -3.4742 C   0  0  0  0  0  0  0  0  0  0  0  0
   -0.2872   -8.0426   -2.8469 C   0  0  0  0  0  0  0  0  0  0  0  0
    1.9471   -7.2047   -2.5217 C   0  0  0  0  0  0  0  0  0  0  0  0
   -1.1829   -4.5412    4.2878 C   0  0  0  0  0  0  0  0  0  0  0  0
   -0.4889   -3.4042    4.7221 C   0  0  0  0  0  0  0  0  0  0  0  0
   -0.9494   -2.1000    4.4085 C   0  0  0  0  0  0  0  0  0  0  0  0
   -0.0450   -1.0495    4.7704 N   0  0  0  0  0  0  0  0  0  0  0  0
    1.1453   -1.8962    5.4176 S   0  0  0  0  0  4  0  0  0  0  0  0
    0.7954   -3.4523    5.3539 N   0  0  0  0  0  0  0  0  0  0  0  0
   -2.1257   -1.9030    3.6627 C   0  0  0  0  0  0  0  0  0  0  0  0
   -2.8923   -3.0400    3.3416 C   0  0  0  0  0  0  0  0  0  0  0  0
   -4.0704   -2.9652    2.6707 N   0  0  0  0  0  0  0  0  0  0  0  0
   -4.4297   -4.5690    2.5065 S   0  0  0  0  0  0  0  0  0  0  0  0
   -3.1868   -5.3956    3.2237 N   0  0  0  0  0  0  0  0  0  0  0  0
   -2.4194   -4.3570    3.6496 C   0  0  0  0  0  0  0  0  0  0  0  0
   -2.3938   -0.6036    3.0061 C   0  0  0  0  0  0  0  0  0  0  0  0
   -2.4942    0.5953    3.7171 C   0  0  0  0  0  0  0  0  0  0  0  0
   -2.5015    0.7933    5.0454 N   0  0  0  0  0  0  0  0  0  0  0  0
   -2.6052    2.1134    5.1926 N   0  0  0  0  0  0  0  0  0  0  0  0
   -2.7346    2.7618    6.4936 C   0  0  0  0  0  0  0  0  0  0  0  0
   -4.1922    2.7436    6.9402 C   0  0  0  0  0  0  0  0  0  0  0  0
   -2.6770    2.7666    4.0356 N   0  0  0  0  0  0  0  0  0  0  0  0
   -2.6020    1.8068    3.0967 C   0  0  0  0  0  0  0  0  0  0  0  0
   -2.6172    1.9328    1.7061 C   0  0  0  0  0  0  0  0  0  0  0  0
   -2.5467    0.7399    0.9524 C   0  0  0  0  0  0  0  0  0  0  0  0
   -2.4282   -0.5128    1.5939 C   0  0  0  0  0  0  0  0  0  0  0  0
   -2.2751   -1.6231    0.8279 F   0  0  0  0  0  0  0  0  0  0  0  0
   -2.5145    0.7901   -0.4046 F   0  0  0  0  0  0  0  0  0  0  0  0
   -2.5524    3.2373    1.0186 C   0  0  0  0  0  0  0  0  0  0  0  0
   -3.5421    3.6002    0.0897 C   0  0  0  0  0  0  0  0  0  0  0  0
   -3.3317    4.6525   -0.8338 C   0  0  0  0  0  0  0  0  0  0  0  0
   -4.3959    4.8489   -1.7697 N   0  0  0  0  0  0  0  0  0  0  0  0
   -5.4117    3.7134   -1.2982 S   0  0  0  0  0  4  0  0  0  0  0  0
   -4.7906    2.9191   -0.0579 N   0  0  0  0  0  0  0  0  0  0  0  0
   -2.1189    5.3572   -0.8714 C   0  0  0  0  0  0  0  0  0  0  0  0
   -1.1681    5.0794    0.1341 C   0  0  0  0  0  0  0  0  0  0  0  0
    0.0130    5.7381    0.2386 N   0  0  0  0  0  0  0  0  0  0  0  0
    0.7190    4.9098    1.4812 S   0  0  0  0  0  0  0  0  0  0  0  0
   -0.3639    3.7496    1.9266 N   0  0  0  0  0  0  0  0  0  0  0  0
   -1.3793    4.0089    1.0632 C   0  0  0  0  0  0  0  0  0  0  0  0
   -1.8662    6.3295   -1.9601 C   0  0  0  0  0  0  0  0  0  0  0  0
   -0.7572    6.3727   -2.7230 C   0  0  0  0  0  0  0  0  0  0  0  0
   -0.3945    7.5508   -3.5090 C   0  0  0  0  0  0  0  0  0  0  0  0
   -1.1833    8.4630   -3.8770 O   0  0  0  0  0  0  0  0  0  0  0  0
    1.0366    7.5265   -3.7389 C   0  0  0  0  0  0  0  0  0  0  0  0
    1.8178    8.5085   -4.3890 C   0  0  0  0  0  0  0  0  0  0  0  0
    3.1692    8.2167   -4.4138 C   0  0  0  0  0  0  0  0  0  0  0  0
    3.7270    7.0370   -3.8205 C   0  0  0  0  0  0  0  0  0  0  0  0
    2.9684    6.0703   -3.1885 C   0  0  0  0  0  0  0  0  0  0  0  0
    1.5705    6.3331   -3.1846 C   0  0  0  0  0  0  0  0  0  0  0  0
    0.4490    5.4942   -2.6841 C   0  0  0  0  0  0  0  0  0  0  0  0
    0.4531    4.1380   -2.5994 C   0  0  0  0  0  0  0  0  0  0  0  0
   -0.7638    3.3672   -2.6859 C   0  0  0  0  0  0  0  0  0  0  0  0
   -1.7333    2.7411   -2.7684 N   0  0  0  0  0  0  0  0  0  0  0  0
    1.6639    3.3609   -2.6046 C   0  0  0  0  0  0  0  0  0  0  0  0
    2.6350    2.7263   -2.5916 N   0  0  0  0  0  0  0  0  0  0  0  0
    5.1015    7.4448   -4.2622 C   0  0  0  0  0  0  0  0  0  0  0  0
    5.7298    6.6790   -5.4663 C   0  0  0  0  0  0  0  0  0  0  0  0
    4.6412    6.1979   -6.4005 C   0  0  0  0  0  0  0  0  0  0  0  0
    4.1115    7.2842   -6.9613 C   0  0  0  0  0  0  0  0  0  0  0  0
    4.8627    8.4695   -6.3969 C   0  0  0  0  0  0  0  0  0  0  0  0
    6.2419    7.8495   -6.2859 C   0  0  0  0  0  0  0  0  0  0  0  0
    4.5278    8.6447   -4.8831 C   0  0  0  0  0  0  0  0  0  0  0  0
   -0.9372   -6.6158    4.9130 H   0  0  0  0  0  0  0  0  0  0  0  0
    1.3965   -4.7202   -0.5749 H   0  0  0  0  0  0  0  0  0  0  0  0
    1.4078   -9.6112    0.8873 H   0  0  0  0  0  0  0  0  0  0  0  0
    2.8975   -9.1506   -2.2602 H   0  0  0  0  0  0  0  0  0  0  0  0
    0.3153  -10.1664   -2.4682 H   0  0  0  0  0  0  0  0  0  0  0  0
    1.1838  -10.0391   -4.9761 H   0  0  0  0  0  0  0  0  0  0  0  0
    1.2065   -7.5401   -5.7141 H   0  0  0  0  0  0  0  0  0  0  0  0
    0.3549   -6.0633   -3.6758 H   0  0  0  0  0  0  0  0  0  0  0  0
   -1.1839   -8.2240   -3.4904 H   0  0  0  0  0  0  0  0  0  0  0  0
   -0.6331   -7.7393   -1.8340 H   0  0  0  0  0  0  0  0  0  0  0  0
    2.9164   -6.8518   -2.9378 H   0  0  0  0  0  0  0  0  0  0  0  0
   -2.3801    3.8152    6.4275 H   0  0  0  0  0  0  0  0  0  0  0  0
   -2.1071    2.2283    7.2400 H   0  0  0  0  0  0  0  0  0  0  0  0
   -4.5526    1.6957    7.0160 H   0  0  0  0  0  0  0  0  0  0  0  0
   -4.8214    3.2972    6.2130 H   0  0  0  0  0  0  0  0  0  0  0  0
   -4.2861    3.2259    7.9390 H   0  0  0  0  0  0  0  0  0  0  0  0
   -2.6515    7.0555   -2.1469 H   0  0  0  0  0  0  0  0  0  0  0  0
    1.3995    9.4026   -4.8341 H   0  0  0  0  0  0  0  0  0  0  0  0
    3.4326    5.2071   -2.7453 H   0  0  0  0  0  0  0  0  0  0  0  0
    5.8021    7.6729   -3.4263 H   0  0  0  0  0  0  0  0  0  0  0  0
    6.4902    5.9162   -5.2022 H   0  0  0  0  0  0  0  0  0  0  0  0
    4.3565    5.1672   -6.6019 H   0  0  0  0  0  0  0  0  0  0  0  0
    3.3326    7.2984   -7.7148 H   0  0  0  0  0  0  0  0  0  0  0  0
    4.8023    9.3927   -7.0132 H   0  0  0  0  0  0  0  0  0  0  0  0
    6.9715    8.4894   -5.7356 H   0  0  0  0  0  0  0  0  0  0  0  0
    6.6753    7.5488   -7.2688 H   0  0  0  0  0  0  0  0  0  0  0  0
    4.8818    9.5992   -4.4310 H   0  0  0  0  0  0  0  0  0  0  0  0
  1  2  2  3
  2  3  1  0
  3  4  2  0
  3  5  1  0
  5  6  2  0
  6  7  1  0
  7  8  2  0
  8  9  1  0
  9 10  2  0
 10 11  1  0
 11 12  2  3
 12 13  1  0
 13 14  3  0
 12 15  1  0
 15 16  3  0
  8 17  1  0
 17 18  1  0
 18 19  1  0
 19 20  2  0
 20 21  1  0
 21 22  1  0
 21 23  1  0
  1 24  1  0
 24 25  2  0
 25 26  1  0
 26 27  1  0
 27 28  2  0
 28 29  2  0
 26 30  2  0
 30 31  1  0
 31 32  2  0
 32 33  1  0
 33 34  1  0
 34 35  2  0
 30 36  1  0
 36 37  1  0
 37 38  2  0
 38 39  1  0
 39 40  1  0
 40 41  1  0
 39 42  1  0
 42 43  2  0
 43 44  1  0
 44 45  2  0
 45 46  1  0
 46 47  1  0
 45 48  1  0
 44 49  1  0
 49 50  2  0
 50 51  1  0
 51 52  1  0
 52 53  2  0
 53 54  2  0
 51 55  2  0
 55 56  1  0
 56 57  2  0
 57 58  1  0
 58 59  1  0
 59 60  2  0
 55 61  1  0
 61 62  2  3
 62 63  1  0
 63 64  2  0
 63 65  1  0
 65 66  2  0
 66 67  1  0
 67 68  2  0
 68 69  1  0
 69 70  2  0
 70 71  1  0
 71 72  2  3
 72 73  1  0
 73 74  3  0
 72 75  1  0
 75 76  3  0
 68 77  1  0
 77 78  1  0
 78 79  1  0
 79 80  2  0
 80 81  1  0
 81 82  1  0
 81 83  1  0
 11  2  1  0
 23 17  1  0
 35 24  1  0
 46 36  2  0
 60 49  1  0
 71 62  1  0
 83 77  1  0
 10  5  1  0
 22 18  1  0
 29 25  1  0
 35 31  1  0
 43 37  1  0
 54 50  1  0
 60 56  1  0
 70 65  1  0
 82 78  1  0
 23  7  1  0
 83 67  1  0
  1 84  1  0
  6 85  1  0
  9 86  1  0
 17 87  1  0
 18 88  1  0
 19 89  1  0
 20 90  1  0
 21 91  1  0
 22 92  1  0
 22 93  1  0
 23 94  1  0
 40 95  1  0
 40 96  1  0
 41 97  1  0
 41 98  1  0
 41 99  1  0
 61100  1  0
 66101  1  0
 69102  1  0
 77103  1  0
 78104  1  0
 79105  1  0
 80106  1  0
 81107  1  0
 82108  1  0
 82109  1  0
 83110  1  0
M  END

