
     RDKit          3D

246272  0  0  0  0  0  0  0  0999 V2000
   -1.6858   -3.6375   -7.5478 C   0  0  0  0  0  0  0  0  0  0  0  0
   -1.0198   -4.7202   -7.9883 C   0  0  0  0  0  0  0  0  0  0  0  0
   -1.3730   -5.3744   -9.2473 C   0  0  0  0  0  0  0  0  0  0  0  0
   -2.4461   -5.2184   -9.8903 O   0  0  0  0  0  0  0  0  0  0  0  0
   -0.2424   -6.1562   -9.6943 C   0  0  0  0  0  0  0  0  0  0  0  0
   -0.1337   -6.8876  -10.8992 C   0  0  0  0  0  0  0  0  0  0  0  0
    1.0658   -7.5619  -11.0347 C   0  0  0  0  0  0  0  0  0  0  0  0
    2.1157   -7.5004  -10.0614 C   0  0  0  0  0  0  0  0  0  0  0  0
    2.0269   -6.7611   -8.8960 C   0  0  0  0  0  0  0  0  0  0  0  0
    0.7820   -6.0903   -8.7153 C   0  0  0  0  0  0  0  0  0  0  0  0
    0.3001   -5.2817   -7.5603 C   0  0  0  0  0  0  0  0  0  0  0  0
    0.7598   -5.3720   -6.2828 C   0  0  0  0  0  0  0  0  0  0  0  0
    0.0169   -4.8748   -5.1560 C   0  0  0  0  0  0  0  0  0  0  0  0
   -0.5596   -4.4819   -4.2330 N   0  0  0  0  0  0  0  0  0  0  0  0
    1.9431   -6.1111   -5.9277 C   0  0  0  0  0  0  0  0  0  0  0  0
    2.8879   -6.7038   -5.6141 N   0  0  0  0  0  0  0  0  0  0  0  0
    2.9428   -8.4578  -10.8623 C   0  0  0  0  0  0  0  0  0  0  0  0
    3.0066   -9.9226  -10.3299 C   0  0  0  0  0  0  0  0  0  0  0  0
    3.5517  -10.7467  -11.4686 C   0  0  0  0  0  0  0  0  0  0  0  0
    2.5922  -10.7898  -12.4034 C   0  0  0  0  0  0  0  0  0  0  0  0
    1.4282   -9.9993  -11.8587 C   0  0  0  0  0  0  0  0  0  0  0  0
    1.5543  -10.3789  -10.3949 C   0  0  0  0  0  0  0  0  0  0  0  0
    1.8754   -8.5066  -11.8713 C   0  0  0  0  0  0  0  0  0  0  0  0
   -1.0843   -2.5755   -6.7345 C   0  0  0  0  0  0  0  0  0  0  0  0
   -1.7722   -1.7712   -5.8178 C   0  0  0  0  0  0  0  0  0  0  0  0
   -3.1381   -1.9704   -5.4244 N   0  0  0  0  0  0  0  0  0  0  0  0
   -4.1703   -1.0367   -5.8233 C   0  0  0  0  0  0  0  0  0  0  0  0
   -5.3647   -0.9258   -5.0806 C   0  0  0  0  0  0  0  0  0  0  0  0
   -6.3546   -0.0179   -5.4585 C   0  0  0  0  0  0  0  0  0  0  0  0
   -6.1678    0.7988   -6.5806 C   0  0  0  0  0  0  0  0  0  0  0  0
   -7.4265    1.9994   -7.0245 S   0  0  0  0  0  0  0  0  0  0  0  0
   -8.3738    0.8302   -8.0523 C   0  0  0  0  0  0  0  0  0  0  0  0
   -4.9893    0.7012   -7.3268 C   0  0  0  0  0  0  0  0  0  0  0  0
   -3.9967   -0.2111   -6.9541 C   0  0  0  0  0  0  0  0  0  0  0  0
   -3.4428   -3.1004   -4.5985 C   0  0  0  0  0  0  0  0  0  0  0  0
   -3.1210   -3.0817   -3.2288 C   0  0  0  0  0  0  0  0  0  0  0  0
   -3.3623   -4.2078   -2.4356 C   0  0  0  0  0  0  0  0  0  0  0  0
   -3.9290   -5.3576   -3.0005 C   0  0  0  0  0  0  0  0  0  0  0  0
   -4.2051   -6.8172   -1.9968 S   0  0  0  0  0  0  0  0  0  0  0  0
   -2.5698   -7.5270   -2.3677 C   0  0  0  0  0  0  0  0  0  0  0  0
   -4.2747   -5.3658   -4.3603 C   0  0  0  0  0  0  0  0  0  0  0  0
   -4.0398   -4.2393   -5.1519 C   0  0  0  0  0  0  0  0  0  0  0  0
   -0.9644   -0.7477   -5.3352 C   0  0  0  0  0  0  0  0  0  0  0  0
   -1.1397    0.3999   -4.1396 S   0  0  0  0  0  0  0  0  0  0  0  0
    0.4420    1.0087   -4.3146 C   0  0  0  0  0  0  0  0  0  0  0  0
    1.1163    0.3089   -5.3425 C   0  0  0  0  0  0  0  0  0  0  0  0
    2.4072    0.6555   -5.9096 N   0  0  0  0  0  0  0  0  0  0  0  0
    3.2848    1.5762   -5.2417 C   0  0  0  0  0  0  0  0  0  0  0  0
    3.0828    2.9597   -5.3688 C   0  0  0  0  0  0  0  0  0  0  0  0
    3.8741    3.8577   -4.6449 C   0  0  0  0  0  0  0  0  0  0  0  0
    4.8812    3.3792   -3.7956 C   0  0  0  0  0  0  0  0  0  0  0  0
    5.8400    4.5184   -2.8001 S   0  0  0  0  0  0  0  0  0  0  0  0
    4.6737    4.4596   -1.4076 C   0  0  0  0  0  0  0  0  0  0  0  0
    5.1174    2.0007   -3.7027 C   0  0  0  0  0  0  0  0  0  0  0  0
    4.3339    1.1028   -4.4378 C   0  0  0  0  0  0  0  0  0  0  0  0
    2.6504    0.4349   -7.3090 C   0  0  0  0  0  0  0  0  0  0  0  0
    3.8288   -0.2014   -7.7338 C   0  0  0  0  0  0  0  0  0  0  0  0
    4.0533   -0.4273   -9.0940 C   0  0  0  0  0  0  0  0  0  0  0  0
    3.1006   -0.0242  -10.0414 C   0  0  0  0  0  0  0  0  0  0  0  0
    3.3790   -0.3155  -11.7864 S   0  0  0  0  0  0  0  0  0  0  0  0
    4.0705    1.3393  -12.0711 C   0  0  0  0  0  0  0  0  0  0  0  0
    1.9263    0.6137   -9.6232 C   0  0  0  0  0  0  0  0  0  0  0  0
    1.7100    0.8528   -8.2649 C   0  0  0  0  0  0  0  0  0  0  0  0
    0.2867   -0.6962   -5.8533 C   0  0  0  0  0  0  0  0  0  0  0  0
    0.4875   -1.9534   -6.9467 S   0  0  0  0  0  0  0  0  0  0  0  0
    1.0680    1.7399   -3.2175 C   0  0  0  0  0  0  0  0  0  0  0  0
    0.6253    2.9508   -2.6917 C   0  0  0  0  0  0  0  0  0  0  0  0
    1.1423    3.2132   -1.4096 C   0  0  0  0  0  0  0  0  0  0  0  0
    0.7963    4.2880   -0.5588 C   0  0  0  0  0  0  0  0  0  0  0  0
   -0.1677    5.3254   -0.9641 C   0  0  0  0  0  0  0  0  0  0  0  0
    0.1735    6.9714   -1.0580 S   0  0  0  0  0  0  0  0  0  0  0  0
   -1.3360    7.4284   -1.6538 C   0  0  0  0  0  0  0  0  0  0  0  0
   -1.7464    8.8296   -1.9863 C   0  0  0  0  0  0  0  0  0  0  0  0
   -2.6392    9.4071   -0.8966 C   0  0  0  0  0  0  0  0  0  0  0  0
   -2.1304    6.2923   -1.7671 C   0  0  0  0  0  0  0  0  0  0  0  0
   -3.4121    6.3135   -2.2093 F   0  0  0  0  0  0  0  0  0  0  0  0
   -1.4761    5.1182   -1.3812 C   0  0  0  0  0  0  0  0  0  0  0  0
   -2.0727    3.8991   -1.3947 F   0  0  0  0  0  0  0  0  0  0  0  0
    1.3231    4.2599    0.7467 C   0  0  0  0  0  0  0  0  0  0  0  0
    2.1875    3.2520    1.1853 C   0  0  0  0  0  0  0  0  0  0  0  0
    2.5345    2.1876    0.3365 C   0  0  0  0  0  0  0  0  0  0  0  0
    3.1917    0.9761    0.8531 C   0  0  0  0  0  0  0  0  0  0  0  0
    2.3894   -0.4632    1.1799 S   0  0  0  0  0  0  0  0  0  0  0  0
    3.7330   -1.2831    1.7946 C   0  0  0  0  0  0  0  0  0  0  0  0
    3.7785   -2.7109    2.2596 C   0  0  0  0  0  0  0  0  0  0  0  0
    2.3901   -3.3232    2.4231 C   0  0  0  0  0  0  0  0  0  0  0  0
    4.8285   -0.4253    1.7327 C   0  0  0  0  0  0  0  0  0  0  0  0
    4.5245    0.8424    1.2226 C   0  0  0  0  0  0  0  0  0  0  0  0
    5.4450    1.8293    1.0863 F   0  0  0  0  0  0  0  0  0  0  0  0
    6.0783   -0.7897    2.1117 F   0  0  0  0  0  0  0  0  0  0  0  0
    1.9861    2.1984   -0.9501 C   0  0  0  0  0  0  0  0  0  0  0  0
    2.0621    0.9809   -2.0944 S   0  0  0  0  0  0  0  0  0  0  0  0
    2.4050    3.2672    2.5662 C   0  0  0  0  0  0  0  0  0  0  0  0
    1.6164    4.1935    3.2443 C   0  0  0  0  0  0  0  0  0  0  0  0
    0.7560    5.0904    2.0974 S   0  0  0  0  0  0  0  0  0  0  0  0
    1.0981    3.8977    4.5904 C   0  0  0  0  0  0  0  0  0  0  0  0
    0.1913    4.6697    5.3404 C   0  0  0  0  0  0  0  0  0  0  0  0
    0.0520    6.0960    5.2235 N   0  0  0  0  0  0  0  0  0  0  0  0
    1.2307    6.9137    5.3924 C   0  0  0  0  0  0  0  0  0  0  0  0
    1.3888    8.0993    4.6577 C   0  0  0  0  0  0  0  0  0  0  0  0
    2.4998    8.9205    4.8725 C   0  0  0  0  0  0  0  0  0  0  0  0
    3.4618    8.5731    5.8323 C   0  0  0  0  0  0  0  0  0  0  0  0
    4.6576    9.4462    6.0655 C   0  0  0  0  0  0  0  0  0  0  0  0
    3.3286    7.3683    6.5360 C   0  0  0  0  0  0  0  0  0  0  0  0
    2.2197    6.5510    6.3249 C   0  0  0  0  0  0  0  0  0  0  0  0
   -1.2639    6.6908    5.2004 C   0  0  0  0  0  0  0  0  0  0  0  0
   -2.2891    6.1206    4.4256 C   0  0  0  0  0  0  0  0  0  0  0  0
   -3.5756    6.6723    4.4350 C   0  0  0  0  0  0  0  0  0  0  0  0
   -3.8519    7.8143    5.2047 C   0  0  0  0  0  0  0  0  0  0  0  0
   -5.2372    8.3858    5.2573 C   0  0  0  0  0  0  0  0  0  0  0  0
   -2.8336    8.3819    5.9827 C   0  0  0  0  0  0  0  0  0  0  0  0
   -1.5495    7.8265    5.9796 C   0  0  0  0  0  0  0  0  0  0  0  0
   -0.4442    3.8991    6.3217 C   0  0  0  0  0  0  0  0  0  0  0  0
   -1.7510    4.1223    7.3550 S   0  0  0  0  0  0  0  0  0  0  0  0
   -1.8062    2.4921    7.8592 C   0  0  0  0  0  0  0  0  0  0  0  0
   -0.8048    1.7629    7.1802 C   0  0  0  0  0  0  0  0  0  0  0  0
   -0.7114    0.3241    7.1041 N   0  0  0  0  0  0  0  0  0  0  0  0
    0.5984   -0.2936    7.1301 C   0  0  0  0  0  0  0  0  0  0  0  0
    0.9382   -1.2975    6.2020 C   0  0  0  0  0  0  0  0  0  0  0  0
    2.2258   -1.8393    6.1845 C   0  0  0  0  0  0  0  0  0  0  0  0
    3.1964   -1.3970    7.0956 C   0  0  0  0  0  0  0  0  0  0  0  0
    4.5976   -1.9219    7.0227 C   0  0  0  0  0  0  0  0  0  0  0  0
    2.8676   -0.3856    8.0078 C   0  0  0  0  0  0  0  0  0  0  0  0
    1.5816    0.1588    8.0265 C   0  0  0  0  0  0  0  0  0  0  0  0
   -1.8741   -0.4558    6.7469 C   0  0  0  0  0  0  0  0  0  0  0  0
   -2.8321    0.0456    5.8456 C   0  0  0  0  0  0  0  0  0  0  0  0
   -3.9536   -0.7157    5.5082 C   0  0  0  0  0  0  0  0  0  0  0  0
   -4.1416   -1.9872    6.0712 C   0  0  0  0  0  0  0  0  0  0  0  0
   -5.3207   -2.8215    5.6708 C   0  0  0  0  0  0  0  0  0  0  0  0
   -3.1737   -2.5011    6.9437 C   0  0  0  0  0  0  0  0  0  0  0  0
   -2.0508   -1.7393    7.2798 C   0  0  0  0  0  0  0  0  0  0  0  0
   -0.0618    2.5979    6.3607 C   0  0  0  0  0  0  0  0  0  0  0  0
    1.0681    2.2997    5.1782 S   0  0  0  0  0  0  0  0  0  0  0  0
   -2.9110    1.8999    8.6324 C   0  0  0  0  0  0  0  0  0  0  0  0
   -2.6962    1.0271    9.6326 C   0  0  0  0  0  0  0  0  0  0  0  0
   -1.3857    0.7518   10.2230 C   0  0  0  0  0  0  0  0  0  0  0  0
   -0.4523    1.5836   10.3689 O   0  0  0  0  0  0  0  0  0  0  0  0
   -1.3513   -0.6305   10.6408 C   0  0  0  0  0  0  0  0  0  0  0  0
   -0.2070   -1.3741   11.0117 C   0  0  0  0  0  0  0  0  0  0  0  0
   -0.4363   -2.7308   11.1244 C   0  0  0  0  0  0  0  0  0  0  0  0
   -1.7096   -3.3353   10.8700 C   0  0  0  0  0  0  0  0  0  0  0  0
   -2.8380   -2.6089   10.5163 C   0  0  0  0  0  0  0  0  0  0  0  0
   -2.6337   -1.2027   10.4302 C   0  0  0  0  0  0  0  0  0  0  0  0
   -3.5610   -0.1436    9.9505 C   0  0  0  0  0  0  0  0  0  0  0  0
   -4.9153   -0.1749    9.9563 C   0  0  0  0  0  0  0  0  0  0  0  0
   -5.6534   -1.3391   10.3657 C   0  0  0  0  0  0  0  0  0  0  0  0
   -6.2572   -2.2684   10.6978 N   0  0  0  0  0  0  0  0  0  0  0  0
   -5.7027    1.0001    9.6784 C   0  0  0  0  0  0  0  0  0  0  0  0
   -6.3357    1.9407    9.4575 N   0  0  0  0  0  0  0  0  0  0  0  0
   -1.1247   -4.7007   11.0939 C   0  0  0  0  0  0  0  0  0  0  0  0
   -0.8269   -5.5942    9.8490 C   0  0  0  0  0  0  0  0  0  0  0  0
   -0.4710   -4.7354    8.6573 C   0  0  0  0  0  0  0  0  0  0  0  0
    0.7072   -4.1738    8.9286 C   0  0  0  0  0  0  0  0  0  0  0  0
    1.1173   -4.6712   10.2943 C   0  0  0  0  0  0  0  0  0  0  0  0
    0.5645   -6.0829   10.2079 C   0  0  0  0  0  0  0  0  0  0  0  0
    0.1723   -4.0780   11.3832 C   0  0  0  0  0  0  0  0  0  0  0  0
   -2.6753   -3.4300   -7.9388 H   0  0  0  0  0  0  0  0  0  0  0  0
   -0.9277   -6.9420  -11.6346 H   0  0  0  0  0  0  0  0  0  0  0  0
    2.8540   -6.7278   -8.2058 H   0  0  0  0  0  0  0  0  0  0  0  0
    3.9049   -8.0322  -11.2261 H   0  0  0  0  0  0  0  0  0  0  0  0
    3.5154  -10.0712   -9.3558 H   0  0  0  0  0  0  0  0  0  0  0  0
    4.5022  -11.2751  -11.5089 H   0  0  0  0  0  0  0  0  0  0  0  0
    2.6172  -11.3750  -13.3164 H   0  0  0  0  0  0  0  0  0  0  0  0
    0.4451  -10.2129  -12.3301 H   0  0  0  0  0  0  0  0  0  0  0  0
    1.4161  -11.4713  -10.2073 H   0  0  0  0  0  0  0  0  0  0  0  0
    0.8728   -9.8201   -9.7187 H   0  0  0  0  0  0  0  0  0  0  0  0
    2.1550   -8.0964  -12.8630 H   0  0  0  0  0  0  0  0  0  0  0  0
   -5.5306   -1.5320   -4.2010 H   0  0  0  0  0  0  0  0  0  0  0  0
   -7.2685    0.0464   -4.8838 H   0  0  0  0  0  0  0  0  0  0  0  0
   -7.8086    0.6061   -8.9799 H   0  0  0  0  0  0  0  0  0  0  0  0
   -9.3472    1.2920   -8.3235 H   0  0  0  0  0  0  0  0  0  0  0  0
   -8.5699   -0.1094   -7.4977 H   0  0  0  0  0  0  0  0  0  0  0  0
   -4.8418    1.3300   -8.1992 H   0  0  0  0  0  0  0  0  0  0  0  0
   -3.1031   -0.2829   -7.5592 H   0  0  0  0  0  0  0  0  0  0  0  0
   -2.6621   -2.2014   -2.7920 H   0  0  0  0  0  0  0  0  0  0  0  0
   -3.0942   -4.1897   -1.3891 H   0  0  0  0  0  0  0  0  0  0  0  0
   -2.4418   -7.6479   -3.4663 H   0  0  0  0  0  0  0  0  0  0  0  0
   -1.7725   -6.8599   -1.9689 H   0  0  0  0  0  0  0  0  0  0  0  0
   -2.4879   -8.5232   -1.8834 H   0  0  0  0  0  0  0  0  0  0  0  0
   -4.7143   -6.2499   -4.8018 H   0  0  0  0  0  0  0  0  0  0  0  0
   -4.2920   -4.2666   -6.2046 H   0  0  0  0  0  0  0  0  0  0  0  0
    2.2915    3.3349   -6.0040 H   0  0  0  0  0  0  0  0  0  0  0  0
    3.6905    4.9216   -4.7262 H   0  0  0  0  0  0  0  0  0  0  0  0
    4.5058    3.4108   -1.1001 H   0  0  0  0  0  0  0  0  0  0  0  0
    3.7126    4.9254   -1.7034 H   0  0  0  0  0  0  0  0  0  0  0  0
    5.0957    5.0154   -0.5479 H   0  0  0  0  0  0  0  0  0  0  0  0
    5.8906    1.6298   -3.0408 H   0  0  0  0  0  0  0  0  0  0  0  0
    4.5150    0.0423   -4.3449 H   0  0  0  0  0  0  0  0  0  0  0  0
    4.5710   -0.5171   -7.0113 H   0  0  0  0  0  0  0  0  0  0  0  0
    4.9633   -0.9169   -9.4158 H   0  0  0  0  0  0  0  0  0  0  0  0
    4.3535    1.4345  -13.1403 H   0  0  0  0  0  0  0  0  0  0  0  0
    4.9708    1.4886  -11.4375 H   0  0  0  0  0  0  0  0  0  0  0  0
    3.3081    2.1102  -11.8261 H   0  0  0  0  0  0  0  0  0  0  0  0
    1.1887    0.9320  -10.3520 H   0  0  0  0  0  0  0  0  0  0  0  0
    0.8040    1.3582   -7.9534 H   0  0  0  0  0  0  0  0  0  0  0  0
   -0.0947    3.5769   -3.2027 H   0  0  0  0  0  0  0  0  0  0  0  0
   -0.8408    9.4654   -2.0949 H   0  0  0  0  0  0  0  0  0  0  0  0
   -2.2853    8.8366   -2.9590 H   0  0  0  0  0  0  0  0  0  0  0  0
   -3.5672    8.8014   -0.7943 H   0  0  0  0  0  0  0  0  0  0  0  0
   -2.9222   10.4461   -1.1624 H   0  0  0  0  0  0  0  0  0  0  0  0
   -2.0986    9.4211    0.0746 H   0  0  0  0  0  0  0  0  0  0  0  0
    4.3155   -2.7614    3.2330 H   0  0  0  0  0  0  0  0  0  0  0  0
    4.3497   -3.3092    1.5178 H   0  0  0  0  0  0  0  0  0  0  0  0
    1.7721   -2.7082    3.1154 H   0  0  0  0  0  0  0  0  0  0  0  0
    2.4817   -4.3449    2.8486 H   0  0  0  0  0  0  0  0  0  0  0  0
    1.8811   -3.3935    1.4385 H   0  0  0  0  0  0  0  0  0  0  0  0
    2.9606    2.4910    3.0724 H   0  0  0  0  0  0  0  0  0  0  0  0
    0.6490    8.3875    3.9213 H   0  0  0  0  0  0  0  0  0  0  0  0
    2.6052    9.8328    4.2978 H   0  0  0  0  0  0  0  0  0  0  0  0
    5.5046    9.0865    5.4458 H   0  0  0  0  0  0  0  0  0  0  0  0
    4.4331   10.5010    5.7995 H   0  0  0  0  0  0  0  0  0  0  0  0
    4.9543    9.4198    7.1353 H   0  0  0  0  0  0  0  0  0  0  0  0
    4.0775    7.0694    7.2598 H   0  0  0  0  0  0  0  0  0  0  0  0
    2.1218    5.6425    6.9066 H   0  0  0  0  0  0  0  0  0  0  0  0
   -2.0951    5.2418    3.8226 H   0  0  0  0  0  0  0  0  0  0  0  0
   -4.3551    6.2065    3.8446 H   0  0  0  0  0  0  0  0  0  0  0  0
   -5.1948    9.4954    5.2038 H   0  0  0  0  0  0  0  0  0  0  0  0
   -5.7206    8.0871    6.2101 H   0  0  0  0  0  0  0  0  0  0  0  0
   -5.8571    8.0210    4.4097 H   0  0  0  0  0  0  0  0  0  0  0  0
   -3.0371    9.2491    6.5990 H   0  0  0  0  0  0  0  0  0  0  0  0
   -0.7883    8.2682    6.6094 H   0  0  0  0  0  0  0  0  0  0  0  0
    0.2178   -1.6368    5.4691 H   0  0  0  0  0  0  0  0  0  0  0  0
    2.4727   -2.6019    5.4567 H   0  0  0  0  0  0  0  0  0  0  0  0
    5.0556   -1.9515    8.0347 H   0  0  0  0  0  0  0  0  0  0  0  0
    4.6156   -2.9517    6.6075 H   0  0  0  0  0  0  0  0  0  0  0  0
    5.2034   -1.2602    6.3698 H   0  0  0  0  0  0  0  0  0  0  0  0
    3.6131   -0.0083    8.6987 H   0  0  0  0  0  0  0  0  0  0  0  0
    1.3616    0.9524    8.7262 H   0  0  0  0  0  0  0  0  0  0  0  0
   -2.7037    1.0189    5.3896 H   0  0  0  0  0  0  0  0  0  0  0  0
   -4.6735   -0.3162    4.8037 H   0  0  0  0  0  0  0  0  0  0  0  0
   -5.0836   -3.3711    4.7340 H   0  0  0  0  0  0  0  0  0  0  0  0
   -5.5734   -3.5556    6.4652 H   0  0  0  0  0  0  0  0  0  0  0  0
   -6.2094   -2.1794    5.5001 H   0  0  0  0  0  0  0  0  0  0  0  0
   -3.2888   -3.4913    7.3711 H   0  0  0  0  0  0  0  0  0  0  0  0
   -1.3187   -2.1448    7.9644 H   0  0  0  0  0  0  0  0  0  0  0  0
   -3.8888    1.9969    8.1855 H   0  0  0  0  0  0  0  0  0  0  0  0
    0.7753   -0.9390   11.1228 H   0  0  0  0  0  0  0  0  0  0  0  0
   -3.7578   -3.1069   10.2569 H   0  0  0  0  0  0  0  0  0  0  0  0
   -1.5603   -5.2400   11.9628 H   0  0  0  0  0  0  0  0  0  0  0  0
   -1.5744   -6.3873    9.6461 H   0  0  0  0  0  0  0  0  0  0  0  0
   -0.9998   -4.6740    7.7129 H   0  0  0  0  0  0  0  0  0  0  0  0
    1.2933   -3.5684    8.2483 H   0  0  0  0  0  0  0  0  0  0  0  0
    2.2045   -4.5954   10.5130 H   0  0  0  0  0  0  0  0  0  0  0  0
    1.0384   -6.6964    9.4042 H   0  0  0  0  0  0  0  0  0  0  0  0
    0.6066   -6.6389   11.1757 H   0  0  0  0  0  0  0  0  0  0  0  0
    0.5176   -4.2223   12.4309 H   0  0  0  0  0  0  0  0  0  0  0  0
  1  2  2  3
  2  3  1  0
  3  4  2  0
  3  5  1  0
  5  6  2  0
  6  7  1  0
  7  8  2  0
  8  9  1  0
  9 10  2  0
 10 11  1  0
 11 12  2  3
 12 13  1  0
 13 14  3  0
 12 15  1  0
 15 16  3  0
  8 17  1  0
 17 18  1  0
 18 19  1  0
 19 20  2  0
 20 21  1  0
 21 22  1  0
 21 23  1  0
  1 24  1  0
 24 25  2  0
 25 26  1  0
 26 27  1  0
 27 28  2  0
 28 29  1  0
 29 30  2  0
 30 31  1  0
 31 32  1  0
 30 33  1  0
 33 34  2  0
 26 35  1  0
 35 36  2  0
 36 37  1  0
 37 38  2  0
 38 39  1  0
 39 40  1  0
 38 41  1  0
 41 42  2  0
 25 43  1  0
 43 44  1  0
 44 45  1  0
 45 46  2  0
 46 47  1  0
 47 48  1  0
 48 49  2  0
 49 50  1  0
 50 51  2  0
 51 52  1  0
 52 53  1  0
 51 54  1  0
 54 55  2  0
 47 56  1  0
 56 57  2  0
 57 58  1  0
 58 59  2  0
 59 60  1  0
 60 61  1  0
 59 62  1  0
 62 63  2  0
 46 64  1  0
 64 65  1  0
 45 66  1  0
 66 67  2  0
 67 68  1  0
 68 69  2  0
 69 70  1  0
 70 71  1  0
 71 72  1  0
 72 73  1  0
 73 74  1  0
 72 75  2  0
 75 76  1  0
 75 77  1  0
 77 78  1  0
 69 79  1  0
 79 80  2  0
 80 81  1  0
 81 82  1  0
 82 83  1  0
 83 84  1  0
 84 85  1  0
 85 86  1  0
 84 87  2  0
 87 88  1  0
 88 89  1  0
 87 90  1  0
 81 91  2  0
 91 92  1  0
 80 93  1  0
 93 94  2  0
 94 95  1  0
 94 96  1  0
 96 97  2  0
 97 98  1  0
 98 99  1  0
 99100  2  0
100101  1  0
101102  2  0
102103  1  0
102104  1  0
104105  2  0
 98106  1  0
106107  2  0
107108  1  0
108109  2  0
109110  1  0
109111  1  0
111112  2  0
 97113  1  0
113114  1  0
114115  1  0
115116  2  0
116117  1  0
117118  1  0
118119  2  0
119120  1  0
120121  2  0
121122  1  0
121123  1  0
123124  2  0
117125  1  0
125126  2  0
126127  1  0
127128  2  0
128129  1  0
128130  1  0
130131  2  0
116132  1  0
132133  1  0
115134  1  0
134135  2  3
135136  1  0
136137  2  0
136138  1  0
138139  2  0
139140  1  0
140141  2  0
141142  1  0
142143  2  0
143144  1  0
144145  2  3
145146  1  0
146147  3  0
145148  1  0
148149  3  0
141150  1  0
150151  1  0
151152  1  0
152153  2  0
153154  1  0
154155  1  0
154156  1  0
 11  2  1  0
 23 17  1  0
 65 24  1  0
 92 66  1  0
133 96  1  0
144135  1  0
156150  1  0
 10  5  1  0
 22 18  1  0
 34 27  1  0
 42 35  1  0
 64 43  2  0
 91 68  1  0
105 99  1  0
112106  1  0
132113  2  0
143138  1  0
155151  1  0
 23  7  1  0
 55 48  1  0
 63 56  1  0
 77 70  2  0
 95 79  1  0
124118  1  0
131125  1  0
156140  1  0
 88 82  2  0
  1157  1  0
  6158  1  0
  9159  1  0
 17160  1  0
 18161  1  0
 19162  1  0
 20163  1  0
 21164  1  0
 22165  1  0
 22166  1  0
 23167  1  0
 28168  1  0
 29169  1  0
 32170  1  0
 32171  1  0
 32172  1  0
 33173  1  0
 34174  1  0
 36175  1  0
 37176  1  0
 40177  1  0
 40178  1  0
 40179  1  0
 41180  1  0
 42181  1  0
 49182  1  0
 50183  1  0
 53184  1  0
 53185  1  0
 53186  1  0
 54187  1  0
 55188  1  0
 57189  1  0
 58190  1  0
 61191  1  0
 61192  1  0
 61193  1  0
 62194  1  0
 63195  1  0
 67196  1  0
 73197  1  0
 73198  1  0
 74199  1  0
 74200  1  0
 74201  1  0
 85202  1  0
 85203  1  0
 86204  1  0
 86205  1  0
 86206  1  0
 93207  1  0
100208  1  0
101209  1  0
103210  1  0
103211  1  0
103212  1  0
104213  1  0
105214  1  0
107215  1  0
108216  1  0
110217  1  0
110218  1  0
110219  1  0
111220  1  0
112221  1  0
119222  1  0
120223  1  0
122224  1  0
122225  1  0
122226  1  0
123227  1  0
124228  1  0
126229  1  0
127230  1  0
129231  1  0
129232  1  0
129233  1  0
130234  1  0
131235  1  0
134236  1  0
139237  1  0
142238  1  0
150239  1  0
151240  1  0
152241  1  0
153242  1  0
154243  1  0
155244  1  0
155245  1  0
156246  1  0
M  END

