
     RDKit          3D

178199  0  0  0  0  0  0  0  0999 V2000
   -3.3512   -3.7620    3.5261 C   0  0  0  0  0  0  0  0  0  0  0  0
   -4.2229   -3.5838    4.5473 C   0  0  0  0  0  0  0  0  0  0  0  0
   -4.3065   -2.4455    5.4815 C   0  0  0  0  0  0  0  0  0  0  0  0
   -3.4090   -1.6067    5.7569 O   0  0  0  0  0  0  0  0  0  0  0  0
   -5.6514   -2.3786    6.0032 C   0  0  0  0  0  0  0  0  0  0  0  0
   -6.2371   -1.3021    6.7109 C   0  0  0  0  0  0  0  0  0  0  0  0
   -7.5968   -1.4368    6.9206 C   0  0  0  0  0  0  0  0  0  0  0  0
   -8.3511   -2.5487    6.4389 C   0  0  0  0  0  0  0  0  0  0  0  0
   -7.7812   -3.6134    5.7590 C   0  0  0  0  0  0  0  0  0  0  0  0
   -6.3787   -3.5034    5.5605 C   0  0  0  0  0  0  0  0  0  0  0  0
   -5.4720   -4.3796    4.7821 C   0  0  0  0  0  0  0  0  0  0  0  0
   -5.6134   -5.7163    4.6169 C   0  0  0  0  0  0  0  0  0  0  0  0
   -4.5624   -6.5632    4.0946 C   0  0  0  0  0  0  0  0  0  0  0  0
   -3.7180   -7.2321    3.6774 N   0  0  0  0  0  0  0  0  0  0  0  0
   -6.7395   -6.4353    5.1570 C   0  0  0  0  0  0  0  0  0  0  0  0
   -7.6161   -7.0350    5.6144 N   0  0  0  0  0  0  0  0  0  0  0  0
   -9.6206   -1.9357    6.9607 C   0  0  0  0  0  0  0  0  0  0  0  0
  -10.2204   -2.5983    8.2317 C   0  0  0  0  0  0  0  0  0  0  0  0
  -11.1958   -1.6037    8.8152 C   0  0  0  0  0  0  0  0  0  0  0  0
  -10.4582   -0.5986    9.3105 C   0  0  0  0  0  0  0  0  0  0  0  0
   -9.0158   -0.9489    9.0411 C   0  0  0  0  0  0  0  0  0  0  0  0
   -9.0983   -2.4563    9.2548 C   0  0  0  0  0  0  0  0  0  0  0  0
   -8.8319   -0.8208    7.4938 C   0  0  0  0  0  0  0  0  0  0  0  0
   -2.2375   -2.8507    3.1507 C   0  0  0  0  0  0  0  0  0  0  0  0
   -1.0770   -3.2012    2.4272 C   0  0  0  0  0  0  0  0  0  0  0  0
   -0.9245   -4.4500    1.7257 N   0  0  0  0  0  0  0  0  0  0  0  0
   -0.2481   -5.5409    2.3697 C   0  0  0  0  0  0  0  0  0  0  0  0
   -0.8063   -6.8260    2.3324 C   0  0  0  0  0  0  0  0  0  0  0  0
   -0.0916   -7.9244    2.7983 C   0  0  0  0  0  0  0  0  0  0  0  0
    1.2176   -7.7545    3.2639 C   0  0  0  0  0  0  0  0  0  0  0  0
    2.2077   -9.1924    3.6870 S   0  0  0  0  0  0  0  0  0  0  0  0
    2.7714   -9.4463    1.9673 C   0  0  0  0  0  0  0  0  0  0  0  0
    1.7721   -6.4737    3.3602 C   0  0  0  0  0  0  0  0  0  0  0  0
    1.0340   -5.3657    2.9218 C   0  0  0  0  0  0  0  0  0  0  0  0
   -1.3065   -4.5382    0.3289 C   0  0  0  0  0  0  0  0  0  0  0  0
   -0.6463   -5.4354   -0.5413 C   0  0  0  0  0  0  0  0  0  0  0  0
   -1.0346   -5.5418   -1.8815 C   0  0  0  0  0  0  0  0  0  0  0  0
   -2.0657   -4.7448   -2.3838 C   0  0  0  0  0  0  0  0  0  0  0  0
   -2.5865   -4.9400   -4.0807 S   0  0  0  0  0  0  0  0  0  0  0  0
   -1.3975   -3.7226   -4.7390 C   0  0  0  0  0  0  0  0  0  0  0  0
   -2.7161   -3.8368   -1.5398 C   0  0  0  0  0  0  0  0  0  0  0  0
   -2.3344   -3.7329   -0.1987 C   0  0  0  0  0  0  0  0  0  0  0  0
   -0.2830   -2.0844    2.1632 C   0  0  0  0  0  0  0  0  0  0  0  0
    1.1551   -1.8416    1.3584 S   0  0  0  0  0  0  0  0  0  0  0  0
    1.1381   -0.1406    1.5194 C   0  0  0  0  0  0  0  0  0  0  0  0
   -0.0647    0.2451    2.1681 C   0  0  0  0  0  0  0  0  0  0  0  0
   -0.5504    1.6072    2.2854 N   0  0  0  0  0  0  0  0  0  0  0  0
    0.3190    2.7310    2.5296 C   0  0  0  0  0  0  0  0  0  0  0  0
    0.0098    3.9899    1.9818 C   0  0  0  0  0  0  0  0  0  0  0  0
    0.7664    5.1085    2.3217 C   0  0  0  0  0  0  0  0  0  0  0  0
    1.8568    4.9881    3.1878 C   0  0  0  0  0  0  0  0  0  0  0  0
    2.8380    6.4276    3.6313 S   0  0  0  0  0  0  0  0  0  0  0  0
    3.6621    6.5535    2.0076 C   0  0  0  0  0  0  0  0  0  0  0  0
    2.1632    3.7388    3.7433 C   0  0  0  0  0  0  0  0  0  0  0  0
    1.3776    2.6221    3.4459 C   0  0  0  0  0  0  0  0  0  0  0  0
   -1.9614    1.8423    2.3771 C   0  0  0  0  0  0  0  0  0  0  0  0
   -2.7671    1.8329    1.2299 C   0  0  0  0  0  0  0  0  0  0  0  0
   -4.1398    2.0936    1.3388 C   0  0  0  0  0  0  0  0  0  0  0  0
   -4.7087    2.3382    2.5967 C   0  0  0  0  0  0  0  0  0  0  0  0
   -6.4658    2.6766    2.7489 S   0  0  0  0  0  0  0  0  0  0  0  0
   -6.2392    4.4827    2.7838 C   0  0  0  0  0  0  0  0  0  0  0  0
   -3.9086    2.3064    3.7457 C   0  0  0  0  0  0  0  0  0  0  0  0
   -2.5391    2.0963    3.6288 C   0  0  0  0  0  0  0  0  0  0  0  0
   -0.7995   -0.8915    2.5363 C   0  0  0  0  0  0  0  0  0  0  0  0
   -2.2754   -1.1520    3.2576 S   0  0  0  0  0  0  0  0  0  0  0  0
    2.0359    0.7235    0.7355 C   0  0  0  0  0  0  0  0  0  0  0  0
    3.2695    1.1897    1.2365 C   0  0  0  0  0  0  0  0  0  0  0  0
    3.8391    0.8934    2.4905 C   0  0  0  0  0  0  0  0  0  0  0  0
    5.0971    1.4599    2.6731 C   0  0  0  0  0  0  0  0  0  0  0  0
    5.9831    1.2942    3.8689 C   0  0  0  0  0  0  0  0  0  0  0  0
    5.5836    2.2480    4.9941 C   0  0  0  0  0  0  0  0  0  0  0  0
    5.4956    2.3545    1.2974 S   0  0  0  0  0  0  0  0  0  0  0  0
    4.1072    1.9740    0.4309 C   0  0  0  0  0  0  0  0  0  0  0  0
    3.8272    2.2348   -0.9235 C   0  0  0  0  0  0  0  0  0  0  0  0
    2.6356    1.6848   -1.4471 C   0  0  0  0  0  0  0  0  0  0  0  0
    1.7617    0.9734   -0.6138 C   0  0  0  0  0  0  0  0  0  0  0  0
    0.5129    0.3196   -1.5365 S   0  0  0  0  0  0  0  0  0  0  0  0
    1.0807    0.9070   -3.0087 C   0  0  0  0  0  0  0  0  0  0  0  0
    0.4584    0.5899   -4.3325 C   0  0  0  0  0  0  0  0  0  0  0  0
   -0.7253    1.5086   -4.6292 C   0  0  0  0  0  0  0  0  0  0  0  0
    2.2431    1.6464   -2.7990 C   0  0  0  0  0  0  0  0  0  0  0  0
    4.8175    2.9206   -1.7875 C   0  0  0  0  0  0  0  0  0  0  0  0
    6.0651    2.3357   -2.0359 C   0  0  0  0  0  0  0  0  0  0  0  0
    6.9734    2.8942   -2.9621 C   0  0  0  0  0  0  0  0  0  0  0  0
    8.1627    2.1250   -3.1912 N   0  0  0  0  0  0  0  0  0  0  0  0
    7.8818    0.8831   -2.2291 S   0  0  0  0  0  4  0  0  0  0  0  0
    6.4759    1.0745   -1.4946 N   0  0  0  0  0  0  0  0  0  0  0  0
    6.6305    4.0182   -3.7206 C   0  0  0  0  0  0  0  0  0  0  0  0
    5.4096    4.6555   -3.4353 C   0  0  0  0  0  0  0  0  0  0  0  0
    4.9796    5.7598   -4.1160 N   0  0  0  0  0  0  0  0  0  0  0  0
    3.4938    5.9787   -3.4168 S   0  0  0  0  0  0  0  0  0  0  0  0
    3.3116    4.7572   -2.3190 N   0  0  0  0  0  0  0  0  0  0  0  0
    4.4965    4.1088   -2.4787 C   0  0  0  0  0  0  0  0  0  0  0  0
    7.2969    4.2549   -5.0103 C   0  0  0  0  0  0  0  0  0  0  0  0
    6.9341    3.5618   -6.1105 C   0  0  0  0  0  0  0  0  0  0  0  0
    5.7243    2.7371   -6.1890 C   0  0  0  0  0  0  0  0  0  0  0  0
    5.0587    2.2550   -5.2281 O   0  0  0  0  0  0  0  0  0  0  0  0
    5.3398    2.6148   -7.5630 C   0  0  0  0  0  0  0  0  0  0  0  0
    4.1037    2.1435   -8.0294 C   0  0  0  0  0  0  0  0  0  0  0  0
    3.9290    2.2914   -9.3859 C   0  0  0  0  0  0  0  0  0  0  0  0
    4.9217    2.8474  -10.2509 C   0  0  0  0  0  0  0  0  0  0  0  0
    6.1317    3.3383   -9.7940 C   0  0  0  0  0  0  0  0  0  0  0  0
    6.3132    3.2291   -8.3833 C   0  0  0  0  0  0  0  0  0  0  0  0
    7.3990    3.7543   -7.5123 C   0  0  0  0  0  0  0  0  0  0  0  0
    8.6607    4.0792   -7.8916 C   0  0  0  0  0  0  0  0  0  0  0  0
    9.7068    4.3230   -6.9263 C   0  0  0  0  0  0  0  0  0  0  0  0
   10.5553    4.5162   -6.1617 N   0  0  0  0  0  0  0  0  0  0  0  0
    9.0835    4.1072   -9.2746 C   0  0  0  0  0  0  0  0  0  0  0  0
    9.4341    4.1246  -10.3821 N   0  0  0  0  0  0  0  0  0  0  0  0
    4.0047    2.6786  -11.4246 C   0  0  0  0  0  0  0  0  0  0  0  0
    3.3682    3.9676  -12.0094 C   0  0  0  0  0  0  0  0  0  0  0  0
    2.1780    3.5136  -12.8275 C   0  0  0  0  0  0  0  0  0  0  0  0
    1.2554    3.0990  -11.9532 C   0  0  0  0  0  0  0  0  0  0  0  0
    1.8601    3.2512  -10.5869 C   0  0  0  0  0  0  0  0  0  0  0  0
    2.6201    4.5486  -10.8270 C   0  0  0  0  0  0  0  0  0  0  0  0
    2.9752    2.1666  -10.5203 C   0  0  0  0  0  0  0  0  0  0  0  0
   -3.4883   -4.6087    2.8615 H   0  0  0  0  0  0  0  0  0  0  0  0
   -5.6696   -0.4361    7.0447 H   0  0  0  0  0  0  0  0  0  0  0  0
   -8.3838   -4.4000    5.3236 H   0  0  0  0  0  0  0  0  0  0  0  0
  -10.3544   -1.6260    6.1722 H   0  0  0  0  0  0  0  0  0  0  0  0
  -10.6014   -3.6297    8.1111 H   0  0  0  0  0  0  0  0  0  0  0  0
  -12.2539   -1.7375    8.9698 H   0  0  0  0  0  0  0  0  0  0  0  0
  -10.8313    0.2272    9.8944 H   0  0  0  0  0  0  0  0  0  0  0  0
   -8.2692   -0.4117    9.6589 H   0  0  0  0  0  0  0  0  0  0  0  0
   -8.1643   -3.0026    8.9994 H   0  0  0  0  0  0  0  0  0  0  0  0
   -9.3997   -2.7086   10.2978 H   0  0  0  0  0  0  0  0  0  0  0  0
   -9.0660    0.1917    7.0775 H   0  0  0  0  0  0  0  0  0  0  0  0
   -1.7760   -6.9722    1.8822 H   0  0  0  0  0  0  0  0  0  0  0  0
   -0.5215   -8.9180    2.7232 H   0  0  0  0  0  0  0  0  0  0  0  0
    1.9024   -9.6380    1.3058 H   0  0  0  0  0  0  0  0  0  0  0  0
    3.4511  -10.3206    1.9340 H   0  0  0  0  0  0  0  0  0  0  0  0
    3.3170   -8.5497    1.6104 H   0  0  0  0  0  0  0  0  0  0  0  0
    2.7708   -6.3356    3.7381 H   0  0  0  0  0  0  0  0  0  0  0  0
    1.4920   -4.3897    2.9487 H   0  0  0  0  0  0  0  0  0  0  0  0
    0.1600   -6.0655   -0.1886 H   0  0  0  0  0  0  0  0  0  0  0  0
   -0.5274   -6.2593   -2.5214 H   0  0  0  0  0  0  0  0  0  0  0  0
   -0.3707   -3.9288   -4.3557 H   0  0  0  0  0  0  0  0  0  0  0  0
   -1.3928   -3.7797   -5.8508 H   0  0  0  0  0  0  0  0  0  0  0  0
   -1.7012   -2.6986   -4.4348 H   0  0  0  0  0  0  0  0  0  0  0  0
   -3.5291   -3.2373   -1.9142 H   0  0  0  0  0  0  0  0  0  0  0  0
   -2.8646   -3.0307    0.4335 H   0  0  0  0  0  0  0  0  0  0  0  0
   -0.8329    4.1087    1.3110 H   0  0  0  0  0  0  0  0  0  0  0  0
    0.4995    6.0722    1.9116 H   0  0  0  0  0  0  0  0  0  0  0  0
    3.8995    5.5511    1.5875 H   0  0  0  0  0  0  0  0  0  0  0  0
    3.0006    7.1000    1.3033 H   0  0  0  0  0  0  0  0  0  0  0  0
    4.6015    7.1204    2.1309 H   0  0  0  0  0  0  0  0  0  0  0  0
    2.9805    3.6424    4.4366 H   0  0  0  0  0  0  0  0  0  0  0  0
    1.5812    1.6792    3.9366 H   0  0  0  0  0  0  0  0  0  0  0  0
   -2.3354    1.6384    0.2591 H   0  0  0  0  0  0  0  0  0  0  0  0
   -4.7595    2.1192    0.4473 H   0  0  0  0  0  0  0  0  0  0  0  0
   -5.5763    4.7614    3.6293 H   0  0  0  0  0  0  0  0  0  0  0  0
   -5.7964    4.8312    1.8283 H   0  0  0  0  0  0  0  0  0  0  0  0
   -7.2260    4.9640    2.9317 H   0  0  0  0  0  0  0  0  0  0  0  0
   -4.3475    2.4491    4.7206 H   0  0  0  0  0  0  0  0  0  0  0  0
   -1.9181    2.1012    4.5149 H   0  0  0  0  0  0  0  0  0  0  0  0
    3.3762    0.2379    3.2243 H   0  0  0  0  0  0  0  0  0  0  0  0
    5.9183    0.2513    4.2298 H   0  0  0  0  0  0  0  0  0  0  0  0
    7.0358    1.4975    3.5813 H   0  0  0  0  0  0  0  0  0  0  0  0
    6.2898    2.1224    5.8475 H   0  0  0  0  0  0  0  0  0  0  0  0
    4.5563    2.0130    5.3449 H   0  0  0  0  0  0  0  0  0  0  0  0
    5.6339    3.3009    4.6375 H   0  0  0  0  0  0  0  0  0  0  0  0
    0.1116   -0.4627   -4.3125 H   0  0  0  0  0  0  0  0  0  0  0  0
    1.2131    0.6715   -5.1442 H   0  0  0  0  0  0  0  0  0  0  0  0
   -1.3351    1.0638   -5.4370 H   0  0  0  0  0  0  0  0  0  0  0  0
   -1.3584    1.6328   -3.7233 H   0  0  0  0  0  0  0  0  0  0  0  0
   -0.3540    2.4968   -4.9689 H   0  0  0  0  0  0  0  0  0  0  0  0
    2.8162    2.0859   -3.6070 H   0  0  0  0  0  0  0  0  0  0  0  0
    8.1023    4.9804   -5.0455 H   0  0  0  0  0  0  0  0  0  0  0  0
    3.3156    1.7811   -7.3808 H   0  0  0  0  0  0  0  0  0  0  0  0
    6.8188    3.8320  -10.4619 H   0  0  0  0  0  0  0  0  0  0  0  0
    4.3792    1.9399  -12.1678 H   0  0  0  0  0  0  0  0  0  0  0  0
    4.0537    4.6499  -12.5470 H   0  0  0  0  0  0  0  0  0  0  0  0
    2.1310    3.3387  -13.8966 H   0  0  0  0  0  0  0  0  0  0  0  0
    0.3128    2.6228  -12.1976 H   0  0  0  0  0  0  0  0  0  0  0  0
    1.1322    3.2480   -9.7515 H   0  0  0  0  0  0  0  0  0  0  0  0
    1.9591    5.4011  -11.1268 H   0  0  0  0  0  0  0  0  0  0  0  0
    3.2812    4.8654   -9.9840 H   0  0  0  0  0  0  0  0  0  0  0  0
    2.6504    1.1214  -10.7188 H   0  0  0  0  0  0  0  0  0  0  0  0
  1  2  2  3
  2  3  1  0
  3  4  2  0
  3  5  1  0
  5  6  2  0
  6  7  1  0
  7  8  2  0
  8  9  1  0
  9 10  2  0
 10 11  1  0
 11 12  2  3
 12 13  1  0
 13 14  3  0
 12 15  1  0
 15 16  3  0
  8 17  1  0
 17 18  1  0
 18 19  1  0
 19 20  2  0
 20 21  1  0
 21 22  1  0
 21 23  1  0
  1 24  1  0
 24 25  2  0
 25 26  1  0
 26 27  1  0
 27 28  2  0
 28 29  1  0
 29 30  2  0
 30 31  1  0
 31 32  1  0
 30 33  1  0
 33 34  2  0
 26 35  1  0
 35 36  2  0
 36 37  1  0
 37 38  2  0
 38 39  1  0
 39 40  1  0
 38 41  1  0
 41 42  2  0
 25 43  1  0
 43 44  1  0
 44 45  1  0
 45 46  2  0
 46 47  1  0
 47 48  1  0
 48 49  2  0
 49 50  1  0
 50 51  2  0
 51 52  1  0
 52 53  1  0
 51 54  1  0
 54 55  2  0
 47 56  1  0
 56 57  2  0
 57 58  1  0
 58 59  2  0
 59 60  1  0
 60 61  1  0
 59 62  1  0
 62 63  2  0
 46 64  1  0
 64 65  1  0
 45 66  1  0
 66 67  2  0
 67 68  1  0
 68 69  2  0
 69 70  1  0
 70 71  1  0
 69 72  1  0
 72 73  1  0
 73 74  2  0
 74 75  1  0
 75 76  2  0
 76 77  1  0
 77 78  1  0
 78 79  1  0
 79 80  1  0
 78 81  2  0
 74 82  1  0
 82 83  2  0
 83 84  1  0
 84 85  1  0
 85 86  2  0
 86 87  2  0
 84 88  2  0
 88 89  1  0
 89 90  2  0
 90 91  1  0
 91 92  1  0
 92 93  2  0
 88 94  1  0
 94 95  2  3
 95 96  1  0
 96 97  2  0
 96 98  1  0
 98 99  2  0
 99100  1  0
100101  2  0
101102  1  0
102103  2  0
103104  1  0
104105  2  3
105106  1  0
106107  3  0
105108  1  0
108109  3  0
101110  1  0
110111  1  0
111112  1  0
112113  2  0
113114  1  0
114115  1  0
114116  1  0
 11  2  1  0
 23 17  1  0
 65 24  1  0
 76 66  1  0
 93 82  1  0
104 95  1  0
116110  1  0
 10  5  1  0
 22 18  1  0
 34 27  1  0
 42 35  1  0
 64 43  2  0
 73 67  1  0
 81 75  1  0
 87 83  1  0
 93 89  1  0
103 98  1  0
115111  1  0
 23  7  1  0
 55 48  1  0
 63 56  1  0
116100  1  0
  1117  1  0
  6118  1  0
  9119  1  0
 17120  1  0
 18121  1  0
 19122  1  0
 20123  1  0
 21124  1  0
 22125  1  0
 22126  1  0
 23127  1  0
 28128  1  0
 29129  1  0
 32130  1  0
 32131  1  0
 32132  1  0
 33133  1  0
 34134  1  0
 36135  1  0
 37136  1  0
 40137  1  0
 40138  1  0
 40139  1  0
 41140  1  0
 42141  1  0
 49142  1  0
 50143  1  0
 53144  1  0
 53145  1  0
 53146  1  0
 54147  1  0
 55148  1  0
 57149  1  0
 58150  1  0
 61151  1  0
 61152  1  0
 61153  1  0
 62154  1  0
 63155  1  0
 68156  1  0
 70157  1  0
 70158  1  0
 71159  1  0
 71160  1  0
 71161  1  0
 79162  1  0
 79163  1  0
 80164  1  0
 80165  1  0
 80166  1  0
 81167  1  0
 94168  1  0
 99169  1  0
102170  1  0
110171  1  0
111172  1  0
112173  1  0
113174  1  0
114175  1  0
115176  1  0
115177  1  0
116178  1  0
M  END

