
     RDKit          3D

264290  0  0  0  0  0  0  0  0999 V2000
   -1.8115    8.1137   -4.6517 C   0  0  0  0  0  0  0  0  0  0  0  0
   -3.0775    7.6982   -4.8920 C   0  0  0  0  0  0  0  0  0  0  0  0
   -3.6173    6.4096   -4.4358 C   0  0  0  0  0  0  0  0  0  0  0  0
   -2.9980    5.3192   -4.3628 O   0  0  0  0  0  0  0  0  0  0  0  0
   -5.0032    6.5591   -4.1109 C   0  0  0  0  0  0  0  0  0  0  0  0
   -5.8023    5.6170   -3.4340 C   0  0  0  0  0  0  0  0  0  0  0  0
   -7.0725    6.0590   -3.1624 C   0  0  0  0  0  0  0  0  0  0  0  0
   -7.5531    7.3571   -3.5357 C   0  0  0  0  0  0  0  0  0  0  0  0
   -6.7576    8.2984   -4.1781 C   0  0  0  0  0  0  0  0  0  0  0  0
   -5.4338    7.8565   -4.4734 C   0  0  0  0  0  0  0  0  0  0  0  0
   -4.2721    8.5843   -5.0828 C   0  0  0  0  0  0  0  0  0  0  0  0
   -4.2949    9.7715   -5.7409 C   0  0  0  0  0  0  0  0  0  0  0  0
   -3.1257   10.2812   -6.4136 C   0  0  0  0  0  0  0  0  0  0  0  0
   -2.1757   10.6828   -6.9343 N   0  0  0  0  0  0  0  0  0  0  0  0
   -5.4777   10.5863   -5.8366 C   0  0  0  0  0  0  0  0  0  0  0  0
   -6.4254   11.2546   -5.8788 N   0  0  0  0  0  0  0  0  0  0  0  0
   -8.9050    7.0271   -2.9623 C   0  0  0  0  0  0  0  0  0  0  0  0
  -10.0348    6.6764   -3.9831 C   0  0  0  0  0  0  0  0  0  0  0  0
  -11.1244    6.0109   -3.1789 C   0  0  0  0  0  0  0  0  0  0  0  0
  -10.6520    4.8139   -2.8205 C   0  0  0  0  0  0  0  0  0  0  0  0
   -9.2590    4.7120   -3.3892 C   0  0  0  0  0  0  0  0  0  0  0  0
   -9.4893    5.4517   -4.6946 C   0  0  0  0  0  0  0  0  0  0  0  0
   -8.3968    5.7088   -2.5671 C   0  0  0  0  0  0  0  0  0  0  0  0
   -0.9561    7.3546   -3.7313 C   0  0  0  0  0  0  0  0  0  0  0  0
   -0.3120    6.1546   -4.0640 C   0  0  0  0  0  0  0  0  0  0  0  0
    0.4952    5.9327   -5.2368 N   0  0  0  0  0  0  0  0  0  0  0  0
    1.8299    5.4072   -5.0667 C   0  0  0  0  0  0  0  0  0  0  0  0
    2.7100    6.0002   -4.1448 C   0  0  0  0  0  0  0  0  0  0  0  0
    3.9853    5.4680   -3.9434 C   0  0  0  0  0  0  0  0  0  0  0  0
    4.3878    4.3236   -4.6406 C   0  0  0  0  0  0  0  0  0  0  0  0
    6.0253    3.6345   -4.3848 S   0  0  0  0  0  0  0  0  0  0  0  0
    5.5163    2.5987   -2.9799 C   0  0  0  0  0  0  0  0  0  0  0  0
    3.5145    3.7258   -5.5573 C   0  0  0  0  0  0  0  0  0  0  0  0
    2.2438    4.2660   -5.7738 C   0  0  0  0  0  0  0  0  0  0  0  0
    0.0062    6.1883   -6.5597 C   0  0  0  0  0  0  0  0  0  0  0  0
   -1.1084    5.4887   -7.0492 C   0  0  0  0  0  0  0  0  0  0  0  0
   -1.4902    5.6155   -8.3870 C   0  0  0  0  0  0  0  0  0  0  0  0
   -0.7530    6.4400   -9.2502 C   0  0  0  0  0  0  0  0  0  0  0  0
   -1.1954    6.5276  -10.9874 S   0  0  0  0  0  0  0  0  0  0  0  0
   -2.2681    7.9814  -10.7712 C   0  0  0  0  0  0  0  0  0  0  0  0
    0.3632    7.1362   -8.7722 C   0  0  0  0  0  0  0  0  0  0  0  0
    0.7396    7.0150   -7.4286 C   0  0  0  0  0  0  0  0  0  0  0  0
   -0.3511    5.2525   -3.0038 C   0  0  0  0  0  0  0  0  0  0  0  0
   -0.1371    3.6190   -2.9167 S   0  0  0  0  0  0  0  0  0  0  0  0
   -0.7462    3.4395   -1.3330 C   0  0  0  0  0  0  0  0  0  0  0  0
   -1.0982    4.7308   -0.8414 C   0  0  0  0  0  0  0  0  0  0  0  0
   -1.1691    5.1265    0.5463 N   0  0  0  0  0  0  0  0  0  0  0  0
    0.0709    5.1956    1.3136 C   0  0  0  0  0  0  0  0  0  0  0  0
    1.3257    4.9160    0.7196 C   0  0  0  0  0  0  0  0  0  0  0  0
    2.5093    5.0814    1.4343 C   0  0  0  0  0  0  0  0  0  0  0  0
    2.4766    5.5005    2.7671 C   0  0  0  0  0  0  0  0  0  0  0  0
    4.0095    5.7397    3.6649 S   0  0  0  0  0  0  0  0  0  0  0  0
    4.1774    3.9793    4.0921 C   0  0  0  0  0  0  0  0  0  0  0  0
    1.2465    5.7746    3.3746 C   0  0  0  0  0  0  0  0  0  0  0  0
    0.0567    5.6175    2.6611 C   0  0  0  0  0  0  0  0  0  0  0  0
   -2.2441    6.0315    0.8948 C   0  0  0  0  0  0  0  0  0  0  0  0
   -3.5524    5.5549    1.0534 C   0  0  0  0  0  0  0  0  0  0  0  0
   -4.6212    6.4388    1.2249 C   0  0  0  0  0  0  0  0  0  0  0  0
   -4.3923    7.8166    1.2271 C   0  0  0  0  0  0  0  0  0  0  0  0
   -5.7769    8.9522    1.3288 S   0  0  0  0  0  0  0  0  0  0  0  0
   -6.1410    8.8610   -0.4564 C   0  0  0  0  0  0  0  0  0  0  0  0
   -3.0842    8.3042    1.1422 C   0  0  0  0  0  0  0  0  0  0  0  0
   -2.0143    7.4144    0.9992 C   0  0  0  0  0  0  0  0  0  0  0  0
   -0.9069    5.6871   -1.8510 C   0  0  0  0  0  0  0  0  0  0  0  0
   -1.4241    7.2562   -2.0944 S   0  0  0  0  0  0  0  0  0  0  0  0
   -0.9181    2.0662   -0.7905 C   0  0  0  0  0  0  0  0  0  0  0  0
   -1.0921    1.5692    0.5216 C   0  0  0  0  0  0  0  0  0  0  0  0
   -1.8766    2.2115    1.5345 N   0  0  0  0  0  0  0  0  0  0  0  0
   -3.2872    1.8695    1.4666 C   0  0  0  0  0  0  0  0  0  0  0  0
   -3.8999    1.1286    2.4976 C   0  0  0  0  0  0  0  0  0  0  0  0
   -5.2323    0.7245    2.3842 C   0  0  0  0  0  0  0  0  0  0  0  0
   -5.9712    1.0479    1.2382 C   0  0  0  0  0  0  0  0  0  0  0  0
   -7.6907    0.5584    1.1068 S   0  0  0  0  0  0  0  0  0  0  0  0
   -7.3164   -0.9815    0.2143 C   0  0  0  0  0  0  0  0  0  0  0  0
   -5.3629    1.7562    0.1951 C   0  0  0  0  0  0  0  0  0  0  0  0
   -4.0242    2.1354    0.2925 C   0  0  0  0  0  0  0  0  0  0  0  0
   -1.2740    2.5722    2.8040 C   0  0  0  0  0  0  0  0  0  0  0  0
    0.0479    2.1969    3.1273 C   0  0  0  0  0  0  0  0  0  0  0  0
    0.5514    2.4038    4.4162 C   0  0  0  0  0  0  0  0  0  0  0  0
   -0.2431    3.0145    5.3944 C   0  0  0  0  0  0  0  0  0  0  0  0
    0.3339    3.1142    7.0902 S   0  0  0  0  0  0  0  0  0  0  0  0
    0.9718    4.8090    6.9329 C   0  0  0  0  0  0  0  0  0  0  0  0
   -1.5273    3.4554    5.0699 C   0  0  0  0  0  0  0  0  0  0  0  0
   -2.0314    3.2593    3.7801 C   0  0  0  0  0  0  0  0  0  0  0  0
   -0.9955    0.1648    0.5245 C   0  0  0  0  0  0  0  0  0  0  0  0
   -0.8424   -0.9877    1.7274 S   0  0  0  0  0  0  0  0  0  0  0  0
   -0.6528   -2.2981    0.6435 C   0  0  0  0  0  0  0  0  0  0  0  0
   -0.8319   -1.8350   -0.6755 C   0  0  0  0  0  0  0  0  0  0  0  0
   -0.9790   -2.6801   -1.8497 N   0  0  0  0  0  0  0  0  0  0  0  0
   -1.5010   -2.1060   -3.0539 C   0  0  0  0  0  0  0  0  0  0  0  0
   -2.8856   -1.9192   -3.1860 C   0  0  0  0  0  0  0  0  0  0  0  0
   -3.4023   -1.2739   -4.3111 C   0  0  0  0  0  0  0  0  0  0  0  0
   -2.5333   -0.7837   -5.2899 C   0  0  0  0  0  0  0  0  0  0  0  0
   -3.1996    0.1461   -6.6736 S   0  0  0  0  0  0  0  0  0  0  0  0
   -3.2151    1.7230   -5.7561 C   0  0  0  0  0  0  0  0  0  0  0  0
   -1.1535   -1.0019   -5.1827 C   0  0  0  0  0  0  0  0  0  0  0  0
   -0.6365   -1.6740   -4.0709 C   0  0  0  0  0  0  0  0  0  0  0  0
   -1.1043   -4.1125   -1.7482 C   0  0  0  0  0  0  0  0  0  0  0  0
   -2.0460   -4.6927   -0.8804 C   0  0  0  0  0  0  0  0  0  0  0  0
   -2.2149   -6.0759   -0.8482 C   0  0  0  0  0  0  0  0  0  0  0  0
   -1.4634   -6.8957   -1.6995 C   0  0  0  0  0  0  0  0  0  0  0  0
   -1.7159   -8.6701   -1.6912 S   0  0  0  0  0  0  0  0  0  0  0  0
   -3.0367   -8.6074   -2.9417 C   0  0  0  0  0  0  0  0  0  0  0  0
   -0.5293   -6.3231   -2.5726 C   0  0  0  0  0  0  0  0  0  0  0  0
   -0.3522   -4.9395   -2.5982 C   0  0  0  0  0  0  0  0  0  0  0  0
   -0.9251   -0.4418   -0.6794 C   0  0  0  0  0  0  0  0  0  0  0  0
   -0.8127    0.7297   -1.8445 S   0  0  0  0  0  0  0  0  0  0  0  0
    0.2557   -3.4038    0.9612 C   0  0  0  0  0  0  0  0  0  0  0  0
    0.3571   -4.0727    2.1781 C   0  0  0  0  0  0  0  0  0  0  0  0
    1.5273   -4.8533    2.2682 C   0  0  0  0  0  0  0  0  0  0  0  0
    1.9681   -5.5710    3.3969 C   0  0  0  0  0  0  0  0  0  0  0  0
    1.2669   -5.4637    4.6879 C   0  0  0  0  0  0  0  0  0  0  0  0
    0.3064   -6.4041    5.0669 C   0  0  0  0  0  0  0  0  0  0  0  0
   -0.4119   -6.2366    6.2545 C   0  0  0  0  0  0  0  0  0  0  0  0
   -0.1751   -5.1229    7.0798 C   0  0  0  0  0  0  0  0  0  0  0  0
   -0.9157   -4.9015    8.2546 O   0  0  0  0  0  0  0  0  0  0  0  0
   -2.0250   -5.6898    8.6722 C   0  0  0  0  0  0  0  0  0  0  0  0
   -2.6337   -5.0801    9.9274 C   0  0  0  0  0  0  0  0  0  0  0  0
    0.8177   -4.1856    6.7185 C   0  0  0  0  0  0  0  0  0  0  0  0
    1.0807   -2.9826    7.5968 C   0  0  0  0  0  0  0  0  0  0  0  0
    2.1365   -2.2214    7.1247 F   0  0  0  0  0  0  0  0  0  0  0  0
    1.3947   -3.3997    8.8786 F   0  0  0  0  0  0  0  0  0  0  0  0
   -0.0464   -2.1852    7.6402 F   0  0  0  0  0  0  0  0  0  0  0  0
    1.5245   -4.3646    5.5134 C   0  0  0  0  0  0  0  0  0  0  0  0
    3.2230   -6.2007    3.3007 C   0  0  0  0  0  0  0  0  0  0  0  0
    4.0450   -6.0704    2.1786 C   0  0  0  0  0  0  0  0  0  0  0  0
    3.6290   -5.3066    1.0721 C   0  0  0  0  0  0  0  0  0  0  0  0
    4.5777   -4.8570    0.0249 C   0  0  0  0  0  0  0  0  0  0  0  0
    5.6940   -4.0987    0.4004 C   0  0  0  0  0  0  0  0  0  0  0  0
    6.5052   -3.5093   -0.5694 C   0  0  0  0  0  0  0  0  0  0  0  0
    6.2086   -3.6552   -1.9339 C   0  0  0  0  0  0  0  0  0  0  0  0
    6.9770   -3.0185   -2.9245 O   0  0  0  0  0  0  0  0  0  0  0  0
    8.0574   -2.1252   -2.6595 C   0  0  0  0  0  0  0  0  0  0  0  0
    8.6096   -1.5940   -3.9705 C   0  0  0  0  0  0  0  0  0  0  0  0
    5.1017   -4.4436   -2.3249 C   0  0  0  0  0  0  0  0  0  0  0  0
    4.2912   -5.0328   -1.3357 C   0  0  0  0  0  0  0  0  0  0  0  0
    4.7578   -4.5817   -3.7895 C   0  0  0  0  0  0  0  0  0  0  0  0
    5.8642   -5.0250   -4.4854 F   0  0  0  0  0  0  0  0  0  0  0  0
    4.3789   -3.3494   -4.2907 F   0  0  0  0  0  0  0  0  0  0  0  0
    3.7221   -5.4745   -3.9919 F   0  0  0  0  0  0  0  0  0  0  0  0
    2.3391   -4.7593    1.1376 C   0  0  0  0  0  0  0  0  0  0  0  0
    1.6261   -3.7239    0.0409 S   0  0  0  0  0  0  0  0  0  0  0  0
    5.2796   -6.7135    2.3214 C   0  0  0  0  0  0  0  0  0  0  0  0
    5.4480   -7.3347    3.5548 C   0  0  0  0  0  0  0  0  0  0  0  0
    4.0379   -7.1033    4.4579 S   0  0  0  0  0  0  0  0  0  0  0  0
    6.6779   -8.0901    3.8894 C   0  0  0  0  0  0  0  0  0  0  0  0
    7.0548   -8.6073    5.0752 C   0  0  0  0  0  0  0  0  0  0  0  0
    6.2769   -8.7163    6.3218 C   0  0  0  0  0  0  0  0  0  0  0  0
    5.4600   -7.8750    6.7747 O   0  0  0  0  0  0  0  0  0  0  0  0
    6.7592   -9.8700    7.0587 C   0  0  0  0  0  0  0  0  0  0  0  0
    6.1784  -10.4622    8.2042 C   0  0  0  0  0  0  0  0  0  0  0  0
    6.8036  -11.6236    8.6095 C   0  0  0  0  0  0  0  0  0  0  0  0
    7.9379  -12.1812    7.9346 C   0  0  0  0  0  0  0  0  0  0  0  0
    8.5077  -11.6087    6.8125 C   0  0  0  0  0  0  0  0  0  0  0  0
    7.8924  -10.3982    6.3927 C   0  0  0  0  0  0  0  0  0  0  0  0
    8.2193   -9.5214    5.2424 C   0  0  0  0  0  0  0  0  0  0  0  0
    9.4422   -9.3574    4.6858 C   0  0  0  0  0  0  0  0  0  0  0  0
    9.7423   -8.2147    3.8543 C   0  0  0  0  0  0  0  0  0  0  0  0
    9.9911   -7.2965    3.1976 N   0  0  0  0  0  0  0  0  0  0  0  0
   10.5670  -10.1779    5.0383 C   0  0  0  0  0  0  0  0  0  0  0  0
   11.4849  -10.8344    5.3208 N   0  0  0  0  0  0  0  0  0  0  0  0
    7.9586  -13.3417    8.8856 C   0  0  0  0  0  0  0  0  0  0  0  0
    7.4394  -14.7171    8.3693 C   0  0  0  0  0  0  0  0  0  0  0  0
    6.3763  -14.5054    7.3154 C   0  0  0  0  0  0  0  0  0  0  0  0
    5.3186  -13.9812    7.9397 C   0  0  0  0  0  0  0  0  0  0  0  0
    5.6968  -13.8633    9.3994 C   0  0  0  0  0  0  0  0  0  0  0  0
    6.5485  -15.1113    9.5327 C   0  0  0  0  0  0  0  0  0  0  0  0
    6.7964  -12.7725    9.5787 C   0  0  0  0  0  0  0  0  0  0  0  0
   -1.5471    9.1477   -4.7864 H   0  0  0  0  0  0  0  0  0  0  0  0
   -5.4516    4.6380   -3.1384 H   0  0  0  0  0  0  0  0  0  0  0  0
   -7.1430    9.2819   -4.3945 H   0  0  0  0  0  0  0  0  0  0  0  0
   -9.2006    7.6827   -2.1166 H   0  0  0  0  0  0  0  0  0  0  0  0
  -10.3654    7.5128   -4.6341 H   0  0  0  0  0  0  0  0  0  0  0  0
  -12.1321    6.3676   -3.0195 H   0  0  0  0  0  0  0  0  0  0  0  0
  -11.2069    4.0316   -2.3100 H   0  0  0  0  0  0  0  0  0  0  0  0
   -8.8482    3.6840   -3.4735 H   0  0  0  0  0  0  0  0  0  0  0  0
   -8.5673    5.6385   -5.2776 H   0  0  0  0  0  0  0  0  0  0  0  0
  -10.2377    4.9575   -5.3577 H   0  0  0  0  0  0  0  0  0  0  0  0
   -8.3618    5.5313   -1.4672 H   0  0  0  0  0  0  0  0  0  0  0  0
    2.4046    6.8778   -3.5851 H   0  0  0  0  0  0  0  0  0  0  0  0
    4.6534    5.9286   -3.2238 H   0  0  0  0  0  0  0  0  0  0  0  0
    5.2968    3.2423   -2.1034 H   0  0  0  0  0  0  0  0  0  0  0  0
    6.3498    1.9170   -2.7198 H   0  0  0  0  0  0  0  0  0  0  0  0
    4.6212    1.9944   -3.2399 H   0  0  0  0  0  0  0  0  0  0  0  0
    3.8189    2.8351   -6.0946 H   0  0  0  0  0  0  0  0  0  0  0  0
    1.5711    3.7745   -6.4647 H   0  0  0  0  0  0  0  0  0  0  0  0
   -1.6363    4.7938   -6.4157 H   0  0  0  0  0  0  0  0  0  0  0  0
   -2.3218    5.0385   -8.7675 H   0  0  0  0  0  0  0  0  0  0  0  0
   -3.0356    7.7826   -9.9910 H   0  0  0  0  0  0  0  0  0  0  0  0
   -1.6549    8.8621  -10.4809 H   0  0  0  0  0  0  0  0  0  0  0  0
   -2.7766    8.1938  -11.7344 H   0  0  0  0  0  0  0  0  0  0  0  0
    0.9504    7.7542   -9.4414 H   0  0  0  0  0  0  0  0  0  0  0  0
    1.6139    7.5378   -7.0717 H   0  0  0  0  0  0  0  0  0  0  0  0
    1.4126    4.6155   -0.3140 H   0  0  0  0  0  0  0  0  0  0  0  0
    3.4586    4.8901    0.9470 H   0  0  0  0  0  0  0  0  0  0  0  0
    5.1522    3.8211    4.5955 H   0  0  0  0  0  0  0  0  0  0  0  0
    3.3624    3.6778    4.7787 H   0  0  0  0  0  0  0  0  0  0  0  0
    4.1443    3.3516    3.1762 H   0  0  0  0  0  0  0  0  0  0  0  0
    1.2143    6.1299    4.3928 H   0  0  0  0  0  0  0  0  0  0  0  0
   -0.8758    5.8524    3.1576 H   0  0  0  0  0  0  0  0  0  0  0  0
   -3.7521    4.5073    1.0382 H   0  0  0  0  0  0  0  0  0  0  0  0
   -5.6297    6.0529    1.3173 H   0  0  0  0  0  0  0  0  0  0  0  0
   -5.2435    9.1337   -1.0527 H   0  0  0  0  0  0  0  0  0  0  0  0
   -6.4630    7.8306   -0.7208 H   0  0  0  0  0  0  0  0  0  0  0  0
   -6.9641    9.5665   -0.6996 H   0  0  0  0  0  0  0  0  0  0  0  0
   -2.8992    9.3712    1.1557 H   0  0  0  0  0  0  0  0  0  0  0  0
   -1.0106    7.8102    0.8976 H   0  0  0  0  0  0  0  0  0  0  0  0
   -3.3374    0.8375    3.3743 H   0  0  0  0  0  0  0  0  0  0  0  0
   -5.6891    0.1594    3.1831 H   0  0  0  0  0  0  0  0  0  0  0  0
   -8.2656   -1.5102   -0.0082 H   0  0  0  0  0  0  0  0  0  0  0  0
   -6.8000   -0.7507   -0.7419 H   0  0  0  0  0  0  0  0  0  0  0  0
   -6.6726   -1.6354    0.8380 H   0  0  0  0  0  0  0  0  0  0  0  0
   -5.9304    2.0054   -0.6957 H   0  0  0  0  0  0  0  0  0  0  0  0
   -3.5723    2.6728   -0.5333 H   0  0  0  0  0  0  0  0  0  0  0  0
    0.6834    1.7023    2.4082 H   0  0  0  0  0  0  0  0  0  0  0  0
    1.5449    2.0581    4.6628 H   0  0  0  0  0  0  0  0  0  0  0  0
    1.2733    5.1754    7.9376 H   0  0  0  0  0  0  0  0  0  0  0  0
    1.8600    4.8160    6.2669 H   0  0  0  0  0  0  0  0  0  0  0  0
    0.1818    5.4790    6.5282 H   0  0  0  0  0  0  0  0  0  0  0  0
   -2.1442    3.9334    5.8193 H   0  0  0  0  0  0  0  0  0  0  0  0
   -3.0295    3.6069    3.5565 H   0  0  0  0  0  0  0  0  0  0  0  0
   -3.5612   -2.2645   -2.4117 H   0  0  0  0  0  0  0  0  0  0  0  0
   -4.4697   -1.1219   -4.4047 H   0  0  0  0  0  0  0  0  0  0  0  0
   -3.6694    2.5108   -6.3940 H   0  0  0  0  0  0  0  0  0  0  0  0
   -3.8182    1.6218   -4.8279 H   0  0  0  0  0  0  0  0  0  0  0  0
   -2.1769    2.0204   -5.4952 H   0  0  0  0  0  0  0  0  0  0  0  0
   -0.4834   -0.6239   -5.9397 H   0  0  0  0  0  0  0  0  0  0  0  0
    0.4318   -1.8206   -3.9759 H   0  0  0  0  0  0  0  0  0  0  0  0
   -2.6625   -4.0662   -0.2468 H   0  0  0  0  0  0  0  0  0  0  0  0
   -2.9447   -6.5152   -0.1795 H   0  0  0  0  0  0  0  0  0  0  0  0
   -3.3931   -9.6358   -3.1481 H   0  0  0  0  0  0  0  0  0  0  0  0
   -2.6495   -8.1660   -3.8826 H   0  0  0  0  0  0  0  0  0  0  0  0
   -3.8859   -8.0013   -2.5670 H   0  0  0  0  0  0  0  0  0  0  0  0
    0.0481   -6.9505   -3.2404 H   0  0  0  0  0  0  0  0  0  0  0  0
    0.3616   -4.5046   -3.2893 H   0  0  0  0  0  0  0  0  0  0  0  0
   -0.3537   -3.9487    2.9839 H   0  0  0  0  0  0  0  0  0  0  0  0
    0.0961   -7.2540    4.4313 H   0  0  0  0  0  0  0  0  0  0  0  0
   -1.1598   -6.9761    6.5129 H   0  0  0  0  0  0  0  0  0  0  0  0
   -1.6950   -6.7245    8.8945 H   0  0  0  0  0  0  0  0  0  0  0  0
   -2.7985   -5.7050    7.8735 H   0  0  0  0  0  0  0  0  0  0  0  0
   -3.5101   -5.6800   10.2482 H   0  0  0  0  0  0  0  0  0  0  0  0
   -1.8833   -5.0733   10.7480 H   0  0  0  0  0  0  0  0  0  0  0  0
   -2.9702   -4.0426    9.7224 H   0  0  0  0  0  0  0  0  0  0  0  0
    2.2628   -3.6414    5.1993 H   0  0  0  0  0  0  0  0  0  0  0  0
    5.9132   -3.9247    1.4515 H   0  0  0  0  0  0  0  0  0  0  0  0
    7.3415   -2.9078   -0.2421 H   0  0  0  0  0  0  0  0  0  0  0  0
    7.6973   -1.2713   -2.0447 H   0  0  0  0  0  0  0  0  0  0  0  0
    8.8629   -2.6600   -2.1123 H   0  0  0  0  0  0  0  0  0  0  0  0
    9.0049   -2.4298   -4.5844 H   0  0  0  0  0  0  0  0  0  0  0  0
    7.8118   -1.0679   -4.5351 H   0  0  0  0  0  0  0  0  0  0  0  0
    9.4332   -0.8802   -3.7655 H   0  0  0  0  0  0  0  0  0  0  0  0
    3.4155   -5.6094   -1.6148 H   0  0  0  0  0  0  0  0  0  0  0  0
    6.0392   -6.7248    1.5506 H   0  0  0  0  0  0  0  0  0  0  0  0
    7.3173   -8.2790    3.0386 H   0  0  0  0  0  0  0  0  0  0  0  0
    5.3026  -10.0670    8.6977 H   0  0  0  0  0  0  0  0  0  0  0  0
    9.3225  -12.0841    6.2929 H   0  0  0  0  0  0  0  0  0  0  0  0
    8.8768  -13.3900    9.5174 H   0  0  0  0  0  0  0  0  0  0  0  0
    8.2282  -15.4489    8.0987 H   0  0  0  0  0  0  0  0  0  0  0  0
    6.4167  -14.7926    6.2714 H   0  0  0  0  0  0  0  0  0  0  0  0
    4.3541  -13.7693    7.4877 H   0  0  0  0  0  0  0  0  0  0  0  0
    4.8408  -13.7906   10.1021 H   0  0  0  0  0  0  0  0  0  0  0  0
    5.9804  -16.0570    9.3512 H   0  0  0  0  0  0  0  0  0  0  0  0
    7.0888  -15.1821   10.5062 H   0  0  0  0  0  0  0  0  0  0  0  0
    7.0040  -12.4797   10.6305 H   0  0  0  0  0  0  0  0  0  0  0  0
  1  2  2  3
  2  3  1  0
  3  4  2  0
  3  5  1  0
  5  6  2  0
  6  7  1  0
  7  8  2  0
  8  9  1  0
  9 10  2  0
 10 11  1  0
 11 12  2  3
 12 13  1  0
 13 14  3  0
 12 15  1  0
 15 16  3  0
  8 17  1  0
 17 18  1  0
 18 19  1  0
 19 20  2  0
 20 21  1  0
 21 22  1  0
 21 23  1  0
  1 24  1  0
 24 25  2  0
 25 26  1  0
 26 27  1  0
 27 28  2  0
 28 29  1  0
 29 30  2  0
 30 31  1  0
 31 32  1  0
 30 33  1  0
 33 34  2  0
 26 35  1  0
 35 36  2  0
 36 37  1  0
 37 38  2  0
 38 39  1  0
 39 40  1  0
 38 41  1  0
 41 42  2  0
 25 43  1  0
 43 44  1  0
 44 45  1  0
 45 46  2  0
 46 47  1  0
 47 48  1  0
 48 49  2  0
 49 50  1  0
 50 51  2  0
 51 52  1  0
 52 53  1  0
 51 54  1  0
 54 55  2  0
 47 56  1  0
 56 57  2  0
 57 58  1  0
 58 59  2  0
 59 60  1  0
 60 61  1  0
 59 62  1  0
 62 63  2  0
 46 64  1  0
 64 65  1  0
 45 66  1  0
 66 67  2  0
 67 68  1  0
 68 69  1  0
 69 70  2  0
 70 71  1  0
 71 72  2  0
 72 73  1  0
 73 74  1  0
 72 75  1  0
 75 76  2  0
 68 77  1  0
 77 78  2  0
 78 79  1  0
 79 80  2  0
 80 81  1  0
 81 82  1  0
 80 83  1  0
 83 84  2  0
 67 85  1  0
 85 86  1  0
 86 87  1  0
 87 88  2  0
 88 89  1  0
 89 90  1  0
 90 91  2  0
 91 92  1  0
 92 93  2  0
 93 94  1  0
 94 95  1  0
 93 96  1  0
 96 97  2  0
 89 98  1  0
 98 99  2  0
 99100  1  0
100101  2  0
101102  1  0
102103  1  0
101104  1  0
104105  2  0
 88106  1  0
106107  1  0
 87108  1  0
108109  2  0
109110  1  0
110111  2  0
111112  1  0
112113  2  0
113114  1  0
114115  2  0
115116  1  0
116117  1  0
117118  1  0
115119  1  0
119120  1  0
120121  1  0
120122  1  0
120123  1  0
119124  2  0
111125  1  0
125126  2  0
126127  1  0
127128  1  0
128129  2  0
129130  1  0
130131  2  0
131132  1  0
132133  1  0
133134  1  0
131135  1  0
135136  2  0
135137  1  0
137138  1  0
137139  1  0
137140  1  0
127141  2  0
141142  1  0
126143  1  0
143144  2  0
144145  1  0
144146  1  0
146147  2  3
147148  1  0
148149  2  0
148150  1  0
150151  2  0
151152  1  0
152153  2  0
153154  1  0
154155  2  0
155156  1  0
156157  2  3
157158  1  0
158159  3  0
157160  1  0
160161  3  0
153162  1  0
162163  1  0
163164  1  0
164165  2  0
165166  1  0
166167  1  0
166168  1  0
 11  2  1  0
 23 17  1  0
 65 24  1  0
107 66  1  0
142108  1  0
156147  1  0
168162  1  0
 10  5  1  0
 22 18  1  0
 34 27  1  0
 42 35  1  0
 64 43  2  0
 76 69  1  0
 84 77  1  0
106 85  2  0
141110  1  0
155150  1  0
167163  1  0
 23  7  1  0
 55 48  1  0
 63 56  1  0
 97 90  1  0
105 98  1  0
124112  1  0
145125  1  0
168152  1  0
136128  1  0
  1169  1  0
  6170  1  0
  9171  1  0
 17172  1  0
 18173  1  0
 19174  1  0
 20175  1  0
 21176  1  0
 22177  1  0
 22178  1  0
 23179  1  0
 28180  1  0
 29181  1  0
 32182  1  0
 32183  1  0
 32184  1  0
 33185  1  0
 34186  1  0
 36187  1  0
 37188  1  0
 40189  1  0
 40190  1  0
 40191  1  0
 41192  1  0
 42193  1  0
 49194  1  0
 50195  1  0
 53196  1  0
 53197  1  0
 53198  1  0
 54199  1  0
 55200  1  0
 57201  1  0
 58202  1  0
 61203  1  0
 61204  1  0
 61205  1  0
 62206  1  0
 63207  1  0
 70208  1  0
 71209  1  0
 74210  1  0
 74211  1  0
 74212  1  0
 75213  1  0
 76214  1  0
 78215  1  0
 79216  1  0
 82217  1  0
 82218  1  0
 82219  1  0
 83220  1  0
 84221  1  0
 91222  1  0
 92223  1  0
 95224  1  0
 95225  1  0
 95226  1  0
 96227  1  0
 97228  1  0
 99229  1  0
100230  1  0
103231  1  0
103232  1  0
103233  1  0
104234  1  0
105235  1  0
109236  1  0
113237  1  0
114238  1  0
117239  1  0
117240  1  0
118241  1  0
118242  1  0
118243  1  0
124244  1  0
129245  1  0
130246  1  0
133247  1  0
133248  1  0
134249  1  0
134250  1  0
134251  1  0
136252  1  0
143253  1  0
146254  1  0
151255  1  0
154256  1  0
162257  1  0
163258  1  0
164259  1  0
165260  1  0
166261  1  0
167262  1  0
167263  1  0
168264  1  0
M  END

