
     RDKit          3D

219242  0  0  0  0  0  0  0  0999 V2000
    5.6554   -3.5432   -7.9687 C   0  0  0  0  0  0  0  0  0  0  0  0
    6.2450   -2.4927   -8.5671 C   0  0  0  0  0  0  0  0  0  0  0  0
    6.3393   -1.1667   -7.9590 C   0  0  0  0  0  0  0  0  0  0  0  0
    6.4611   -0.9319   -6.7297 O   0  0  0  0  0  0  0  0  0  0  0  0
    6.2560   -0.1721   -8.9997 C   0  0  0  0  0  0  0  0  0  0  0  0
    6.0883    1.2155   -8.8280 C   0  0  0  0  0  0  0  0  0  0  0  0
    5.7988    1.8895   -9.9974 C   0  0  0  0  0  0  0  0  0  0  0  0
    5.6957    1.2444  -11.2686 C   0  0  0  0  0  0  0  0  0  0  0  0
    5.8869   -0.1159  -11.4511 C   0  0  0  0  0  0  0  0  0  0  0  0
    6.1813   -0.8313  -10.2561 C   0  0  0  0  0  0  0  0  0  0  0  0
    6.3301   -2.2989  -10.0396 C   0  0  0  0  0  0  0  0  0  0  0  0
    6.6005   -3.2524  -10.9603 C   0  0  0  0  0  0  0  0  0  0  0  0
    6.5291   -3.0051  -12.3795 C   0  0  0  0  0  0  0  0  0  0  0  0
    6.4475   -2.8273  -13.5222 N   0  0  0  0  0  0  0  0  0  0  0  0
    6.9950   -4.5863  -10.5833 C   0  0  0  0  0  0  0  0  0  0  0  0
    7.3413   -5.6529  -10.2950 N   0  0  0  0  0  0  0  0  0  0  0  0
    5.2753    2.5298  -11.9115 C   0  0  0  0  0  0  0  0  0  0  0  0
    3.7602    2.6554  -12.2563 C   0  0  0  0  0  0  0  0  0  0  0  0
    3.5226    4.1166  -12.5223 C   0  0  0  0  0  0  0  0  0  0  0  0
    3.6389    4.7427  -11.3359 C   0  0  0  0  0  0  0  0  0  0  0  0
    3.9395    3.6736  -10.3190 C   0  0  0  0  0  0  0  0  0  0  0  0
    3.0892    2.5580  -10.8929 C   0  0  0  0  0  0  0  0  0  0  0  0
    5.3951    3.1988  -10.6098 C   0  0  0  0  0  0  0  0  0  0  0  0
    4.9114   -3.4025   -6.7005 C   0  0  0  0  0  0  0  0  0  0  0  0
    5.4560   -3.8841   -5.4974 C   0  0  0  0  0  0  0  0  0  0  0  0
    4.7384   -3.7734   -4.2991 C   0  0  0  0  0  0  0  0  0  0  0  0
    5.2937   -4.2422   -3.1497 F   0  0  0  0  0  0  0  0  0  0  0  0
    3.4570   -3.1915   -4.2704 C   0  0  0  0  0  0  0  0  0  0  0  0
    2.9285   -2.6558   -5.4553 C   0  0  0  0  0  0  0  0  0  0  0  0
    3.6644   -2.7624   -6.6720 C   0  0  0  0  0  0  0  0  0  0  0  0
    3.0910   -2.2077   -7.7736 N   0  0  0  0  0  0  0  0  0  0  0  0
    1.6908   -1.6215   -7.1241 S   0  0  0  0  0  0  0  0  0  0  0  0
    1.7335   -2.0151   -5.5201 N   0  0  0  0  0  0  0  0  0  0  0  0
    2.6980   -3.1072   -3.0156 C   0  0  0  0  0  0  0  0  0  0  0  0
    3.0797   -2.3724   -1.8803 C   0  0  0  0  0  0  0  0  0  0  0  0
    4.1404   -1.3993   -1.8853 N   0  0  0  0  0  0  0  0  0  0  0  0
    4.0479   -0.3264   -2.8376 C   0  0  0  0  0  0  0  0  0  0  0  0
    5.0960   -0.0684   -3.7304 C   0  0  0  0  0  0  0  0  0  0  0  0
    4.9867    0.9723   -4.6604 C   0  0  0  0  0  0  0  0  0  0  0  0
    3.8331    1.7603   -4.6992 C   0  0  0  0  0  0  0  0  0  0  0  0
    3.6496    3.0382   -5.9477 S   0  0  0  0  0  0  0  0  0  0  0  0
    2.7505    1.9366   -7.0842 C   0  0  0  0  0  0  0  0  0  0  0  0
    2.7982    1.5320   -3.7875 C   0  0  0  0  0  0  0  0  0  0  0  0
    2.9020    0.4918   -2.8642 C   0  0  0  0  0  0  0  0  0  0  0  0
    5.0392   -1.3064   -0.7565 C   0  0  0  0  0  0  0  0  0  0  0  0
    5.5080   -0.0569   -0.3063 C   0  0  0  0  0  0  0  0  0  0  0  0
    6.3196    0.0309    0.8283 C   0  0  0  0  0  0  0  0  0  0  0  0
    6.6627   -1.1242    1.5356 C   0  0  0  0  0  0  0  0  0  0  0  0
    7.6595   -0.9991    3.0207 S   0  0  0  0  0  0  0  0  0  0  0  0
    6.2145   -0.8208    4.1073 C   0  0  0  0  0  0  0  0  0  0  0  0
    6.2122   -2.3714    1.0940 C   0  0  0  0  0  0  0  0  0  0  0  0
    5.4038   -2.4645   -0.0417 C   0  0  0  0  0  0  0  0  0  0  0  0
    2.0462   -2.3383   -0.9415 C   0  0  0  0  0  0  0  0  0  0  0  0
    1.7397   -1.2893    0.3217 S   0  0  0  0  0  0  0  0  0  0  0  0
    0.0787   -1.6459    0.4095 C   0  0  0  0  0  0  0  0  0  0  0  0
   -0.2481   -2.5699   -0.5960 C   0  0  0  0  0  0  0  0  0  0  0  0
   -1.5852   -2.8407   -1.0547 N   0  0  0  0  0  0  0  0  0  0  0  0
   -2.4694   -1.7398   -1.3632 C   0  0  0  0  0  0  0  0  0  0  0  0
   -1.9667   -0.5644   -1.9600 C   0  0  0  0  0  0  0  0  0  0  0  0
   -2.8003    0.5397   -2.1494 C   0  0  0  0  0  0  0  0  0  0  0  0
   -4.1397    0.4837   -1.7540 C   0  0  0  0  0  0  0  0  0  0  0  0
   -5.1916    1.9258   -1.9301 S   0  0  0  0  0  0  0  0  0  0  0  0
   -5.7728    1.4575   -3.5852 C   0  0  0  0  0  0  0  0  0  0  0  0
   -4.6537   -0.6951   -1.1956 C   0  0  0  0  0  0  0  0  0  0  0  0
   -3.8285   -1.8059   -1.0166 C   0  0  0  0  0  0  0  0  0  0  0  0
   -1.9578   -4.2046   -1.3431 C   0  0  0  0  0  0  0  0  0  0  0  0
   -1.5344   -5.2436   -0.4970 C   0  0  0  0  0  0  0  0  0  0  0  0
   -1.8490   -6.5725   -0.7907 C   0  0  0  0  0  0  0  0  0  0  0  0
   -2.5470   -6.8833   -1.9597 C   0  0  0  0  0  0  0  0  0  0  0  0
   -2.8418   -8.5974   -2.4009 S   0  0  0  0  0  0  0  0  0  0  0  0
   -1.1929   -8.7953   -3.1458 C   0  0  0  0  0  0  0  0  0  0  0  0
   -2.9670   -5.8557   -2.8136 C   0  0  0  0  0  0  0  0  0  0  0  0
   -2.6815   -4.5219   -2.5031 C   0  0  0  0  0  0  0  0  0  0  0  0
    0.8890   -2.9540   -1.3108 C   0  0  0  0  0  0  0  0  0  0  0  0
    1.0802   -3.6273   -2.8368 S   0  0  0  0  0  0  0  0  0  0  0  0
   -0.8331   -0.8017    1.1809 C   0  0  0  0  0  0  0  0  0  0  0  0
   -1.4420   -1.1411    2.4088 C   0  0  0  0  0  0  0  0  0  0  0  0
   -1.8665   -2.4627    2.7922 N   0  0  0  0  0  0  0  0  0  0  0  0
   -3.1786   -2.9336    2.3879 C   0  0  0  0  0  0  0  0  0  0  0  0
   -4.2857   -2.0621    2.3307 C   0  0  0  0  0  0  0  0  0  0  0  0
   -5.5480   -2.5404    1.9599 C   0  0  0  0  0  0  0  0  0  0  0  0
   -5.7178   -3.8787    1.6037 C   0  0  0  0  0  0  0  0  0  0  0  0
   -7.3266   -4.4762    1.0850 S   0  0  0  0  0  0  0  0  0  0  0  0
   -7.0696   -4.0218   -0.6638 C   0  0  0  0  0  0  0  0  0  0  0  0
   -4.6292   -4.7551    1.6627 C   0  0  0  0  0  0  0  0  0  0  0  0
   -3.3749   -4.2887    2.0687 C   0  0  0  0  0  0  0  0  0  0  0  0
   -1.0407   -3.2577    3.6712 C   0  0  0  0  0  0  0  0  0  0  0  0
   -1.6233   -4.0069    4.7130 C   0  0  0  0  0  0  0  0  0  0  0  0
   -0.8498   -4.8922    5.4679 C   0  0  0  0  0  0  0  0  0  0  0  0
    0.5115   -5.0474    5.1859 C   0  0  0  0  0  0  0  0  0  0  0  0
    1.4761   -6.2864    6.0493 S   0  0  0  0  0  0  0  0  0  0  0  0
    1.0588   -7.5951    4.8563 C   0  0  0  0  0  0  0  0  0  0  0  0
    1.1123   -4.2559    4.2013 C   0  0  0  0  0  0  0  0  0  0  0  0
    0.3427   -3.3595    3.4541 C   0  0  0  0  0  0  0  0  0  0  0  0
   -1.7973    0.0069    3.1140 C   0  0  0  0  0  0  0  0  0  0  0  0
   -2.4767    0.3192    4.6103 S   0  0  0  0  0  0  0  0  0  0  0  0
   -2.4903    2.0233    4.4050 C   0  0  0  0  0  0  0  0  0  0  0  0
   -1.9238    2.3230    3.1600 C   0  0  0  0  0  0  0  0  0  0  0  0
   -1.8862    3.6349    2.5832 N   0  0  0  0  0  0  0  0  0  0  0  0
   -0.6489    4.2003    2.0855 C   0  0  0  0  0  0  0  0  0  0  0  0
    0.5881    3.8118    2.6410 C   0  0  0  0  0  0  0  0  0  0  0  0
    1.7885    4.2983    2.1172 C   0  0  0  0  0  0  0  0  0  0  0  0
    1.7736    5.1784    1.0274 C   0  0  0  0  0  0  0  0  0  0  0  0
    3.3162    5.7784    0.3402 S   0  0  0  0  0  0  0  0  0  0  0  0
    3.5069    4.3765   -0.8026 C   0  0  0  0  0  0  0  0  0  0  0  0
    0.5539    5.5984    0.4869 C   0  0  0  0  0  0  0  0  0  0  0  0
   -0.6508    5.1221    1.0135 C   0  0  0  0  0  0  0  0  0  0  0  0
   -3.1541    4.2566    2.3285 C   0  0  0  0  0  0  0  0  0  0  0  0
   -4.0552    3.6612    1.4314 C   0  0  0  0  0  0  0  0  0  0  0  0
   -5.3227    4.2167    1.2380 C   0  0  0  0  0  0  0  0  0  0  0  0
   -5.7047    5.3575    1.9582 C   0  0  0  0  0  0  0  0  0  0  0  0
   -7.3390    6.0527    1.7329 S   0  0  0  0  0  0  0  0  0  0  0  0
   -6.7972    7.1913    0.4216 C   0  0  0  0  0  0  0  0  0  0  0  0
   -4.8020    5.9524    2.8538 C   0  0  0  0  0  0  0  0  0  0  0  0
   -3.5262    5.4132    3.0234 C   0  0  0  0  0  0  0  0  0  0  0  0
   -1.5457    1.1773    2.4809 C   0  0  0  0  0  0  0  0  0  0  0  0
   -0.8002    0.8932    1.0132 S   0  0  0  0  0  0  0  0  0  0  0  0
   -2.7191    3.0362    5.4556 C   0  0  0  0  0  0  0  0  0  0  0  0
   -3.2869    2.8021    6.6460 C   0  0  0  0  0  0  0  0  0  0  0  0
   -2.8300    3.4793    7.8605 C   0  0  0  0  0  0  0  0  0  0  0  0
   -2.2233    4.5782    7.9056 O   0  0  0  0  0  0  0  0  0  0  0  0
   -3.0438    2.5933    8.9838 C   0  0  0  0  0  0  0  0  0  0  0  0
   -2.4971    2.7055   10.2827 C   0  0  0  0  0  0  0  0  0  0  0  0
   -2.6814    1.5848   11.0697 C   0  0  0  0  0  0  0  0  0  0  0  0
   -3.3699    0.4145   10.6099 C   0  0  0  0  0  0  0  0  0  0  0  0
   -3.9052    0.2950    9.3411 C   0  0  0  0  0  0  0  0  0  0  0  0
   -3.7341    1.4420    8.5260 C   0  0  0  0  0  0  0  0  0  0  0  0
   -4.0576    1.6092    7.0871 C   0  0  0  0  0  0  0  0  0  0  0  0
   -5.1193    1.0847    6.4364 C   0  0  0  0  0  0  0  0  0  0  0  0
   -5.5231    1.5841    5.1421 C   0  0  0  0  0  0  0  0  0  0  0  0
   -5.8445    1.9879    4.1064 N   0  0  0  0  0  0  0  0  0  0  0  0
   -6.0030    0.1293    7.0527 C   0  0  0  0  0  0  0  0  0  0  0  0
   -6.7303   -0.6190    7.5442 N   0  0  0  0  0  0  0  0  0  0  0  0
   -3.1356   -0.2574   11.9277 C   0  0  0  0  0  0  0  0  0  0  0  0
   -4.3404   -0.3721   12.9060 C   0  0  0  0  0  0  0  0  0  0  0  0
   -5.2760    0.8082   12.7066 C   0  0  0  0  0  0  0  0  0  0  0  0
   -4.6251    1.8868   13.1406 C   0  0  0  0  0  0  0  0  0  0  0  0
   -3.2659    1.4094   13.6113 C   0  0  0  0  0  0  0  0  0  0  0  0
   -3.6706    0.0646   14.1926 C   0  0  0  0  0  0  0  0  0  0  0  0
   -2.4231    0.9386   12.3961 C   0  0  0  0  0  0  0  0  0  0  0  0
    5.4607   -4.4452   -8.5252 H   0  0  0  0  0  0  0  0  0  0  0  0
    6.1037    1.6985   -7.8563 H   0  0  0  0  0  0  0  0  0  0  0  0
    5.7348   -0.5714  -12.4151 H   0  0  0  0  0  0  0  0  0  0  0  0
    5.9812    2.8895  -12.6925 H   0  0  0  0  0  0  0  0  0  0  0  0
    3.3828    1.9570  -13.0370 H   0  0  0  0  0  0  0  0  0  0  0  0
    3.2049    4.5687  -13.4524 H   0  0  0  0  0  0  0  0  0  0  0  0
    3.4257    5.7842  -11.1509 H   0  0  0  0  0  0  0  0  0  0  0  0
    3.7309    3.9682   -9.2726 H   0  0  0  0  0  0  0  0  0  0  0  0
    1.9959    2.7982  -10.9200 H   0  0  0  0  0  0  0  0  0  0  0  0
    3.2213    1.5781  -10.3904 H   0  0  0  0  0  0  0  0  0  0  0  0
    6.1842    3.9775  -10.5549 H   0  0  0  0  0  0  0  0  0  0  0  0
    6.4396   -4.3443   -5.4914 H   0  0  0  0  0  0  0  0  0  0  0  0
    5.9858   -0.6866   -3.7204 H   0  0  0  0  0  0  0  0  0  0  0  0
    5.7952    1.1674   -5.3530 H   0  0  0  0  0  0  0  0  0  0  0  0
    3.4426    1.1701   -7.4893 H   0  0  0  0  0  0  0  0  0  0  0  0
    2.3306    2.5319   -7.9173 H   0  0  0  0  0  0  0  0  0  0  0  0
    1.9089    1.4391   -6.5590 H   0  0  0  0  0  0  0  0  0  0  0  0
    1.9070    2.1455   -3.8066 H   0  0  0  0  0  0  0  0  0  0  0  0
    2.0875    0.3282   -2.1675 H   0  0  0  0  0  0  0  0  0  0  0  0
    5.2312    0.8590   -0.8127 H   0  0  0  0  0  0  0  0  0  0  0  0
    6.6556    1.0032    1.1725 H   0  0  0  0  0  0  0  0  0  0  0  0
    6.5589   -0.6248    5.1413 H   0  0  0  0  0  0  0  0  0  0  0  0
    5.6133   -1.7524    4.0935 H   0  0  0  0  0  0  0  0  0  0  0  0
    5.5913    0.0406    3.7745 H   0  0  0  0  0  0  0  0  0  0  0  0
    6.4693   -3.2663    1.6436 H   0  0  0  0  0  0  0  0  0  0  0  0
    5.0585   -3.4409   -0.3611 H   0  0  0  0  0  0  0  0  0  0  0  0
   -0.9286   -0.4987   -2.2542 H   0  0  0  0  0  0  0  0  0  0  0  0
   -2.3999    1.4397   -2.5901 H   0  0  0  0  0  0  0  0  0  0  0  0
   -4.9032    1.3490   -4.2720 H   0  0  0  0  0  0  0  0  0  0  0  0
   -6.4391    2.2578   -3.9691 H   0  0  0  0  0  0  0  0  0  0  0  0
   -6.3369    0.5053   -3.5330 H   0  0  0  0  0  0  0  0  0  0  0  0
   -5.6925   -0.7449   -0.8942 H   0  0  0  0  0  0  0  0  0  0  0  0
   -4.2280   -2.7055   -0.5808 H   0  0  0  0  0  0  0  0  0  0  0  0
   -0.9542   -5.0244    0.3919 H   0  0  0  0  0  0  0  0  0  0  0  0
   -1.5183   -7.3613   -0.1277 H   0  0  0  0  0  0  0  0  0  0  0  0
   -1.1568   -9.7585   -3.6932 H   0  0  0  0  0  0  0  0  0  0  0  0
   -0.9785   -7.9680   -3.8569 H   0  0  0  0  0  0  0  0  0  0  0  0
   -0.4231   -8.8071   -2.3471 H   0  0  0  0  0  0  0  0  0  0  0  0
   -3.5008   -6.0933   -3.7312 H   0  0  0  0  0  0  0  0  0  0  0  0
   -2.9918   -3.7452   -3.1936 H   0  0  0  0  0  0  0  0  0  0  0  0
   -4.1942   -1.0163    2.5839 H   0  0  0  0  0  0  0  0  0  0  0  0
   -6.3914   -1.8586    1.9289 H   0  0  0  0  0  0  0  0  0  0  0  0
   -6.1931   -4.5628   -1.0675 H   0  0  0  0  0  0  0  0  0  0  0  0
   -7.9711   -4.3045   -1.2453 H   0  0  0  0  0  0  0  0  0  0  0  0
   -6.9127   -2.9281   -0.7496 H   0  0  0  0  0  0  0  0  0  0  0  0
   -4.7528   -5.7976    1.3884 H   0  0  0  0  0  0  0  0  0  0  0  0
   -2.5527   -4.9897    2.1228 H   0  0  0  0  0  0  0  0  0  0  0  0
   -2.6826   -3.9174    4.9278 H   0  0  0  0  0  0  0  0  0  0  0  0
   -1.3166   -5.4808    6.2435 H   0  0  0  0  0  0  0  0  0  0  0  0
    1.5831   -8.5321    5.1451 H   0  0  0  0  0  0  0  0  0  0  0  0
   -0.0377   -7.7808    4.8695 H   0  0  0  0  0  0  0  0  0  0  0  0
    1.3775   -7.3029    3.8349 H   0  0  0  0  0  0  0  0  0  0  0  0
    2.1694   -4.3526    3.9850 H   0  0  0  0  0  0  0  0  0  0  0  0
    0.8236   -2.7792    2.6854 H   0  0  0  0  0  0  0  0  0  0  0  0
    0.6240    3.1195    3.4681 H   0  0  0  0  0  0  0  0  0  0  0  0
    2.7297    3.9724    2.5382 H   0  0  0  0  0  0  0  0  0  0  0  0
    4.4187    4.5333   -1.4165 H   0  0  0  0  0  0  0  0  0  0  0  0
    3.6193    3.4285   -0.2272 H   0  0  0  0  0  0  0  0  0  0  0  0
    2.6262    4.3035   -1.4715 H   0  0  0  0  0  0  0  0  0  0  0  0
    0.5403    6.2806   -0.3525 H   0  0  0  0  0  0  0  0  0  0  0  0
   -1.5761    5.4488    0.5619 H   0  0  0  0  0  0  0  0  0  0  0  0
   -3.7801    2.7626    0.8925 H   0  0  0  0  0  0  0  0  0  0  0  0
   -6.0097    3.7549    0.5365 H   0  0  0  0  0  0  0  0  0  0  0  0
   -7.6826    7.7386    0.0351 H   0  0  0  0  0  0  0  0  0  0  0  0
   -6.0685    7.9175    0.8279 H   0  0  0  0  0  0  0  0  0  0  0  0
   -6.3409    6.6208   -0.4157 H   0  0  0  0  0  0  0  0  0  0  0  0
   -5.0939    6.8305    3.4128 H   0  0  0  0  0  0  0  0  0  0  0  0
   -2.8425    5.8702    3.7265 H   0  0  0  0  0  0  0  0  0  0  0  0
   -2.1689    3.9615    5.3310 H   0  0  0  0  0  0  0  0  0  0  0  0
   -1.9221    3.5660   10.6053 H   0  0  0  0  0  0  0  0  0  0  0  0
   -4.3589   -0.6255    8.9994 H   0  0  0  0  0  0  0  0  0  0  0  0
   -2.4849   -1.1603   11.8654 H   0  0  0  0  0  0  0  0  0  0  0  0
   -4.8348   -1.3610   12.9361 H   0  0  0  0  0  0  0  0  0  0  0  0
   -6.3042    0.7785   12.3584 H   0  0  0  0  0  0  0  0  0  0  0  0
   -5.0360    2.8863   13.2216 H   0  0  0  0  0  0  0  0  0  0  0  0
   -2.7529    2.0980   14.3084 H   0  0  0  0  0  0  0  0  0  0  0  0
   -2.8085   -0.5707   14.4938 H   0  0  0  0  0  0  0  0  0  0  0  0
   -4.3795    0.1520   15.0463 H   0  0  0  0  0  0  0  0  0  0  0  0
   -1.3430    0.7686   12.6114 H   0  0  0  0  0  0  0  0  0  0  0  0
  1  2  2  3
  2  3  1  0
  3  4  2  0
  3  5  1  0
  5  6  2  0
  6  7  1  0
  7  8  2  0
  8  9  1  0
  9 10  2  0
 10 11  1  0
 11 12  2  3
 12 13  1  0
 13 14  3  0
 12 15  1  0
 15 16  3  0
  8 17  1  0
 17 18  1  0
 18 19  1  0
 19 20  2  0
 20 21  1  0
 21 22  1  0
 21 23  1  0
  1 24  1  0
 24 25  2  0
 25 26  1  0
 26 27  1  0
 26 28  2  0
 28 29  1  0
 29 30  1  0
 30 31  2  0
 31 32  1  0
 32 33  1  0
 28 34  1  0
 34 35  2  0
 35 36  1  0
 36 37  1  0
 37 38  2  0
 38 39  1  0
 39 40  2  0
 40 41  1  0
 41 42  1  0
 40 43  1  0
 43 44  2  0
 36 45  1  0
 45 46  2  0
 46 47  1  0
 47 48  2  0
 48 49  1  0
 49 50  1  0
 48 51  1  0
 51 52  2  0
 35 53  1  0
 53 54  1  0
 54 55  1  0
 55 56  2  0
 56 57  1  0
 57 58  1  0
 58 59  2  0
 59 60  1  0
 60 61  2  0
 61 62  1  0
 62 63  1  0
 61 64  1  0
 64 65  2  0
 57 66  1  0
 66 67  2  0
 67 68  1  0
 68 69  2  0
 69 70  1  0
 70 71  1  0
 69 72  1  0
 72 73  2  0
 56 74  1  0
 74 75  1  0
 55 76  1  0
 76 77  2  0
 77 78  1  0
 78 79  1  0
 79 80  2  0
 80 81  1  0
 81 82  2  0
 82 83  1  0
 83 84  1  0
 82 85  1  0
 85 86  2  0
 78 87  1  0
 87 88  2  0
 88 89  1  0
 89 90  2  0
 90 91  1  0
 91 92  1  0
 90 93  1  0
 93 94  2  0
 77 95  1  0
 95 96  1  0
 96 97  1  0
 97 98  2  0
 98 99  1  0
 99100  1  0
100101  2  0
101102  1  0
102103  2  0
103104  1  0
104105  1  0
103106  1  0
106107  2  0
 99108  1  0
108109  2  0
109110  1  0
110111  2  0
111112  1  0
112113  1  0
111114  1  0
114115  2  0
 98116  1  0
116117  1  0
 97118  1  0
118119  2  3
119120  1  0
120121  2  0
120122  1  0
122123  2  0
123124  1  0
124125  2  0
125126  1  0
126127  2  0
127128  1  0
128129  2  3
129130  1  0
130131  3  0
129132  1  0
132133  3  0
125134  1  0
134135  1  0
135136  1  0
136137  2  0
137138  1  0
138139  1  0
138140  1  0
 11  2  1  0
 23 17  1  0
 30 24  1  0
 75 34  1  0
117 76  1  0
128119  1  0
140134  1  0
 10  5  1  0
 22 18  1  0
 33 29  2  0
 44 37  1  0
 52 45  1  0
 74 53  2  0
 86 79  1  0
 94 87  1  0
116 95  2  0
127122  1  0
139135  1  0
 23  7  1  0
 65 58  1  0
 73 66  1  0
107100  1  0
115108  1  0
140124  1  0
  1141  1  0
  6142  1  0
  9143  1  0
 17144  1  0
 18145  1  0
 19146  1  0
 20147  1  0
 21148  1  0
 22149  1  0
 22150  1  0
 23151  1  0
 25152  1  0
 38153  1  0
 39154  1  0
 42155  1  0
 42156  1  0
 42157  1  0
 43158  1  0
 44159  1  0
 46160  1  0
 47161  1  0
 50162  1  0
 50163  1  0
 50164  1  0
 51165  1  0
 52166  1  0
 59167  1  0
 60168  1  0
 63169  1  0
 63170  1  0
 63171  1  0
 64172  1  0
 65173  1  0
 67174  1  0
 68175  1  0
 71176  1  0
 71177  1  0
 71178  1  0
 72179  1  0
 73180  1  0
 80181  1  0
 81182  1  0
 84183  1  0
 84184  1  0
 84185  1  0
 85186  1  0
 86187  1  0
 88188  1  0
 89189  1  0
 92190  1  0
 92191  1  0
 92192  1  0
 93193  1  0
 94194  1  0
101195  1  0
102196  1  0
105197  1  0
105198  1  0
105199  1  0
106200  1  0
107201  1  0
109202  1  0
110203  1  0
113204  1  0
113205  1  0
113206  1  0
114207  1  0
115208  1  0
118209  1  0
123210  1  0
126211  1  0
134212  1  0
135213  1  0
136214  1  0
137215  1  0
138216  1  0
139217  1  0
139218  1  0
140219  1  0
M  END

