
     RDKit          3D

184204  0  0  0  0  0  0  0  0999 V2000
   -1.7330   -4.8861   -6.6637 C   0  0  0  0  0  0  0  0  0  0  0  0
   -0.4382   -4.5722   -6.8726 C   0  0  0  0  0  0  0  0  0  0  0  0
    0.3199   -3.5520   -6.1325 C   0  0  0  0  0  0  0  0  0  0  0  0
   -0.1604   -2.6511   -5.3930 O   0  0  0  0  0  0  0  0  0  0  0  0
    1.7303   -3.7638   -6.3559 C   0  0  0  0  0  0  0  0  0  0  0  0
    2.8062   -3.1072   -5.7154 C   0  0  0  0  0  0  0  0  0  0  0  0
    4.0458   -3.6351   -6.0202 C   0  0  0  0  0  0  0  0  0  0  0  0
    4.2245   -4.7529   -6.8986 C   0  0  0  0  0  0  0  0  0  0  0  0
    3.1745   -5.3933   -7.5352 C   0  0  0  0  0  0  0  0  0  0  0  0
    1.8920   -4.8395   -7.2632 C   0  0  0  0  0  0  0  0  0  0  0  0
    0.5522   -5.2950   -7.7268 C   0  0  0  0  0  0  0  0  0  0  0  0
    0.2923   -5.9611   -8.8839 C   0  0  0  0  0  0  0  0  0  0  0  0
    1.3415   -6.3423   -9.7941 C   0  0  0  0  0  0  0  0  0  0  0  0
    2.1808   -6.6428  -10.5331 N   0  0  0  0  0  0  0  0  0  0  0  0
   -1.0442   -6.2215   -9.3473 C   0  0  0  0  0  0  0  0  0  0  0  0
   -2.1156   -6.4406   -9.7239 N   0  0  0  0  0  0  0  0  0  0  0  0
    5.7053   -4.7137   -6.6684 C   0  0  0  0  0  0  0  0  0  0  0  0
    6.5743   -4.1449   -7.8253 C   0  0  0  0  0  0  0  0  0  0  0  0
    7.9258   -3.8407   -7.2200 C   0  0  0  0  0  0  0  0  0  0  0  0
    7.7506   -2.7864   -6.4157 C   0  0  0  0  0  0  0  0  0  0  0  0
    6.2895   -2.4170   -6.5038 C   0  0  0  0  0  0  0  0  0  0  0  0
    6.0602   -2.7241   -7.9728 C   0  0  0  0  0  0  0  0  0  0  0  0
    5.5205   -3.5616   -5.7798 C   0  0  0  0  0  0  0  0  0  0  0  0
   -2.5718   -4.1349   -5.7098 C   0  0  0  0  0  0  0  0  0  0  0  0
   -2.3688   -4.2327   -4.3184 C   0  0  0  0  0  0  0  0  0  0  0  0
   -1.4911   -5.1187   -3.6699 C   0  0  0  0  0  0  0  0  0  0  0  0
   -1.3688   -4.8568   -2.3069 C   0  0  0  0  0  0  0  0  0  0  0  0
   -0.4867   -5.5928   -1.3482 C   0  0  0  0  0  0  0  0  0  0  0  0
   -1.1919   -6.8302   -0.8054 C   0  0  0  0  0  0  0  0  0  0  0  0
   -2.3527   -3.5510   -1.8973 S   0  0  0  0  0  0  0  0  0  0  0  0
   -2.9462   -3.2989   -3.4546 C   0  0  0  0  0  0  0  0  0  0  0  0
   -3.7371   -2.2304   -3.9128 C   0  0  0  0  0  0  0  0  0  0  0  0
   -4.0119   -2.1890   -5.2948 C   0  0  0  0  0  0  0  0  0  0  0  0
   -3.4352   -3.1233   -6.1607 C   0  0  0  0  0  0  0  0  0  0  0  0
   -3.8298   -2.7245   -7.7471 S   0  0  0  0  0  0  0  0  0  0  0  0
   -4.7823   -1.3874   -7.3405 C   0  0  0  0  0  0  0  0  0  0  0  0
   -5.4617   -0.4757   -8.3192 C   0  0  0  0  0  0  0  0  0  0  0  0
   -6.3671   -1.2548   -9.2664 C   0  0  0  0  0  0  0  0  0  0  0  0
   -4.7735   -1.2169   -5.9574 C   0  0  0  0  0  0  0  0  0  0  0  0
   -3.9121   -1.0601   -3.0313 C   0  0  0  0  0  0  0  0  0  0  0  0
   -2.9180   -0.0795   -3.0318 C   0  0  0  0  0  0  0  0  0  0  0  0
   -1.9497    0.1163   -3.9422 N   0  0  0  0  0  0  0  0  0  0  0  0
   -1.0980    0.9578   -3.3638 N   0  0  0  0  0  0  0  0  0  0  0  0
    0.0797    1.5005   -4.0297 C   0  0  0  0  0  0  0  0  0  0  0  0
    0.9992    0.3841   -4.4974 C   0  0  0  0  0  0  0  0  0  0  0  0
   -1.4445    1.2698   -2.1180 N   0  0  0  0  0  0  0  0  0  0  0  0
   -2.6094    0.6357   -1.9122 C   0  0  0  0  0  0  0  0  0  0  0  0
   -3.3088    0.4804   -0.7135 C   0  0  0  0  0  0  0  0  0  0  0  0
   -4.4293   -0.3794   -0.7326 C   0  0  0  0  0  0  0  0  0  0  0  0
   -4.7281   -1.1476   -1.8829 C   0  0  0  0  0  0  0  0  0  0  0  0
   -5.6904   -2.1032   -1.8115 F   0  0  0  0  0  0  0  0  0  0  0  0
   -5.1334   -0.5994    0.4072 F   0  0  0  0  0  0  0  0  0  0  0  0
   -2.6524    0.7956    0.5635 C   0  0  0  0  0  0  0  0  0  0  0  0
   -2.2677    2.0498    1.1097 C   0  0  0  0  0  0  0  0  0  0  0  0
   -2.6945    3.3567    0.6515 N   0  0  0  0  0  0  0  0  0  0  0  0
   -2.7111    4.4673    1.5590 C   0  0  0  0  0  0  0  0  0  0  0  0
   -1.8400    5.5511    1.3674 C   0  0  0  0  0  0  0  0  0  0  0  0
   -1.8095    6.5977    2.2911 C   0  0  0  0  0  0  0  0  0  0  0  0
   -2.6555    6.5764    3.4068 C   0  0  0  0  0  0  0  0  0  0  0  0
   -2.5931    7.9079    4.6060 S   0  0  0  0  0  0  0  0  0  0  0  0
   -3.8587    8.8970    3.7512 C   0  0  0  0  0  0  0  0  0  0  0  0
   -3.5361    5.5041    3.5934 C   0  0  0  0  0  0  0  0  0  0  0  0
   -3.5636    4.4524    2.6741 C   0  0  0  0  0  0  0  0  0  0  0  0
   -3.2858    3.5595   -0.6376 C   0  0  0  0  0  0  0  0  0  0  0  0
   -4.6486    3.2988   -0.8352 C   0  0  0  0  0  0  0  0  0  0  0  0
   -5.2170    3.4665   -2.0994 C   0  0  0  0  0  0  0  0  0  0  0  0
   -4.4276    3.9145   -3.1674 C   0  0  0  0  0  0  0  0  0  0  0  0
   -5.1305    4.0428   -4.8089 S   0  0  0  0  0  0  0  0  0  0  0  0
   -4.6134    2.3605   -5.2638 C   0  0  0  0  0  0  0  0  0  0  0  0
   -3.0805    4.2281   -2.9586 C   0  0  0  0  0  0  0  0  0  0  0  0
   -2.5096    4.0512   -1.6965 C   0  0  0  0  0  0  0  0  0  0  0  0
   -1.4443    1.8470    2.2314 C   0  0  0  0  0  0  0  0  0  0  0  0
   -0.6017    2.8320    3.3141 S   0  0  0  0  0  0  0  0  0  0  0  0
    0.0848    1.5356    4.1895 C   0  0  0  0  0  0  0  0  0  0  0  0
   -0.3786    0.3344    3.6456 C   0  0  0  0  0  0  0  0  0  0  0  0
   -0.0633   -0.9675    4.1567 N   0  0  0  0  0  0  0  0  0  0  0  0
   -1.1086   -1.7168    4.8128 C   0  0  0  0  0  0  0  0  0  0  0  0
   -1.3251   -3.0727    4.5041 C   0  0  0  0  0  0  0  0  0  0  0  0
   -2.3765   -3.7756    5.0985 C   0  0  0  0  0  0  0  0  0  0  0  0
   -3.2273   -3.1317    6.0025 C   0  0  0  0  0  0  0  0  0  0  0  0
   -4.5914   -4.0265    6.7489 S   0  0  0  0  0  0  0  0  0  0  0  0
   -5.7637   -3.5765    5.4310 C   0  0  0  0  0  0  0  0  0  0  0  0
   -3.0164   -1.7871    6.3220 C   0  0  0  0  0  0  0  0  0  0  0  0
   -1.9684   -1.0811    5.7268 C   0  0  0  0  0  0  0  0  0  0  0  0
    1.1824   -1.5956    3.7875 C   0  0  0  0  0  0  0  0  0  0  0  0
    1.6986   -1.4559    2.4852 C   0  0  0  0  0  0  0  0  0  0  0  0
    2.8555   -2.1429    2.1054 C   0  0  0  0  0  0  0  0  0  0  0  0
    3.5217   -2.9584    3.0256 C   0  0  0  0  0  0  0  0  0  0  0  0
    4.9694   -3.8890    2.5227 S   0  0  0  0  0  0  0  0  0  0  0  0
    6.1295   -2.5359    2.8887 C   0  0  0  0  0  0  0  0  0  0  0  0
    3.0318   -3.0794    4.3309 C   0  0  0  0  0  0  0  0  0  0  0  0
    1.8672   -2.4048    4.7097 C   0  0  0  0  0  0  0  0  0  0  0  0
   -1.2130    0.5503    2.5575 C   0  0  0  0  0  0  0  0  0  0  0  0
   -1.9874   -0.4683    1.4926 S   0  0  0  0  0  0  0  0  0  0  0  0
    0.7993    1.6495    5.4688 C   0  0  0  0  0  0  0  0  0  0  0  0
    1.9144    2.3824    5.6536 C   0  0  0  0  0  0  0  0  0  0  0  0
    2.5871    3.1837    4.6266 C   0  0  0  0  0  0  0  0  0  0  0  0
    2.4255    3.0890    3.3815 O   0  0  0  0  0  0  0  0  0  0  0  0
    3.5215    4.0757    5.2735 C   0  0  0  0  0  0  0  0  0  0  0  0
    4.2764    5.1027    4.6624 C   0  0  0  0  0  0  0  0  0  0  0  0
    5.0282    5.8480    5.5488 C   0  0  0  0  0  0  0  0  0  0  0  0
    5.0376    5.6068    6.9586 C   0  0  0  0  0  0  0  0  0  0  0  0
    4.2903    4.6121    7.5659 C   0  0  0  0  0  0  0  0  0  0  0  0
    3.5233    3.8149    6.6698 C   0  0  0  0  0  0  0  0  0  0  0  0
    2.6065    2.6706    6.9532 C   0  0  0  0  0  0  0  0  0  0  0  0
    2.5600    1.9311    8.0966 C   0  0  0  0  0  0  0  0  0  0  0  0
    3.3378    2.2468    9.2628 C   0  0  0  0  0  0  0  0  0  0  0  0
    3.9553    2.4842   10.2136 N   0  0  0  0  0  0  0  0  0  0  0  0
    1.8249    0.6968    8.1963 C   0  0  0  0  0  0  0  0  0  0  0  0
    1.2386   -0.2988    8.2835 N   0  0  0  0  0  0  0  0  0  0  0  0
    5.9781    6.7547    7.1671 C   0  0  0  0  0  0  0  0  0  0  0  0
    5.4009    8.0671    7.7792 C   0  0  0  0  0  0  0  0  0  0  0  0
    3.9475    8.2178    7.3988 C   0  0  0  0  0  0  0  0  0  0  0  0
    3.9202    8.4426    6.0860 C   0  0  0  0  0  0  0  0  0  0  0  0
    5.3568    8.4445    5.6158 C   0  0  0  0  0  0  0  0  0  0  0  0
    6.0019    9.0878    6.8296 C   0  0  0  0  0  0  0  0  0  0  0  0
    5.9578    7.0101    5.7238 C   0  0  0  0  0  0  0  0  0  0  0  0
   -2.1966   -5.7257   -7.1556 H   0  0  0  0  0  0  0  0  0  0  0  0
    2.6745   -2.2929   -5.0157 H   0  0  0  0  0  0  0  0  0  0  0  0
    3.3431   -6.2641   -8.1503 H   0  0  0  0  0  0  0  0  0  0  0  0
    6.1006   -5.6222   -6.1646 H   0  0  0  0  0  0  0  0  0  0  0  0
    6.5959   -4.7525   -8.7535 H   0  0  0  0  0  0  0  0  0  0  0  0
    8.8741   -4.3072   -7.4607 H   0  0  0  0  0  0  0  0  0  0  0  0
    8.5346   -2.2482   -5.8923 H   0  0  0  0  0  0  0  0  0  0  0  0
    6.0395   -1.3855   -6.1782 H   0  0  0  0  0  0  0  0  0  0  0  0
    6.6810   -2.0986   -8.6581 H   0  0  0  0  0  0  0  0  0  0  0  0
    4.9980   -2.6495   -8.2924 H   0  0  0  0  0  0  0  0  0  0  0  0
    5.8056   -3.7429   -4.7206 H   0  0  0  0  0  0  0  0  0  0  0  0
   -0.9260   -5.8938   -4.1766 H   0  0  0  0  0  0  0  0  0  0  0  0
   -0.2182   -4.9230   -0.5022 H   0  0  0  0  0  0  0  0  0  0  0  0
    0.4543   -5.8939   -1.8624 H   0  0  0  0  0  0  0  0  0  0  0  0
   -0.5117   -7.3669   -0.1114 H   0  0  0  0  0  0  0  0  0  0  0  0
   -1.4653   -7.5134   -1.6382 H   0  0  0  0  0  0  0  0  0  0  0  0
   -2.1095   -6.5372   -0.2487 H   0  0  0  0  0  0  0  0  0  0  0  0
   -6.0719    0.2771   -7.7752 H   0  0  0  0  0  0  0  0  0  0  0  0
   -4.6906    0.0652   -8.9058 H   0  0  0  0  0  0  0  0  0  0  0  0
   -5.7606   -1.9195   -9.9199 H   0  0  0  0  0  0  0  0  0  0  0  0
   -7.0947   -1.8677   -8.6928 H   0  0  0  0  0  0  0  0  0  0  0  0
   -6.9287   -0.5440   -9.9098 H   0  0  0  0  0  0  0  0  0  0  0  0
   -5.3094   -0.4257   -5.4545 H   0  0  0  0  0  0  0  0  0  0  0  0
    0.6345    2.1682   -3.3305 H   0  0  0  0  0  0  0  0  0  0  0  0
   -0.2420    2.1039   -4.9071 H   0  0  0  0  0  0  0  0  0  0  0  0
    1.2583   -0.2863   -3.6500 H   0  0  0  0  0  0  0  0  0  0  0  0
    1.9341    0.8122   -4.9132 H   0  0  0  0  0  0  0  0  0  0  0  0
    0.5030   -0.2004   -5.2982 H   0  0  0  0  0  0  0  0  0  0  0  0
   -1.1671    5.5683    0.5191 H   0  0  0  0  0  0  0  0  0  0  0  0
   -1.1229    7.4219    2.1471 H   0  0  0  0  0  0  0  0  0  0  0  0
   -3.5370    9.1188    2.7113 H   0  0  0  0  0  0  0  0  0  0  0  0
   -4.8236    8.3470    3.7362 H   0  0  0  0  0  0  0  0  0  0  0  0
   -3.9985    9.8547    4.2953 H   0  0  0  0  0  0  0  0  0  0  0  0
   -4.1910    5.4814    4.4529 H   0  0  0  0  0  0  0  0  0  0  0  0
   -4.2360    3.6177    2.8323 H   0  0  0  0  0  0  0  0  0  0  0  0
   -5.2583    2.9360   -0.0169 H   0  0  0  0  0  0  0  0  0  0  0  0
   -6.2600    3.2252   -2.2566 H   0  0  0  0  0  0  0  0  0  0  0  0
   -5.0435    2.0984   -6.2516 H   0  0  0  0  0  0  0  0  0  0  0  0
   -3.5067    2.3043   -5.3224 H   0  0  0  0  0  0  0  0  0  0  0  0
   -4.9804    1.6410   -4.5042 H   0  0  0  0  0  0  0  0  0  0  0  0
   -2.4663    4.5749   -3.7810 H   0  0  0  0  0  0  0  0  0  0  0  0
   -1.4584    4.2597   -1.5499 H   0  0  0  0  0  0  0  0  0  0  0  0
   -0.6996   -3.5782    3.7803 H   0  0  0  0  0  0  0  0  0  0  0  0
   -2.5395   -4.8161    4.8454 H   0  0  0  0  0  0  0  0  0  0  0  0
   -5.4144   -3.9768    4.4565 H   0  0  0  0  0  0  0  0  0  0  0  0
   -5.8620   -2.4726    5.3674 H   0  0  0  0  0  0  0  0  0  0  0  0
   -6.7577   -4.0113    5.6628 H   0  0  0  0  0  0  0  0  0  0  0  0
   -3.6737   -1.2830    7.0211 H   0  0  0  0  0  0  0  0  0  0  0  0
   -1.8306   -0.0373    5.9740 H   0  0  0  0  0  0  0  0  0  0  0  0
    1.1886   -0.8502    1.7481 H   0  0  0  0  0  0  0  0  0  0  0  0
    3.2262   -2.0523    1.0929 H   0  0  0  0  0  0  0  0  0  0  0  0
    6.0360   -2.2255    3.9513 H   0  0  0  0  0  0  0  0  0  0  0  0
    5.9226   -1.6708    2.2224 H   0  0  0  0  0  0  0  0  0  0  0  0
    7.1653   -2.8914    2.7074 H   0  0  0  0  0  0  0  0  0  0  0  0
    3.5406   -3.7126    5.0476 H   0  0  0  0  0  0  0  0  0  0  0  0
    1.4885   -2.5184    5.7167 H   0  0  0  0  0  0  0  0  0  0  0  0
    0.3320    1.1391    6.2902 H   0  0  0  0  0  0  0  0  0  0  0  0
    4.2486    5.3063    3.6014 H   0  0  0  0  0  0  0  0  0  0  0  0
    4.2863    4.5121    8.6358 H   0  0  0  0  0  0  0  0  0  0  0  0
    6.9772    6.4558    7.5544 H   0  0  0  0  0  0  0  0  0  0  0  0
    5.6261    8.2273    8.8538 H   0  0  0  0  0  0  0  0  0  0  0  0
    3.0911    8.2148    8.0627 H   0  0  0  0  0  0  0  0  0  0  0  0
    3.0355    8.6540    5.4943 H   0  0  0  0  0  0  0  0  0  0  0  0
    5.5354    8.9629    4.6501 H   0  0  0  0  0  0  0  0  0  0  0  0
    5.6505   10.1308    7.0200 H   0  0  0  0  0  0  0  0  0  0  0  0
    7.1168    9.0733    6.8035 H   0  0  0  0  0  0  0  0  0  0  0  0
    6.9464    6.8766    5.2323 H   0  0  0  0  0  0  0  0  0  0  0  0
  1  2  2  3
  2  3  1  0
  3  4  2  0
  3  5  1  0
  5  6  2  0
  6  7  1  0
  7  8  2  0
  8  9  1  0
  9 10  2  0
 10 11  1  0
 11 12  2  3
 12 13  1  0
 13 14  3  0
 12 15  1  0
 15 16  3  0
  8 17  1  0
 17 18  1  0
 18 19  1  0
 19 20  2  0
 20 21  1  0
 21 22  1  0
 21 23  1  0
  1 24  1  0
 24 25  2  0
 25 26  1  0
 26 27  2  0
 27 28  1  0
 28 29  1  0
 27 30  1  0
 30 31  1  0
 31 32  2  0
 32 33  1  0
 33 34  2  0
 34 35  1  0
 35 36  1  0
 36 37  1  0
 37 38  1  0
 36 39  2  0
 32 40  1  0
 40 41  1  0
 41 42  2  0
 42 43  1  0
 43 44  1  0
 44 45  1  0
 43 46  1  0
 46 47  2  0
 47 48  1  0
 48 49  2  0
 49 50  1  0
 50 51  1  0
 49 52  1  0
 48 53  1  0
 53 54  2  0
 54 55  1  0
 55 56  1  0
 56 57  2  0
 57 58  1  0
 58 59  2  0
 59 60  1  0
 60 61  1  0
 59 62  1  0
 62 63  2  0
 55 64  1  0
 64 65  2  0
 65 66  1  0
 66 67  2  0
 67 68  1  0
 68 69  1  0
 67 70  1  0
 70 71  2  0
 54 72  1  0
 72 73  1  0
 73 74  1  0
 74 75  2  0
 75 76  1  0
 76 77  1  0
 77 78  2  0
 78 79  1  0
 79 80  2  0
 80 81  1  0
 81 82  1  0
 80 83  1  0
 83 84  2  0
 76 85  1  0
 85 86  2  0
 86 87  1  0
 87 88  2  0
 88 89  1  0
 89 90  1  0
 88 91  1  0
 91 92  2  0
 75 93  1  0
 93 94  1  0
 74 95  1  0
 95 96  2  3
 96 97  1  0
 97 98  2  0
 97 99  1  0
 99100  2  0
100101  1  0
101102  2  0
102103  1  0
103104  2  0
104105  1  0
105106  2  3
106107  1  0
107108  3  0
106109  1  0
109110  3  0
102111  1  0
111112  1  0
112113  1  0
113114  2  0
114115  1  0
115116  1  0
115117  1  0
 11  2  1  0
 23 17  1  0
 34 24  1  0
 50 40  2  0
 94 53  1  0
105 96  1  0
117111  1  0
 10  5  1  0
 22 18  1  0
 31 25  1  0
 39 33  1  0
 47 41  1  0
 63 56  1  0
 71 64  1  0
 93 72  2  0
104 99  1  0
116112  1  0
 23  7  1  0
 84 77  1  0
 92 85  1  0
117101  1  0
  1118  1  0
  6119  1  0
  9120  1  0
 17121  1  0
 18122  1  0
 19123  1  0
 20124  1  0
 21125  1  0
 22126  1  0
 22127  1  0
 23128  1  0
 26129  1  0
 28130  1  0
 28131  1  0
 29132  1  0
 29133  1  0
 29134  1  0
 37135  1  0
 37136  1  0
 38137  1  0
 38138  1  0
 38139  1  0
 39140  1  0
 44141  1  0
 44142  1  0
 45143  1  0
 45144  1  0
 45145  1  0
 57146  1  0
 58147  1  0
 61148  1  0
 61149  1  0
 61150  1  0
 62151  1  0
 63152  1  0
 65153  1  0
 66154  1  0
 69155  1  0
 69156  1  0
 69157  1  0
 70158  1  0
 71159  1  0
 78160  1  0
 79161  1  0
 82162  1  0
 82163  1  0
 82164  1  0
 83165  1  0
 84166  1  0
 86167  1  0
 87168  1  0
 90169  1  0
 90170  1  0
 90171  1  0
 91172  1  0
 92173  1  0
 95174  1  0
100175  1  0
103176  1  0
111177  1  0
112178  1  0
113179  1  0
114180  1  0
115181  1  0
116182  1  0
116183  1  0
117184  1  0
M  END

