
     RDKit          3D

192212  0  0  0  0  0  0  0  0999 V2000
   -0.8513   -5.5589    3.1816 C   0  0  0  0  0  0  0  0  0  0  0  0
    0.1632   -5.4794    4.0656 C   0  0  0  0  0  0  0  0  0  0  0  0
    0.3883   -4.3253    4.9416 C   0  0  0  0  0  0  0  0  0  0  0  0
   -0.3407   -3.3009    5.0268 O   0  0  0  0  0  0  0  0  0  0  0  0
    1.5629   -4.5542    5.7371 C   0  0  0  0  0  0  0  0  0  0  0  0
    2.1363   -3.6594    6.6690 C   0  0  0  0  0  0  0  0  0  0  0  0
    3.3379   -4.0929    7.1864 C   0  0  0  0  0  0  0  0  0  0  0  0
    3.9553   -5.3269    6.8081 C   0  0  0  0  0  0  0  0  0  0  0  0
    3.3845   -6.2197    5.9168 C   0  0  0  0  0  0  0  0  0  0  0  0
    2.1223   -5.8124    5.3901 C   0  0  0  0  0  0  0  0  0  0  0  0
    1.2516   -6.4746    4.3652 C   0  0  0  0  0  0  0  0  0  0  0  0
    1.4447   -7.6992    3.8025 C   0  0  0  0  0  0  0  0  0  0  0  0
    2.4506   -8.6175    4.2609 C   0  0  0  0  0  0  0  0  0  0  0  0
    3.2551   -9.3709    4.6158 N   0  0  0  0  0  0  0  0  0  0  0  0
    0.6457   -8.2029    2.7156 C   0  0  0  0  0  0  0  0  0  0  0  0
    0.0124   -8.6244    1.8428 N   0  0  0  0  0  0  0  0  0  0  0  0
    5.1480   -5.0114    7.6624 C   0  0  0  0  0  0  0  0  0  0  0  0
    6.4515   -4.5341    6.9502 C   0  0  0  0  0  0  0  0  0  0  0  0
    6.1037   -3.7926    5.6773 C   0  0  0  0  0  0  0  0  0  0  0  0
    5.5216   -2.6524    6.0502 C   0  0  0  0  0  0  0  0  0  0  0  0
    5.4868   -2.6571    7.5621 C   0  0  0  0  0  0  0  0  0  0  0  0
    6.8114   -3.3479    7.8255 C   0  0  0  0  0  0  0  0  0  0  0  0
    4.5047   -3.7567    8.0680 C   0  0  0  0  0  0  0  0  0  0  0  0
   -1.5457   -4.3483    2.7028 C   0  0  0  0  0  0  0  0  0  0  0  0
   -2.8872   -4.1050    3.0335 C   0  0  0  0  0  0  0  0  0  0  0  0
   -3.5866   -5.0120    3.7601 F   0  0  0  0  0  0  0  0  0  0  0  0
   -3.5098   -2.9085    2.6374 C   0  0  0  0  0  0  0  0  0  0  0  0
   -4.8062   -2.6836    2.9744 F   0  0  0  0  0  0  0  0  0  0  0  0
   -2.7863   -1.9380    1.9239 C   0  0  0  0  0  0  0  0  0  0  0  0
   -1.4518   -2.2038    1.5515 C   0  0  0  0  0  0  0  0  0  0  0  0
   -0.7398   -1.3113    0.8123 N   0  0  0  0  0  0  0  0  0  0  0  0
    0.5523   -1.5290    0.4478 C   0  0  0  0  0  0  0  0  0  0  0  0
    1.2452   -0.4618   -0.3612 C   0  0  0  0  0  0  0  0  0  0  0  0
    1.0632   -0.7145   -1.8498 C   0  0  0  0  0  0  0  0  0  0  0  0
    1.1667   -2.7479    0.8188 C   0  0  0  0  0  0  0  0  0  0  0  0
    0.4520   -3.6360    1.5615 N   0  0  0  0  0  0  0  0  0  0  0  0
   -0.8354   -3.4045    1.9382 C   0  0  0  0  0  0  0  0  0  0  0  0
    2.5946   -3.0912    0.4784 C   0  0  0  0  0  0  0  0  0  0  0  0
    3.5312   -2.6840    1.6107 C   0  0  0  0  0  0  0  0  0  0  0  0
   -3.4058   -0.6617    1.5127 C   0  0  0  0  0  0  0  0  0  0  0  0
   -2.8282    0.5826    1.8496 C   0  0  0  0  0  0  0  0  0  0  0  0
   -2.0999    0.8172    3.0803 N   0  0  0  0  0  0  0  0  0  0  0  0
   -2.4878    0.1468    4.2992 C   0  0  0  0  0  0  0  0  0  0  0  0
   -3.8459   -0.0554    4.6057 C   0  0  0  0  0  0  0  0  0  0  0  0
   -4.2168   -0.7482    5.7611 C   0  0  0  0  0  0  0  0  0  0  0  0
   -3.2360   -1.2370    6.6315 C   0  0  0  0  0  0  0  0  0  0  0  0
   -3.7087   -2.1685    8.0897 S   0  0  0  0  0  0  0  0  0  0  0  0
   -3.6515   -3.7719    7.2261 C   0  0  0  0  0  0  0  0  0  0  0  0
   -1.8841   -1.0027    6.3566 C   0  0  0  0  0  0  0  0  0  0  0  0
   -1.5110   -0.3196    5.1962 C   0  0  0  0  0  0  0  0  0  0  0  0
   -1.0754    1.8203    3.1575 C   0  0  0  0  0  0  0  0  0  0  0  0
    0.2141    1.5443    2.6861 C   0  0  0  0  0  0  0  0  0  0  0  0
    1.2077    2.5251    2.7448 C   0  0  0  0  0  0  0  0  0  0  0  0
    0.9226    3.7792    3.2923 C   0  0  0  0  0  0  0  0  0  0  0  0
    2.2022    5.0327    3.3630 S   0  0  0  0  0  0  0  0  0  0  0  0
    1.8356    5.6687    1.6963 C   0  0  0  0  0  0  0  0  0  0  0  0
   -0.3552    4.0451    3.8023 C   0  0  0  0  0  0  0  0  0  0  0  0
   -1.3504    3.0656    3.7377 C   0  0  0  0  0  0  0  0  0  0  0  0
   -2.9515    1.4988    0.7946 C   0  0  0  0  0  0  0  0  0  0  0  0
   -1.9815    2.7780    0.2962 S   0  0  0  0  0  0  0  0  0  0  0  0
   -2.5162    2.7746   -1.3150 C   0  0  0  0  0  0  0  0  0  0  0  0
   -3.4548    1.7481   -1.4680 C   0  0  0  0  0  0  0  0  0  0  0  0
   -4.0477    1.3821   -2.7199 N   0  0  0  0  0  0  0  0  0  0  0  0
   -5.3796    1.8406   -2.9785 C   0  0  0  0  0  0  0  0  0  0  0  0
   -6.4711    1.0204   -2.6661 C   0  0  0  0  0  0  0  0  0  0  0  0
   -7.7737    1.5100   -2.8034 C   0  0  0  0  0  0  0  0  0  0  0  0
   -7.9924    2.8140   -3.2629 C   0  0  0  0  0  0  0  0  0  0  0  0
   -9.6642    3.4615   -3.3587 S   0  0  0  0  0  0  0  0  0  0  0  0
   -9.6333    4.1128   -1.6550 C   0  0  0  0  0  0  0  0  0  0  0  0
   -6.9044    3.6200   -3.6167 C   0  0  0  0  0  0  0  0  0  0  0  0
   -5.6005    3.1392   -3.4673 C   0  0  0  0  0  0  0  0  0  0  0  0
   -3.3199    0.6194   -3.7021 C   0  0  0  0  0  0  0  0  0  0  0  0
   -2.5129   -0.4612   -3.3091 C   0  0  0  0  0  0  0  0  0  0  0  0
   -1.7582   -1.1626   -4.2482 C   0  0  0  0  0  0  0  0  0  0  0  0
   -1.7758   -0.7720   -5.5901 C   0  0  0  0  0  0  0  0  0  0  0  0
   -0.7001   -1.5894   -6.7676 S   0  0  0  0  0  0  0  0  0  0  0  0
    0.6758   -0.4395   -6.4639 C   0  0  0  0  0  0  0  0  0  0  0  0
   -2.5999    0.2799   -6.0008 C   0  0  0  0  0  0  0  0  0  0  0  0
   -3.3767    0.9697   -5.0629 C   0  0  0  0  0  0  0  0  0  0  0  0
   -3.6694    1.0549   -0.2782 C   0  0  0  0  0  0  0  0  0  0  0  0
   -4.1351   -0.5311   -0.0165 S   0  0  0  0  0  0  0  0  0  0  0  0
   -1.6927    3.2928   -2.4109 C   0  0  0  0  0  0  0  0  0  0  0  0
   -0.4452    2.4218   -3.1202 S   0  0  0  0  0  0  0  0  0  0  0  0
    0.0151    3.5926   -4.2368 C   0  0  0  0  0  0  0  0  0  0  0  0
   -0.8397    4.6929   -4.0824 C   0  0  0  0  0  0  0  0  0  0  0  0
   -0.7949    5.9462   -4.8705 C   0  0  0  0  0  0  0  0  0  0  0  0
    0.0753    6.1085   -5.7651 O   0  0  0  0  0  0  0  0  0  0  0  0
   -1.7808    7.0101   -4.5619 C   0  0  0  0  0  0  0  0  0  0  0  0
   -1.9148    8.2303   -5.2375 C   0  0  0  0  0  0  0  0  0  0  0  0
   -1.1730    8.7071   -6.4547 C   0  0  0  0  0  0  0  0  0  0  0  0
   -1.7224    8.0515   -7.7178 C   0  0  0  0  0  0  0  0  0  0  0  0
   -3.1725    9.0928   -4.5282 S   0  0  0  0  0  0  0  0  0  0  0  0
   -3.5448    7.9653   -3.3369 C   0  0  0  0  0  0  0  0  0  0  0  0
   -4.6486    8.1499   -2.3376 C   0  0  0  0  0  0  0  0  0  0  0  0
   -5.9146    7.4241   -2.7786 C   0  0  0  0  0  0  0  0  0  0  0  0
   -2.7000    6.8575   -3.4997 C   0  0  0  0  0  0  0  0  0  0  0  0
   -2.7249    5.6131   -2.6929 C   0  0  0  0  0  0  0  0  0  0  0  0
   -3.5221    5.4763   -1.7268 O   0  0  0  0  0  0  0  0  0  0  0  0
   -1.7774    4.5328   -3.0400 C   0  0  0  0  0  0  0  0  0  0  0  0
    1.0498    3.3975   -5.2703 C   0  0  0  0  0  0  0  0  0  0  0  0
    2.1976    2.7256   -5.0703 C   0  0  0  0  0  0  0  0  0  0  0  0
    2.9033    2.0343   -6.1522 C   0  0  0  0  0  0  0  0  0  0  0  0
    2.7509    2.2395   -7.3876 O   0  0  0  0  0  0  0  0  0  0  0  0
    3.7201    0.9878   -5.5721 C   0  0  0  0  0  0  0  0  0  0  0  0
    4.4082   -0.0463   -6.2529 C   0  0  0  0  0  0  0  0  0  0  0  0
    4.9995   -0.9745   -5.4142 C   0  0  0  0  0  0  0  0  0  0  0  0
    4.9132   -0.9027   -3.9858 C   0  0  0  0  0  0  0  0  0  0  0  0
    4.2284    0.0932   -3.3126 C   0  0  0  0  0  0  0  0  0  0  0  0
    3.6280    1.0683   -4.1565 C   0  0  0  0  0  0  0  0  0  0  0  0
    2.7923    2.2433   -3.7900 C   0  0  0  0  0  0  0  0  0  0  0  0
    2.8760    2.9503   -2.6351 C   0  0  0  0  0  0  0  0  0  0  0  0
    3.6168    2.4805   -1.4909 C   0  0  0  0  0  0  0  0  0  0  0  0
    4.2190    2.1157   -0.5748 N   0  0  0  0  0  0  0  0  0  0  0  0
    2.3783    4.2973   -2.5302 C   0  0  0  0  0  0  0  0  0  0  0  0
    1.9820    5.3796   -2.4337 N   0  0  0  0  0  0  0  0  0  0  0  0
    5.7193   -2.1598   -3.8550 C   0  0  0  0  0  0  0  0  0  0  0  0
    4.9737   -3.4681   -3.4541 C   0  0  0  0  0  0  0  0  0  0  0  0
    3.5544   -3.4301   -3.9653 C   0  0  0  0  0  0  0  0  0  0  0  0
    3.6263   -3.5044   -5.2937 C   0  0  0  0  0  0  0  0  0  0  0  0
    5.0938   -3.5906   -5.6441 C   0  0  0  0  0  0  0  0  0  0  0  0
    5.5676   -4.4274   -4.4691 C   0  0  0  0  0  0  0  0  0  0  0  0
    5.8020   -2.2411   -5.3169 C   0  0  0  0  0  0  0  0  0  0  0  0
   -1.1017   -6.4722    2.6756 H   0  0  0  0  0  0  0  0  0  0  0  0
    1.7035   -2.6980    6.9157 H   0  0  0  0  0  0  0  0  0  0  0  0
    3.9181   -7.1068    5.6312 H   0  0  0  0  0  0  0  0  0  0  0  0
    5.3063   -5.7248    8.5014 H   0  0  0  0  0  0  0  0  0  0  0  0
    7.2439   -5.3053    6.8390 H   0  0  0  0  0  0  0  0  0  0  0  0
    6.3429   -4.0827    4.6601 H   0  0  0  0  0  0  0  0  0  0  0  0
    5.1973   -1.8563    5.3883 H   0  0  0  0  0  0  0  0  0  0  0  0
    5.3656   -1.6604    8.0334 H   0  0  0  0  0  0  0  0  0  0  0  0
    7.6933   -2.7724    7.4522 H   0  0  0  0  0  0  0  0  0  0  0  0
    6.9659   -3.6133    8.8997 H   0  0  0  0  0  0  0  0  0  0  0  0
    4.2558   -3.7083    9.1515 H   0  0  0  0  0  0  0  0  0  0  0  0
    0.8040    0.5294   -0.1175 H   0  0  0  0  0  0  0  0  0  0  0  0
    2.3231   -0.3994   -0.1078 H   0  0  0  0  0  0  0  0  0  0  0  0
   -0.0119   -0.7755   -2.0922 H   0  0  0  0  0  0  0  0  0  0  0  0
    1.5032    0.1230   -2.4232 H   0  0  0  0  0  0  0  0  0  0  0  0
    1.5577   -1.6582   -2.1547 H   0  0  0  0  0  0  0  0  0  0  0  0
    2.6762   -4.1881    0.3222 H   0  0  0  0  0  0  0  0  0  0  0  0
    2.9199   -2.6157   -0.4707 H   0  0  0  0  0  0  0  0  0  0  0  0
    3.2744   -3.2385    2.5387 H   0  0  0  0  0  0  0  0  0  0  0  0
    4.5765   -2.9279    1.3301 H   0  0  0  0  0  0  0  0  0  0  0  0
    3.4575   -1.5948    1.8017 H   0  0  0  0  0  0  0  0  0  0  0  0
   -4.6196    0.3162    3.9434 H   0  0  0  0  0  0  0  0  0  0  0  0
   -5.2673   -0.9108    5.9756 H   0  0  0  0  0  0  0  0  0  0  0  0
   -2.6336   -3.9560    6.8275 H   0  0  0  0  0  0  0  0  0  0  0  0
   -3.9083   -4.5794    7.9420 H   0  0  0  0  0  0  0  0  0  0  0  0
   -4.3868   -3.7835    6.3950 H   0  0  0  0  0  0  0  0  0  0  0  0
   -1.1212   -1.3718    7.0315 H   0  0  0  0  0  0  0  0  0  0  0  0
   -0.4574   -0.1786    4.9835 H   0  0  0  0  0  0  0  0  0  0  0  0
    0.4528    0.5690    2.2945 H   0  0  0  0  0  0  0  0  0  0  0  0
    2.1976    2.3073    2.3658 H   0  0  0  0  0  0  0  0  0  0  0  0
    1.9018    4.8534    0.9441 H   0  0  0  0  0  0  0  0  0  0  0  0
    0.8185    6.1122    1.6787 H   0  0  0  0  0  0  0  0  0  0  0  0
    2.5750    6.4538    1.4370 H   0  0  0  0  0  0  0  0  0  0  0  0
   -0.5750    5.0056    4.2483 H   0  0  0  0  0  0  0  0  0  0  0  0
   -2.3403    3.2798    4.1235 H   0  0  0  0  0  0  0  0  0  0  0  0
   -6.3068    0.0215   -2.2835 H   0  0  0  0  0  0  0  0  0  0  0  0
   -8.6097    0.8808   -2.5326 H   0  0  0  0  0  0  0  0  0  0  0  0
   -9.0016    5.0237   -1.6134 H   0  0  0  0  0  0  0  0  0  0  0  0
   -9.2339    3.3592   -0.9473 H   0  0  0  0  0  0  0  0  0  0  0  0
  -10.6669    4.3713   -1.3512 H   0  0  0  0  0  0  0  0  0  0  0  0
   -7.0723    4.6229   -3.9864 H   0  0  0  0  0  0  0  0  0  0  0  0
   -4.7633    3.7763   -3.7153 H   0  0  0  0  0  0  0  0  0  0  0  0
   -2.4543   -0.7543   -2.2723 H   0  0  0  0  0  0  0  0  0  0  0  0
   -1.1348   -1.9890   -3.9309 H   0  0  0  0  0  0  0  0  0  0  0  0
    0.9950   -0.4948   -5.4032 H   0  0  0  0  0  0  0  0  0  0  0  0
    0.3592    0.5931   -6.7059 H   0  0  0  0  0  0  0  0  0  0  0  0
    1.5324   -0.7161   -7.1123 H   0  0  0  0  0  0  0  0  0  0  0  0
   -2.6222    0.5821   -7.0413 H   0  0  0  0  0  0  0  0  0  0  0  0
   -3.9890    1.7944   -5.3940 H   0  0  0  0  0  0  0  0  0  0  0  0
   -0.0877    8.5026   -6.3543 H   0  0  0  0  0  0  0  0  0  0  0  0
   -1.2886    9.8095   -6.5436 H   0  0  0  0  0  0  0  0  0  0  0  0
   -2.7989    8.3018   -7.8413 H   0  0  0  0  0  0  0  0  0  0  0  0
   -1.6083    6.9476   -7.6685 H   0  0  0  0  0  0  0  0  0  0  0  0
   -1.1667    8.4258   -8.6027 H   0  0  0  0  0  0  0  0  0  0  0  0
   -4.8745    9.2355   -2.2417 H   0  0  0  0  0  0  0  0  0  0  0  0
   -4.3317    7.7995   -1.3368 H   0  0  0  0  0  0  0  0  0  0  0  0
   -6.7217    7.5977   -2.0334 H   0  0  0  0  0  0  0  0  0  0  0  0
   -6.2547    7.8054   -3.7670 H   0  0  0  0  0  0  0  0  0  0  0  0
   -5.7310    6.3349   -2.8496 H   0  0  0  0  0  0  0  0  0  0  0  0
    0.7770    3.6636   -6.2859 H   0  0  0  0  0  0  0  0  0  0  0  0
    4.4423   -0.1297   -7.3314 H   0  0  0  0  0  0  0  0  0  0  0  0
    4.1277    0.0697   -2.2399 H   0  0  0  0  0  0  0  0  0  0  0  0
    6.7055   -2.0135   -3.3624 H   0  0  0  0  0  0  0  0  0  0  0  0
    5.0821   -3.7680   -2.3904 H   0  0  0  0  0  0  0  0  0  0  0  0
    2.6421   -3.4556   -3.3808 H   0  0  0  0  0  0  0  0  0  0  0  0
    2.7828   -3.5879   -5.9680 H   0  0  0  0  0  0  0  0  0  0  0  0
    5.3152   -4.0128   -6.6488 H   0  0  0  0  0  0  0  0  0  0  0  0
    6.6759   -4.5107   -4.4052 H   0  0  0  0  0  0  0  0  0  0  0  0
    5.1149   -5.4461   -4.4333 H   0  0  0  0  0  0  0  0  0  0  0  0
    6.8391   -2.1484   -5.7121 H   0  0  0  0  0  0  0  0  0  0  0  0
  1  2  2  3
  2  3  1  0
  3  4  2  0
  3  5  1  0
  5  6  2  0
  6  7  1  0
  7  8  2  0
  8  9  1  0
  9 10  2  0
 10 11  1  0
 11 12  2  3
 12 13  1  0
 13 14  3  0
 12 15  1  0
 15 16  3  0
  8 17  1  0
 17 18  1  0
 18 19  1  0
 19 20  2  0
 20 21  1  0
 21 22  1  0
 21 23  1  0
  1 24  1  0
 24 25  2  0
 25 26  1  0
 25 27  1  0
 27 28  1  0
 27 29  2  0
 29 30  1  0
 30 31  2  0
 31 32  1  0
 32 33  1  0
 33 34  1  0
 32 35  2  0
 35 36  1  0
 36 37  2  0
 35 38  1  0
 38 39  1  0
 29 40  1  0
 40 41  2  0
 41 42  1  0
 42 43  1  0
 43 44  2  0
 44 45  1  0
 45 46  2  0
 46 47  1  0
 47 48  1  0
 46 49  1  0
 49 50  2  0
 42 51  1  0
 51 52  2  0
 52 53  1  0
 53 54  2  0
 54 55  1  0
 55 56  1  0
 54 57  1  0
 57 58  2  0
 41 59  1  0
 59 60  1  0
 60 61  1  0
 61 62  2  0
 62 63  1  0
 63 64  1  0
 64 65  2  0
 65 66  1  0
 66 67  2  0
 67 68  1  0
 68 69  1  0
 67 70  1  0
 70 71  2  0
 63 72  1  0
 72 73  2  0
 73 74  1  0
 74 75  2  0
 75 76  1  0
 76 77  1  0
 75 78  1  0
 78 79  2  0
 62 80  1  0
 80 81  1  0
 61 82  1  0
 82 83  1  0
 83 84  1  0
 84 85  2  0
 85 86  1  0
 86 87  2  0
 86 88  1  0
 88 89  2  0
 89 90  1  0
 90 91  1  0
 89 92  1  0
 92 93  1  0
 93 94  1  0
 94 95  1  0
 93 96  2  0
 96 97  1  0
 97 98  2  0
 97 99  1  0
 84100  1  0
100101  2  3
101102  1  0
102103  2  0
102104  1  0
104105  2  0
105106  1  0
106107  2  0
107108  1  0
108109  2  0
109110  1  0
110111  2  3
111112  1  0
112113  3  0
111114  1  0
114115  3  0
107116  1  0
116117  1  0
117118  1  0
118119  2  0
119120  1  0
120121  1  0
120122  1  0
 11  2  1  0
 23 17  1  0
 37 24  1  0
 81 40  1  0
 99 82  2  0
110101  1  0
122116  1  0
 10  5  1  0
 22 18  1  0
 37 30  1  0
 50 43  1  0
 58 51  1  0
 80 59  2  0
 99 85  1  0
109104  1  0
121117  1  0
 23  7  1  0
 71 64  1  0
 79 72  1  0
 96 88  1  0
122106  1  0
  1123  1  0
  6124  1  0
  9125  1  0
 17126  1  0
 18127  1  0
 19128  1  0
 20129  1  0
 21130  1  0
 22131  1  0
 22132  1  0
 23133  1  0
 33134  1  0
 33135  1  0
 34136  1  0
 34137  1  0
 34138  1  0
 38139  1  0
 38140  1  0
 39141  1  0
 39142  1  0
 39143  1  0
 44144  1  0
 45145  1  0
 48146  1  0
 48147  1  0
 48148  1  0
 49149  1  0
 50150  1  0
 52151  1  0
 53152  1  0
 56153  1  0
 56154  1  0
 56155  1  0
 57156  1  0
 58157  1  0
 65158  1  0
 66159  1  0
 69160  1  0
 69161  1  0
 69162  1  0
 70163  1  0
 71164  1  0
 73165  1  0
 74166  1  0
 77167  1  0
 77168  1  0
 77169  1  0
 78170  1  0
 79171  1  0
 90172  1  0
 90173  1  0
 91174  1  0
 91175  1  0
 91176  1  0
 94177  1  0
 94178  1  0
 95179  1  0
 95180  1  0
 95181  1  0
100182  1  0
105183  1  0
108184  1  0
116185  1  0
117186  1  0
118187  1  0
119188  1  0
120189  1  0
121190  1  0
121191  1  0
122192  1  0
M  END

