
     RDKit          3D

200222  0  0  0  0  0  0  0  0999 V2000
    0.2601   -7.6899   -0.8105 C   0  0  0  0  0  0  0  0  0  0  0  0
    1.5668   -7.9520   -0.8000 C   0  0  0  0  0  0  0  0  0  0  0  0
    2.6544   -7.0657   -0.7142 C   0  0  0  0  0  0  0  0  0  0  0  0
    2.6709   -5.8827   -0.1528 O   0  0  0  0  0  0  0  0  0  0  0  0
    3.8569   -7.6249   -1.3522 C   0  0  0  0  0  0  0  0  0  0  0  0
    5.0627   -6.9774   -1.6303 C   0  0  0  0  0  0  0  0  0  0  0  0
    6.0055   -7.6116   -2.4627 C   0  0  0  0  0  0  0  0  0  0  0  0
    5.6847   -8.8154   -2.9413 C   0  0  0  0  0  0  0  0  0  0  0  0
    4.4713   -9.4769   -2.6463 C   0  0  0  0  0  0  0  0  0  0  0  0
    3.5430   -8.8640   -1.8350 C   0  0  0  0  0  0  0  0  0  0  0  0
    2.0735   -9.1763   -1.5280 C   0  0  0  0  0  0  0  0  0  0  0  0
    1.4328  -10.0600   -2.1767 C   0  0  0  0  0  0  0  0  0  0  0  0
    0.0411  -10.1516   -2.4642 C   0  0  0  0  0  0  0  0  0  0  0  0
   -1.0826  -10.2292   -2.6785 N   0  0  0  0  0  0  0  0  0  0  0  0
    2.1763  -11.3134   -2.6274 C   0  0  0  0  0  0  0  0  0  0  0  0
    2.7182  -12.1998   -2.9522 N   0  0  0  0  0  0  0  0  0  0  0  0
    6.8618   -8.9217   -3.8436 C   0  0  0  0  0  0  0  0  0  0  0  0
    6.4888   -8.4661   -5.2643 C   0  0  0  0  0  0  0  0  0  0  0  0
    5.3676   -7.4903   -5.1389 C   0  0  0  0  0  0  0  0  0  0  0  0
    5.8504   -6.3711   -4.6332 C   0  0  0  0  0  0  0  0  0  0  0  0
    7.3117   -6.6215   -4.3124 C   0  0  0  0  0  0  0  0  0  0  0  0
    7.6444   -7.4941   -5.5168 C   0  0  0  0  0  0  0  0  0  0  0  0
    7.2951   -7.6145   -3.1658 C   0  0  0  0  0  0  0  0  0  0  0  0
   -0.2356   -6.3225   -0.7894 C   0  0  0  0  0  0  0  0  0  0  0  0
   -1.4026   -5.7214   -0.5816 C   0  0  0  0  0  0  0  0  0  0  0  0
   -2.5203   -6.2420    0.1755 N   0  0  0  0  0  0  0  0  0  0  0  0
   -3.5824   -6.8447   -0.5181 C   0  0  0  0  0  0  0  0  0  0  0  0
   -3.3924   -7.7787   -1.5056 C   0  0  0  0  0  0  0  0  0  0  0  0
   -4.4785   -8.2122   -2.1996 C   0  0  0  0  0  0  0  0  0  0  0  0
   -5.7346   -7.7161   -1.8904 C   0  0  0  0  0  0  0  0  0  0  0  0
   -7.1268   -8.2880   -2.8378 S   0  0  0  0  0  0  0  0  0  0  0  0
   -7.1089   -7.3144   -4.3941 C   0  0  0  0  0  0  0  0  0  0  0  0
   -5.9574   -6.7830   -0.8831 C   0  0  0  0  0  0  0  0  0  0  0  0
   -4.8611   -6.3533   -0.1987 C   0  0  0  0  0  0  0  0  0  0  0  0
   -2.5886   -6.0767    1.5811 C   0  0  0  0  0  0  0  0  0  0  0  0
   -2.9299   -7.0800    2.4515 C   0  0  0  0  0  0  0  0  0  0  0  0
   -2.9995   -6.8141    3.8470 C   0  0  0  0  0  0  0  0  0  0  0  0
   -2.7336   -5.5601    4.3216 C   0  0  0  0  0  0  0  0  0  0  0  0
   -2.8408   -5.1286    6.0257 S   0  0  0  0  0  0  0  0  0  0  0  0
   -1.3186   -5.4493    6.8956 C   0  0  0  0  0  0  0  0  0  0  0  0
   -2.3883   -4.5587    3.4184 C   0  0  0  0  0  0  0  0  0  0  0  0
   -2.3159   -4.8071    2.0927 C   0  0  0  0  0  0  0  0  0  0  0  0
   -1.5068   -4.3863   -1.0284 C   0  0  0  0  0  0  0  0  0  0  0  0
   -2.7243   -3.1444   -1.2319 S   0  0  0  0  0  0  0  0  0  0  0  0
   -1.7769   -1.9444   -2.0176 C   0  0  0  0  0  0  0  0  0  0  0  0
   -0.5722   -2.4873   -2.0967 C   0  0  0  0  0  0  0  0  0  0  0  0
    0.6679   -1.8626   -2.3743 N   0  0  0  0  0  0  0  0  0  0  0  0
    1.3302   -1.4184   -1.1146 C   0  0  0  0  0  0  0  0  0  0  0  0
    2.6435   -1.7248   -0.9872 C   0  0  0  0  0  0  0  0  0  0  0  0
    3.3522   -1.3714    0.1274 C   0  0  0  0  0  0  0  0  0  0  0  0
    2.7238   -0.6657    1.1725 C   0  0  0  0  0  0  0  0  0  0  0  0
    3.6816   -0.1567    2.5777 S   0  0  0  0  0  0  0  0  0  0  0  0
    3.5908   -1.4904    3.7926 C   0  0  0  0  0  0  0  0  0  0  0  0
    1.3470   -0.3620    1.0155 C   0  0  0  0  0  0  0  0  0  0  0  0
    0.6608   -0.7414   -0.1320 C   0  0  0  0  0  0  0  0  0  0  0  0
    1.3873   -1.5891   -3.4898 C   0  0  0  0  0  0  0  0  0  0  0  0
    1.9931   -0.2994   -3.5917 C   0  0  0  0  0  0  0  0  0  0  0  0
    2.8230    0.0460   -4.6260 C   0  0  0  0  0  0  0  0  0  0  0  0
    3.1046   -0.8474   -5.6051 C   0  0  0  0  0  0  0  0  0  0  0  0
    4.1712   -0.3775   -6.9464 S   0  0  0  0  0  0  0  0  0  0  0  0
    4.7191    1.3225   -6.6208 C   0  0  0  0  0  0  0  0  0  0  0  0
    2.5352   -2.0685   -5.5154 C   0  0  0  0  0  0  0  0  0  0  0  0
    1.6977   -2.4591   -4.5015 C   0  0  0  0  0  0  0  0  0  0  0  0
   -0.4755   -3.8065   -1.5651 C   0  0  0  0  0  0  0  0  0  0  0  0
    0.7123   -5.0421   -1.5480 S   0  0  0  0  0  0  0  0  0  0  0  0
   -2.3924   -0.6791   -2.4273 C   0  0  0  0  0  0  0  0  0  0  0  0
   -1.8799    0.0646   -3.4413 C   0  0  0  0  0  0  0  0  0  0  0  0
   -1.0579   -0.2535   -4.4467 N   0  0  0  0  0  0  0  0  0  0  0  0
   -0.9807    0.8308   -5.2558 N   0  0  0  0  0  0  0  0  0  0  0  0
   -0.2682    0.8366   -6.5081 C   0  0  0  0  0  0  0  0  0  0  0  0
   -1.1850    0.4046   -7.6486 C   0  0  0  0  0  0  0  0  0  0  0  0
   -1.7210    1.7898   -4.7778 N   0  0  0  0  0  0  0  0  0  0  0  0
   -2.3319    1.3900   -3.6306 C   0  0  0  0  0  0  0  0  0  0  0  0
   -3.2326    1.9482   -2.8540 C   0  0  0  0  0  0  0  0  0  0  0  0
   -3.7812    1.1622   -1.8036 C   0  0  0  0  0  0  0  0  0  0  0  0
   -3.3780   -0.1209   -1.5852 C   0  0  0  0  0  0  0  0  0  0  0  0
   -3.8446   -0.9256   -0.6422 F   0  0  0  0  0  0  0  0  0  0  0  0
   -4.7291    1.7403   -1.0303 F   0  0  0  0  0  0  0  0  0  0  0  0
   -3.3396    3.4249   -2.5910 C   0  0  0  0  0  0  0  0  0  0  0  0
   -2.3905    3.9387   -1.6549 C   0  0  0  0  0  0  0  0  0  0  0  0
   -2.6840    5.0958   -1.0955 C   0  0  0  0  0  0  0  0  0  0  0  0
   -2.0170    5.5966    0.0616 C   0  0  0  0  0  0  0  0  0  0  0  0
   -0.6894    5.2972    0.4193 C   0  0  0  0  0  0  0  0  0  0  0  0
    0.0457    5.3698    1.4955 C   0  0  0  0  0  0  0  0  0  0  0  0
    1.3489    5.2460    1.5954 C   0  0  0  0  0  0  0  0  0  0  0  0
    2.1419    5.0085    0.5306 C   0  0  0  0  0  0  0  0  0  0  0  0
    3.8838    4.9775    0.3779 S   0  0  0  0  0  0  0  0  0  0  0  0
    4.5349    4.5296   -1.1953 C   0  0  0  0  0  0  0  0  0  0  0  0
    4.0699    5.2562   -2.3895 C   0  0  0  0  0  0  0  0  0  0  0  0
    0.8008    4.9269   -0.8893 Se  0  0  0  0  0  2  0  0  0  0  0  0
   -2.6040    6.6604    0.7417 C   0  0  0  0  0  0  0  0  0  0  0  0
   -3.7470    7.3060    0.4210 C   0  0  0  0  0  0  0  0  0  0  0  0
   -4.3714    6.7998   -0.7459 C   0  0  0  0  0  0  0  0  0  0  0  0
   -5.5023    7.5322   -1.3468 C   0  0  0  0  0  0  0  0  0  0  0  0
   -6.5509    8.1952   -0.9641 C   0  0  0  0  0  0  0  0  0  0  0  0
   -7.2028    9.0991   -1.7215 C   0  0  0  0  0  0  0  0  0  0  0  0
   -6.8225    9.3977   -2.9603 C   0  0  0  0  0  0  0  0  0  0  0  0
   -7.3064   10.5565   -4.2035 S   0  0  0  0  0  0  0  0  0  0  0  0
   -6.3831   12.1322   -3.9491 C   0  0  0  0  0  0  0  0  0  0  0  0
   -4.8721   11.8920   -4.0898 C   0  0  0  0  0  0  0  0  0  0  0  0
   -5.2702    8.2272   -3.1712 Se  0  0  0  0  0  2  0  0  0  0  0  0
   -3.8396    5.7404   -1.4319 C   0  0  0  0  0  0  0  0  0  0  0  0
   -4.5075    4.6300   -2.5957 S   0  0  0  0  0  0  0  0  0  0  0  0
   -4.1590    8.3113    1.2452 C   0  0  0  0  0  0  0  0  0  0  0  0
   -3.4559    8.5997    2.2975 C   0  0  0  0  0  0  0  0  0  0  0  0
   -2.1188    7.4250    2.1618 S   0  0  0  0  0  0  0  0  0  0  0  0
   -3.2954    9.5330    3.4453 C   0  0  0  0  0  0  0  0  0  0  0  0
   -3.1477    8.8502    4.6046 C   0  0  0  0  0  0  0  0  0  0  0  0
   -3.1531    7.4315    4.8758 C   0  0  0  0  0  0  0  0  0  0  0  0
   -3.8436    6.6068    4.1991 O   0  0  0  0  0  0  0  0  0  0  0  0
   -2.2832    7.1003    6.0088 C   0  0  0  0  0  0  0  0  0  0  0  0
   -2.0023    5.8011    6.4721 C   0  0  0  0  0  0  0  0  0  0  0  0
   -1.0155    5.7399    7.4984 C   0  0  0  0  0  0  0  0  0  0  0  0
   -0.4488    6.8489    7.9177 C   0  0  0  0  0  0  0  0  0  0  0  0
   -0.7357    8.1198    7.4707 C   0  0  0  0  0  0  0  0  0  0  0  0
   -1.7100    8.2296    6.4602 C   0  0  0  0  0  0  0  0  0  0  0  0
   -2.1992    9.3948    5.6444 C   0  0  0  0  0  0  0  0  0  0  0  0
   -1.9464   10.6450    5.8963 C   0  0  0  0  0  0  0  0  0  0  0  0
   -2.6018   11.7343    5.2185 C   0  0  0  0  0  0  0  0  0  0  0  0
   -3.1433   12.6524    4.6375 N   0  0  0  0  0  0  0  0  0  0  0  0
   -0.7632   11.0188    6.6311 C   0  0  0  0  0  0  0  0  0  0  0  0
    0.2311   11.3332    7.2601 N   0  0  0  0  0  0  0  0  0  0  0  0
    0.5296    5.9741    8.7082 C   0  0  0  0  0  0  0  0  0  0  0  0
    1.7312    5.6355    7.8135 C   0  0  0  0  0  0  0  0  0  0  0  0
    1.1606    5.4667    6.4260 C   0  0  0  0  0  0  0  0  0  0  0  0
    0.5898    4.2485    6.3298 C   0  0  0  0  0  0  0  0  0  0  0  0
    0.5088    3.7518    7.7285 C   0  0  0  0  0  0  0  0  0  0  0  0
    1.8600    4.1574    8.2044 C   0  0  0  0  0  0  0  0  0  0  0  0
   -0.3502    4.7778    8.4270 C   0  0  0  0  0  0  0  0  0  0  0  0
   -0.4159   -8.4914   -0.7512 H   0  0  0  0  0  0  0  0  0  0  0  0
    5.2941   -6.0342   -1.2020 H   0  0  0  0  0  0  0  0  0  0  0  0
    4.3016  -10.4238   -3.0769 H   0  0  0  0  0  0  0  0  0  0  0  0
    7.4739   -9.7801   -3.7550 H   0  0  0  0  0  0  0  0  0  0  0  0
    6.3334   -9.2387   -5.9754 H   0  0  0  0  0  0  0  0  0  0  0  0
    4.3344   -7.7684   -5.4370 H   0  0  0  0  0  0  0  0  0  0  0  0
    5.2549   -5.4858   -4.4875 H   0  0  0  0  0  0  0  0  0  0  0  0
    7.9339   -5.7790   -4.2041 H   0  0  0  0  0  0  0  0  0  0  0  0
    7.5080   -6.9087   -6.4579 H   0  0  0  0  0  0  0  0  0  0  0  0
    8.5944   -7.9831   -5.4586 H   0  0  0  0  0  0  0  0  0  0  0  0
    8.1793   -7.6553   -2.5196 H   0  0  0  0  0  0  0  0  0  0  0  0
   -2.4067   -8.0984   -1.6950 H   0  0  0  0  0  0  0  0  0  0  0  0
   -4.3583   -8.9595   -2.9906 H   0  0  0  0  0  0  0  0  0  0  0  0
   -6.2024   -7.6935   -4.9488 H   0  0  0  0  0  0  0  0  0  0  0  0
   -8.0453   -7.5576   -4.9387 H   0  0  0  0  0  0  0  0  0  0  0  0
   -7.0169   -6.2476   -4.1418 H   0  0  0  0  0  0  0  0  0  0  0  0
   -6.9851   -6.4535   -0.7004 H   0  0  0  0  0  0  0  0  0  0  0  0
   -4.9629   -5.5969    0.6306 H   0  0  0  0  0  0  0  0  0  0  0  0
   -3.1655   -8.0739    2.1714 H   0  0  0  0  0  0  0  0  0  0  0  0
   -3.2862   -7.6524    4.4874 H   0  0  0  0  0  0  0  0  0  0  0  0
   -0.9678   -6.4751    6.8253 H   0  0  0  0  0  0  0  0  0  0  0  0
   -0.5426   -4.7834    6.4222 H   0  0  0  0  0  0  0  0  0  0  0  0
   -1.4110   -5.1229    7.9665 H   0  0  0  0  0  0  0  0  0  0  0  0
   -2.1729   -3.5377    3.7907 H   0  0  0  0  0  0  0  0  0  0  0  0
   -2.0370   -3.9976    1.4510 H   0  0  0  0  0  0  0  0  0  0  0  0
    3.1469   -2.2943   -1.7929 H   0  0  0  0  0  0  0  0  0  0  0  0
    4.3876   -1.6131    0.2372 H   0  0  0  0  0  0  0  0  0  0  0  0
    2.5931   -1.5551    4.3093 H   0  0  0  0  0  0  0  0  0  0  0  0
    3.8503   -2.4918    3.3788 H   0  0  0  0  0  0  0  0  0  0  0  0
    4.3289   -1.3069    4.6260 H   0  0  0  0  0  0  0  0  0  0  0  0
    0.9216    0.1626    1.8055 H   0  0  0  0  0  0  0  0  0  0  0  0
   -0.3848   -0.5165   -0.2889 H   0  0  0  0  0  0  0  0  0  0  0  0
    1.7521    0.3689   -2.7988 H   0  0  0  0  0  0  0  0  0  0  0  0
    3.2468    1.0402   -4.6394 H   0  0  0  0  0  0  0  0  0  0  0  0
    5.3088    1.2595   -5.6717 H   0  0  0  0  0  0  0  0  0  0  0  0
    3.8455    1.9895   -6.5319 H   0  0  0  0  0  0  0  0  0  0  0  0
    5.4618    1.6388   -7.4345 H   0  0  0  0  0  0  0  0  0  0  0  0
    2.7730   -2.7831   -6.3024 H   0  0  0  0  0  0  0  0  0  0  0  0
    1.3088   -3.4471   -4.4913 H   0  0  0  0  0  0  0  0  0  0  0  0
    0.1502    1.8129   -6.7531 H   0  0  0  0  0  0  0  0  0  0  0  0
    0.5961    0.1060   -6.4510 H   0  0  0  0  0  0  0  0  0  0  0  0
   -1.7213    1.2840   -8.0433 H   0  0  0  0  0  0  0  0  0  0  0  0
   -0.5384    0.0082   -8.4370 H   0  0  0  0  0  0  0  0  0  0  0  0
   -1.9067   -0.3312   -7.3001 H   0  0  0  0  0  0  0  0  0  0  0  0
   -1.4874    3.3110   -1.4511 H   0  0  0  0  0  0  0  0  0  0  0  0
   -0.5360    5.5095    2.4955 H   0  0  0  0  0  0  0  0  0  0  0  0
    1.9045    5.3873    2.5975 H   0  0  0  0  0  0  0  0  0  0  0  0
    5.6728    4.9410   -1.1508 H   0  0  0  0  0  0  0  0  0  0  0  0
    4.7317    3.4476   -1.3329 H   0  0  0  0  0  0  0  0  0  0  0  0
    4.3517    6.3387   -2.3786 H   0  0  0  0  0  0  0  0  0  0  0  0
    4.6630    4.8672   -3.2977 H   0  0  0  0  0  0  0  0  0  0  0  0
    3.0474    5.1171   -2.7174 H   0  0  0  0  0  0  0  0  0  0  0  0
   -6.9382    7.9884    0.1006 H   0  0  0  0  0  0  0  0  0  0  0  0
   -8.1117    9.6381   -1.3229 H   0  0  0  0  0  0  0  0  0  0  0  0
   -6.7541   12.8593   -4.6336 H   0  0  0  0  0  0  0  0  0  0  0  0
   -6.5340   12.4011   -2.8807 H   0  0  0  0  0  0  0  0  0  0  0  0
   -4.6107   11.8240   -5.1646 H   0  0  0  0  0  0  0  0  0  0  0  0
   -4.3719   12.8091   -3.6958 H   0  0  0  0  0  0  0  0  0  0  0  0
   -4.5413   11.0621   -3.4779 H   0  0  0  0  0  0  0  0  0  0  0  0
   -5.1006    8.9229    1.0147 H   0  0  0  0  0  0  0  0  0  0  0  0
   -3.3160   10.5250    3.2320 H   0  0  0  0  0  0  0  0  0  0  0  0
   -2.4846    4.9455    6.0962 H   0  0  0  0  0  0  0  0  0  0  0  0
   -0.2556    8.9679    7.8218 H   0  0  0  0  0  0  0  0  0  0  0  0
    0.6585    6.3181    9.6846 H   0  0  0  0  0  0  0  0  0  0  0  0
    2.6074    6.2199    7.9305 H   0  0  0  0  0  0  0  0  0  0  0  0
    1.1838    6.1715    5.6302 H   0  0  0  0  0  0  0  0  0  0  0  0
    0.2443    3.7660    5.4005 H   0  0  0  0  0  0  0  0  0  0  0  0
    0.2274    2.7307    7.8910 H   0  0  0  0  0  0  0  0  0  0  0  0
    2.0145    4.0348    9.2706 H   0  0  0  0  0  0  0  0  0  0  0  0
    2.6771    3.6843    7.6035 H   0  0  0  0  0  0  0  0  0  0  0  0
   -0.9520    4.4238    9.2637 H   0  0  0  0  0  0  0  0  0  0  0  0
  1  2  2  3
  2  3  1  0
  3  4  2  0
  3  5  1  0
  5  6  2  0
  6  7  1  0
  7  8  2  0
  8  9  1  0
  9 10  2  0
 10 11  1  0
 11 12  2  3
 12 13  1  0
 13 14  3  0
 12 15  1  0
 15 16  3  0
  8 17  1  0
 17 18  1  0
 18 19  1  0
 19 20  2  0
 20 21  1  0
 21 22  1  0
 21 23  1  0
  1 24  1  0
 24 25  2  0
 25 26  1  0
 26 27  1  0
 27 28  2  0
 28 29  1  0
 29 30  2  0
 30 31  1  0
 31 32  1  0
 30 33  1  0
 33 34  2  0
 26 35  1  0
 35 36  2  0
 36 37  1  0
 37 38  2  0
 38 39  1  0
 39 40  1  0
 38 41  1  0
 41 42  2  0
 25 43  1  0
 43 44  1  0
 44 45  1  0
 45 46  2  0
 46 47  1  0
 47 48  1  0
 48 49  2  0
 49 50  1  0
 50 51  2  0
 51 52  1  0
 52 53  1  0
 51 54  1  0
 54 55  2  0
 47 56  1  0
 56 57  2  0
 57 58  1  0
 58 59  2  0
 59 60  1  0
 60 61  1  0
 59 62  1  0
 62 63  2  0
 46 64  1  0
 64 65  1  0
 45 66  1  0
 66 67  1  0
 67 68  2  0
 68 69  1  0
 69 70  1  0
 70 71  1  0
 69 72  1  0
 72 73  2  0
 73 74  1  0
 74 75  2  0
 75 76  1  0
 76 77  1  0
 75 78  1  0
 74 79  1  0
 79 80  2  0
 80 81  1  0
 81 82  2  0
 82 83  1  0
 83 84  2  0
 84 85  1  0
 85 86  2  0
 86 87  1  0
 87 88  1  0
 88 89  1  0
 86 90  1  0
 82 91  1  0
 91 92  2  0
 92 93  1  0
 93 94  1  0
 94 95  2  0
 95 96  1  0
 96 97  2  0
 97 98  1  0
 98 99  1  0
 99100  1  0
 97101  1  0
 93102  2  0
102103  1  0
 92104  1  0
104105  2  0
105106  1  0
105107  1  0
107108  2  3
108109  1  0
109110  2  0
109111  1  0
111112  2  0
112113  1  0
113114  2  0
114115  1  0
115116  2  0
116117  1  0
117118  2  3
118119  1  0
119120  3  0
118121  1  0
121122  3  0
114123  1  0
123124  1  0
124125  1  0
125126  2  0
126127  1  0
127128  1  0
127129  1  0
 11  2  1  0
 23 17  1  0
 65 24  1  0
 76 66  2  0
103 79  1  0
117108  1  0
129123  1  0
 10  5  1  0
 22 18  1  0
 34 27  1  0
 42 35  1  0
 64 43  2  0
 73 67  1  0
102 81  1  0
116111  1  0
128124  1  0
 23  7  1  0
 55 48  1  0
 63 56  1  0
 90 83  1  0
106 91  1  0
129113  1  0
101 94  1  0
  1130  1  0
  6131  1  0
  9132  1  0
 17133  1  0
 18134  1  0
 19135  1  0
 20136  1  0
 21137  1  0
 22138  1  0
 22139  1  0
 23140  1  0
 28141  1  0
 29142  1  0
 32143  1  0
 32144  1  0
 32145  1  0
 33146  1  0
 34147  1  0
 36148  1  0
 37149  1  0
 40150  1  0
 40151  1  0
 40152  1  0
 41153  1  0
 42154  1  0
 49155  1  0
 50156  1  0
 53157  1  0
 53158  1  0
 53159  1  0
 54160  1  0
 55161  1  0
 57162  1  0
 58163  1  0
 61164  1  0
 61165  1  0
 61166  1  0
 62167  1  0
 63168  1  0
 70169  1  0
 70170  1  0
 71171  1  0
 71172  1  0
 71173  1  0
 80174  1  0
 84175  1  0
 85176  1  0
 88177  1  0
 88178  1  0
 89179  1  0
 89180  1  0
 89181  1  0
 95182  1  0
 96183  1  0
 99184  1  0
 99185  1  0
100186  1  0
100187  1  0
100188  1  0
104189  1  0
107190  1  0
112191  1  0
115192  1  0
123193  1  0
124194  1  0
125195  1  0
126196  1  0
127197  1  0
128198  1  0
128199  1  0
129200  1  0
M  END

