
     RDKit          3D

174193  0  0  0  0  0  0  0  0999 V2000
    8.4649    0.5755    2.9381 C   0  0  0  0  0  0  0  0  0  0  0  0
    8.5350    1.8160    2.4091 C   0  0  0  0  0  0  0  0  0  0  0  0
    7.5110    2.4092    1.5348 C   0  0  0  0  0  0  0  0  0  0  0  0
    6.2762    2.1523    1.5464 O   0  0  0  0  0  0  0  0  0  0  0  0
    8.1697    3.2896    0.5901 C   0  0  0  0  0  0  0  0  0  0  0  0
    7.6105    3.8613   -0.5753 C   0  0  0  0  0  0  0  0  0  0  0  0
    8.5363    4.4724   -1.4001 C   0  0  0  0  0  0  0  0  0  0  0  0
    9.9357    4.5181   -1.1051 C   0  0  0  0  0  0  0  0  0  0  0  0
   10.4895    3.9705    0.0416 C   0  0  0  0  0  0  0  0  0  0  0  0
    9.5504    3.3550    0.9128 C   0  0  0  0  0  0  0  0  0  0  0  0
    9.7964    2.5639    2.1500 C   0  0  0  0  0  0  0  0  0  0  0  0
   10.8569    2.6588    2.9893 C   0  0  0  0  0  0  0  0  0  0  0  0
   11.9682    3.5366    2.7296 C   0  0  0  0  0  0  0  0  0  0  0  0
   12.8641    4.2407    2.5240 N   0  0  0  0  0  0  0  0  0  0  0  0
   10.8802    1.9798    4.2599 C   0  0  0  0  0  0  0  0  0  0  0  0
   10.9029    1.4358    5.2818 N   0  0  0  0  0  0  0  0  0  0  0  0
   10.2057    5.2251   -2.4000 C   0  0  0  0  0  0  0  0  0  0  0  0
   10.5182    6.7485   -2.3092 C   0  0  0  0  0  0  0  0  0  0  0  0
   10.3582    7.2867   -3.7128 C   0  0  0  0  0  0  0  0  0  0  0  0
    9.0478    7.2530   -3.9864 C   0  0  0  0  0  0  0  0  0  0  0  0
    8.3699    6.6869   -2.7595 C   0  0  0  0  0  0  0  0  0  0  0  0
    9.2511    7.3207   -1.6945 C   0  0  0  0  0  0  0  0  0  0  0  0
    8.7724    5.1840   -2.7005 C   0  0  0  0  0  0  0  0  0  0  0  0
    7.2636   -0.2632    2.7682 C   0  0  0  0  0  0  0  0  0  0  0  0
    7.1304   -1.1208    1.6475 C   0  0  0  0  0  0  0  0  0  0  0  0
    8.1923   -1.2811    0.7496 O   0  0  0  0  0  0  0  0  0  0  0  0
    8.4980   -0.3012   -0.2420 C   0  0  0  0  0  0  0  0  0  0  0  0
    9.2265   -0.9457   -1.4123 C   0  0  0  0  0  0  0  0  0  0  0  0
    5.8992   -1.7762    1.3925 C   0  0  0  0  0  0  0  0  0  0  0  0
    5.7554   -2.6801    0.3285 O   0  0  0  0  0  0  0  0  0  0  0  0
    6.7092   -3.6882   -0.0312 C   0  0  0  0  0  0  0  0  0  0  0  0
    7.0827   -4.5673    1.1586 C   0  0  0  0  0  0  0  0  0  0  0  0
    4.7669   -1.4853    2.1837 C   0  0  0  0  0  0  0  0  0  0  0  0
    4.9289   -0.7074    3.3432 C   0  0  0  0  0  0  0  0  0  0  0  0
    6.1838   -0.1081    3.6385 C   0  0  0  0  0  0  0  0  0  0  0  0
    6.2389    0.6689    4.7502 N   0  0  0  0  0  0  0  0  0  0  0  0
    4.6830    0.5272    5.2959 S   0  0  0  0  0  0  0  0  0  0  0  0
    3.9111   -0.4467    4.2053 N   0  0  0  0  0  0  0  0  0  0  0  0
    3.3969   -1.7839    1.6869 C   0  0  0  0  0  0  0  0  0  0  0  0
    2.5138   -0.7093    1.4911 C   0  0  0  0  0  0  0  0  0  0  0  0
    1.2230   -0.9127    1.0053 C   0  0  0  0  0  0  0  0  0  0  0  0
    0.7639   -2.1930    0.6476 C   0  0  0  0  0  0  0  0  0  0  0  0
    1.6431   -3.2782    0.8296 C   0  0  0  0  0  0  0  0  0  0  0  0
    1.3148   -4.5602    0.5347 N   0  0  0  0  0  0  0  0  0  0  0  0
    2.6889   -5.3509    1.0000 S   0  0  0  0  0  0  0  0  0  0  0  0
    3.7102   -4.1840    1.5597 N   0  0  0  0  0  0  0  0  0  0  0  0
    2.9517   -3.0755    1.3719 C   0  0  0  0  0  0  0  0  0  0  0  0
   -0.6577   -2.3846    0.2501 C   0  0  0  0  0  0  0  0  0  0  0  0
   -1.5154   -1.4130   -0.3190 C   0  0  0  0  0  0  0  0  0  0  0  0
   -1.0981   -0.1531   -0.8751 N   0  0  0  0  0  0  0  0  0  0  0  0
   -1.6619    1.0775   -0.3654 C   0  0  0  0  0  0  0  0  0  0  0  0
   -1.9625    2.1419   -1.2389 C   0  0  0  0  0  0  0  0  0  0  0  0
   -2.4076    3.3642   -0.7317 C   0  0  0  0  0  0  0  0  0  0  0  0
   -2.5656    3.5384    0.6486 C   0  0  0  0  0  0  0  0  0  0  0  0
   -3.0193    5.1448    1.3057 S   0  0  0  0  0  0  0  0  0  0  0  0
   -1.2808    5.6745    1.5070 C   0  0  0  0  0  0  0  0  0  0  0  0
   -2.3494    2.4586    1.5152 C   0  0  0  0  0  0  0  0  0  0  0  0
   -1.9126    1.2335    1.0103 C   0  0  0  0  0  0  0  0  0  0  0  0
   -0.1039   -0.1267   -1.9277 C   0  0  0  0  0  0  0  0  0  0  0  0
   -0.0525   -1.1527   -2.8976 C   0  0  0  0  0  0  0  0  0  0  0  0
    0.8730   -1.0929   -3.9472 C   0  0  0  0  0  0  0  0  0  0  0  0
    1.7502   -0.0095   -4.0464 C   0  0  0  0  0  0  0  0  0  0  0  0
    2.9125    0.0806   -5.4094 S   0  0  0  0  0  0  0  0  0  0  0  0
    4.3304   -0.4933   -4.4201 C   0  0  0  0  0  0  0  0  0  0  0  0
    1.7276    1.0012   -3.0767 C   0  0  0  0  0  0  0  0  0  0  0  0
    0.8211    0.9303   -2.0140 C   0  0  0  0  0  0  0  0  0  0  0  0
   -2.8491   -1.7882   -0.2112 C   0  0  0  0  0  0  0  0  0  0  0  0
   -4.3079   -1.0008   -0.4619 S   0  0  0  0  0  0  0  0  0  0  0  0
   -5.2507   -2.2237    0.2754 C   0  0  0  0  0  0  0  0  0  0  0  0
   -4.4057   -3.2865    0.6336 C   0  0  0  0  0  0  0  0  0  0  0  0
   -4.8431   -4.5546    1.1420 N   0  0  0  0  0  0  0  0  0  0  0  0
   -4.8757   -5.6416    0.2002 C   0  0  0  0  0  0  0  0  0  0  0  0
   -4.0342   -6.7547    0.3672 C   0  0  0  0  0  0  0  0  0  0  0  0
   -3.9558   -7.7322   -0.6247 C   0  0  0  0  0  0  0  0  0  0  0  0
   -4.7252   -7.6173   -1.7896 C   0  0  0  0  0  0  0  0  0  0  0  0
   -4.5683   -8.8348   -3.0992 S   0  0  0  0  0  0  0  0  0  0  0  0
   -3.3163   -7.8655   -3.9927 C   0  0  0  0  0  0  0  0  0  0  0  0
   -5.5994   -6.5369   -1.9414 C   0  0  0  0  0  0  0  0  0  0  0  0
   -5.6646   -5.5463   -0.9587 C   0  0  0  0  0  0  0  0  0  0  0  0
   -4.9593   -4.7885    2.5647 C   0  0  0  0  0  0  0  0  0  0  0  0
   -4.3273   -3.9358    3.4906 C   0  0  0  0  0  0  0  0  0  0  0  0
   -4.4411   -4.1622    4.8626 C   0  0  0  0  0  0  0  0  0  0  0  0
   -5.1679   -5.2594    5.3364 C   0  0  0  0  0  0  0  0  0  0  0  0
   -5.2935   -5.5542    7.0998 S   0  0  0  0  0  0  0  0  0  0  0  0
   -3.7369   -6.4956    7.1843 C   0  0  0  0  0  0  0  0  0  0  0  0
   -5.8046   -6.1128    4.4322 C   0  0  0  0  0  0  0  0  0  0  0  0
   -5.7036   -5.8827    3.0561 C   0  0  0  0  0  0  0  0  0  0  0  0
   -3.0735   -2.9900    0.3676 C   0  0  0  0  0  0  0  0  0  0  0  0
   -1.6185   -3.6842    0.8165 S   0  0  0  0  0  0  0  0  0  0  0  0
   -6.7079   -2.1856    0.4871 C   0  0  0  0  0  0  0  0  0  0  0  0
   -7.4451   -1.0600    0.5681 C   0  0  0  0  0  0  0  0  0  0  0  0
   -8.8732   -1.0335    0.2351 C   0  0  0  0  0  0  0  0  0  0  0  0
   -9.6420   -2.0300    0.1817 O   0  0  0  0  0  0  0  0  0  0  0  0
   -9.2241    0.3174   -0.1550 C   0  0  0  0  0  0  0  0  0  0  0  0
  -10.4496    0.7792   -0.6945 C   0  0  0  0  0  0  0  0  0  0  0  0
  -10.4191    2.1077   -1.0874 C   0  0  0  0  0  0  0  0  0  0  0  0
   -9.2468    2.9282   -0.9894 C   0  0  0  0  0  0  0  0  0  0  0  0
   -8.0507    2.4852   -0.4575 C   0  0  0  0  0  0  0  0  0  0  0  0
   -8.0807    1.1415   -0.0012 C   0  0  0  0  0  0  0  0  0  0  0  0
   -6.9979    0.3606    0.6397 C   0  0  0  0  0  0  0  0  0  0  0  0
   -6.1090    0.8615    1.5343 C   0  0  0  0  0  0  0  0  0  0  0  0
   -5.3815    0.0148    2.4442 C   0  0  0  0  0  0  0  0  0  0  0  0
   -4.7969   -0.6570    3.1845 N   0  0  0  0  0  0  0  0  0  0  0  0
   -5.9769    2.2764    1.7665 C   0  0  0  0  0  0  0  0  0  0  0  0
   -5.8669    3.4117    1.9680 N   0  0  0  0  0  0  0  0  0  0  0  0
   -9.9788    4.0814   -1.6053 C   0  0  0  0  0  0  0  0  0  0  0  0
  -10.3724    5.2304   -0.6347 C   0  0  0  0  0  0  0  0  0  0  0  0
  -11.4099    6.0463   -1.3569 C   0  0  0  0  0  0  0  0  0  0  0  0
  -12.5146    5.2941   -1.4142 C   0  0  0  0  0  0  0  0  0  0  0  0
  -12.1800    3.9919   -0.7284 C   0  0  0  0  0  0  0  0  0  0  0  0
  -11.2793    4.5369    0.3679 C   0  0  0  0  0  0  0  0  0  0  0  0
  -11.1864    3.2530   -1.6744 C   0  0  0  0  0  0  0  0  0  0  0  0
    9.3490    0.0936    3.3237 H   0  0  0  0  0  0  0  0  0  0  0  0
    6.5651    3.7700   -0.8354 H   0  0  0  0  0  0  0  0  0  0  0  0
   11.5598    3.9571    0.1958 H   0  0  0  0  0  0  0  0  0  0  0  0
   10.8490    4.6477   -3.0978 H   0  0  0  0  0  0  0  0  0  0  0  0
   11.4657    7.0183   -1.8005 H   0  0  0  0  0  0  0  0  0  0  0  0
   11.1273    7.7029   -4.3534 H   0  0  0  0  0  0  0  0  0  0  0  0
    8.5768    7.6411   -4.8854 H   0  0  0  0  0  0  0  0  0  0  0  0
    7.2839    6.8962   -2.6807 H   0  0  0  0  0  0  0  0  0  0  0  0
    9.0449    6.9629   -0.6606 H   0  0  0  0  0  0  0  0  0  0  0  0
    9.2157    8.4362   -1.6979 H   0  0  0  0  0  0  0  0  0  0  0  0
    8.5106    4.5813   -3.5998 H   0  0  0  0  0  0  0  0  0  0  0  0
    9.1719    0.4650    0.1914 H   0  0  0  0  0  0  0  0  0  0  0  0
    7.5683    0.1812   -0.6160 H   0  0  0  0  0  0  0  0  0  0  0  0
    8.5393   -1.6286   -1.9557 H   0  0  0  0  0  0  0  0  0  0  0  0
    9.5598   -0.1526   -2.1183 H   0  0  0  0  0  0  0  0  0  0  0  0
   10.1158   -1.5039   -1.0563 H   0  0  0  0  0  0  0  0  0  0  0  0
    7.6246   -3.2409   -0.4659 H   0  0  0  0  0  0  0  0  0  0  0  0
    6.2599   -4.3313   -0.8164 H   0  0  0  0  0  0  0  0  0  0  0  0
    6.1865   -5.1072    1.5316 H   0  0  0  0  0  0  0  0  0  0  0  0
    7.5155   -3.9587    1.9816 H   0  0  0  0  0  0  0  0  0  0  0  0
    7.8375   -5.3194    0.8452 H   0  0  0  0  0  0  0  0  0  0  0  0
    2.8212    0.3049    1.7275 H   0  0  0  0  0  0  0  0  0  0  0  0
    0.5780   -0.0509    0.9583 H   0  0  0  0  0  0  0  0  0  0  0  0
   -1.8278    2.0289   -2.3048 H   0  0  0  0  0  0  0  0  0  0  0  0
   -2.6014    4.1867   -1.4079 H   0  0  0  0  0  0  0  0  0  0  0  0
   -0.7109    5.5143    0.5651 H   0  0  0  0  0  0  0  0  0  0  0  0
   -0.8138    5.0991    2.3383 H   0  0  0  0  0  0  0  0  0  0  0  0
   -1.2597    6.7535    1.7653 H   0  0  0  0  0  0  0  0  0  0  0  0
   -2.4852    2.5782    2.5819 H   0  0  0  0  0  0  0  0  0  0  0  0
   -1.7174    0.4224    1.7039 H   0  0  0  0  0  0  0  0  0  0  0  0
   -0.7536   -1.9752   -2.8569 H   0  0  0  0  0  0  0  0  0  0  0  0
    0.8731   -1.8715   -4.6946 H   0  0  0  0  0  0  0  0  0  0  0  0
    5.2311   -0.5535   -5.0655 H   0  0  0  0  0  0  0  0  0  0  0  0
    4.1231   -1.4968   -3.9886 H   0  0  0  0  0  0  0  0  0  0  0  0
    4.5203    0.2400   -3.6036 H   0  0  0  0  0  0  0  0  0  0  0  0
    2.4343    1.8221   -3.1320 H   0  0  0  0  0  0  0  0  0  0  0  0
    0.8516    1.6934   -1.2473 H   0  0  0  0  0  0  0  0  0  0  0  0
   -3.4059   -6.8381    1.2440 H   0  0  0  0  0  0  0  0  0  0  0  0
   -3.2759   -8.5678   -0.5016 H   0  0  0  0  0  0  0  0  0  0  0  0
   -2.4367   -7.6846   -3.3380 H   0  0  0  0  0  0  0  0  0  0  0  0
   -2.9907   -8.4230   -4.8904 H   0  0  0  0  0  0  0  0  0  0  0  0
   -3.7523   -6.8941   -4.3105 H   0  0  0  0  0  0  0  0  0  0  0  0
   -6.1984   -6.4424   -2.8379 H   0  0  0  0  0  0  0  0  0  0  0  0
   -6.3161   -4.6973   -1.1180 H   0  0  0  0  0  0  0  0  0  0  0  0
   -3.7275   -3.0988    3.1604 H   0  0  0  0  0  0  0  0  0  0  0  0
   -3.9450   -3.4962    5.5613 H   0  0  0  0  0  0  0  0  0  0  0  0
   -3.8255   -7.4296    6.5914 H   0  0  0  0  0  0  0  0  0  0  0  0
   -2.8964   -5.8834    6.7936 H   0  0  0  0  0  0  0  0  0  0  0  0
   -3.5291   -6.7548    8.2436 H   0  0  0  0  0  0  0  0  0  0  0  0
   -6.3833   -6.9527    4.7888 H   0  0  0  0  0  0  0  0  0  0  0  0
   -6.2100   -6.5526    2.3729 H   0  0  0  0  0  0  0  0  0  0  0  0
   -7.2290   -3.1338    0.4864 H   0  0  0  0  0  0  0  0  0  0  0  0
  -11.3181    0.1467   -0.8141 H   0  0  0  0  0  0  0  0  0  0  0  0
   -7.1742    3.1198   -0.4178 H   0  0  0  0  0  0  0  0  0  0  0  0
   -9.5648    4.3958   -2.5901 H   0  0  0  0  0  0  0  0  0  0  0  0
   -9.5260    5.8068   -0.2047 H   0  0  0  0  0  0  0  0  0  0  0  0
  -11.3244    7.0744   -1.6946 H   0  0  0  0  0  0  0  0  0  0  0  0
  -13.4799    5.6104   -1.7971 H   0  0  0  0  0  0  0  0  0  0  0  0
  -13.0550    3.4020   -0.3853 H   0  0  0  0  0  0  0  0  0  0  0  0
  -10.7750    3.7508    0.9716 H   0  0  0  0  0  0  0  0  0  0  0  0
  -11.7953    5.2406    1.0637 H   0  0  0  0  0  0  0  0  0  0  0  0
  -11.5552    3.0564   -2.7095 H   0  0  0  0  0  0  0  0  0  0  0  0
  1  2  2  3
  2  3  1  0
  3  4  2  0
  3  5  1  0
  5  6  2  0
  6  7  1  0
  7  8  2  0
  8  9  1  0
  9 10  2  0
 10 11  1  0
 11 12  2  3
 12 13  1  0
 13 14  3  0
 12 15  1  0
 15 16  3  0
  8 17  1  0
 17 18  1  0
 18 19  1  0
 19 20  2  0
 20 21  1  0
 21 22  1  0
 21 23  1  0
  1 24  1  0
 24 25  2  0
 25 26  1  0
 26 27  1  0
 27 28  1  0
 25 29  1  0
 29 30  1  0
 30 31  1  0
 31 32  1  0
 29 33  2  0
 33 34  1  0
 34 35  1  0
 35 36  2  0
 36 37  1  0
 37 38  1  0
 33 39  1  0
 39 40  2  0
 40 41  1  0
 41 42  2  0
 42 43  1  0
 43 44  2  0
 44 45  1  0
 45 46  1  0
 46 47  2  0
 42 48  1  0
 48 49  2  0
 49 50  1  0
 50 51  1  0
 51 52  2  0
 52 53  1  0
 53 54  2  0
 54 55  1  0
 55 56  1  0
 54 57  1  0
 57 58  2  0
 50 59  1  0
 59 60  2  0
 60 61  1  0
 61 62  2  0
 62 63  1  0
 63 64  1  0
 62 65  1  0
 65 66  2  0
 49 67  1  0
 67 68  1  0
 68 69  1  0
 69 70  2  0
 70 71  1  0
 71 72  1  0
 72 73  2  0
 73 74  1  0
 74 75  2  0
 75 76  1  0
 76 77  1  0
 75 78  1  0
 78 79  2  0
 71 80  1  0
 80 81  2  0
 81 82  1  0
 82 83  2  0
 83 84  1  0
 84 85  1  0
 83 86  1  0
 86 87  2  0
 70 88  1  0
 88 89  1  0
 69 90  1  0
 90 91  2  3
 91 92  1  0
 92 93  2  0
 92 94  1  0
 94 95  2  0
 95 96  1  0
 96 97  2  0
 97 98  1  0
 98 99  2  0
 99100  1  0
100101  2  3
101102  1  0
102103  3  0
101104  1  0
104105  3  0
 97106  1  0
106107  1  0
107108  1  0
108109  2  0
109110  1  0
110111  1  0
110112  1  0
 11  2  1  0
 23 17  1  0
 35 24  1  0
 47 39  1  0
 89 48  1  0
100 91  1  0
112106  1  0
 10  5  1  0
 22 18  1  0
 38 34  2  0
 47 43  1  0
 58 51  1  0
 66 59  1  0
 88 67  2  0
 99 94  1  0
111107  1  0
 23  7  1  0
 79 72  1  0
 87 80  1  0
112 96  1  0
  1113  1  0
  6114  1  0
  9115  1  0
 17116  1  0
 18117  1  0
 19118  1  0
 20119  1  0
 21120  1  0
 22121  1  0
 22122  1  0
 23123  1  0
 27124  1  0
 27125  1  0
 28126  1  0
 28127  1  0
 28128  1  0
 31129  1  0
 31130  1  0
 32131  1  0
 32132  1  0
 32133  1  0
 40134  1  0
 41135  1  0
 52136  1  0
 53137  1  0
 56138  1  0
 56139  1  0
 56140  1  0
 57141  1  0
 58142  1  0
 60143  1  0
 61144  1  0
 64145  1  0
 64146  1  0
 64147  1  0
 65148  1  0
 66149  1  0
 73150  1  0
 74151  1  0
 77152  1  0
 77153  1  0
 77154  1  0
 78155  1  0
 79156  1  0
 81157  1  0
 82158  1  0
 85159  1  0
 85160  1  0
 85161  1  0
 86162  1  0
 87163  1  0
 90164  1  0
 95165  1  0
 98166  1  0
106167  1  0
107168  1  0
108169  1  0
109170  1  0
110171  1  0
111172  1  0
111173  1  0
112174  1  0
M  END

