
     RDKit          3D

208231  0  0  0  0  0  0  0  0999 V2000
    5.8598    5.9330   -3.2854 C   0  0  0  0  0  0  0  0  0  0  0  0
    6.1518    6.1130   -1.9520 C   0  0  0  0  0  0  0  0  0  0  0  0
    6.3517    6.0886   -0.6615 C   0  0  0  0  0  0  0  0  0  0  0  0
    5.6469    7.1416   -0.0063 O   0  0  0  0  0  0  0  0  0  0  0  0
    7.0937    5.2390    0.1654 C   0  0  0  0  0  0  0  0  0  0  0  0
    7.3174    5.2382    1.5192 C   0  0  0  0  0  0  0  0  0  0  0  0
    8.1647    4.2398    2.0205 C   0  0  0  0  0  0  0  0  0  0  0  0
    8.6573    3.3669    1.1371 C   0  0  0  0  0  0  0  0  0  0  0  0
    8.4501    3.3347   -0.2131 C   0  0  0  0  0  0  0  0  0  0  0  0
    7.6103    4.3477   -0.7037 C   0  0  0  0  0  0  0  0  0  0  0  0
    7.1816    4.6749   -2.0495 C   0  0  0  0  0  0  0  0  0  0  0  0
    7.6962    4.2429   -3.1065 C   0  0  0  0  0  0  0  0  0  0  0  0
    7.8204    4.5238   -4.4821 C   0  0  0  0  0  0  0  0  0  0  0  0
    7.9090    4.7213   -5.5391 N   0  0  0  0  0  0  0  0  0  0  0  0
    7.7742    2.6581   -2.8622 C   0  0  0  0  0  0  0  0  0  0  0  0
    7.8563    1.4224   -2.6686 N   0  0  0  0  0  0  0  0  0  0  0  0
    9.2801    2.5859    2.2866 C   0  0  0  0  0  0  0  0  0  0  0  0
    8.3065    1.4633    2.6857 C   0  0  0  0  0  0  0  0  0  0  0  0
    6.9552    2.0553    2.4035 C   0  0  0  0  0  0  0  0  0  0  0  0
    6.5948    2.8028    3.4366 C   0  0  0  0  0  0  0  0  0  0  0  0
    7.8659    3.0672    4.1803 C   0  0  0  0  0  0  0  0  0  0  0  0
    8.3652    1.6095    4.1875 C   0  0  0  0  0  0  0  0  0  0  0  0
    8.8327    3.6855    3.2207 C   0  0  0  0  0  0  0  0  0  0  0  0
    5.1760    4.7066   -3.7333 C   0  0  0  0  0  0  0  0  0  0  0  0
    4.0804    4.7650   -4.6189 C   0  0  0  0  0  0  0  0  0  0  0  0
    3.3189    3.7879   -4.8431 C   0  0  0  0  0  0  0  0  0  0  0  0
    2.0911    3.6421   -5.5211 C   0  0  0  0  0  0  0  0  0  0  0  0
    1.4626    4.8216   -6.1238 C   0  0  0  0  0  0  0  0  0  0  0  0
    0.4352    4.9748   -6.9641 C   0  0  0  0  0  0  0  0  0  0  0  0
   -0.0517    6.1958   -7.2780 C   0  0  0  0  0  0  0  0  0  0  0  0
    0.4528    7.3268   -6.7863 C   0  0  0  0  0  0  0  0  0  0  0  0
    0.1201    9.0578   -6.8945 S   0  0  0  0  0  0  0  0  0  0  0  0
   -0.8742    9.6467   -5.5085 C   0  0  0  0  0  0  0  0  0  0  0  0
   -0.1229    9.6040   -4.2007 C   0  0  0  0  0  0  0  0  0  0  0  0
    1.9022    6.6140   -5.6290 Se  0  0  0  0  0  2  0  0  0  0  0  0
    1.3465    2.4898   -5.5059 C   0  0  0  0  0  0  0  0  0  0  0  0
    1.7550    1.3090   -4.7850 C   0  0  0  0  0  0  0  0  0  0  0  0
    2.9400    1.4840   -4.1385 C   0  0  0  0  0  0  0  0  0  0  0  0
    3.2767    0.4606   -3.0610 C   0  0  0  0  0  0  0  0  0  0  0  0
    4.4210    0.1626   -2.4562 C   0  0  0  0  0  0  0  0  0  0  0  0
    4.4707   -0.6508   -1.3860 C   0  0  0  0  0  0  0  0  0  0  0  0
    3.3751   -1.2161   -0.8637 C   0  0  0  0  0  0  0  0  0  0  0  0
    2.8674   -2.1831    0.5104 S   0  0  0  0  0  0  0  0  0  0  0  0
    2.3473   -1.0313    1.8514 C   0  0  0  0  0  0  0  0  0  0  0  0
    1.1956   -0.1747    1.4519 C   0  0  0  0  0  0  0  0  0  0  0  0
    2.0162   -0.4601   -2.1121 Se  0  0  0  0  0  2  0  0  0  0  0  0
    3.6757    2.5664   -4.1412 C   0  0  0  0  0  0  0  0  0  0  0  0
    5.0476    3.1147   -3.2698 S   0  0  0  0  0  0  0  0  0  0  0  0
    0.8262    0.3878   -4.7990 C   0  0  0  0  0  0  0  0  0  0  0  0
   -0.3444    0.4640   -5.3835 C   0  0  0  0  0  0  0  0  0  0  0  0
   -0.2302    2.0391   -6.0560 S   0  0  0  0  0  0  0  0  0  0  0  0
   -1.5170   -0.4658   -5.1722 C   0  0  0  0  0  0  0  0  0  0  0  0
   -1.2770   -1.6625   -4.5122 C   0  0  0  0  0  0  0  0  0  0  0  0
   -0.2019   -2.3755   -4.4699 N   0  0  0  0  0  0  0  0  0  0  0  0
   -0.1586   -3.4853   -3.7786 C   0  0  0  0  0  0  0  0  0  0  0  0
    0.9949   -4.4233   -3.5063 C   0  0  0  0  0  0  0  0  0  0  0  0
    1.6863   -3.9902   -2.2186 C   0  0  0  0  0  0  0  0  0  0  0  0
   -1.7535   -3.5748   -3.1391 S   0  0  0  0  0  0  0  0  0  0  0  0
   -2.3656   -2.1305   -3.8245 C   0  0  0  0  0  0  0  0  0  0  0  0
   -3.6282   -1.4813   -3.7657 C   0  0  0  0  0  0  0  0  0  0  0  0
   -3.8724   -0.3433   -4.4420 C   0  0  0  0  0  0  0  0  0  0  0  0
   -2.7339    0.1488   -5.1624 C   0  0  0  0  0  0  0  0  0  0  0  0
   -3.4038    1.4719   -6.0014 S   0  0  0  0  0  0  0  0  0  0  0  0
   -5.0512    1.3304   -5.4288 C   0  0  0  0  0  0  0  0  0  0  0  0
   -6.1159    2.2404   -5.9256 C   0  0  0  0  0  0  0  0  0  0  0  0
   -5.5279    3.2248   -6.9496 C   0  0  0  0  0  0  0  0  0  0  0  0
   -4.9359    0.3197   -4.6707 N   0  0  0  0  0  0  0  0  0  0  0  0
   -4.3766   -1.9103   -2.5026 C   0  0  0  0  0  0  0  0  0  0  0  0
   -4.8577   -1.1701   -1.4972 C   0  0  0  0  0  0  0  0  0  0  0  0
   -5.4071    0.1453   -1.4511 N   0  0  0  0  0  0  0  0  0  0  0  0
   -4.6294    1.0951   -0.7020 C   0  0  0  0  0  0  0  0  0  0  0  0
   -5.3295    1.8005    0.3426 C   0  0  0  0  0  0  0  0  0  0  0  0
   -4.6206    2.7464    0.9881 C   0  0  0  0  0  0  0  0  0  0  0  0
   -3.3258    3.0591    0.7415 C   0  0  0  0  0  0  0  0  0  0  0  0
   -2.4642    4.2428    1.7863 S   0  0  0  0  0  0  0  0  0  0  0  0
   -1.7043    3.2778    3.1619 C   0  0  0  0  0  0  0  0  0  0  0  0
   -2.6419    2.3898   -0.2438 C   0  0  0  0  0  0  0  0  0  0  0  0
   -3.3466    1.4192   -0.9355 C   0  0  0  0  0  0  0  0  0  0  0  0
   -6.5647    0.5754   -2.0846 C   0  0  0  0  0  0  0  0  0  0  0  0
   -7.6925   -0.1445   -2.2578 C   0  0  0  0  0  0  0  0  0  0  0  0
   -8.8713    0.3538   -2.7272 C   0  0  0  0  0  0  0  0  0  0  0  0
   -8.9089    1.7041   -3.0576 C   0  0  0  0  0  0  0  0  0  0  0  0
  -10.4678    2.4450   -3.6002 S   0  0  0  0  0  0  0  0  0  0  0  0
  -11.2778    3.0665   -2.0797 C   0  0  0  0  0  0  0  0  0  0  0  0
   -7.8332    2.4408   -2.9081 C   0  0  0  0  0  0  0  0  0  0  0  0
   -6.5902    1.9892   -2.4165 C   0  0  0  0  0  0  0  0  0  0  0  0
   -4.8755   -1.8756   -0.2588 C   0  0  0  0  0  0  0  0  0  0  0  0
   -4.9944   -1.2585    1.3481 S   0  0  0  0  0  0  0  0  0  0  0  0
   -4.5114   -2.7641    2.1934 C   0  0  0  0  0  0  0  0  0  0  0  0
   -4.3285   -3.5944    1.1985 C   0  0  0  0  0  0  0  0  0  0  0  0
   -4.1385   -5.0433    1.4748 N   0  0  0  0  0  0  0  0  0  0  0  0
   -4.1651   -5.5691    2.7754 C   0  0  0  0  0  0  0  0  0  0  0  0
   -3.1718   -6.5219    3.1832 C   0  0  0  0  0  0  0  0  0  0  0  0
   -3.3473   -6.8953    4.5701 C   0  0  0  0  0  0  0  0  0  0  0  0
   -4.2101   -6.5120    5.3723 C   0  0  0  0  0  0  0  0  0  0  0  0
   -4.3027   -7.1071    7.1186 S   0  0  0  0  0  0  0  0  0  0  0  0
   -2.9142   -8.2667    7.3461 C   0  0  0  0  0  0  0  0  0  0  0  0
   -5.2247   -5.5718    5.0124 C   0  0  0  0  0  0  0  0  0  0  0  0
   -5.0859   -5.1759    3.6627 C   0  0  0  0  0  0  0  0  0  0  0  0
   -4.0886   -5.8739    0.3365 C   0  0  0  0  0  0  0  0  0  0  0  0
   -3.1361   -6.7577    0.0441 C   0  0  0  0  0  0  0  0  0  0  0  0
   -3.0288   -7.5834   -1.0137 C   0  0  0  0  0  0  0  0  0  0  0  0
   -4.0451   -7.5082   -1.9441 C   0  0  0  0  0  0  0  0  0  0  0  0
   -3.9999   -8.4381   -3.4627 S   0  0  0  0  0  0  0  0  0  0  0  0
   -2.3978   -9.2510   -3.7029 C   0  0  0  0  0  0  0  0  0  0  0  0
   -5.1213   -6.6051   -1.7569 C   0  0  0  0  0  0  0  0  0  0  0  0
   -5.1346   -5.7902   -0.6026 C   0  0  0  0  0  0  0  0  0  0  0  0
   -4.5237   -3.0637   -0.0824 C   0  0  0  0  0  0  0  0  0  0  0  0
   -4.0595   -3.4343   -1.7199 S   0  0  0  0  0  0  0  0  0  0  0  0
   -4.2500   -2.4843    3.6256 C   0  0  0  0  0  0  0  0  0  0  0  0
   -2.9698   -2.7632    4.0751 C   0  0  0  0  0  0  0  0  0  0  0  0
   -1.8360   -3.2496    3.6280 C   0  0  0  0  0  0  0  0  0  0  0  0
   -1.6174   -3.9618    2.5410 O   0  0  0  0  0  0  0  0  0  0  0  0
   -0.7298   -2.8829    4.5383 C   0  0  0  0  0  0  0  0  0  0  0  0
    0.6159   -3.1753    4.2445 C   0  0  0  0  0  0  0  0  0  0  0  0
    1.5157   -2.5793    5.1843 C   0  0  0  0  0  0  0  0  0  0  0  0
    1.1055   -1.8883    6.1383 C   0  0  0  0  0  0  0  0  0  0  0  0
   -0.2240   -1.5540    6.5140 C   0  0  0  0  0  0  0  0  0  0  0  0
   -1.1542   -2.1913    5.5071 C   0  0  0  0  0  0  0  0  0  0  0  0
   -2.6438   -1.9344    5.4841 C   0  0  0  0  0  0  0  0  0  0  0  0
   -3.3885   -1.2830    6.0875 C   0  0  0  0  0  0  0  0  0  0  0  0
   -4.7662   -0.8498    6.0238 C   0  0  0  0  0  0  0  0  0  0  0  0
   -5.9542   -0.4980    5.9629 N   0  0  0  0  0  0  0  0  0  0  0  0
   -2.8561   -0.7422    7.4520 C   0  0  0  0  0  0  0  0  0  0  0  0
   -2.4420   -0.2994    8.5116 N   0  0  0  0  0  0  0  0  0  0  0  0
    2.5280   -1.5967    6.6088 C   0  0  0  0  0  0  0  0  0  0  0  0
    2.9889   -2.4523    7.7601 C   0  0  0  0  0  0  0  0  0  0  0  0
    4.4553   -2.5055    7.7528 C   0  0  0  0  0  0  0  0  0  0  0  0
    4.8424   -3.2557    6.6828 C   0  0  0  0  0  0  0  0  0  0  0  0
    3.6207   -3.6198    5.9610 C   0  0  0  0  0  0  0  0  0  0  0  0
    2.6557   -3.8344    7.1562 C   0  0  0  0  0  0  0  0  0  0  0  0
    2.9853   -2.4047    5.3936 C   0  0  0  0  0  0  0  0  0  0  0  0
    6.1187    6.7098   -3.9611 H   0  0  0  0  0  0  0  0  0  0  0  0
    6.8959    5.9602    2.1904 H   0  0  0  0  0  0  0  0  0  0  0  0
    8.9447    2.6279   -0.8044 H   0  0  0  0  0  0  0  0  0  0  0  0
   10.3083    2.3281    2.1844 H   0  0  0  0  0  0  0  0  0  0  0  0
    8.5093    0.5060    2.2744 H   0  0  0  0  0  0  0  0  0  0  0  0
    6.3932    1.8809    1.5090 H   0  0  0  0  0  0  0  0  0  0  0  0
    5.6272    3.1467    3.7303 H   0  0  0  0  0  0  0  0  0  0  0  0
    7.7582    3.4828    5.1507 H   0  0  0  0  0  0  0  0  0  0  0  0
    7.6020    0.9576    4.6784 H   0  0  0  0  0  0  0  0  0  0  0  0
    9.3574    1.5271    4.6261 H   0  0  0  0  0  0  0  0  0  0  0  0
    9.6516    4.2723    3.6684 H   0  0  0  0  0  0  0  0  0  0  0  0
    4.0157    5.7945   -5.1182 H   0  0  0  0  0  0  0  0  0  0  0  0
    0.0030    4.0573   -7.4469 H   0  0  0  0  0  0  0  0  0  0  0  0
   -0.9620    6.2941   -7.9514 H   0  0  0  0  0  0  0  0  0  0  0  0
   -1.1652   10.6907   -5.7508 H   0  0  0  0  0  0  0  0  0  0  0  0
   -1.7870    9.0064   -5.3895 H   0  0  0  0  0  0  0  0  0  0  0  0
    0.8783   10.0976   -4.2901 H   0  0  0  0  0  0  0  0  0  0  0  0
   -0.0417    8.5625   -3.8597 H   0  0  0  0  0  0  0  0  0  0  0  0
   -0.7157   10.1633   -3.4365 H   0  0  0  0  0  0  0  0  0  0  0  0
    5.3615    0.6170   -2.8784 H   0  0  0  0  0  0  0  0  0  0  0  0
    5.4603   -0.8660   -0.8781 H   0  0  0  0  0  0  0  0  0  0  0  0
    3.2145   -0.3817    2.0790 H   0  0  0  0  0  0  0  0  0  0  0  0
    2.0582   -1.6672    2.6669 H   0  0  0  0  0  0  0  0  0  0  0  0
    0.8516    0.4827    2.3030 H   0  0  0  0  0  0  0  0  0  0  0  0
    1.5073    0.6058    0.6818 H   0  0  0  0  0  0  0  0  0  0  0  0
    0.3179   -0.6630    1.0450 H   0  0  0  0  0  0  0  0  0  0  0  0
    1.0412   -0.6418   -4.2562 H   0  0  0  0  0  0  0  0  0  0  0  0
    1.7140   -4.3403   -4.3210 H   0  0  0  0  0  0  0  0  0  0  0  0
    0.5872   -5.4379   -3.4056 H   0  0  0  0  0  0  0  0  0  0  0  0
    1.8649   -4.8994   -1.6169 H   0  0  0  0  0  0  0  0  0  0  0  0
    1.0347   -3.2939   -1.6402 H   0  0  0  0  0  0  0  0  0  0  0  0
    2.6591   -3.5269   -2.4326 H   0  0  0  0  0  0  0  0  0  0  0  0
   -6.9402    1.6771   -6.3716 H   0  0  0  0  0  0  0  0  0  0  0  0
   -6.4484    2.8811   -5.1050 H   0  0  0  0  0  0  0  0  0  0  0  0
   -6.3915    3.6634   -7.4895 H   0  0  0  0  0  0  0  0  0  0  0  0
   -5.0464    4.0437   -6.3652 H   0  0  0  0  0  0  0  0  0  0  0  0
   -4.8057    2.6986   -7.5863 H   0  0  0  0  0  0  0  0  0  0  0  0
   -6.3548    1.4950    0.5478 H   0  0  0  0  0  0  0  0  0  0  0  0
   -5.1715    3.3164    1.7827 H   0  0  0  0  0  0  0  0  0  0  0  0
   -1.5409    2.2445    2.7732 H   0  0  0  0  0  0  0  0  0  0  0  0
   -2.3969    3.2890    4.0040 H   0  0  0  0  0  0  0  0  0  0  0  0
   -0.7431    3.7602    3.3936 H   0  0  0  0  0  0  0  0  0  0  0  0
   -1.5852    2.6106   -0.4582 H   0  0  0  0  0  0  0  0  0  0  0  0
   -2.7461    0.9196   -1.7093 H   0  0  0  0  0  0  0  0  0  0  0  0
   -7.6682   -1.2130   -2.0095 H   0  0  0  0  0  0  0  0  0  0  0  0
   -9.7655   -0.2353   -2.8608 H   0  0  0  0  0  0  0  0  0  0  0  0
  -11.8451    2.2743   -1.5598 H   0  0  0  0  0  0  0  0  0  0  0  0
  -11.8951    3.9300   -2.3262 H   0  0  0  0  0  0  0  0  0  0  0  0
  -10.4906    3.4114   -1.3582 H   0  0  0  0  0  0  0  0  0  0  0  0
   -7.8048    3.5321   -3.2114 H   0  0  0  0  0  0  0  0  0  0  0  0
   -5.7579    2.5958   -2.2906 H   0  0  0  0  0  0  0  0  0  0  0  0
   -2.4314   -6.8843    2.6580 H   0  0  0  0  0  0  0  0  0  0  0  0
   -2.5418   -7.6497    4.8456 H   0  0  0  0  0  0  0  0  0  0  0  0
   -3.1284   -8.9595    8.1694 H   0  0  0  0  0  0  0  0  0  0  0  0
   -2.0273   -7.6425    7.6383 H   0  0  0  0  0  0  0  0  0  0  0  0
   -2.7409   -8.8373    6.4165 H   0  0  0  0  0  0  0  0  0  0  0  0
   -5.9441   -5.2449    5.6669 H   0  0  0  0  0  0  0  0  0  0  0  0
   -5.8829   -4.4825    3.3024 H   0  0  0  0  0  0  0  0  0  0  0  0
   -2.2397   -6.8384    0.7298 H   0  0  0  0  0  0  0  0  0  0  0  0
   -2.2198   -8.2902   -1.1721 H   0  0  0  0  0  0  0  0  0  0  0  0
   -1.9106   -9.5223   -2.7524 H   0  0  0  0  0  0  0  0  0  0  0  0
   -2.5614  -10.1789   -4.2854 H   0  0  0  0  0  0  0  0  0  0  0  0
   -1.6979   -8.6115   -4.3083 H   0  0  0  0  0  0  0  0  0  0  0  0
   -5.8958   -6.5579   -2.4825 H   0  0  0  0  0  0  0  0  0  0  0  0
   -5.9263   -5.1188   -0.3998 H   0  0  0  0  0  0  0  0  0  0  0  0
   -4.9762   -2.1036    4.2087 H   0  0  0  0  0  0  0  0  0  0  0  0
    0.9280   -3.7524    3.4412 H   0  0  0  0  0  0  0  0  0  0  0  0
   -0.5471   -1.0145    7.2597 H   0  0  0  0  0  0  0  0  0  0  0  0
    2.7607   -0.5441    6.6335 H   0  0  0  0  0  0  0  0  0  0  0  0
    2.5002   -2.2570    8.7036 H   0  0  0  0  0  0  0  0  0  0  0  0
    5.1529   -2.0505    8.4295 H   0  0  0  0  0  0  0  0  0  0  0  0
    5.8722   -3.5036    6.4670 H   0  0  0  0  0  0  0  0  0  0  0  0
    3.6716   -4.5193    5.3529 H   0  0  0  0  0  0  0  0  0  0  0  0
    1.6138   -3.8659    6.7685 H   0  0  0  0  0  0  0  0  0  0  0  0
    2.9354   -4.6594    7.7796 H   0  0  0  0  0  0  0  0  0  0  0  0
    3.5170   -1.8406    4.6042 H   0  0  0  0  0  0  0  0  0  0  0  0
  1  2  2  3
  2  3  1  0
  3  4  2  0
  3  5  1  0
  5  6  2  0
  6  7  1  0
  7  8  2  0
  8  9  1  0
  9 10  2  0
 10 11  1  0
 11 12  2  3
 12 13  1  0
 13 14  3  0
 12 15  1  0
 15 16  3  0
  8 17  1  0
 17 18  1  0
 18 19  1  0
 19 20  2  0
 20 21  1  0
 21 22  1  0
 21 23  1  0
  1 24  1  0
 24 25  2  0
 25 26  1  0
 26 27  2  0
 27 28  1  0
 28 29  2  0
 29 30  1  0
 30 31  2  0
 31 32  1  0
 32 33  1  0
 33 34  1  0
 31 35  1  0
 27 36  1  0
 36 37  2  0
 37 38  1  0
 38 39  1  0
 39 40  2  0
 40 41  1  0
 41 42  2  0
 42 43  1  0
 43 44  1  0
 44 45  1  0
 42 46  1  0
 38 47  2  0
 47 48  1  0
 37 49  1  0
 49 50  2  0
 50 51  1  0
 50 52  1  0
 52 53  2  0
 53 54  1  0
 54 55  2  0
 55 56  1  0
 56 57  1  0
 55 58  1  0
 58 59  1  0
 59 60  2  0
 60 61  1  0
 61 62  2  0
 62 63  1  0
 63 64  1  0
 64 65  1  0
 65 66  1  0
 64 67  2  0
 60 68  1  0
 68 69  2  0
 69 70  1  0
 70 71  1  0
 71 72  2  0
 72 73  1  0
 73 74  2  0
 74 75  1  0
 75 76  1  0
 74 77  1  0
 77 78  2  0
 70 79  1  0
 79 80  2  0
 80 81  1  0
 81 82  2  0
 82 83  1  0
 83 84  1  0
 82 85  1  0
 85 86  2  0
 69 87  1  0
 87 88  1  0
 88 89  1  0
 89 90  2  0
 90 91  1  0
 91 92  1  0
 92 93  2  0
 93 94  1  0
 94 95  2  0
 95 96  1  0
 96 97  1  0
 95 98  1  0
 98 99  2  0
 91100  1  0
100101  2  0
101102  1  0
102103  2  0
103104  1  0
104105  1  0
103106  1  0
106107  2  0
 90108  1  0
108109  1  0
 89110  1  0
110111  2  3
111112  1  0
112113  2  0
112114  1  0
114115  2  0
115116  1  0
116117  2  0
117118  1  0
118119  2  0
119120  1  0
120121  2  3
121122  1  0
122123  3  0
121124  1  0
124125  3  0
117126  1  0
126127  1  0
127128  1  0
128129  2  0
129130  1  0
130131  1  0
130132  1  0
 11  2  1  0
 23 17  1  0
 48 24  1  0
 62 52  1  0
109 68  1  0
120111  1  0
132126  1  0
 10  5  1  0
 22 18  1  0
 47 26  1  0
 59 53  1  0
 67 61  1  0
 78 71  1  0
 86 79  1  0
108 87  2  0
119114  1  0
131127  1  0
 23  7  1  0
 35 28  1  0
 51 36  1  0
 99 92  1  0
107100  1  0
132116  1  0
 46 39  1  0
  1133  1  0
  6134  1  0
  9135  1  0
 17136  1  0
 18137  1  0
 19138  1  0
 20139  1  0
 21140  1  0
 22141  1  0
 22142  1  0
 23143  1  0
 25144  1  0
 29145  1  0
 30146  1  0
 33147  1  0
 33148  1  0
 34149  1  0
 34150  1  0
 34151  1  0
 40152  1  0
 41153  1  0
 44154  1  0
 44155  1  0
 45156  1  0
 45157  1  0
 45158  1  0
 49159  1  0
 56160  1  0
 56161  1  0
 57162  1  0
 57163  1  0
 57164  1  0
 65165  1  0
 65166  1  0
 66167  1  0
 66168  1  0
 66169  1  0
 72170  1  0
 73171  1  0
 76172  1  0
 76173  1  0
 76174  1  0
 77175  1  0
 78176  1  0
 80177  1  0
 81178  1  0
 84179  1  0
 84180  1  0
 84181  1  0
 85182  1  0
 86183  1  0
 93184  1  0
 94185  1  0
 97186  1  0
 97187  1  0
 97188  1  0
 98189  1  0
 99190  1  0
101191  1  0
102192  1  0
105193  1  0
105194  1  0
105195  1  0
106196  1  0
107197  1  0
110198  1  0
115199  1  0
118200  1  0
126201  1  0
127202  1  0
128203  1  0
129204  1  0
130205  1  0
131206  1  0
131207  1  0
132208  1  0
M  END

