
     RDKit          3D

195218  0  0  0  0  0  0  0  0999 V2000
    4.7396    3.4250    2.8606 C   0  0  0  0  0  0  0  0  0  0  0  0
    3.6957    3.3515    3.7176 C   0  0  0  0  0  0  0  0  0  0  0  0
    3.6493    4.0878    4.9806 C   0  0  0  0  0  0  0  0  0  0  0  0
    4.3481    5.0882    5.2724 O   0  0  0  0  0  0  0  0  0  0  0  0
    2.6076    3.5169    5.8091 C   0  0  0  0  0  0  0  0  0  0  0  0
    2.1412    4.0117    7.0512 C   0  0  0  0  0  0  0  0  0  0  0  0
    1.0272    3.3500    7.5345 C   0  0  0  0  0  0  0  0  0  0  0  0
    0.4221    2.2387    6.8617 C   0  0  0  0  0  0  0  0  0  0  0  0
    0.8797    1.7428    5.6527 C   0  0  0  0  0  0  0  0  0  0  0  0
    1.9911    2.4479    5.1061 C   0  0  0  0  0  0  0  0  0  0  0  0
    2.5447    2.4005    3.7222 C   0  0  0  0  0  0  0  0  0  0  0  0
    1.8080    2.0281    2.6508 C   0  0  0  0  0  0  0  0  0  0  0  0
    1.8093    2.7845    1.4176 C   0  0  0  0  0  0  0  0  0  0  0  0
    1.7926    3.4007    0.4401 N   0  0  0  0  0  0  0  0  0  0  0  0
    0.9253    0.8906    2.6880 C   0  0  0  0  0  0  0  0  0  0  0  0
    0.2325   -0.0378    2.7191 N   0  0  0  0  0  0  0  0  0  0  0  0
   -0.6526    2.1636    7.9086 C   0  0  0  0  0  0  0  0  0  0  0  0
   -2.0627    2.6724    7.4695 C   0  0  0  0  0  0  0  0  0  0  0  0
   -2.8443    2.9058    8.7454 C   0  0  0  0  0  0  0  0  0  0  0  0
   -2.3018    3.9784    9.3319 C   0  0  0  0  0  0  0  0  0  0  0  0
   -1.1648    4.4260    8.4397 C   0  0  0  0  0  0  0  0  0  0  0  0
   -1.8044    4.1241    7.0867 C   0  0  0  0  0  0  0  0  0  0  0  0
   -0.0581    3.3325    8.5754 C   0  0  0  0  0  0  0  0  0  0  0  0
    4.8729    2.6104    1.6376 C   0  0  0  0  0  0  0  0  0  0  0  0
    4.8441    3.1085    0.3211 C   0  0  0  0  0  0  0  0  0  0  0  0
    5.0543    4.4862   -0.0940 N   0  0  0  0  0  0  0  0  0  0  0  0
    5.4486    4.7679   -1.4485 C   0  0  0  0  0  0  0  0  0  0  0  0
    4.7253    5.6973   -2.2095 C   0  0  0  0  0  0  0  0  0  0  0  0
    5.0084    5.8657   -3.5642 C   0  0  0  0  0  0  0  0  0  0  0  0
    6.0165    5.1063   -4.1704 C   0  0  0  0  0  0  0  0  0  0  0  0
    6.2707    5.2075   -5.9423 S   0  0  0  0  0  0  0  0  0  0  0  0
    4.8701    4.1229   -6.3761 C   0  0  0  0  0  0  0  0  0  0  0  0
    6.7865    4.2300   -3.4005 C   0  0  0  0  0  0  0  0  0  0  0  0
    6.5196    4.0772   -2.0393 C   0  0  0  0  0  0  0  0  0  0  0  0
    5.1186    5.5833    0.8314 C   0  0  0  0  0  0  0  0  0  0  0  0
    6.3450    6.2231    1.0657 C   0  0  0  0  0  0  0  0  0  0  0  0
    6.4120    7.3669    1.8633 C   0  0  0  0  0  0  0  0  0  0  0  0
    5.2473    7.8826    2.4443 C   0  0  0  0  0  0  0  0  0  0  0  0
    5.3165    9.4113    3.3849 S   0  0  0  0  0  0  0  0  0  0  0  0
    5.8293    8.6063    4.9322 C   0  0  0  0  0  0  0  0  0  0  0  0
    4.0214    7.2328    2.2377 C   0  0  0  0  0  0  0  0  0  0  0  0
    3.9562    6.0981    1.4180 C   0  0  0  0  0  0  0  0  0  0  0  0
    4.5636    2.0704   -0.5819 C   0  0  0  0  0  0  0  0  0  0  0  0
    3.8876    2.0583   -2.1089 S   0  0  0  0  0  0  0  0  0  0  0  0
    3.5229    0.3941   -2.1499 C   0  0  0  0  0  0  0  0  0  0  0  0
    4.0017   -0.1853   -0.9393 C   0  0  0  0  0  0  0  0  0  0  0  0
    4.1244   -1.6070   -0.6758 N   0  0  0  0  0  0  0  0  0  0  0  0
    4.2397   -2.0666    0.6787 C   0  0  0  0  0  0  0  0  0  0  0  0
    3.1106   -2.1559    1.5056 C   0  0  0  0  0  0  0  0  0  0  0  0
    3.2399   -2.6136    2.8242 C   0  0  0  0  0  0  0  0  0  0  0  0
    4.5042   -2.9591    3.3274 C   0  0  0  0  0  0  0  0  0  0  0  0
    4.6915   -3.5510    5.0107 S   0  0  0  0  0  0  0  0  0  0  0  0
    4.7086   -5.3075    4.5338 C   0  0  0  0  0  0  0  0  0  0  0  0
    5.6314   -2.8494    2.5054 C   0  0  0  0  0  0  0  0  0  0  0  0
    5.4999   -2.4197    1.1842 C   0  0  0  0  0  0  0  0  0  0  0  0
    4.5221   -2.5443   -1.7092 C   0  0  0  0  0  0  0  0  0  0  0  0
    5.3597   -2.1541   -2.7680 C   0  0  0  0  0  0  0  0  0  0  0  0
    5.6939   -3.0619   -3.7790 C   0  0  0  0  0  0  0  0  0  0  0  0
    5.2071   -4.3742   -3.7343 C   0  0  0  0  0  0  0  0  0  0  0  0
    5.6384   -5.5481   -5.0223 S   0  0  0  0  0  0  0  0  0  0  0  0
    4.2045   -5.1450   -6.0740 C   0  0  0  0  0  0  0  0  0  0  0  0
    4.4009   -4.7803   -2.6664 C   0  0  0  0  0  0  0  0  0  0  0  0
    4.0628   -3.8730   -1.6596 C   0  0  0  0  0  0  0  0  0  0  0  0
    4.4953    0.8130   -0.0682 C   0  0  0  0  0  0  0  0  0  0  0  0
    4.7040    0.9124    1.5960 S   0  0  0  0  0  0  0  0  0  0  0  0
    2.4647   -0.1210   -3.0593 C   0  0  0  0  0  0  0  0  0  0  0  0
    1.8570   -1.3800   -3.0530 C   0  0  0  0  0  0  0  0  0  0  0  0
    0.6337   -1.4161   -3.7377 C   0  0  0  0  0  0  0  0  0  0  0  0
   -0.2420   -2.5122   -3.8103 C   0  0  0  0  0  0  0  0  0  0  0  0
    0.1794   -3.8783   -3.4669 C   0  0  0  0  0  0  0  0  0  0  0  0
    0.4860   -4.7826   -4.4946 C   0  0  0  0  0  0  0  0  0  0  0  0
    0.8333   -6.1010   -4.2013 C   0  0  0  0  0  0  0  0  0  0  0  0
    0.8681   -6.5374   -2.8702 C   0  0  0  0  0  0  0  0  0  0  0  0
    1.1869   -7.8701   -2.5675 C   0  0  0  0  0  0  0  0  0  0  0  0
    1.2001   -8.3038   -1.2357 C   0  0  0  0  0  0  0  0  0  0  0  0
    0.9039   -7.4103   -0.2021 C   0  0  0  0  0  0  0  0  0  0  0  0
    0.5906   -6.0786   -0.4913 C   0  0  0  0  0  0  0  0  0  0  0  0
    0.5679   -5.6314   -1.8232 C   0  0  0  0  0  0  0  0  0  0  0  0
    0.2291   -4.3043   -2.1293 C   0  0  0  0  0  0  0  0  0  0  0  0
   -1.5511   -2.2534   -4.2453 C   0  0  0  0  0  0  0  0  0  0  0  0
   -1.9822   -0.9857   -4.6402 C   0  0  0  0  0  0  0  0  0  0  0  0
   -1.0575    0.0731   -4.7196 C   0  0  0  0  0  0  0  0  0  0  0  0
   -1.4351    1.4248   -5.1565 C   0  0  0  0  0  0  0  0  0  0  0  0
   -0.9735    2.0414   -6.3121 C   0  0  0  0  0  0  0  0  0  0  0  0
   -1.3697    3.3795   -6.4203 C   0  0  0  0  0  0  0  0  0  0  0  0
   -2.1326    3.8072   -5.3409 C   0  0  0  0  0  0  0  0  0  0  0  0
   -2.7000    5.4840   -5.0645 S   0  0  0  0  0  0  0  0  0  0  0  0
   -1.1150    6.0681   -4.3557 C   0  0  0  0  0  0  0  0  0  0  0  0
   -0.3111    6.8236   -5.4071 C   0  0  0  0  0  0  0  0  0  0  0  0
   -2.3076    2.5389   -4.2510 S   0  0  0  0  0  0  0  0  0  0  0  0
    0.2437   -0.1776   -4.2511 C   0  0  0  0  0  0  0  0  0  0  0  0
    1.4555    0.9286   -3.9282 S   0  0  0  0  0  0  0  0  0  0  0  0
   -3.3756   -0.9007   -4.8102 C   0  0  0  0  0  0  0  0  0  0  0  0
   -4.0557   -2.0938   -4.5088 C   0  0  0  0  0  0  0  0  0  0  0  0
   -2.8802   -3.2541   -4.1206 S   0  0  0  0  0  0  0  0  0  0  0  0
   -5.5136   -2.2651   -4.1799 C   0  0  0  0  0  0  0  0  0  0  0  0
   -5.9279   -3.4822   -3.5951 C   0  0  0  0  0  0  0  0  0  0  0  0
   -7.1652   -3.6051   -2.9593 C   0  0  0  0  0  0  0  0  0  0  0  0
   -7.4468   -4.7450   -2.2763 F   0  0  0  0  0  0  0  0  0  0  0  0
   -8.0508   -2.5224   -2.9037 C   0  0  0  0  0  0  0  0  0  0  0  0
   -7.7363   -1.3548   -3.6110 C   0  0  0  0  0  0  0  0  0  0  0  0
   -6.4666   -1.2232   -4.2607 C   0  0  0  0  0  0  0  0  0  0  0  0
   -6.2449   -0.0410   -4.8820 N   0  0  0  0  0  0  0  0  0  0  0  0
   -7.6490    0.7628   -4.5543 S   0  0  0  0  0  0  0  0  0  0  0  0
   -8.5668   -0.2835   -3.6697 N   0  0  0  0  0  0  0  0  0  0  0  0
   -9.1196   -2.5392   -1.8893 C   0  0  0  0  0  0  0  0  0  0  0  0
   -8.8066   -2.4106   -0.5866 C   0  0  0  0  0  0  0  0  0  0  0  0
   -7.4465   -2.1844   -0.0692 C   0  0  0  0  0  0  0  0  0  0  0  0
   -6.5394   -1.5307   -0.6381 O   0  0  0  0  0  0  0  0  0  0  0  0
   -7.3962   -2.6480    1.2945 C   0  0  0  0  0  0  0  0  0  0  0  0
   -6.2330   -2.9041    2.0630 C   0  0  0  0  0  0  0  0  0  0  0  0
   -6.4891   -3.5924    3.2333 C   0  0  0  0  0  0  0  0  0  0  0  0
   -7.7997   -4.0002    3.6450 C   0  0  0  0  0  0  0  0  0  0  0  0
   -8.9445   -3.7307    2.9019 C   0  0  0  0  0  0  0  0  0  0  0  0
   -8.6993   -3.0200    1.6942 C   0  0  0  0  0  0  0  0  0  0  0  0
   -9.6512   -2.7302    0.5981 C   0  0  0  0  0  0  0  0  0  0  0  0
  -10.9448   -2.3914    0.7765 C   0  0  0  0  0  0  0  0  0  0  0  0
  -11.7904   -2.0160   -0.3290 C   0  0  0  0  0  0  0  0  0  0  0  0
  -12.4683   -1.6856   -1.2122 N   0  0  0  0  0  0  0  0  0  0  0  0
  -11.3844   -1.9327    2.0750 C   0  0  0  0  0  0  0  0  0  0  0  0
  -11.6500   -1.4571    3.0865 N   0  0  0  0  0  0  0  0  0  0  0  0
   -7.2210   -4.6775    4.8579 C   0  0  0  0  0  0  0  0  0  0  0  0
   -7.4111   -3.9952    6.2472 C   0  0  0  0  0  0  0  0  0  0  0  0
   -7.5047   -2.4994    6.0721 C   0  0  0  0  0  0  0  0  0  0  0  0
   -6.2995   -2.0837    5.6780 C   0  0  0  0  0  0  0  0  0  0  0  0
   -5.4191   -3.3115    5.6067 C   0  0  0  0  0  0  0  0  0  0  0  0
   -5.9913   -4.0825    6.7839 C   0  0  0  0  0  0  0  0  0  0  0  0
   -5.8842   -4.2370    4.4426 C   0  0  0  0  0  0  0  0  0  0  0  0
    5.5219    4.1460    3.0564 H   0  0  0  0  0  0  0  0  0  0  0  0
    2.5652    4.8767    7.5511 H   0  0  0  0  0  0  0  0  0  0  0  0
    0.3513    0.9470    5.1627 H   0  0  0  0  0  0  0  0  0  0  0  0
   -0.6389    1.2254    8.5105 H   0  0  0  0  0  0  0  0  0  0  0  0
   -2.5798    2.0501    6.7079 H   0  0  0  0  0  0  0  0  0  0  0  0
   -3.7515    2.4002    9.0631 H   0  0  0  0  0  0  0  0  0  0  0  0
   -2.6979    4.4922   10.2025 H   0  0  0  0  0  0  0  0  0  0  0  0
   -0.8379    5.4742    8.5920 H   0  0  0  0  0  0  0  0  0  0  0  0
   -1.1295    4.2665    6.2148 H   0  0  0  0  0  0  0  0  0  0  0  0
   -2.7444    4.6982    6.8953 H   0  0  0  0  0  0  0  0  0  0  0  0
    0.3134    3.1372    9.6003 H   0  0  0  0  0  0  0  0  0  0  0  0
    3.9094    6.2541   -1.7619 H   0  0  0  0  0  0  0  0  0  0  0  0
    4.4208    6.5564   -4.1500 H   0  0  0  0  0  0  0  0  0  0  0  0
    4.3434    3.7158   -5.4878 H   0  0  0  0  0  0  0  0  0  0  0  0
    4.1508    4.7048   -6.9925 H   0  0  0  0  0  0  0  0  0  0  0  0
    5.2473    3.2747   -6.9853 H   0  0  0  0  0  0  0  0  0  0  0  0
    7.5728    3.6450   -3.8617 H   0  0  0  0  0  0  0  0  0  0  0  0
    7.1137    3.3837   -1.4523 H   0  0  0  0  0  0  0  0  0  0  0  0
    7.2517    5.8473    0.6059 H   0  0  0  0  0  0  0  0  0  0  0  0
    7.3623    7.8710    2.0083 H   0  0  0  0  0  0  0  0  0  0  0  0
    5.0665    7.8703    5.2606 H   0  0  0  0  0  0  0  0  0  0  0  0
    6.8095    8.1018    4.7963 H   0  0  0  0  0  0  0  0  0  0  0  0
    5.9427    9.3889    5.7170 H   0  0  0  0  0  0  0  0  0  0  0  0
    3.1140    7.6409    2.6703 H   0  0  0  0  0  0  0  0  0  0  0  0
    2.9957    5.6404    1.2247 H   0  0  0  0  0  0  0  0  0  0  0  0
    2.1383   -1.8844    1.1196 H   0  0  0  0  0  0  0  0  0  0  0  0
    2.3616   -2.6933    3.4493 H   0  0  0  0  0  0  0  0  0  0  0  0
    5.3715   -5.4650    3.6528 H   0  0  0  0  0  0  0  0  0  0  0  0
    3.6763   -5.6388    4.2963 H   0  0  0  0  0  0  0  0  0  0  0  0
    5.1022   -5.9097    5.3804 H   0  0  0  0  0  0  0  0  0  0  0  0
    6.6115   -3.1151    2.8841 H   0  0  0  0  0  0  0  0  0  0  0  0
    6.3807   -2.3474    0.5585 H   0  0  0  0  0  0  0  0  0  0  0  0
    5.7602   -1.1496   -2.8149 H   0  0  0  0  0  0  0  0  0  0  0  0
    6.3395   -2.7504   -4.5923 H   0  0  0  0  0  0  0  0  0  0  0  0
    3.9729   -6.0196   -6.7110 H   0  0  0  0  0  0  0  0  0  0  0  0
    4.4513   -4.2751   -6.7166 H   0  0  0  0  0  0  0  0  0  0  0  0
    3.3056   -4.9179   -5.4645 H   0  0  0  0  0  0  0  0  0  0  0  0
    4.0268   -5.7946   -2.6210 H   0  0  0  0  0  0  0  0  0  0  0  0
    3.4142   -4.2016   -0.8570 H   0  0  0  0  0  0  0  0  0  0  0  0
    2.1818   -2.2074   -2.4656 H   0  0  0  0  0  0  0  0  0  0  0  0
    0.4464   -4.4641   -5.5281 H   0  0  0  0  0  0  0  0  0  0  0  0
    1.0635   -6.7793   -5.0139 H   0  0  0  0  0  0  0  0  0  0  0  0
    1.4142   -8.5753   -3.3587 H   0  0  0  0  0  0  0  0  0  0  0  0
    1.4401   -9.3358   -1.0109 H   0  0  0  0  0  0  0  0  0  0  0  0
    0.9132   -7.7548    0.8241 H   0  0  0  0  0  0  0  0  0  0  0  0
    0.3606   -5.4008    0.3198 H   0  0  0  0  0  0  0  0  0  0  0  0
   -0.0140   -3.6068   -1.3391 H   0  0  0  0  0  0  0  0  0  0  0  0
   -0.3253    1.5564   -7.0323 H   0  0  0  0  0  0  0  0  0  0  0  0
   -1.0868    4.0184   -7.2430 H   0  0  0  0  0  0  0  0  0  0  0  0
   -1.3337    6.7518   -3.5102 H   0  0  0  0  0  0  0  0  0  0  0  0
   -0.5048    5.2268   -3.9529 H   0  0  0  0  0  0  0  0  0  0  0  0
   -0.1164    6.1762   -6.2892 H   0  0  0  0  0  0  0  0  0  0  0  0
    0.6676    7.1277   -4.9767 H   0  0  0  0  0  0  0  0  0  0  0  0
   -0.8549    7.7407   -5.7205 H   0  0  0  0  0  0  0  0  0  0  0  0
   -3.8544    0.0416   -5.0311 H   0  0  0  0  0  0  0  0  0  0  0  0
   -5.2593   -4.3258   -3.5213 H   0  0  0  0  0  0  0  0  0  0  0  0
  -10.1155   -2.8215   -2.1970 H   0  0  0  0  0  0  0  0  0  0  0  0
   -5.2295   -2.6599    1.7389 H   0  0  0  0  0  0  0  0  0  0  0  0
   -9.9157   -4.1092    3.1808 H   0  0  0  0  0  0  0  0  0  0  0  0
   -7.3414   -5.7861    4.8603 H   0  0  0  0  0  0  0  0  0  0  0  0
   -8.1881   -4.4499    6.9001 H   0  0  0  0  0  0  0  0  0  0  0  0
   -8.3797   -1.8710    6.2265 H   0  0  0  0  0  0  0  0  0  0  0  0
   -6.0282   -1.0557    5.4504 H   0  0  0  0  0  0  0  0  0  0  0  0
   -4.3265   -3.1148    5.6477 H   0  0  0  0  0  0  0  0  0  0  0  0
   -5.6036   -5.1300    6.8560 H   0  0  0  0  0  0  0  0  0  0  0  0
   -5.8477   -3.5619    7.7631 H   0  0  0  0  0  0  0  0  0  0  0  0
   -5.1990   -5.0731    4.2013 H   0  0  0  0  0  0  0  0  0  0  0  0
  1  2  2  3
  2  3  1  0
  3  4  2  0
  3  5  1  0
  5  6  2  0
  6  7  1  0
  7  8  2  0
  8  9  1  0
  9 10  2  0
 10 11  1  0
 11 12  2  3
 12 13  1  0
 13 14  3  0
 12 15  1  0
 15 16  3  0
  8 17  1  0
 17 18  1  0
 18 19  1  0
 19 20  2  0
 20 21  1  0
 21 22  1  0
 21 23  1  0
  1 24  1  0
 24 25  2  0
 25 26  1  0
 26 27  1  0
 27 28  2  0
 28 29  1  0
 29 30  2  0
 30 31  1  0
 31 32  1  0
 30 33  1  0
 33 34  2  0
 26 35  1  0
 35 36  2  0
 36 37  1  0
 37 38  2  0
 38 39  1  0
 39 40  1  0
 38 41  1  0
 41 42  2  0
 25 43  1  0
 43 44  1  0
 44 45  1  0
 45 46  2  0
 46 47  1  0
 47 48  1  0
 48 49  2  0
 49 50  1  0
 50 51  2  0
 51 52  1  0
 52 53  1  0
 51 54  1  0
 54 55  2  0
 47 56  1  0
 56 57  2  0
 57 58  1  0
 58 59  2  0
 59 60  1  0
 60 61  1  0
 59 62  1  0
 62 63  2  0
 46 64  1  0
 64 65  1  0
 45 66  1  0
 66 67  2  0
 67 68  1  0
 68 69  2  0
 69 70  1  0
 70 71  2  0
 71 72  1  0
 72 73  2  0
 73 74  1  0
 74 75  2  0
 75 76  1  0
 76 77  2  0
 77 78  1  0
 78 79  2  0
 69 80  1  0
 80 81  2  0
 81 82  1  0
 82 83  1  0
 83 84  2  0
 84 85  1  0
 85 86  2  0
 86 87  1  0
 87 88  1  0
 88 89  1  0
 86 90  1  0
 82 91  2  0
 91 92  1  0
 81 93  1  0
 93 94  2  0
 94 95  1  0
 94 96  1  0
 96 97  2  0
 97 98  1  0
 98 99  1  0
 98100  2  0
100101  1  0
101102  1  0
102103  2  0
103104  1  0
104105  1  0
100106  1  0
106107  2  3
107108  1  0
108109  2  0
108110  1  0
110111  2  0
111112  1  0
112113  2  0
113114  1  0
114115  2  0
115116  1  0
116117  2  3
117118  1  0
118119  3  0
117120  1  0
120121  3  0
113122  1  0
122123  1  0
123124  1  0
124125  2  0
125126  1  0
126127  1  0
126128  1  0
 11  2  1  0
 23 17  1  0
 65 24  1  0
 92 66  1  0
102 96  1  0
116107  1  0
128122  1  0
 10  5  1  0
 22 18  1  0
 34 27  1  0
 42 35  1  0
 64 43  2  0
 91 68  1  0
105101  2  0
115110  1  0
127123  1  0
 23  7  1  0
 55 48  1  0
 63 56  1  0
 79 70  1  0
 95 80  1  0
128112  1  0
 78 73  1  0
 90 83  1  0
  1129  1  0
  6130  1  0
  9131  1  0
 17132  1  0
 18133  1  0
 19134  1  0
 20135  1  0
 21136  1  0
 22137  1  0
 22138  1  0
 23139  1  0
 28140  1  0
 29141  1  0
 32142  1  0
 32143  1  0
 32144  1  0
 33145  1  0
 34146  1  0
 36147  1  0
 37148  1  0
 40149  1  0
 40150  1  0
 40151  1  0
 41152  1  0
 42153  1  0
 49154  1  0
 50155  1  0
 53156  1  0
 53157  1  0
 53158  1  0
 54159  1  0
 55160  1  0
 57161  1  0
 58162  1  0
 61163  1  0
 61164  1  0
 61165  1  0
 62166  1  0
 63167  1  0
 67168  1  0
 71169  1  0
 72170  1  0
 74171  1  0
 75172  1  0
 76173  1  0
 77174  1  0
 79175  1  0
 84176  1  0
 85177  1  0
 88178  1  0
 88179  1  0
 89180  1  0
 89181  1  0
 89182  1  0
 93183  1  0
 97184  1  0
106185  1  0
111186  1  0
114187  1  0
122188  1  0
123189  1  0
124190  1  0
125191  1  0
126192  1  0
127193  1  0
127194  1  0
128195  1  0
M  END

