
     RDKit          3D

219240  0  0  0  0  0  0  0  0999 V2000
    3.7227    3.5593    3.7467 C   0  0  0  0  0  0  0  0  0  0  0  0
    3.8216    3.1876    5.0313 C   0  0  0  0  0  0  0  0  0  0  0  0
    3.1044    3.8938    6.0885 C   0  0  0  0  0  0  0  0  0  0  0  0
    2.4718    4.9810    5.9601 O   0  0  0  0  0  0  0  0  0  0  0  0
    3.1066    3.0735    7.2790 C   0  0  0  0  0  0  0  0  0  0  0  0
    2.5650    3.4094    8.5389 C   0  0  0  0  0  0  0  0  0  0  0  0
    2.8907    2.5221    9.5437 C   0  0  0  0  0  0  0  0  0  0  0  0
    3.6921    1.3559    9.3312 C   0  0  0  0  0  0  0  0  0  0  0  0
    4.1887    0.9924    8.0916 C   0  0  0  0  0  0  0  0  0  0  0  0
    3.8580    1.8897    7.0323 C   0  0  0  0  0  0  0  0  0  0  0  0
    4.3513    1.9200    5.6240 C   0  0  0  0  0  0  0  0  0  0  0  0
    5.3002    1.1097    5.0957 C   0  0  0  0  0  0  0  0  0  0  0  0
    6.1233    1.5145    3.9906 C   0  0  0  0  0  0  0  0  0  0  0  0
    6.8004    1.8234    3.1055 N   0  0  0  0  0  0  0  0  0  0  0  0
    5.5925   -0.1946    5.6299 C   0  0  0  0  0  0  0  0  0  0  0  0
    5.8380   -1.2482    6.0361 N   0  0  0  0  0  0  0  0  0  0  0  0
    3.6965    1.0695   10.8026 C   0  0  0  0  0  0  0  0  0  0  0  0
    5.0063    1.3851   11.5909 C   0  0  0  0  0  0  0  0  0  0  0  0
    5.7389    2.5433   10.9445 C   0  0  0  0  0  0  0  0  0  0  0  0
    4.9866    3.6261   11.1437 C   0  0  0  0  0  0  0  0  0  0  0  0
    3.7684    3.1692   11.9120 C   0  0  0  0  0  0  0  0  0  0  0  0
    4.4213    2.1119   12.7853 C   0  0  0  0  0  0  0  0  0  0  0  0
    2.8713    2.2615   11.0202 C   0  0  0  0  0  0  0  0  0  0  0  0
    3.7639    2.6525    2.5887 C   0  0  0  0  0  0  0  0  0  0  0  0
    2.9427    1.5261    2.3852 C   0  0  0  0  0  0  0  0  0  0  0  0
    2.1479    0.8540    3.3812 N   0  0  0  0  0  0  0  0  0  0  0  0
    1.1699    1.5738    4.1574 C   0  0  0  0  0  0  0  0  0  0  0  0
    0.9255    1.2079    5.4903 C   0  0  0  0  0  0  0  0  0  0  0  0
   -0.1104    1.7981    6.2103 C   0  0  0  0  0  0  0  0  0  0  0  0
   -0.9316    2.7537    5.5967 C   0  0  0  0  0  0  0  0  0  0  0  0
   -2.3605    3.3965    6.4645 S   0  0  0  0  0  0  0  0  0  0  0  0
   -3.4297    2.0165    5.9397 C   0  0  0  0  0  0  0  0  0  0  0  0
   -0.6624    3.1642    4.2859 C   0  0  0  0  0  0  0  0  0  0  0  0
    0.3867    2.5828    3.5697 C   0  0  0  0  0  0  0  0  0  0  0  0
    2.1708   -0.5923    3.4248 C   0  0  0  0  0  0  0  0  0  0  0  0
    3.3850   -1.2898    3.2787 C   0  0  0  0  0  0  0  0  0  0  0  0
    3.4041   -2.6844    3.2944 C   0  0  0  0  0  0  0  0  0  0  0  0
    2.2132   -3.4047    3.4454 C   0  0  0  0  0  0  0  0  0  0  0  0
    2.2441   -5.1977    3.4590 S   0  0  0  0  0  0  0  0  0  0  0  0
    2.3220   -5.2896    5.2729 C   0  0  0  0  0  0  0  0  0  0  0  0
    0.9990   -2.7209    3.5663 C   0  0  0  0  0  0  0  0  0  0  0  0
    0.9776   -1.3284    3.5656 C   0  0  0  0  0  0  0  0  0  0  0  0
    2.9961    1.1120    1.0618 C   0  0  0  0  0  0  0  0  0  0  0  0
    2.2135   -0.0801    0.2156 S   0  0  0  0  0  0  0  0  0  0  0  0
    3.0053    0.2506   -1.2539 C   0  0  0  0  0  0  0  0  0  0  0  0
    3.9141    1.3192   -1.0696 C   0  0  0  0  0  0  0  0  0  0  0  0
    5.1677    1.3835   -1.7825 N   0  0  0  0  0  0  0  0  0  0  0  0
    5.8277    2.6463   -2.0352 C   0  0  0  0  0  0  0  0  0  0  0  0
    5.0729    3.7969   -2.3337 C   0  0  0  0  0  0  0  0  0  0  0  0
    5.7037    5.0165   -2.6075 C   0  0  0  0  0  0  0  0  0  0  0  0
    7.0972    5.1143   -2.5418 C   0  0  0  0  0  0  0  0  0  0  0  0
    7.9123    6.6792   -2.8886 S   0  0  0  0  0  0  0  0  0  0  0  0
    7.7727    7.2744   -1.1748 C   0  0  0  0  0  0  0  0  0  0  0  0
    7.8595    3.9851   -2.2127 C   0  0  0  0  0  0  0  0  0  0  0  0
    7.2321    2.7582   -1.9792 C   0  0  0  0  0  0  0  0  0  0  0  0
    5.9072    0.1500   -1.7819 C   0  0  0  0  0  0  0  0  0  0  0  0
    6.3469   -0.3944   -0.5590 C   0  0  0  0  0  0  0  0  0  0  0  0
    6.7922   -1.7179   -0.4964 C   0  0  0  0  0  0  0  0  0  0  0  0
    6.7990   -2.5031   -1.6565 C   0  0  0  0  0  0  0  0  0  0  0  0
    7.1129   -4.2616   -1.5370 S   0  0  0  0  0  0  0  0  0  0  0  0
    5.3570   -4.6506   -1.2400 C   0  0  0  0  0  0  0  0  0  0  0  0
    6.4382   -1.9394   -2.8908 C   0  0  0  0  0  0  0  0  0  0  0  0
    5.9925   -0.6153   -2.9525 C   0  0  0  0  0  0  0  0  0  0  0  0
    3.8191    1.8040    0.2422 C   0  0  0  0  0  0  0  0  0  0  0  0
    4.5336    3.0469    1.1195 S   0  0  0  0  0  0  0  0  0  0  0  0
    2.4228   -0.2139   -2.5248 C   0  0  0  0  0  0  0  0  0  0  0  0
    1.6602    0.7215   -3.2566 C   0  0  0  0  0  0  0  0  0  0  0  0
    2.2839    1.6081   -4.2099 N   0  0  0  0  0  0  0  0  0  0  0  0
    1.6322    2.8276   -4.6062 C   0  0  0  0  0  0  0  0  0  0  0  0
    1.4384    3.8594   -3.6773 C   0  0  0  0  0  0  0  0  0  0  0  0
    0.8570    5.0650   -4.0781 C   0  0  0  0  0  0  0  0  0  0  0  0
    0.4438    5.2402   -5.4050 C   0  0  0  0  0  0  0  0  0  0  0  0
   -0.3114    6.7867   -5.9127 S   0  0  0  0  0  0  0  0  0  0  0  0
    1.2619    7.4915   -6.5043 C   0  0  0  0  0  0  0  0  0  0  0  0
    0.5944    4.1960   -6.3266 C   0  0  0  0  0  0  0  0  0  0  0  0
    1.2053    3.0055   -5.9349 C   0  0  0  0  0  0  0  0  0  0  0  0
    3.3432    1.0973   -5.0496 C   0  0  0  0  0  0  0  0  0  0  0  0
    4.4841    1.8744   -5.3040 C   0  0  0  0  0  0  0  0  0  0  0  0
    5.5023    1.3852   -6.1330 C   0  0  0  0  0  0  0  0  0  0  0  0
    5.3721    0.1278   -6.7364 C   0  0  0  0  0  0  0  0  0  0  0  0
    6.6287   -0.4631   -7.8768 S   0  0  0  0  0  0  0  0  0  0  0  0
    7.5394   -1.4066   -6.6158 C   0  0  0  0  0  0  0  0  0  0  0  0
    4.2275   -0.6432   -6.5032 C   0  0  0  0  0  0  0  0  0  0  0  0
    3.2211   -0.1643   -5.6605 C   0  0  0  0  0  0  0  0  0  0  0  0
    0.3521    0.2624   -3.4500 C   0  0  0  0  0  0  0  0  0  0  0  0
   -1.0984    1.0095   -3.8444 S   0  0  0  0  0  0  0  0  0  0  0  0
   -2.0591   -0.3664   -3.5237 C   0  0  0  0  0  0  0  0  0  0  0  0
   -1.2141   -1.4508   -3.1862 C   0  0  0  0  0  0  0  0  0  0  0  0
   -1.6290   -2.8374   -3.1028 N   0  0  0  0  0  0  0  0  0  0  0  0
   -0.8910   -3.7715   -2.2934 C   0  0  0  0  0  0  0  0  0  0  0  0
   -0.6798   -3.5226   -0.9248 C   0  0  0  0  0  0  0  0  0  0  0  0
    0.1064   -4.3975   -0.1650 C   0  0  0  0  0  0  0  0  0  0  0  0
    0.6675   -5.5370   -0.7618 C   0  0  0  0  0  0  0  0  0  0  0  0
    1.7005   -6.6403    0.1967 S   0  0  0  0  0  0  0  0  0  0  0  0
    0.3000   -7.6363    0.7947 C   0  0  0  0  0  0  0  0  0  0  0  0
    0.4499   -5.7943   -2.1174 C   0  0  0  0  0  0  0  0  0  0  0  0
   -0.3260   -4.9172   -2.8813 C   0  0  0  0  0  0  0  0  0  0  0  0
   -2.6677   -3.3463   -3.9738 C   0  0  0  0  0  0  0  0  0  0  0  0
   -2.7702   -2.9018   -5.3028 C   0  0  0  0  0  0  0  0  0  0  0  0
   -3.8225   -3.3356   -6.1126 C   0  0  0  0  0  0  0  0  0  0  0  0
   -4.7759   -4.2273   -5.6101 C   0  0  0  0  0  0  0  0  0  0  0  0
   -6.1361   -4.7632   -6.6472 S   0  0  0  0  0  0  0  0  0  0  0  0
   -7.2261   -3.3983   -6.1361 C   0  0  0  0  0  0  0  0  0  0  0  0
   -4.6654   -4.6971   -4.2992 C   0  0  0  0  0  0  0  0  0  0  0  0
   -3.6080   -4.2756   -3.4905 C   0  0  0  0  0  0  0  0  0  0  0  0
    0.1165   -1.0254   -3.1048 C   0  0  0  0  0  0  0  0  0  0  0  0
    1.5236   -1.6662   -2.4643 S   0  0  0  0  0  0  0  0  0  0  0  0
   -3.5421   -0.3468   -3.4820 C   0  0  0  0  0  0  0  0  0  0  0  0
   -4.2745   -1.0798   -2.5365 C   0  0  0  0  0  0  0  0  0  0  0  0
   -3.8268   -1.8511   -1.5294 N   0  0  0  0  0  0  0  0  0  0  0  0
   -4.9115   -2.4525   -1.0516 N   0  0  0  0  0  0  0  0  0  0  0  0
   -4.8888   -3.3992    0.0607 C   0  0  0  0  0  0  0  0  0  0  0  0
   -4.7508   -2.6652    1.3869 C   0  0  0  0  0  0  0  0  0  0  0  0
   -6.0219   -2.1027   -1.6905 N   0  0  0  0  0  0  0  0  0  0  0  0
   -5.6311   -1.2065   -2.6107 C   0  0  0  0  0  0  0  0  0  0  0  0
   -6.4021   -0.5263   -3.5704 C   0  0  0  0  0  0  0  0  0  0  0  0
   -5.6943    0.2693   -4.5018 C   0  0  0  0  0  0  0  0  0  0  0  0
   -4.2854    0.3648   -4.4509 C   0  0  0  0  0  0  0  0  0  0  0  0
   -6.3644    0.9316   -5.4777 F   0  0  0  0  0  0  0  0  0  0  0  0
   -7.8496   -0.7904   -3.7691 C   0  0  0  0  0  0  0  0  0  0  0  0
   -8.7555   -0.9803   -2.7896 C   0  0  0  0  0  0  0  0  0  0  0  0
   -8.5165   -0.8277   -1.3516 C   0  0  0  0  0  0  0  0  0  0  0  0
   -7.7465    0.0139   -0.8117 O   0  0  0  0  0  0  0  0  0  0  0  0
   -9.3350   -1.7928   -0.6545 C   0  0  0  0  0  0  0  0  0  0  0  0
   -9.1957   -2.2331    0.6601 C   0  0  0  0  0  0  0  0  0  0  0  0
   -9.9119   -3.3725    1.0633 C   0  0  0  0  0  0  0  0  0  0  0  0
   -9.7611   -3.8817    2.3599 C   0  0  0  0  0  0  0  0  0  0  0  0
  -10.4337   -5.0472    2.7411 C   0  0  0  0  0  0  0  0  0  0  0  0
  -11.2623   -5.7115    1.8320 C   0  0  0  0  0  0  0  0  0  0  0  0
  -11.9010   -6.8452    2.2096 F   0  0  0  0  0  0  0  0  0  0  0  0
  -11.4265   -5.2179    0.5358 C   0  0  0  0  0  0  0  0  0  0  0  0
  -10.7551   -4.0484    0.1357 C   0  0  0  0  0  0  0  0  0  0  0  0
  -10.8795   -3.5716   -1.1852 C   0  0  0  0  0  0  0  0  0  0  0  0
  -10.1667   -2.4246   -1.5634 C   0  0  0  0  0  0  0  0  0  0  0  0
   -9.9701   -1.8316   -2.9122 C   0  0  0  0  0  0  0  0  0  0  0  0
  -10.8261   -1.8889   -3.9620 C   0  0  0  0  0  0  0  0  0  0  0  0
  -12.0426   -2.6580   -3.9213 C   0  0  0  0  0  0  0  0  0  0  0  0
  -13.0246   -3.2719   -3.9033 N   0  0  0  0  0  0  0  0  0  0  0  0
  -10.6468   -1.0734   -5.1337 C   0  0  0  0  0  0  0  0  0  0  0  0
  -10.5142   -0.4185   -6.0791 N   0  0  0  0  0  0  0  0  0  0  0  0
    3.3204    4.5445    3.5300 H   0  0  0  0  0  0  0  0  0  0  0  0
    2.0288    4.3309    8.7270 H   0  0  0  0  0  0  0  0  0  0  0  0
    4.8312    0.1360    8.0025 H   0  0  0  0  0  0  0  0  0  0  0  0
    3.1889    0.1214   11.0815 H   0  0  0  0  0  0  0  0  0  0  0  0
    5.6382    0.5034   11.8272 H   0  0  0  0  0  0  0  0  0  0  0  0
    6.7162    2.5272   10.4650 H   0  0  0  0  0  0  0  0  0  0  0  0
    5.2372    4.6395   10.8442 H   0  0  0  0  0  0  0  0  0  0  0  0
    3.2310    3.9718   12.4598 H   0  0  0  0  0  0  0  0  0  0  0  0
    5.1994    2.5220   13.4797 H   0  0  0  0  0  0  0  0  0  0  0  0
    3.6944    1.5000   13.3667 H   0  0  0  0  0  0  0  0  0  0  0  0
    1.8574    2.0381   11.4299 H   0  0  0  0  0  0  0  0  0  0  0  0
    1.5291    0.4410    5.9612 H   0  0  0  0  0  0  0  0  0  0  0  0
   -0.3047    1.4809    7.2283 H   0  0  0  0  0  0  0  0  0  0  0  0
   -4.4457    2.1667    6.3552 H   0  0  0  0  0  0  0  0  0  0  0  0
   -3.4961    1.9802    4.8323 H   0  0  0  0  0  0  0  0  0  0  0  0
   -3.0310    1.0524    6.3199 H   0  0  0  0  0  0  0  0  0  0  0  0
   -1.2879    3.9029    3.8033 H   0  0  0  0  0  0  0  0  0  0  0  0
    0.5543    2.8746    2.5435 H   0  0  0  0  0  0  0  0  0  0  0  0
    4.3142   -0.7506    3.1437 H   0  0  0  0  0  0  0  0  0  0  0  0
    4.3438   -3.2103    3.1866 H   0  0  0  0  0  0  0  0  0  0  0  0
    3.2176   -4.7478    5.6462 H   0  0  0  0  0  0  0  0  0  0  0  0
    1.4042   -4.8396    5.7074 H   0  0  0  0  0  0  0  0  0  0  0  0
    2.3845   -6.3529    5.5818 H   0  0  0  0  0  0  0  0  0  0  0  0
    0.0700   -3.2716    3.6584 H   0  0  0  0  0  0  0  0  0  0  0  0
    0.0258   -0.8212    3.6410 H   0  0  0  0  0  0  0  0  0  0  0  0
    3.9970    3.7386   -2.3917 H   0  0  0  0  0  0  0  0  0  0  0  0
    5.1067    5.8859   -2.8671 H   0  0  0  0  0  0  0  0  0  0  0  0
    8.3170    8.2381   -1.0797 H   0  0  0  0  0  0  0  0  0  0  0  0
    8.2234    6.5396   -0.4766 H   0  0  0  0  0  0  0  0  0  0  0  0
    6.7046    7.4343   -0.9224 H   0  0  0  0  0  0  0  0  0  0  0  0
    8.9375    4.0533   -2.1511 H   0  0  0  0  0  0  0  0  0  0  0  0
    7.8476    1.9038   -1.7354 H   0  0  0  0  0  0  0  0  0  0  0  0
    6.2611    0.1779    0.3603 H   0  0  0  0  0  0  0  0  0  0  0  0
    7.0549   -2.1517    0.4636 H   0  0  0  0  0  0  0  0  0  0  0  0
    5.2523   -5.7388   -1.0511 H   0  0  0  0  0  0  0  0  0  0  0  0
    4.9865   -4.0877   -0.3538 H   0  0  0  0  0  0  0  0  0  0  0  0
    4.7527   -4.3750   -2.1328 H   0  0  0  0  0  0  0  0  0  0  0  0
    6.4285   -2.5474   -3.7879 H   0  0  0  0  0  0  0  0  0  0  0  0
    5.6502   -0.2087   -3.8921 H   0  0  0  0  0  0  0  0  0  0  0  0
    1.7262    3.7249   -2.6475 H   0  0  0  0  0  0  0  0  0  0  0  0
    0.7322    5.8630   -3.3576 H   0  0  0  0  0  0  0  0  0  0  0  0
    1.0901    8.5264   -6.8692 H   0  0  0  0  0  0  0  0  0  0  0  0
    2.0060    7.5175   -5.6790 H   0  0  0  0  0  0  0  0  0  0  0  0
    1.6575    6.8783   -7.3408 H   0  0  0  0  0  0  0  0  0  0  0  0
    0.2633    4.3206   -7.3507 H   0  0  0  0  0  0  0  0  0  0  0  0
    1.3278    2.2065   -6.6608 H   0  0  0  0  0  0  0  0  0  0  0  0
    4.5853    2.8515   -4.8586 H   0  0  0  0  0  0  0  0  0  0  0  0
    6.3888    1.9818   -6.3052 H   0  0  0  0  0  0  0  0  0  0  0  0
    8.4080   -1.8998   -7.0967 H   0  0  0  0  0  0  0  0  0  0  0  0
    6.8829   -2.1881   -6.1813 H   0  0  0  0  0  0  0  0  0  0  0  0
    7.9037   -0.7317   -5.8123 H   0  0  0  0  0  0  0  0  0  0  0  0
    4.1154   -1.6107   -6.9737 H   0  0  0  0  0  0  0  0  0  0  0  0
    2.3290   -0.7624   -5.5098 H   0  0  0  0  0  0  0  0  0  0  0  0
   -1.1053   -2.6447   -0.4574 H   0  0  0  0  0  0  0  0  0  0  0  0
    0.2741   -4.1919    0.8869 H   0  0  0  0  0  0  0  0  0  0  0  0
   -0.2019   -8.1360   -0.0604 H   0  0  0  0  0  0  0  0  0  0  0  0
   -0.4252   -6.9901    1.3326 H   0  0  0  0  0  0  0  0  0  0  0  0
    0.6786   -8.4110    1.4953 H   0  0  0  0  0  0  0  0  0  0  0  0
    0.8933   -6.6663   -2.5860 H   0  0  0  0  0  0  0  0  0  0  0  0
   -0.4795   -5.1198   -3.9342 H   0  0  0  0  0  0  0  0  0  0  0  0
   -2.0417   -2.2087   -5.7063 H   0  0  0  0  0  0  0  0  0  0  0  0
   -3.9008   -2.9710   -7.1310 H   0  0  0  0  0  0  0  0  0  0  0  0
   -7.4425   -3.4750   -5.0503 H   0  0  0  0  0  0  0  0  0  0  0  0
   -6.7437   -2.4234   -6.3568 H   0  0  0  0  0  0  0  0  0  0  0  0
   -8.1810   -3.4611   -6.6983 H   0  0  0  0  0  0  0  0  0  0  0  0
   -5.4004   -5.3845   -3.9001 H   0  0  0  0  0  0  0  0  0  0  0  0
   -3.5449   -4.6356   -2.4736 H   0  0  0  0  0  0  0  0  0  0  0  0
   -5.8272   -3.9972    0.0640 H   0  0  0  0  0  0  0  0  0  0  0  0
   -4.0372   -4.0997   -0.0718 H   0  0  0  0  0  0  0  0  0  0  0  0
   -3.8325   -2.0405    1.3764 H   0  0  0  0  0  0  0  0  0  0  0  0
   -5.6398   -2.0228    1.5590 H   0  0  0  0  0  0  0  0  0  0  0  0
   -4.6738   -3.4035    2.2153 H   0  0  0  0  0  0  0  0  0  0  0  0
   -3.7717    0.9586   -5.1935 H   0  0  0  0  0  0  0  0  0  0  0  0
   -8.1311   -0.9744   -4.7937 H   0  0  0  0  0  0  0  0  0  0  0  0
   -8.5000   -1.7366    1.3267 H   0  0  0  0  0  0  0  0  0  0  0  0
   -9.1121   -3.3897    3.0774 H   0  0  0  0  0  0  0  0  0  0  0  0
  -10.3013   -5.4388    3.7400 H   0  0  0  0  0  0  0  0  0  0  0  0
  -12.0664   -5.7530   -0.1555 H   0  0  0  0  0  0  0  0  0  0  0  0
  -11.4556   -4.1307   -1.9038 H   0  0  0  0  0  0  0  0  0  0  0  0
  1  2  2  3
  2  3  1  0
  3  4  2  0
  3  5  1  0
  5  6  2  0
  6  7  1  0
  7  8  2  0
  8  9  1  0
  9 10  2  0
 10 11  1  0
 11 12  2  3
 12 13  1  0
 13 14  3  0
 12 15  1  0
 15 16  3  0
  8 17  1  0
 17 18  1  0
 18 19  1  0
 19 20  2  0
 20 21  1  0
 21 22  1  0
 21 23  1  0
  1 24  1  0
 24 25  2  0
 25 26  1  0
 26 27  1  0
 27 28  2  0
 28 29  1  0
 29 30  2  0
 30 31  1  0
 31 32  1  0
 30 33  1  0
 33 34  2  0
 26 35  1  0
 35 36  2  0
 36 37  1  0
 37 38  2  0
 38 39  1  0
 39 40  1  0
 38 41  1  0
 41 42  2  0
 25 43  1  0
 43 44  1  0
 44 45  1  0
 45 46  2  0
 46 47  1  0
 47 48  1  0
 48 49  2  0
 49 50  1  0
 50 51  2  0
 51 52  1  0
 52 53  1  0
 51 54  1  0
 54 55  2  0
 47 56  1  0
 56 57  2  0
 57 58  1  0
 58 59  2  0
 59 60  1  0
 60 61  1  0
 59 62  1  0
 62 63  2  0
 46 64  1  0
 64 65  1  0
 45 66  1  0
 66 67  2  0
 67 68  1  0
 68 69  1  0
 69 70  2  0
 70 71  1  0
 71 72  2  0
 72 73  1  0
 73 74  1  0
 72 75  1  0
 75 76  2  0
 68 77  1  0
 77 78  2  0
 78 79  1  0
 79 80  2  0
 80 81  1  0
 81 82  1  0
 80 83  1  0
 83 84  2  0
 67 85  1  0
 85 86  1  0
 86 87  1  0
 87 88  2  0
 88 89  1  0
 89 90  1  0
 90 91  2  0
 91 92  1  0
 92 93  2  0
 93 94  1  0
 94 95  1  0
 93 96  1  0
 96 97  2  0
 89 98  1  0
 98 99  2  0
 99100  1  0
100101  2  0
101102  1  0
102103  1  0
101104  1  0
104105  2  0
 88106  1  0
106107  1  0
 87108  1  0
108109  1  0
109110  2  0
110111  1  0
111112  1  0
112113  1  0
111114  1  0
114115  2  0
115116  1  0
116117  2  0
117118  1  0
117119  1  0
116120  1  0
120121  2  3
121122  1  0
122123  2  0
122124  1  0
124125  2  0
125126  1  0
126127  2  0
127128  1  0
128129  2  0
129130  1  0
129131  1  0
131132  2  0
132133  1  0
133134  2  0
134135  1  0
135136  2  3
136137  1  0
137138  3  0
136139  1  0
139140  3  0
 11  2  1  0
 23 17  1  0
 65 24  1  0
107 66  1  0
118108  2  0
135121  1  0
 10  5  1  0
 22 18  1  0
 34 27  1  0
 42 35  1  0
 64 43  2  0
 76 69  1  0
 84 77  1  0
106 85  2  0
115109  1  0
134124  1  0
 23  7  1  0
 55 48  1  0
 63 56  1  0
 97 90  1  0
105 98  1  0
132126  1  0
  1141  1  0
  6142  1  0
  9143  1  0
 17144  1  0
 18145  1  0
 19146  1  0
 20147  1  0
 21148  1  0
 22149  1  0
 22150  1  0
 23151  1  0
 28152  1  0
 29153  1  0
 32154  1  0
 32155  1  0
 32156  1  0
 33157  1  0
 34158  1  0
 36159  1  0
 37160  1  0
 40161  1  0
 40162  1  0
 40163  1  0
 41164  1  0
 42165  1  0
 49166  1  0
 50167  1  0
 53168  1  0
 53169  1  0
 53170  1  0
 54171  1  0
 55172  1  0
 57173  1  0
 58174  1  0
 61175  1  0
 61176  1  0
 61177  1  0
 62178  1  0
 63179  1  0
 70180  1  0
 71181  1  0
 74182  1  0
 74183  1  0
 74184  1  0
 75185  1  0
 76186  1  0
 78187  1  0
 79188  1  0
 82189  1  0
 82190  1  0
 82191  1  0
 83192  1  0
 84193  1  0
 91194  1  0
 92195  1  0
 95196  1  0
 95197  1  0
 95198  1  0
 96199  1  0
 97200  1  0
 99201  1  0
100202  1  0
103203  1  0
103204  1  0
103205  1  0
104206  1  0
105207  1  0
112208  1  0
112209  1  0
113210  1  0
113211  1  0
113212  1  0
118213  1  0
120214  1  0
125215  1  0
127216  1  0
128217  1  0
131218  1  0
133219  1  0
M  END

