
     RDKit          3D

173192  0  0  0  0  0  0  0  0999 V2000
    3.1225   -2.9877    5.2443 C   0  0  0  0  0  0  0  0  0  0  0  0
    2.4705   -3.3849    6.3500 C   0  0  0  0  0  0  0  0  0  0  0  0
    1.6437   -2.4825    7.1646 C   0  0  0  0  0  0  0  0  0  0  0  0
    1.8931   -1.2696    7.3975 O   0  0  0  0  0  0  0  0  0  0  0  0
    0.4481   -3.1867    7.5803 C   0  0  0  0  0  0  0  0  0  0  0  0
   -0.7223   -2.6088    8.1201 C   0  0  0  0  0  0  0  0  0  0  0  0
   -1.8208   -3.4451    8.0801 C   0  0  0  0  0  0  0  0  0  0  0  0
   -1.7755   -4.7693    7.5380 C   0  0  0  0  0  0  0  0  0  0  0  0
   -0.6165   -5.3569    7.0514 C   0  0  0  0  0  0  0  0  0  0  0  0
    0.5292   -4.5232    7.1153 C   0  0  0  0  0  0  0  0  0  0  0  0
    1.8635   -4.7392    6.4949 C   0  0  0  0  0  0  0  0  0  0  0  0
    2.4642   -5.9259    6.2444 C   0  0  0  0  0  0  0  0  0  0  0  0
    1.8350   -7.1830    6.5562 C   0  0  0  0  0  0  0  0  0  0  0  0
    1.3395   -8.1984    6.8072 N   0  0  0  0  0  0  0  0  0  0  0  0
    3.8291   -5.9968    5.8072 C   0  0  0  0  0  0  0  0  0  0  0  0
    4.9318   -6.0494    5.4755 N   0  0  0  0  0  0  0  0  0  0  0  0
   -3.2654   -4.8962    7.6784 C   0  0  0  0  0  0  0  0  0  0  0  0
   -4.1276   -4.7255    6.3897 C   0  0  0  0  0  0  0  0  0  0  0  0
   -3.4712   -3.7586    5.4299 C   0  0  0  0  0  0  0  0  0  0  0  0
   -3.5427   -2.5552    5.9951 C   0  0  0  0  0  0  0  0  0  0  0  0
   -4.2274   -2.7438    7.3300 C   0  0  0  0  0  0  0  0  0  0  0  0
   -5.2166   -3.8217    6.9317 C   0  0  0  0  0  0  0  0  0  0  0  0
   -3.3017   -3.5615    8.2857 C   0  0  0  0  0  0  0  0  0  0  0  0
    2.6705   -1.7942    4.5135 C   0  0  0  0  0  0  0  0  0  0  0  0
    3.4384   -0.7469    3.9484 C   0  0  0  0  0  0  0  0  0  0  0  0
    4.8569   -0.5355    4.1469 N   0  0  0  0  0  0  0  0  0  0  0  0
    5.7463   -1.6161    4.4808 C   0  0  0  0  0  0  0  0  0  0  0  0
    6.5265   -1.5447    5.6447 C   0  0  0  0  0  0  0  0  0  0  0  0
    7.5234   -2.4927    5.8929 C   0  0  0  0  0  0  0  0  0  0  0  0
    7.7540   -3.5210    4.9731 C   0  0  0  0  0  0  0  0  0  0  0  0
    9.1277   -4.6513    5.2369 S   0  0  0  0  0  0  0  0  0  0  0  0
    8.1799   -5.7966    6.2888 C   0  0  0  0  0  0  0  0  0  0  0  0
    6.9650   -3.6163    3.8204 C   0  0  0  0  0  0  0  0  0  0  0  0
    5.9620   -2.6656    3.5742 C   0  0  0  0  0  0  0  0  0  0  0  0
    5.4217    0.7893    4.0769 C   0  0  0  0  0  0  0  0  0  0  0  0
    6.6041    1.0158    3.3503 C   0  0  0  0  0  0  0  0  0  0  0  0
    7.1423    2.2992    3.2617 C   0  0  0  0  0  0  0  0  0  0  0  0
    6.5163    3.3674    3.9073 C   0  0  0  0  0  0  0  0  0  0  0  0
    7.1922    5.0230    3.7620 S   0  0  0  0  0  0  0  0  0  0  0  0
    6.2546    5.4022    2.2449 C   0  0  0  0  0  0  0  0  0  0  0  0
    5.3650    3.1460    4.6700 C   0  0  0  0  0  0  0  0  0  0  0  0
    4.8243    1.8618    4.7656 C   0  0  0  0  0  0  0  0  0  0  0  0
    2.5986    0.1218    3.2240 C   0  0  0  0  0  0  0  0  0  0  0  0
    2.8151    1.4721    2.2360 S   0  0  0  0  0  0  0  0  0  0  0  0
    1.1536    1.6586    1.8726 C   0  0  0  0  0  0  0  0  0  0  0  0
    0.4419    0.6092    2.4845 C   0  0  0  0  0  0  0  0  0  0  0  0
   -0.9476    0.3028    2.2601 N   0  0  0  0  0  0  0  0  0  0  0  0
   -1.2906   -0.7859    1.3828 C   0  0  0  0  0  0  0  0  0  0  0  0
   -0.7739   -0.8468    0.0755 C   0  0  0  0  0  0  0  0  0  0  0  0
   -1.1363   -1.8931   -0.7810 C   0  0  0  0  0  0  0  0  0  0  0  0
   -2.0117   -2.8920   -0.3381 C   0  0  0  0  0  0  0  0  0  0  0  0
   -2.4716   -4.2390   -1.4306 S   0  0  0  0  0  0  0  0  0  0  0  0
   -3.9033   -3.3594   -2.1196 C   0  0  0  0  0  0  0  0  0  0  0  0
   -2.5205   -2.8448    0.9648 C   0  0  0  0  0  0  0  0  0  0  0  0
   -2.1696   -1.7960    1.8180 C   0  0  0  0  0  0  0  0  0  0  0  0
   -1.9629    0.8875    3.0992 C   0  0  0  0  0  0  0  0  0  0  0  0
   -1.7245    1.1181    4.4661 C   0  0  0  0  0  0  0  0  0  0  0  0
   -2.7361    1.6300    5.2818 C   0  0  0  0  0  0  0  0  0  0  0  0
   -3.9985    1.9192    4.7428 C   0  0  0  0  0  0  0  0  0  0  0  0
   -5.3217    2.5182    5.7996 S   0  0  0  0  0  0  0  0  0  0  0  0
   -5.9040    0.8451    6.2211 C   0  0  0  0  0  0  0  0  0  0  0  0
   -4.2342    1.7233    3.3784 C   0  0  0  0  0  0  0  0  0  0  0  0
   -3.2255    1.2045    2.5641 C   0  0  0  0  0  0  0  0  0  0  0  0
    1.2851   -0.2087    3.2209 C   0  0  0  0  0  0  0  0  0  0  0  0
    1.0348   -1.6149    4.0721 S   0  0  0  0  0  0  0  0  0  0  0  0
    0.6120    2.5173    0.8085 C   0  0  0  0  0  0  0  0  0  0  0  0
    1.1063    2.3548   -0.4966 C   0  0  0  0  0  0  0  0  0  0  0  0
    0.3641    2.8039   -1.5898 C   0  0  0  0  0  0  0  0  0  0  0  0
   -0.8759    3.4266   -1.3986 C   0  0  0  0  0  0  0  0  0  0  0  0
   -1.2965    3.7419   -0.0954 C   0  0  0  0  0  0  0  0  0  0  0  0
   -2.4402    4.4429    0.1187 N   0  0  0  0  0  0  0  0  0  0  0  0
   -2.8527    4.7539    1.3789 C   0  0  0  0  0  0  0  0  0  0  0  0
   -2.0964    4.3315    2.4694 C   0  0  0  0  0  0  0  0  0  0  0  0
   -0.9652    3.6091    2.2684 N   0  0  0  0  0  0  0  0  0  0  0  0
   -0.5388    3.3008    1.0131 C   0  0  0  0  0  0  0  0  0  0  0  0
   -1.7983    3.4928   -2.5479 C   0  0  0  0  0  0  0  0  0  0  0  0
   -2.8009    2.5141   -2.6814 C   0  0  0  0  0  0  0  0  0  0  0  0
   -3.1450    1.7209   -1.6289 N   0  0  0  0  0  0  0  0  0  0  0  0
   -4.0465    0.7136   -1.7611 C   0  0  0  0  0  0  0  0  0  0  0  0
   -4.6160    0.4608   -3.0112 C   0  0  0  0  0  0  0  0  0  0  0  0
   -5.5379   -0.5817   -3.1469 O   0  0  0  0  0  0  0  0  0  0  0  0
   -6.0950   -0.9799   -4.4009 C   0  0  0  0  0  0  0  0  0  0  0  0
   -7.1573    0.0043   -4.8685 C   0  0  0  0  0  0  0  0  0  0  0  0
   -4.2508    1.2263   -4.0806 N   0  0  0  0  0  0  0  0  0  0  0  0
   -3.3741    2.2592   -3.9485 C   0  0  0  0  0  0  0  0  0  0  0  0
   -2.9572    3.0015   -5.0646 C   0  0  0  0  0  0  0  0  0  0  0  0
   -2.0822    4.0859   -4.8801 C   0  0  0  0  0  0  0  0  0  0  0  0
   -1.4909    4.3167   -3.6384 C   0  0  0  0  0  0  0  0  0  0  0  0
   -3.1440    2.4730   -6.4318 C   0  0  0  0  0  0  0  0  0  0  0  0
   -2.1198    1.8575   -7.0573 C   0  0  0  0  0  0  0  0  0  0  0  0
   -0.8036    1.6315   -6.4444 C   0  0  0  0  0  0  0  0  0  0  0  0
   -0.5751    1.4214   -5.2218 O   0  0  0  0  0  0  0  0  0  0  0  0
    0.1964    1.6869   -7.4803 C   0  0  0  0  0  0  0  0  0  0  0  0
    1.5833    1.8598   -7.2827 C   0  0  0  0  0  0  0  0  0  0  0  0
    2.2800    2.1198   -8.4436 C   0  0  0  0  0  0  0  0  0  0  0  0
    1.6636    2.1764   -9.7354 C   0  0  0  0  0  0  0  0  0  0  0  0
    0.2984    2.0087   -9.9373 C   0  0  0  0  0  0  0  0  0  0  0  0
   -0.4444    1.7640   -8.7444 C   0  0  0  0  0  0  0  0  0  0  0  0
   -1.9251    1.7413   -8.5323 C   0  0  0  0  0  0  0  0  0  0  0  0
   -2.8862    1.4888   -9.4548 C   0  0  0  0  0  0  0  0  0  0  0  0
   -2.5875    1.2780  -10.8472 C   0  0  0  0  0  0  0  0  0  0  0  0
   -2.3561    1.1105  -11.9698 N   0  0  0  0  0  0  0  0  0  0  0  0
   -4.2604    1.2953   -9.0776 C   0  0  0  0  0  0  0  0  0  0  0  0
   -5.3672    1.1358   -8.7780 N   0  0  0  0  0  0  0  0  0  0  0  0
    2.9835    2.5138  -10.3678 C   0  0  0  0  0  0  0  0  0  0  0  0
    3.7470    1.3930  -11.1387 C   0  0  0  0  0  0  0  0  0  0  0  0
    3.4508    0.0428  -10.5240 C   0  0  0  0  0  0  0  0  0  0  0  0
    4.0230    0.0276   -9.3265 C   0  0  0  0  0  0  0  0  0  0  0  0
    4.6851    1.3740   -9.1490 C   0  0  0  0  0  0  0  0  0  0  0  0
    5.1433    1.6059  -10.5798 C   0  0  0  0  0  0  0  0  0  0  0  0
    3.6029    2.4885   -9.0361 C   0  0  0  0  0  0  0  0  0  0  0  0
    3.6336   -3.7147    4.6373 H   0  0  0  0  0  0  0  0  0  0  0  0
   -0.7917   -1.5675    8.4067 H   0  0  0  0  0  0  0  0  0  0  0  0
   -0.6330   -6.3289    6.5830 H   0  0  0  0  0  0  0  0  0  0  0  0
   -3.5874   -5.7108    8.3660 H   0  0  0  0  0  0  0  0  0  0  0  0
   -4.4886   -5.6647    5.9305 H   0  0  0  0  0  0  0  0  0  0  0  0
   -3.0669   -3.9765    4.4512 H   0  0  0  0  0  0  0  0  0  0  0  0
   -3.1996   -1.6246    5.5580 H   0  0  0  0  0  0  0  0  0  0  0  0
   -4.6782   -1.8303    7.7686 H   0  0  0  0  0  0  0  0  0  0  0  0
   -5.7663   -4.2601    7.7954 H   0  0  0  0  0  0  0  0  0  0  0  0
   -5.9421   -3.4858    6.1591 H   0  0  0  0  0  0  0  0  0  0  0  0
   -3.6082   -3.5514    9.3573 H   0  0  0  0  0  0  0  0  0  0  0  0
    6.3850   -0.7289    6.3461 H   0  0  0  0  0  0  0  0  0  0  0  0
    8.1345   -2.4078    6.7821 H   0  0  0  0  0  0  0  0  0  0  0  0
    8.8790   -6.4882    6.8024 H   0  0  0  0  0  0  0  0  0  0  0  0
    7.6020   -5.2416    7.0584 H   0  0  0  0  0  0  0  0  0  0  0  0
    7.4930   -6.3932    5.6572 H   0  0  0  0  0  0  0  0  0  0  0  0
    7.1471   -4.4048    3.0993 H   0  0  0  0  0  0  0  0  0  0  0  0
    5.3883   -2.7132    2.6597 H   0  0  0  0  0  0  0  0  0  0  0  0
    7.0799    0.2045    2.8268 H   0  0  0  0  0  0  0  0  0  0  0  0
    8.0494    2.4644    2.6866 H   0  0  0  0  0  0  0  0  0  0  0  0
    6.5046    6.4284    1.9014 H   0  0  0  0  0  0  0  0  0  0  0  0
    6.5131    4.6772    1.4430 H   0  0  0  0  0  0  0  0  0  0  0  0
    5.1633    5.3551    2.4581 H   0  0  0  0  0  0  0  0  0  0  0  0
    4.8859    3.9746    5.1826 H   0  0  0  0  0  0  0  0  0  0  0  0
    3.9353    1.7082    5.3540 H   0  0  0  0  0  0  0  0  0  0  0  0
   -0.1041   -0.0778   -0.2901 H   0  0  0  0  0  0  0  0  0  0  0  0
   -0.7358   -1.9257   -1.7867 H   0  0  0  0  0  0  0  0  0  0  0  0
   -4.6116   -3.0847   -1.3085 H   0  0  0  0  0  0  0  0  0  0  0  0
   -3.5602   -2.4459   -2.6511 H   0  0  0  0  0  0  0  0  0  0  0  0
   -4.4191   -4.0266   -2.8408 H   0  0  0  0  0  0  0  0  0  0  0  0
   -3.1917   -3.6199    1.3113 H   0  0  0  0  0  0  0  0  0  0  0  0
   -2.5659   -1.7777    2.8233 H   0  0  0  0  0  0  0  0  0  0  0  0
   -0.7710    0.8711    4.9141 H   0  0  0  0  0  0  0  0  0  0  0  0
   -2.5556    1.7827    6.3397 H   0  0  0  0  0  0  0  0  0  0  0  0
   -6.6458    0.9016    7.0441 H   0  0  0  0  0  0  0  0  0  0  0  0
   -6.3789    0.3773    5.3345 H   0  0  0  0  0  0  0  0  0  0  0  0
   -5.0514    0.2211    6.5610 H   0  0  0  0  0  0  0  0  0  0  0  0
   -5.2051    1.9493    2.9546 H   0  0  0  0  0  0  0  0  0  0  0  0
   -3.4237    1.0565    1.5100 H   0  0  0  0  0  0  0  0  0  0  0  0
    1.9964    1.7646   -0.6806 H   0  0  0  0  0  0  0  0  0  0  0  0
    0.6998    2.5484   -2.5919 H   0  0  0  0  0  0  0  0  0  0  0  0
   -3.7642    5.3211    1.5287 H   0  0  0  0  0  0  0  0  0  0  0  0
   -2.4158    4.5616    3.4762 H   0  0  0  0  0  0  0  0  0  0  0  0
   -4.3084    0.1056   -0.9065 H   0  0  0  0  0  0  0  0  0  0  0  0
   -5.2945   -1.0788   -5.1637 H   0  0  0  0  0  0  0  0  0  0  0  0
   -6.5665   -1.9780   -4.2703 H   0  0  0  0  0  0  0  0  0  0  0  0
   -7.6082   -0.3539   -5.8201 H   0  0  0  0  0  0  0  0  0  0  0  0
   -7.9556    0.0920   -4.1046 H   0  0  0  0  0  0  0  0  0  0  0  0
   -6.7117    1.0045   -5.0486 H   0  0  0  0  0  0  0  0  0  0  0  0
   -1.7371    4.6570   -5.7336 H   0  0  0  0  0  0  0  0  0  0  0  0
   -0.7058    5.0588   -3.5557 H   0  0  0  0  0  0  0  0  0  0  0  0
   -4.0316    2.7838   -6.9691 H   0  0  0  0  0  0  0  0  0  0  0  0
    2.0521    1.8722   -6.3068 H   0  0  0  0  0  0  0  0  0  0  0  0
   -0.1412    2.1452  -10.9116 H   0  0  0  0  0  0  0  0  0  0  0  0
    3.0055    3.5169  -10.8505 H   0  0  0  0  0  0  0  0  0  0  0  0
    3.6625    1.4392  -12.2390 H   0  0  0  0  0  0  0  0  0  0  0  0
    2.9460   -0.7957  -10.9964 H   0  0  0  0  0  0  0  0  0  0  0  0
    4.0622   -0.8134   -8.6468 H   0  0  0  0  0  0  0  0  0  0  0  0
    5.4823    1.4105   -8.3791 H   0  0  0  0  0  0  0  0  0  0  0  0
    5.8847    0.8516  -10.9344 H   0  0  0  0  0  0  0  0  0  0  0  0
    5.5419    2.6338  -10.7530 H   0  0  0  0  0  0  0  0  0  0  0  0
    3.9814    3.4829   -8.7005 H   0  0  0  0  0  0  0  0  0  0  0  0
  1  2  2  3
  2  3  1  0
  3  4  2  0
  3  5  1  0
  5  6  2  0
  6  7  1  0
  7  8  2  0
  8  9  1  0
  9 10  2  0
 10 11  1  0
 11 12  2  3
 12 13  1  0
 13 14  3  0
 12 15  1  0
 15 16  3  0
  8 17  1  0
 17 18  1  0
 18 19  1  0
 19 20  2  0
 20 21  1  0
 21 22  1  0
 21 23  1  0
  1 24  1  0
 24 25  2  0
 25 26  1  0
 26 27  1  0
 27 28  2  0
 28 29  1  0
 29 30  2  0
 30 31  1  0
 31 32  1  0
 30 33  1  0
 33 34  2  0
 26 35  1  0
 35 36  2  0
 36 37  1  0
 37 38  2  0
 38 39  1  0
 39 40  1  0
 38 41  1  0
 41 42  2  0
 25 43  1  0
 43 44  1  0
 44 45  1  0
 45 46  2  0
 46 47  1  0
 47 48  1  0
 48 49  2  0
 49 50  1  0
 50 51  2  0
 51 52  1  0
 52 53  1  0
 51 54  1  0
 54 55  2  0
 47 56  1  0
 56 57  2  0
 57 58  1  0
 58 59  2  0
 59 60  1  0
 60 61  1  0
 59 62  1  0
 62 63  2  0
 46 64  1  0
 64 65  1  0
 45 66  1  0
 66 67  2  0
 67 68  1  0
 68 69  2  0
 69 70  1  0
 70 71  2  0
 71 72  1  0
 72 73  2  0
 73 74  1  0
 74 75  2  0
 69 76  1  0
 76 77  1  0
 77 78  2  0
 78 79  1  0
 79 80  2  0
 80 81  1  0
 81 82  1  0
 82 83  1  0
 80 84  1  0
 84 85  2  0
 85 86  1  0
 86 87  2  0
 87 88  1  0
 86 89  1  0
 89 90  2  3
 90 91  1  0
 91 92  2  0
 91 93  1  0
 93 94  2  0
 94 95  1  0
 95 96  2  0
 96 97  1  0
 97 98  2  0
 98 99  1  0
 99100  2  3
100101  1  0
101102  3  0
100103  1  0
103104  3  0
 96105  1  0
105106  1  0
106107  1  0
107108  2  0
108109  1  0
109110  1  0
109111  1  0
 11  2  1  0
 23 17  1  0
 65 24  1  0
 75 66  1  0
 88 76  2  0
 99 90  1  0
111105  1  0
 10  5  1  0
 22 18  1  0
 34 27  1  0
 42 35  1  0
 64 43  2  0
 75 70  1  0
 85 77  1  0
 98 93  1  0
110106  1  0
 23  7  1  0
 55 48  1  0
 63 56  1  0
111 95  1  0
  1112  1  0
  6113  1  0
  9114  1  0
 17115  1  0
 18116  1  0
 19117  1  0
 20118  1  0
 21119  1  0
 22120  1  0
 22121  1  0
 23122  1  0
 28123  1  0
 29124  1  0
 32125  1  0
 32126  1  0
 32127  1  0
 33128  1  0
 34129  1  0
 36130  1  0
 37131  1  0
 40132  1  0
 40133  1  0
 40134  1  0
 41135  1  0
 42136  1  0
 49137  1  0
 50138  1  0
 53139  1  0
 53140  1  0
 53141  1  0
 54142  1  0
 55143  1  0
 57144  1  0
 58145  1  0
 61146  1  0
 61147  1  0
 61148  1  0
 62149  1  0
 63150  1  0
 67151  1  0
 68152  1  0
 72153  1  0
 73154  1  0
 79155  1  0
 82156  1  0
 82157  1  0
 83158  1  0
 83159  1  0
 83160  1  0
 87161  1  0
 88162  1  0
 89163  1  0
 94164  1  0
 97165  1  0
105166  1  0
106167  1  0
107168  1  0
108169  1  0
109170  1  0
110171  1  0
110172  1  0
111173  1  0
M  END

