
     RDKit          3D

179198  0  0  0  0  0  0  0  0999 V2000
    3.5961   -3.6778   -5.5699 C   0  0  0  0  0  0  0  0  0  0  0  0
    2.5576   -4.4754   -5.2047 C   0  0  0  0  0  0  0  0  0  0  0  0
    1.3682   -4.0723   -4.4537 C   0  0  0  0  0  0  0  0  0  0  0  0
    0.9670   -2.8755   -4.1991 O   0  0  0  0  0  0  0  0  0  0  0  0
    0.5761   -5.1856   -4.0849 C   0  0  0  0  0  0  0  0  0  0  0  0
   -0.6252   -5.0405   -3.3523 C   0  0  0  0  0  0  0  0  0  0  0  0
   -1.2205   -6.2599   -3.1487 C   0  0  0  0  0  0  0  0  0  0  0  0
   -0.6690   -7.5229   -3.6415 C   0  0  0  0  0  0  0  0  0  0  0  0
    0.5139   -7.6383   -4.3749 C   0  0  0  0  0  0  0  0  0  0  0  0
    1.1714   -6.3912   -4.6153 C   0  0  0  0  0  0  0  0  0  0  0  0
    2.4094   -6.0087   -5.3772 C   0  0  0  0  0  0  0  0  0  0  0  0
    3.1821   -6.8980   -6.0984 C   0  0  0  0  0  0  0  0  0  0  0  0
    4.2565   -6.4867   -6.9368 C   0  0  0  0  0  0  0  0  0  0  0  0
    5.1226   -6.1597   -7.6740 N   0  0  0  0  0  0  0  0  0  0  0  0
    2.8926   -8.3029   -6.1671 C   0  0  0  0  0  0  0  0  0  0  0  0
    2.6396   -9.4609   -6.2299 N   0  0  0  0  0  0  0  0  0  0  0  0
   -1.8832   -8.2499   -3.1144 C   0  0  0  0  0  0  0  0  0  0  0  0
   -2.9451   -8.6898   -4.1644 C   0  0  0  0  0  0  0  0  0  0  0  0
   -4.2012   -9.0070   -3.3549 C   0  0  0  0  0  0  0  0  0  0  0  0
   -4.7092   -7.8337   -2.9349 C   0  0  0  0  0  0  0  0  0  0  0  0
   -3.7623   -6.7671   -3.4300 C   0  0  0  0  0  0  0  0  0  0  0  0
   -3.4275   -7.3666   -4.8030 C   0  0  0  0  0  0  0  0  0  0  0  0
   -2.4155   -6.9547   -2.6247 C   0  0  0  0  0  0  0  0  0  0  0  0
    3.6585   -2.2303   -5.2790 C   0  0  0  0  0  0  0  0  0  0  0  0
    3.4906   -1.7272   -3.9983 C   0  0  0  0  0  0  0  0  0  0  0  0
    4.2084   -2.1087   -2.7302 N   0  0  0  0  0  0  0  0  0  0  0  0
    4.2879   -1.1627   -1.6885 C   0  0  0  0  0  0  0  0  0  0  0  0
    4.0018   -1.5231   -0.3363 C   0  0  0  0  0  0  0  0  0  0  0  0
    3.9922   -0.5631    0.6770 C   0  0  0  0  0  0  0  0  0  0  0  0
    4.1501    0.8065    0.3967 C   0  0  0  0  0  0  0  0  0  0  0  0
    4.0344    1.9453    1.8399 S   0  0  0  0  0  0  0  0  0  0  0  0
    4.3413    3.5647    1.0899 C   0  0  0  0  0  0  0  0  0  0  0  0
    4.4246    1.1984   -0.9330 C   0  0  0  0  0  0  0  0  0  0  0  0
    4.5190    0.2171   -1.9220 C   0  0  0  0  0  0  0  0  0  0  0  0
    5.2618   -3.0739   -2.7060 C   0  0  0  0  0  0  0  0  0  0  0  0
    6.5962   -2.5978   -2.4297 C   0  0  0  0  0  0  0  0  0  0  0  0
    7.6983   -3.4180   -2.0078 C   0  0  0  0  0  0  0  0  0  0  0  0
    7.4481   -4.8288   -1.9998 C   0  0  0  0  0  0  0  0  0  0  0  0
    8.8610   -5.9550   -1.9340 S   0  0  0  0  0  0  0  0  0  0  0  0
    9.8524   -5.2367   -0.5742 C   0  0  0  0  0  0  0  0  0  0  0  0
    6.1697   -5.3450   -2.3606 C   0  0  0  0  0  0  0  0  0  0  0  0
    5.0630   -4.5215   -2.7429 C   0  0  0  0  0  0  0  0  0  0  0  0
    2.4876   -0.7539   -3.9022 C   0  0  0  0  0  0  0  0  0  0  0  0
    1.5491   -0.3057   -2.6444 S   0  0  0  0  0  0  0  0  0  0  0  0
    0.8343    1.0890   -3.2422 C   0  0  0  0  0  0  0  0  0  0  0  0
    1.0999    0.9814   -4.7157 C   0  0  0  0  0  0  0  0  0  0  0  0
    0.9323    2.1578   -5.6171 N   0  0  0  0  0  0  0  0  0  0  0  0
    1.4936    2.1623   -6.9831 C   0  0  0  0  0  0  0  0  0  0  0  0
    2.1624    3.3371   -7.4696 C   0  0  0  0  0  0  0  0  0  0  0  0
    2.5772    3.4605   -8.8257 C   0  0  0  0  0  0  0  0  0  0  0  0
    2.4423    2.3441   -9.6873 C   0  0  0  0  0  0  0  0  0  0  0  0
    3.0044    2.3707  -11.4559 S   0  0  0  0  0  0  0  0  0  0  0  0
    3.6860    4.0640  -11.5693 C   0  0  0  0  0  0  0  0  0  0  0  0
    1.8215    1.1710   -9.1712 C   0  0  0  0  0  0  0  0  0  0  0  0
    1.3348    1.0830   -7.8509 C   0  0  0  0  0  0  0  0  0  0  0  0
    0.5620    3.3990   -5.1300 C   0  0  0  0  0  0  0  0  0  0  0  0
   -0.5155    4.1372   -5.6980 C   0  0  0  0  0  0  0  0  0  0  0  0
   -0.7522    5.4646   -5.4053 C   0  0  0  0  0  0  0  0  0  0  0  0
    0.0409    6.1609   -4.4776 C   0  0  0  0  0  0  0  0  0  0  0  0
   -0.2706    7.8958   -4.1988 S   0  0  0  0  0  0  0  0  0  0  0  0
    0.5171    8.1006   -2.5566 C   0  0  0  0  0  0  0  0  0  0  0  0
    1.1332    5.4622   -3.8821 C   0  0  0  0  0  0  0  0  0  0  0  0
    1.3789    4.0949   -4.1885 C   0  0  0  0  0  0  0  0  0  0  0  0
    2.0115   -0.1261   -5.0535 C   0  0  0  0  0  0  0  0  0  0  0  0
    2.7523   -1.1641   -6.2809 S   0  0  0  0  0  0  0  0  0  0  0  0
    0.0909    1.8692   -2.1955 C   0  0  0  0  0  0  0  0  0  0  0  0
    0.2339    1.3310   -0.5251 S   0  0  0  0  0  0  0  0  0  0  0  0
   -0.7058    2.4793    0.1322 C   0  0  0  0  0  0  0  0  0  0  0  0
   -0.6914    3.0396    1.4640 C   0  0  0  0  0  0  0  0  0  0  0  0
   -1.2403    4.2815    1.6145 C   0  0  0  0  0  0  0  0  0  0  0  0
   -2.2117    4.7156    0.0275 Ge  0  0  0  0  0  4  0  0  0  0  0  0
   -2.0041    6.4169   -0.8813 C   0  0  0  0  0  0  0  0  0  0  0  0
   -3.3970    6.8364   -1.3607 C   0  0  0  0  0  0  0  0  0  0  0  0
   -4.0465    4.1197    0.2280 C   0  0  0  0  0  0  0  0  0  0  0  0
   -4.1806    2.8002    0.9815 C   0  0  0  0  0  0  0  0  0  0  0  0
   -1.2174    3.2704   -0.8628 C   0  0  0  0  0  0  0  0  0  0  0  0
   -0.7820    2.9794   -2.2145 C   0  0  0  0  0  0  0  0  0  0  0  0
   -1.0922    4.7983    2.9084 C   0  0  0  0  0  0  0  0  0  0  0  0
   -0.4639    3.8656    3.7905 C   0  0  0  0  0  0  0  0  0  0  0  0
   -0.0420    2.4485    2.9047 S   0  0  0  0  0  0  0  0  0  0  0  0
   -0.2062    4.1154    5.2465 C   0  0  0  0  0  0  0  0  0  0  0  0
   -0.7156    5.1300    6.0774 C   0  0  0  0  0  0  0  0  0  0  0  0
   -0.4946    4.9310    7.4592 C   0  0  0  0  0  0  0  0  0  0  0  0
   -1.3557    5.8932    8.7382 S   0  0  0  0  0  0  0  0  0  0  0  0
    0.0885    6.4080    9.7478 C   0  0  0  0  0  0  0  0  0  0  0  0
    1.2725    7.0006    8.9616 C   0  0  0  0  0  0  0  0  0  0  0  0
    0.1929    3.7276    7.7116 C   0  0  0  0  0  0  0  0  0  0  0  0
    0.6757    3.0743    6.2451 S   0  0  0  0  0  0  0  0  0  0  0  0
   -0.0175    2.9035    8.9267 C   0  0  0  0  0  0  0  0  0  0  0  0
   -1.0413    2.0210    9.1229 C   0  0  0  0  0  0  0  0  0  0  0  0
   -2.0338    1.6225    8.0594 C   0  0  0  0  0  0  0  0  0  0  0  0
   -2.0949    1.8914    6.8311 O   0  0  0  0  0  0  0  0  0  0  0  0
   -2.9916    0.7358    8.6337 C   0  0  0  0  0  0  0  0  0  0  0  0
   -3.9277    0.0549    7.8165 C   0  0  0  0  0  0  0  0  0  0  0  0
   -4.7620   -0.7378    8.5806 C   0  0  0  0  0  0  0  0  0  0  0  0
   -4.6934   -0.8284   10.0276 C   0  0  0  0  0  0  0  0  0  0  0  0
   -3.7374   -0.2009   10.8434 C   0  0  0  0  0  0  0  0  0  0  0  0
   -2.7989    0.5802   10.0483 C   0  0  0  0  0  0  0  0  0  0  0  0
   -1.5396    1.3261   10.4260 C   0  0  0  0  0  0  0  0  0  0  0  0
   -0.9409    1.3088   11.6618 C   0  0  0  0  0  0  0  0  0  0  0  0
   -1.5354    0.6529   12.8350 C   0  0  0  0  0  0  0  0  0  0  0  0
   -2.0209    0.1607   13.7521 N   0  0  0  0  0  0  0  0  0  0  0  0
    0.3779    1.9089   11.8963 C   0  0  0  0  0  0  0  0  0  0  0  0
    1.4088    2.3635   12.1058 N   0  0  0  0  0  0  0  0  0  0  0  0
   -6.0889   -1.3694   10.0189 C   0  0  0  0  0  0  0  0  0  0  0  0
   -7.3312   -0.4306   10.3126 C   0  0  0  0  0  0  0  0  0  0  0  0
   -8.5332   -1.2443    9.8711 C   0  0  0  0  0  0  0  0  0  0  0  0
   -8.5108   -1.2534    8.5225 C   0  0  0  0  0  0  0  0  0  0  0  0
   -7.2641   -0.4756    8.1255 C   0  0  0  0  0  0  0  0  0  0  0  0
   -7.3541    0.6276    9.2095 C   0  0  0  0  0  0  0  0  0  0  0  0
   -6.0788   -1.4028    8.5509 C   0  0  0  0  0  0  0  0  0  0  0  0
    4.4133   -4.0496   -6.1108 H   0  0  0  0  0  0  0  0  0  0  0  0
   -1.0823   -4.0388   -3.0406 H   0  0  0  0  0  0  0  0  0  0  0  0
    0.8200   -8.6400   -4.7228 H   0  0  0  0  0  0  0  0  0  0  0  0
   -1.6483   -8.9822   -2.3140 H   0  0  0  0  0  0  0  0  0  0  0  0
   -2.6547   -9.4777   -4.8861 H   0  0  0  0  0  0  0  0  0  0  0  0
   -4.6507  -10.0240   -3.1578 H   0  0  0  0  0  0  0  0  0  0  0  0
   -5.6525   -7.7015   -2.3736 H   0  0  0  0  0  0  0  0  0  0  0  0
   -4.1786   -5.7411   -3.4329 H   0  0  0  0  0  0  0  0  0  0  0  0
   -4.3400   -7.4642   -5.4870 H   0  0  0  0  0  0  0  0  0  0  0  0
   -2.6652   -6.8027   -5.3969 H   0  0  0  0  0  0  0  0  0  0  0  0
   -2.4889   -6.8825   -1.5162 H   0  0  0  0  0  0  0  0  0  0  0  0
    3.8756   -2.5742   -0.1090 H   0  0  0  0  0  0  0  0  0  0  0  0
    3.8566   -0.9115    1.6844 H   0  0  0  0  0  0  0  0  0  0  0  0
    4.2017    4.2814    1.9291 H   0  0  0  0  0  0  0  0  0  0  0  0
    3.5797    3.8404    0.3383 H   0  0  0  0  0  0  0  0  0  0  0  0
    5.3791    3.6805    0.6924 H   0  0  0  0  0  0  0  0  0  0  0  0
    4.4589    2.2751   -1.2341 H   0  0  0  0  0  0  0  0  0  0  0  0
    4.7202    0.5323   -2.9667 H   0  0  0  0  0  0  0  0  0  0  0  0
    6.7969   -1.5391   -2.3548 H   0  0  0  0  0  0  0  0  0  0  0  0
    8.6579   -2.8420   -1.7530 H   0  0  0  0  0  0  0  0  0  0  0  0
    9.7589   -4.1209   -0.3788 H   0  0  0  0  0  0  0  0  0  0  0  0
    9.7555   -5.8387    0.3751 H   0  0  0  0  0  0  0  0  0  0  0  0
   10.9219   -5.3278   -0.9209 H   0  0  0  0  0  0  0  0  0  0  0  0
    6.0297   -6.3796   -2.4472 H   0  0  0  0  0  0  0  0  0  0  0  0
    4.0345   -4.9800   -2.9449 H   0  0  0  0  0  0  0  0  0  0  0  0
    2.3046    4.2429   -6.9026 H   0  0  0  0  0  0  0  0  0  0  0  0
    2.9927    4.4737   -9.0918 H   0  0  0  0  0  0  0  0  0  0  0  0
    4.7378    4.0682  -11.2306 H   0  0  0  0  0  0  0  0  0  0  0  0
    3.6337    4.3130  -12.6443 H   0  0  0  0  0  0  0  0  0  0  0  0
    3.1168    4.8676  -11.0936 H   0  0  0  0  0  0  0  0  0  0  0  0
    1.7066    0.3353   -9.7948 H   0  0  0  0  0  0  0  0  0  0  0  0
    0.7559    0.2141   -7.5303 H   0  0  0  0  0  0  0  0  0  0  0  0
   -0.9728    3.6694   -6.5258 H   0  0  0  0  0  0  0  0  0  0  0  0
   -1.5161    5.9476   -5.9921 H   0  0  0  0  0  0  0  0  0  0  0  0
    0.0305    8.9379   -2.0430 H   0  0  0  0  0  0  0  0  0  0  0  0
    0.4754    7.2406   -1.8479 H   0  0  0  0  0  0  0  0  0  0  0  0
    1.5669    8.3891   -2.7150 H   0  0  0  0  0  0  0  0  0  0  0  0
    1.8162    5.9258   -3.1481 H   0  0  0  0  0  0  0  0  0  0  0  0
    2.2985    3.6138   -3.7641 H   0  0  0  0  0  0  0  0  0  0  0  0
   -1.3454    6.2199   -1.7657 H   0  0  0  0  0  0  0  0  0  0  0  0
   -1.5445    7.1356   -0.1727 H   0  0  0  0  0  0  0  0  0  0  0  0
   -4.1708    6.7578   -0.5638 H   0  0  0  0  0  0  0  0  0  0  0  0
   -3.6855    6.2294   -2.2818 H   0  0  0  0  0  0  0  0  0  0  0  0
   -3.3998    7.9323   -1.5517 H   0  0  0  0  0  0  0  0  0  0  0  0
   -4.5130    3.9712   -0.7623 H   0  0  0  0  0  0  0  0  0  0  0  0
   -4.5901    4.8841    0.8311 H   0  0  0  0  0  0  0  0  0  0  0  0
   -3.4345    2.7233    1.8161 H   0  0  0  0  0  0  0  0  0  0  0  0
   -4.0778    1.9037    0.3063 H   0  0  0  0  0  0  0  0  0  0  0  0
   -5.1830    2.7619    1.4859 H   0  0  0  0  0  0  0  0  0  0  0  0
   -1.0485    3.6026   -3.0208 H   0  0  0  0  0  0  0  0  0  0  0  0
   -1.4102    5.8233    3.1525 H   0  0  0  0  0  0  0  0  0  0  0  0
   -1.3422    5.9176    5.7361 H   0  0  0  0  0  0  0  0  0  0  0  0
   -0.2326    7.1827   10.4631 H   0  0  0  0  0  0  0  0  0  0  0  0
    0.4354    5.5328   10.3329 H   0  0  0  0  0  0  0  0  0  0  0  0
    1.3979    8.0924    9.2332 H   0  0  0  0  0  0  0  0  0  0  0  0
    2.2494    6.4975    9.2383 H   0  0  0  0  0  0  0  0  0  0  0  0
    1.1423    6.9369    7.8582 H   0  0  0  0  0  0  0  0  0  0  0  0
    0.5364    3.2258    9.7382 H   0  0  0  0  0  0  0  0  0  0  0  0
   -4.1624    0.3867    6.7803 H   0  0  0  0  0  0  0  0  0  0  0  0
   -3.7112   -0.3120   11.9542 H   0  0  0  0  0  0  0  0  0  0  0  0
   -6.1288   -2.3668   10.4867 H   0  0  0  0  0  0  0  0  0  0  0  0
   -7.4267   -0.0295   11.3420 H   0  0  0  0  0  0  0  0  0  0  0  0
   -9.3655   -1.6746   10.4844 H   0  0  0  0  0  0  0  0  0  0  0  0
   -9.3267   -1.6598    7.8893 H   0  0  0  0  0  0  0  0  0  0  0  0
   -7.2972   -0.1403    7.0636 H   0  0  0  0  0  0  0  0  0  0  0  0
   -6.6436    1.5122    9.2881 H   0  0  0  0  0  0  0  0  0  0  0  0
   -8.3111    1.2810    9.1325 H   0  0  0  0  0  0  0  0  0  0  0  0
   -6.0411   -2.4264    8.0692 H   0  0  0  0  0  0  0  0  0  0  0  0
  1  2  2  3
  2  3  1  0
  3  4  2  0
  3  5  1  0
  5  6  2  0
  6  7  1  0
  7  8  2  0
  8  9  1  0
  9 10  2  0
 10 11  1  0
 11 12  2  3
 12 13  1  0
 13 14  3  0
 12 15  1  0
 15 16  3  0
  8 17  1  0
 17 18  1  0
 18 19  1  0
 19 20  2  0
 20 21  1  0
 21 22  1  0
 21 23  1  0
  1 24  1  0
 24 25  2  0
 25 26  1  0
 26 27  1  0
 27 28  2  0
 28 29  1  0
 29 30  2  0
 30 31  1  0
 31 32  1  0
 30 33  1  0
 33 34  2  0
 26 35  1  0
 35 36  2  0
 36 37  1  0
 37 38  2  0
 38 39  1  0
 39 40  1  0
 38 41  1  0
 41 42  2  0
 25 43  1  0
 43 44  1  0
 44 45  1  0
 45 46  2  0
 46 47  1  0
 47 48  1  0
 48 49  2  0
 49 50  1  0
 50 51  2  0
 51 52  1  0
 52 53  1  0
 51 54  1  0
 54 55  2  0
 47 56  1  0
 56 57  2  0
 57 58  1  0
 58 59  2  0
 59 60  1  0
 60 61  1  0
 59 62  1  0
 62 63  2  0
 46 64  1  0
 64 65  1  0
 45 66  1  0
 66 67  1  0
 67 68  1  0
 68 69  1  0
 69 70  2  0
 70 71  1  0
 71 72  1  0
 72 73  1  0
 71 74  1  0
 74 75  1  0
 71 76  1  0
 76 77  1  0
 70 78  1  0
 78 79  2  0
 79 80  1  0
 79 81  1  0
 81 82  2  0
 82 83  1  0
 83 84  1  0
 84 85  1  0
 85 86  1  0
 83 87  2  0
 87 88  1  0
 87 89  1  0
 89 90  2  3
 90 91  1  0
 91 92  2  0
 91 93  1  0
 93 94  2  0
 94 95  1  0
 95 96  2  0
 96 97  1  0
 97 98  2  0
 98 99  1  0
 99100  2  3
100101  1  0
101102  3  0
100103  1  0
103104  3  0
 96105  1  0
105106  1  0
106107  1  0
107108  2  0
108109  1  0
109110  1  0
109111  1  0
 11  2  1  0
 23 17  1  0
 65 24  1  0
 77 66  2  0
 88 81  1  0
 99 90  1  0
111105  1  0
 10  5  1  0
 22 18  1  0
 34 27  1  0
 42 35  1  0
 64 43  2  0
 76 68  2  0
 98 93  1  0
110106  1  0
 23  7  1  0
 55 48  1  0
 63 56  1  0
 80 69  1  0
111 95  1  0
  1112  1  0
  6113  1  0
  9114  1  0
 17115  1  0
 18116  1  0
 19117  1  0
 20118  1  0
 21119  1  0
 22120  1  0
 22121  1  0
 23122  1  0
 28123  1  0
 29124  1  0
 32125  1  0
 32126  1  0
 32127  1  0
 33128  1  0
 34129  1  0
 36130  1  0
 37131  1  0
 40132  1  0
 40133  1  0
 40134  1  0
 41135  1  0
 42136  1  0
 49137  1  0
 50138  1  0
 53139  1  0
 53140  1  0
 53141  1  0
 54142  1  0
 55143  1  0
 57144  1  0
 58145  1  0
 61146  1  0
 61147  1  0
 61148  1  0
 62149  1  0
 63150  1  0
 72151  1  0
 72152  1  0
 73153  1  0
 73154  1  0
 73155  1  0
 74156  1  0
 74157  1  0
 75158  1  0
 75159  1  0
 75160  1  0
 77161  1  0
 78162  1  0
 82163  1  0
 85164  1  0
 85165  1  0
 86166  1  0
 86167  1  0
 86168  1  0
 89169  1  0
 94170  1  0
 97171  1  0
105172  1  0
106173  1  0
107174  1  0
108175  1  0
109176  1  0
110177  1  0
110178  1  0
111179  1  0
M  END

