
     RDKit          3D

179199  0  0  0  0  0  0  0  0999 V2000
   -1.1770   -3.2583    5.6203 C   0  0  0  0  0  0  0  0  0  0  0  0
   -2.4454   -2.8216    5.4973 C   0  0  0  0  0  0  0  0  0  0  0  0
   -3.5177   -3.2559    6.3882 C   0  0  0  0  0  0  0  0  0  0  0  0
   -3.3758   -3.6983    7.5597 O   0  0  0  0  0  0  0  0  0  0  0  0
   -4.7677   -3.2164    5.6476 C   0  0  0  0  0  0  0  0  0  0  0  0
   -6.0344   -3.6861    6.0730 C   0  0  0  0  0  0  0  0  0  0  0  0
   -7.0149   -3.5994    5.0988 C   0  0  0  0  0  0  0  0  0  0  0  0
   -6.7708   -3.0929    3.7795 C   0  0  0  0  0  0  0  0  0  0  0  0
   -5.5336   -2.6420    3.3558 C   0  0  0  0  0  0  0  0  0  0  0  0
   -4.5166   -2.7042    4.3471 C   0  0  0  0  0  0  0  0  0  0  0  0
   -3.0972   -2.2868    4.2628 C   0  0  0  0  0  0  0  0  0  0  0  0
   -2.6200   -1.2787    3.4896 C   0  0  0  0  0  0  0  0  0  0  0  0
   -3.3143   -0.7926    2.3271 C   0  0  0  0  0  0  0  0  0  0  0  0
   -3.8563   -0.3906    1.3862 N   0  0  0  0  0  0  0  0  0  0  0  0
   -1.4961   -0.4796    3.9041 C   0  0  0  0  0  0  0  0  0  0  0  0
   -0.6097    0.1889    4.2303 N   0  0  0  0  0  0  0  0  0  0  0  0
   -8.1924   -3.3657    3.3923 C   0  0  0  0  0  0  0  0  0  0  0  0
   -8.4726   -4.5907    2.4692 C   0  0  0  0  0  0  0  0  0  0  0  0
   -7.4409   -5.6665    2.7121 C   0  0  0  0  0  0  0  0  0  0  0  0
   -7.6675   -6.1430    3.9373 C   0  0  0  0  0  0  0  0  0  0  0  0
   -8.8454   -5.3736    4.4867 C   0  0  0  0  0  0  0  0  0  0  0  0
   -9.6435   -5.2121    3.2067 C   0  0  0  0  0  0  0  0  0  0  0  0
   -8.4429   -3.8881    4.7417 C   0  0  0  0  0  0  0  0  0  0  0  0
   -0.2831   -3.3685    4.4535 C   0  0  0  0  0  0  0  0  0  0  0  0
    0.8025   -2.4981    4.3136 C   0  0  0  0  0  0  0  0  0  0  0  0
    1.3631   -2.2587    3.0492 C   0  0  0  0  0  0  0  0  0  0  0  0
    2.2017   -1.2038    2.9353 F   0  0  0  0  0  0  0  0  0  0  0  0
    0.9109   -2.9698    1.9103 C   0  0  0  0  0  0  0  0  0  0  0  0
    0.0128   -4.0337    2.1179 C   0  0  0  0  0  0  0  0  0  0  0  0
   -0.6079   -4.2136    3.3854 C   0  0  0  0  0  0  0  0  0  0  0  0
   -1.5557   -5.1859    3.4725 N   0  0  0  0  0  0  0  0  0  0  0  0
   -1.5240   -5.7736    1.9307 S   0  0  0  0  0  0  0  0  0  0  0  0
   -0.3967   -4.8685    1.1276 N   0  0  0  0  0  0  0  0  0  0  0  0
    1.0472   -2.3991    0.5445 C   0  0  0  0  0  0  0  0  0  0  0  0
    2.0528   -1.5440    0.0443 C   0  0  0  0  0  0  0  0  0  0  0  0
    3.3970   -1.4488    0.5588 N   0  0  0  0  0  0  0  0  0  0  0  0
    4.1059   -2.6596    0.9020 C   0  0  0  0  0  0  0  0  0  0  0  0
    3.9378   -3.8294    0.1368 C   0  0  0  0  0  0  0  0  0  0  0  0
    4.5981   -5.0095    0.4890 C   0  0  0  0  0  0  0  0  0  0  0  0
    5.4366   -5.0353    1.6074 C   0  0  0  0  0  0  0  0  0  0  0  0
    6.2729   -6.5582    2.0579 S   0  0  0  0  0  0  0  0  0  0  0  0
    4.9350   -7.1191    3.1601 C   0  0  0  0  0  0  0  0  0  0  0  0
    5.6249   -3.8723    2.3676 C   0  0  0  0  0  0  0  0  0  0  0  0
    4.9602   -2.6910    2.0184 C   0  0  0  0  0  0  0  0  0  0  0  0
    4.0575   -0.1620    0.5882 C   0  0  0  0  0  0  0  0  0  0  0  0
    3.3391    0.9972    0.9437 C   0  0  0  0  0  0  0  0  0  0  0  0
    3.9470    2.2578    0.8819 C   0  0  0  0  0  0  0  0  0  0  0  0
    5.2776    2.3759    0.4699 C   0  0  0  0  0  0  0  0  0  0  0  0
    6.0285    3.9980    0.3409 S   0  0  0  0  0  0  0  0  0  0  0  0
    6.6404    3.9881    2.0538 C   0  0  0  0  0  0  0  0  0  0  0  0
    6.0069    1.2284    0.1321 C   0  0  0  0  0  0  0  0  0  0  0  0
    5.4004   -0.0320    0.1888 C   0  0  0  0  0  0  0  0  0  0  0  0
    1.6297   -0.9087   -1.1249 C   0  0  0  0  0  0  0  0  0  0  0  0
    2.3080    0.1510   -2.1995 S   0  0  0  0  0  0  0  0  0  0  0  0
    0.9548    0.2710   -3.2497 C   0  0  0  0  0  0  0  0  0  0  0  0
   -0.0107   -0.6696   -2.7805 C   0  0  0  0  0  0  0  0  0  0  0  0
   -0.7517   -1.5360   -3.6649 N   0  0  0  0  0  0  0  0  0  0  0  0
   -2.1756   -1.7676   -3.4690 C   0  0  0  0  0  0  0  0  0  0  0  0
   -2.8886   -2.5923   -4.3660 C   0  0  0  0  0  0  0  0  0  0  0  0
   -4.2210   -2.9328   -4.1178 C   0  0  0  0  0  0  0  0  0  0  0  0
   -4.8724   -2.4455   -2.9808 C   0  0  0  0  0  0  0  0  0  0  0  0
   -6.5490   -2.9691   -2.6096 S   0  0  0  0  0  0  0  0  0  0  0  0
   -7.3064   -1.5453   -3.4420 C   0  0  0  0  0  0  0  0  0  0  0  0
   -4.2023   -1.5682   -2.1219 C   0  0  0  0  0  0  0  0  0  0  0  0
   -2.8730   -1.2137   -2.3709 C   0  0  0  0  0  0  0  0  0  0  0  0
    0.0480   -2.5880   -4.2507 C   0  0  0  0  0  0  0  0  0  0  0  0
   -0.0415   -3.9010   -3.7459 C   0  0  0  0  0  0  0  0  0  0  0  0
    0.8677   -4.8773   -4.1526 C   0  0  0  0  0  0  0  0  0  0  0  0
    1.8910   -4.5536   -5.0519 C   0  0  0  0  0  0  0  0  0  0  0  0
    3.1263   -5.7810   -5.4839 S   0  0  0  0  0  0  0  0  0  0  0  0
    4.1407   -5.4530   -4.0066 C   0  0  0  0  0  0  0  0  0  0  0  0
    1.9641   -3.2615   -5.5854 C   0  0  0  0  0  0  0  0  0  0  0  0
    1.0460   -2.2830   -5.1930 C   0  0  0  0  0  0  0  0  0  0  0  0
    0.3928   -1.2161   -1.5588 C   0  0  0  0  0  0  0  0  0  0  0  0
   -0.2774   -2.3411   -0.5286 S   0  0  0  0  0  0  0  0  0  0  0  0
    0.6612    1.5987   -3.9136 C   0  0  0  0  0  0  0  0  0  0  0  0
   -0.6588    2.0777   -4.1678 C   0  0  0  0  0  0  0  0  0  0  0  0
   -1.7734    1.3185   -4.5504 C   0  0  0  0  0  0  0  0  0  0  0  0
   -2.9565    2.0555   -4.6265 C   0  0  0  0  0  0  0  0  0  0  0  0
   -4.2804    1.5275   -4.9589 C   0  0  0  0  0  0  0  0  0  0  0  0
   -4.4420    0.2813   -5.1067 O   0  0  0  0  0  0  0  0  0  0  0  0
   -5.3655    2.4045   -5.0696 O   0  0  0  0  0  0  0  0  0  0  0  0
   -6.7029    1.9734   -5.3184 C   0  0  0  0  0  0  0  0  0  0  0  0
   -6.8830    1.5636   -6.7736 C   0  0  0  0  0  0  0  0  0  0  0  0
   -2.6240    3.6722   -4.2905 S   0  0  0  0  0  0  0  0  0  0  0  0
   -0.9710    3.4524   -4.0503 C   0  0  0  0  0  0  0  0  0  0  0  0
    0.0035    4.4331   -3.7735 C   0  0  0  0  0  0  0  0  0  0  0  0
    1.3195    3.9606   -3.7698 C   0  0  0  0  0  0  0  0  0  0  0  0
    1.6354    2.6242   -3.8687 C   0  0  0  0  0  0  0  0  0  0  0  0
    2.9731    2.5115   -3.7791 N   0  0  0  0  0  0  0  0  0  0  0  0
    3.4241    3.7544   -3.6264 N   0  0  0  0  0  0  0  0  0  0  0  0
    4.8408    4.0886   -3.5339 C   0  0  0  0  0  0  0  0  0  0  0  0
    5.4477    4.1891   -4.9280 C   0  0  0  0  0  0  0  0  0  0  0  0
    2.4546    4.6612   -3.6137 N   0  0  0  0  0  0  0  0  0  0  0  0
   -0.3552    5.8331   -3.4253 C   0  0  0  0  0  0  0  0  0  0  0  0
    0.0712    6.3343   -2.2563 C   0  0  0  0  0  0  0  0  0  0  0  0
   -0.6522    6.1848   -0.9983 C   0  0  0  0  0  0  0  0  0  0  0  0
   -1.7686    5.6244   -0.8540 O   0  0  0  0  0  0  0  0  0  0  0  0
    0.1266    6.8024    0.0530 C   0  0  0  0  0  0  0  0  0  0  0  0
   -0.1769    6.8263    1.4318 C   0  0  0  0  0  0  0  0  0  0  0  0
    0.7695    7.4697    2.2050 C   0  0  0  0  0  0  0  0  0  0  0  0
    1.9523    8.0622    1.6582 C   0  0  0  0  0  0  0  0  0  0  0  0
    2.2626    8.0369    0.3084 C   0  0  0  0  0  0  0  0  0  0  0  0
    1.2978    7.3827   -0.5097 C   0  0  0  0  0  0  0  0  0  0  0  0
    1.2849    7.1635   -1.9892 C   0  0  0  0  0  0  0  0  0  0  0  0
    2.0637    7.7640   -2.9229 C   0  0  0  0  0  0  0  0  0  0  0  0
    3.1115    8.6883   -2.5870 C   0  0  0  0  0  0  0  0  0  0  0  0
    3.9461    9.4532   -2.3328 N   0  0  0  0  0  0  0  0  0  0  0  0
    1.8199    7.5953   -4.3332 C   0  0  0  0  0  0  0  0  0  0  0  0
    1.6162    7.4552   -5.4627 N   0  0  0  0  0  0  0  0  0  0  0  0
    2.3847    8.4996    3.0271 C   0  0  0  0  0  0  0  0  0  0  0  0
    3.5503    7.7152    3.7061 C   0  0  0  0  0  0  0  0  0  0  0  0
    3.5505    6.2789    3.2340 C   0  0  0  0  0  0  0  0  0  0  0  0
    2.4551    5.7114    3.7379 C   0  0  0  0  0  0  0  0  0  0  0  0
    1.7442    6.7777    4.5381 C   0  0  0  0  0  0  0  0  0  0  0  0
    2.9594    7.5066    5.0886 C   0  0  0  0  0  0  0  0  0  0  0  0
    1.1806    7.8799    3.5878 C   0  0  0  0  0  0  0  0  0  0  0  0
   -0.8474   -3.7020    6.5528 H   0  0  0  0  0  0  0  0  0  0  0  0
   -6.2170   -4.1038    7.0526 H   0  0  0  0  0  0  0  0  0  0  0  0
   -5.3800   -2.3209    2.3363 H   0  0  0  0  0  0  0  0  0  0  0  0
   -8.7817   -2.4516    3.1493 H   0  0  0  0  0  0  0  0  0  0  0  0
   -8.6559   -4.3481    1.4005 H   0  0  0  0  0  0  0  0  0  0  0  0
   -6.6941   -6.0341    2.0161 H   0  0  0  0  0  0  0  0  0  0  0  0
   -7.1352   -6.9605    4.4122 H   0  0  0  0  0  0  0  0  0  0  0  0
   -9.3812   -5.8697    5.3236 H   0  0  0  0  0  0  0  0  0  0  0  0
  -10.5203   -4.5284    3.3086 H   0  0  0  0  0  0  0  0  0  0  0  0
   -9.9794   -6.1829    2.7692 H   0  0  0  0  0  0  0  0  0  0  0  0
   -9.1833   -3.2951    5.3201 H   0  0  0  0  0  0  0  0  0  0  0  0
    1.0941   -1.8636    5.1430 H   0  0  0  0  0  0  0  0  0  0  0  0
    3.2943   -3.8278   -0.7335 H   0  0  0  0  0  0  0  0  0  0  0  0
    4.4472   -5.9010   -0.1007 H   0  0  0  0  0  0  0  0  0  0  0  0
    4.9537   -6.5316    4.1023 H   0  0  0  0  0  0  0  0  0  0  0  0
    3.9448   -7.0032    2.6690 H   0  0  0  0  0  0  0  0  0  0  0  0
    5.0893   -8.1908    3.3987 H   0  0  0  0  0  0  0  0  0  0  0  0
    6.2758   -3.8890    3.2327 H   0  0  0  0  0  0  0  0  0  0  0  0
    5.1008   -1.8070    2.6302 H   0  0  0  0  0  0  0  0  0  0  0  0
    2.3008    0.9314    1.2504 H   0  0  0  0  0  0  0  0  0  0  0  0
    3.3769    3.1410    1.1440 H   0  0  0  0  0  0  0  0  0  0  0  0
    7.0869    4.9751    2.2811 H   0  0  0  0  0  0  0  0  0  0  0  0
    7.4119    3.1989    2.1754 H   0  0  0  0  0  0  0  0  0  0  0  0
    5.8037    3.8060    2.7619 H   0  0  0  0  0  0  0  0  0  0  0  0
    7.0369    1.3151   -0.1871 H   0  0  0  0  0  0  0  0  0  0  0  0
    5.9703   -0.9030   -0.1084 H   0  0  0  0  0  0  0  0  0  0  0  0
   -2.4019   -2.9989   -5.2414 H   0  0  0  0  0  0  0  0  0  0  0  0
   -4.7375   -3.5985   -4.7975 H   0  0  0  0  0  0  0  0  0  0  0  0
   -7.0128   -0.6080   -2.9212 H   0  0  0  0  0  0  0  0  0  0  0  0
   -8.4110   -1.6480   -3.4017 H   0  0  0  0  0  0  0  0  0  0  0  0
   -6.9881   -1.5074   -4.5052 H   0  0  0  0  0  0  0  0  0  0  0  0
   -4.7095   -1.1738   -1.2470 H   0  0  0  0  0  0  0  0  0  0  0  0
   -2.3867   -0.5371   -1.6843 H   0  0  0  0  0  0  0  0  0  0  0  0
   -0.7824   -4.1597   -3.0019 H   0  0  0  0  0  0  0  0  0  0  0  0
    0.8039   -5.8729   -3.7350 H   0  0  0  0  0  0  0  0  0  0  0  0
    3.5765   -5.7288   -3.0893 H   0  0  0  0  0  0  0  0  0  0  0  0
    5.0631   -6.0684   -4.0518 H   0  0  0  0  0  0  0  0  0  0  0  0
    4.4278   -4.3813   -3.9591 H   0  0  0  0  0  0  0  0  0  0  0  0
    2.7512   -3.0084   -6.2851 H   0  0  0  0  0  0  0  0  0  0  0  0
    1.1297   -1.2808   -5.5891 H   0  0  0  0  0  0  0  0  0  0  0  0
   -1.7190    0.3009   -4.8768 H   0  0  0  0  0  0  0  0  0  0  0  0
   -6.9658    1.1286   -4.6474 H   0  0  0  0  0  0  0  0  0  0  0  0
   -7.3899    2.8132   -5.0966 H   0  0  0  0  0  0  0  0  0  0  0  0
   -6.6875    2.4305   -7.4411 H   0  0  0  0  0  0  0  0  0  0  0  0
   -6.1894    0.7352   -7.0381 H   0  0  0  0  0  0  0  0  0  0  0  0
   -7.9266    1.2143   -6.9386 H   0  0  0  0  0  0  0  0  0  0  0  0
    4.9584    5.0627   -3.0090 H   0  0  0  0  0  0  0  0  0  0  0  0
    5.3775    3.3039   -2.9512 H   0  0  0  0  0  0  0  0  0  0  0  0
    5.5320    3.1800   -5.3790 H   0  0  0  0  0  0  0  0  0  0  0  0
    4.8086    4.8283   -5.5757 H   0  0  0  0  0  0  0  0  0  0  0  0
    6.4575    4.6414   -4.8654 H   0  0  0  0  0  0  0  0  0  0  0  0
   -1.3984    6.0392   -3.6282 H   0  0  0  0  0  0  0  0  0  0  0  0
   -1.0639    6.3725    1.8536 H   0  0  0  0  0  0  0  0  0  0  0  0
    3.1888    8.4627   -0.0478 H   0  0  0  0  0  0  0  0  0  0  0  0
    2.4233    9.6046    3.1660 H   0  0  0  0  0  0  0  0  0  0  0  0
    4.5405    8.2158    3.6826 H   0  0  0  0  0  0  0  0  0  0  0  0
    4.3152    5.7810    2.6535 H   0  0  0  0  0  0  0  0  0  0  0  0
    2.1871    4.6622    3.6500 H   0  0  0  0  0  0  0  0  0  0  0  0
    1.0329    6.3944    5.3016 H   0  0  0  0  0  0  0  0  0  0  0  0
    2.7028    8.4553    5.6193 H   0  0  0  0  0  0  0  0  0  0  0  0
    3.5979    6.8721    5.7491 H   0  0  0  0  0  0  0  0  0  0  0  0
    0.4888    8.6075    4.0729 H   0  0  0  0  0  0  0  0  0  0  0  0
  1  2  2  3
  2  3  1  0
  3  4  2  0
  3  5  1  0
  5  6  2  0
  6  7  1  0
  7  8  2  0
  8  9  1  0
  9 10  2  0
 10 11  1  0
 11 12  2  3
 12 13  1  0
 13 14  3  0
 12 15  1  0
 15 16  3  0
  8 17  1  0
 17 18  1  0
 18 19  1  0
 19 20  2  0
 20 21  1  0
 21 22  1  0
 21 23  1  0
  1 24  1  0
 24 25  2  0
 25 26  1  0
 26 27  1  0
 26 28  2  0
 28 29  1  0
 29 30  1  0
 30 31  2  0
 31 32  1  0
 32 33  1  0
 28 34  1  0
 34 35  2  0
 35 36  1  0
 36 37  1  0
 37 38  2  0
 38 39  1  0
 39 40  2  0
 40 41  1  0
 41 42  1  0
 40 43  1  0
 43 44  2  0
 36 45  1  0
 45 46  2  0
 46 47  1  0
 47 48  2  0
 48 49  1  0
 49 50  1  0
 48 51  1  0
 51 52  2  0
 35 53  1  0
 53 54  1  0
 54 55  1  0
 55 56  2  0
 56 57  1  0
 57 58  1  0
 58 59  2  0
 59 60  1  0
 60 61  2  0
 61 62  1  0
 62 63  1  0
 61 64  1  0
 64 65  2  0
 57 66  1  0
 66 67  2  0
 67 68  1  0
 68 69  2  0
 69 70  1  0
 70 71  1  0
 69 72  1  0
 72 73  2  0
 56 74  1  0
 74 75  1  0
 55 76  1  0
 76 77  2  0
 77 78  1  0
 78 79  2  0
 79 80  1  0
 80 81  2  0
 80 82  1  0
 82 83  1  0
 83 84  1  0
 79 85  1  0
 85 86  1  0
 86 87  2  0
 87 88  1  0
 88 89  1  0
 89 90  2  0
 90 91  1  0
 91 92  1  0
 92 93  1  0
 91 94  1  0
 87 95  1  0
 95 96  2  3
 96 97  1  0
 97 98  2  0
 97 99  1  0
 99100  2  0
100101  1  0
101102  2  0
102103  1  0
103104  2  0
104105  1  0
105106  2  3
106107  1  0
107108  3  0
106109  1  0
109110  3  0
102111  1  0
111112  1  0
112113  1  0
113114  2  0
114115  1  0
115116  1  0
115117  1  0
 11  2  1  0
 23 17  1  0
 30 24  1  0
 75 34  1  0
 89 76  1  0
105 96  1  0
117111  1  0
 10  5  1  0
 22 18  1  0
 33 29  2  0
 44 37  1  0
 52 45  1  0
 74 53  2  0
 86 77  1  0
 94 88  2  0
104 99  1  0
116112  1  0
 23  7  1  0
 65 58  1  0
 73 66  1  0
117101  1  0
  1118  1  0
  6119  1  0
  9120  1  0
 17121  1  0
 18122  1  0
 19123  1  0
 20124  1  0
 21125  1  0
 22126  1  0
 22127  1  0
 23128  1  0
 25129  1  0
 38130  1  0
 39131  1  0
 42132  1  0
 42133  1  0
 42134  1  0
 43135  1  0
 44136  1  0
 46137  1  0
 47138  1  0
 50139  1  0
 50140  1  0
 50141  1  0
 51142  1  0
 52143  1  0
 59144  1  0
 60145  1  0
 63146  1  0
 63147  1  0
 63148  1  0
 64149  1  0
 65150  1  0
 67151  1  0
 68152  1  0
 71153  1  0
 71154  1  0
 71155  1  0
 72156  1  0
 73157  1  0
 78158  1  0
 83159  1  0
 83160  1  0
 84161  1  0
 84162  1  0
 84163  1  0
 92164  1  0
 92165  1  0
 93166  1  0
 93167  1  0
 93168  1  0
 95169  1  0
100170  1  0
103171  1  0
111172  1  0
112173  1  0
113174  1  0
114175  1  0
115176  1  0
116177  1  0
116178  1  0
117179  1  0
M  END

