
     RDKit          3D

213233  0  0  0  0  0  0  0  0999 V2000
   -4.8212   -1.4544    3.7637 C   0  0  0  0  0  0  0  0  0  0  0  0
   -5.4532   -2.6333    3.5631 C   0  0  0  0  0  0  0  0  0  0  0  0
   -6.0370   -3.3491    4.7009 C   0  0  0  0  0  0  0  0  0  0  0  0
   -5.8914   -3.0413    5.9157 O   0  0  0  0  0  0  0  0  0  0  0  0
   -6.7967   -4.4694    4.2207 C   0  0  0  0  0  0  0  0  0  0  0  0
   -7.3296   -5.5116    5.0123 C   0  0  0  0  0  0  0  0  0  0  0  0
   -7.7919   -6.5835    4.2818 C   0  0  0  0  0  0  0  0  0  0  0  0
   -7.7616   -6.6292    2.8525 C   0  0  0  0  0  0  0  0  0  0  0  0
   -7.2539   -5.6076    2.0699 C   0  0  0  0  0  0  0  0  0  0  0  0
   -6.7417   -4.4914    2.8005 C   0  0  0  0  0  0  0  0  0  0  0  0
   -5.8354   -3.3943    2.3298 C   0  0  0  0  0  0  0  0  0  0  0  0
   -5.1330   -3.4813    1.1776 C   0  0  0  0  0  0  0  0  0  0  0  0
   -5.7226   -3.9654   -0.0440 C   0  0  0  0  0  0  0  0  0  0  0  0
   -6.2067   -4.3559   -1.0257 N   0  0  0  0  0  0  0  0  0  0  0  0
   -3.7121   -3.2907    1.1440 C   0  0  0  0  0  0  0  0  0  0  0  0
   -2.5645   -3.1424    1.0878 N   0  0  0  0  0  0  0  0  0  0  0  0
   -8.2700   -8.0417    2.8682 C   0  0  0  0  0  0  0  0  0  0  0  0
   -7.2462   -9.1711    2.5476 C   0  0  0  0  0  0  0  0  0  0  0  0
   -5.8572   -8.7466    2.9718 C   0  0  0  0  0  0  0  0  0  0  0  0
   -5.8690   -8.6930    4.3061 C   0  0  0  0  0  0  0  0  0  0  0  0
   -7.2608   -9.0960    4.7462 C   0  0  0  0  0  0  0  0  0  0  0  0
   -7.5532  -10.1349    3.6811 C   0  0  0  0  0  0  0  0  0  0  0  0
   -8.2891   -7.9963    4.3337 C   0  0  0  0  0  0  0  0  0  0  0  0
   -4.2282   -0.4742    2.8217 C   0  0  0  0  0  0  0  0  0  0  0  0
   -3.3251    0.5142    3.2693 C   0  0  0  0  0  0  0  0  0  0  0  0
   -3.4532    1.1520    4.5585 N   0  0  0  0  0  0  0  0  0  0  0  0
   -2.2979    1.6544    5.2579 C   0  0  0  0  0  0  0  0  0  0  0  0
   -2.3392    2.9155    5.8792 C   0  0  0  0  0  0  0  0  0  0  0  0
   -1.2081    3.4392    6.4964 C   0  0  0  0  0  0  0  0  0  0  0  0
   -0.0085    2.7250    6.4875 C   0  0  0  0  0  0  0  0  0  0  0  0
    1.4575    3.4409    7.2316 S   0  0  0  0  0  0  0  0  0  0  0  0
    1.6501    4.7176    5.9470 C   0  0  0  0  0  0  0  0  0  0  0  0
    0.0432    1.4615    5.8907 C   0  0  0  0  0  0  0  0  0  0  0  0
   -1.0977    0.9171    5.2925 C   0  0  0  0  0  0  0  0  0  0  0  0
   -4.7804    1.5738    4.9476 C   0  0  0  0  0  0  0  0  0  0  0  0
   -5.2891    1.2250    6.2078 C   0  0  0  0  0  0  0  0  0  0  0  0
   -6.6307    1.4804    6.5128 C   0  0  0  0  0  0  0  0  0  0  0  0
   -7.4706    2.0741    5.5644 C   0  0  0  0  0  0  0  0  0  0  0  0
   -9.2214    2.2496    5.9019 S   0  0  0  0  0  0  0  0  0  0  0  0
   -9.6378    0.6405    5.1543 C   0  0  0  0  0  0  0  0  0  0  0  0
   -6.9501    2.4924    4.3371 C   0  0  0  0  0  0  0  0  0  0  0  0
   -5.6091    2.2425    4.0276 C   0  0  0  0  0  0  0  0  0  0  0  0
   -2.7151    1.1453    2.1947 C   0  0  0  0  0  0  0  0  0  0  0  0
   -1.3819    2.1540    2.0337 S   0  0  0  0  0  0  0  0  0  0  0  0
   -1.4293    2.1590    0.3307 C   0  0  0  0  0  0  0  0  0  0  0  0
   -2.5216    1.3836   -0.0988 C   0  0  0  0  0  0  0  0  0  0  0  0
   -2.9358    1.2475   -1.4672 N   0  0  0  0  0  0  0  0  0  0  0  0
   -3.0025   -0.0610   -2.0552 C   0  0  0  0  0  0  0  0  0  0  0  0
   -4.1475   -0.4678   -2.7592 C   0  0  0  0  0  0  0  0  0  0  0  0
   -4.1795   -1.7104   -3.3957 C   0  0  0  0  0  0  0  0  0  0  0  0
   -3.0667   -2.5532   -3.3459 C   0  0  0  0  0  0  0  0  0  0  0  0
   -3.0603   -4.0904   -4.2731 S   0  0  0  0  0  0  0  0  0  0  0  0
   -2.4131   -3.3035   -5.7827 C   0  0  0  0  0  0  0  0  0  0  0  0
   -1.9360   -2.1714   -2.6114 C   0  0  0  0  0  0  0  0  0  0  0  0
   -1.9066   -0.9344   -1.9621 C   0  0  0  0  0  0  0  0  0  0  0  0
   -3.3991    2.4148   -2.1887 C   0  0  0  0  0  0  0  0  0  0  0  0
   -3.1331    2.5553   -3.5624 C   0  0  0  0  0  0  0  0  0  0  0  0
   -3.5281    3.7076   -4.2467 C   0  0  0  0  0  0  0  0  0  0  0  0
   -4.1938    4.7357   -3.5702 C   0  0  0  0  0  0  0  0  0  0  0  0
   -4.6404    6.2435   -4.4370 S   0  0  0  0  0  0  0  0  0  0  0  0
   -6.1852    5.5613   -5.1130 C   0  0  0  0  0  0  0  0  0  0  0  0
   -4.4765    4.6023   -2.2092 C   0  0  0  0  0  0  0  0  0  0  0  0
   -4.0826    3.4488   -1.5203 C   0  0  0  0  0  0  0  0  0  0  0  0
   -3.1897    0.8050    0.9747 C   0  0  0  0  0  0  0  0  0  0  0  0
   -4.3981   -0.3514    1.1267 S   0  0  0  0  0  0  0  0  0  0  0  0
   -0.2345    2.3329   -0.4957 C   0  0  0  0  0  0  0  0  0  0  0  0
    0.8907    1.4880   -0.4288 C   0  0  0  0  0  0  0  0  0  0  0  0
    1.3769    0.8766    0.7815 N   0  0  0  0  0  0  0  0  0  0  0  0
    2.1559    1.6544    1.7305 C   0  0  0  0  0  0  0  0  0  0  0  0
    2.3934    1.1551    3.0261 C   0  0  0  0  0  0  0  0  0  0  0  0
    3.2105    1.8589    3.9168 C   0  0  0  0  0  0  0  0  0  0  0  0
    3.8043    3.0601    3.5314 C   0  0  0  0  0  0  0  0  0  0  0  0
    4.8806    3.9385    4.6692 S   0  0  0  0  0  0  0  0  0  0  0  0
    6.3281    2.8917    4.3228 C   0  0  0  0  0  0  0  0  0  0  0  0
    3.5535    3.5791    2.2609 C   0  0  0  0  0  0  0  0  0  0  0  0
    2.7301    2.8890    1.3657 C   0  0  0  0  0  0  0  0  0  0  0  0
    1.4073   -0.5562    0.8729 C   0  0  0  0  0  0  0  0  0  0  0  0
    2.5479   -1.2673    0.4640 C   0  0  0  0  0  0  0  0  0  0  0  0
    2.6047   -2.6539    0.6044 C   0  0  0  0  0  0  0  0  0  0  0  0
    1.5529   -3.3363    1.2235 C   0  0  0  0  0  0  0  0  0  0  0  0
    1.6148   -5.1212    1.4086 S   0  0  0  0  0  0  0  0  0  0  0  0
    0.7050   -5.4304   -0.1360 C   0  0  0  0  0  0  0  0  0  0  0  0
    0.4460   -2.6228    1.6954 C   0  0  0  0  0  0  0  0  0  0  0  0
    0.3533   -1.2427    1.4940 C   0  0  0  0  0  0  0  0  0  0  0  0
    1.6667    1.6130   -1.5745 C   0  0  0  0  0  0  0  0  0  0  0  0
    3.1449    0.9899   -2.0424 S   0  0  0  0  0  0  0  0  0  0  0  0
    3.2490    1.9536   -3.4392 C   0  0  0  0  0  0  0  0  0  0  0  0
    2.1296    2.7902   -3.5281 C   0  0  0  0  0  0  0  0  0  0  0  0
    2.1228    4.0055   -4.2905 N   0  0  0  0  0  0  0  0  0  0  0  0
    3.0453    5.0789   -3.9675 C   0  0  0  0  0  0  0  0  0  0  0  0
    3.6840    5.1279   -2.7085 C   0  0  0  0  0  0  0  0  0  0  0  0
    4.5862    6.1483   -2.4111 C   0  0  0  0  0  0  0  0  0  0  0  0
    4.8565    7.1442   -3.3573 C   0  0  0  0  0  0  0  0  0  0  0  0
    6.0115    8.4598   -2.9718 S   0  0  0  0  0  0  0  0  0  0  0  0
    4.7393    9.5376   -2.2433 C   0  0  0  0  0  0  0  0  0  0  0  0
    4.2304    7.1065   -4.6017 C   0  0  0  0  0  0  0  0  0  0  0  0
    3.3304    6.0867   -4.9076 C   0  0  0  0  0  0  0  0  0  0  0  0
    1.1581    4.1515   -5.3399 C   0  0  0  0  0  0  0  0  0  0  0  0
    1.4009    3.5671   -6.5906 C   0  0  0  0  0  0  0  0  0  0  0  0
    0.4984    3.7495   -7.6411 C   0  0  0  0  0  0  0  0  0  0  0  0
   -0.6503    4.5228   -7.4472 C   0  0  0  0  0  0  0  0  0  0  0  0
   -1.7925    4.7914   -8.8088 S   0  0  0  0  0  0  0  0  0  0  0  0
   -2.6970    3.2370   -8.5436 C   0  0  0  0  0  0  0  0  0  0  0  0
   -0.8906    5.1202   -6.2024 C   0  0  0  0  0  0  0  0  0  0  0  0
    0.0127    4.9385   -5.1507 C   0  0  0  0  0  0  0  0  0  0  0  0
    1.2521    2.5456   -2.4747 C   0  0  0  0  0  0  0  0  0  0  0  0
   -0.1753    3.2451   -1.9394 S   0  0  0  0  0  0  0  0  0  0  0  0
    4.3520    1.8698   -4.4023 C   0  0  0  0  0  0  0  0  0  0  0  0
    5.6350    1.9805   -4.0504 C   0  0  0  0  0  0  0  0  0  0  0  0
    6.4650    1.2279   -4.9376 C   0  0  0  0  0  0  0  0  0  0  0  0
    5.5660    0.7106   -5.9461 C   0  0  0  0  0  0  0  0  0  0  0  0
    5.8612   -0.1244   -6.8431 O   0  0  0  0  0  0  0  0  0  0  0  0
    4.2312    1.1349   -5.6423 N   0  0  0  0  0  0  0  0  0  0  0  0
    3.0582    0.3629   -6.0363 C   0  0  0  0  0  0  0  0  0  0  0  0
    7.4463    0.6291   -4.2642 C   0  0  0  0  0  0  0  0  0  0  0  0
    7.4472    1.0517   -2.8861 N   0  0  0  0  0  0  0  0  0  0  0  0
    8.6255    1.1855   -2.0351 C   0  0  0  0  0  0  0  0  0  0  0  0
    6.2967    1.8901   -2.7655 C   0  0  0  0  0  0  0  0  0  0  0  0
    5.9364    2.4609   -1.7042 O   0  0  0  0  0  0  0  0  0  0  0  0
    8.2569   -0.4710   -4.8273 C   0  0  0  0  0  0  0  0  0  0  0  0
    8.6959   -1.5628   -4.1658 C   0  0  0  0  0  0  0  0  0  0  0  0
    9.8428   -2.3438   -4.6353 C   0  0  0  0  0  0  0  0  0  0  0  0
   10.3316   -2.3096   -5.7958 O   0  0  0  0  0  0  0  0  0  0  0  0
   10.3484   -3.1247   -3.5201 C   0  0  0  0  0  0  0  0  0  0  0  0
   11.4785   -3.9536   -3.4655 C   0  0  0  0  0  0  0  0  0  0  0  0
   12.5166   -4.2080   -4.8624 Cl  0  0  0  0  0  0  0  0  0  0  0  0
   11.7810   -4.5902   -2.2522 C   0  0  0  0  0  0  0  0  0  0  0  0
   10.9728   -4.3791   -1.1215 C   0  0  0  0  0  0  0  0  0  0  0  0
   11.4163   -5.2394    0.5353 Br  0  0  0  0  0  0  0  0  0  0  0  0
    9.8535   -3.5309   -1.1921 C   0  0  0  0  0  0  0  0  0  0  0  0
    9.5338   -2.9206   -2.4142 C   0  0  0  0  0  0  0  0  0  0  0  0
    8.3799   -2.0511   -2.7920 C   0  0  0  0  0  0  0  0  0  0  0  0
    7.1501   -2.0678   -2.2165 C   0  0  0  0  0  0  0  0  0  0  0  0
    6.9180   -2.6014   -0.9010 C   0  0  0  0  0  0  0  0  0  0  0  0
    6.7158   -3.0224    0.1598 N   0  0  0  0  0  0  0  0  0  0  0  0
    5.9667   -1.7012   -2.9452 C   0  0  0  0  0  0  0  0  0  0  0  0
    5.0077   -1.4256   -3.5259 N   0  0  0  0  0  0  0  0  0  0  0  0
   -4.6798   -1.1783    4.8005 H   0  0  0  0  0  0  0  0  0  0  0  0
   -7.2715   -5.5274    6.0893 H   0  0  0  0  0  0  0  0  0  0  0  0
   -7.1817   -5.7313    0.9997 H   0  0  0  0  0  0  0  0  0  0  0  0
   -9.2816   -8.1654    2.4188 H   0  0  0  0  0  0  0  0  0  0  0  0
   -7.3130   -9.5948    1.5268 H   0  0  0  0  0  0  0  0  0  0  0  0
   -4.9923   -8.5694    2.3396 H   0  0  0  0  0  0  0  0  0  0  0  0
   -5.0130   -8.4599    4.9332 H   0  0  0  0  0  0  0  0  0  0  0  0
   -7.3402   -9.4480    5.7932 H   0  0  0  0  0  0  0  0  0  0  0  0
   -8.6105  -10.4986    3.6817 H   0  0  0  0  0  0  0  0  0  0  0  0
   -6.8612  -11.0054    3.7151 H   0  0  0  0  0  0  0  0  0  0  0  0
   -9.3065   -8.1002    4.7815 H   0  0  0  0  0  0  0  0  0  0  0  0
   -3.2424    3.5119    5.8592 H   0  0  0  0  0  0  0  0  0  0  0  0
   -1.2537    4.4221    6.9431 H   0  0  0  0  0  0  0  0  0  0  0  0
    1.5564    4.2733    4.9336 H   0  0  0  0  0  0  0  0  0  0  0  0
    2.6469    5.1876    6.0540 H   0  0  0  0  0  0  0  0  0  0  0  0
    0.8781    5.5048    6.0748 H   0  0  0  0  0  0  0  0  0  0  0  0
    0.9628    0.8891    5.8993 H   0  0  0  0  0  0  0  0  0  0  0  0
   -1.0489   -0.0687    4.8494 H   0  0  0  0  0  0  0  0  0  0  0  0
   -4.6605    0.7195    6.9327 H   0  0  0  0  0  0  0  0  0  0  0  0
   -7.0230    1.1661    7.4658 H   0  0  0  0  0  0  0  0  0  0  0  0
  -10.7377    0.4856    5.2064 H   0  0  0  0  0  0  0  0  0  0  0  0
   -9.3276    0.6258    4.0884 H   0  0  0  0  0  0  0  0  0  0  0  0
   -9.1286   -0.1837    5.7032 H   0  0  0  0  0  0  0  0  0  0  0  0
   -7.5853    2.9804    3.6131 H   0  0  0  0  0  0  0  0  0  0  0  0
   -5.2202    2.5422    3.0607 H   0  0  0  0  0  0  0  0  0  0  0  0
   -5.0146    0.1745   -2.8184 H   0  0  0  0  0  0  0  0  0  0  0  0
   -5.0609   -2.0045   -3.9497 H   0  0  0  0  0  0  0  0  0  0  0  0
   -2.2056   -4.0869   -6.5407 H   0  0  0  0  0  0  0  0  0  0  0  0
   -1.4706   -2.7592   -5.5600 H   0  0  0  0  0  0  0  0  0  0  0  0
   -3.1615   -2.5895   -6.1936 H   0  0  0  0  0  0  0  0  0  0  0  0
   -1.0684   -2.8190   -2.5697 H   0  0  0  0  0  0  0  0  0  0  0  0
   -1.0206   -0.6440   -1.4142 H   0  0  0  0  0  0  0  0  0  0  0  0
   -2.5900    1.7891   -4.1021 H   0  0  0  0  0  0  0  0  0  0  0  0
   -3.3086    3.8093   -5.2998 H   0  0  0  0  0  0  0  0  0  0  0  0
   -6.8627    5.2505   -4.2926 H   0  0  0  0  0  0  0  0  0  0  0  0
   -6.6951    6.3428   -5.7168 H   0  0  0  0  0  0  0  0  0  0  0  0
   -5.9612    4.6938   -5.7673 H   0  0  0  0  0  0  0  0  0  0  0  0
   -4.9905    5.3928   -1.6770 H   0  0  0  0  0  0  0  0  0  0  0  0
   -4.3068    3.3676   -0.4666 H   0  0  0  0  0  0  0  0  0  0  0  0
    1.9481    0.2252    3.3547 H   0  0  0  0  0  0  0  0  0  0  0  0
    3.3828    1.4593    4.9081 H   0  0  0  0  0  0  0  0  0  0  0  0
    6.1038    1.8358    4.5825 H   0  0  0  0  0  0  0  0  0  0  0  0
    7.1789    3.2408    4.9421 H   0  0  0  0  0  0  0  0  0  0  0  0
    6.6052    2.9662    3.2499 H   0  0  0  0  0  0  0  0  0  0  0  0
    3.9898    4.5217    1.9626 H   0  0  0  0  0  0  0  0  0  0  0  0
    2.5689    3.3193    0.3866 H   0  0  0  0  0  0  0  0  0  0  0  0
    3.4159   -0.7480    0.0743 H   0  0  0  0  0  0  0  0  0  0  0  0
    3.4837   -3.1946    0.2701 H   0  0  0  0  0  0  0  0  0  0  0  0
    0.6211   -6.5240   -0.2938 H   0  0  0  0  0  0  0  0  0  0  0  0
    1.2481   -4.9785   -0.9934 H   0  0  0  0  0  0  0  0  0  0  0  0
   -0.3152   -4.9931   -0.0756 H   0  0  0  0  0  0  0  0  0  0  0  0
   -0.3300   -3.1368    2.2389 H   0  0  0  0  0  0  0  0  0  0  0  0
   -0.5080   -0.7035    1.8639 H   0  0  0  0  0  0  0  0  0  0  0  0
    3.4885    4.3808   -1.9543 H   0  0  0  0  0  0  0  0  0  0  0  0
    5.0706    6.1678   -1.4459 H   0  0  0  0  0  0  0  0  0  0  0  0
    4.2754    9.0344   -1.3676 H   0  0  0  0  0  0  0  0  0  0  0  0
    3.9592    9.7746   -2.9947 H   0  0  0  0  0  0  0  0  0  0  0  0
    5.2107   10.4826   -1.9036 H   0  0  0  0  0  0  0  0  0  0  0  0
    4.4377    7.8757   -5.3357 H   0  0  0  0  0  0  0  0  0  0  0  0
    2.8769    6.0780   -5.8880 H   0  0  0  0  0  0  0  0  0  0  0  0
    2.3051    3.0033   -6.7661 H   0  0  0  0  0  0  0  0  0  0  0  0
    0.7049    3.3035   -8.6025 H   0  0  0  0  0  0  0  0  0  0  0  0
   -3.4800    3.1400   -9.3240 H   0  0  0  0  0  0  0  0  0  0  0  0
   -2.0050    2.3700   -8.6185 H   0  0  0  0  0  0  0  0  0  0  0  0
   -3.1859    3.2407   -7.5495 H   0  0  0  0  0  0  0  0  0  0  0  0
   -1.7637    5.7420   -6.0516 H   0  0  0  0  0  0  0  0  0  0  0  0
   -0.1669    5.4200   -4.1998 H   0  0  0  0  0  0  0  0  0  0  0  0
    3.1080   -0.6594   -5.5997 H   0  0  0  0  0  0  0  0  0  0  0  0
    2.1269    0.8536   -5.6871 H   0  0  0  0  0  0  0  0  0  0  0  0
    3.0169    0.2766   -7.1418 H   0  0  0  0  0  0  0  0  0  0  0  0
    8.3265    1.1060   -0.9703 H   0  0  0  0  0  0  0  0  0  0  0  0
    9.3619    0.3914   -2.2552 H   0  0  0  0  0  0  0  0  0  0  0  0
    9.1004    2.1758   -2.2115 H   0  0  0  0  0  0  0  0  0  0  0  0
    8.5744   -0.3318   -5.8518 H   0  0  0  0  0  0  0  0  0  0  0  0
   12.6477   -5.2372   -2.1826 H   0  0  0  0  0  0  0  0  0  0  0  0
    9.2798   -3.3533   -0.2995 H   0  0  0  0  0  0  0  0  0  0  0  0
  1  2  2  3
  2  3  1  0
  3  4  2  0
  3  5  1  0
  5  6  2  0
  6  7  1  0
  7  8  2  0
  8  9  1  0
  9 10  2  0
 10 11  1  0
 11 12  2  3
 12 13  1  0
 13 14  3  0
 12 15  1  0
 15 16  3  0
  8 17  1  0
 17 18  1  0
 18 19  1  0
 19 20  2  0
 20 21  1  0
 21 22  1  0
 21 23  1  0
  1 24  1  0
 24 25  2  0
 25 26  1  0
 26 27  1  0
 27 28  2  0
 28 29  1  0
 29 30  2  0
 30 31  1  0
 31 32  1  0
 30 33  1  0
 33 34  2  0
 26 35  1  0
 35 36  2  0
 36 37  1  0
 37 38  2  0
 38 39  1  0
 39 40  1  0
 38 41  1  0
 41 42  2  0
 25 43  1  0
 43 44  1  0
 44 45  1  0
 45 46  2  0
 46 47  1  0
 47 48  1  0
 48 49  2  0
 49 50  1  0
 50 51  2  0
 51 52  1  0
 52 53  1  0
 51 54  1  0
 54 55  2  0
 47 56  1  0
 56 57  2  0
 57 58  1  0
 58 59  2  0
 59 60  1  0
 60 61  1  0
 59 62  1  0
 62 63  2  0
 46 64  1  0
 64 65  1  0
 45 66  1  0
 66 67  2  0
 67 68  1  0
 68 69  1  0
 69 70  2  0
 70 71  1  0
 71 72  2  0
 72 73  1  0
 73 74  1  0
 72 75  1  0
 75 76  2  0
 68 77  1  0
 77 78  2  0
 78 79  1  0
 79 80  2  0
 80 81  1  0
 81 82  1  0
 80 83  1  0
 83 84  2  0
 67 85  1  0
 85 86  1  0
 86 87  1  0
 87 88  2  0
 88 89  1  0
 89 90  1  0
 90 91  2  0
 91 92  1  0
 92 93  2  0
 93 94  1  0
 94 95  1  0
 93 96  1  0
 96 97  2  0
 89 98  1  0
 98 99  2  0
 99100  1  0
100101  2  0
101102  1  0
102103  1  0
101104  1  0
104105  2  0
 88106  1  0
106107  1  0
 87108  1  0
108109  2  0
109110  1  0
110111  1  0
111112  2  0
111113  1  0
113114  1  0
110115  2  0
115116  1  0
116117  1  0
116118  1  0
118119  2  0
115120  1  0
120121  2  3
121122  1  0
122123  2  0
122124  1  0
124125  2  0
125126  1  0
125127  1  0
127128  2  0
128129  1  0
128130  1  0
130131  2  0
131132  1  0
132133  2  3
133134  1  0
134135  3  0
133136  1  0
136137  3  0
 11  2  1  0
 23 17  1  0
 65 24  1  0
107 66  1  0
113108  1  0
132121  1  0
 10  5  1  0
 22 18  1  0
 34 27  1  0
 42 35  1  0
 64 43  2  0
 76 69  1  0
 84 77  1  0
106 85  2  0
118109  1  0
131124  1  0
 23  7  1  0
 55 48  1  0
 63 56  1  0
 97 90  1  0
105 98  1  0
  1138  1  0
  6139  1  0
  9140  1  0
 17141  1  0
 18142  1  0
 19143  1  0
 20144  1  0
 21145  1  0
 22146  1  0
 22147  1  0
 23148  1  0
 28149  1  0
 29150  1  0
 32151  1  0
 32152  1  0
 32153  1  0
 33154  1  0
 34155  1  0
 36156  1  0
 37157  1  0
 40158  1  0
 40159  1  0
 40160  1  0
 41161  1  0
 42162  1  0
 49163  1  0
 50164  1  0
 53165  1  0
 53166  1  0
 53167  1  0
 54168  1  0
 55169  1  0
 57170  1  0
 58171  1  0
 61172  1  0
 61173  1  0
 61174  1  0
 62175  1  0
 63176  1  0
 70177  1  0
 71178  1  0
 74179  1  0
 74180  1  0
 74181  1  0
 75182  1  0
 76183  1  0
 78184  1  0
 79185  1  0
 82186  1  0
 82187  1  0
 82188  1  0
 83189  1  0
 84190  1  0
 91191  1  0
 92192  1  0
 95193  1  0
 95194  1  0
 95195  1  0
 96196  1  0
 97197  1  0
 99198  1  0
100199  1  0
103200  1  0
103201  1  0
103202  1  0
104203  1  0
105204  1  0
114205  1  0
114206  1  0
114207  1  0
117208  1  0
117209  1  0
117210  1  0
120211  1  0
127212  1  0
130213  1  0
M  END

