
     RDKit          3D

193214  0  0  0  0  0  0  0  0999 V2000
   -4.0307   -1.4303   -6.4362 C   0  0  0  0  0  0  0  0  0  0  0  0
   -3.4657   -1.0481   -7.5966 C   0  0  0  0  0  0  0  0  0  0  0  0
   -2.6753   -1.9793   -8.4055 C   0  0  0  0  0  0  0  0  0  0  0  0
   -2.7019   -3.2374   -8.3217 O   0  0  0  0  0  0  0  0  0  0  0  0
   -1.7702   -1.2147   -9.2409 C   0  0  0  0  0  0  0  0  0  0  0  0
   -0.7403   -1.7163  -10.0729 C   0  0  0  0  0  0  0  0  0  0  0  0
    0.0201   -0.7326  -10.6774 C   0  0  0  0  0  0  0  0  0  0  0  0
   -0.2078    0.6674  -10.4684 C   0  0  0  0  0  0  0  0  0  0  0  0
   -1.2015    1.1639   -9.6417 C   0  0  0  0  0  0  0  0  0  0  0  0
   -2.0152    0.1674   -9.0337 C   0  0  0  0  0  0  0  0  0  0  0  0
   -3.1776    0.3265   -8.1136 C   0  0  0  0  0  0  0  0  0  0  0  0
   -3.9910    1.4085   -8.0382 C   0  0  0  0  0  0  0  0  0  0  0  0
   -3.6944    2.6488   -8.7064 C   0  0  0  0  0  0  0  0  0  0  0  0
   -3.4782    3.6506   -9.2475 N   0  0  0  0  0  0  0  0  0  0  0  0
   -5.3072    1.3456   -7.4566 C   0  0  0  0  0  0  0  0  0  0  0  0
   -6.3739    1.3203   -7.0073 N   0  0  0  0  0  0  0  0  0  0  0  0
    0.9329    1.0089  -11.3757 C   0  0  0  0  0  0  0  0  0  0  0  0
    2.2472    1.4975  -10.6955 C   0  0  0  0  0  0  0  0  0  0  0  0
    3.3182    1.3988  -11.7536 C   0  0  0  0  0  0  0  0  0  0  0  0
    3.5334    0.0930  -11.9554 C   0  0  0  0  0  0  0  0  0  0  0  0
    2.6009   -0.6441  -11.0248 C   0  0  0  0  0  0  0  0  0  0  0  0
    2.6508    0.3084   -9.8415 C   0  0  0  0  0  0  0  0  0  0  0  0
    1.1674   -0.4227  -11.5940 C   0  0  0  0  0  0  0  0  0  0  0  0
   -4.3868   -0.5371   -5.3123 C   0  0  0  0  0  0  0  0  0  0  0  0
   -3.4736    0.3552   -4.7155 C   0  0  0  0  0  0  0  0  0  0  0  0
   -2.1292    0.5296   -5.0943 C   0  0  0  0  0  0  0  0  0  0  0  0
   -1.4661    1.4727   -4.3242 C   0  0  0  0  0  0  0  0  0  0  0  0
   -0.0351    1.8829   -4.4811 C   0  0  0  0  0  0  0  0  0  0  0  0
    0.8917    0.8943   -3.7865 C   0  0  0  0  0  0  0  0  0  0  0  0
   -2.5074    2.0333   -3.1311 S   0  0  0  0  0  0  0  0  0  0  0  0
   -3.8519    1.1279   -3.6027 C   0  0  0  0  0  0  0  0  0  0  0  0
   -5.1437    1.0487   -3.0103 C   0  0  0  0  0  0  0  0  0  0  0  0
   -6.0682    0.1918   -3.6651 C   0  0  0  0  0  0  0  0  0  0  0  0
   -5.6620   -0.6133   -4.7390 C   0  0  0  0  0  0  0  0  0  0  0  0
   -6.9519   -1.5666   -5.2555 S   0  0  0  0  0  0  0  0  0  0  0  0
   -8.0579   -0.9306   -4.1604 C   0  0  0  0  0  0  0  0  0  0  0  0
   -9.4726   -1.3948   -4.0073 C   0  0  0  0  0  0  0  0  0  0  0  0
   -9.5385   -2.6031   -3.0808 C   0  0  0  0  0  0  0  0  0  0  0  0
   -7.4362    0.0310   -3.3722 C   0  0  0  0  0  0  0  0  0  0  0  0
   -5.4651    1.7039   -1.6966 C   0  0  0  0  0  0  0  0  0  0  0  0
   -4.5792    2.9452   -0.9473 S   0  0  0  0  0  0  0  0  0  0  0  0
   -5.3076    2.8486    0.5562 C   0  0  0  0  0  0  0  0  0  0  0  0
   -4.6699    2.9680    1.8688 C   0  0  0  0  0  0  0  0  0  0  0  0
   -5.2043    2.1207    2.8190 C   0  0  0  0  0  0  0  0  0  0  0  0
   -6.6655    1.2223    2.1744 Si  0  0  0  0  0  4  0  0  0  0  0  0
   -6.4555   -0.6253    2.3061 C   0  0  0  0  0  0  0  0  0  0  0  0
   -7.7035   -1.3741    1.8652 C   0  0  0  0  0  0  0  0  0  0  0  0
   -8.2831    1.8781    2.8604 C   0  0  0  0  0  0  0  0  0  0  0  0
   -8.3672    3.3925    2.7196 C   0  0  0  0  0  0  0  0  0  0  0  0
   -6.2596    1.8571    0.5031 C   0  0  0  0  0  0  0  0  0  0  0  0
   -6.3194    1.1763   -0.7156 C   0  0  0  0  0  0  0  0  0  0  0  0
   -4.2908    1.6458    3.7627 C   0  0  0  0  0  0  0  0  0  0  0  0
   -2.9980    2.1252    3.5450 C   0  0  0  0  0  0  0  0  0  0  0  0
   -3.0256    3.1154    2.1724 S   0  0  0  0  0  0  0  0  0  0  0  0
   -1.7527    1.5552    4.0959 C   0  0  0  0  0  0  0  0  0  0  0  0
   -1.5719    0.2316    4.5518 C   0  0  0  0  0  0  0  0  0  0  0  0
   -2.5844   -0.7865    4.5578 N   0  0  0  0  0  0  0  0  0  0  0  0
   -2.9203   -1.4887    3.3265 C   0  0  0  0  0  0  0  0  0  0  0  0
   -3.8934   -2.5104    3.3104 C   0  0  0  0  0  0  0  0  0  0  0  0
   -4.2036   -3.1882    2.1243 C   0  0  0  0  0  0  0  0  0  0  0  0
   -3.5721   -2.8360    0.9277 C   0  0  0  0  0  0  0  0  0  0  0  0
   -4.0035   -3.6603   -0.6073 S   0  0  0  0  0  0  0  0  0  0  0  0
   -5.2436   -2.4151   -1.0870 C   0  0  0  0  0  0  0  0  0  0  0  0
   -2.6067   -1.8276    0.9245 C   0  0  0  0  0  0  0  0  0  0  0  0
   -2.2874   -1.1573    2.1060 C   0  0  0  0  0  0  0  0  0  0  0  0
   -2.9254   -1.3042    5.8614 C   0  0  0  0  0  0  0  0  0  0  0  0
   -3.4210   -0.4396    6.8510 C   0  0  0  0  0  0  0  0  0  0  0  0
   -3.6502   -0.9051    8.1497 C   0  0  0  0  0  0  0  0  0  0  0  0
   -3.3637   -2.2347    8.4789 C   0  0  0  0  0  0  0  0  0  0  0  0
   -3.6144   -2.8164   10.1550 S   0  0  0  0  0  0  0  0  0  0  0  0
   -5.3400   -3.3097    9.8587 C   0  0  0  0  0  0  0  0  0  0  0  0
   -2.8442   -3.0956    7.5054 C   0  0  0  0  0  0  0  0  0  0  0  0
   -2.6246   -2.6331    6.2051 C   0  0  0  0  0  0  0  0  0  0  0  0
   -0.2235   -0.1005    4.6409 C   0  0  0  0  0  0  0  0  0  0  0  0
    0.5376   -1.5901    4.6025 S   0  0  0  0  0  0  0  0  0  0  0  0
    2.0501   -0.9643    4.1640 C   0  0  0  0  0  0  0  0  0  0  0  0
    1.9481    0.4377    3.9997 C   0  0  0  0  0  0  0  0  0  0  0  0
    2.9637    1.2934    3.4275 N   0  0  0  0  0  0  0  0  0  0  0  0
    3.1398    2.6417    3.9313 C   0  0  0  0  0  0  0  0  0  0  0  0
    2.9352    2.9292    5.2941 C   0  0  0  0  0  0  0  0  0  0  0  0
    3.0441    4.2404    5.7676 C   0  0  0  0  0  0  0  0  0  0  0  0
    3.3890    5.2736    4.8929 C   0  0  0  0  0  0  0  0  0  0  0  0
    3.5153    6.9574    5.4947 S   0  0  0  0  0  0  0  0  0  0  0  0
    5.2658    6.7884    5.9581 C   0  0  0  0  0  0  0  0  0  0  0  0
    3.6107    4.9991    3.5415 C   0  0  0  0  0  0  0  0  0  0  0  0
    3.4839    3.6929    3.0617 C   0  0  0  0  0  0  0  0  0  0  0  0
    3.7355    0.8414    2.2974 C   0  0  0  0  0  0  0  0  0  0  0  0
    5.1315    0.9988    2.2849 C   0  0  0  0  0  0  0  0  0  0  0  0
    5.8837    0.5359    1.2043 C   0  0  0  0  0  0  0  0  0  0  0  0
    5.2488   -0.0856    0.1223 C   0  0  0  0  0  0  0  0  0  0  0  0
    6.2168   -0.6857   -1.2648 S   0  0  0  0  0  0  0  0  0  0  0  0
    6.5191   -2.3067   -0.4970 C   0  0  0  0  0  0  0  0  0  0  0  0
    3.8575   -0.2290    0.1195 C   0  0  0  0  0  0  0  0  0  0  0  0
    3.1031    0.2353    1.2004 C   0  0  0  0  0  0  0  0  0  0  0  0
    0.6498    0.8760    4.2853 C   0  0  0  0  0  0  0  0  0  0  0  0
   -0.2135    2.2373    3.8147 S   0  0  0  0  0  0  0  0  0  0  0  0
    3.1149   -1.8367    3.6547 C   0  0  0  0  0  0  0  0  0  0  0  0
    4.3762   -1.8311    4.1055 C   0  0  0  0  0  0  0  0  0  0  0  0
    4.9042   -0.9366    5.1387 C   0  0  0  0  0  0  0  0  0  0  0  0
    4.2307   -0.2790    5.9771 O   0  0  0  0  0  0  0  0  0  0  0  0
    6.3472   -0.9235    5.0370 C   0  0  0  0  0  0  0  0  0  0  0  0
    7.2469   -0.1061    5.7596 C   0  0  0  0  0  0  0  0  0  0  0  0
    8.5592   -0.2251    5.3464 C   0  0  0  0  0  0  0  0  0  0  0  0
    8.9685   -1.0826    4.2755 C   0  0  0  0  0  0  0  0  0  0  0  0
    8.0941   -1.8905    3.5703 C   0  0  0  0  0  0  0  0  0  0  0  0
    6.7441   -1.8165    4.0080 C   0  0  0  0  0  0  0  0  0  0  0  0
    5.5445   -2.5238    3.4836 C   0  0  0  0  0  0  0  0  0  0  0  0
    5.5316   -3.7003    2.8022 C   0  0  0  0  0  0  0  0  0  0  0  0
    4.3209   -4.4369    2.5537 C   0  0  0  0  0  0  0  0  0  0  0  0
    3.3525   -5.0401    2.3546 N   0  0  0  0  0  0  0  0  0  0  0  0
    6.7405   -4.3769    2.4089 C   0  0  0  0  0  0  0  0  0  0  0  0
    7.7020   -4.9360    2.0895 N   0  0  0  0  0  0  0  0  0  0  0  0
   10.3892   -0.6362    4.4389 C   0  0  0  0  0  0  0  0  0  0  0  0
   11.3545   -1.6536    5.1119 C   0  0  0  0  0  0  0  0  0  0  0  0
   12.5713   -0.8595    5.5261 C   0  0  0  0  0  0  0  0  0  0  0  0
   12.1875   -0.0779    6.5420 C   0  0  0  0  0  0  0  0  0  0  0  0
   10.7239   -0.3674    6.7752 C   0  0  0  0  0  0  0  0  0  0  0  0
   10.7334   -1.8595    6.4842 C   0  0  0  0  0  0  0  0  0  0  0  0
    9.9711    0.2289    5.5483 C   0  0  0  0  0  0  0  0  0  0  0  0
   -4.1399   -2.4920   -6.2471 H   0  0  0  0  0  0  0  0  0  0  0  0
   -0.5516   -2.7711  -10.2132 H   0  0  0  0  0  0  0  0  0  0  0  0
   -1.2924    2.2222   -9.4685 H   0  0  0  0  0  0  0  0  0  0  0  0
    0.6253    1.5753  -12.2821 H   0  0  0  0  0  0  0  0  0  0  0  0
    2.1842    2.4768  -10.1743 H   0  0  0  0  0  0  0  0  0  0  0  0
    3.8698    2.2133  -12.2124 H   0  0  0  0  0  0  0  0  0  0  0  0
    4.2880   -0.3324  -12.6091 H   0  0  0  0  0  0  0  0  0  0  0  0
    2.8822   -1.6974  -10.8125 H   0  0  0  0  0  0  0  0  0  0  0  0
    1.9298    0.0687   -9.0286 H   0  0  0  0  0  0  0  0  0  0  0  0
    3.6681    0.4107   -9.3918 H   0  0  0  0  0  0  0  0  0  0  0  0
    1.0071   -0.7626  -12.6402 H   0  0  0  0  0  0  0  0  0  0  0  0
   -1.6370   -0.0148   -5.8881 H   0  0  0  0  0  0  0  0  0  0  0  0
    0.2183    1.9355   -5.5615 H   0  0  0  0  0  0  0  0  0  0  0  0
    0.1107    2.8939   -4.0431 H   0  0  0  0  0  0  0  0  0  0  0  0
    1.9439    1.2311   -3.8978 H   0  0  0  0  0  0  0  0  0  0  0  0
    0.6524    0.8330   -2.7025 H   0  0  0  0  0  0  0  0  0  0  0  0
    0.7922   -0.1149   -4.2420 H   0  0  0  0  0  0  0  0  0  0  0  0
   -9.8820   -1.6690   -5.0034 H   0  0  0  0  0  0  0  0  0  0  0  0
  -10.0970   -0.5751   -3.5921 H   0  0  0  0  0  0  0  0  0  0  0  0
   -8.9465   -3.4435   -3.5141 H   0  0  0  0  0  0  0  0  0  0  0  0
   -9.1340   -2.3454   -2.0773 H   0  0  0  0  0  0  0  0  0  0  0  0
  -10.5954   -2.9321   -2.9714 H   0  0  0  0  0  0  0  0  0  0  0  0
   -7.9880    0.6122   -2.6491 H   0  0  0  0  0  0  0  0  0  0  0  0
   -6.2167   -0.8825    3.3585 H   0  0  0  0  0  0  0  0  0  0  0  0
   -5.6041   -0.8982    1.6540 H   0  0  0  0  0  0  0  0  0  0  0  0
   -8.5587   -1.1163    2.5266 H   0  0  0  0  0  0  0  0  0  0  0  0
   -7.5222   -2.4698    1.9346 H   0  0  0  0  0  0  0  0  0  0  0  0
   -7.9622   -1.1231    0.8130 H   0  0  0  0  0  0  0  0  0  0  0  0
   -8.3575    1.5950    3.9320 H   0  0  0  0  0  0  0  0  0  0  0  0
   -9.1242    1.4078    2.3090 H   0  0  0  0  0  0  0  0  0  0  0  0
   -9.3276    3.7519    3.1404 H   0  0  0  0  0  0  0  0  0  0  0  0
   -7.5347    3.8797    3.2702 H   0  0  0  0  0  0  0  0  0  0  0  0
   -8.3180    3.6845    1.6490 H   0  0  0  0  0  0  0  0  0  0  0  0
   -6.8344    0.2316   -0.8049 H   0  0  0  0  0  0  0  0  0  0  0  0
   -4.5389    0.8571    4.4565 H   0  0  0  0  0  0  0  0  0  0  0  0
   -4.4349   -2.7764    4.2069 H   0  0  0  0  0  0  0  0  0  0  0  0
   -4.9609   -3.9633    2.1325 H   0  0  0  0  0  0  0  0  0  0  0  0
   -5.6089   -2.6365   -2.1108 H   0  0  0  0  0  0  0  0  0  0  0  0
   -6.1006   -2.4485   -0.3848 H   0  0  0  0  0  0  0  0  0  0  0  0
   -4.7922   -1.4017   -1.0828 H   0  0  0  0  0  0  0  0  0  0  0  0
   -2.1125   -1.5482    0.0019 H   0  0  0  0  0  0  0  0  0  0  0  0
   -1.5433   -0.3758    2.0521 H   0  0  0  0  0  0  0  0  0  0  0  0
   -3.6107    0.6009    6.6260 H   0  0  0  0  0  0  0  0  0  0  0  0
   -4.0355   -0.2284    8.9016 H   0  0  0  0  0  0  0  0  0  0  0  0
   -5.3830   -4.0989    9.0797 H   0  0  0  0  0  0  0  0  0  0  0  0
   -5.7701   -3.7089   10.8003 H   0  0  0  0  0  0  0  0  0  0  0  0
   -5.9383   -2.4316    9.5356 H   0  0  0  0  0  0  0  0  0  0  0  0
   -2.5963   -4.1185    7.7602 H   0  0  0  0  0  0  0  0  0  0  0  0
   -2.1872   -3.3014    5.4725 H   0  0  0  0  0  0  0  0  0  0  0  0
    2.6767    2.1435    5.9907 H   0  0  0  0  0  0  0  0  0  0  0  0
    2.8686    4.4475    6.8158 H   0  0  0  0  0  0  0  0  0  0  0  0
    5.3756    6.0034    6.7345 H   0  0  0  0  0  0  0  0  0  0  0  0
    5.8743    6.5255    5.0684 H   0  0  0  0  0  0  0  0  0  0  0  0
    5.6262    7.7528    6.3696 H   0  0  0  0  0  0  0  0  0  0  0  0
    3.8674    5.7995    2.8581 H   0  0  0  0  0  0  0  0  0  0  0  0
    3.6312    3.5104    2.0045 H   0  0  0  0  0  0  0  0  0  0  0  0
    5.6369    1.4581    3.1254 H   0  0  0  0  0  0  0  0  0  0  0  0
    6.9617    0.6434    1.2140 H   0  0  0  0  0  0  0  0  0  0  0  0
    7.0473   -2.1725    0.4688 H   0  0  0  0  0  0  0  0  0  0  0  0
    7.1549   -2.9156   -1.1706 H   0  0  0  0  0  0  0  0  0  0  0  0
    5.5582   -2.8363   -0.3281 H   0  0  0  0  0  0  0  0  0  0  0  0
    3.3607   -0.7021   -0.7179 H   0  0  0  0  0  0  0  0  0  0  0  0
    2.0271    0.1137    1.1870 H   0  0  0  0  0  0  0  0  0  0  0  0
    2.8366   -2.4472    2.8129 H   0  0  0  0  0  0  0  0  0  0  0  0
    6.9362    0.5689    6.5450 H   0  0  0  0  0  0  0  0  0  0  0  0
    8.4378   -2.4856    2.7428 H   0  0  0  0  0  0  0  0  0  0  0  0
   10.7954   -0.0952    3.5544 H   0  0  0  0  0  0  0  0  0  0  0  0
   11.5670   -2.5772    4.5327 H   0  0  0  0  0  0  0  0  0  0  0  0
   13.5840   -0.9641    5.1516 H   0  0  0  0  0  0  0  0  0  0  0  0
   12.8363    0.5610    7.1327 H   0  0  0  0  0  0  0  0  0  0  0  0
   10.3356   -0.0699    7.7722 H   0  0  0  0  0  0  0  0  0  0  0  0
    9.7245   -2.3312    6.4629 H   0  0  0  0  0  0  0  0  0  0  0  0
   11.3818   -2.4452    7.1817 H   0  0  0  0  0  0  0  0  0  0  0  0
   10.1223    1.3180    5.3708 H   0  0  0  0  0  0  0  0  0  0  0  0
  1  2  2  3
  2  3  1  0
  3  4  2  0
  3  5  1  0
  5  6  2  0
  6  7  1  0
  7  8  2  0
  8  9  1  0
  9 10  2  0
 10 11  1  0
 11 12  2  3
 12 13  1  0
 13 14  3  0
 12 15  1  0
 15 16  3  0
  8 17  1  0
 17 18  1  0
 18 19  1  0
 19 20  2  0
 20 21  1  0
 21 22  1  0
 21 23  1  0
  1 24  1  0
 24 25  2  0
 25 26  1  0
 26 27  2  0
 27 28  1  0
 28 29  1  0
 27 30  1  0
 30 31  1  0
 31 32  2  0
 32 33  1  0
 33 34  2  0
 34 35  1  0
 35 36  1  0
 36 37  1  0
 37 38  1  0
 36 39  2  0
 32 40  1  0
 40 41  1  0
 41 42  1  0
 42 43  1  0
 43 44  2  0
 44 45  1  0
 45 46  1  0
 46 47  1  0
 45 48  1  0
 48 49  1  0
 45 50  1  0
 50 51  1  0
 44 52  1  0
 52 53  2  0
 53 54  1  0
 53 55  1  0
 55 56  2  0
 56 57  1  0
 57 58  1  0
 58 59  2  0
 59 60  1  0
 60 61  2  0
 61 62  1  0
 62 63  1  0
 61 64  1  0
 64 65  2  0
 57 66  1  0
 66 67  2  0
 67 68  1  0
 68 69  2  0
 69 70  1  0
 70 71  1  0
 69 72  1  0
 72 73  2  0
 56 74  1  0
 74 75  1  0
 75 76  1  0
 76 77  2  0
 77 78  1  0
 78 79  1  0
 79 80  2  0
 80 81  1  0
 81 82  2  0
 82 83  1  0
 83 84  1  0
 82 85  1  0
 85 86  2  0
 78 87  1  0
 87 88  2  0
 88 89  1  0
 89 90  2  0
 90 91  1  0
 91 92  1  0
 90 93  1  0
 93 94  2  0
 77 95  1  0
 95 96  1  0
 76 97  1  0
 97 98  2  3
 98 99  1  0
 99100  2  0
 99101  1  0
101102  2  0
102103  1  0
103104  2  0
104105  1  0
105106  2  0
106107  1  0
107108  2  3
108109  1  0
109110  3  0
108111  1  0
111112  3  0
104113  1  0
113114  1  0
114115  1  0
115116  2  0
116117  1  0
117118  1  0
117119  1  0
 11  2  1  0
 23 17  1  0
 34 24  1  0
 51 40  2  0
 96 55  1  0
107 98  1  0
119113  1  0
 10  5  1  0
 22 18  1  0
 31 25  1  0
 39 33  1  0
 50 42  2  0
 65 58  1  0
 73 66  1  0
 95 74  2  0
106101  1  0
118114  1  0
 23  7  1  0
 54 43  1  0
 86 79  1  0
 94 87  1  0
119103  1  0
  1120  1  0
  6121  1  0
  9122  1  0
 17123  1  0
 18124  1  0
 19125  1  0
 20126  1  0
 21127  1  0
 22128  1  0
 22129  1  0
 23130  1  0
 26131  1  0
 28132  1  0
 28133  1  0
 29134  1  0
 29135  1  0
 29136  1  0
 37137  1  0
 37138  1  0
 38139  1  0
 38140  1  0
 38141  1  0
 39142  1  0
 46143  1  0
 46144  1  0
 47145  1  0
 47146  1  0
 47147  1  0
 48148  1  0
 48149  1  0
 49150  1  0
 49151  1  0
 49152  1  0
 51153  1  0
 52154  1  0
 59155  1  0
 60156  1  0
 63157  1  0
 63158  1  0
 63159  1  0
 64160  1  0
 65161  1  0
 67162  1  0
 68163  1  0
 71164  1  0
 71165  1  0
 71166  1  0
 72167  1  0
 73168  1  0
 80169  1  0
 81170  1  0
 84171  1  0
 84172  1  0
 84173  1  0
 85174  1  0
 86175  1  0
 88176  1  0
 89177  1  0
 92178  1  0
 92179  1  0
 92180  1  0
 93181  1  0
 94182  1  0
 97183  1  0
102184  1  0
105185  1  0
113186  1  0
114187  1  0
115188  1  0
116189  1  0
117190  1  0
118191  1  0
118192  1  0
119193  1  0
M  END

