
     RDKit          3D

250276  0  0  0  0  0  0  0  0999 V2000
    0.0762   -3.1482   10.1045 C   0  0  0  0  0  0  0  0  0  0  0  0
   -1.2448   -3.1738   10.3939 C   0  0  0  0  0  0  0  0  0  0  0  0
   -1.9547   -4.4273   10.6570 C   0  0  0  0  0  0  0  0  0  0  0  0
   -1.4743   -5.4395   11.2386 O   0  0  0  0  0  0  0  0  0  0  0  0
   -3.2482   -4.3731    9.9911 C   0  0  0  0  0  0  0  0  0  0  0  0
   -4.1890   -5.4172    9.8223 C   0  0  0  0  0  0  0  0  0  0  0  0
   -5.2470   -5.0894    8.9857 C   0  0  0  0  0  0  0  0  0  0  0  0
   -5.3508   -3.8218    8.3230 C   0  0  0  0  0  0  0  0  0  0  0  0
   -4.4387   -2.7951    8.4943 C   0  0  0  0  0  0  0  0  0  0  0  0
   -3.3865   -3.0995    9.3923 C   0  0  0  0  0  0  0  0  0  0  0  0
   -2.2496   -2.2549    9.8066 C   0  0  0  0  0  0  0  0  0  0  0  0
   -2.3211   -0.9346   10.0753 C   0  0  0  0  0  0  0  0  0  0  0  0
   -1.4307   -0.3186   11.0304 C   0  0  0  0  0  0  0  0  0  0  0  0
   -0.7115    0.1717   11.7942 N   0  0  0  0  0  0  0  0  0  0  0  0
   -3.3171   -0.0802    9.4798 C   0  0  0  0  0  0  0  0  0  0  0  0
   -4.1033    0.6205    8.9951 N   0  0  0  0  0  0  0  0  0  0  0  0
   -6.5751   -4.2772    7.6000 C   0  0  0  0  0  0  0  0  0  0  0  0
   -6.3899   -4.6686    6.1011 C   0  0  0  0  0  0  0  0  0  0  0  0
   -7.6442   -5.4195    5.7222 C   0  0  0  0  0  0  0  0  0  0  0  0
   -7.5978   -6.5860    6.3685 C   0  0  0  0  0  0  0  0  0  0  0  0
   -6.3081   -6.5930    7.1545 C   0  0  0  0  0  0  0  0  0  0  0  0
   -5.4292   -5.8446    6.1680 C   0  0  0  0  0  0  0  0  0  0  0  0
   -6.4955   -5.5620    8.3035 C   0  0  0  0  0  0  0  0  0  0  0  0
    0.5607   -2.4145    8.9159 C   0  0  0  0  0  0  0  0  0  0  0  0
    0.4682   -2.9383    7.6295 C   0  0  0  0  0  0  0  0  0  0  0  0
    0.5011   -1.9626    6.6161 C   0  0  0  0  0  0  0  0  0  0  0  0
    0.2882   -2.1589    5.2273 C   0  0  0  0  0  0  0  0  0  0  0  0
    0.4890   -3.4650    4.5433 C   0  0  0  0  0  0  0  0  0  0  0  0
    1.2022   -3.6316    3.3499 C   0  0  0  0  0  0  0  0  0  0  0  0
    1.3780   -4.9696    2.9783 C   0  0  0  0  0  0  0  0  0  0  0  0
    2.0633   -5.3397    1.8671 F   0  0  0  0  0  0  0  0  0  0  0  0
    0.8058   -5.8751    3.8639 C   0  0  0  0  0  0  0  0  0  0  0  0
    0.9154   -7.3637    3.8003 C   0  0  0  0  0  0  0  0  0  0  0  0
    2.3397   -7.8231    4.1130 C   0  0  0  0  0  0  0  0  0  0  0  0
    0.0773   -5.0038    5.1051 S   0  0  0  0  0  0  0  0  0  0  0  0
    0.0474   -0.9910    4.4697 C   0  0  0  0  0  0  0  0  0  0  0  0
    0.1910    0.3043    4.9854 C   0  0  0  0  0  0  0  0  0  0  0  0
    0.5597    0.4868    6.3350 C   0  0  0  0  0  0  0  0  0  0  0  0
    0.8298    1.8144    6.9168 C   0  0  0  0  0  0  0  0  0  0  0  0
    2.2507    2.2312    7.7212 S   0  0  0  0  0  0  0  0  0  0  0  0
    1.8230    3.8307    8.0137 C   0  0  0  0  0  0  0  0  0  0  0  0
    2.7140    4.8537    8.6427 C   0  0  0  0  0  0  0  0  0  0  0  0
    3.6821    5.4342    7.6159 C   0  0  0  0  0  0  0  0  0  0  0  0
    0.5616    4.0578    7.4703 C   0  0  0  0  0  0  0  0  0  0  0  0
   -0.0044    2.9298    6.8677 C   0  0  0  0  0  0  0  0  0  0  0  0
   -0.0564    5.2634    7.5017 F   0  0  0  0  0  0  0  0  0  0  0  0
    0.6617   -0.6688    7.1287 C   0  0  0  0  0  0  0  0  0  0  0  0
    0.7570   -0.7456    8.8045 S   0  0  0  0  0  0  0  0  0  0  0  0
   -0.0451    1.3129    4.0261 C   0  0  0  0  0  0  0  0  0  0  0  0
   -0.4596    0.8043    2.7935 C   0  0  0  0  0  0  0  0  0  0  0  0
   -0.4497   -0.8776    2.8708 S   0  0  0  0  0  0  0  0  0  0  0  0
   -0.6636    1.5675    1.5538 C   0  0  0  0  0  0  0  0  0  0  0  0
   -1.3790    1.1104    0.4374 C   0  0  0  0  0  0  0  0  0  0  0  0
   -2.5340    0.2521    0.4842 N   0  0  0  0  0  0  0  0  0  0  0  0
   -3.8114    0.8975    0.2957 C   0  0  0  0  0  0  0  0  0  0  0  0
   -4.6195    0.5740   -0.8084 C   0  0  0  0  0  0  0  0  0  0  0  0
   -5.7911    1.2888   -1.0661 C   0  0  0  0  0  0  0  0  0  0  0  0
   -6.1667    2.3434   -0.2285 C   0  0  0  0  0  0  0  0  0  0  0  0
   -7.6426    3.2961   -0.6002 S   0  0  0  0  0  0  0  0  0  0  0  0
   -8.7187    2.3093    0.4898 C   0  0  0  0  0  0  0  0  0  0  0  0
   -5.3668    2.6774    0.8719 C   0  0  0  0  0  0  0  0  0  0  0  0
   -4.1986    1.9574    1.1360 C   0  0  0  0  0  0  0  0  0  0  0  0
   -2.4110   -1.1725    0.2672 C   0  0  0  0  0  0  0  0  0  0  0  0
   -3.4260   -2.0370    0.7177 C   0  0  0  0  0  0  0  0  0  0  0  0
   -3.3620   -3.4052    0.4555 C   0  0  0  0  0  0  0  0  0  0  0  0
   -2.2736   -3.9341   -0.2470 C   0  0  0  0  0  0  0  0  0  0  0  0
   -2.2018   -5.6914   -0.5859 S   0  0  0  0  0  0  0  0  0  0  0  0
   -1.3701   -6.1189    0.9812 C   0  0  0  0  0  0  0  0  0  0  0  0
   -1.2477   -3.0892   -0.6842 C   0  0  0  0  0  0  0  0  0  0  0  0
   -1.3131   -1.7152   -0.4293 C   0  0  0  0  0  0  0  0  0  0  0  0
   -1.0908    1.8735   -0.6737 C   0  0  0  0  0  0  0  0  0  0  0  0
   -1.5456    1.7605   -2.2548 S   0  0  0  0  0  0  0  0  0  0  0  0
   -0.6255    3.0768   -2.7929 C   0  0  0  0  0  0  0  0  0  0  0  0
   -0.0325    3.6864   -1.6604 C   0  0  0  0  0  0  0  0  0  0  0  0
    0.0289    5.1177   -1.5761 N   0  0  0  0  0  0  0  0  0  0  0  0
    1.2708    5.8116   -1.4131 C   0  0  0  0  0  0  0  0  0  0  0  0
    1.9658    6.2869   -2.5376 C   0  0  0  0  0  0  0  0  0  0  0  0
    3.0906    7.1018   -2.3766 C   0  0  0  0  0  0  0  0  0  0  0  0
    3.5215    7.4622   -1.0926 C   0  0  0  0  0  0  0  0  0  0  0  0
    4.8979    8.5927   -0.8867 S   0  0  0  0  0  0  0  0  0  0  0  0
    6.1537    7.2766   -0.8838 C   0  0  0  0  0  0  0  0  0  0  0  0
    2.8351    6.9796    0.0294 C   0  0  0  0  0  0  0  0  0  0  0  0
    1.7135    6.1605   -0.1313 C   0  0  0  0  0  0  0  0  0  0  0  0
   -1.2090    5.8564   -1.5878 C   0  0  0  0  0  0  0  0  0  0  0  0
   -2.2509    5.5036   -0.7096 C   0  0  0  0  0  0  0  0  0  0  0  0
   -3.4997    6.1201   -0.8101 C   0  0  0  0  0  0  0  0  0  0  0  0
   -3.7252    7.0902   -1.7871 C   0  0  0  0  0  0  0  0  0  0  0  0
   -5.3562    7.8100   -1.9641 S   0  0  0  0  0  0  0  0  0  0  0  0
   -5.9549    6.4768   -3.0478 C   0  0  0  0  0  0  0  0  0  0  0  0
   -2.6843    7.4753   -2.6427 C   0  0  0  0  0  0  0  0  0  0  0  0
   -1.4299    6.8622   -2.5430 C   0  0  0  0  0  0  0  0  0  0  0  0
   -0.2558    2.9153   -0.5082 C   0  0  0  0  0  0  0  0  0  0  0  0
    0.2192    2.9653    1.1070 S   0  0  0  0  0  0  0  0  0  0  0  0
    0.0857    2.9599   -4.0828 C   0  0  0  0  0  0  0  0  0  0  0  0
   -0.2758    2.0514   -5.1125 C   0  0  0  0  0  0  0  0  0  0  0  0
   -1.6418    1.7248   -5.4613 N   0  0  0  0  0  0  0  0  0  0  0  0
   -2.4836    2.7883   -5.9307 C   0  0  0  0  0  0  0  0  0  0  0  0
   -2.0756    3.5813   -7.0142 C   0  0  0  0  0  0  0  0  0  0  0  0
   -2.8825    4.6282   -7.4683 C   0  0  0  0  0  0  0  0  0  0  0  0
   -4.0953    4.9021   -6.8315 C   0  0  0  0  0  0  0  0  0  0  0  0
   -5.1109    6.2790   -7.3764 S   0  0  0  0  0  0  0  0  0  0  0  0
   -4.1395    7.5360   -6.4785 C   0  0  0  0  0  0  0  0  0  0  0  0
   -4.5176    4.1060   -5.7569 C   0  0  0  0  0  0  0  0  0  0  0  0
   -3.7184    3.0463   -5.3126 C   0  0  0  0  0  0  0  0  0  0  0  0
   -2.0878    0.3664   -5.6507 C   0  0  0  0  0  0  0  0  0  0  0  0
   -1.9188   -0.2750   -6.8887 C   0  0  0  0  0  0  0  0  0  0  0  0
   -2.2518   -1.6256   -7.0355 C   0  0  0  0  0  0  0  0  0  0  0  0
   -2.8231   -2.3270   -5.9686 C   0  0  0  0  0  0  0  0  0  0  0  0
   -3.1894   -4.0759   -6.1255 S   0  0  0  0  0  0  0  0  0  0  0  0
   -1.6551   -4.5995   -5.2883 C   0  0  0  0  0  0  0  0  0  0  0  0
   -3.1160   -1.6589   -4.7769 C   0  0  0  0  0  0  0  0  0  0  0  0
   -2.7653   -0.3165   -4.6264 C   0  0  0  0  0  0  0  0  0  0  0  0
    0.8578    1.5863   -5.7934 C   0  0  0  0  0  0  0  0  0  0  0  0
    1.1672    0.2964   -6.8230 S   0  0  0  0  0  0  0  0  0  0  0  0
    2.8602    0.3894   -6.6855 C   0  0  0  0  0  0  0  0  0  0  0  0
    3.1866    1.4566   -5.8423 C   0  0  0  0  0  0  0  0  0  0  0  0
    4.5343    1.8471   -5.5111 N   0  0  0  0  0  0  0  0  0  0  0  0
    5.4237    2.2262   -6.5820 C   0  0  0  0  0  0  0  0  0  0  0  0
    6.7580    1.7929   -6.5887 C   0  0  0  0  0  0  0  0  0  0  0  0
    7.6187    2.1750   -7.6262 C   0  0  0  0  0  0  0  0  0  0  0  0
    7.1544    3.0052   -8.6558 C   0  0  0  0  0  0  0  0  0  0  0  0
    8.2635    3.5306   -9.9639 S   0  0  0  0  0  0  0  0  0  0  0  0
    7.7361    2.2179  -11.1063 C   0  0  0  0  0  0  0  0  0  0  0  0
    5.8261    3.4496   -8.6448 C   0  0  0  0  0  0  0  0  0  0  0  0
    4.9616    3.0551   -7.6210 C   0  0  0  0  0  0  0  0  0  0  0  0
    4.9169    2.0549   -4.1351 C   0  0  0  0  0  0  0  0  0  0  0  0
    5.6341    3.2054   -3.7548 C   0  0  0  0  0  0  0  0  0  0  0  0
    5.9575    3.4234   -2.4094 C   0  0  0  0  0  0  0  0  0  0  0  0
    5.5599    2.5054   -1.4338 C   0  0  0  0  0  0  0  0  0  0  0  0
    5.9571    2.7897    0.2937 S   0  0  0  0  0  0  0  0  0  0  0  0
    4.4258    3.7187    0.6156 C   0  0  0  0  0  0  0  0  0  0  0  0
    4.8617    1.3530   -1.8034 C   0  0  0  0  0  0  0  0  0  0  0  0
    4.5463    1.1284   -3.1477 C   0  0  0  0  0  0  0  0  0  0  0  0
    2.0456    2.0947   -5.3669 C   0  0  0  0  0  0  0  0  0  0  0  0
    1.7799    3.1647   -4.1210 S   0  0  0  0  0  0  0  0  0  0  0  0
    3.7356   -0.7682   -6.9217 C   0  0  0  0  0  0  0  0  0  0  0  0
    3.8073   -1.7988   -6.0480 C   0  0  0  0  0  0  0  0  0  0  0  0
    2.9883   -1.9475   -4.8319 C   0  0  0  0  0  0  0  0  0  0  0  0
    2.1868   -1.1041   -4.3503 O   0  0  0  0  0  0  0  0  0  0  0  0
    3.1671   -3.2735   -4.3017 C   0  0  0  0  0  0  0  0  0  0  0  0
    2.5097   -3.8250   -3.1811 C   0  0  0  0  0  0  0  0  0  0  0  0
    2.7614   -5.1657   -2.9925 C   0  0  0  0  0  0  0  0  0  0  0  0
    3.5882   -5.9369   -3.8683 C   0  0  0  0  0  0  0  0  0  0  0  0
    4.2531   -5.3948   -4.9568 C   0  0  0  0  0  0  0  0  0  0  0  0
    4.0433   -3.9972   -5.1445 C   0  0  0  0  0  0  0  0  0  0  0  0
    4.5857   -3.0731   -6.1892 C   0  0  0  0  0  0  0  0  0  0  0  0
    5.7058   -3.2673   -6.9255 C   0  0  0  0  0  0  0  0  0  0  0  0
    6.3148   -2.2171   -7.6991 C   0  0  0  0  0  0  0  0  0  0  0  0
    6.8020   -1.3683   -8.3212 N   0  0  0  0  0  0  0  0  0  0  0  0
    6.4463   -4.5009   -6.9013 C   0  0  0  0  0  0  0  0  0  0  0  0
    7.0421   -5.4945   -6.9042 N   0  0  0  0  0  0  0  0  0  0  0  0
    3.2607   -7.1828   -3.1006 C   0  0  0  0  0  0  0  0  0  0  0  0
    2.2331   -8.1561   -3.7505 C   0  0  0  0  0  0  0  0  0  0  0  0
    1.7886   -9.0869   -2.6466 C   0  0  0  0  0  0  0  0  0  0  0  0
    1.0443   -8.3583   -1.8084 C   0  0  0  0  0  0  0  0  0  0  0  0
    1.0078   -6.9614   -2.3777 C   0  0  0  0  0  0  0  0  0  0  0  0
    0.9742   -7.3110   -3.8542 C   0  0  0  0  0  0  0  0  0  0  0  0
    2.4395   -6.3863   -2.1865 C   0  0  0  0  0  0  0  0  0  0  0  0
    0.6822   -3.9921   10.4183 H   0  0  0  0  0  0  0  0  0  0  0  0
   -4.0739   -6.3946   10.2683 H   0  0  0  0  0  0  0  0  0  0  0  0
   -4.5116   -1.8706    7.9421 H   0  0  0  0  0  0  0  0  0  0  0  0
   -7.4763   -3.6695    7.8360 H   0  0  0  0  0  0  0  0  0  0  0  0
   -6.1056   -3.8420    5.4152 H   0  0  0  0  0  0  0  0  0  0  0  0
   -8.3955   -5.1203    4.9957 H   0  0  0  0  0  0  0  0  0  0  0  0
   -8.3049   -7.4006    6.2559 H   0  0  0  0  0  0  0  0  0  0  0  0
   -5.9484   -7.5941    7.4677 H   0  0  0  0  0  0  0  0  0  0  0  0
   -5.3117   -6.3747    5.1935 H   0  0  0  0  0  0  0  0  0  0  0  0
   -4.4159   -5.5859    6.5567 H   0  0  0  0  0  0  0  0  0  0  0  0
   -7.3400   -5.7557    8.9984 H   0  0  0  0  0  0  0  0  0  0  0  0
    0.2470   -3.9804    7.4828 H   0  0  0  0  0  0  0  0  0  0  0  0
    1.6317   -2.8138    2.7854 H   0  0  0  0  0  0  0  0  0  0  0  0
    0.6308   -7.7184    2.7865 H   0  0  0  0  0  0  0  0  0  0  0  0
    0.2164   -7.8207    4.5369 H   0  0  0  0  0  0  0  0  0  0  0  0
    2.6619   -7.4458    5.1113 H   0  0  0  0  0  0  0  0  0  0  0  0
    2.3795   -8.9335    4.1249 H   0  0  0  0  0  0  0  0  0  0  0  0
    3.0437   -7.4528    3.3369 H   0  0  0  0  0  0  0  0  0  0  0  0
    2.1002    5.6737    9.0709 H   0  0  0  0  0  0  0  0  0  0  0  0
    3.2917    4.3840    9.4673 H   0  0  0  0  0  0  0  0  0  0  0  0
    3.1244    5.8955    6.7745 H   0  0  0  0  0  0  0  0  0  0  0  0
    4.3468    4.6393    7.2197 H   0  0  0  0  0  0  0  0  0  0  0  0
    4.3090    6.2150    8.1003 H   0  0  0  0  0  0  0  0  0  0  0  0
   -0.9861    2.9264    6.4084 H   0  0  0  0  0  0  0  0  0  0  0  0
    0.0979    2.3721    4.2064 H   0  0  0  0  0  0  0  0  0  0  0  0
   -4.3212   -0.2117   -1.4928 H   0  0  0  0  0  0  0  0  0  0  0  0
   -6.3889    1.0468   -1.9343 H   0  0  0  0  0  0  0  0  0  0  0  0
   -8.3178    2.2931    1.5249 H   0  0  0  0  0  0  0  0  0  0  0  0
   -9.7250    2.7742    0.5154 H   0  0  0  0  0  0  0  0  0  0  0  0
   -8.8067    1.2721    0.1043 H   0  0  0  0  0  0  0  0  0  0  0  0
   -5.6422    3.5001    1.5171 H   0  0  0  0  0  0  0  0  0  0  0  0
   -3.5832    2.2352    1.9831 H   0  0  0  0  0  0  0  0  0  0  0  0
   -4.2704   -1.6464    1.2699 H   0  0  0  0  0  0  0  0  0  0  0  0
   -4.1548   -4.0558    0.7991 H   0  0  0  0  0  0  0  0  0  0  0  0
   -1.0062   -5.2215    1.5264 H   0  0  0  0  0  0  0  0  0  0  0  0
   -0.5012   -6.7733    0.7571 H   0  0  0  0  0  0  0  0  0  0  0  0
   -2.0819   -6.6708    1.6311 H   0  0  0  0  0  0  0  0  0  0  0  0
   -0.4020   -3.4936   -1.2235 H   0  0  0  0  0  0  0  0  0  0  0  0
   -0.5141   -1.0797   -0.7915 H   0  0  0  0  0  0  0  0  0  0  0  0
    1.6117    6.0568   -3.5337 H   0  0  0  0  0  0  0  0  0  0  0  0
    3.6044    7.4828   -3.2495 H   0  0  0  0  0  0  0  0  0  0  0  0
    6.1145    6.7194   -1.8422 H   0  0  0  0  0  0  0  0  0  0  0  0
    5.9805    6.5870   -0.0308 H   0  0  0  0  0  0  0  0  0  0  0  0
    7.1581    7.7391   -0.7759 H   0  0  0  0  0  0  0  0  0  0  0  0
    3.1535    7.2623    1.0238 H   0  0  0  0  0  0  0  0  0  0  0  0
    1.1677    5.8246    0.7422 H   0  0  0  0  0  0  0  0  0  0  0  0
   -2.1087    4.7430    0.0391 H   0  0  0  0  0  0  0  0  0  0  0  0
   -4.2960    5.8186   -0.1422 H   0  0  0  0  0  0  0  0  0  0  0  0
   -5.8649    5.4948   -2.5396 H   0  0  0  0  0  0  0  0  0  0  0  0
   -5.3664    6.4628   -3.9839 H   0  0  0  0  0  0  0  0  0  0  0  0
   -7.0194    6.6569   -3.2966 H   0  0  0  0  0  0  0  0  0  0  0  0
   -2.8529    8.2323   -3.3970 H   0  0  0  0  0  0  0  0  0  0  0  0
   -0.6495    7.1403   -3.2396 H   0  0  0  0  0  0  0  0  0  0  0  0
   -1.1355    3.3822   -7.5104 H   0  0  0  0  0  0  0  0  0  0  0  0
   -2.5566    5.2318   -8.3066 H   0  0  0  0  0  0  0  0  0  0  0  0
   -3.3206    7.9043   -7.1328 H   0  0  0  0  0  0  0  0  0  0  0  0
   -3.7016    7.1250   -5.5440 H   0  0  0  0  0  0  0  0  0  0  0  0
   -4.8052    8.3862   -6.2151 H   0  0  0  0  0  0  0  0  0  0  0  0
   -5.4626    4.3041   -5.2692 H   0  0  0  0  0  0  0  0  0  0  0  0
   -4.0497    2.4425   -4.4779 H   0  0  0  0  0  0  0  0  0  0  0  0
   -1.4958    0.2638   -7.7268 H   0  0  0  0  0  0  0  0  0  0  0  0
   -2.0623   -2.1256   -7.9773 H   0  0  0  0  0  0  0  0  0  0  0  0
   -1.5984   -5.7103   -5.2882 H   0  0  0  0  0  0  0  0  0  0  0  0
   -0.7683   -4.1910   -5.8196 H   0  0  0  0  0  0  0  0  0  0  0  0
   -1.6582   -4.2425   -4.2347 H   0  0  0  0  0  0  0  0  0  0  0  0
   -3.5946   -2.1820   -3.9613 H   0  0  0  0  0  0  0  0  0  0  0  0
   -3.0377    0.1782   -3.7141 H   0  0  0  0  0  0  0  0  0  0  0  0
    7.1278    1.1526   -5.7980 H   0  0  0  0  0  0  0  0  0  0  0  0
    8.6427    1.8330   -7.6233 H   0  0  0  0  0  0  0  0  0  0  0  0
    8.3165    2.3032  -12.0481 H   0  0  0  0  0  0  0  0  0  0  0  0
    6.6557    2.3299  -11.3396 H   0  0  0  0  0  0  0  0  0  0  0  0
    7.9195    1.2204  -10.6555 H   0  0  0  0  0  0  0  0  0  0  0  0
    5.4639    4.0990   -9.4301 H   0  0  0  0  0  0  0  0  0  0  0  0
    3.9412    3.4121   -7.6260 H   0  0  0  0  0  0  0  0  0  0  0  0
    5.9214    3.9421   -4.4925 H   0  0  0  0  0  0  0  0  0  0  0  0
    6.5060    4.3110   -2.1284 H   0  0  0  0  0  0  0  0  0  0  0  0
    4.3764    3.9807    1.6931 H   0  0  0  0  0  0  0  0  0  0  0  0
    3.5353    3.1114    0.3492 H   0  0  0  0  0  0  0  0  0  0  0  0
    4.4312    4.6528    0.0205 H   0  0  0  0  0  0  0  0  0  0  0  0
    4.5560    0.6332   -1.0577 H   0  0  0  0  0  0  0  0  0  0  0  0
    4.0183    0.2309   -3.4141 H   0  0  0  0  0  0  0  0  0  0  0  0
    4.2680   -0.7843   -7.8584 H   0  0  0  0  0  0  0  0  0  0  0  0
    1.8284   -3.2634   -2.5505 H   0  0  0  0  0  0  0  0  0  0  0  0
    4.8271   -6.0226   -5.6167 H   0  0  0  0  0  0  0  0  0  0  0  0
    4.1452   -7.6637   -2.6231 H   0  0  0  0  0  0  0  0  0  0  0  0
    2.5607   -8.6554   -4.6859 H   0  0  0  0  0  0  0  0  0  0  0  0
    1.9568  -10.1582   -2.5820 H   0  0  0  0  0  0  0  0  0  0  0  0
    0.5042   -8.7313   -0.9454 H   0  0  0  0  0  0  0  0  0  0  0  0
    0.1847   -6.3133   -2.0172 H   0  0  0  0  0  0  0  0  0  0  0  0
    0.0683   -7.8956   -4.1495 H   0  0  0  0  0  0  0  0  0  0  0  0
    1.0650   -6.4362   -4.5340 H   0  0  0  0  0  0  0  0  0  0  0  0
    2.8097   -6.3399   -1.1369 H   0  0  0  0  0  0  0  0  0  0  0  0
  1  2  2  3
  2  3  1  0
  3  4  2  0
  3  5  1  0
  5  6  2  0
  6  7  1  0
  7  8  2  0
  8  9  1  0
  9 10  2  0
 10 11  1  0
 11 12  2  3
 12 13  1  0
 13 14  3  0
 12 15  1  0
 15 16  3  0
  8 17  1  0
 17 18  1  0
 18 19  1  0
 19 20  2  0
 20 21  1  0
 21 22  1  0
 21 23  1  0
  1 24  1  0
 24 25  2  0
 25 26  1  0
 26 27  2  0
 27 28  1  0
 28 29  2  0
 29 30  1  0
 30 31  1  0
 30 32  2  0
 32 33  1  0
 33 34  1  0
 32 35  1  0
 27 36  1  0
 36 37  2  0
 37 38  1  0
 38 39  1  0
 39 40  1  0
 40 41  1  0
 41 42  1  0
 42 43  1  0
 41 44  2  0
 44 45  1  0
 44 46  1  0
 38 47  2  0
 47 48  1  0
 37 49  1  0
 49 50  2  0
 50 51  1  0
 50 52  1  0
 52 53  2  0
 53 54  1  0
 54 55  1  0
 55 56  2  0
 56 57  1  0
 57 58  2  0
 58 59  1  0
 59 60  1  0
 58 61  1  0
 61 62  2  0
 54 63  1  0
 63 64  2  0
 64 65  1  0
 65 66  2  0
 66 67  1  0
 67 68  1  0
 66 69  1  0
 69 70  2  0
 53 71  1  0
 71 72  1  0
 72 73  1  0
 73 74  2  0
 74 75  1  0
 75 76  1  0
 76 77  2  0
 77 78  1  0
 78 79  2  0
 79 80  1  0
 80 81  1  0
 79 82  1  0
 82 83  2  0
 75 84  1  0
 84 85  2  0
 85 86  1  0
 86 87  2  0
 87 88  1  0
 88 89  1  0
 87 90  1  0
 90 91  2  0
 74 92  1  0
 92 93  1  0
 73 94  1  0
 94 95  2  0
 95 96  1  0
 96 97  1  0
 97 98  2  0
 98 99  1  0
 99100  2  0
100101  1  0
101102  1  0
100103  1  0
103104  2  0
 96105  1  0
105106  2  0
106107  1  0
107108  2  0
108109  1  0
109110  1  0
108111  1  0
111112  2  0
 95113  1  0
113114  1  0
114115  1  0
115116  2  0
116117  1  0
117118  1  0
118119  2  0
119120  1  0
120121  2  0
121122  1  0
122123  1  0
121124  1  0
124125  2  0
117126  1  0
126127  2  0
127128  1  0
128129  2  0
129130  1  0
130131  1  0
129132  1  0
132133  2  0
116134  1  0
134135  1  0
115136  1  0
136137  2  3
137138  1  0
138139  2  0
138140  1  0
140141  2  0
141142  1  0
142143  2  0
143144  1  0
144145  2  0
145146  1  0
146147  2  3
147148  1  0
148149  3  0
147150  1  0
150151  3  0
143152  1  0
152153  1  0
153154  1  0
154155  2  0
155156  1  0
156157  1  0
156158  1  0
 11  2  1  0
 23 17  1  0
 48 24  1  0
 93 52  1  0
135 94  1  0
146137  1  0
158152  1  0
 10  5  1  0
 22 18  1  0
 47 26  1  0
 62 55  1  0
 70 63  1  0
 92 71  2  0
104 97  1  0
112105  1  0
134113  2  0
145140  1  0
157153  1  0
 23  7  1  0
 35 28  1  0
 51 36  1  0
 83 76  1  0
 91 84  1  0
125118  1  0
133126  1  0
158142  1  0
 45 39  2  0
  1159  1  0
  6160  1  0
  9161  1  0
 17162  1  0
 18163  1  0
 19164  1  0
 20165  1  0
 21166  1  0
 22167  1  0
 22168  1  0
 23169  1  0
 25170  1  0
 29171  1  0
 33172  1  0
 33173  1  0
 34174  1  0
 34175  1  0
 34176  1  0
 42177  1  0
 42178  1  0
 43179  1  0
 43180  1  0
 43181  1  0
 45182  1  0
 49183  1  0
 56184  1  0
 57185  1  0
 60186  1  0
 60187  1  0
 60188  1  0
 61189  1  0
 62190  1  0
 64191  1  0
 65192  1  0
 68193  1  0
 68194  1  0
 68195  1  0
 69196  1  0
 70197  1  0
 77198  1  0
 78199  1  0
 81200  1  0
 81201  1  0
 81202  1  0
 82203  1  0
 83204  1  0
 85205  1  0
 86206  1  0
 89207  1  0
 89208  1  0
 89209  1  0
 90210  1  0
 91211  1  0
 98212  1  0
 99213  1  0
102214  1  0
102215  1  0
102216  1  0
103217  1  0
104218  1  0
106219  1  0
107220  1  0
110221  1  0
110222  1  0
110223  1  0
111224  1  0
112225  1  0
119226  1  0
120227  1  0
123228  1  0
123229  1  0
123230  1  0
124231  1  0
125232  1  0
127233  1  0
128234  1  0
131235  1  0
131236  1  0
131237  1  0
132238  1  0
133239  1  0
136240  1  0
141241  1  0
144242  1  0
152243  1  0
153244  1  0
154245  1  0
155246  1  0
156247  1  0
157248  1  0
157249  1  0
158250  1  0
M  END

