
     RDKit          3D

186205  0  0  0  0  0  0  0  0999 V2000
    4.9760   -2.5829    6.1513 C   0  0  0  0  0  0  0  0  0  0  0  0
    4.1138   -1.6264    6.5588 C   0  0  0  0  0  0  0  0  0  0  0  0
    3.0235   -1.1148    5.7216 C   0  0  0  0  0  0  0  0  0  0  0  0
    2.5777   -1.6065    4.6492 O   0  0  0  0  0  0  0  0  0  0  0  0
    2.5533    0.1379    6.2576 C   0  0  0  0  0  0  0  0  0  0  0  0
    1.5632    0.9598    5.6611 C   0  0  0  0  0  0  0  0  0  0  0  0
    1.3439    2.1279    6.3569 C   0  0  0  0  0  0  0  0  0  0  0  0
    2.0368    2.4711    7.5657 C   0  0  0  0  0  0  0  0  0  0  0  0
    3.0142    1.6647    8.1500 C   0  0  0  0  0  0  0  0  0  0  0  0
    3.2813    0.4536    7.4423 C   0  0  0  0  0  0  0  0  0  0  0  0
    4.2487   -0.6672    7.7158 C   0  0  0  0  0  0  0  0  0  0  0  0
    5.0202   -0.8154    8.8224 C   0  0  0  0  0  0  0  0  0  0  0  0
    5.1552    0.2015    9.8242 C   0  0  0  0  0  0  0  0  0  0  0  0
    5.2998    1.0173   10.6503 N   0  0  0  0  0  0  0  0  0  0  0  0
    5.7347   -2.0350    9.1054 C   0  0  0  0  0  0  0  0  0  0  0  0
    6.3165   -3.0143    9.3528 N   0  0  0  0  0  0  0  0  0  0  0  0
    1.2394    3.7341    7.6807 C   0  0  0  0  0  0  0  0  0  0  0  0
    0.0920    3.7657    8.7384 C   0  0  0  0  0  0  0  0  0  0  0  0
   -0.7924    4.9300    8.3492 C   0  0  0  0  0  0  0  0  0  0  0  0
   -1.4257    4.5709    7.2298 C   0  0  0  0  0  0  0  0  0  0  0  0
   -0.9396    3.1896    6.8848 C   0  0  0  0  0  0  0  0  0  0  0  0
   -0.8192    2.6332    8.3005 C   0  0  0  0  0  0  0  0  0  0  0  0
    0.5420    3.3772    6.4394 C   0  0  0  0  0  0  0  0  0  0  0  0
    4.8769   -3.1712    4.7939 C   0  0  0  0  0  0  0  0  0  0  0  0
    3.9898   -4.2209    4.5297 C   0  0  0  0  0  0  0  0  0  0  0  0
    3.4923   -4.9576    5.5604 F   0  0  0  0  0  0  0  0  0  0  0  0
    3.4595   -4.3961    3.2367 C   0  0  0  0  0  0  0  0  0  0  0  0
    2.5861   -5.4129    3.0464 F   0  0  0  0  0  0  0  0  0  0  0  0
    3.7959   -3.5058    2.1909 C   0  0  0  0  0  0  0  0  0  0  0  0
    4.8555   -2.5755    2.4159 C   0  0  0  0  0  0  0  0  0  0  0  0
    5.2976   -1.7199    1.4407 N   0  0  0  0  0  0  0  0  0  0  0  0
    6.2406   -0.7734    1.6826 C   0  0  0  0  0  0  0  0  0  0  0  0
    6.6690    0.1100    0.6768 O   0  0  0  0  0  0  0  0  0  0  0  0
    5.8973    0.4544   -0.4711 C   0  0  0  0  0  0  0  0  0  0  0  0
    4.7248    1.3369   -0.0635 C   0  0  0  0  0  0  0  0  0  0  0  0
    6.7630   -0.6403    2.9722 C   0  0  0  0  0  0  0  0  0  0  0  0
    6.3298   -1.4637    3.9571 N   0  0  0  0  0  0  0  0  0  0  0  0
    5.3974   -2.4313    3.7167 C   0  0  0  0  0  0  0  0  0  0  0  0
    7.7768    0.4215    3.2573 C   0  0  0  0  0  0  0  0  0  0  0  0
    2.8844   -3.3458    0.9940 C   0  0  0  0  0  0  0  0  0  0  0  0
    1.4781   -3.2056    1.1505 C   0  0  0  0  0  0  0  0  0  0  0  0
    0.6154   -4.2562    1.6236 N   0  0  0  0  0  0  0  0  0  0  0  0
    0.5437   -5.5016    0.8842 C   0  0  0  0  0  0  0  0  0  0  0  0
    0.5996   -5.5179   -0.5243 C   0  0  0  0  0  0  0  0  0  0  0  0
    0.3441   -6.6911   -1.2409 C   0  0  0  0  0  0  0  0  0  0  0  0
    0.0250   -7.8771   -0.5611 C   0  0  0  0  0  0  0  0  0  0  0  0
   -0.4847   -9.3421   -1.4698 S   0  0  0  0  0  0  0  0  0  0  0  0
    1.1749  -10.0746   -1.6494 C   0  0  0  0  0  0  0  0  0  0  0  0
   -0.0009   -7.8803    0.8367 C   0  0  0  0  0  0  0  0  0  0  0  0
    0.2518   -6.7031    1.5541 C   0  0  0  0  0  0  0  0  0  0  0  0
   -0.4516   -3.9357    2.5437 C   0  0  0  0  0  0  0  0  0  0  0  0
   -0.2013   -3.3370    3.7801 C   0  0  0  0  0  0  0  0  0  0  0  0
   -1.2430   -3.0912    4.6880 C   0  0  0  0  0  0  0  0  0  0  0  0
   -2.5520   -3.4479    4.3523 C   0  0  0  0  0  0  0  0  0  0  0  0
   -3.8981   -3.2293    5.5232 S   0  0  0  0  0  0  0  0  0  0  0  0
   -4.3264   -1.5593    4.9404 C   0  0  0  0  0  0  0  0  0  0  0  0
   -2.8249   -4.0236    3.1025 C   0  0  0  0  0  0  0  0  0  0  0  0
   -1.7861   -4.2570    2.2011 C   0  0  0  0  0  0  0  0  0  0  0  0
    0.9724   -2.2103    0.3088 C   0  0  0  0  0  0  0  0  0  0  0  0
   -0.5658   -1.6378    0.0328 S   0  0  0  0  0  0  0  0  0  0  0  0
   -0.0933   -0.6621   -1.2732 C   0  0  0  0  0  0  0  0  0  0  0  0
    1.2862   -0.8253   -1.5340 C   0  0  0  0  0  0  0  0  0  0  0  0
    1.8528   -0.6053   -2.8397 N   0  0  0  0  0  0  0  0  0  0  0  0
    2.7865    0.4631   -3.1235 C   0  0  0  0  0  0  0  0  0  0  0  0
    2.5175    1.7992   -2.7835 C   0  0  0  0  0  0  0  0  0  0  0  0
    3.3218    2.8398   -3.2888 C   0  0  0  0  0  0  0  0  0  0  0  0
    4.3932    2.5494   -4.1452 C   0  0  0  0  0  0  0  0  0  0  0  0
    5.3055    3.8851   -4.9285 S   0  0  0  0  0  0  0  0  0  0  0  0
    6.8180    3.7015   -3.9320 C   0  0  0  0  0  0  0  0  0  0  0  0
    4.6950    1.2181   -4.4443 C   0  0  0  0  0  0  0  0  0  0  0  0
    3.9109    0.1837   -3.9189 C   0  0  0  0  0  0  0  0  0  0  0  0
    1.3457   -1.4067   -3.9253 C   0  0  0  0  0  0  0  0  0  0  0  0
    0.7914   -0.7973   -5.0651 C   0  0  0  0  0  0  0  0  0  0  0  0
    0.1865   -1.5724   -6.0676 C   0  0  0  0  0  0  0  0  0  0  0  0
    0.1388   -2.9726   -5.9490 C   0  0  0  0  0  0  0  0  0  0  0  0
   -0.7717   -3.9793   -7.1241 S   0  0  0  0  0  0  0  0  0  0  0  0
    0.4920   -3.8705   -8.4291 C   0  0  0  0  0  0  0  0  0  0  0  0
    0.7118   -3.5825   -4.8226 C   0  0  0  0  0  0  0  0  0  0  0  0
    1.3008   -2.8071   -3.8175 C   0  0  0  0  0  0  0  0  0  0  0  0
    1.8339   -1.7137   -0.6101 C   0  0  0  0  0  0  0  0  0  0  0  0
    3.3113   -2.4606   -0.4200 S   0  0  0  0  0  0  0  0  0  0  0  0
   -1.0063    0.2818   -1.8919 C   0  0  0  0  0  0  0  0  0  0  0  0
   -1.9737   -0.2271   -2.7533 C   0  0  0  0  0  0  0  0  0  0  0  0
   -1.8351   -1.4613   -3.3068 F   0  0  0  0  0  0  0  0  0  0  0  0
   -3.1577    0.4856   -2.9621 C   0  0  0  0  0  0  0  0  0  0  0  0
   -4.0711   -0.0377   -3.8198 F   0  0  0  0  0  0  0  0  0  0  0  0
   -3.4021    1.7094   -2.2961 C   0  0  0  0  0  0  0  0  0  0  0  0
   -2.4332    2.1871   -1.3779 C   0  0  0  0  0  0  0  0  0  0  0  0
   -2.7055    3.2018   -0.5240 N   0  0  0  0  0  0  0  0  0  0  0  0
   -1.7970    3.6757    0.3756 C   0  0  0  0  0  0  0  0  0  0  0  0
   -2.2135    4.6819    1.2840 O   0  0  0  0  0  0  0  0  0  0  0  0
   -1.4899    5.8486    1.7113 C   0  0  0  0  0  0  0  0  0  0  0  0
   -0.8755    5.6356    3.1121 C   0  0  0  0  0  0  0  0  0  0  0  0
   -0.5009    3.1105    0.3766 C   0  0  0  0  0  0  0  0  0  0  0  0
   -0.2693    2.0355   -0.4022 N   0  0  0  0  0  0  0  0  0  0  0  0
   -1.2031    1.5205   -1.2459 C   0  0  0  0  0  0  0  0  0  0  0  0
    0.6163    3.5507    1.2699 C   0  0  0  0  0  0  0  0  0  0  0  0
   -4.6620    2.4609   -2.6049 C   0  0  0  0  0  0  0  0  0  0  0  0
   -4.7108    3.7067   -3.1088 C   0  0  0  0  0  0  0  0  0  0  0  0
   -5.9953    4.0822   -3.7269 C   0  0  0  0  0  0  0  0  0  0  0  0
   -7.0630    4.2985   -3.0930 O   0  0  0  0  0  0  0  0  0  0  0  0
   -5.8538    4.0371   -5.1768 C   0  0  0  0  0  0  0  0  0  0  0  0
   -6.8999    3.9126   -6.1323 C   0  0  0  0  0  0  0  0  0  0  0  0
   -6.4419    3.5626   -7.3941 C   0  0  0  0  0  0  0  0  0  0  0  0
   -5.0571    3.3296   -7.6867 C   0  0  0  0  0  0  0  0  0  0  0  0
   -4.0322    3.4461   -6.7521 C   0  0  0  0  0  0  0  0  0  0  0  0
   -4.4814    3.8755   -5.4701 C   0  0  0  0  0  0  0  0  0  0  0  0
   -3.7270    3.9904   -4.1952 C   0  0  0  0  0  0  0  0  0  0  0  0
   -2.4755    4.4793   -4.0778 C   0  0  0  0  0  0  0  0  0  0  0  0
   -2.0387    5.0768   -2.8727 C   0  0  0  0  0  0  0  0  0  0  0  0
   -1.6994    5.6187   -1.9054 N   0  0  0  0  0  0  0  0  0  0  0  0
   -1.5354    4.4414   -5.1903 C   0  0  0  0  0  0  0  0  0  0  0  0
   -0.8030    4.3555   -6.0992 N   0  0  0  0  0  0  0  0  0  0  0  0
   -5.3977    2.9654   -9.0956 C   0  0  0  0  0  0  0  0  0  0  0  0
   -5.0564    4.0221  -10.1938 C   0  0  0  0  0  0  0  0  0  0  0  0
   -5.8481    3.6034  -11.4200 C   0  0  0  0  0  0  0  0  0  0  0  0
   -7.1322    3.8446  -11.1300 C   0  0  0  0  0  0  0  0  0  0  0  0
   -7.1726    4.4035   -9.7351 C   0  0  0  0  0  0  0  0  0  0  0  0
   -5.8913    5.2230   -9.7805 C   0  0  0  0  0  0  0  0  0  0  0  0
   -6.8158    3.2145   -8.7971 C   0  0  0  0  0  0  0  0  0  0  0  0
    5.8786   -2.7821    6.7078 H   0  0  0  0  0  0  0  0  0  0  0  0
    1.0114    0.6854    4.7687 H   0  0  0  0  0  0  0  0  0  0  0  0
    3.4821    1.9750    9.0756 H   0  0  0  0  0  0  0  0  0  0  0  0
    1.8566    4.6590    7.6123 H   0  0  0  0  0  0  0  0  0  0  0  0
    0.4064    3.7531    9.8005 H   0  0  0  0  0  0  0  0  0  0  0  0
   -0.9532    5.8769    8.8838 H   0  0  0  0  0  0  0  0  0  0  0  0
   -2.2032    5.1463    6.7217 H   0  0  0  0  0  0  0  0  0  0  0  0
   -1.5873    2.6147    6.1906 H   0  0  0  0  0  0  0  0  0  0  0  0
   -0.3635    1.6177    8.3663 H   0  0  0  0  0  0  0  0  0  0  0  0
   -1.7907    2.5925    8.8608 H   0  0  0  0  0  0  0  0  0  0  0  0
    0.7251    4.0582    5.5877 H   0  0  0  0  0  0  0  0  0  0  0  0
    6.5412    1.0471   -1.1539 H   0  0  0  0  0  0  0  0  0  0  0  0
    5.5650   -0.4565   -1.0114 H   0  0  0  0  0  0  0  0  0  0  0  0
    4.3482    1.8845   -0.9451 H   0  0  0  0  0  0  0  0  0  0  0  0
    3.9062    0.7160    0.3590 H   0  0  0  0  0  0  0  0  0  0  0  0
    5.0457    2.0940    0.6825 H   0  0  0  0  0  0  0  0  0  0  0  0
    7.3760    1.4179    2.9491 H   0  0  0  0  0  0  0  0  0  0  0  0
    8.0067    0.4497    4.3448 H   0  0  0  0  0  0  0  0  0  0  0  0
    8.7015    0.2080    2.6708 H   0  0  0  0  0  0  0  0  0  0  0  0
    0.7729   -4.6089   -1.0753 H   0  0  0  0  0  0  0  0  0  0  0  0
    0.3453   -6.6538   -2.3228 H   0  0  0  0  0  0  0  0  0  0  0  0
    1.9251   -9.6010   -0.9850 H   0  0  0  0  0  0  0  0  0  0  0  0
    1.4955  -10.0091   -2.7108 H   0  0  0  0  0  0  0  0  0  0  0  0
    1.1027  -11.1563   -1.4011 H   0  0  0  0  0  0  0  0  0  0  0  0
   -0.2729   -8.7849    1.3791 H   0  0  0  0  0  0  0  0  0  0  0  0
    0.1729   -6.7126    2.6407 H   0  0  0  0  0  0  0  0  0  0  0  0
    0.8154   -3.1203    4.0652 H   0  0  0  0  0  0  0  0  0  0  0  0
   -1.0160   -2.6505    5.6539 H   0  0  0  0  0  0  0  0  0  0  0  0
   -4.3569   -1.5207    3.8278 H   0  0  0  0  0  0  0  0  0  0  0  0
   -5.3348   -1.2903    5.3197 H   0  0  0  0  0  0  0  0  0  0  0  0
   -3.5917   -0.8346    5.3519 H   0  0  0  0  0  0  0  0  0  0  0  0
   -3.8346   -4.3016    2.8171 H   0  0  0  0  0  0  0  0  0  0  0  0
   -2.0309   -4.7097    1.2441 H   0  0  0  0  0  0  0  0  0  0  0  0
    1.6472    2.0287   -2.1908 H   0  0  0  0  0  0  0  0  0  0  0  0
    3.0662    3.8616   -3.0427 H   0  0  0  0  0  0  0  0  0  0  0  0
    7.1217    2.6300   -3.8664 H   0  0  0  0  0  0  0  0  0  0  0  0
    6.6957    4.1567   -2.9265 H   0  0  0  0  0  0  0  0  0  0  0  0
    7.6341    4.2518   -4.4523 H   0  0  0  0  0  0  0  0  0  0  0  0
    5.5133    0.9792   -5.1168 H   0  0  0  0  0  0  0  0  0  0  0  0
    4.1274   -0.8395   -4.2216 H   0  0  0  0  0  0  0  0  0  0  0  0
    0.7994    0.2842   -5.1729 H   0  0  0  0  0  0  0  0  0  0  0  0
   -0.2395   -1.0733   -6.9349 H   0  0  0  0  0  0  0  0  0  0  0  0
    1.5037   -4.1357   -8.0495 H   0  0  0  0  0  0  0  0  0  0  0  0
    0.2274   -4.5833   -9.2410 H   0  0  0  0  0  0  0  0  0  0  0  0
    0.5151   -2.8456   -8.8585 H   0  0  0  0  0  0  0  0  0  0  0  0
    0.6510   -4.6640   -4.7047 H   0  0  0  0  0  0  0  0  0  0  0  0
    1.7110   -3.3116   -2.9464 H   0  0  0  0  0  0  0  0  0  0  0  0
   -2.2385    6.6778    1.8022 H   0  0  0  0  0  0  0  0  0  0  0  0
   -0.7287    6.1537    0.9685 H   0  0  0  0  0  0  0  0  0  0  0  0
   -1.1341    6.4697    3.7921 H   0  0  0  0  0  0  0  0  0  0  0  0
   -1.2674    4.7025    3.5845 H   0  0  0  0  0  0  0  0  0  0  0  0
    0.2245    5.5948    3.0718 H   0  0  0  0  0  0  0  0  0  0  0  0
    1.5068    2.8947    1.1147 H   0  0  0  0  0  0  0  0  0  0  0  0
    0.3160    3.3942    2.3222 H   0  0  0  0  0  0  0  0  0  0  0  0
    0.9138    4.5924    1.0274 H   0  0  0  0  0  0  0  0  0  0  0  0
   -5.4685    1.8003   -2.8882 H   0  0  0  0  0  0  0  0  0  0  0  0
   -7.9609    4.0334   -5.8949 H   0  0  0  0  0  0  0  0  0  0  0  0
   -3.0186    3.1968   -6.9958 H   0  0  0  0  0  0  0  0  0  0  0  0
   -5.1531    1.9052   -9.3519 H   0  0  0  0  0  0  0  0  0  0  0  0
   -3.9761    4.2126  -10.3644 H   0  0  0  0  0  0  0  0  0  0  0  0
   -5.4635    3.2580  -12.3777 H   0  0  0  0  0  0  0  0  0  0  0  0
   -7.9657    3.7323  -11.8224 H   0  0  0  0  0  0  0  0  0  0  0  0
   -8.0961    4.9535   -9.4777 H   0  0  0  0  0  0  0  0  0  0  0  0
   -5.9054    6.0468  -10.5331 H   0  0  0  0  0  0  0  0  0  0  0  0
   -5.5954    5.6750   -8.8005 H   0  0  0  0  0  0  0  0  0  0  0  0
   -7.4619    2.3138   -8.8717 H   0  0  0  0  0  0  0  0  0  0  0  0
  1  2  2  3
  2  3  1  0
  3  4  2  0
  3  5  1  0
  5  6  2  0
  6  7  1  0
  7  8  2  0
  8  9  1  0
  9 10  2  0
 10 11  1  0
 11 12  2  3
 12 13  1  0
 13 14  3  0
 12 15  1  0
 15 16  3  0
  8 17  1  0
 17 18  1  0
 18 19  1  0
 19 20  2  0
 20 21  1  0
 21 22  1  0
 21 23  1  0
  1 24  1  0
 24 25  2  0
 25 26  1  0
 25 27  1  0
 27 28  1  0
 27 29  2  0
 29 30  1  0
 30 31  2  0
 31 32  1  0
 32 33  1  0
 33 34  1  0
 34 35  1  0
 32 36  2  0
 36 37  1  0
 37 38  2  0
 36 39  1  0
 29 40  1  0
 40 41  2  0
 41 42  1  0
 42 43  1  0
 43 44  2  0
 44 45  1  0
 45 46  2  0
 46 47  1  0
 47 48  1  0
 46 49  1  0
 49 50  2  0
 42 51  1  0
 51 52  2  0
 52 53  1  0
 53 54  2  0
 54 55  1  0
 55 56  1  0
 54 57  1  0
 57 58  2  0
 41 59  1  0
 59 60  1  0
 60 61  1  0
 61 62  2  0
 62 63  1  0
 63 64  1  0
 64 65  2  0
 65 66  1  0
 66 67  2  0
 67 68  1  0
 68 69  1  0
 67 70  1  0
 70 71  2  0
 63 72  1  0
 72 73  2  0
 73 74  1  0
 74 75  2  0
 75 76  1  0
 76 77  1  0
 75 78  1  0
 78 79  2  0
 62 80  1  0
 80 81  1  0
 61 82  1  0
 82 83  2  0
 83 84  1  0
 83 85  1  0
 85 86  1  0
 85 87  2  0
 87 88  1  0
 88 89  2  0
 89 90  1  0
 90 91  1  0
 91 92  1  0
 92 93  1  0
 90 94  2  0
 94 95  1  0
 95 96  2  0
 94 97  1  0
 87 98  1  0
 98 99  2  3
 99100  1  0
100101  2  0
100102  1  0
102103  2  0
103104  1  0
104105  2  0
105106  1  0
106107  2  0
107108  1  0
108109  2  3
109110  1  0
110111  3  0
109112  1  0
112113  3  0
105114  1  0
114115  1  0
115116  1  0
116117  2  0
117118  1  0
118119  1  0
118120  1  0
 11  2  1  0
 23 17  1  0
 38 24  1  0
 81 40  1  0
 96 82  1  0
108 99  1  0
120114  1  0
 10  5  1  0
 22 18  1  0
 38 30  1  0
 50 43  1  0
 58 51  1  0
 80 59  2  0
 96 88  1  0
107102  1  0
119115  1  0
 23  7  1  0
 71 64  1  0
 79 72  1  0
120104  1  0
  1121  1  0
  6122  1  0
  9123  1  0
 17124  1  0
 18125  1  0
 19126  1  0
 20127  1  0
 21128  1  0
 22129  1  0
 22130  1  0
 23131  1  0
 34132  1  0
 34133  1  0
 35134  1  0
 35135  1  0
 35136  1  0
 39137  1  0
 39138  1  0
 39139  1  0
 44140  1  0
 45141  1  0
 48142  1  0
 48143  1  0
 48144  1  0
 49145  1  0
 50146  1  0
 52147  1  0
 53148  1  0
 56149  1  0
 56150  1  0
 56151  1  0
 57152  1  0
 58153  1  0
 65154  1  0
 66155  1  0
 69156  1  0
 69157  1  0
 69158  1  0
 70159  1  0
 71160  1  0
 73161  1  0
 74162  1  0
 77163  1  0
 77164  1  0
 77165  1  0
 78166  1  0
 79167  1  0
 92168  1  0
 92169  1  0
 93170  1  0
 93171  1  0
 93172  1  0
 97173  1  0
 97174  1  0
 97175  1  0
 98176  1  0
103177  1  0
106178  1  0
114179  1  0
115180  1  0
116181  1  0
117182  1  0
118183  1  0
119184  1  0
119185  1  0
120186  1  0
M  END

