
     RDKit          3D

243265  0  0  0  0  0  0  0  0999 V2000
    4.3328    3.6424   -3.9639 C   0  0  0  0  0  0  0  0  0  0  0  0
    4.5704    3.1735   -5.2309 C   0  0  0  0  0  0  0  0  0  0  0  0
    5.2994    3.9916   -6.2561 C   0  0  0  0  0  0  0  0  0  0  0  0
    5.8763    5.0902   -6.0287 O   0  0  0  0  0  0  0  0  0  0  0  0
    5.2765    3.2426   -7.4871 C   0  0  0  0  0  0  0  0  0  0  0  0
    5.8489    3.6353   -8.7212 C   0  0  0  0  0  0  0  0  0  0  0  0
    5.6707    2.6308   -9.7037 C   0  0  0  0  0  0  0  0  0  0  0  0
    4.9827    1.3927   -9.4681 C   0  0  0  0  0  0  0  0  0  0  0  0
    4.4163    0.9696   -8.2936 C   0  0  0  0  0  0  0  0  0  0  0  0
    4.6124    1.9668   -7.2336 C   0  0  0  0  0  0  0  0  0  0  0  0
    4.1995    1.8561   -5.7946 C   0  0  0  0  0  0  0  0  0  0  0  0
    3.1366    0.9916   -5.5327 C   0  0  0  0  0  0  0  0  0  0  0  0
    3.4713   -0.3243   -5.1212 C   0  0  0  0  0  0  0  0  0  0  0  0
    3.8142   -1.4176   -4.9260 N   0  0  0  0  0  0  0  0  0  0  0  0
    1.9332    1.1554   -6.3249 C   0  0  0  0  0  0  0  0  0  0  0  0
    1.0599    1.2026   -7.1217 N   0  0  0  0  0  0  0  0  0  0  0  0
    5.0952    0.9791  -10.8560 C   0  0  0  0  0  0  0  0  0  0  0  0
    3.8276    1.0761  -11.7675 C   0  0  0  0  0  0  0  0  0  0  0  0
    4.3578    1.0280  -13.2095 C   0  0  0  0  0  0  0  0  0  0  0  0
    5.0057    2.1867  -13.4190 C   0  0  0  0  0  0  0  0  0  0  0  0
    4.8944    2.9825  -12.1312 C   0  0  0  0  0  0  0  0  0  0  0  0
    3.4944    2.5547  -11.7225 C   0  0  0  0  0  0  0  0  0  0  0  0
    5.8250    2.2448  -11.0715 C   0  0  0  0  0  0  0  0  0  0  0  0
    3.9071    2.8760   -2.7730 C   0  0  0  0  0  0  0  0  0  0  0  0
    4.5610    2.9033   -1.4810 C   0  0  0  0  0  0  0  0  0  0  0  0
    5.7901    3.5960   -1.2479 N   0  0  0  0  0  0  0  0  0  0  0  0
    6.8971    3.3852   -2.1932 C   0  0  0  0  0  0  0  0  0  0  0  0
    7.1554    2.0744   -2.6165 C   0  0  0  0  0  0  0  0  0  0  0  0
    7.9879    1.8496   -3.7415 C   0  0  0  0  0  0  0  0  0  0  0  0
    8.5850    2.9057   -4.4575 C   0  0  0  0  0  0  0  0  0  0  0  0
    9.7268    2.4250   -5.8185 S   0  0  0  0  0  0  0  0  0  0  0  0
    9.8820    4.0265   -6.6870 C   0  0  0  0  0  0  0  0  0  0  0  0
    8.3494    4.2380   -4.0153 C   0  0  0  0  0  0  0  0  0  0  0  0
    7.4834    4.4721   -2.8826 C   0  0  0  0  0  0  0  0  0  0  0  0
    5.7810    4.6665   -0.3036 C   0  0  0  0  0  0  0  0  0  0  0  0
    4.6177    5.4941   -0.1593 C   0  0  0  0  0  0  0  0  0  0  0  0
    4.5110    6.3554    0.9368 C   0  0  0  0  0  0  0  0  0  0  0  0
    5.5345    6.4286    1.9113 C   0  0  0  0  0  0  0  0  0  0  0  0
    5.4900    7.7205    3.1710 S   0  0  0  0  0  0  0  0  0  0  0  0
    4.6540    6.6924    4.4375 C   0  0  0  0  0  0  0  0  0  0  0  0
    6.7008    5.6384    1.7344 C   0  0  0  0  0  0  0  0  0  0  0  0
    6.8077    4.7746    0.6289 C   0  0  0  0  0  0  0  0  0  0  0  0
    3.7818    2.2766   -0.5090 C   0  0  0  0  0  0  0  0  0  0  0  0
    3.9517    2.0039    1.1792 S   0  0  0  0  0  0  0  0  0  0  0  0
    2.4157    1.2507    1.3593 C   0  0  0  0  0  0  0  0  0  0  0  0
    1.7815    1.2288    0.0817 C   0  0  0  0  0  0  0  0  0  0  0  0
    0.3744    0.9707   -0.0455 N   0  0  0  0  0  0  0  0  0  0  0  0
   -0.0913   -0.3970   -0.2141 C   0  0  0  0  0  0  0  0  0  0  0  0
   -1.0843   -0.9745    0.6155 C   0  0  0  0  0  0  0  0  0  0  0  0
   -1.4818   -2.3261    0.4121 C   0  0  0  0  0  0  0  0  0  0  0  0
   -0.8679   -3.1289   -0.5930 C   0  0  0  0  0  0  0  0  0  0  0  0
   -1.6280   -4.7148   -1.0405 S   0  0  0  0  0  0  0  0  0  0  0  0
   -0.6344   -5.8389    0.0075 C   0  0  0  0  0  0  0  0  0  0  0  0
    0.1241   -2.5347   -1.4177 C   0  0  0  0  0  0  0  0  0  0  0  0
    0.5239   -1.1938   -1.2175 C   0  0  0  0  0  0  0  0  0  0  0  0
   -0.5069    2.1031    0.0821 C   0  0  0  0  0  0  0  0  0  0  0  0
   -0.3422    3.1814   -0.8374 C   0  0  0  0  0  0  0  0  0  0  0  0
   -0.8978    4.4304   -0.6207 C   0  0  0  0  0  0  0  0  0  0  0  0
   -1.6956    4.6575    0.5047 C   0  0  0  0  0  0  0  0  0  0  0  0
   -2.5967    6.2013    0.6289 S   0  0  0  0  0  0  0  0  0  0  0  0
   -1.2802    7.1419    1.4910 C   0  0  0  0  0  0  0  0  0  0  0  0
   -1.9372    3.5923    1.4007 C   0  0  0  0  0  0  0  0  0  0  0  0
   -1.3573    2.3180    1.1977 C   0  0  0  0  0  0  0  0  0  0  0  0
    2.5851    1.7782   -0.9392 C   0  0  0  0  0  0  0  0  0  0  0  0
    2.4381    2.0478   -2.6190 S   0  0  0  0  0  0  0  0  0  0  0  0
    1.7959    0.5689    2.5234 C   0  0  0  0  0  0  0  0  0  0  0  0
    1.6928   -0.8467    2.5794 C   0  0  0  0  0  0  0  0  0  0  0  0
    2.7811   -1.7331    2.3101 N   0  0  0  0  0  0  0  0  0  0  0  0
    3.8186   -1.8859    3.3156 C   0  0  0  0  0  0  0  0  0  0  0  0
    4.4380   -0.7196    3.8515 C   0  0  0  0  0  0  0  0  0  0  0  0
    5.4462   -0.8422    4.8029 C   0  0  0  0  0  0  0  0  0  0  0  0
    5.8885   -2.1030    5.2511 C   0  0  0  0  0  0  0  0  0  0  0  0
    6.9938   -2.1722    6.6423 S   0  0  0  0  0  0  0  0  0  0  0  0
    8.5541   -2.2659    5.6770 C   0  0  0  0  0  0  0  0  0  0  0  0
    5.2619   -3.2682    4.7708 C   0  0  0  0  0  0  0  0  0  0  0  0
    4.2334   -3.1586    3.8156 C   0  0  0  0  0  0  0  0  0  0  0  0
    2.8455   -2.5192    1.0975 C   0  0  0  0  0  0  0  0  0  0  0  0
    2.5859   -3.9115    1.1537 C   0  0  0  0  0  0  0  0  0  0  0  0
    3.0691   -4.7472    0.1241 C   0  0  0  0  0  0  0  0  0  0  0  0
    3.6260   -4.2209   -1.0526 C   0  0  0  0  0  0  0  0  0  0  0  0
    3.8473   -5.3445   -2.4651 S   0  0  0  0  0  0  0  0  0  0  0  0
    5.4727   -4.7335   -3.0360 C   0  0  0  0  0  0  0  0  0  0  0  0
    3.7217   -2.8067   -1.1889 C   0  0  0  0  0  0  0  0  0  0  0  0
    3.3728   -1.9712   -0.0962 C   0  0  0  0  0  0  0  0  0  0  0  0
    0.6532   -1.2234    3.4415 C   0  0  0  0  0  0  0  0  0  0  0  0
   -0.1018   -2.6823    3.4929 S   0  0  0  0  0  0  0  0  0  0  0  0
   -1.4963   -2.0388    4.2344 C   0  0  0  0  0  0  0  0  0  0  0  0
   -1.3320   -0.6571    4.6294 C   0  0  0  0  0  0  0  0  0  0  0  0
   -1.8703   -0.2144    5.9285 N   0  0  0  0  0  0  0  0  0  0  0  0
   -1.7085   -1.0801    7.0875 C   0  0  0  0  0  0  0  0  0  0  0  0
   -2.7342   -1.2924    8.0269 C   0  0  0  0  0  0  0  0  0  0  0  0
   -2.5661   -2.2084    9.0940 C   0  0  0  0  0  0  0  0  0  0  0  0
   -1.3686   -2.9292    9.2317 C   0  0  0  0  0  0  0  0  0  0  0  0
   -1.0852   -3.9293   10.6790 S   0  0  0  0  0  0  0  0  0  0  0  0
   -1.7637   -5.4699    9.9487 C   0  0  0  0  0  0  0  0  0  0  0  0
   -0.3164   -2.6804    8.3296 C   0  0  0  0  0  0  0  0  0  0  0  0
   -0.4630   -1.7578    7.2877 C   0  0  0  0  0  0  0  0  0  0  0  0
   -2.2355    1.1660    6.2007 C   0  0  0  0  0  0  0  0  0  0  0  0
   -3.5483    1.4756    6.6034 C   0  0  0  0  0  0  0  0  0  0  0  0
   -3.8174    2.6315    7.3849 C   0  0  0  0  0  0  0  0  0  0  0  0
   -2.7761    3.5363    7.6877 C   0  0  0  0  0  0  0  0  0  0  0  0
   -3.1647    5.1232    8.4941 S   0  0  0  0  0  0  0  0  0  0  0  0
   -2.7248    4.6451   10.1985 C   0  0  0  0  0  0  0  0  0  0  0  0
   -1.4940    3.3105    7.1448 C   0  0  0  0  0  0  0  0  0  0  0  0
   -1.2106    2.1093    6.4312 C   0  0  0  0  0  0  0  0  0  0  0  0
   -0.0875   -0.2283    4.0737 C   0  0  0  0  0  0  0  0  0  0  0  0
    0.6003    1.2275    3.5522 S   0  0  0  0  0  0  0  0  0  0  0  0
   -2.7057   -2.8878    4.3187 C   0  0  0  0  0  0  0  0  0  0  0  0
   -3.9692   -2.4044    3.8123 C   0  0  0  0  0  0  0  0  0  0  0  0
   -4.2731   -1.1156    3.8213 N   0  0  0  0  0  0  0  0  0  0  0  0
   -5.4463   -0.6364    3.2884 C   0  0  0  0  0  0  0  0  0  0  0  0
   -5.6249    0.8209    3.1611 C   0  0  0  0  0  0  0  0  0  0  0  0
   -6.6351    1.4759    3.9051 C   0  0  0  0  0  0  0  0  0  0  0  0
   -6.9563    2.8219    3.5906 C   0  0  0  0  0  0  0  0  0  0  0  0
   -6.3119    3.4815    2.5184 C   0  0  0  0  0  0  0  0  0  0  0  0
   -6.6680    4.7899    2.1627 O   0  0  0  0  0  0  0  0  0  0  0  0
   -5.9488    5.9342    2.6252 C   0  0  0  0  0  0  0  0  0  0  0  0
   -6.3385    7.1249    1.7228 C   0  0  0  0  0  0  0  0  0  0  0  0
   -5.3195    2.8119    1.7388 C   0  0  0  0  0  0  0  0  0  0  0  0
   -4.9643    1.4982    2.0708 C   0  0  0  0  0  0  0  0  0  0  0  0
   -4.0678    0.8063    1.2794 F   0  0  0  0  0  0  0  0  0  0  0  0
   -4.7238    3.3858    0.6266 F   0  0  0  0  0  0  0  0  0  0  0  0
   -7.9186    3.4592    4.2950 F   0  0  0  0  0  0  0  0  0  0  0  0
   -7.3272    0.7796    4.8828 F   0  0  0  0  0  0  0  0  0  0  0  0
   -6.3095   -1.5745    2.6691 C   0  0  0  0  0  0  0  0  0  0  0  0
   -7.5008   -1.0838    1.8784 C   0  0  0  0  0  0  0  0  0  0  0  0
   -7.3391   -0.6080    0.5635 C   0  0  0  0  0  0  0  0  0  0  0  0
   -6.1200   -0.6333   -0.0354 F   0  0  0  0  0  0  0  0  0  0  0  0
   -8.4599   -0.0811   -0.1113 C   0  0  0  0  0  0  0  0  0  0  0  0
   -8.3125    0.3580   -1.4126 F   0  0  0  0  0  0  0  0  0  0  0  0
   -9.7300   -0.0448    0.5303 C   0  0  0  0  0  0  0  0  0  0  0  0
  -10.8644    0.4355   -0.1404 O   0  0  0  0  0  0  0  0  0  0  0  0
  -11.0770    1.8400   -0.2656 C   0  0  0  0  0  0  0  0  0  0  0  0
  -12.3407    2.0925   -1.0923 C   0  0  0  0  0  0  0  0  0  0  0  0
   -9.8587   -0.4966    1.8527 C   0  0  0  0  0  0  0  0  0  0  0  0
  -11.0588   -0.4490    2.4696 F   0  0  0  0  0  0  0  0  0  0  0  0
   -8.7426   -1.0142    2.5307 C   0  0  0  0  0  0  0  0  0  0  0  0
   -8.8475   -1.4327    3.8254 F   0  0  0  0  0  0  0  0  0  0  0  0
   -6.0205   -2.8718    2.6545 N   0  0  0  0  0  0  0  0  0  0  0  0
   -4.8228   -3.3486    3.2051 C   0  0  0  0  0  0  0  0  0  0  0  0
   -4.4794   -4.6946    3.0379 C   0  0  0  0  0  0  0  0  0  0  0  0
   -3.3825   -5.1688    3.8072 C   0  0  0  0  0  0  0  0  0  0  0  0
   -2.5462   -4.2716    4.4685 C   0  0  0  0  0  0  0  0  0  0  0  0
   -5.2913   -5.7110    2.3285 C   0  0  0  0  0  0  0  0  0  0  0  0
   -5.5142   -5.7357    0.9593 C   0  0  0  0  0  0  0  0  0  0  0  0
   -5.4722   -4.6173    0.0306 C   0  0  0  0  0  0  0  0  0  0  0  0
   -4.9694   -3.4909    0.2492 O   0  0  0  0  0  0  0  0  0  0  0  0
   -6.0560   -5.0323   -1.2290 C   0  0  0  0  0  0  0  0  0  0  0  0
   -6.1782   -4.2596   -2.4121 C   0  0  0  0  0  0  0  0  0  0  0  0
   -5.7186   -2.5254   -2.4700 Cl  0  0  0  0  0  0  0  0  0  0  0  0
   -6.6724   -4.8842   -3.5740 C   0  0  0  0  0  0  0  0  0  0  0  0
   -6.8435   -4.0156   -5.0465 Cl  0  0  0  0  0  0  0  0  0  0  0  0
   -7.0315   -6.2451   -3.5890 C   0  0  0  0  0  0  0  0  0  0  0  0
   -7.6302   -6.9697   -5.1109 Cl  0  0  0  0  0  0  0  0  0  0  0  0
   -6.9214   -7.0113   -2.4048 C   0  0  0  0  0  0  0  0  0  0  0  0
   -7.5301   -8.6951   -2.6835 Cl  0  0  0  0  0  0  0  0  0  0  0  0
   -6.4281   -6.4083   -1.1943 C   0  0  0  0  0  0  0  0  0  0  0  0
   -5.9683   -6.9499    0.1678 C   0  0  0  0  0  0  0  0  0  0  0  0
   -5.7654   -8.2228    0.5620 C   0  0  0  0  0  0  0  0  0  0  0  0
   -6.4216   -9.4434    0.1332 C   0  0  0  0  0  0  0  0  0  0  0  0
   -6.8707  -10.4685   -0.1065 N   0  0  0  0  0  0  0  0  0  0  0  0
   -4.7465   -8.5854    1.5371 C   0  0  0  0  0  0  0  0  0  0  0  0
   -3.9546   -8.9151    2.2703 N   0  0  0  0  0  0  0  0  0  0  0  0
    4.8498    4.6476   -3.7408 H   0  0  0  0  0  0  0  0  0  0  0  0
    6.3714    4.5689   -8.9165 H   0  0  0  0  0  0  0  0  0  0  0  0
    3.8670    0.0522   -8.1494 H   0  0  0  0  0  0  0  0  0  0  0  0
    5.7007    0.0462  -10.9641 H   0  0  0  0  0  0  0  0  0  0  0  0
    3.0001    0.3699  -11.5653 H   0  0  0  0  0  0  0  0  0  0  0  0
    4.2745    0.1966  -13.9348 H   0  0  0  0  0  0  0  0  0  0  0  0
    5.4856    2.4971  -14.3541 H   0  0  0  0  0  0  0  0  0  0  0  0
    5.0845    4.0860  -12.2159 H   0  0  0  0  0  0  0  0  0  0  0  0
    2.6731    2.8882  -12.4483 H   0  0  0  0  0  0  0  0  0  0  0  0
    3.1506    2.9320  -10.7096 H   0  0  0  0  0  0  0  0  0  0  0  0
    6.9109    2.0973  -11.3980 H   0  0  0  0  0  0  0  0  0  0  0  0
    6.6381    1.2356   -2.1383 H   0  0  0  0  0  0  0  0  0  0  0  0
    8.1579    0.8192   -3.9977 H   0  0  0  0  0  0  0  0  0  0  0  0
   10.1217    3.7989   -7.7425 H   0  0  0  0  0  0  0  0  0  0  0  0
   10.7515    4.6024   -6.2889 H   0  0  0  0  0  0  0  0  0  0  0  0
    8.9768    4.6855   -6.7092 H   0  0  0  0  0  0  0  0  0  0  0  0
    8.7733    5.1208   -4.5169 H   0  0  0  0  0  0  0  0  0  0  0  0
    7.1967    5.5098   -2.6627 H   0  0  0  0  0  0  0  0  0  0  0  0
    3.7772    5.3971   -0.8704 H   0  0  0  0  0  0  0  0  0  0  0  0
    3.6151    6.9856    0.9881 H   0  0  0  0  0  0  0  0  0  0  0  0
    5.0932    5.6670    4.5627 H   0  0  0  0  0  0  0  0  0  0  0  0
    4.7616    7.1851    5.3866 H   0  0  0  0  0  0  0  0  0  0  0  0
    3.5454    6.6300    4.2614 H   0  0  0  0  0  0  0  0  0  0  0  0
    7.5454    5.7085    2.4333 H   0  0  0  0  0  0  0  0  0  0  0  0
    7.6710    4.0996    0.5369 H   0  0  0  0  0  0  0  0  0  0  0  0
   -1.5149   -0.4191    1.4475 H   0  0  0  0  0  0  0  0  0  0  0  0
   -2.2883   -2.7261    1.0165 H   0  0  0  0  0  0  0  0  0  0  0  0
   -0.8303   -5.7078    1.1045 H   0  0  0  0  0  0  0  0  0  0  0  0
    0.4639   -5.7982   -0.2134 H   0  0  0  0  0  0  0  0  0  0  0  0
   -0.9645   -6.8841   -0.2177 H   0  0  0  0  0  0  0  0  0  0  0  0
    0.5411   -3.0796   -2.2635 H   0  0  0  0  0  0  0  0  0  0  0  0
    1.3137   -0.7715   -1.8754 H   0  0  0  0  0  0  0  0  0  0  0  0
    0.2617    3.0710   -1.7181 H   0  0  0  0  0  0  0  0  0  0  0  0
   -0.7030    5.1885   -1.3706 H   0  0  0  0  0  0  0  0  0  0  0  0
   -1.3928    7.0421    2.5821 H   0  0  0  0  0  0  0  0  0  0  0  0
   -0.2442    6.8363    1.1827 H   0  0  0  0  0  0  0  0  0  0  0  0
   -1.3994    8.2073    1.2431 H   0  0  0  0  0  0  0  0  0  0  0  0
   -2.5982    3.7309    2.2231 H   0  0  0  0  0  0  0  0  0  0  0  0
   -1.5188    1.5487    1.9525 H   0  0  0  0  0  0  0  0  0  0  0  0
    4.1592    0.2824    3.4737 H   0  0  0  0  0  0  0  0  0  0  0  0
    5.8267    0.0960    5.1808 H   0  0  0  0  0  0  0  0  0  0  0  0
    9.3854   -2.4657    6.3799 H   0  0  0  0  0  0  0  0  0  0  0  0
    8.8077   -1.3208    5.1430 H   0  0  0  0  0  0  0  0  0  0  0  0
    8.5886   -3.1067    4.9349 H   0  0  0  0  0  0  0  0  0  0  0  0
    5.5085   -4.2685    5.1484 H   0  0  0  0  0  0  0  0  0  0  0  0
    3.7807   -4.0783    3.4858 H   0  0  0  0  0  0  0  0  0  0  0  0
    2.1623   -4.3563    2.0675 H   0  0  0  0  0  0  0  0  0  0  0  0
    2.9210   -5.8210    0.2350 H   0  0  0  0  0  0  0  0  0  0  0  0
    5.7071   -5.2839   -3.9687 H   0  0  0  0  0  0  0  0  0  0  0  0
    5.4396   -3.6569   -3.3165 H   0  0  0  0  0  0  0  0  0  0  0  0
    6.3079   -4.9296   -2.3368 H   0  0  0  0  0  0  0  0  0  0  0  0
    4.1017   -2.3198   -2.1014 H   0  0  0  0  0  0  0  0  0  0  0  0
    3.5655   -0.8992   -0.1538 H   0  0  0  0  0  0  0  0  0  0  0  0
   -3.7077   -0.8011    7.9275 H   0  0  0  0  0  0  0  0  0  0  0  0
   -3.3808   -2.3015    9.8115 H   0  0  0  0  0  0  0  0  0  0  0  0
   -1.3595   -5.7193    8.9404 H   0  0  0  0  0  0  0  0  0  0  0  0
   -2.8722   -5.4506    9.9008 H   0  0  0  0  0  0  0  0  0  0  0  0
   -1.4957   -6.3099   10.6060 H   0  0  0  0  0  0  0  0  0  0  0  0
    0.6639   -3.1620    8.4167 H   0  0  0  0  0  0  0  0  0  0  0  0
    0.3750   -1.6065    6.5936 H   0  0  0  0  0  0  0  0  0  0  0  0
   -4.3458    0.7461    6.4868 H   0  0  0  0  0  0  0  0  0  0  0  0
   -4.8404    2.7820    7.7340 H   0  0  0  0  0  0  0  0  0  0  0  0
   -1.8894    5.3120   10.5506 H   0  0  0  0  0  0  0  0  0  0  0  0
   -2.4278    3.5682   10.3290 H   0  0  0  0  0  0  0  0  0  0  0  0
   -3.5833    4.8733   10.8601 H   0  0  0  0  0  0  0  0  0  0  0  0
   -0.6781    4.0332    7.2811 H   0  0  0  0  0  0  0  0  0  0  0  0
   -0.1649    1.8951    6.1739 H   0  0  0  0  0  0  0  0  0  0  0  0
   -6.2301    6.1179    3.6775 H   0  0  0  0  0  0  0  0  0  0  0  0
   -4.8453    5.7459    2.5420 H   0  0  0  0  0  0  0  0  0  0  0  0
   -7.3738    6.9980    1.3436 H   0  0  0  0  0  0  0  0  0  0  0  0
   -6.3064    8.0565    2.3323 H   0  0  0  0  0  0  0  0  0  0  0  0
   -5.6101    7.2072    0.8550 H   0  0  0  0  0  0  0  0  0  0  0  0
  -11.2165    2.2475    0.7500 H   0  0  0  0  0  0  0  0  0  0  0  0
  -10.2167    2.3518   -0.7240 H   0  0  0  0  0  0  0  0  0  0  0  0
  -12.2680    1.5642   -2.0700 H   0  0  0  0  0  0  0  0  0  0  0  0
  -12.4129    3.1843   -1.2876 H   0  0  0  0  0  0  0  0  0  0  0  0
  -13.2386    1.7635   -0.5345 H   0  0  0  0  0  0  0  0  0  0  0  0
   -3.0883   -6.2312    3.7286 H   0  0  0  0  0  0  0  0  0  0  0  0
   -1.6052   -4.7352    4.8145 H   0  0  0  0  0  0  0  0  0  0  0  0
   -5.3846   -6.6358    2.8865 H   0  0  0  0  0  0  0  0  0  0  0  0
  1  2  2  3
  2  3  1  0
  3  4  2  0
  3  5  1  0
  5  6  2  0
  6  7  1  0
  7  8  2  0
  8  9  1  0
  9 10  2  0
 10 11  1  0
 11 12  2  3
 12 13  1  0
 13 14  3  0
 12 15  1  0
 15 16  3  0
  8 17  1  0
 17 18  1  0
 18 19  1  0
 19 20  2  0
 20 21  1  0
 21 22  1  0
 21 23  1  0
  1 24  1  0
 24 25  2  0
 25 26  1  0
 26 27  1  0
 27 28  2  0
 28 29  1  0
 29 30  2  0
 30 31  1  0
 31 32  1  0
 30 33  1  0
 33 34  2  0
 26 35  1  0
 35 36  2  0
 36 37  1  0
 37 38  2  0
 38 39  1  0
 39 40  1  0
 38 41  1  0
 41 42  2  0
 25 43  1  0
 43 44  1  0
 44 45  1  0
 45 46  2  0
 46 47  1  0
 47 48  1  0
 48 49  2  0
 49 50  1  0
 50 51  2  0
 51 52  1  0
 52 53  1  0
 51 54  1  0
 54 55  2  0
 47 56  1  0
 56 57  2  0
 57 58  1  0
 58 59  2  0
 59 60  1  0
 60 61  1  0
 59 62  1  0
 62 63  2  0
 46 64  1  0
 64 65  1  0
 45 66  1  0
 66 67  2  0
 67 68  1  0
 68 69  1  0
 69 70  2  0
 70 71  1  0
 71 72  2  0
 72 73  1  0
 73 74  1  0
 72 75  1  0
 75 76  2  0
 68 77  1  0
 77 78  2  0
 78 79  1  0
 79 80  2  0
 80 81  1  0
 81 82  1  0
 80 83  1  0
 83 84  2  0
 67 85  1  0
 85 86  1  0
 86 87  1  0
 87 88  2  0
 88 89  1  0
 89 90  1  0
 90 91  2  0
 91 92  1  0
 92 93  2  0
 93 94  1  0
 94 95  1  0
 93 96  1  0
 96 97  2  0
 89 98  1  0
 98 99  2  0
 99100  1  0
100101  2  0
101102  1  0
102103  1  0
101104  1  0
104105  2  0
 88106  1  0
106107  1  0
 87108  1  0
108109  1  0
109110  2  0
110111  1  0
111112  1  0
112113  2  0
113114  1  0
114115  2  0
115116  1  0
116117  1  0
117118  1  0
115119  1  0
119120  2  0
120121  1  0
119122  1  0
114123  1  0
113124  1  0
111125  2  0
125126  1  0
126127  2  0
127128  1  0
127129  1  0
129130  1  0
129131  2  0
131132  1  0
132133  1  0
133134  1  0
131135  1  0
135136  1  0
135137  2  0
137138  1  0
125139  1  0
139140  2  0
140141  1  0
141142  2  0
142143  1  0
141144  1  0
144145  2  3
145146  1  0
146147  2  0
146148  1  0
148149  2  0
149150  1  0
149151  1  0
151152  1  0
151153  2  0
153154  1  0
153155  1  0
155156  1  0
155157  2  0
157158  1  0
158159  2  3
159160  1  0
160161  3  0
159162  1  0
162163  3  0
 11  2  1  0
 23 17  1  0
 65 24  1  0
107 66  1  0
143108  2  0
158145  1  0
 10  5  1  0
 22 18  1  0
 34 27  1  0
 42 35  1  0
 64 43  2  0
 76 69  1  0
 84 77  1  0
106 85  2  0
140109  1  0
157148  1  0
 23  7  1  0
 55 48  1  0
 63 56  1  0
 97 90  1  0
105 98  1  0
120112  1  0
137126  1  0
  1164  1  0
  6165  1  0
  9166  1  0
 17167  1  0
 18168  1  0
 19169  1  0
 20170  1  0
 21171  1  0
 22172  1  0
 22173  1  0
 23174  1  0
 28175  1  0
 29176  1  0
 32177  1  0
 32178  1  0
 32179  1  0
 33180  1  0
 34181  1  0
 36182  1  0
 37183  1  0
 40184  1  0
 40185  1  0
 40186  1  0
 41187  1  0
 42188  1  0
 49189  1  0
 50190  1  0
 53191  1  0
 53192  1  0
 53193  1  0
 54194  1  0
 55195  1  0
 57196  1  0
 58197  1  0
 61198  1  0
 61199  1  0
 61200  1  0
 62201  1  0
 63202  1  0
 70203  1  0
 71204  1  0
 74205  1  0
 74206  1  0
 74207  1  0
 75208  1  0
 76209  1  0
 78210  1  0
 79211  1  0
 82212  1  0
 82213  1  0
 82214  1  0
 83215  1  0
 84216  1  0
 91217  1  0
 92218  1  0
 95219  1  0
 95220  1  0
 95221  1  0
 96222  1  0
 97223  1  0
 99224  1  0
100225  1  0
103226  1  0
103227  1  0
103228  1  0
104229  1  0
105230  1  0
117231  1  0
117232  1  0
118233  1  0
118234  1  0
118235  1  0
133236  1  0
133237  1  0
134238  1  0
134239  1  0
134240  1  0
142241  1  0
143242  1  0
144243  1  0
M  END

