
     RDKit          3D

188207  0  0  0  0  0  0  0  0999 V2000
    0.5626   -1.1524    7.1735 C   0  0  0  0  0  0  0  0  0  0  0  0
    1.8633   -1.1364    6.7886 C   0  0  0  0  0  0  0  0  0  0  0  0
    2.3558   -1.4112    5.4235 C   0  0  0  0  0  0  0  0  0  0  0  0
    1.6699   -1.5226    4.3727 O   0  0  0  0  0  0  0  0  0  0  0  0
    3.7865   -1.5404    5.4649 C   0  0  0  0  0  0  0  0  0  0  0  0
    4.6268   -1.9429    4.3979 C   0  0  0  0  0  0  0  0  0  0  0  0
    5.9430   -2.1334    4.7679 C   0  0  0  0  0  0  0  0  0  0  0  0
    6.4152   -1.9590    6.1055 C   0  0  0  0  0  0  0  0  0  0  0  0
    5.5953   -1.5590    7.1505 C   0  0  0  0  0  0  0  0  0  0  0  0
    4.2380   -1.3155    6.7868 C   0  0  0  0  0  0  0  0  0  0  0  0
    3.0797   -0.9312    7.6426 C   0  0  0  0  0  0  0  0  0  0  0  0
    3.1494   -0.2998    8.8451 C   0  0  0  0  0  0  0  0  0  0  0  0
    1.9954    0.1616    9.5652 C   0  0  0  0  0  0  0  0  0  0  0  0
    1.0725    0.5329   10.1616 N   0  0  0  0  0  0  0  0  0  0  0  0
    4.4048    0.0720    9.4371 C   0  0  0  0  0  0  0  0  0  0  0  0
    5.4142    0.3746    9.9167 N   0  0  0  0  0  0  0  0  0  0  0  0
    7.7912   -2.3912    5.6890 C   0  0  0  0  0  0  0  0  0  0  0  0
    8.8737   -1.2818    5.5660 C   0  0  0  0  0  0  0  0  0  0  0  0
   10.0029   -1.8858    4.7575 C   0  0  0  0  0  0  0  0  0  0  0  0
    9.5482   -1.9983    3.5049 C   0  0  0  0  0  0  0  0  0  0  0  0
    8.1283   -1.4898    3.5126 C   0  0  0  0  0  0  0  0  0  0  0  0
    8.2979   -0.3551    4.5115 C   0  0  0  0  0  0  0  0  0  0  0  0
    7.3058   -2.5432    4.3128 C   0  0  0  0  0  0  0  0  0  0  0  0
   -0.5562   -1.3522    6.2246 C   0  0  0  0  0  0  0  0  0  0  0  0
   -0.6523   -2.5397    5.4866 C   0  0  0  0  0  0  0  0  0  0  0  0
    0.1649   -3.5912    5.7760 F   0  0  0  0  0  0  0  0  0  0  0  0
   -1.4518   -2.5895    4.3421 C   0  0  0  0  0  0  0  0  0  0  0  0
   -1.3403   -3.6727    3.5295 F   0  0  0  0  0  0  0  0  0  0  0  0
   -2.2390   -1.4782    3.9749 C   0  0  0  0  0  0  0  0  0  0  0  0
   -2.3557   -0.4060    4.8787 C   0  0  0  0  0  0  0  0  0  0  0  0
   -3.2523    0.5959    4.6675 N   0  0  0  0  0  0  0  0  0  0  0  0
   -3.3253    1.6779    5.4884 C   0  0  0  0  0  0  0  0  0  0  0  0
   -4.3146    2.6516    5.3018 O   0  0  0  0  0  0  0  0  0  0  0  0
   -5.3250    2.5659    4.3060 C   0  0  0  0  0  0  0  0  0  0  0  0
   -6.4193    3.5824    4.6033 C   0  0  0  0  0  0  0  0  0  0  0  0
   -2.4162    1.7916    6.5539 C   0  0  0  0  0  0  0  0  0  0  0  0
   -1.5354    0.7778    6.7856 N   0  0  0  0  0  0  0  0  0  0  0  0
   -1.4958   -0.3289    5.9975 C   0  0  0  0  0  0  0  0  0  0  0  0
   -2.4322    2.9759    7.4664 C   0  0  0  0  0  0  0  0  0  0  0  0
   -2.6910   -1.3515    2.5742 C   0  0  0  0  0  0  0  0  0  0  0  0
   -2.2553   -0.3372    1.6969 C   0  0  0  0  0  0  0  0  0  0  0  0
   -1.6448    0.9090    2.0933 N   0  0  0  0  0  0  0  0  0  0  0  0
   -0.2447    0.8819    2.4430 C   0  0  0  0  0  0  0  0  0  0  0  0
    0.7201    0.5145    1.4837 C   0  0  0  0  0  0  0  0  0  0  0  0
    2.0851    0.6465    1.7706 C   0  0  0  0  0  0  0  0  0  0  0  0
    2.4989    1.1475    3.0100 C   0  0  0  0  0  0  0  0  0  0  0  0
    4.2517    1.3542    3.3564 S   0  0  0  0  0  0  0  0  0  0  0  0
    4.2561    3.1289    2.9390 C   0  0  0  0  0  0  0  0  0  0  0  0
    1.5493    1.4905    3.9738 C   0  0  0  0  0  0  0  0  0  0  0  0
    0.1844    1.3534    3.6929 C   0  0  0  0  0  0  0  0  0  0  0  0
   -2.2713    2.1859    1.7657 C   0  0  0  0  0  0  0  0  0  0  0  0
   -3.4731    2.2414    1.0152 C   0  0  0  0  0  0  0  0  0  0  0  0
   -3.9423    3.4562    0.5077 C   0  0  0  0  0  0  0  0  0  0  0  0
   -3.2691    4.6439    0.7990 C   0  0  0  0  0  0  0  0  0  0  0  0
   -3.7343    6.1626   -0.0160 S   0  0  0  0  0  0  0  0  0  0  0  0
   -2.5350    5.9128   -1.3649 C   0  0  0  0  0  0  0  0  0  0  0  0
   -2.1705    4.6260    1.6555 C   0  0  0  0  0  0  0  0  0  0  0  0
   -1.6699    3.4123    2.1250 C   0  0  0  0  0  0  0  0  0  0  0  0
   -2.4343   -0.7119    0.3725 C   0  0  0  0  0  0  0  0  0  0  0  0
   -1.9434   -0.0337   -1.0730 S   0  0  0  0  0  0  0  0  0  0  0  0
   -2.5072   -1.3386   -2.0077 C   0  0  0  0  0  0  0  0  0  0  0  0
   -3.0819   -2.3212   -1.1791 C   0  0  0  0  0  0  0  0  0  0  0  0
   -3.9061   -3.4017   -1.6603 N   0  0  0  0  0  0  0  0  0  0  0  0
   -5.1971   -3.1201   -2.2557 C   0  0  0  0  0  0  0  0  0  0  0  0
   -5.9363   -4.1335   -2.9040 C   0  0  0  0  0  0  0  0  0  0  0  0
   -7.1690   -3.8455   -3.5043 C   0  0  0  0  0  0  0  0  0  0  0  0
   -7.6841   -2.5470   -3.4700 C   0  0  0  0  0  0  0  0  0  0  0  0
   -9.2561   -2.1699   -4.2468 S   0  0  0  0  0  0  0  0  0  0  0  0
   -8.5387   -1.7035   -5.8606 C   0  0  0  0  0  0  0  0  0  0  0  0
   -6.9812   -1.5434   -2.8050 C   0  0  0  0  0  0  0  0  0  0  0  0
   -5.7530   -1.8220   -2.2005 C   0  0  0  0  0  0  0  0  0  0  0  0
   -3.4405   -4.7508   -1.4956 C   0  0  0  0  0  0  0  0  0  0  0  0
   -3.7193   -5.4490   -0.3109 C   0  0  0  0  0  0  0  0  0  0  0  0
   -3.2757   -6.7668   -0.1536 C   0  0  0  0  0  0  0  0  0  0  0  0
   -2.5723   -7.3996   -1.1826 C   0  0  0  0  0  0  0  0  0  0  0  0
   -2.0231   -9.0984   -0.9725 S   0  0  0  0  0  0  0  0  0  0  0  0
   -0.4617   -8.6779   -0.1277 C   0  0  0  0  0  0  0  0  0  0  0  0
   -2.3424   -6.7280   -2.3913 C   0  0  0  0  0  0  0  0  0  0  0  0
   -2.7775   -5.4091   -2.5458 C   0  0  0  0  0  0  0  0  0  0  0  0
   -3.0123   -1.9208    0.1613 C   0  0  0  0  0  0  0  0  0  0  0  0
   -3.3320   -2.6338    1.6418 S   0  0  0  0  0  0  0  0  0  0  0  0
   -2.2113   -1.4251   -3.4441 C   0  0  0  0  0  0  0  0  0  0  0  0
   -1.2054   -2.2957   -3.8859 C   0  0  0  0  0  0  0  0  0  0  0  0
   -0.7158   -3.2528   -3.0576 F   0  0  0  0  0  0  0  0  0  0  0  0
   -0.6011   -2.1076   -5.1332 C   0  0  0  0  0  0  0  0  0  0  0  0
    0.3324   -3.0082   -5.5278 F   0  0  0  0  0  0  0  0  0  0  0  0
   -0.9224   -0.9790   -5.9253 C   0  0  0  0  0  0  0  0  0  0  0  0
   -1.9898   -0.1470   -5.5094 C   0  0  0  0  0  0  0  0  0  0  0  0
   -2.3616    0.9505   -6.2271 N   0  0  0  0  0  0  0  0  0  0  0  0
   -3.3692    1.7793   -5.8319 C   0  0  0  0  0  0  0  0  0  0  0  0
   -3.5926    3.0526   -6.6105 C   0  0  0  0  0  0  0  0  0  0  0  0
   -2.7856    4.1946   -5.9901 C   0  0  0  0  0  0  0  0  0  0  0  0
   -4.0655    1.4790   -4.6386 C   0  0  0  0  0  0  0  0  0  0  0  0
   -3.6703    0.4064   -3.9064 N   0  0  0  0  0  0  0  0  0  0  0  0
   -2.6454   -0.3962   -4.2891 C   0  0  0  0  0  0  0  0  0  0  0  0
   -5.2741    2.2361   -4.1647 C   0  0  0  0  0  0  0  0  0  0  0  0
   -6.5371    1.7840   -4.8998 C   0  0  0  0  0  0  0  0  0  0  0  0
   -0.1407   -0.6515   -7.1606 C   0  0  0  0  0  0  0  0  0  0  0  0
    1.1874   -0.4421   -7.1032 C   0  0  0  0  0  0  0  0  0  0  0  0
    2.1369   -1.5510   -6.9834 C   0  0  0  0  0  0  0  0  0  0  0  0
    2.0461   -2.6473   -7.6036 O   0  0  0  0  0  0  0  0  0  0  0  0
    3.2153   -1.1851   -6.0925 C   0  0  0  0  0  0  0  0  0  0  0  0
    4.3106   -1.9902   -5.6908 C   0  0  0  0  0  0  0  0  0  0  0  0
    5.1651   -1.3578   -4.8065 C   0  0  0  0  0  0  0  0  0  0  0  0
    4.9456   -0.0298   -4.3164 C   0  0  0  0  0  0  0  0  0  0  0  0
    3.8744    0.7569   -4.7032 C   0  0  0  0  0  0  0  0  0  0  0  0
    3.0042    0.1437   -5.6467 C   0  0  0  0  0  0  0  0  0  0  0  0
    1.7919    0.6827   -6.3224 C   0  0  0  0  0  0  0  0  0  0  0  0
    1.4235    1.9853   -6.4166 C   0  0  0  0  0  0  0  0  0  0  0  0
    0.4038    2.4098   -7.3403 C   0  0  0  0  0  0  0  0  0  0  0  0
   -0.4073    2.7741   -8.0851 N   0  0  0  0  0  0  0  0  0  0  0  0
    2.0846    3.0434   -5.6960 C   0  0  0  0  0  0  0  0  0  0  0  0
    2.6048    3.9077   -5.1172 N   0  0  0  0  0  0  0  0  0  0  0  0
    6.2022   -0.1012   -3.5050 C   0  0  0  0  0  0  0  0  0  0  0  0
    7.4263    0.7005   -4.0470 C   0  0  0  0  0  0  0  0  0  0  0  0
    8.6335    0.1641   -3.3171 C   0  0  0  0  0  0  0  0  0  0  0  0
    8.8412   -1.0737   -3.7865 C   0  0  0  0  0  0  0  0  0  0  0  0
    7.7642   -1.3303   -4.8131 C   0  0  0  0  0  0  0  0  0  0  0  0
    7.6735    0.0642   -5.4082 C   0  0  0  0  0  0  0  0  0  0  0  0
    6.4319   -1.4581   -4.0104 C   0  0  0  0  0  0  0  0  0  0  0  0
    0.2728   -0.9684    8.1947 H   0  0  0  0  0  0  0  0  0  0  0  0
    4.2690   -2.1216    3.3917 H   0  0  0  0  0  0  0  0  0  0  0  0
    5.9809   -1.4830    8.1535 H   0  0  0  0  0  0  0  0  0  0  0  0
    8.1290   -3.3410    6.1730 H   0  0  0  0  0  0  0  0  0  0  0  0
    9.1780   -0.8022    6.5193 H   0  0  0  0  0  0  0  0  0  0  0  0
   11.0101   -2.0977    5.0919 H   0  0  0  0  0  0  0  0  0  0  0  0
   10.1328   -2.3182    2.6482 H   0  0  0  0  0  0  0  0  0  0  0  0
    7.7197   -1.2070    2.5195 H   0  0  0  0  0  0  0  0  0  0  0  0
    9.0148    0.4329    4.1654 H   0  0  0  0  0  0  0  0  0  0  0  0
    7.3421    0.1390    4.8028 H   0  0  0  0  0  0  0  0  0  0  0  0
    7.3453   -3.5830    3.9173 H   0  0  0  0  0  0  0  0  0  0  0  0
   -5.7706    1.5468    4.3095 H   0  0  0  0  0  0  0  0  0  0  0  0
   -4.8861    2.7728    3.3093 H   0  0  0  0  0  0  0  0  0  0  0  0
   -6.0010    4.6145    4.5733 H   0  0  0  0  0  0  0  0  0  0  0  0
   -7.2212    3.4905    3.8373 H   0  0  0  0  0  0  0  0  0  0  0  0
   -6.8538    3.3856    5.6068 H   0  0  0  0  0  0  0  0  0  0  0  0
   -1.4628    3.0585    7.9968 H   0  0  0  0  0  0  0  0  0  0  0  0
   -3.2457    2.8539    8.2117 H   0  0  0  0  0  0  0  0  0  0  0  0
   -2.5965    3.9115    6.8901 H   0  0  0  0  0  0  0  0  0  0  0  0
    0.4186    0.1667    0.5072 H   0  0  0  0  0  0  0  0  0  0  0  0
    2.8142    0.3696    1.0213 H   0  0  0  0  0  0  0  0  0  0  0  0
    5.2867    3.5223    3.0572 H   0  0  0  0  0  0  0  0  0  0  0  0
    3.9287    3.2860    1.8900 H   0  0  0  0  0  0  0  0  0  0  0  0
    3.5828    3.6825    3.6288 H   0  0  0  0  0  0  0  0  0  0  0  0
    1.8532    1.8633    4.9431 H   0  0  0  0  0  0  0  0  0  0  0  0
   -0.5308    1.6970    4.4203 H   0  0  0  0  0  0  0  0  0  0  0  0
   -4.0328    1.3527    0.7702 H   0  0  0  0  0  0  0  0  0  0  0  0
   -4.8106    3.4701   -0.1359 H   0  0  0  0  0  0  0  0  0  0  0  0
   -2.6504    4.9071   -1.8243 H   0  0  0  0  0  0  0  0  0  0  0  0
   -1.5059    6.0214   -0.9503 H   0  0  0  0  0  0  0  0  0  0  0  0
   -2.6907    6.6873   -2.1449 H   0  0  0  0  0  0  0  0  0  0  0  0
   -1.6605    5.5476    1.9116 H   0  0  0  0  0  0  0  0  0  0  0  0
   -0.7853    3.4589    2.7336 H   0  0  0  0  0  0  0  0  0  0  0  0
   -5.5624   -5.1508   -2.9650 H   0  0  0  0  0  0  0  0  0  0  0  0
   -7.7122   -4.6345   -4.0078 H   0  0  0  0  0  0  0  0  0  0  0  0
   -8.8073   -2.4749   -6.6106 H   0  0  0  0  0  0  0  0  0  0  0  0
   -8.9683   -0.7307   -6.1793 H   0  0  0  0  0  0  0  0  0  0  0  0
   -7.4322   -1.6046   -5.8264 H   0  0  0  0  0  0  0  0  0  0  0  0
   -7.3840   -0.5385   -2.7521 H   0  0  0  0  0  0  0  0  0  0  0  0
   -5.2476   -1.0137   -1.6923 H   0  0  0  0  0  0  0  0  0  0  0  0
   -4.2981   -4.9900    0.4761 H   0  0  0  0  0  0  0  0  0  0  0  0
   -3.4832   -7.2914    0.7727 H   0  0  0  0  0  0  0  0  0  0  0  0
    0.3864   -9.0447   -0.7385 H   0  0  0  0  0  0  0  0  0  0  0  0
   -0.4387   -9.1890    0.8554 H   0  0  0  0  0  0  0  0  0  0  0  0
   -0.3376   -7.5875    0.0373 H   0  0  0  0  0  0  0  0  0  0  0  0
   -1.8169   -7.2172   -3.1970 H   0  0  0  0  0  0  0  0  0  0  0  0
   -2.6311   -4.9051   -3.4965 H   0  0  0  0  0  0  0  0  0  0  0  0
   -3.2594    2.9069   -7.6633 H   0  0  0  0  0  0  0  0  0  0  0  0
   -4.6661    3.3257   -6.6399 H   0  0  0  0  0  0  0  0  0  0  0  0
   -3.2410    4.5245   -5.0336 H   0  0  0  0  0  0  0  0  0  0  0  0
   -1.7426    3.8672   -5.7889 H   0  0  0  0  0  0  0  0  0  0  0  0
   -2.7552    5.0556   -6.6901 H   0  0  0  0  0  0  0  0  0  0  0  0
   -5.1396    3.3331   -4.2751 H   0  0  0  0  0  0  0  0  0  0  0  0
   -5.4105    2.0429   -3.0790 H   0  0  0  0  0  0  0  0  0  0  0  0
   -6.4620    0.7223   -5.2352 H   0  0  0  0  0  0  0  0  0  0  0  0
   -7.4245    1.8684   -4.2291 H   0  0  0  0  0  0  0  0  0  0  0  0
   -6.7128    2.4263   -5.7912 H   0  0  0  0  0  0  0  0  0  0  0  0
   -0.6626    0.0212   -7.8271 H   0  0  0  0  0  0  0  0  0  0  0  0
    4.4752   -2.9958   -6.0502 H   0  0  0  0  0  0  0  0  0  0  0  0
    3.7377    1.7362   -4.2821 H   0  0  0  0  0  0  0  0  0  0  0  0
    6.0287   -0.0366   -2.4051 H   0  0  0  0  0  0  0  0  0  0  0  0
    7.3183    1.8065   -4.0431 H   0  0  0  0  0  0  0  0  0  0  0  0
    9.2875    0.7087   -2.6402 H   0  0  0  0  0  0  0  0  0  0  0  0
    9.6887   -1.7058   -3.5476 H   0  0  0  0  0  0  0  0  0  0  0  0
    7.9772   -2.1528   -5.5275 H   0  0  0  0  0  0  0  0  0  0  0  0
    8.6230    0.4024   -5.8915 H   0  0  0  0  0  0  0  0  0  0  0  0
    6.8388    0.2031   -6.1316 H   0  0  0  0  0  0  0  0  0  0  0  0
    6.4109   -2.2571   -3.2325 H   0  0  0  0  0  0  0  0  0  0  0  0
  1  2  2  3
  2  3  1  0
  3  4  2  0
  3  5  1  0
  5  6  2  0
  6  7  1  0
  7  8  2  0
  8  9  1  0
  9 10  2  0
 10 11  1  0
 11 12  2  3
 12 13  1  0
 13 14  3  0
 12 15  1  0
 15 16  3  0
  8 17  1  0
 17 18  1  0
 18 19  1  0
 19 20  2  0
 20 21  1  0
 21 22  1  0
 21 23  1  0
  1 24  1  0
 24 25  2  0
 25 26  1  0
 25 27  1  0
 27 28  1  0
 27 29  2  0
 29 30  1  0
 30 31  2  0
 31 32  1  0
 32 33  1  0
 33 34  1  0
 34 35  1  0
 32 36  2  0
 36 37  1  0
 37 38  2  0
 36 39  1  0
 29 40  1  0
 40 41  2  0
 41 42  1  0
 42 43  1  0
 43 44  2  0
 44 45  1  0
 45 46  2  0
 46 47  1  0
 47 48  1  0
 46 49  1  0
 49 50  2  0
 42 51  1  0
 51 52  2  0
 52 53  1  0
 53 54  2  0
 54 55  1  0
 55 56  1  0
 54 57  1  0
 57 58  2  0
 41 59  1  0
 59 60  1  0
 60 61  1  0
 61 62  2  0
 62 63  1  0
 63 64  1  0
 64 65  2  0
 65 66  1  0
 66 67  2  0
 67 68  1  0
 68 69  1  0
 67 70  1  0
 70 71  2  0
 63 72  1  0
 72 73  2  0
 73 74  1  0
 74 75  2  0
 75 76  1  0
 76 77  1  0
 75 78  1  0
 78 79  2  0
 62 80  1  0
 80 81  1  0
 61 82  1  0
 82 83  2  0
 83 84  1  0
 83 85  1  0
 85 86  1  0
 85 87  2  0
 87 88  1  0
 88 89  2  0
 89 90  1  0
 90 91  1  0
 91 92  1  0
 90 93  2  0
 93 94  1  0
 94 95  2  0
 93 96  1  0
 96 97  1  0
 87 98  1  0
 98 99  2  3
 99100  1  0
100101  2  0
100102  1  0
102103  2  0
103104  1  0
104105  2  0
105106  1  0
106107  2  0
107108  1  0
108109  2  3
109110  1  0
110111  3  0
109112  1  0
112113  3  0
105114  1  0
114115  1  0
115116  1  0
116117  2  0
117118  1  0
118119  1  0
118120  1  0
 11  2  1  0
 23 17  1  0
 38 24  1  0
 81 40  1  0
 95 82  1  0
108 99  1  0
120114  1  0
 10  5  1  0
 22 18  1  0
 38 30  1  0
 50 43  1  0
 58 51  1  0
 80 59  2  0
 95 88  1  0
107102  1  0
119115  1  0
 23  7  1  0
 71 64  1  0
 79 72  1  0
120104  1  0
  1121  1  0
  6122  1  0
  9123  1  0
 17124  1  0
 18125  1  0
 19126  1  0
 20127  1  0
 21128  1  0
 22129  1  0
 22130  1  0
 23131  1  0
 34132  1  0
 34133  1  0
 35134  1  0
 35135  1  0
 35136  1  0
 39137  1  0
 39138  1  0
 39139  1  0
 44140  1  0
 45141  1  0
 48142  1  0
 48143  1  0
 48144  1  0
 49145  1  0
 50146  1  0
 52147  1  0
 53148  1  0
 56149  1  0
 56150  1  0
 56151  1  0
 57152  1  0
 58153  1  0
 65154  1  0
 66155  1  0
 69156  1  0
 69157  1  0
 69158  1  0
 70159  1  0
 71160  1  0
 73161  1  0
 74162  1  0
 77163  1  0
 77164  1  0
 77165  1  0
 78166  1  0
 79167  1  0
 91168  1  0
 91169  1  0
 92170  1  0
 92171  1  0
 92172  1  0
 96173  1  0
 96174  1  0
 97175  1  0
 97176  1  0
 97177  1  0
 98178  1  0
103179  1  0
106180  1  0
114181  1  0
115182  1  0
116183  1  0
117184  1  0
118185  1  0
119186  1  0
119187  1  0
120188  1  0
M  END

