
     RDKit          3D

270295  0  0  0  0  0  0  0  0999 V2000
   -4.6086    3.1798    5.3897 C   0  0  0  0  0  0  0  0  0  0  0  0
   -4.5204    4.5054    5.2079 C   0  0  0  0  0  0  0  0  0  0  0  0
   -4.6712    5.2000    3.9218 C   0  0  0  0  0  0  0  0  0  0  0  0
   -4.5683    4.6842    2.7767 O   0  0  0  0  0  0  0  0  0  0  0  0
   -5.0242    6.5786    4.1886 C   0  0  0  0  0  0  0  0  0  0  0  0
   -5.5218    7.5271    3.2647 C   0  0  0  0  0  0  0  0  0  0  0  0
   -6.0005    8.6823    3.8598 C   0  0  0  0  0  0  0  0  0  0  0  0
   -5.9927    8.8956    5.2778 C   0  0  0  0  0  0  0  0  0  0  0  0
   -5.4924    7.9800    6.1858 C   0  0  0  0  0  0  0  0  0  0  0  0
   -4.9936    6.7883    5.5933 C   0  0  0  0  0  0  0  0  0  0  0  0
   -4.5431    5.5457    6.2642 C   0  0  0  0  0  0  0  0  0  0  0  0
   -3.9445    5.4628    7.4797 C   0  0  0  0  0  0  0  0  0  0  0  0
   -3.2864    4.2589    7.9269 C   0  0  0  0  0  0  0  0  0  0  0  0
   -2.7510    3.2974    8.2889 N   0  0  0  0  0  0  0  0  0  0  0  0
   -3.7336    6.6235    8.3064 C   0  0  0  0  0  0  0  0  0  0  0  0
   -3.5407    7.5520    8.9678 N   0  0  0  0  0  0  0  0  0  0  0  0
   -6.7388   10.1836    5.1077 C   0  0  0  0  0  0  0  0  0  0  0  0
   -8.2558   10.1934    5.4734 C   0  0  0  0  0  0  0  0  0  0  0  0
   -8.8643    8.8307    5.2220 C   0  0  0  0  0  0  0  0  0  0  0  0
   -8.8642    8.6529    3.9013 C   0  0  0  0  0  0  0  0  0  0  0  0
   -8.2518    9.8957    3.2969 C   0  0  0  0  0  0  0  0  0  0  0  0
   -8.8071   10.9236    4.2651 C   0  0  0  0  0  0  0  0  0  0  0  0
   -6.7353    9.9751    3.6550 C   0  0  0  0  0  0  0  0  0  0  0  0
   -4.4082    2.2384    4.2882 C   0  0  0  0  0  0  0  0  0  0  0  0
   -3.1589    1.8141    3.8486 C   0  0  0  0  0  0  0  0  0  0  0  0
   -1.9147    2.1893    4.4541 N   0  0  0  0  0  0  0  0  0  0  0  0
   -1.2523    1.2624    5.3371 C   0  0  0  0  0  0  0  0  0  0  0  0
    0.1375    1.0710    5.2474 C   0  0  0  0  0  0  0  0  0  0  0  0
    0.7845    0.2030    6.1273 C   0  0  0  0  0  0  0  0  0  0  0  0
    0.0609   -0.4827    7.1040 C   0  0  0  0  0  0  0  0  0  0  0  0
    0.9246   -1.5565    8.2528 S   0  0  0  0  0  0  0  0  0  0  0  0
    1.2138   -0.2305    9.4678 C   0  0  0  0  0  0  0  0  0  0  0  0
   -1.3261   -0.3202    7.1870 C   0  0  0  0  0  0  0  0  0  0  0  0
   -1.9827    0.5469    6.3042 C   0  0  0  0  0  0  0  0  0  0  0  0
   -1.2654    3.4133    4.0604 C   0  0  0  0  0  0  0  0  0  0  0  0
   -1.1633    3.7640    2.7026 C   0  0  0  0  0  0  0  0  0  0  0  0
   -0.4271    4.8842    2.3143 C   0  0  0  0  0  0  0  0  0  0  0  0
    0.2154    5.6705    3.2783 C   0  0  0  0  0  0  0  0  0  0  0  0
    1.2285    7.0601    2.7680 S   0  0  0  0  0  0  0  0  0  0  0  0
    2.7475    6.0610    2.6289 C   0  0  0  0  0  0  0  0  0  0  0  0
    0.0803    5.3562    4.6354 C   0  0  0  0  0  0  0  0  0  0  0  0
   -0.6539    4.2326    5.0258 C   0  0  0  0  0  0  0  0  0  0  0  0
   -3.2653    0.9657    2.7636 C   0  0  0  0  0  0  0  0  0  0  0  0
   -2.1286    0.2306    1.8082 S   0  0  0  0  0  0  0  0  0  0  0  0
   -3.2803   -0.4243    0.7431 C   0  0  0  0  0  0  0  0  0  0  0  0
   -4.5930   -0.1212    1.1750 C   0  0  0  0  0  0  0  0  0  0  0  0
   -5.8150   -0.6105    0.5662 N   0  0  0  0  0  0  0  0  0  0  0  0
   -7.0903   -0.1394    1.0197 C   0  0  0  0  0  0  0  0  0  0  0  0
   -7.8676   -0.9314    1.8782 C   0  0  0  0  0  0  0  0  0  0  0  0
   -9.0752   -0.4386    2.3844 C   0  0  0  0  0  0  0  0  0  0  0  0
   -9.5103    0.8442    2.0283 C   0  0  0  0  0  0  0  0  0  0  0  0
  -11.0237    1.5125    2.7211 S   0  0  0  0  0  0  0  0  0  0  0  0
  -10.1535    2.3877    4.0622 C   0  0  0  0  0  0  0  0  0  0  0  0
   -8.7550    1.6180    1.1385 C   0  0  0  0  0  0  0  0  0  0  0  0
   -7.5460    1.1288    0.6406 C   0  0  0  0  0  0  0  0  0  0  0  0
   -5.8133   -1.6824   -0.3952 C   0  0  0  0  0  0  0  0  0  0  0  0
   -6.3571   -1.4805   -1.6732 C   0  0  0  0  0  0  0  0  0  0  0  0
   -6.3756   -2.5249   -2.6036 C   0  0  0  0  0  0  0  0  0  0  0  0
   -5.8543   -3.7790   -2.2640 C   0  0  0  0  0  0  0  0  0  0  0  0
   -5.9376   -5.1407   -3.4343 S   0  0  0  0  0  0  0  0  0  0  0  0
   -4.3430   -4.7561   -4.2251 C   0  0  0  0  0  0  0  0  0  0  0  0
   -5.3266   -3.9899   -0.9840 C   0  0  0  0  0  0  0  0  0  0  0  0
   -5.3215   -2.9511   -0.0480 C   0  0  0  0  0  0  0  0  0  0  0  0
   -4.5246    0.7036    2.3185 C   0  0  0  0  0  0  0  0  0  0  0  0
   -5.6172    1.5360    3.3090 S   0  0  0  0  0  0  0  0  0  0  0  0
   -2.8327   -1.2224   -0.3908 C   0  0  0  0  0  0  0  0  0  0  0  0
   -2.4957   -0.7216   -1.6747 C   0  0  0  0  0  0  0  0  0  0  0  0
   -3.1336    0.3805   -2.3820 N   0  0  0  0  0  0  0  0  0  0  0  0
   -3.0849    0.4055   -3.8246 C   0  0  0  0  0  0  0  0  0  0  0  0
   -2.5478    1.5169   -4.4949 C   0  0  0  0  0  0  0  0  0  0  0  0
   -2.4201    1.5061   -5.8867 C   0  0  0  0  0  0  0  0  0  0  0  0
   -2.8389    0.3905   -6.6230 C   0  0  0  0  0  0  0  0  0  0  0  0
   -2.5816    0.3405   -8.3993 S   0  0  0  0  0  0  0  0  0  0  0  0
   -4.1967    1.0809   -8.7914 C   0  0  0  0  0  0  0  0  0  0  0  0
   -3.4074   -0.7051   -5.9626 C   0  0  0  0  0  0  0  0  0  0  0  0
   -3.5395   -0.6935   -4.5692 C   0  0  0  0  0  0  0  0  0  0  0  0
   -3.8068    1.4859   -1.7418 C   0  0  0  0  0  0  0  0  0  0  0  0
   -5.0360    1.9370   -2.2601 C   0  0  0  0  0  0  0  0  0  0  0  0
   -5.5818    3.1528   -1.8472 C   0  0  0  0  0  0  0  0  0  0  0  0
   -4.9411    3.9123   -0.8638 C   0  0  0  0  0  0  0  0  0  0  0  0
   -5.5920    5.5231   -0.4000 S   0  0  0  0  0  0  0  0  0  0  0  0
   -7.0056    4.8653    0.5389 C   0  0  0  0  0  0  0  0  0  0  0  0
   -3.7358    3.4587   -0.3156 C   0  0  0  0  0  0  0  0  0  0  0  0
   -3.1517    2.2716   -0.7792 C   0  0  0  0  0  0  0  0  0  0  0  0
   -1.4654   -1.4986   -2.2333 C   0  0  0  0  0  0  0  0  0  0  0  0
   -0.4576   -1.3162   -3.5604 S   0  0  0  0  0  0  0  0  0  0  0  0
    0.5764   -2.6058   -3.1542 C   0  0  0  0  0  0  0  0  0  0  0  0
    0.1384   -3.1813   -1.9460 C   0  0  0  0  0  0  0  0  0  0  0  0
    0.8078   -4.2545   -1.2513 N   0  0  0  0  0  0  0  0  0  0  0  0
    1.4417   -5.3221   -1.9877 C   0  0  0  0  0  0  0  0  0  0  0  0
    2.6998   -5.8004   -1.5883 C   0  0  0  0  0  0  0  0  0  0  0  0
    3.3516   -6.7872   -2.3295 C   0  0  0  0  0  0  0  0  0  0  0  0
    2.7335   -7.3398   -3.4565 C   0  0  0  0  0  0  0  0  0  0  0  0
    3.5666   -8.6296   -4.3858 S   0  0  0  0  0  0  0  0  0  0  0  0
    3.0111   -9.9527   -3.2666 C   0  0  0  0  0  0  0  0  0  0  0  0
    1.4711   -6.8838   -3.8547 C   0  0  0  0  0  0  0  0  0  0  0  0
    0.8259   -5.8776   -3.1252 C   0  0  0  0  0  0  0  0  0  0  0  0
    0.8497   -4.2666    0.1895 C   0  0  0  0  0  0  0  0  0  0  0  0
    1.3644   -3.1693    0.8981 C   0  0  0  0  0  0  0  0  0  0  0  0
    1.4028   -3.1860    2.2965 C   0  0  0  0  0  0  0  0  0  0  0  0
    0.8986   -4.2863    2.9997 C   0  0  0  0  0  0  0  0  0  0  0  0
    0.9493   -4.3101    4.7943 S   0  0  0  0  0  0  0  0  0  0  0  0
   -0.6792   -3.5179    4.9898 C   0  0  0  0  0  0  0  0  0  0  0  0
    0.3662   -5.3756    2.2967 C   0  0  0  0  0  0  0  0  0  0  0  0
    0.3514   -5.3709    0.8979 C   0  0  0  0  0  0  0  0  0  0  0  0
   -1.0137   -2.5347   -1.4816 C   0  0  0  0  0  0  0  0  0  0  0  0
   -1.8654   -2.5841   -0.0531 S   0  0  0  0  0  0  0  0  0  0  0  0
    1.8467   -2.8237   -3.8667 C   0  0  0  0  0  0  0  0  0  0  0  0
    3.0778   -2.4997   -3.2602 C   0  0  0  0  0  0  0  0  0  0  0  0
    3.1932   -2.3784   -1.9099 N   0  0  0  0  0  0  0  0  0  0  0  0
    4.3491   -1.9499   -1.3329 C   0  0  0  0  0  0  0  0  0  0  0  0
    4.5676   -2.1560    0.1086 C   0  0  0  0  0  0  0  0  0  0  0  0
    5.0105   -3.4121    0.5391 C   0  0  0  0  0  0  0  0  0  0  0  0
    5.4334   -3.6017    1.8527 C   0  0  0  0  0  0  0  0  0  0  0  0
    5.4701   -2.5182    2.7487 C   0  0  0  0  0  0  0  0  0  0  0  0
    6.0181   -2.6469    4.0330 O   0  0  0  0  0  0  0  0  0  0  0  0
    6.6261   -3.8343    4.5414 C   0  0  0  0  0  0  0  0  0  0  0  0
    7.1676   -3.5632    5.9365 C   0  0  0  0  0  0  0  0  0  0  0  0
    4.9946   -1.2630    2.3259 C   0  0  0  0  0  0  0  0  0  0  0  0
    4.5286   -1.0901    1.0147 C   0  0  0  0  0  0  0  0  0  0  0  0
    5.0706   -0.1482    3.1639 O   0  0  0  0  0  0  0  0  0  0  0  0
    4.1257    0.1057    4.2026 C   0  0  0  0  0  0  0  0  0  0  0  0
    4.6108   -0.4712    5.5291 C   0  0  0  0  0  0  0  0  0  0  0  0
    5.4179   -1.5539   -2.1559 C   0  0  0  0  0  0  0  0  0  0  0  0
    6.5354   -0.7647   -1.6154 C   0  0  0  0  0  0  0  0  0  0  0  0
    7.8073   -1.3112   -1.4615 C   0  0  0  0  0  0  0  0  0  0  0  0
    8.8414   -0.5345   -0.9221 C   0  0  0  0  0  0  0  0  0  0  0  0
    8.6097    0.8051   -0.5351 C   0  0  0  0  0  0  0  0  0  0  0  0
    9.6462    1.6282   -0.0634 O   0  0  0  0  0  0  0  0  0  0  0  0
   10.9154    1.1893    0.4158 C   0  0  0  0  0  0  0  0  0  0  0  0
   10.7704    0.5599    1.7950 C   0  0  0  0  0  0  0  0  0  0  0  0
    7.3087    1.3419   -0.6735 C   0  0  0  0  0  0  0  0  0  0  0  0
    6.9555    2.6373   -0.2647 O   0  0  0  0  0  0  0  0  0  0  0  0
    7.6528    3.4249    0.7026 C   0  0  0  0  0  0  0  0  0  0  0  0
    6.7454    4.5430    1.1944 C   0  0  0  0  0  0  0  0  0  0  0  0
    6.2972    0.5594   -1.2349 C   0  0  0  0  0  0  0  0  0  0  0  0
    5.3420   -1.7673   -3.4932 N   0  0  0  0  0  0  0  0  0  0  0  0
    4.2197   -2.2800   -4.0636 C   0  0  0  0  0  0  0  0  0  0  0  0
    4.1680   -2.5352   -5.4420 C   0  0  0  0  0  0  0  0  0  0  0  0
    2.9553   -2.9435   -6.0238 C   0  0  0  0  0  0  0  0  0  0  0  0
    1.8011   -3.0560   -5.2498 C   0  0  0  0  0  0  0  0  0  0  0  0
    0.6280   -3.3702   -5.8552 F   0  0  0  0  0  0  0  0  0  0  0  0
    2.8832   -3.1925   -7.3566 F   0  0  0  0  0  0  0  0  0  0  0  0
    5.3603   -2.3829   -6.2964 C   0  0  0  0  0  0  0  0  0  0  0  0
    5.9271   -3.4541   -6.8799 C   0  0  0  0  0  0  0  0  0  0  0  0
    5.5790   -4.8366   -6.5339 C   0  0  0  0  0  0  0  0  0  0  0  0
    5.3321   -5.2659   -5.3756 O   0  0  0  0  0  0  0  0  0  0  0  0
    5.4625   -5.6038   -7.7532 C   0  0  0  0  0  0  0  0  0  0  0  0
    4.7783   -6.8312   -7.8960 C   0  0  0  0  0  0  0  0  0  0  0  0
    4.4254   -7.1188   -9.1985 C   0  0  0  0  0  0  0  0  0  0  0  0
    4.7252   -6.2597  -10.3058 C   0  0  0  0  0  0  0  0  0  0  0  0
    5.4362   -5.0774  -10.1777 C   0  0  0  0  0  0  0  0  0  0  0  0
    5.8193   -4.7655   -8.8440 C   0  0  0  0  0  0  0  0  0  0  0  0
    6.3130   -3.4712   -8.3118 C   0  0  0  0  0  0  0  0  0  0  0  0
    7.0697   -2.5530   -8.9549 C   0  0  0  0  0  0  0  0  0  0  0  0
    7.6270   -1.4181   -8.2582 C   0  0  0  0  0  0  0  0  0  0  0  0
    8.0668   -0.5040   -7.7009 N   0  0  0  0  0  0  0  0  0  0  0  0
    7.4573   -2.7134  -10.3311 C   0  0  0  0  0  0  0  0  0  0  0  0
    7.7709   -2.8317  -11.4420 N   0  0  0  0  0  0  0  0  0  0  0  0
    3.8918   -7.1139  -11.2132 C   0  0  0  0  0  0  0  0  0  0  0  0
    2.4780   -6.5850  -11.6127 C   0  0  0  0  0  0  0  0  0  0  0  0
    1.9019   -5.7309  -10.5040 C   0  0  0  0  0  0  0  0  0  0  0  0
    1.6452   -6.5525   -9.4853 C   0  0  0  0  0  0  0  0  0  0  0  0
    2.0587   -7.9350   -9.9341 C   0  0  0  0  0  0  0  0  0  0  0  0
    1.6576   -7.8416  -11.3939 C   0  0  0  0  0  0  0  0  0  0  0  0
    3.6105   -8.0088  -10.0862 C   0  0  0  0  0  0  0  0  0  0  0  0
   -4.7061    2.7625    6.3799 H   0  0  0  0  0  0  0  0  0  0  0  0
   -5.6044    7.3400    2.2042 H   0  0  0  0  0  0  0  0  0  0  0  0
   -5.5932    8.1287    7.2487 H   0  0  0  0  0  0  0  0  0  0  0  0
   -6.1744   11.0825    5.4344 H   0  0  0  0  0  0  0  0  0  0  0  0
   -8.4995   10.6391    6.4605 H   0  0  0  0  0  0  0  0  0  0  0  0
   -9.2741    8.1491    5.9580 H   0  0  0  0  0  0  0  0  0  0  0  0
   -9.2774    7.8024    3.3730 H   0  0  0  0  0  0  0  0  0  0  0  0
   -8.4926   10.0619    2.2280 H   0  0  0  0  0  0  0  0  0  0  0  0
   -8.3783   11.9434    4.1304 H   0  0  0  0  0  0  0  0  0  0  0  0
   -9.9222   10.9844    4.2559 H   0  0  0  0  0  0  0  0  0  0  0  0
   -6.1566   10.7397    3.0972 H   0  0  0  0  0  0  0  0  0  0  0  0
    0.7198    1.5909    4.4947 H   0  0  0  0  0  0  0  0  0  0  0  0
    1.8518    0.0727    6.0565 H   0  0  0  0  0  0  0  0  0  0  0  0
    1.4985    0.7196    8.9692 H   0  0  0  0  0  0  0  0  0  0  0  0
    0.2964   -0.0775   10.0712 H   0  0  0  0  0  0  0  0  0  0  0  0
    2.0395   -0.5356   10.1435 H   0  0  0  0  0  0  0  0  0  0  0  0
   -1.8939   -0.8521    7.9406 H   0  0  0  0  0  0  0  0  0  0  0  0
   -3.0539    0.6766    6.3929 H   0  0  0  0  0  0  0  0  0  0  0  0
   -1.6064    3.1415    1.9410 H   0  0  0  0  0  0  0  0  0  0  0  0
   -0.3273    5.1187    1.2614 H   0  0  0  0  0  0  0  0  0  0  0  0
    2.5658    5.1525    2.0188 H   0  0  0  0  0  0  0  0  0  0  0  0
    3.5372    6.6666    2.1381 H   0  0  0  0  0  0  0  0  0  0  0  0
    3.0955    5.7702    3.6407 H   0  0  0  0  0  0  0  0  0  0  0  0
    0.5670    5.9652    5.3870 H   0  0  0  0  0  0  0  0  0  0  0  0
   -0.7272    3.9811    6.0778 H   0  0  0  0  0  0  0  0  0  0  0  0
   -7.5194   -1.9133    2.1750 H   0  0  0  0  0  0  0  0  0  0  0  0
   -9.6593   -1.0493    3.0632 H   0  0  0  0  0  0  0  0  0  0  0  0
  -10.8937    2.9561    4.6649 H   0  0  0  0  0  0  0  0  0  0  0  0
   -9.4183    3.1030    3.6354 H   0  0  0  0  0  0  0  0  0  0  0  0
   -9.6332    1.6615    4.7200 H   0  0  0  0  0  0  0  0  0  0  0  0
   -9.0960    2.6045    0.8549 H   0  0  0  0  0  0  0  0  0  0  0  0
   -6.9506    1.7437   -0.0159 H   0  0  0  0  0  0  0  0  0  0  0  0
   -6.7704   -0.5173   -1.9426 H   0  0  0  0  0  0  0  0  0  0  0  0
   -6.8008   -2.3596   -3.5841 H   0  0  0  0  0  0  0  0  0  0  0  0
   -3.5320   -4.7439   -3.4675 H   0  0  0  0  0  0  0  0  0  0  0  0
   -4.1192   -5.5411   -4.9754 H   0  0  0  0  0  0  0  0  0  0  0  0
   -4.4012   -3.7794   -4.7421 H   0  0  0  0  0  0  0  0  0  0  0  0
   -4.9325   -4.9586   -0.7092 H   0  0  0  0  0  0  0  0  0  0  0  0
   -4.9212   -3.1268    0.9428 H   0  0  0  0  0  0  0  0  0  0  0  0
   -2.1995    2.3763   -3.9352 H   0  0  0  0  0  0  0  0  0  0  0  0
   -1.9807    2.3584   -6.3883 H   0  0  0  0  0  0  0  0  0  0  0  0
   -4.3523    2.0166   -8.2121 H   0  0  0  0  0  0  0  0  0  0  0  0
   -4.2257    1.3229   -9.8735 H   0  0  0  0  0  0  0  0  0  0  0  0
   -5.0073    0.3566   -8.5694 H   0  0  0  0  0  0  0  0  0  0  0  0
   -3.7330   -1.5714   -6.5224 H   0  0  0  0  0  0  0  0  0  0  0  0
   -3.9674   -1.5464   -4.0619 H   0  0  0  0  0  0  0  0  0  0  0  0
   -5.5410    1.3717   -3.0340 H   0  0  0  0  0  0  0  0  0  0  0  0
   -6.5038    3.5015   -2.2933 H   0  0  0  0  0  0  0  0  0  0  0  0
   -7.7354    4.4110   -0.1602 H   0  0  0  0  0  0  0  0  0  0  0  0
   -6.6707    4.1122    1.2782 H   0  0  0  0  0  0  0  0  0  0  0  0
   -7.5024    5.7008    1.0734 H   0  0  0  0  0  0  0  0  0  0  0  0
   -3.2166    4.0623    0.4157 H   0  0  0  0  0  0  0  0  0  0  0  0
   -2.1659    1.9960   -0.4332 H   0  0  0  0  0  0  0  0  0  0  0  0
    3.1810   -5.3978   -0.7080 H   0  0  0  0  0  0  0  0  0  0  0  0
    4.3304   -7.1321   -2.0219 H   0  0  0  0  0  0  0  0  0  0  0  0
    3.3598  -10.9294   -3.6580 H   0  0  0  0  0  0  0  0  0  0  0  0
    3.4488   -9.7972   -2.2585 H   0  0  0  0  0  0  0  0  0  0  0  0
    1.9030   -9.9615   -3.1986 H   0  0  0  0  0  0  0  0  0  0  0  0
    0.9901   -7.3041   -4.7287 H   0  0  0  0  0  0  0  0  0  0  0  0
   -0.1501   -5.5346   -3.4436 H   0  0  0  0  0  0  0  0  0  0  0  0
    1.7347   -2.3039    0.3677 H   0  0  0  0  0  0  0  0  0  0  0  0
    1.8186   -2.3417    2.8309 H   0  0  0  0  0  0  0  0  0  0  0  0
   -0.9761   -3.5655    6.0584 H   0  0  0  0  0  0  0  0  0  0  0  0
   -0.6157   -2.4538    4.6813 H   0  0  0  0  0  0  0  0  0  0  0  0
   -1.4455   -4.0447    4.3831 H   0  0  0  0  0  0  0  0  0  0  0  0
   -0.0354   -6.2269    2.8332 H   0  0  0  0  0  0  0  0  0  0  0  0
   -0.0657   -6.2170    0.3654 H   0  0  0  0  0  0  0  0  0  0  0  0
    5.0925   -4.2324   -0.1637 H   0  0  0  0  0  0  0  0  0  0  0  0
    5.7878   -4.5811    2.1428 H   0  0  0  0  0  0  0  0  0  0  0  0
    7.4689   -4.1389    3.8813 H   0  0  0  0  0  0  0  0  0  0  0  0
    5.8759   -4.6549    4.5945 H   0  0  0  0  0  0  0  0  0  0  0  0
    7.8703   -2.7021    5.9136 H   0  0  0  0  0  0  0  0  0  0  0  0
    7.7085   -4.4567    6.3123 H   0  0  0  0  0  0  0  0  0  0  0  0
    6.3293   -3.3328    6.6258 H   0  0  0  0  0  0  0  0  0  0  0  0
    4.2038   -0.1093    0.6856 H   0  0  0  0  0  0  0  0  0  0  0  0
    4.0251    1.2055    4.3144 H   0  0  0  0  0  0  0  0  0  0  0  0
    3.1266   -0.3085    3.9359 H   0  0  0  0  0  0  0  0  0  0  0  0
    5.7149   -0.3666    5.6148 H   0  0  0  0  0  0  0  0  0  0  0  0
    4.3267   -1.5402    5.6125 H   0  0  0  0  0  0  0  0  0  0  0  0
    4.1470    0.0779    6.3746 H   0  0  0  0  0  0  0  0  0  0  0  0
    7.9996   -2.3391   -1.7469 H   0  0  0  0  0  0  0  0  0  0  0  0
    9.8153   -0.9903   -0.8246 H   0  0  0  0  0  0  0  0  0  0  0  0
   11.3925    0.4906   -0.2995 H   0  0  0  0  0  0  0  0  0  0  0  0
   11.5748    2.0767    0.5046 H   0  0  0  0  0  0  0  0  0  0  0  0
   10.3474    1.3037    2.5011 H   0  0  0  0  0  0  0  0  0  0  0  0
   11.7660    0.2350    2.1617 H   0  0  0  0  0  0  0  0  0  0  0  0
   10.0972   -0.3209    1.7482 H   0  0  0  0  0  0  0  0  0  0  0  0
    8.5573    3.8742    0.2412 H   0  0  0  0  0  0  0  0  0  0  0  0
    7.9420    2.7953    1.5753 H   0  0  0  0  0  0  0  0  0  0  0  0
    6.5046    5.2376    0.3630 H   0  0  0  0  0  0  0  0  0  0  0  0
    7.2527    5.1121    2.0040 H   0  0  0  0  0  0  0  0  0  0  0  0
    5.8012    4.1122    1.5986 H   0  0  0  0  0  0  0  0  0  0  0  0
    5.3037    0.9823   -1.3471 H   0  0  0  0  0  0  0  0  0  0  0  0
    5.5180   -1.3951   -6.7093 H   0  0  0  0  0  0  0  0  0  0  0  0
    4.4332   -7.4196   -7.0571 H   0  0  0  0  0  0  0  0  0  0  0  0
    5.5580   -4.4018  -11.0117 H   0  0  0  0  0  0  0  0  0  0  0  0
    4.4662   -7.5888  -12.0361 H   0  0  0  0  0  0  0  0  0  0  0  0
    2.4077   -6.1356  -12.6262 H   0  0  0  0  0  0  0  0  0  0  0  0
    1.6650   -4.6737  -10.5420 H   0  0  0  0  0  0  0  0  0  0  0  0
    1.1648   -6.2836   -8.5518 H   0  0  0  0  0  0  0  0  0  0  0  0
    1.5999   -8.7686   -9.3617 H   0  0  0  0  0  0  0  0  0  0  0  0
    0.5615   -7.6881  -11.5412 H   0  0  0  0  0  0  0  0  0  0  0  0
    1.9972   -8.7085  -12.0053 H   0  0  0  0  0  0  0  0  0  0  0  0
    4.0276   -9.0322  -10.2061 H   0  0  0  0  0  0  0  0  0  0  0  0
  1  2  2  3
  2  3  1  0
  3  4  2  0
  3  5  1  0
  5  6  2  0
  6  7  1  0
  7  8  2  0
  8  9  1  0
  9 10  2  0
 10 11  1  0
 11 12  2  3
 12 13  1  0
 13 14  3  0
 12 15  1  0
 15 16  3  0
  8 17  1  0
 17 18  1  0
 18 19  1  0
 19 20  2  0
 20 21  1  0
 21 22  1  0
 21 23  1  0
  1 24  1  0
 24 25  2  0
 25 26  1  0
 26 27  1  0
 27 28  2  0
 28 29  1  0
 29 30  2  0
 30 31  1  0
 31 32  1  0
 30 33  1  0
 33 34  2  0
 26 35  1  0
 35 36  2  0
 36 37  1  0
 37 38  2  0
 38 39  1  0
 39 40  1  0
 38 41  1  0
 41 42  2  0
 25 43  1  0
 43 44  1  0
 44 45  1  0
 45 46  2  0
 46 47  1  0
 47 48  1  0
 48 49  2  0
 49 50  1  0
 50 51  2  0
 51 52  1  0
 52 53  1  0
 51 54  1  0
 54 55  2  0
 47 56  1  0
 56 57  2  0
 57 58  1  0
 58 59  2  0
 59 60  1  0
 60 61  1  0
 59 62  1  0
 62 63  2  0
 46 64  1  0
 64 65  1  0
 45 66  1  0
 66 67  2  0
 67 68  1  0
 68 69  1  0
 69 70  2  0
 70 71  1  0
 71 72  2  0
 72 73  1  0
 73 74  1  0
 72 75  1  0
 75 76  2  0
 68 77  1  0
 77 78  2  0
 78 79  1  0
 79 80  2  0
 80 81  1  0
 81 82  1  0
 80 83  1  0
 83 84  2  0
 67 85  1  0
 85 86  1  0
 86 87  1  0
 87 88  2  0
 88 89  1  0
 89 90  1  0
 90 91  2  0
 91 92  1  0
 92 93  2  0
 93 94  1  0
 94 95  1  0
 93 96  1  0
 96 97  2  0
 89 98  1  0
 98 99  2  0
 99100  1  0
100101  2  0
101102  1  0
102103  1  0
101104  1  0
104105  2  0
 88106  1  0
106107  1  0
 87108  1  0
108109  1  0
109110  2  0
110111  1  0
111112  1  0
112113  2  0
113114  1  0
114115  2  0
115116  1  0
116117  1  0
117118  1  0
115119  1  0
119120  2  0
119121  1  0
121122  1  0
122123  1  0
111124  2  0
124125  1  0
125126  2  0
126127  1  0
127128  2  0
128129  1  0
129130  1  0
130131  1  0
128132  1  0
132133  1  0
133134  1  0
134135  1  0
132136  2  0
124137  1  0
137138  2  0
138139  1  0
139140  2  0
140141  1  0
141142  1  0
140143  1  0
139144  1  0
144145  2  3
145146  1  0
146147  2  0
146148  1  0
148149  2  0
149150  1  0
150151  2  0
151152  1  0
152153  2  0
153154  1  0
154155  2  3
155156  1  0
156157  3  0
155158  1  0
158159  3  0
151160  1  0
160161  1  0
161162  1  0
162163  2  0
163164  1  0
164165  1  0
164166  1  0
 11  2  1  0
 23 17  1  0
 65 24  1  0
107 66  1  0
141108  2  0
154145  1  0
166160  1  0
 10  5  1  0
 22 18  1  0
 34 27  1  0
 42 35  1  0
 64 43  2  0
 76 69  1  0
 84 77  1  0
106 85  2  0
138109  1  0
153148  1  0
165161  1  0
 23  7  1  0
 55 48  1  0
 63 56  1  0
 97 90  1  0
105 98  1  0
120112  1  0
136125  1  0
166150  1  0
  1167  1  0
  6168  1  0
  9169  1  0
 17170  1  0
 18171  1  0
 19172  1  0
 20173  1  0
 21174  1  0
 22175  1  0
 22176  1  0
 23177  1  0
 28178  1  0
 29179  1  0
 32180  1  0
 32181  1  0
 32182  1  0
 33183  1  0
 34184  1  0
 36185  1  0
 37186  1  0
 40187  1  0
 40188  1  0
 40189  1  0
 41190  1  0
 42191  1  0
 49192  1  0
 50193  1  0
 53194  1  0
 53195  1  0
 53196  1  0
 54197  1  0
 55198  1  0
 57199  1  0
 58200  1  0
 61201  1  0
 61202  1  0
 61203  1  0
 62204  1  0
 63205  1  0
 70206  1  0
 71207  1  0
 74208  1  0
 74209  1  0
 74210  1  0
 75211  1  0
 76212  1  0
 78213  1  0
 79214  1  0
 82215  1  0
 82216  1  0
 82217  1  0
 83218  1  0
 84219  1  0
 91220  1  0
 92221  1  0
 95222  1  0
 95223  1  0
 95224  1  0
 96225  1  0
 97226  1  0
 99227  1  0
100228  1  0
103229  1  0
103230  1  0
103231  1  0
104232  1  0
105233  1  0
113234  1  0
114235  1  0
117236  1  0
117237  1  0
118238  1  0
118239  1  0
118240  1  0
120241  1  0
122242  1  0
122243  1  0
123244  1  0
123245  1  0
123246  1  0
126247  1  0
127248  1  0
130249  1  0
130250  1  0
131251  1  0
131252  1  0
131253  1  0
134254  1  0
134255  1  0
135256  1  0
135257  1  0
135258  1  0
136259  1  0
144260  1  0
149261  1  0
152262  1  0
160263  1  0
161264  1  0
162265  1  0
163266  1  0
164267  1  0
165268  1  0
165269  1  0
166270  1  0
M  END

