
     RDKit          3D

166187  0  0  0  0  0  0  0  0999 V2000
    1.0939    2.6602    4.5676 C   0  0  0  0  0  0  0  0  0  0  0  0
    0.3166    1.5665    4.4091 C   0  0  0  0  0  0  0  0  0  0  0  0
   -0.3333    1.1670    3.1495 C   0  0  0  0  0  0  0  0  0  0  0  0
   -0.0588    1.5810    1.9967 O   0  0  0  0  0  0  0  0  0  0  0  0
   -1.3395    0.1778    3.4416 C   0  0  0  0  0  0  0  0  0  0  0  0
   -2.2519   -0.3927    2.5249 C   0  0  0  0  0  0  0  0  0  0  0  0
   -3.1701   -1.2426    3.1065 C   0  0  0  0  0  0  0  0  0  0  0  0
   -3.2028   -1.5142    4.5126 C   0  0  0  0  0  0  0  0  0  0  0  0
   -2.3110   -0.9566    5.4152 C   0  0  0  0  0  0  0  0  0  0  0  0
   -1.3342   -0.1008    4.8300 C   0  0  0  0  0  0  0  0  0  0  0  0
   -0.2300    0.6695    5.4750 C   0  0  0  0  0  0  0  0  0  0  0  0
    0.3074    0.4393    6.7027 C   0  0  0  0  0  0  0  0  0  0  0  0
    1.5068    1.0938    7.1565 C   0  0  0  0  0  0  0  0  0  0  0  0
    2.4648    1.6170    7.5377 N   0  0  0  0  0  0  0  0  0  0  0  0
   -0.2149   -0.5476    7.6119 C   0  0  0  0  0  0  0  0  0  0  0  0
   -0.6291   -1.3333    8.3520 N   0  0  0  0  0  0  0  0  0  0  0  0
   -4.3763   -2.4278    4.3243 C   0  0  0  0  0  0  0  0  0  0  0  0
   -4.1184   -3.9636    4.3979 C   0  0  0  0  0  0  0  0  0  0  0  0
   -2.7200   -4.2819    3.9200 C   0  0  0  0  0  0  0  0  0  0  0  0
   -2.6958   -4.0245    2.6117 C   0  0  0  0  0  0  0  0  0  0  0  0
   -4.0771   -3.5389    2.2422 C   0  0  0  0  0  0  0  0  0  0  0  0
   -4.8944   -4.4146    3.1744 C   0  0  0  0  0  0  0  0  0  0  0  0
   -4.3459   -2.1452    2.8849 C   0  0  0  0  0  0  0  0  0  0  0  0
    1.4102    3.5634    3.4563 C   0  0  0  0  0  0  0  0  0  0  0  0
    2.5429    3.4672    2.6259 C   0  0  0  0  0  0  0  0  0  0  0  0
    3.6382    2.5491    2.8368 N   0  0  0  0  0  0  0  0  0  0  0  0
    4.1404    1.7770    1.7228 C   0  0  0  0  0  0  0  0  0  0  0  0
    3.2626    1.0090    0.9424 C   0  0  0  0  0  0  0  0  0  0  0  0
    3.7320    0.3061   -0.1687 C   0  0  0  0  0  0  0  0  0  0  0  0
    5.0897    0.3499   -0.5039 C   0  0  0  0  0  0  0  0  0  0  0  0
    5.6852   -0.5381   -1.9421 S   0  0  0  0  0  0  0  0  0  0  0  0
    5.9685   -2.0816   -1.0192 C   0  0  0  0  0  0  0  0  0  0  0  0
    5.9753    1.1045    0.2767 C   0  0  0  0  0  0  0  0  0  0  0  0
    5.5062    1.8114    1.3887 C   0  0  0  0  0  0  0  0  0  0  0  0
    4.3026    2.4763    4.1165 C   0  0  0  0  0  0  0  0  0  0  0  0
    4.8038    1.2477    4.5869 C   0  0  0  0  0  0  0  0  0  0  0  0
    5.5281    1.1887    5.7812 C   0  0  0  0  0  0  0  0  0  0  0  0
    5.7506    2.3515    6.5258 C   0  0  0  0  0  0  0  0  0  0  0  0
    6.7541    2.2897    8.0138 S   0  0  0  0  0  0  0  0  0  0  0  0
    5.3531    1.9165    9.1084 C   0  0  0  0  0  0  0  0  0  0  0  0
    5.2288    3.5709    6.0849 C   0  0  0  0  0  0  0  0  0  0  0  0
    4.5062    3.6353    4.8877 C   0  0  0  0  0  0  0  0  0  0  0  0
    2.3663    4.2303    1.4698 C   0  0  0  0  0  0  0  0  0  0  0  0
    3.1564    4.3041   -0.0027 S   0  0  0  0  0  0  0  0  0  0  0  0
    1.9088    5.1272   -0.8328 C   0  0  0  0  0  0  0  0  0  0  0  0
    0.8671    5.3690    0.0971 C   0  0  0  0  0  0  0  0  0  0  0  0
   -0.4146    5.9369   -0.2160 N   0  0  0  0  0  0  0  0  0  0  0  0
   -0.5108    7.3782   -0.2479 C   0  0  0  0  0  0  0  0  0  0  0  0
   -1.1975    8.0282   -1.2914 C   0  0  0  0  0  0  0  0  0  0  0  0
   -1.2413    9.4258   -1.3461 C   0  0  0  0  0  0  0  0  0  0  0  0
   -0.6092   10.1856   -0.3578 C   0  0  0  0  0  0  0  0  0  0  0  0
   -0.6455   11.9759   -0.4377 S   0  0  0  0  0  0  0  0  0  0  0  0
    0.9676   12.0917   -1.2782 C   0  0  0  0  0  0  0  0  0  0  0  0
    0.0425    9.5467    0.7026 C   0  0  0  0  0  0  0  0  0  0  0  0
    0.0997    8.1545    0.7517 C   0  0  0  0  0  0  0  0  0  0  0  0
   -1.5792    5.0777   -0.3316 C   0  0  0  0  0  0  0  0  0  0  0  0
   -2.8745    5.5675   -0.0636 C   0  0  0  0  0  0  0  0  0  0  0  0
   -3.9888    4.7327   -0.1744 C   0  0  0  0  0  0  0  0  0  0  0  0
   -3.8315    3.3911   -0.5334 C   0  0  0  0  0  0  0  0  0  0  0  0
   -5.2655    2.3212   -0.6683 S   0  0  0  0  0  0  0  0  0  0  0  0
   -5.2005    1.8067    1.0760 C   0  0  0  0  0  0  0  0  0  0  0  0
   -2.5525    2.8880   -0.7925 C   0  0  0  0  0  0  0  0  0  0  0  0
   -1.4359    3.7204   -0.6899 C   0  0  0  0  0  0  0  0  0  0  0  0
    1.1704    4.8599    1.3598 C   0  0  0  0  0  0  0  0  0  0  0  0
    0.2421    4.5657    2.7214 S   0  0  0  0  0  0  0  0  0  0  0  0
    1.7898    5.0346   -2.3060 C   0  0  0  0  0  0  0  0  0  0  0  0
    2.8429    4.0629   -3.2113 S   0  0  0  0  0  0  0  0  0  0  0  0
    1.7861    3.7641   -4.4662 C   0  0  0  0  0  0  0  0  0  0  0  0
    1.8751    2.7168   -5.3844 C   0  0  0  0  0  0  0  0  0  0  0  0
    0.6958    2.3417   -6.0358 C   0  0  0  0  0  0  0  0  0  0  0  0
    0.4972    1.1185   -6.6823 C   0  0  0  0  0  0  0  0  0  0  0  0
   -0.8419    0.8711   -7.0055 C   0  0  0  0  0  0  0  0  0  0  0  0
   -1.7570    2.2221   -6.5212 S   0  0  0  0  0  0  0  0  0  0  0  0
   -0.4761    3.0821   -5.8664 C   0  0  0  0  0  0  0  0  0  0  0  0
   -0.5541    4.1615   -4.9792 C   0  0  0  0  0  0  0  0  0  0  0  0
    0.5947    4.4518   -4.2294 C   0  0  0  0  0  0  0  0  0  0  0  0
    0.6084    5.1925   -3.0444 C   0  0  0  0  0  0  0  0  0  0  0  0
   -1.3810   -0.4852   -7.3032 C   0  0  0  0  0  0  0  0  0  0  0  0
   -0.6020   -1.4219   -8.0168 C   0  0  0  0  0  0  0  0  0  0  0  0
   -0.9305   -2.8001   -8.0267 C   0  0  0  0  0  0  0  0  0  0  0  0
    0.0112   -3.6415   -8.7043 N   0  0  0  0  0  0  0  0  0  0  0  0
    1.0745   -2.5558   -9.1918 S   0  0  0  0  0  4  0  0  0  0  0  0
    0.6101   -1.1038   -8.7159 N   0  0  0  0  0  0  0  0  0  0  0  0
   -2.0512   -3.2851   -7.3516 C   0  0  0  0  0  0  0  0  0  0  0  0
   -2.9018   -2.3586   -6.7341 C   0  0  0  0  0  0  0  0  0  0  0  0
   -4.0360   -2.7336   -6.0813 N   0  0  0  0  0  0  0  0  0  0  0  0
   -4.5440   -1.2751   -5.4986 S   0  0  0  0  0  0  0  0  0  0  0  0
   -3.4215   -0.1696   -5.9997 N   0  0  0  0  0  0  0  0  0  0  0  0
   -2.5677   -0.9637   -6.7004 C   0  0  0  0  0  0  0  0  0  0  0  0
   -2.2651   -4.7357   -7.2105 C   0  0  0  0  0  0  0  0  0  0  0  0
   -1.7516   -5.4506   -6.1956 C   0  0  0  0  0  0  0  0  0  0  0  0
   -1.9149   -6.9030   -6.0605 C   0  0  0  0  0  0  0  0  0  0  0  0
   -2.5267   -7.6546   -6.8624 O   0  0  0  0  0  0  0  0  0  0  0  0
   -1.2935   -7.3218   -4.8260 C   0  0  0  0  0  0  0  0  0  0  0  0
   -1.2591   -8.6182   -4.2539 C   0  0  0  0  0  0  0  0  0  0  0  0
   -0.6450   -8.6622   -3.0087 C   0  0  0  0  0  0  0  0  0  0  0  0
   -0.0852   -7.5056   -2.3711 C   0  0  0  0  0  0  0  0  0  0  0  0
   -0.1106   -6.2403   -2.9300 C   0  0  0  0  0  0  0  0  0  0  0  0
   -0.7550   -6.1760   -4.1927 C   0  0  0  0  0  0  0  0  0  0  0  0
   -0.9689   -4.9665   -5.0151 C   0  0  0  0  0  0  0  0  0  0  0  0
   -1.1690   -3.7662   -4.4643 C   0  0  0  0  0  0  0  0  0  0  0  0
   -2.0007   -3.6411   -3.2861 C   0  0  0  0  0  0  0  0  0  0  0  0
   -2.6823   -3.5552   -2.3481 N   0  0  0  0  0  0  0  0  0  0  0  0
   -0.1830   -2.7447   -4.6783 C   0  0  0  0  0  0  0  0  0  0  0  0
    0.6151   -1.9174   -4.8348 N   0  0  0  0  0  0  0  0  0  0  0  0
    0.3010   -8.3264   -1.1785 C   0  0  0  0  0  0  0  0  0  0  0  0
   -0.5581   -8.1661    0.1133 C   0  0  0  0  0  0  0  0  0  0  0  0
   -1.9804   -7.8101   -0.2469 C   0  0  0  0  0  0  0  0  0  0  0  0
   -2.5029   -8.8888   -0.8330 C   0  0  0  0  0  0  0  0  0  0  0  0
   -1.4169   -9.9395   -0.8577 C   0  0  0  0  0  0  0  0  0  0  0  0
   -0.7608   -9.6272    0.4740 C   0  0  0  0  0  0  0  0  0  0  0  0
   -0.2752   -9.5109   -1.8281 C   0  0  0  0  0  0  0  0  0  0  0  0
    1.4316    2.9809    5.5379 H   0  0  0  0  0  0  0  0  0  0  0  0
   -2.2460   -0.1789    1.4661 H   0  0  0  0  0  0  0  0  0  0  0  0
   -2.4128   -1.1512    6.4691 H   0  0  0  0  0  0  0  0  0  0  0  0
   -5.3097   -2.0800    4.8222 H   0  0  0  0  0  0  0  0  0  0  0  0
   -4.4096   -4.4494    5.3524 H   0  0  0  0  0  0  0  0  0  0  0  0
   -1.9075   -4.7069    4.4987 H   0  0  0  0  0  0  0  0  0  0  0  0
   -1.8631   -4.2089    1.9389 H   0  0  0  0  0  0  0  0  0  0  0  0
   -4.3295   -3.6205    1.1630 H   0  0  0  0  0  0  0  0  0  0  0  0
   -5.9779   -4.1437    3.2057 H   0  0  0  0  0  0  0  0  0  0  0  0
   -4.7951   -5.5070    2.9627 H   0  0  0  0  0  0  0  0  0  0  0  0
   -5.2494   -1.6199    2.5070 H   0  0  0  0  0  0  0  0  0  0  0  0
    2.2136    0.9630    1.1903 H   0  0  0  0  0  0  0  0  0  0  0  0
    3.0413   -0.2757   -0.7622 H   0  0  0  0  0  0  0  0  0  0  0  0
    6.3501   -2.8555   -1.7195 H   0  0  0  0  0  0  0  0  0  0  0  0
    6.7219   -1.9153   -0.2168 H   0  0  0  0  0  0  0  0  0  0  0  0
    5.0142   -2.4401   -0.5735 H   0  0  0  0  0  0  0  0  0  0  0  0
    7.0265    1.1512    0.0211 H   0  0  0  0  0  0  0  0  0  0  0  0
    6.1935    2.4109    1.9699 H   0  0  0  0  0  0  0  0  0  0  0  0
    4.6521    0.3391    4.0176 H   0  0  0  0  0  0  0  0  0  0  0  0
    5.9286    0.2412    6.1186 H   0  0  0  0  0  0  0  0  0  0  0  0
    5.7057    1.8908   10.1626 H   0  0  0  0  0  0  0  0  0  0  0  0
    4.5764    2.7053    9.0137 H   0  0  0  0  0  0  0  0  0  0  0  0
    4.9172    0.9300    8.8471 H   0  0  0  0  0  0  0  0  0  0  0  0
    5.4046    4.4735    6.6534 H   0  0  0  0  0  0  0  0  0  0  0  0
    4.1424    4.5939    4.5443 H   0  0  0  0  0  0  0  0  0  0  0  0
   -1.6924    7.4562   -2.0655 H   0  0  0  0  0  0  0  0  0  0  0  0
   -1.7580    9.9111   -2.1644 H   0  0  0  0  0  0  0  0  0  0  0  0
    1.2054   13.1614   -1.4513 H   0  0  0  0  0  0  0  0  0  0  0  0
    1.7661   11.6481   -0.6447 H   0  0  0  0  0  0  0  0  0  0  0  0
    0.9329   11.5657   -2.2554 H   0  0  0  0  0  0  0  0  0  0  0  0
    0.5220   10.1321    1.4767 H   0  0  0  0  0  0  0  0  0  0  0  0
    0.6156    7.6832    1.5746 H   0  0  0  0  0  0  0  0  0  0  0  0
   -3.0272    6.5915    0.2443 H   0  0  0  0  0  0  0  0  0  0  0  0
   -4.9770    5.1312    0.0286 H   0  0  0  0  0  0  0  0  0  0  0  0
   -5.2698    2.6960    1.7362 H   0  0  0  0  0  0  0  0  0  0  0  0
   -4.2524    1.2689    1.2763 H   0  0  0  0  0  0  0  0  0  0  0  0
   -6.0534    1.1308    1.2919 H   0  0  0  0  0  0  0  0  0  0  0  0
   -2.4269    1.8477   -1.0728 H   0  0  0  0  0  0  0  0  0  0  0  0
   -0.4616    3.3031   -0.9030 H   0  0  0  0  0  0  0  0  0  0  0  0
    2.7680    2.1082   -5.4482 H   0  0  0  0  0  0  0  0  0  0  0  0
    1.2778    0.3710   -6.7468 H   0  0  0  0  0  0  0  0  0  0  0  0
   -1.5070    4.6364   -4.7613 H   0  0  0  0  0  0  0  0  0  0  0  0
   -0.2766    5.6876   -2.6829 H   0  0  0  0  0  0  0  0  0  0  0  0
   -2.8242   -5.2394   -7.9890 H   0  0  0  0  0  0  0  0  0  0  0  0
   -1.7040   -9.4853   -4.7245 H   0  0  0  0  0  0  0  0  0  0  0  0
    0.2967   -5.3743   -2.4253 H   0  0  0  0  0  0  0  0  0  0  0  0
    1.3976   -8.3951   -1.0098 H   0  0  0  0  0  0  0  0  0  0  0  0
   -0.1048   -7.5428    0.9133 H   0  0  0  0  0  0  0  0  0  0  0  0
   -2.5115   -6.8913   -0.0165 H   0  0  0  0  0  0  0  0  0  0  0  0
   -3.5293   -9.0015   -1.1676 H   0  0  0  0  0  0  0  0  0  0  0  0
   -1.7754  -10.9829   -0.9799 H   0  0  0  0  0  0  0  0  0  0  0  0
   -1.4361   -9.7764    1.3484 H   0  0  0  0  0  0  0  0  0  0  0  0
    0.1922  -10.1820    0.6401 H   0  0  0  0  0  0  0  0  0  0  0  0
    0.4719  -10.3004   -2.0592 H   0  0  0  0  0  0  0  0  0  0  0  0
  1  2  2  3
  2  3  1  0
  3  4  2  0
  3  5  1  0
  5  6  2  0
  6  7  1  0
  7  8  2  0
  8  9  1  0
  9 10  2  0
 10 11  1  0
 11 12  2  3
 12 13  1  0
 13 14  3  0
 12 15  1  0
 15 16  3  0
  8 17  1  0
 17 18  1  0
 18 19  1  0
 19 20  2  0
 20 21  1  0
 21 22  1  0
 21 23  1  0
  1 24  1  0
 24 25  2  0
 25 26  1  0
 26 27  1  0
 27 28  2  0
 28 29  1  0
 29 30  2  0
 30 31  1  0
 31 32  1  0
 30 33  1  0
 33 34  2  0
 26 35  1  0
 35 36  2  0
 36 37  1  0
 37 38  2  0
 38 39  1  0
 39 40  1  0
 38 41  1  0
 41 42  2  0
 25 43  1  0
 43 44  1  0
 44 45  1  0
 45 46  2  0
 46 47  1  0
 47 48  1  0
 48 49  2  0
 49 50  1  0
 50 51  2  0
 51 52  1  0
 52 53  1  0
 51 54  1  0
 54 55  2  0
 47 56  1  0
 56 57  2  0
 57 58  1  0
 58 59  2  0
 59 60  1  0
 60 61  1  0
 59 62  1  0
 62 63  2  0
 46 64  1  0
 64 65  1  0
 45 66  1  0
 66 67  1  0
 67 68  1  0
 68 69  2  0
 69 70  1  0
 70 71  1  0
 71 72  2  0
 72 73  1  0
 73 74  1  0
 74 75  1  0
 75 76  2  0
 76 77  1  0
 72 78  1  0
 78 79  2  0
 79 80  1  0
 80 81  1  0
 81 82  2  0
 82 83  2  0
 80 84  2  0
 84 85  1  0
 85 86  2  0
 86 87  1  0
 87 88  1  0
 88 89  2  0
 84 90  1  0
 90 91  2  3
 91 92  1  0
 92 93  2  0
 92 94  1  0
 94 95  2  0
 95 96  1  0
 96 97  2  0
 97 98  1  0
 98 99  2  0
 99100  1  0
100101  2  3
101102  1  0
102103  3  0
101104  1  0
104105  3  0
 97106  1  0
106107  1  0
107108  1  0
108109  2  0
109110  1  0
110111  1  0
110112  1  0
 11  2  1  0
 23 17  1  0
 65 24  1  0
 77 66  2  0
 89 78  1  0
100 91  1  0
112106  1  0
 10  5  1  0
 22 18  1  0
 34 27  1  0
 42 35  1  0
 64 43  2  0
 76 68  1  0
 83 79  1  0
 89 85  1  0
 99 94  1  0
111107  1  0
 23  7  1  0
 55 48  1  0
 63 56  1  0
 74 70  2  0
112 96  1  0
  1113  1  0
  6114  1  0
  9115  1  0
 17116  1  0
 18117  1  0
 19118  1  0
 20119  1  0
 21120  1  0
 22121  1  0
 22122  1  0
 23123  1  0
 28124  1  0
 29125  1  0
 32126  1  0
 32127  1  0
 32128  1  0
 33129  1  0
 34130  1  0
 36131  1  0
 37132  1  0
 40133  1  0
 40134  1  0
 40135  1  0
 41136  1  0
 42137  1  0
 49138  1  0
 50139  1  0
 53140  1  0
 53141  1  0
 53142  1  0
 54143  1  0
 55144  1  0
 57145  1  0
 58146  1  0
 61147  1  0
 61148  1  0
 61149  1  0
 62150  1  0
 63151  1  0
 69152  1  0
 71153  1  0
 75154  1  0
 77155  1  0
 90156  1  0
 95157  1  0
 98158  1  0
106159  1  0
107160  1  0
108161  1  0
109162  1  0
110163  1  0
111164  1  0
111165  1  0
112166  1  0
M  END

