
     RDKit          3D

234257  0  0  0  0  0  0  0  0999 V2000
   -7.5329    0.6553   -0.6344 C   0  0  0  0  0  0  0  0  0  0  0  0
   -7.2663    1.8719   -1.1660 C   0  0  0  0  0  0  0  0  0  0  0  0
   -6.0077    2.6083   -0.9781 C   0  0  0  0  0  0  0  0  0  0  0  0
   -4.9304    2.1424   -0.5137 O   0  0  0  0  0  0  0  0  0  0  0  0
   -6.1948    3.9794   -1.3866 C   0  0  0  0  0  0  0  0  0  0  0  0
   -5.2239    5.0038   -1.3669 C   0  0  0  0  0  0  0  0  0  0  0  0
   -5.6617    6.2036   -1.8726 C   0  0  0  0  0  0  0  0  0  0  0  0
   -6.9836    6.4002   -2.3850 C   0  0  0  0  0  0  0  0  0  0  0  0
   -7.9424    5.3926   -2.4051 C   0  0  0  0  0  0  0  0  0  0  0  0
   -7.5142    4.1434   -1.8715 C   0  0  0  0  0  0  0  0  0  0  0  0
   -8.2251    2.8269   -1.8165 C   0  0  0  0  0  0  0  0  0  0  0  0
   -9.4313    2.5222   -2.3584 C   0  0  0  0  0  0  0  0  0  0  0  0
   -9.8472    1.1641   -2.6018 C   0  0  0  0  0  0  0  0  0  0  0  0
  -10.1920    0.0773   -2.8155 N   0  0  0  0  0  0  0  0  0  0  0  0
  -10.3803    3.5250   -2.7723 C   0  0  0  0  0  0  0  0  0  0  0  0
  -11.1569    4.3230   -3.0937 N   0  0  0  0  0  0  0  0  0  0  0  0
   -6.6521    7.8162   -2.7431 C   0  0  0  0  0  0  0  0  0  0  0  0
   -6.4081    8.1132   -4.2474 C   0  0  0  0  0  0  0  0  0  0  0  0
   -5.7315    9.4568   -4.2941 C   0  0  0  0  0  0  0  0  0  0  0  0
   -4.5011    9.2824   -3.8071 C   0  0  0  0  0  0  0  0  0  0  0  0
   -4.3886    7.8196   -3.4462 C   0  0  0  0  0  0  0  0  0  0  0  0
   -5.2143    7.2369   -4.5863 C   0  0  0  0  0  0  0  0  0  0  0  0
   -5.3030    7.6204   -2.2086 C   0  0  0  0  0  0  0  0  0  0  0  0
   -6.5086   -0.1261    0.0842 C   0  0  0  0  0  0  0  0  0  0  0  0
   -5.6280   -1.0352   -0.5272 C   0  0  0  0  0  0  0  0  0  0  0  0
   -6.0802   -2.0315   -1.4819 N   0  0  0  0  0  0  0  0  0  0  0  0
   -5.1465   -2.7826   -2.2931 C   0  0  0  0  0  0  0  0  0  0  0  0
   -4.1590   -2.1261   -3.0503 C   0  0  0  0  0  0  0  0  0  0  0  0
   -3.3055   -2.8605   -3.8805 C   0  0  0  0  0  0  0  0  0  0  0  0
   -3.4502   -4.2517   -3.9893 C   0  0  0  0  0  0  0  0  0  0  0  0
   -2.4292   -5.1938   -5.1269 S   0  0  0  0  0  0  0  0  0  0  0  0
   -1.3075   -5.8052   -3.8387 C   0  0  0  0  0  0  0  0  0  0  0  0
   -4.4248   -4.9075   -3.2320 C   0  0  0  0  0  0  0  0  0  0  0  0
   -5.2562   -4.1851   -2.3794 C   0  0  0  0  0  0  0  0  0  0  0  0
   -7.4424   -2.5136   -1.3959 C   0  0  0  0  0  0  0  0  0  0  0  0
   -8.1661   -2.7980   -2.5671 C   0  0  0  0  0  0  0  0  0  0  0  0
   -9.4507   -3.3474   -2.4843 C   0  0  0  0  0  0  0  0  0  0  0  0
  -10.0315   -3.5988   -1.2386 C   0  0  0  0  0  0  0  0  0  0  0  0
  -11.6674   -4.3257   -1.1371 S   0  0  0  0  0  0  0  0  0  0  0  0
  -12.5275   -2.7242   -1.1981 C   0  0  0  0  0  0  0  0  0  0  0  0
   -9.3224   -3.3136   -0.0687 C   0  0  0  0  0  0  0  0  0  0  0  0
   -8.0292   -2.7922   -0.1449 C   0  0  0  0  0  0  0  0  0  0  0  0
   -4.4993   -1.2141    0.2847 C   0  0  0  0  0  0  0  0  0  0  0  0
   -2.9772   -1.8987    0.0886 S   0  0  0  0  0  0  0  0  0  0  0  0
   -2.4401   -1.4465    1.6466 C   0  0  0  0  0  0  0  0  0  0  0  0
   -3.4812   -0.8276    2.3547 C   0  0  0  0  0  0  0  0  0  0  0  0
   -3.7074   -1.1389    3.7446 N   0  0  0  0  0  0  0  0  0  0  0  0
   -4.1441   -0.1147    4.6727 C   0  0  0  0  0  0  0  0  0  0  0  0
   -4.8010   -0.4610    5.8744 C   0  0  0  0  0  0  0  0  0  0  0  0
   -5.1653    0.5332    6.7897 C   0  0  0  0  0  0  0  0  0  0  0  0
   -4.8894    1.8747    6.5119 C   0  0  0  0  0  0  0  0  0  0  0  0
   -5.2821    3.1453    7.7159 S   0  0  0  0  0  0  0  0  0  0  0  0
   -3.6371    3.0946    8.4949 C   0  0  0  0  0  0  0  0  0  0  0  0
   -4.2742    2.2302    5.3087 C   0  0  0  0  0  0  0  0  0  0  0  0
   -3.9171    1.2467    4.3906 C   0  0  0  0  0  0  0  0  0  0  0  0
   -3.9818   -2.5323    3.9949 C   0  0  0  0  0  0  0  0  0  0  0  0
   -2.9216   -3.4354    4.1590 C   0  0  0  0  0  0  0  0  0  0  0  0
   -3.1737   -4.8096    4.1582 C   0  0  0  0  0  0  0  0  0  0  0  0
   -4.4782   -5.2935    4.0578 C   0  0  0  0  0  0  0  0  0  0  0  0
   -4.7735   -7.0637    3.9949 S   0  0  0  0  0  0  0  0  0  0  0  0
   -4.6570   -7.2966    5.7993 C   0  0  0  0  0  0  0  0  0  0  0  0
   -5.5427   -4.3992    3.9310 C   0  0  0  0  0  0  0  0  0  0  0  0
   -5.2917   -3.0284    3.8676 C   0  0  0  0  0  0  0  0  0  0  0  0
   -4.5753   -0.6452    1.5145 C   0  0  0  0  0  0  0  0  0  0  0  0
   -5.9857    0.2499    1.6587 S   0  0  0  0  0  0  0  0  0  0  0  0
   -1.0173   -1.3750    2.0151 C   0  0  0  0  0  0  0  0  0  0  0  0
   -0.2598   -0.1984    2.1870 C   0  0  0  0  0  0  0  0  0  0  0  0
   -0.7727    1.1363    2.3674 N   0  0  0  0  0  0  0  0  0  0  0  0
   -0.8189    1.9772    1.1898 C   0  0  0  0  0  0  0  0  0  0  0  0
   -1.8173    1.7982    0.2217 C   0  0  0  0  0  0  0  0  0  0  0  0
   -1.8833    2.6328   -0.8959 C   0  0  0  0  0  0  0  0  0  0  0  0
   -0.9673    3.6718   -1.0478 C   0  0  0  0  0  0  0  0  0  0  0  0
   -1.1383    4.8251   -2.4166 S   0  0  0  0  0  0  0  0  0  0  0  0
    0.0414    3.9464   -3.4853 C   0  0  0  0  0  0  0  0  0  0  0  0
    0.0619    3.8321   -0.1166 C   0  0  0  0  0  0  0  0  0  0  0  0
    0.1534    2.9733    0.9815 C   0  0  0  0  0  0  0  0  0  0  0  0
   -0.7019    1.7198    3.7005 C   0  0  0  0  0  0  0  0  0  0  0  0
   -0.8564    3.1092    3.9213 C   0  0  0  0  0  0  0  0  0  0  0  0
   -0.6327    3.6658    5.1815 C   0  0  0  0  0  0  0  0  0  0  0  0
   -0.2890    2.8469    6.2607 C   0  0  0  0  0  0  0  0  0  0  0  0
    0.1077    3.5660    7.8550 S   0  0  0  0  0  0  0  0  0  0  0  0
    1.9064    3.5679    7.5501 C   0  0  0  0  0  0  0  0  0  0  0  0
   -0.2545    1.4612    6.0922 C   0  0  0  0  0  0  0  0  0  0  0  0
   -0.4547    0.9022    4.8328 C   0  0  0  0  0  0  0  0  0  0  0  0
    1.1029   -0.4718    2.2146 C   0  0  0  0  0  0  0  0  0  0  0  0
    2.4374    0.5060    2.0073 S   0  0  0  0  0  0  0  0  0  0  0  0
    3.5271   -0.7737    1.7746 C   0  0  0  0  0  0  0  0  0  0  0  0
    2.8332   -2.0018    1.9300 C   0  0  0  0  0  0  0  0  0  0  0  0
    3.4781   -3.3037    2.0021 N   0  0  0  0  0  0  0  0  0  0  0  0
    4.9054   -3.3860    1.8268 C   0  0  0  0  0  0  0  0  0  0  0  0
    5.7744   -2.9082    2.8209 C   0  0  0  0  0  0  0  0  0  0  0  0
    7.1568   -2.9308    2.6282 C   0  0  0  0  0  0  0  0  0  0  0  0
    7.6819   -3.3822    1.4124 C   0  0  0  0  0  0  0  0  0  0  0  0
    9.4544   -3.3739    1.1553 S   0  0  0  0  0  0  0  0  0  0  0  0
    9.6870   -5.0493    1.8313 C   0  0  0  0  0  0  0  0  0  0  0  0
    6.8194   -3.8303    0.4006 C   0  0  0  0  0  0  0  0  0  0  0  0
    5.4356   -3.8416    0.6070 C   0  0  0  0  0  0  0  0  0  0  0  0
    2.8478   -4.3809    2.7214 C   0  0  0  0  0  0  0  0  0  0  0  0
    3.1690   -4.6149    4.0647 C   0  0  0  0  0  0  0  0  0  0  0  0
    2.4960   -5.5954    4.7956 C   0  0  0  0  0  0  0  0  0  0  0  0
    1.4348   -6.2910    4.2226 C   0  0  0  0  0  0  0  0  0  0  0  0
    0.4209   -7.3747    5.2418 S   0  0  0  0  0  0  0  0  0  0  0  0
   -0.2272   -6.0076    6.2653 C   0  0  0  0  0  0  0  0  0  0  0  0
    1.1501   -6.1102    2.8617 C   0  0  0  0  0  0  0  0  0  0  0  0
    1.8901   -5.1905    2.1018 C   0  0  0  0  0  0  0  0  0  0  0  0
    1.4601   -1.7769    2.1193 C   0  0  0  0  0  0  0  0  0  0  0  0
    0.0652   -2.6874    1.9143 S   0  0  0  0  0  0  0  0  0  0  0  0
    4.5947   -0.6014    0.7921 C   0  0  0  0  0  0  0  0  0  0  0  0
    4.3992   -0.8573   -0.5566 C   0  0  0  0  0  0  0  0  0  0  0  0
    5.4427   -0.3915   -1.3597 C   0  0  0  0  0  0  0  0  0  0  0  0
    5.4600   -0.4029   -2.7720 C   0  0  0  0  0  0  0  0  0  0  0  0
    4.2665   -0.7800   -3.5602 C   0  0  0  0  0  0  0  0  0  0  0  0
    4.2460   -1.8169   -4.8887 S   0  0  0  0  0  0  0  0  0  0  0  0
    2.6020   -1.6510   -5.2234 C   0  0  0  0  0  0  0  0  0  0  0  0
    1.8975   -2.2022   -6.4189 C   0  0  0  0  0  0  0  0  0  0  0  0
    1.9966   -1.2251   -7.5892 C   0  0  0  0  0  0  0  0  0  0  0  0
    2.0616   -0.7561   -4.3051 C   0  0  0  0  0  0  0  0  0  0  0  0
    0.7666   -0.3498   -4.3373 F   0  0  0  0  0  0  0  0  0  0  0  0
    2.9845   -0.2667   -3.3871 C   0  0  0  0  0  0  0  0  0  0  0  0
    2.6661    0.6706   -2.4516 F   0  0  0  0  0  0  0  0  0  0  0  0
    6.6086    0.1154   -3.3883 C   0  0  0  0  0  0  0  0  0  0  0  0
    7.6865    0.6525   -2.6682 C   0  0  0  0  0  0  0  0  0  0  0  0
    7.6483    0.6918   -1.2533 C   0  0  0  0  0  0  0  0  0  0  0  0
    8.7508    1.2722   -0.4653 C   0  0  0  0  0  0  0  0  0  0  0  0
    8.6051    2.5356    0.6330 S   0  0  0  0  0  0  0  0  0  0  0  0
   10.2462    2.6441    1.0168 C   0  0  0  0  0  0  0  0  0  0  0  0
   10.8363    3.5750    2.0308 C   0  0  0  0  0  0  0  0  0  0  0  0
   10.9795    2.8862    3.3832 C   0  0  0  0  0  0  0  0  0  0  0  0
   10.9286    1.6676    0.2977 C   0  0  0  0  0  0  0  0  0  0  0  0
   10.0929    0.9096   -0.5298 C   0  0  0  0  0  0  0  0  0  0  0  0
   10.5587   -0.0991   -1.3149 F   0  0  0  0  0  0  0  0  0  0  0  0
   12.2628    1.4548    0.4040 F   0  0  0  0  0  0  0  0  0  0  0  0
    6.4925    0.1780   -0.6326 C   0  0  0  0  0  0  0  0  0  0  0  0
    6.0755    0.1755    1.0113 S   0  0  0  0  0  0  0  0  0  0  0  0
    8.6652    1.2303   -3.4950 C   0  0  0  0  0  0  0  0  0  0  0  0
    8.3674    1.1235   -4.8535 C   0  0  0  0  0  0  0  0  0  0  0  0
    6.8692    0.3773   -5.0205 S   0  0  0  0  0  0  0  0  0  0  0  0
    9.0723    1.8570   -5.9225 C   0  0  0  0  0  0  0  0  0  0  0  0
    9.1266    1.4552   -7.2068 C   0  0  0  0  0  0  0  0  0  0  0  0
    8.9250    0.0680   -7.6982 C   0  0  0  0  0  0  0  0  0  0  0  0
    8.6373   -0.9501   -7.0154 O   0  0  0  0  0  0  0  0  0  0  0  0
    9.2848    0.0477   -9.0979 C   0  0  0  0  0  0  0  0  0  0  0  0
    9.2821   -0.9239  -10.0951 C   0  0  0  0  0  0  0  0  0  0  0  0
    9.7045   -0.3781  -11.3112 C   0  0  0  0  0  0  0  0  0  0  0  0
    9.8144   -1.2522  -12.8240 Cl  0  0  0  0  0  0  0  0  0  0  0  0
   10.0697    1.2742  -11.1210 S   0  0  0  0  0  0  0  0  0  0  0  0
    9.6968    1.2812   -9.4803 C   0  0  0  0  0  0  0  0  0  0  0  0
    9.6085    2.2589   -8.3866 C   0  0  0  0  0  0  0  0  0  0  0  0
    9.7552    3.5952   -8.5126 C   0  0  0  0  0  0  0  0  0  0  0  0
   10.1984    4.1891   -9.7549 C   0  0  0  0  0  0  0  0  0  0  0  0
   10.5558    4.6664  -10.7481 N   0  0  0  0  0  0  0  0  0  0  0  0
    9.4046    4.5147   -7.4656 C   0  0  0  0  0  0  0  0  0  0  0  0
    9.1158    5.2681   -6.6331 N   0  0  0  0  0  0  0  0  0  0  0  0
   -8.5203    0.2356   -0.6616 H   0  0  0  0  0  0  0  0  0  0  0  0
   -4.2124    4.8570   -1.0205 H   0  0  0  0  0  0  0  0  0  0  0  0
   -8.9085    5.5821   -2.8346 H   0  0  0  0  0  0  0  0  0  0  0  0
   -7.2691    8.5613   -2.1881 H   0  0  0  0  0  0  0  0  0  0  0  0
   -7.2963    8.0027   -4.9067 H   0  0  0  0  0  0  0  0  0  0  0  0
   -6.1085   10.3660   -4.7449 H   0  0  0  0  0  0  0  0  0  0  0  0
   -3.7126   10.0291   -3.7879 H   0  0  0  0  0  0  0  0  0  0  0  0
   -3.3511    7.4302   -3.3549 H   0  0  0  0  0  0  0  0  0  0  0  0
   -4.7881    7.4507   -5.5979 H   0  0  0  0  0  0  0  0  0  0  0  0
   -5.4109    6.1470   -4.4981 H   0  0  0  0  0  0  0  0  0  0  0  0
   -5.0622    8.2445   -1.3168 H   0  0  0  0  0  0  0  0  0  0  0  0
   -4.0650   -1.0521   -3.0066 H   0  0  0  0  0  0  0  0  0  0  0  0
   -2.5561   -2.3501   -4.4717 H   0  0  0  0  0  0  0  0  0  0  0  0
   -0.7833   -4.9575   -3.3514 H   0  0  0  0  0  0  0  0  0  0  0  0
   -0.5643   -6.4834   -4.2987 H   0  0  0  0  0  0  0  0  0  0  0  0
   -1.8782   -6.3763   -3.0771 H   0  0  0  0  0  0  0  0  0  0  0  0
   -4.5457   -5.9814   -3.3093 H   0  0  0  0  0  0  0  0  0  0  0  0
   -5.9974   -4.7181   -1.7963 H   0  0  0  0  0  0  0  0  0  0  0  0
   -7.7298   -2.6192   -3.5426 H   0  0  0  0  0  0  0  0  0  0  0  0
   -9.9928   -3.5864   -3.3897 H   0  0  0  0  0  0  0  0  0  0  0  0
  -12.2078   -2.0892   -0.3477 H   0  0  0  0  0  0  0  0  0  0  0  0
  -13.6230   -2.9002   -1.1316 H   0  0  0  0  0  0  0  0  0  0  0  0
  -12.3015   -2.2174   -2.1557 H   0  0  0  0  0  0  0  0  0  0  0  0
   -9.7528   -3.5199    0.8975 H   0  0  0  0  0  0  0  0  0  0  0  0
   -7.4711   -2.6379    0.7665 H   0  0  0  0  0  0  0  0  0  0  0  0
   -5.0107   -1.4893    6.1348 H   0  0  0  0  0  0  0  0  0  0  0  0
   -5.6777    0.2610    7.7028 H   0  0  0  0  0  0  0  0  0  0  0  0
   -2.8413    3.0819    7.7196 H   0  0  0  0  0  0  0  0  0  0  0  0
   -3.5042    3.9808    9.1469 H   0  0  0  0  0  0  0  0  0  0  0  0
   -3.5424    2.1782    9.1096 H   0  0  0  0  0  0  0  0  0  0  0  0
   -4.0670    3.2620    5.0849 H   0  0  0  0  0  0  0  0  0  0  0  0
   -3.4476    1.5537    3.4755 H   0  0  0  0  0  0  0  0  0  0  0  0
   -1.9078   -3.0782    4.2451 H   0  0  0  0  0  0  0  0  0  0  0  0
   -2.3617   -5.5165    4.2175 H   0  0  0  0  0  0  0  0  0  0  0  0
   -5.4099   -6.6709    6.3279 H   0  0  0  0  0  0  0  0  0  0  0  0
   -4.8335   -8.3683    6.0336 H   0  0  0  0  0  0  0  0  0  0  0  0
   -3.6398   -7.0214    6.1519 H   0  0  0  0  0  0  0  0  0  0  0  0
   -6.5555   -4.7632    3.8434 H   0  0  0  0  0  0  0  0  0  0  0  0
   -6.1110   -2.3396    3.7053 H   0  0  0  0  0  0  0  0  0  0  0  0
   -2.5666    1.0359    0.3548 H   0  0  0  0  0  0  0  0  0  0  0  0
   -2.6685    2.4978   -1.6242 H   0  0  0  0  0  0  0  0  0  0  0  0
   -0.2991    2.9008   -3.6468 H   0  0  0  0  0  0  0  0  0  0  0  0
    1.0482    3.9509   -3.0175 H   0  0  0  0  0  0  0  0  0  0  0  0
    0.0944    4.4695   -4.4643 H   0  0  0  0  0  0  0  0  0  0  0  0
    0.7970    4.6220   -0.2373 H   0  0  0  0  0  0  0  0  0  0  0  0
    0.9642    3.0994    1.6897 H   0  0  0  0  0  0  0  0  0  0  0  0
   -1.1194    3.7781    3.1164 H   0  0  0  0  0  0  0  0  0  0  0  0
   -0.6977    4.7352    5.3206 H   0  0  0  0  0  0  0  0  0  0  0  0
    2.1369    4.1437    6.6279 H   0  0  0  0  0  0  0  0  0  0  0  0
    2.2732    2.5259    7.4417 H   0  0  0  0  0  0  0  0  0  0  0  0
    2.4246    4.0435    8.4072 H   0  0  0  0  0  0  0  0  0  0  0  0
   -0.0301    0.8185    6.9396 H   0  0  0  0  0  0  0  0  0  0  0  0
   -0.3869   -0.1716    4.7422 H   0  0  0  0  0  0  0  0  0  0  0  0
    5.3802   -2.5130    3.7431 H   0  0  0  0  0  0  0  0  0  0  0  0
    7.8129   -2.5721    3.4087 H   0  0  0  0  0  0  0  0  0  0  0  0
    9.5455   -5.0285    2.9332 H   0  0  0  0  0  0  0  0  0  0  0  0
   10.7224   -5.3925    1.6089 H   0  0  0  0  0  0  0  0  0  0  0  0
    8.9554   -5.7624    1.3844 H   0  0  0  0  0  0  0  0  0  0  0  0
    7.2212   -4.1529   -0.5530 H   0  0  0  0  0  0  0  0  0  0  0  0
    4.7774   -4.1801   -0.1786 H   0  0  0  0  0  0  0  0  0  0  0  0
    3.9220   -4.0307    4.5745 H   0  0  0  0  0  0  0  0  0  0  0  0
    2.7461   -5.7531    5.8388 H   0  0  0  0  0  0  0  0  0  0  0  0
   -0.7193   -5.2589    5.6326 H   0  0  0  0  0  0  0  0  0  0  0  0
   -0.9295   -6.3709    7.0371 H   0  0  0  0  0  0  0  0  0  0  0  0
    0.6126   -5.5132    6.7883 H   0  0  0  0  0  0  0  0  0  0  0  0
    0.3501   -6.6676    2.3995 H   0  0  0  0  0  0  0  0  0  0  0  0
    1.6529   -5.0434    1.0512 H   0  0  0  0  0  0  0  0  0  0  0  0
    3.4985   -1.3343   -0.9346 H   0  0  0  0  0  0  0  0  0  0  0  0
    2.3416   -3.1798   -6.7029 H   0  0  0  0  0  0  0  0  0  0  0  0
    0.8297   -2.3691   -6.1613 H   0  0  0  0  0  0  0  0  0  0  0  0
    1.2344   -1.4797   -8.3538 H   0  0  0  0  0  0  0  0  0  0  0  0
    3.0086   -1.2840   -8.0502 H   0  0  0  0  0  0  0  0  0  0  0  0
    1.8245   -0.1872   -7.2519 H   0  0  0  0  0  0  0  0  0  0  0  0
   10.1751    4.4627    2.1408 H   0  0  0  0  0  0  0  0  0  0  0  0
   11.8302    3.9294    1.6859 H   0  0  0  0  0  0  0  0  0  0  0  0
   11.3828    3.6059    4.1267 H   0  0  0  0  0  0  0  0  0  0  0  0
    9.9904    2.5228    3.7362 H   0  0  0  0  0  0  0  0  0  0  0  0
   11.6772    2.0275    3.3053 H   0  0  0  0  0  0  0  0  0  0  0  0
    9.5273    1.7702   -3.1239 H   0  0  0  0  0  0  0  0  0  0  0  0
    9.5334    2.7858   -5.6349 H   0  0  0  0  0  0  0  0  0  0  0  0
    8.9854   -1.9507   -9.9537 H   0  0  0  0  0  0  0  0  0  0  0  0
  1  2  2  3
  2  3  1  0
  3  4  2  0
  3  5  1  0
  5  6  2  0
  6  7  1  0
  7  8  2  0
  8  9  1  0
  9 10  2  0
 10 11  1  0
 11 12  2  3
 12 13  1  0
 13 14  3  0
 12 15  1  0
 15 16  3  0
  8 17  1  0
 17 18  1  0
 18 19  1  0
 19 20  2  0
 20 21  1  0
 21 22  1  0
 21 23  1  0
  1 24  1  0
 24 25  2  0
 25 26  1  0
 26 27  1  0
 27 28  2  0
 28 29  1  0
 29 30  2  0
 30 31  1  0
 31 32  1  0
 30 33  1  0
 33 34  2  0
 26 35  1  0
 35 36  2  0
 36 37  1  0
 37 38  2  0
 38 39  1  0
 39 40  1  0
 38 41  1  0
 41 42  2  0
 25 43  1  0
 43 44  1  0
 44 45  1  0
 45 46  2  0
 46 47  1  0
 47 48  1  0
 48 49  2  0
 49 50  1  0
 50 51  2  0
 51 52  1  0
 52 53  1  0
 51 54  1  0
 54 55  2  0
 47 56  1  0
 56 57  2  0
 57 58  1  0
 58 59  2  0
 59 60  1  0
 60 61  1  0
 59 62  1  0
 62 63  2  0
 46 64  1  0
 64 65  1  0
 45 66  1  0
 66 67  2  0
 67 68  1  0
 68 69  1  0
 69 70  2  0
 70 71  1  0
 71 72  2  0
 72 73  1  0
 73 74  1  0
 72 75  1  0
 75 76  2  0
 68 77  1  0
 77 78  2  0
 78 79  1  0
 79 80  2  0
 80 81  1  0
 81 82  1  0
 80 83  1  0
 83 84  2  0
 67 85  1  0
 85 86  1  0
 86 87  1  0
 87 88  2  0
 88 89  1  0
 89 90  1  0
 90 91  2  0
 91 92  1  0
 92 93  2  0
 93 94  1  0
 94 95  1  0
 93 96  1  0
 96 97  2  0
 89 98  1  0
 98 99  2  0
 99100  1  0
100101  2  0
101102  1  0
102103  1  0
101104  1  0
104105  2  0
 88106  1  0
106107  1  0
 87108  1  0
108109  2  0
109110  1  0
110111  2  0
111112  1  0
112113  1  0
113114  1  0
114115  1  0
115116  1  0
114117  2  0
117118  1  0
117119  1  0
119120  1  0
111121  1  0
121122  2  0
122123  1  0
123124  1  0
124125  1  0
125126  1  0
126127  1  0
127128  1  0
126129  2  0
129130  1  0
130131  1  0
129132  1  0
123133  2  0
133134  1  0
122135  1  0
135136  2  0
136137  1  0
136138  1  0
138139  2  3
139140  1  0
140141  2  0
140142  1  0
142143  1  0
143144  2  0
144145  1  0
144146  1  0
146147  1  0
147148  1  0
148149  2  3
149150  1  0
150151  3  0
149152  1  0
152153  3  0
 11  2  1  0
 23 17  1  0
 65 24  1  0
107 66  1  0
134108  1  0
148139  1  0
 10  5  1  0
 22 18  1  0
 34 27  1  0
 42 35  1  0
 64 43  2  0
 76 69  1  0
 84 77  1  0
106 85  2  0
133110  1  0
147142  2  0
 23  7  1  0
 55 48  1  0
 63 56  1  0
 97 90  1  0
105 98  1  0
119112  2  0
137121  1  0
130124  2  0
  1154  1  0
  6155  1  0
  9156  1  0
 17157  1  0
 18158  1  0
 19159  1  0
 20160  1  0
 21161  1  0
 22162  1  0
 22163  1  0
 23164  1  0
 28165  1  0
 29166  1  0
 32167  1  0
 32168  1  0
 32169  1  0
 33170  1  0
 34171  1  0
 36172  1  0
 37173  1  0
 40174  1  0
 40175  1  0
 40176  1  0
 41177  1  0
 42178  1  0
 49179  1  0
 50180  1  0
 53181  1  0
 53182  1  0
 53183  1  0
 54184  1  0
 55185  1  0
 57186  1  0
 58187  1  0
 61188  1  0
 61189  1  0
 61190  1  0
 62191  1  0
 63192  1  0
 70193  1  0
 71194  1  0
 74195  1  0
 74196  1  0
 74197  1  0
 75198  1  0
 76199  1  0
 78200  1  0
 79201  1  0
 82202  1  0
 82203  1  0
 82204  1  0
 83205  1  0
 84206  1  0
 91207  1  0
 92208  1  0
 95209  1  0
 95210  1  0
 95211  1  0
 96212  1  0
 97213  1  0
 99214  1  0
100215  1  0
103216  1  0
103217  1  0
103218  1  0
104219  1  0
105220  1  0
109221  1  0
115222  1  0
115223  1  0
116224  1  0
116225  1  0
116226  1  0
127227  1  0
127228  1  0
128229  1  0
128230  1  0
128231  1  0
135232  1  0
138233  1  0
143234  1  0
M  END

