
     RDKit          3D

190209  0  0  0  0  0  0  0  0999 V2000
    5.8106   -5.0177   -0.7463 C   0  0  0  0  0  0  0  0  0  0  0  0
    6.3671   -4.9752    0.4822 C   0  0  0  0  0  0  0  0  0  0  0  0
    7.3671   -5.9375    0.9390 C   0  0  0  0  0  0  0  0  0  0  0  0
    8.0312   -6.7217    0.2069 O   0  0  0  0  0  0  0  0  0  0  0  0
    7.4216   -5.9016    2.3895 C   0  0  0  0  0  0  0  0  0  0  0  0
    8.3189   -6.5998    3.2320 C   0  0  0  0  0  0  0  0  0  0  0  0
    8.2143   -6.2581    4.5710 C   0  0  0  0  0  0  0  0  0  0  0  0
    7.2684   -5.3054    5.0579 C   0  0  0  0  0  0  0  0  0  0  0  0
    6.3763   -4.6251    4.2486 C   0  0  0  0  0  0  0  0  0  0  0  0
    6.4840   -4.9395    2.8593 C   0  0  0  0  0  0  0  0  0  0  0  0
    5.8670   -4.2513    1.6903 C   0  0  0  0  0  0  0  0  0  0  0  0
    5.4050   -2.9776    1.7002 C   0  0  0  0  0  0  0  0  0  0  0  0
    5.6790   -2.0907    0.5942 C   0  0  0  0  0  0  0  0  0  0  0  0
    5.9263   -1.3702   -0.2837 N   0  0  0  0  0  0  0  0  0  0  0  0
    4.8779   -2.3339    2.8719 C   0  0  0  0  0  0  0  0  0  0  0  0
    4.4540   -1.7753    3.7982 N   0  0  0  0  0  0  0  0  0  0  0  0
    7.8226   -5.4364    6.4432 C   0  0  0  0  0  0  0  0  0  0  0  0
    8.7154   -4.2609    6.9608 C   0  0  0  0  0  0  0  0  0  0  0  0
    9.4454   -3.6169    5.7993 C   0  0  0  0  0  0  0  0  0  0  0  0
   10.3359   -4.5076    5.3621 C   0  0  0  0  0  0  0  0  0  0  0  0
   10.1762   -5.7345    6.2368 C   0  0  0  0  0  0  0  0  0  0  0  0
    9.8676   -5.0544    7.5600 C   0  0  0  0  0  0  0  0  0  0  0  0
    8.7971   -6.4112    5.9499 C   0  0  0  0  0  0  0  0  0  0  0  0
    4.4625   -4.4794   -1.0205 C   0  0  0  0  0  0  0  0  0  0  0  0
    4.2891   -3.4015   -1.9013 C   0  0  0  0  0  0  0  0  0  0  0  0
    5.3448   -2.9059   -2.5957 F   0  0  0  0  0  0  0  0  0  0  0  0
    3.0434   -2.7659   -1.9973 C   0  0  0  0  0  0  0  0  0  0  0  0
    1.9362   -3.2685   -1.2944 C   0  0  0  0  0  0  0  0  0  0  0  0
    2.0692   -4.4579   -0.5628 C   0  0  0  0  0  0  0  0  0  0  0  0
    0.9845   -5.0468    0.0112 N   0  0  0  0  0  0  0  0  0  0  0  0
    1.0984   -6.1957    0.7337 C   0  0  0  0  0  0  0  0  0  0  0  0
    2.3528   -6.7845    0.9024 C   0  0  0  0  0  0  0  0  0  0  0  0
    2.4761   -7.9597    1.6494 O   0  0  0  0  0  0  0  0  0  0  0  0
    3.7239   -8.6125    1.8491 C   0  0  0  0  0  0  0  0  0  0  0  0
    3.5156   -9.8484    2.7103 C   0  0  0  0  0  0  0  0  0  0  0  0
    3.4441   -6.1990    0.3325 N   0  0  0  0  0  0  0  0  0  0  0  0
    3.3323   -5.0601   -0.4097 C   0  0  0  0  0  0  0  0  0  0  0  0
    0.6673   -2.5316   -1.2587 C   0  0  0  0  0  0  0  0  0  0  0  0
    0.2543   -1.7245   -0.1879 C   0  0  0  0  0  0  0  0  0  0  0  0
    1.1559   -0.9995    0.6673 N   0  0  0  0  0  0  0  0  0  0  0  0
    1.9135    0.0981    0.1039 C   0  0  0  0  0  0  0  0  0  0  0  0
    1.3903    0.8729   -0.9558 C   0  0  0  0  0  0  0  0  0  0  0  0
    2.1495    1.8937   -1.5353 C   0  0  0  0  0  0  0  0  0  0  0  0
    3.4414    2.1597   -1.0730 C   0  0  0  0  0  0  0  0  0  0  0  0
    4.4535    3.3889   -1.8996 S   0  0  0  0  0  0  0  0  0  0  0  0
    3.8202    4.7759   -0.9073 C   0  0  0  0  0  0  0  0  0  0  0  0
    3.9650    1.4123   -0.0095 C   0  0  0  0  0  0  0  0  0  0  0  0
    3.2047    0.3947    0.5788 C   0  0  0  0  0  0  0  0  0  0  0  0
    1.0927   -1.2110    2.0936 C   0  0  0  0  0  0  0  0  0  0  0  0
    1.1024   -0.1231    2.9900 C   0  0  0  0  0  0  0  0  0  0  0  0
    1.0127   -0.3409    4.3699 C   0  0  0  0  0  0  0  0  0  0  0  0
    0.9089   -1.6387    4.8745 C   0  0  0  0  0  0  0  0  0  0  0  0
    0.7993   -1.9034    6.6446 S   0  0  0  0  0  0  0  0  0  0  0  0
   -1.0213   -1.9412    6.6560 C   0  0  0  0  0  0  0  0  0  0  0  0
    0.8975   -2.7264    3.9937 C   0  0  0  0  0  0  0  0  0  0  0  0
    0.9795   -2.5134    2.6130 C   0  0  0  0  0  0  0  0  0  0  0  0
   -1.0856   -1.3927   -0.3072 C   0  0  0  0  0  0  0  0  0  0  0  0
   -2.0649   -0.3228    0.5192 S   0  0  0  0  0  0  0  0  0  0  0  0
   -3.3472   -0.4422   -0.5952 C   0  0  0  0  0  0  0  0  0  0  0  0
   -2.9801   -1.3030   -1.6531 C   0  0  0  0  0  0  0  0  0  0  0  0
   -3.7234   -1.4625   -2.8785 N   0  0  0  0  0  0  0  0  0  0  0  0
   -3.0284   -1.3895   -4.1381 C   0  0  0  0  0  0  0  0  0  0  0  0
   -2.0519   -0.4005   -4.3594 C   0  0  0  0  0  0  0  0  0  0  0  0
   -1.3433   -0.3675   -5.5633 C   0  0  0  0  0  0  0  0  0  0  0  0
   -1.6111   -1.3146   -6.5547 C   0  0  0  0  0  0  0  0  0  0  0  0
   -0.6688   -1.3108   -8.0827 S   0  0  0  0  0  0  0  0  0  0  0  0
    0.6023   -2.4381   -7.4266 C   0  0  0  0  0  0  0  0  0  0  0  0
   -2.6080   -2.2761   -6.3584 C   0  0  0  0  0  0  0  0  0  0  0  0
   -3.3166   -2.3100   -5.1537 C   0  0  0  0  0  0  0  0  0  0  0  0
   -5.1683   -1.5438   -2.8476 C   0  0  0  0  0  0  0  0  0  0  0  0
   -5.9440   -0.8855   -3.8221 C   0  0  0  0  0  0  0  0  0  0  0  0
   -7.3361   -0.8578   -3.7183 C   0  0  0  0  0  0  0  0  0  0  0  0
   -7.9696   -1.4824   -2.6382 C   0  0  0  0  0  0  0  0  0  0  0  0
   -9.7509   -1.3640   -2.4522 S   0  0  0  0  0  0  0  0  0  0  0  0
   -9.6707    0.2458   -1.5979 C   0  0  0  0  0  0  0  0  0  0  0  0
   -7.2102   -2.1677   -1.6815 C   0  0  0  0  0  0  0  0  0  0  0  0
   -5.8210   -2.2064   -1.7921 C   0  0  0  0  0  0  0  0  0  0  0  0
   -1.7052   -1.8367   -1.4309 C   0  0  0  0  0  0  0  0  0  0  0  0
   -0.6370   -2.7884   -2.3277 S   0  0  0  0  0  0  0  0  0  0  0  0
   -4.4598    0.5104   -0.5770 C   0  0  0  0  0  0  0  0  0  0  0  0
   -5.0373    0.9917    0.5878 C   0  0  0  0  0  0  0  0  0  0  0  0
   -5.6457    2.2476    0.4425 C   0  0  0  0  0  0  0  0  0  0  0  0
   -6.1096    3.0300    1.6079 C   0  0  0  0  0  0  0  0  0  0  0  0
   -5.2446    3.2103    2.7120 C   0  0  0  0  0  0  0  0  0  0  0  0
   -3.9148    2.7578    2.6067 O   0  0  0  0  0  0  0  0  0  0  0  0
   -3.0352    2.4938    3.6999 C   0  0  0  0  0  0  0  0  0  0  0  0
   -3.4707    1.2409    4.4538 C   0  0  0  0  0  0  0  0  0  0  0  0
   -5.7228    3.8487    3.8689 C   0  0  0  0  0  0  0  0  0  0  0  0
   -7.0368    4.3120    3.9248 C   0  0  0  0  0  0  0  0  0  0  0  0
   -7.8896    4.1436    2.8340 C   0  0  0  0  0  0  0  0  0  0  0  0
   -7.4371    3.4993    1.6633 C   0  0  0  0  0  0  0  0  0  0  0  0
   -8.2856    3.2766    0.5617 O   0  0  0  0  0  0  0  0  0  0  0  0
   -9.7011    3.4522    0.5635 C   0  0  0  0  0  0  0  0  0  0  0  0
  -10.0885    4.9243    0.4290 C   0  0  0  0  0  0  0  0  0  0  0  0
   -5.5826    2.7383   -0.8638 C   0  0  0  0  0  0  0  0  0  0  0  0
   -4.7260    1.6259   -1.7975 S   0  0  0  0  0  0  0  0  0  0  0  0
   -5.7016    4.1494   -1.2468 C   0  0  0  0  0  0  0  0  0  0  0  0
   -4.6285    4.9660   -1.2543 C   0  0  0  0  0  0  0  0  0  0  0  0
   -3.2651    4.5777   -0.8526 C   0  0  0  0  0  0  0  0  0  0  0  0
   -2.9497    3.6150   -0.1039 O   0  0  0  0  0  0  0  0  0  0  0  0
   -2.3228    5.4760   -1.4739 C   0  0  0  0  0  0  0  0  0  0  0  0
   -0.9220    5.3043   -1.5529 C   0  0  0  0  0  0  0  0  0  0  0  0
   -0.3007    6.1980   -2.4085 C   0  0  0  0  0  0  0  0  0  0  0  0
   -1.0124    7.2005   -3.1478 C   0  0  0  0  0  0  0  0  0  0  0  0
   -2.3879    7.3733   -3.0678 C   0  0  0  0  0  0  0  0  0  0  0  0
   -3.0428    6.4794   -2.1772 C   0  0  0  0  0  0  0  0  0  0  0  0
   -4.4996    6.2813   -1.9474 C   0  0  0  0  0  0  0  0  0  0  0  0
   -5.4773    7.1971   -2.1475 C   0  0  0  0  0  0  0  0  0  0  0  0
   -6.8414    6.9624   -1.7571 C   0  0  0  0  0  0  0  0  0  0  0  0
   -7.9406    6.7793   -1.4455 N   0  0  0  0  0  0  0  0  0  0  0  0
   -5.1863    8.5341   -2.6046 C   0  0  0  0  0  0  0  0  0  0  0  0
   -4.9628    9.6126   -2.9579 N   0  0  0  0  0  0  0  0  0  0  0  0
    0.2566    7.6199   -3.8315 C   0  0  0  0  0  0  0  0  0  0  0  0
    0.4486    7.1876   -5.3190 C   0  0  0  0  0  0  0  0  0  0  0  0
   -0.2699    5.8824   -5.5769 C   0  0  0  0  0  0  0  0  0  0  0  0
    0.3853    4.9434   -4.8890 C   0  0  0  0  0  0  0  0  0  0  0  0
    1.5312    5.6392   -4.1887 C   0  0  0  0  0  0  0  0  0  0  0  0
    1.8726    6.6662   -5.2547 C   0  0  0  0  0  0  0  0  0  0  0  0
    0.9823    6.5902   -3.0773 C   0  0  0  0  0  0  0  0  0  0  0  0
    6.2584   -5.6408   -1.5155 H   0  0  0  0  0  0  0  0  0  0  0  0
    9.0589   -7.2940    2.8571 H   0  0  0  0  0  0  0  0  0  0  0  0
    5.6883   -3.9170    4.6668 H   0  0  0  0  0  0  0  0  0  0  0  0
    7.1054   -5.8473    7.1875 H   0  0  0  0  0  0  0  0  0  0  0  0
    8.2199   -3.5476    7.6551 H   0  0  0  0  0  0  0  0  0  0  0  0
    9.3144   -2.6048    5.4284 H   0  0  0  0  0  0  0  0  0  0  0  0
   11.0705   -4.3354    4.5880 H   0  0  0  0  0  0  0  0  0  0  0  0
   11.0477   -6.4174    6.2487 H   0  0  0  0  0  0  0  0  0  0  0  0
   10.6970   -4.4089    7.9312 H   0  0  0  0  0  0  0  0  0  0  0  0
    9.5508   -5.7556    8.3701 H   0  0  0  0  0  0  0  0  0  0  0  0
    8.6698   -7.4257    6.3957 H   0  0  0  0  0  0  0  0  0  0  0  0
    2.9422   -1.8670   -2.5888 H   0  0  0  0  0  0  0  0  0  0  0  0
    0.2266   -6.6464    1.1884 H   0  0  0  0  0  0  0  0  0  0  0  0
    4.4328   -7.9209    2.3610 H   0  0  0  0  0  0  0  0  0  0  0  0
    4.1519   -8.9093    0.8655 H   0  0  0  0  0  0  0  0  0  0  0  0
    4.4723  -10.4042    2.8115 H   0  0  0  0  0  0  0  0  0  0  0  0
    3.1826   -9.5428    3.7254 H   0  0  0  0  0  0  0  0  0  0  0  0
    2.7539  -10.5163    2.2561 H   0  0  0  0  0  0  0  0  0  0  0  0
    0.3905    0.7034   -1.3305 H   0  0  0  0  0  0  0  0  0  0  0  0
    1.7342    2.4718   -2.3536 H   0  0  0  0  0  0  0  0  0  0  0  0
    4.0012    4.5922    0.1705 H   0  0  0  0  0  0  0  0  0  0  0  0
    2.7357    4.9101   -1.0970 H   0  0  0  0  0  0  0  0  0  0  0  0
    4.3454    5.7037   -1.2079 H   0  0  0  0  0  0  0  0  0  0  0  0
    4.9662    1.6085    0.3563 H   0  0  0  0  0  0  0  0  0  0  0  0
    3.6271   -0.1859    1.3876 H   0  0  0  0  0  0  0  0  0  0  0  0
    1.1562    0.8914    2.6183 H   0  0  0  0  0  0  0  0  0  0  0  0
    1.0153    0.5028    5.0468 H   0  0  0  0  0  0  0  0  0  0  0  0
   -1.3789   -1.8546    7.7042 H   0  0  0  0  0  0  0  0  0  0  0  0
   -1.4388   -1.0981    6.0712 H   0  0  0  0  0  0  0  0  0  0  0  0
   -1.3748   -2.9094    6.2393 H   0  0  0  0  0  0  0  0  0  0  0  0
    0.8066   -3.7376    4.3753 H   0  0  0  0  0  0  0  0  0  0  0  0
    0.9674   -3.3689    1.9527 H   0  0  0  0  0  0  0  0  0  0  0  0
   -1.8300    0.3284   -3.5915 H   0  0  0  0  0  0  0  0  0  0  0  0
   -0.5823    0.3880   -5.7151 H   0  0  0  0  0  0  0  0  0  0  0  0
    0.1466   -3.4204   -7.1825 H   0  0  0  0  0  0  0  0  0  0  0  0
    1.0634   -2.0057   -6.5175 H   0  0  0  0  0  0  0  0  0  0  0  0
    1.3955   -2.5862   -8.1889 H   0  0  0  0  0  0  0  0  0  0  0  0
   -2.8231   -3.0095   -7.1263 H   0  0  0  0  0  0  0  0  0  0  0  0
   -4.0709   -3.0741   -5.0005 H   0  0  0  0  0  0  0  0  0  0  0  0
   -5.4727   -0.3468   -4.6347 H   0  0  0  0  0  0  0  0  0  0  0  0
   -7.9191   -0.3245   -4.4538 H   0  0  0  0  0  0  0  0  0  0  0  0
   -9.2423    1.0108   -2.2771 H   0  0  0  0  0  0  0  0  0  0  0  0
   -9.0494    0.1719   -0.6822 H   0  0  0  0  0  0  0  0  0  0  0  0
  -10.6967    0.5522   -1.3145 H   0  0  0  0  0  0  0  0  0  0  0  0
   -7.6960   -2.6568   -0.8510 H   0  0  0  0  0  0  0  0  0  0  0  0
   -5.2469   -2.7294   -1.0337 H   0  0  0  0  0  0  0  0  0  0  0  0
   -4.9115    0.4994    1.5459 H   0  0  0  0  0  0  0  0  0  0  0  0
   -2.9620    3.3630    4.3751 H   0  0  0  0  0  0  0  0  0  0  0  0
   -2.0216    2.3157    3.2867 H   0  0  0  0  0  0  0  0  0  0  0  0
   -3.5836    0.3972    3.7387 H   0  0  0  0  0  0  0  0  0  0  0  0
   -4.4385    1.4171    4.9664 H   0  0  0  0  0  0  0  0  0  0  0  0
   -2.6982    0.9655    5.2020 H   0  0  0  0  0  0  0  0  0  0  0  0
   -5.0924    3.9978    4.7310 H   0  0  0  0  0  0  0  0  0  0  0  0
   -7.3984    4.8032    4.8208 H   0  0  0  0  0  0  0  0  0  0  0  0
   -8.9053    4.5006    2.9147 H   0  0  0  0  0  0  0  0  0  0  0  0
  -10.1300    2.8954   -0.2965 H   0  0  0  0  0  0  0  0  0  0  0  0
  -10.1381    3.0059    1.4847 H   0  0  0  0  0  0  0  0  0  0  0  0
  -11.0094    5.1297    1.0242 H   0  0  0  0  0  0  0  0  0  0  0  0
   -9.2771    5.5840    0.8066 H   0  0  0  0  0  0  0  0  0  0  0  0
  -10.2865    5.1803   -0.6364 H   0  0  0  0  0  0  0  0  0  0  0  0
   -6.6350    4.4414   -1.6960 H   0  0  0  0  0  0  0  0  0  0  0  0
   -0.3906    4.5013   -1.0571 H   0  0  0  0  0  0  0  0  0  0  0  0
   -2.8986    8.0747   -3.7012 H   0  0  0  0  0  0  0  0  0  0  0  0
    0.5762    8.6558   -3.5979 H   0  0  0  0  0  0  0  0  0  0  0  0
    0.2641    7.9814   -6.0724 H   0  0  0  0  0  0  0  0  0  0  0  0
   -1.1152    5.7149   -6.2392 H   0  0  0  0  0  0  0  0  0  0  0  0
    0.1684    3.8804   -4.9015 H   0  0  0  0  0  0  0  0  0  0  0  0
    2.3620    4.9753   -3.8777 H   0  0  0  0  0  0  0  0  0  0  0  0
    2.6157    7.4307   -4.9147 H   0  0  0  0  0  0  0  0  0  0  0  0
    2.2216    6.2062   -6.2138 H   0  0  0  0  0  0  0  0  0  0  0  0
    1.7499    6.9978   -2.3812 H   0  0  0  0  0  0  0  0  0  0  0  0
  1  2  2  3
  2  3  1  0
  3  4  2  0
  3  5  1  0
  5  6  2  0
  6  7  1  0
  7  8  2  0
  8  9  1  0
  9 10  2  0
 10 11  1  0
 11 12  2  3
 12 13  1  0
 13 14  3  0
 12 15  1  0
 15 16  3  0
  8 17  1  0
 17 18  1  0
 18 19  1  0
 19 20  2  0
 20 21  1  0
 21 22  1  0
 21 23  1  0
  1 24  1  0
 24 25  2  0
 25 26  1  0
 25 27  1  0
 27 28  2  0
 28 29  1  0
 29 30  2  0
 30 31  1  0
 31 32  2  0
 32 33  1  0
 33 34  1  0
 34 35  1  0
 32 36  1  0
 36 37  2  0
 28 38  1  0
 38 39  2  0
 39 40  1  0
 40 41  1  0
 41 42  2  0
 42 43  1  0
 43 44  2  0
 44 45  1  0
 45 46  1  0
 44 47  1  0
 47 48  2  0
 40 49  1  0
 49 50  2  0
 50 51  1  0
 51 52  2  0
 52 53  1  0
 53 54  1  0
 52 55  1  0
 55 56  2  0
 39 57  1  0
 57 58  1  0
 58 59  1  0
 59 60  2  0
 60 61  1  0
 61 62  1  0
 62 63  2  0
 63 64  1  0
 64 65  2  0
 65 66  1  0
 66 67  1  0
 65 68  1  0
 68 69  2  0
 61 70  1  0
 70 71  2  0
 71 72  1  0
 72 73  2  0
 73 74  1  0
 74 75  1  0
 73 76  1  0
 76 77  2  0
 60 78  1  0
 78 79  1  0
 59 80  1  0
 80 81  2  0
 81 82  1  0
 82 83  1  0
 83 84  2  0
 84 85  1  0
 85 86  1  0
 86 87  1  0
 84 88  1  0
 88 89  2  0
 89 90  1  0
 90 91  2  0
 91 92  1  0
 92 93  1  0
 93 94  1  0
 82 95  2  0
 95 96  1  0
 95 97  1  0
 97 98  2  3
 98 99  1  0
 99100  2  0
 99101  1  0
101102  2  0
102103  1  0
103104  2  0
104105  1  0
105106  2  0
106107  1  0
107108  2  3
108109  1  0
109110  3  0
108111  1  0
111112  3  0
104113  1  0
113114  1  0
114115  1  0
115116  2  0
116117  1  0
117118  1  0
117119  1  0
 11  2  1  0
 23 17  1  0
 37 24  1  0
 79 38  1  0
 96 80  1  0
107 98  1  0
119113  1  0
 10  5  1  0
 22 18  1  0
 37 29  1  0
 48 41  1  0
 56 49  1  0
 78 57  2  0
 91 83  1  0
106101  1  0
118114  1  0
 23  7  1  0
 69 62  1  0
 77 70  1  0
119103  1  0
  1120  1  0
  6121  1  0
  9122  1  0
 17123  1  0
 18124  1  0
 19125  1  0
 20126  1  0
 21127  1  0
 22128  1  0
 22129  1  0
 23130  1  0
 27131  1  0
 31132  1  0
 34133  1  0
 34134  1  0
 35135  1  0
 35136  1  0
 35137  1  0
 42138  1  0
 43139  1  0
 46140  1  0
 46141  1  0
 46142  1  0
 47143  1  0
 48144  1  0
 50145  1  0
 51146  1  0
 54147  1  0
 54148  1  0
 54149  1  0
 55150  1  0
 56151  1  0
 63152  1  0
 64153  1  0
 67154  1  0
 67155  1  0
 67156  1  0
 68157  1  0
 69158  1  0
 71159  1  0
 72160  1  0
 75161  1  0
 75162  1  0
 75163  1  0
 76164  1  0
 77165  1  0
 81166  1  0
 86167  1  0
 86168  1  0
 87169  1  0
 87170  1  0
 87171  1  0
 88172  1  0
 89173  1  0
 90174  1  0
 93175  1  0
 93176  1  0
 94177  1  0
 94178  1  0
 94179  1  0
 97180  1  0
102181  1  0
105182  1  0
113183  1  0
114184  1  0
115185  1  0
116186  1  0
117187  1  0
118188  1  0
118189  1  0
119190  1  0
M  END

