
     RDKit          3D

234259  0  0  0  0  0  0  0  0999 V2000
   -7.7952   -5.3194   -1.5650 C   0  0  0  0  0  0  0  0  0  0  0  0
   -8.0615   -5.8052   -0.3414 C   0  0  0  0  0  0  0  0  0  0  0  0
   -8.7771   -7.0725   -0.1537 C   0  0  0  0  0  0  0  0  0  0  0  0
   -9.6707   -7.5322   -0.9125 O   0  0  0  0  0  0  0  0  0  0  0  0
   -8.2312   -7.7522    1.0092 C   0  0  0  0  0  0  0  0  0  0  0  0
   -8.5426   -9.0463    1.4835 C   0  0  0  0  0  0  0  0  0  0  0  0
   -7.7787   -9.4469    2.5717 C   0  0  0  0  0  0  0  0  0  0  0  0
   -6.7624   -8.6177    3.1539 C   0  0  0  0  0  0  0  0  0  0  0  0
   -6.4567   -7.3474    2.6890 C   0  0  0  0  0  0  0  0  0  0  0  0
   -7.2393   -6.9216    1.5885 C   0  0  0  0  0  0  0  0  0  0  0  0
   -7.2376   -5.6081    0.8881 C   0  0  0  0  0  0  0  0  0  0  0  0
   -7.1008   -4.4215    1.5195 C   0  0  0  0  0  0  0  0  0  0  0  0
   -6.4093   -4.2803    2.7748 C   0  0  0  0  0  0  0  0  0  0  0  0
   -5.8619   -4.1588    3.7907 N   0  0  0  0  0  0  0  0  0  0  0  0
   -7.8567   -3.2728    1.0951 C   0  0  0  0  0  0  0  0  0  0  0  0
   -8.4692   -2.3498    0.7621 N   0  0  0  0  0  0  0  0  0  0  0  0
   -6.4622   -9.6681    4.1792 C   0  0  0  0  0  0  0  0  0  0  0  0
   -6.9939   -9.3979    5.6167 C   0  0  0  0  0  0  0  0  0  0  0  0
   -6.9004  -10.7198    6.3401 C   0  0  0  0  0  0  0  0  0  0  0  0
   -7.8309  -11.5179    5.7905 C   0  0  0  0  0  0  0  0  0  0  0  0
   -8.5261  -10.6998    4.7277 C   0  0  0  0  0  0  0  0  0  0  0  0
   -8.5049   -9.3501    5.4211 C   0  0  0  0  0  0  0  0  0  0  0  0
   -7.4943  -10.5242    3.5805 C   0  0  0  0  0  0  0  0  0  0  0  0
   -6.5039   -4.7007   -1.8927 C   0  0  0  0  0  0  0  0  0  0  0  0
   -6.0912   -3.4058   -1.5766 C   0  0  0  0  0  0  0  0  0  0  0  0
   -4.7885   -3.3493   -2.0031 C   0  0  0  0  0  0  0  0  0  0  0  0
   -3.8321   -2.3298   -1.8728 C   0  0  0  0  0  0  0  0  0  0  0  0
   -4.1129   -1.0663   -1.1933 C   0  0  0  0  0  0  0  0  0  0  0  0
   -4.6935   -0.0142   -1.9028 C   0  0  0  0  0  0  0  0  0  0  0  0
   -4.9764    1.1904   -1.2592 C   0  0  0  0  0  0  0  0  0  0  0  0
   -5.5647    2.1921   -1.9623 F   0  0  0  0  0  0  0  0  0  0  0  0
   -4.6665    1.3631    0.1059 C   0  0  0  0  0  0  0  0  0  0  0  0
   -5.0363    2.6438    0.8132 C   0  0  0  0  0  0  0  0  0  0  0  0
   -6.4828    2.5930    1.2938 C   0  0  0  0  0  0  0  0  0  0  0  0
   -4.0944    0.2909    0.8149 C   0  0  0  0  0  0  0  0  0  0  0  0
   -3.8203    0.4047    2.1371 F   0  0  0  0  0  0  0  0  0  0  0  0
   -3.8107   -0.9130    0.1616 C   0  0  0  0  0  0  0  0  0  0  0  0
   -2.5627   -2.6221   -2.3803 C   0  0  0  0  0  0  0  0  0  0  0  0
   -2.2642   -3.8207   -3.0105 C   0  0  0  0  0  0  0  0  0  0  0  0
   -3.2290   -4.8491   -3.1558 C   0  0  0  0  0  0  0  0  0  0  0  0
   -2.9298   -6.1408   -3.8322 C   0  0  0  0  0  0  0  0  0  0  0  0
   -3.3902   -7.3560   -3.2990 C   0  0  0  0  0  0  0  0  0  0  0  0
   -3.0655   -8.5719   -3.9071 C   0  0  0  0  0  0  0  0  0  0  0  0
   -2.2634   -8.5921   -5.0618 C   0  0  0  0  0  0  0  0  0  0  0  0
   -1.8508   -9.9103   -5.6747 C   0  0  0  0  0  0  0  0  0  0  0  0
   -0.6892  -10.5253   -4.8979 C   0  0  0  0  0  0  0  0  0  0  0  0
   -1.8080   -7.3821   -5.6010 C   0  0  0  0  0  0  0  0  0  0  0  0
   -2.1616   -6.1693   -5.0081 C   0  0  0  0  0  0  0  0  0  0  0  0
   -1.0131   -7.3731   -6.7010 F   0  0  0  0  0  0  0  0  0  0  0  0
   -3.5189   -9.7288   -3.3571 F   0  0  0  0  0  0  0  0  0  0  0  0
   -4.4970   -4.5664   -2.5965 C   0  0  0  0  0  0  0  0  0  0  0  0
   -5.5453   -5.3518   -2.5276 O   0  0  0  0  0  0  0  0  0  0  0  0
   -0.9161   -3.7704   -3.2989 C   0  0  0  0  0  0  0  0  0  0  0  0
   -0.4998   -2.5356   -2.8138 C   0  0  0  0  0  0  0  0  0  0  0  0
   -1.5032   -1.8666   -2.2891 O   0  0  0  0  0  0  0  0  0  0  0  0
    0.8683   -2.0307   -2.8043 C   0  0  0  0  0  0  0  0  0  0  0  0
    1.7757   -2.1151   -1.7200 C   0  0  0  0  0  0  0  0  0  0  0  0
    1.6035   -2.9204   -0.5262 N   0  0  0  0  0  0  0  0  0  0  0  0
    0.4840   -3.8036   -0.3335 C   0  0  0  0  0  0  0  0  0  0  0  0
    0.5410   -5.1204   -0.8120 C   0  0  0  0  0  0  0  0  0  0  0  0
   -0.5335   -5.9942   -0.6041 C   0  0  0  0  0  0  0  0  0  0  0  0
   -1.6619   -5.5699    0.1093 C   0  0  0  0  0  0  0  0  0  0  0  0
   -3.0654   -6.6625    0.3401 S   0  0  0  0  0  0  0  0  0  0  0  0
   -2.3668   -7.4798    1.8101 C   0  0  0  0  0  0  0  0  0  0  0  0
   -1.7087   -4.2596    0.6125 C   0  0  0  0  0  0  0  0  0  0  0  0
   -0.6406   -3.3807    0.3872 C   0  0  0  0  0  0  0  0  0  0  0  0
    2.6198   -2.9802    0.4809 C   0  0  0  0  0  0  0  0  0  0  0  0
    2.5051   -2.2069    1.6409 C   0  0  0  0  0  0  0  0  0  0  0  0
    3.4910   -2.2745    2.6303 C   0  0  0  0  0  0  0  0  0  0  0  0
    4.5904   -3.1200    2.4645 C   0  0  0  0  0  0  0  0  0  0  0  0
    5.8116   -3.2645    3.7675 S   0  0  0  0  0  0  0  0  0  0  0  0
    4.9451   -4.6498    4.5820 C   0  0  0  0  0  0  0  0  0  0  0  0
    4.7215   -3.8743    1.2950 C   0  0  0  0  0  0  0  0  0  0  0  0
    3.7423   -3.8004    0.3010 C   0  0  0  0  0  0  0  0  0  0  0  0
    2.8078   -1.1751   -1.8989 C   0  0  0  0  0  0  0  0  0  0  0  0
    3.9946   -0.5283   -0.9091 S   0  0  0  0  0  0  0  0  0  0  0  0
    4.3887    0.7847   -1.9203 C   0  0  0  0  0  0  0  0  0  0  0  0
    3.5646    0.7158   -3.0592 C   0  0  0  0  0  0  0  0  0  0  0  0
    3.5366    1.6778   -4.1333 N   0  0  0  0  0  0  0  0  0  0  0  0
    3.7054    1.1692   -5.4799 C   0  0  0  0  0  0  0  0  0  0  0  0
    2.8258    1.5512   -6.5111 C   0  0  0  0  0  0  0  0  0  0  0  0
    2.8926    0.9415   -7.7693 C   0  0  0  0  0  0  0  0  0  0  0  0
    3.8416   -0.0588   -8.0136 C   0  0  0  0  0  0  0  0  0  0  0  0
    3.8845   -0.8851   -9.6001 S   0  0  0  0  0  0  0  0  0  0  0  0
    2.6529   -2.1398   -9.1119 C   0  0  0  0  0  0  0  0  0  0  0  0
    4.7403   -0.4233   -7.0076 C   0  0  0  0  0  0  0  0  0  0  0  0
    4.6725    0.1847   -5.7486 C   0  0  0  0  0  0  0  0  0  0  0  0
    2.8957    2.9516   -3.9140 C   0  0  0  0  0  0  0  0  0  0  0  0
    3.3454    4.0928   -4.5969 C   0  0  0  0  0  0  0  0  0  0  0  0
    2.5933    5.2718   -4.5825 C   0  0  0  0  0  0  0  0  0  0  0  0
    1.3824    5.3191   -3.8778 C   0  0  0  0  0  0  0  0  0  0  0  0
    0.3475    6.7827   -3.9562 S   0  0  0  0  0  0  0  0  0  0  0  0
   -0.4749    6.2692   -5.4938 C   0  0  0  0  0  0  0  0  0  0  0  0
    0.9695    4.2151   -3.1294 C   0  0  0  0  0  0  0  0  0  0  0  0
    1.7218    3.0372   -3.1437 C   0  0  0  0  0  0  0  0  0  0  0  0
    2.7144   -0.3932   -3.0078 C   0  0  0  0  0  0  0  0  0  0  0  0
    1.3484   -0.8029   -3.8760 S   0  0  0  0  0  0  0  0  0  0  0  0
    5.2090    1.9099   -1.4402 C   0  0  0  0  0  0  0  0  0  0  0  0
    6.0975    1.8120   -0.3717 C   0  0  0  0  0  0  0  0  0  0  0  0
    6.4050    3.1102   -0.0444 C   0  0  0  0  0  0  0  0  0  0  0  0
    7.0082    3.6276    1.1137 C   0  0  0  0  0  0  0  0  0  0  0  0
    7.5128    2.7525    2.1889 C   0  0  0  0  0  0  0  0  0  0  0  0
    8.8924    2.6485    2.4241 C   0  0  0  0  0  0  0  0  0  0  0  0
    9.3736    1.7664    3.4010 C   0  0  0  0  0  0  0  0  0  0  0  0
   10.7184    1.6681    3.5959 F   0  0  0  0  0  0  0  0  0  0  0  0
    8.4821    0.9799    4.1529 C   0  0  0  0  0  0  0  0  0  0  0  0
    8.9986    0.0148    5.1935 C   0  0  0  0  0  0  0  0  0  0  0  0
    9.3287   -1.3354    4.5702 C   0  0  0  0  0  0  0  0  0  0  0  0
    7.0987    1.0918    3.9108 C   0  0  0  0  0  0  0  0  0  0  0  0
    6.2079    0.3497    4.6176 F   0  0  0  0  0  0  0  0  0  0  0  0
    6.6207    1.9768    2.9469 C   0  0  0  0  0  0  0  0  0  0  0  0
    6.8777    5.0144    1.2871 C   0  0  0  0  0  0  0  0  0  0  0  0
    6.3406    5.8304    0.3016 C   0  0  0  0  0  0  0  0  0  0  0  0
    5.7511    5.3147   -0.8655 C   0  0  0  0  0  0  0  0  0  0  0  0
    4.8926    6.1704   -1.6928 C   0  0  0  0  0  0  0  0  0  0  0  0
    5.4124    6.7668   -2.8501 C   0  0  0  0  0  0  0  0  0  0  0  0
    4.7079    7.7934   -3.4860 C   0  0  0  0  0  0  0  0  0  0  0  0
    3.4762    8.2380   -2.9647 C   0  0  0  0  0  0  0  0  0  0  0  0
    2.7504    9.3959   -3.6011 C   0  0  0  0  0  0  0  0  0  0  0  0
    3.2965   10.7241   -3.0916 C   0  0  0  0  0  0  0  0  0  0  0  0
    2.9722    7.6440   -1.7964 C   0  0  0  0  0  0  0  0  0  0  0  0
    3.6644    6.6066   -1.1790 C   0  0  0  0  0  0  0  0  0  0  0  0
    1.8264    8.0972   -1.2304 F   0  0  0  0  0  0  0  0  0  0  0  0
    5.2389    8.3722   -4.5911 F   0  0  0  0  0  0  0  0  0  0  0  0
    5.7589    3.9150   -0.9762 C   0  0  0  0  0  0  0  0  0  0  0  0
    5.0628    3.1732   -1.8138 O   0  0  0  0  0  0  0  0  0  0  0  0
    6.1892    7.0769    0.8544 C   0  0  0  0  0  0  0  0  0  0  0  0
    6.5569    6.9087    2.1801 C   0  0  0  0  0  0  0  0  0  0  0  0
    7.0238    5.6874    2.4047 O   0  0  0  0  0  0  0  0  0  0  0  0
    6.1977    7.8809    3.2277 C   0  0  0  0  0  0  0  0  0  0  0  0
    4.9012    8.1849    3.4593 C   0  0  0  0  0  0  0  0  0  0  0  0
    3.7618    7.4526    2.8712 C   0  0  0  0  0  0  0  0  0  0  0  0
    3.7882    6.2798    2.4130 O   0  0  0  0  0  0  0  0  0  0  0  0
    2.5667    8.2418    3.0151 C   0  0  0  0  0  0  0  0  0  0  0  0
    1.3210    8.0006    2.3823 C   0  0  0  0  0  0  0  0  0  0  0  0
    0.3837    8.9898    2.6040 C   0  0  0  0  0  0  0  0  0  0  0  0
    0.6378   10.1409    3.4107 C   0  0  0  0  0  0  0  0  0  0  0  0
    1.8631   10.3841    4.0183 C   0  0  0  0  0  0  0  0  0  0  0  0
    2.8569    9.3893    3.7935 C   0  0  0  0  0  0  0  0  0  0  0  0
    4.3092    9.3719    4.1751 C   0  0  0  0  0  0  0  0  0  0  0  0
    4.9539   10.2774    4.9718 C   0  0  0  0  0  0  0  0  0  0  0  0
    4.2654   11.3328    5.6579 C   0  0  0  0  0  0  0  0  0  0  0  0
    3.7135   12.1746    6.2315 N   0  0  0  0  0  0  0  0  0  0  0  0
    6.3719   10.2583    5.2230 C   0  0  0  0  0  0  0  0  0  0  0  0
    7.5126   10.2600    5.4328 N   0  0  0  0  0  0  0  0  0  0  0  0
   -0.7361   10.6622    3.1213 C   0  0  0  0  0  0  0  0  0  0  0  0
   -1.7940   10.5271    4.2610 C   0  0  0  0  0  0  0  0  0  0  0  0
   -3.1389   10.7442    3.6001 C   0  0  0  0  0  0  0  0  0  0  0  0
   -3.3652    9.6760    2.8293 C   0  0  0  0  0  0  0  0  0  0  0  0
   -2.1714    8.7680    2.9968 C   0  0  0  0  0  0  0  0  0  0  0  0
   -1.8914    9.0224    4.4672 C   0  0  0  0  0  0  0  0  0  0  0  0
   -0.9918    9.4861    2.2834 C   0  0  0  0  0  0  0  0  0  0  0  0
   -8.3494   -5.7314   -2.3998 H   0  0  0  0  0  0  0  0  0  0  0  0
   -9.2998   -9.6719    1.0309 H   0  0  0  0  0  0  0  0  0  0  0  0
   -5.6639   -6.7642    3.1385 H   0  0  0  0  0  0  0  0  0  0  0  0
   -5.4287  -10.0713    4.1221 H   0  0  0  0  0  0  0  0  0  0  0  0
   -6.5482   -8.5397    6.1545 H   0  0  0  0  0  0  0  0  0  0  0  0
   -6.2793  -10.9603    7.1935 H   0  0  0  0  0  0  0  0  0  0  0  0
   -8.0838  -12.5179    6.1354 H   0  0  0  0  0  0  0  0  0  0  0  0
   -9.5302  -11.0725    4.4228 H   0  0  0  0  0  0  0  0  0  0  0  0
   -8.8550   -8.5047    4.7881 H   0  0  0  0  0  0  0  0  0  0  0  0
   -9.0820   -9.3320    6.3786 H   0  0  0  0  0  0  0  0  0  0  0  0
   -7.1101  -11.4655    3.1248 H   0  0  0  0  0  0  0  0  0  0  0  0
   -6.6396   -2.6084   -1.0948 H   0  0  0  0  0  0  0  0  0  0  0  0
   -4.9446   -0.1376   -2.9487 H   0  0  0  0  0  0  0  0  0  0  0  0
   -4.9050    3.5094    0.1306 H   0  0  0  0  0  0  0  0  0  0  0  0
   -4.3656    2.8209    1.6799 H   0  0  0  0  0  0  0  0  0  0  0  0
   -6.6273    1.7355    1.9837 H   0  0  0  0  0  0  0  0  0  0  0  0
   -6.7335    3.5305    1.8298 H   0  0  0  0  0  0  0  0  0  0  0  0
   -7.1747    2.4860    0.4288 H   0  0  0  0  0  0  0  0  0  0  0  0
   -3.3818   -1.7351    0.7230 H   0  0  0  0  0  0  0  0  0  0  0  0
   -3.9741   -7.3738   -2.3842 H   0  0  0  0  0  0  0  0  0  0  0  0
   -2.7113  -10.6157   -5.6820 H   0  0  0  0  0  0  0  0  0  0  0  0
   -1.5461   -9.7756   -6.7333 H   0  0  0  0  0  0  0  0  0  0  0  0
   -0.3670  -11.4667   -5.3951 H   0  0  0  0  0  0  0  0  0  0  0  0
   -1.0018  -10.7688   -3.8616 H   0  0  0  0  0  0  0  0  0  0  0  0
    0.1754   -9.8252   -4.8639 H   0  0  0  0  0  0  0  0  0  0  0  0
   -1.8208   -5.2483   -5.4659 H   0  0  0  0  0  0  0  0  0  0  0  0
   -0.2882   -4.5443   -3.7111 H   0  0  0  0  0  0  0  0  0  0  0  0
    1.4071   -5.4615   -1.3592 H   0  0  0  0  0  0  0  0  0  0  0  0
   -0.4878   -7.0026   -1.0006 H   0  0  0  0  0  0  0  0  0  0  0  0
   -1.4302   -8.0140    1.5438 H   0  0  0  0  0  0  0  0  0  0  0  0
   -3.0975   -8.2191    2.1999 H   0  0  0  0  0  0  0  0  0  0  0  0
   -2.1591   -6.7316    2.6032 H   0  0  0  0  0  0  0  0  0  0  0  0
   -2.5759   -3.9208    1.1600 H   0  0  0  0  0  0  0  0  0  0  0  0
   -0.6928   -2.3709    0.7674 H   0  0  0  0  0  0  0  0  0  0  0  0
    1.6550   -1.5452    1.7714 H   0  0  0  0  0  0  0  0  0  0  0  0
    3.3923   -1.6751    3.5226 H   0  0  0  0  0  0  0  0  0  0  0  0
    3.8727   -4.4002    4.7476 H   0  0  0  0  0  0  0  0  0  0  0  0
    5.0266   -5.5687    3.9586 H   0  0  0  0  0  0  0  0  0  0  0  0
    5.4220   -4.8381    5.5646 H   0  0  0  0  0  0  0  0  0  0  0  0
    5.5739   -4.5265    1.1536 H   0  0  0  0  0  0  0  0  0  0  0  0
    3.8474   -4.3924   -0.6045 H   0  0  0  0  0  0  0  0  0  0  0  0
    2.0493    2.2888   -6.3391 H   0  0  0  0  0  0  0  0  0  0  0  0
    2.1870    1.2212   -8.5404 H   0  0  0  0  0  0  0  0  0  0  0  0
    2.5067   -2.8466   -9.9558 H   0  0  0  0  0  0  0  0  0  0  0  0
    3.0130   -2.7044   -8.2249 H   0  0  0  0  0  0  0  0  0  0  0  0
    1.6831   -1.6457   -8.8812 H   0  0  0  0  0  0  0  0  0  0  0  0
    5.4701   -1.1987   -7.1856 H   0  0  0  0  0  0  0  0  0  0  0  0
    5.3607   -0.1317   -4.9786 H   0  0  0  0  0  0  0  0  0  0  0  0
    4.2471    4.0504   -5.1957 H   0  0  0  0  0  0  0  0  0  0  0  0
    2.9298    6.1286   -5.1469 H   0  0  0  0  0  0  0  0  0  0  0  0
   -0.9946    5.2954   -5.3454 H   0  0  0  0  0  0  0  0  0  0  0  0
   -1.2227    7.0432   -5.7740 H   0  0  0  0  0  0  0  0  0  0  0  0
    0.2763    6.1748   -6.3097 H   0  0  0  0  0  0  0  0  0  0  0  0
    0.0464    4.2602   -2.5659 H   0  0  0  0  0  0  0  0  0  0  0  0
    1.3459    2.1780   -2.6069 H   0  0  0  0  0  0  0  0  0  0  0  0
    6.3398    0.9223    0.2028 H   0  0  0  0  0  0  0  0  0  0  0  0
    9.5880    3.2321    1.8345 H   0  0  0  0  0  0  0  0  0  0  0  0
    9.9130    0.4312    5.6812 H   0  0  0  0  0  0  0  0  0  0  0  0
    8.2371   -0.1401    5.9910 H   0  0  0  0  0  0  0  0  0  0  0  0
    9.6631   -2.0330    5.3666 H   0  0  0  0  0  0  0  0  0  0  0  0
   10.1448   -1.2273    3.8233 H   0  0  0  0  0  0  0  0  0  0  0  0
    8.4279   -1.7573    4.0761 H   0  0  0  0  0  0  0  0  0  0  0  0
    5.5561    2.0564    2.7714 H   0  0  0  0  0  0  0  0  0  0  0  0
    6.3840    6.4687   -3.2225 H   0  0  0  0  0  0  0  0  0  0  0  0
    2.8524    9.3511   -4.7094 H   0  0  0  0  0  0  0  0  0  0  0  0
    1.6630    9.3447   -3.3824 H   0  0  0  0  0  0  0  0  0  0  0  0
    3.2498   10.7623   -1.9819 H   0  0  0  0  0  0  0  0  0  0  0  0
    4.3466   10.8546   -3.4269 H   0  0  0  0  0  0  0  0  0  0  0  0
    2.6815   11.5521   -3.4981 H   0  0  0  0  0  0  0  0  0  0  0  0
    3.2865    6.1969   -0.2548 H   0  0  0  0  0  0  0  0  0  0  0  0
    5.6840    7.9355    0.4186 H   0  0  0  0  0  0  0  0  0  0  0  0
    7.0108    8.4075    3.6795 H   0  0  0  0  0  0  0  0  0  0  0  0
    1.1244    7.1405    1.7624 H   0  0  0  0  0  0  0  0  0  0  0  0
    2.0098   11.3080    4.5487 H   0  0  0  0  0  0  0  0  0  0  0  0
   -0.7386   11.6354    2.5779 H   0  0  0  0  0  0  0  0  0  0  0  0
   -1.6153   11.1338    5.1700 H   0  0  0  0  0  0  0  0  0  0  0  0
   -3.8353   11.5587    3.7700 H   0  0  0  0  0  0  0  0  0  0  0  0
   -4.2657    9.4841    2.2454 H   0  0  0  0  0  0  0  0  0  0  0  0
   -2.3234    7.7111    2.7000 H   0  0  0  0  0  0  0  0  0  0  0  0
   -0.9544    8.5482    4.8509 H   0  0  0  0  0  0  0  0  0  0  0  0
   -2.7229    8.7228    5.1458 H   0  0  0  0  0  0  0  0  0  0  0  0
   -1.1335    9.7108    1.2007 H   0  0  0  0  0  0  0  0  0  0  0  0
  1  2  2  3
  2  3  1  0
  3  4  2  0
  3  5  1  0
  5  6  2  0
  6  7  1  0
  7  8  2  0
  8  9  1  0
  9 10  2  0
 10 11  1  0
 11 12  2  3
 12 13  1  0
 13 14  3  0
 12 15  1  0
 15 16  3  0
  8 17  1  0
 17 18  1  0
 18 19  1  0
 19 20  2  0
 20 21  1  0
 21 22  1  0
 21 23  1  0
  1 24  1  0
 24 25  2  0
 25 26  1  0
 26 27  2  0
 27 28  1  0
 28 29  2  0
 29 30  1  0
 30 31  1  0
 30 32  2  0
 32 33  1  0
 33 34  1  0
 32 35  1  0
 35 36  1  0
 35 37  2  0
 27 38  1  0
 38 39  2  0
 39 40  1  0
 40 41  1  0
 41 42  2  0
 42 43  1  0
 43 44  2  0
 44 45  1  0
 45 46  1  0
 44 47  1  0
 47 48  2  0
 47 49  1  0
 43 50  1  0
 40 51  2  0
 51 52  1  0
 39 53  1  0
 53 54  2  0
 54 55  1  0
 54 56  1  0
 56 57  2  0
 57 58  1  0
 58 59  1  0
 59 60  2  0
 60 61  1  0
 61 62  2  0
 62 63  1  0
 63 64  1  0
 62 65  1  0
 65 66  2  0
 58 67  1  0
 67 68  2  0
 68 69  1  0
 69 70  2  0
 70 71  1  0
 71 72  1  0
 70 73  1  0
 73 74  2  0
 57 75  1  0
 75 76  1  0
 76 77  1  0
 77 78  2  0
 78 79  1  0
 79 80  1  0
 80 81  2  0
 81 82  1  0
 82 83  2  0
 83 84  1  0
 84 85  1  0
 83 86  1  0
 86 87  2  0
 79 88  1  0
 88 89  2  0
 89 90  1  0
 90 91  2  0
 91 92  1  0
 92 93  1  0
 91 94  1  0
 94 95  2  0
 78 96  1  0
 96 97  1  0
 77 98  1  0
 98 99  2  0
 99100  1  0
100101  2  0
101102  1  0
102103  2  0
103104  1  0
104105  1  0
104106  2  0
106107  1  0
107108  1  0
106109  1  0
109110  1  0
109111  2  0
101112  1  0
112113  2  0
113114  1  0
114115  1  0
115116  2  0
116117  1  0
117118  2  0
118119  1  0
119120  1  0
118121  1  0
121122  2  0
121123  1  0
117124  1  0
114125  2  0
125126  1  0
113127  1  0
127128  2  0
128129  1  0
128130  1  0
130131  2  3
131132  1  0
132133  2  0
132134  1  0
134135  2  0
135136  1  0
136137  2  0
137138  1  0
138139  2  0
139140  1  0
140141  2  3
141142  1  0
142143  3  0
141144  1  0
144145  3  0
137146  1  0
146147  1  0
147148  1  0
148149  2  0
149150  1  0
150151  1  0
150152  1  0
 11  2  1  0
 23 17  1  0
 52 24  1  0
 97 56  1  0
126 98  1  0
140131  1  0
152146  1  0
 10  5  1  0
 22 18  1  0
 51 26  1  0
 66 59  1  0
 74 67  1  0
 96 75  2  0
125100  1  0
139134  1  0
151147  1  0
 23  7  1  0
 37 28  1  0
 55 38  1  0
 87 80  1  0
 95 88  1  0
111102  1  0
129112  1  0
152136  1  0
 48 41  1  0
122115  1  0
  1153  1  0
  6154  1  0
  9155  1  0
 17156  1  0
 18157  1  0
 19158  1  0
 20159  1  0
 21160  1  0
 22161  1  0
 22162  1  0
 23163  1  0
 25164  1  0
 29165  1  0
 33166  1  0
 33167  1  0
 34168  1  0
 34169  1  0
 34170  1  0
 37171  1  0
 42172  1  0
 45173  1  0
 45174  1  0
 46175  1  0
 46176  1  0
 46177  1  0
 48178  1  0
 53179  1  0
 60180  1  0
 61181  1  0
 64182  1  0
 64183  1  0
 64184  1  0
 65185  1  0
 66186  1  0
 68187  1  0
 69188  1  0
 72189  1  0
 72190  1  0
 72191  1  0
 73192  1  0
 74193  1  0
 81194  1  0
 82195  1  0
 85196  1  0
 85197  1  0
 85198  1  0
 86199  1  0
 87200  1  0
 89201  1  0
 90202  1  0
 93203  1  0
 93204  1  0
 93205  1  0
 94206  1  0
 95207  1  0
 99208  1  0
103209  1  0
107210  1  0
107211  1  0
108212  1  0
108213  1  0
108214  1  0
111215  1  0
116216  1  0
119217  1  0
119218  1  0
120219  1  0
120220  1  0
120221  1  0
122222  1  0
127223  1  0
130224  1  0
135225  1  0
138226  1  0
146227  1  0
147228  1  0
148229  1  0
149230  1  0
150231  1  0
151232  1  0
151233  1  0
152234  1  0
M  END

