
     RDKit          3D

238260  0  0  0  0  0  0  0  0999 V2000
   -0.0425   -6.4794   -6.3345 C   0  0  0  0  0  0  0  0  0  0  0  0
    1.2005   -6.8952   -6.6412 C   0  0  0  0  0  0  0  0  0  0  0  0
    2.3890   -6.5877   -5.8308 C   0  0  0  0  0  0  0  0  0  0  0  0
    2.4134   -6.4300   -4.5781 O   0  0  0  0  0  0  0  0  0  0  0  0
    3.5399   -6.5111   -6.6894 C   0  0  0  0  0  0  0  0  0  0  0  0
    4.8232   -6.0379   -6.3285 C   0  0  0  0  0  0  0  0  0  0  0  0
    5.6860   -5.9071   -7.3974 C   0  0  0  0  0  0  0  0  0  0  0  0
    5.3127   -6.2048   -8.7507 C   0  0  0  0  0  0  0  0  0  0  0  0
    4.0512   -6.6648   -9.1100 C   0  0  0  0  0  0  0  0  0  0  0  0
    3.1568   -6.8463   -8.0121 C   0  0  0  0  0  0  0  0  0  0  0  0
    1.7085   -7.2296   -8.0044 C   0  0  0  0  0  0  0  0  0  0  0  0
    1.0296   -7.8796   -8.9850 C   0  0  0  0  0  0  0  0  0  0  0  0
   -0.3390   -8.3051   -8.8151 C   0  0  0  0  0  0  0  0  0  0  0  0
   -1.4379   -8.6340   -8.6755 N   0  0  0  0  0  0  0  0  0  0  0  0
    1.6505   -8.2587  -10.2263 C   0  0  0  0  0  0  0  0  0  0  0  0
    2.1345   -8.5836  -11.2259 N   0  0  0  0  0  0  0  0  0  0  0  0
    6.6664   -5.7611   -9.2294 C   0  0  0  0  0  0  0  0  0  0  0  0
    6.7778   -4.3780   -9.9483 C   0  0  0  0  0  0  0  0  0  0  0  0
    5.7101   -3.4428   -9.4338 C   0  0  0  0  0  0  0  0  0  0  0  0
    6.0288   -3.1632   -8.1696 C   0  0  0  0  0  0  0  0  0  0  0  0
    7.3047   -3.9112   -7.8682 C   0  0  0  0  0  0  0  0  0  0  0  0
    7.9773   -3.7904   -9.2214 C   0  0  0  0  0  0  0  0  0  0  0  0
    7.0349   -5.4498   -7.8444 C   0  0  0  0  0  0  0  0  0  0  0  0
   -0.2211   -5.4111   -5.3426 C   0  0  0  0  0  0  0  0  0  0  0  0
    0.1383   -4.0819   -5.6102 C   0  0  0  0  0  0  0  0  0  0  0  0
   -0.0211   -3.4794   -6.9112 N   0  0  0  0  0  0  0  0  0  0  0  0
    0.7268   -2.3213   -7.3070 C   0  0  0  0  0  0  0  0  0  0  0  0
    0.0923   -1.0694   -7.3703 C   0  0  0  0  0  0  0  0  0  0  0  0
    0.7543    0.0306   -7.9191 C   0  0  0  0  0  0  0  0  0  0  0  0
    2.0490   -0.1235   -8.4320 C   0  0  0  0  0  0  0  0  0  0  0  0
    2.8529    1.2379   -9.2790 S   0  0  0  0  0  0  0  0  0  0  0  0
    2.2073    0.7630  -10.9167 C   0  0  0  0  0  0  0  0  0  0  0  0
    2.7053   -1.3523   -8.3181 C   0  0  0  0  0  0  0  0  0  0  0  0
    2.0505   -2.4509   -7.7541 C   0  0  0  0  0  0  0  0  0  0  0  0
   -1.1626   -3.8498   -7.7033 C   0  0  0  0  0  0  0  0  0  0  0  0
   -2.4326   -3.9500   -7.1074 C   0  0  0  0  0  0  0  0  0  0  0  0
   -3.5344   -4.3523   -7.8584 C   0  0  0  0  0  0  0  0  0  0  0  0
   -3.3802   -4.6816   -9.2105 C   0  0  0  0  0  0  0  0  0  0  0  0
   -4.8121   -5.1846  -10.1710 S   0  0  0  0  0  0  0  0  0  0  0  0
   -4.7818   -6.9075   -9.5759 C   0  0  0  0  0  0  0  0  0  0  0  0
   -2.1191   -4.5768   -9.8152 C   0  0  0  0  0  0  0  0  0  0  0  0
   -1.0139   -4.1609   -9.0661 C   0  0  0  0  0  0  0  0  0  0  0  0
    0.3079   -3.3716   -4.4288 C   0  0  0  0  0  0  0  0  0  0  0  0
    0.7187   -1.7904   -4.0342 S   0  0  0  0  0  0  0  0  0  0  0  0
    0.4492   -2.0037   -2.3661 C   0  0  0  0  0  0  0  0  0  0  0  0
    0.0017   -3.3176   -2.1260 C   0  0  0  0  0  0  0  0  0  0  0  0
   -0.7543   -3.7068   -0.9718 N   0  0  0  0  0  0  0  0  0  0  0  0
   -0.1152   -4.5398    0.0066 C   0  0  0  0  0  0  0  0  0  0  0  0
    0.8399   -3.9967    0.8773 C   0  0  0  0  0  0  0  0  0  0  0  0
    1.3946   -4.7852    1.8877 C   0  0  0  0  0  0  0  0  0  0  0  0
    1.0251   -6.1294    2.0112 C   0  0  0  0  0  0  0  0  0  0  0  0
    1.6921   -7.1257    3.3450 S   0  0  0  0  0  0  0  0  0  0  0  0
    3.2426   -7.5131    2.4665 C   0  0  0  0  0  0  0  0  0  0  0  0
    0.0902   -6.6807    1.1264 C   0  0  0  0  0  0  0  0  0  0  0  0
   -0.4812   -5.8878    0.1280 C   0  0  0  0  0  0  0  0  0  0  0  0
   -2.1522   -3.3264   -0.8474 C   0  0  0  0  0  0  0  0  0  0  0  0
   -2.8401   -2.7275   -1.9283 C   0  0  0  0  0  0  0  0  0  0  0  0
   -4.1488   -2.2691   -1.7772 C   0  0  0  0  0  0  0  0  0  0  0  0
   -4.8055   -2.4098   -0.5536 C   0  0  0  0  0  0  0  0  0  0  0  0
   -6.4844   -1.8095   -0.3685 S   0  0  0  0  0  0  0  0  0  0  0  0
   -5.9747   -0.2297    0.3868 C   0  0  0  0  0  0  0  0  0  0  0  0
   -4.1552   -3.0207    0.5166 C   0  0  0  0  0  0  0  0  0  0  0  0
   -2.8333   -3.4665    0.3794 C   0  0  0  0  0  0  0  0  0  0  0  0
   -0.0060   -4.0634   -3.2995 C   0  0  0  0  0  0  0  0  0  0  0  0
   -0.4382   -5.6415   -3.6704 S   0  0  0  0  0  0  0  0  0  0  0  0
    0.6057   -0.9635   -1.3500 C   0  0  0  0  0  0  0  0  0  0  0  0
    1.7140   -0.1144   -1.1887 C   0  0  0  0  0  0  0  0  0  0  0  0
    2.7366    0.0834   -2.1781 N   0  0  0  0  0  0  0  0  0  0  0  0
    4.0531   -0.4491   -1.9137 C   0  0  0  0  0  0  0  0  0  0  0  0
    5.1917    0.3630   -2.0641 C   0  0  0  0  0  0  0  0  0  0  0  0
    6.4664   -0.1526   -1.8088 C   0  0  0  0  0  0  0  0  0  0  0  0
    6.6154   -1.4778   -1.3819 C   0  0  0  0  0  0  0  0  0  0  0  0
    8.2542   -2.1391   -1.0563 S   0  0  0  0  0  0  0  0  0  0  0  0
    8.2898   -1.5413    0.6634 C   0  0  0  0  0  0  0  0  0  0  0  0
    5.4841   -2.2875   -1.2124 C   0  0  0  0  0  0  0  0  0  0  0  0
    4.2074   -1.7756   -1.4739 C   0  0  0  0  0  0  0  0  0  0  0  0
    2.4792    0.9692   -3.2969 C   0  0  0  0  0  0  0  0  0  0  0  0
    1.4765    1.9608   -3.2227 C   0  0  0  0  0  0  0  0  0  0  0  0
    1.2083    2.7851   -4.3129 C   0  0  0  0  0  0  0  0  0  0  0  0
    1.9381    2.6437   -5.4948 C   0  0  0  0  0  0  0  0  0  0  0  0
    1.5564    3.6885   -6.9009 S   0  0  0  0  0  0  0  0  0  0  0  0
    2.6726    5.0299   -6.3801 C   0  0  0  0  0  0  0  0  0  0  0  0
    2.9490    1.6811   -5.5790 C   0  0  0  0  0  0  0  0  0  0  0  0
    3.2062    0.8337   -4.4970 C   0  0  0  0  0  0  0  0  0  0  0  0
    1.5404    0.7333   -0.0961 C   0  0  0  0  0  0  0  0  0  0  0  0
    2.3591    2.0790    0.4886 S   0  0  0  0  0  0  0  0  0  0  0  0
    1.1177    2.4885    1.5842 C   0  0  0  0  0  0  0  0  0  0  0  0
    0.0767    1.5566    1.4962 C   0  0  0  0  0  0  0  0  0  0  0  0
   -1.2070    1.7118    2.1136 N   0  0  0  0  0  0  0  0  0  0  0  0
   -2.2305    2.5234    1.4784 C   0  0  0  0  0  0  0  0  0  0  0  0
   -2.1391    2.8562    0.1092 C   0  0  0  0  0  0  0  0  0  0  0  0
   -3.0789    3.6974   -0.4846 C   0  0  0  0  0  0  0  0  0  0  0  0
   -4.1069    4.2519    0.2886 C   0  0  0  0  0  0  0  0  0  0  0  0
   -5.2462    5.4252   -0.4390 S   0  0  0  0  0  0  0  0  0  0  0  0
   -4.0939    6.8305   -0.2657 C   0  0  0  0  0  0  0  0  0  0  0  0
   -4.2346    3.9017    1.6355 C   0  0  0  0  0  0  0  0  0  0  0  0
   -3.3068    3.0417    2.2284 C   0  0  0  0  0  0  0  0  0  0  0  0
   -1.4466    1.0267    3.3487 C   0  0  0  0  0  0  0  0  0  0  0  0
   -1.9351   -0.2889    3.3392 C   0  0  0  0  0  0  0  0  0  0  0  0
   -2.1470   -0.9646    4.5447 C   0  0  0  0  0  0  0  0  0  0  0  0
   -1.8676   -0.3322    5.7626 C   0  0  0  0  0  0  0  0  0  0  0  0
   -2.1607   -1.1855    7.3077 S   0  0  0  0  0  0  0  0  0  0  0  0
   -3.7739   -0.3878    7.5906 C   0  0  0  0  0  0  0  0  0  0  0  0
   -1.3706    0.9763    5.7741 C   0  0  0  0  0  0  0  0  0  0  0  0
   -1.1786    1.6546    4.5730 C   0  0  0  0  0  0  0  0  0  0  0  0
    0.3559    0.5911    0.5476 C   0  0  0  0  0  0  0  0  0  0  0  0
   -0.5615   -0.6103   -0.1572 S   0  0  0  0  0  0  0  0  0  0  0  0
    1.2015    3.5481    2.5903 C   0  0  0  0  0  0  0  0  0  0  0  0
    1.8752    3.3760    3.7864 C   0  0  0  0  0  0  0  0  0  0  0  0
    1.4246    4.2287    4.8029 C   0  0  0  0  0  0  0  0  0  0  0  0
    1.7458    4.1059    6.1695 C   0  0  0  0  0  0  0  0  0  0  0  0
    2.6422    3.0471    6.6691 C   0  0  0  0  0  0  0  0  0  0  0  0
    3.8315    3.2493    7.3590 C   0  0  0  0  0  0  0  0  0  0  0  0
    4.5060    2.0601    7.6606 C   0  0  0  0  0  0  0  0  0  0  0  0
    3.8374    0.9309    7.2074 C   0  0  0  0  0  0  0  0  0  0  0  0
    4.4547   -0.7473    7.2931 S   0  0  0  0  0  0  0  0  0  0  0  0
    3.4505   -1.2249    8.7424 C   0  0  0  0  0  0  0  0  0  0  0  0
    3.9438   -0.5551   10.0198 C   0  0  0  0  0  0  0  0  0  0  0  0
    2.4135    1.3917    6.4454 S   0  0  0  0  0  0  0  0  0  0  0  0
    1.0712    4.9626    7.0541 C   0  0  0  0  0  0  0  0  0  0  0  0
    0.1281    5.9076    6.6274 C   0  0  0  0  0  0  0  0  0  0  0  0
   -0.2110    6.0262    5.2495 C   0  0  0  0  0  0  0  0  0  0  0  0
   -1.2640    6.9549    4.7455 C   0  0  0  0  0  0  0  0  0  0  0  0
   -1.2268    7.6482    3.5329 C   0  0  0  0  0  0  0  0  0  0  0  0
   -2.3473    8.4555    3.3092 C   0  0  0  0  0  0  0  0  0  0  0  0
   -3.2693    8.4062    4.3428 C   0  0  0  0  0  0  0  0  0  0  0  0
   -4.7492    9.4102    4.4645 S   0  0  0  0  0  0  0  0  0  0  0  0
   -5.9310    8.0156    4.4536 C   0  0  0  0  0  0  0  0  0  0  0  0
   -5.8776    7.2201    3.1535 C   0  0  0  0  0  0  0  0  0  0  0  0
   -2.7066    7.3537    5.5212 S   0  0  0  0  0  0  0  0  0  0  0  0
    0.4578    5.1479    4.3683 C   0  0  0  0  0  0  0  0  0  0  0  0
    0.0886    4.7966    2.7598 S   0  0  0  0  0  0  0  0  0  0  0  0
   -0.4580    6.5908    7.7032 C   0  0  0  0  0  0  0  0  0  0  0  0
   -0.0746    6.0948    8.9434 C   0  0  0  0  0  0  0  0  0  0  0  0
    1.1006    4.9144    8.7357 S   0  0  0  0  0  0  0  0  0  0  0  0
   -0.7217    6.4172   10.2256 C   0  0  0  0  0  0  0  0  0  0  0  0
   -2.0602    6.4480   10.3715 C   0  0  0  0  0  0  0  0  0  0  0  0
   -3.2051    6.0545    9.2079 S   0  0  0  0  0  0  0  0  0  0  0  0
   -4.5496    6.3279   10.1917 C   0  0  0  0  0  0  0  0  0  0  0  0
   -5.8207    6.1572    9.7414 C   0  0  0  0  0  0  0  0  0  0  0  0
   -6.0620    5.7093    8.3865 C   0  0  0  0  0  0  0  0  0  0  0  0
   -6.2508    5.3525    7.3026 N   0  0  0  0  0  0  0  0  0  0  0  0
   -7.0153    6.4013   10.5135 C   0  0  0  0  0  0  0  0  0  0  0  0
   -7.9873    6.5995   11.1134 N   0  0  0  0  0  0  0  0  0  0  0  0
   -4.1329    6.7258   11.4447 N   0  0  0  0  0  0  0  0  0  0  0  0
   -4.9718    7.0344   12.6096 C   0  0  0  0  0  0  0  0  0  0  0  0
   -5.3629    5.7560   13.3564 C   0  0  0  0  0  0  0  0  0  0  0  0
   -2.7596    6.7697   11.5338 C   0  0  0  0  0  0  0  0  0  0  0  0
   -2.1623    7.0822   12.6027 O   0  0  0  0  0  0  0  0  0  0  0  0
   -0.8474   -6.5835   -7.0380 H   0  0  0  0  0  0  0  0  0  0  0  0
    5.0885   -5.7570   -5.3187 H   0  0  0  0  0  0  0  0  0  0  0  0
    3.7795   -6.8016  -10.1459 H   0  0  0  0  0  0  0  0  0  0  0  0
    7.2814   -6.5723   -9.6723 H   0  0  0  0  0  0  0  0  0  0  0  0
    6.8698   -4.4300  -11.0531 H   0  0  0  0  0  0  0  0  0  0  0  0
    4.8971   -3.0066  -10.0020 H   0  0  0  0  0  0  0  0  0  0  0  0
    5.5059   -2.4691   -7.5215 H   0  0  0  0  0  0  0  0  0  0  0  0
    7.8839   -3.5184   -7.0043 H   0  0  0  0  0  0  0  0  0  0  0  0
    8.1945   -2.7381   -9.5110 H   0  0  0  0  0  0  0  0  0  0  0  0
    8.9008   -4.4030   -9.3157 H   0  0  0  0  0  0  0  0  0  0  0  0
    7.8724   -6.0664   -7.4473 H   0  0  0  0  0  0  0  0  0  0  0  0
   -0.9281   -0.9634   -7.0207 H   0  0  0  0  0  0  0  0  0  0  0  0
    0.2505    0.9866   -7.9802 H   0  0  0  0  0  0  0  0  0  0  0  0
    2.5791   -0.2456  -11.1944 H   0  0  0  0  0  0  0  0  0  0  0  0
    2.5563    1.4939  -11.6767 H   0  0  0  0  0  0  0  0  0  0  0  0
    1.0973    0.7631  -10.9092 H   0  0  0  0  0  0  0  0  0  0  0  0
    3.7106   -1.4540   -8.6911 H   0  0  0  0  0  0  0  0  0  0  0  0
    2.5477   -3.4101   -7.7058 H   0  0  0  0  0  0  0  0  0  0  0  0
   -2.5676   -3.7194   -6.0568 H   0  0  0  0  0  0  0  0  0  0  0  0
   -4.5075   -4.4332   -7.3847 H   0  0  0  0  0  0  0  0  0  0  0  0
   -4.6657   -6.9449   -8.4721 H   0  0  0  0  0  0  0  0  0  0  0  0
   -3.9473   -7.4523  -10.0604 H   0  0  0  0  0  0  0  0  0  0  0  0
   -5.7409   -7.3947   -9.8405 H   0  0  0  0  0  0  0  0  0  0  0  0
   -1.9975   -4.8045  -10.8677 H   0  0  0  0  0  0  0  0  0  0  0  0
   -0.0425   -4.0864   -9.5328 H   0  0  0  0  0  0  0  0  0  0  0  0
    1.1264   -2.9561    0.7964 H   0  0  0  0  0  0  0  0  0  0  0  0
    2.0994   -4.3465    2.5833 H   0  0  0  0  0  0  0  0  0  0  0  0
    3.7892   -6.5788    2.2255 H   0  0  0  0  0  0  0  0  0  0  0  0
    3.8822   -8.1529    3.1102 H   0  0  0  0  0  0  0  0  0  0  0  0
    3.0139   -8.0626    1.5288 H   0  0  0  0  0  0  0  0  0  0  0  0
   -0.2041   -7.7193    1.2193 H   0  0  0  0  0  0  0  0  0  0  0  0
   -1.2148   -6.3134   -0.5487 H   0  0  0  0  0  0  0  0  0  0  0  0
   -2.3675   -2.5891   -2.8928 H   0  0  0  0  0  0  0  0  0  0  0  0
   -4.6555   -1.8074   -2.6184 H   0  0  0  0  0  0  0  0  0  0  0  0
   -6.8829    0.3725    0.5989 H   0  0  0  0  0  0  0  0  0  0  0  0
   -5.3251    0.3461   -0.3088 H   0  0  0  0  0  0  0  0  0  0  0  0
   -5.4406   -0.4158    1.3463 H   0  0  0  0  0  0  0  0  0  0  0  0
   -4.6620   -3.1219    1.4719 H   0  0  0  0  0  0  0  0  0  0  0  0
   -2.3386   -3.8878    1.2447 H   0  0  0  0  0  0  0  0  0  0  0  0
    5.0926    1.3964   -2.3756 H   0  0  0  0  0  0  0  0  0  0  0  0
    7.3378    0.4807   -1.9405 H   0  0  0  0  0  0  0  0  0  0  0  0
    8.1800   -0.4377    0.6848 H   0  0  0  0  0  0  0  0  0  0  0  0
    7.4759   -2.0136    1.2535 H   0  0  0  0  0  0  0  0  0  0  0  0
    9.2669   -1.8065    1.1174 H   0  0  0  0  0  0  0  0  0  0  0  0
    5.5964   -3.3151   -0.8878 H   0  0  0  0  0  0  0  0  0  0  0  0
    3.3435   -2.4193   -1.3503 H   0  0  0  0  0  0  0  0  0  0  0  0
    0.8919    2.1053   -2.3231 H   0  0  0  0  0  0  0  0  0  0  0  0
    0.4304    3.5378   -4.2373 H   0  0  0  0  0  0  0  0  0  0  0  0
    3.7260    4.7034   -6.4885 H   0  0  0  0  0  0  0  0  0  0  0  0
    2.5084    5.9149   -7.0299 H   0  0  0  0  0  0  0  0  0  0  0  0
    2.4739    5.3246   -5.3270 H   0  0  0  0  0  0  0  0  0  0  0  0
    3.5241    1.5690   -6.4910 H   0  0  0  0  0  0  0  0  0  0  0  0
    3.9563    0.0625   -4.6015 H   0  0  0  0  0  0  0  0  0  0  0  0
   -1.3367    2.4724   -0.5094 H   0  0  0  0  0  0  0  0  0  0  0  0
   -2.9867    3.9524   -1.5344 H   0  0  0  0  0  0  0  0  0  0  0  0
   -3.2192    6.6856   -0.9337 H   0  0  0  0  0  0  0  0  0  0  0  0
   -4.6084    7.7702   -0.5629 H   0  0  0  0  0  0  0  0  0  0  0  0
   -3.7474    6.9291    0.7855 H   0  0  0  0  0  0  0  0  0  0  0  0
   -5.0474    4.3019    2.2297 H   0  0  0  0  0  0  0  0  0  0  0  0
   -3.4225    2.7965    3.2740 H   0  0  0  0  0  0  0  0  0  0  0  0
   -2.1541   -0.7800    2.4007 H   0  0  0  0  0  0  0  0  0  0  0  0
   -2.5325   -1.9762    4.5299 H   0  0  0  0  0  0  0  0  0  0  0  0
   -3.6285    0.6979    7.7671 H   0  0  0  0  0  0  0  0  0  0  0  0
   -4.4386   -0.5399    6.7168 H   0  0  0  0  0  0  0  0  0  0  0  0
   -4.2497   -0.8356    8.4871 H   0  0  0  0  0  0  0  0  0  0  0  0
   -1.1571    1.4742    6.7114 H   0  0  0  0  0  0  0  0  0  0  0  0
   -0.8362    2.6754    4.5926 H   0  0  0  0  0  0  0  0  0  0  0  0
    2.5854    2.5739    3.9409 H   0  0  0  0  0  0  0  0  0  0  0  0
    4.2129    4.2288    7.6207 H   0  0  0  0  0  0  0  0  0  0  0  0
    5.4645    2.0277    8.1603 H   0  0  0  0  0  0  0  0  0  0  0  0
    2.3787   -0.9820    8.5715 H   0  0  0  0  0  0  0  0  0  0  0  0
    3.5334   -2.3271    8.8601 H   0  0  0  0  0  0  0  0  0  0  0  0
    3.7160    0.5335   10.0003 H   0  0  0  0  0  0  0  0  0  0  0  0
    3.4190   -0.9980   10.8940 H   0  0  0  0  0  0  0  0  0  0  0  0
    5.0393   -0.7091   10.1481 H   0  0  0  0  0  0  0  0  0  0  0  0
   -0.4009    7.5999    2.8363 H   0  0  0  0  0  0  0  0  0  0  0  0
   -2.4684    9.0763    2.4308 H   0  0  0  0  0  0  0  0  0  0  0  0
   -5.7279    7.3442    5.3178 H   0  0  0  0  0  0  0  0  0  0  0  0
   -6.9518    8.4373    4.5775 H   0  0  0  0  0  0  0  0  0  0  0  0
   -6.7088    6.4836    3.1396 H   0  0  0  0  0  0  0  0  0  0  0  0
   -4.9144    6.6641    3.0815 H   0  0  0  0  0  0  0  0  0  0  0  0
   -5.9804    7.9011    2.2844 H   0  0  0  0  0  0  0  0  0  0  0  0
   -1.1703    7.3974    7.6141 H   0  0  0  0  0  0  0  0  0  0  0  0
   -0.0825    6.5642   11.0862 H   0  0  0  0  0  0  0  0  0  0  0  0
   -4.4229    7.6904   13.3280 H   0  0  0  0  0  0  0  0  0  0  0  0
   -5.8563    7.6375   12.3401 H   0  0  0  0  0  0  0  0  0  0  0  0
   -5.8906    5.0579   12.6691 H   0  0  0  0  0  0  0  0  0  0  0  0
   -6.0131    6.0075   14.2159 H   0  0  0  0  0  0  0  0  0  0  0  0
   -4.4519    5.2365   13.7185 H   0  0  0  0  0  0  0  0  0  0  0  0
  1  2  2  3
  2  3  1  0
  3  4  2  0
  3  5  1  0
  5  6  2  0
  6  7  1  0
  7  8  2  0
  8  9  1  0
  9 10  2  0
 10 11  1  0
 11 12  2  3
 12 13  1  0
 13 14  3  0
 12 15  1  0
 15 16  3  0
  8 17  1  0
 17 18  1  0
 18 19  1  0
 19 20  2  0
 20 21  1  0
 21 22  1  0
 21 23  1  0
  1 24  1  0
 24 25  2  0
 25 26  1  0
 26 27  1  0
 27 28  2  0
 28 29  1  0
 29 30  2  0
 30 31  1  0
 31 32  1  0
 30 33  1  0
 33 34  2  0
 26 35  1  0
 35 36  2  0
 36 37  1  0
 37 38  2  0
 38 39  1  0
 39 40  1  0
 38 41  1  0
 41 42  2  0
 25 43  1  0
 43 44  1  0
 44 45  1  0
 45 46  2  0
 46 47  1  0
 47 48  1  0
 48 49  2  0
 49 50  1  0
 50 51  2  0
 51 52  1  0
 52 53  1  0
 51 54  1  0
 54 55  2  0
 47 56  1  0
 56 57  2  0
 57 58  1  0
 58 59  2  0
 59 60  1  0
 60 61  1  0
 59 62  1  0
 62 63  2  0
 46 64  1  0
 64 65  1  0
 45 66  1  0
 66 67  2  0
 67 68  1  0
 68 69  1  0
 69 70  2  0
 70 71  1  0
 71 72  2  0
 72 73  1  0
 73 74  1  0
 72 75  1  0
 75 76  2  0
 68 77  1  0
 77 78  2  0
 78 79  1  0
 79 80  2  0
 80 81  1  0
 81 82  1  0
 80 83  1  0
 83 84  2  0
 67 85  1  0
 85 86  1  0
 86 87  1  0
 87 88  2  0
 88 89  1  0
 89 90  1  0
 90 91  2  0
 91 92  1  0
 92 93  2  0
 93 94  1  0
 94 95  1  0
 93 96  1  0
 96 97  2  0
 89 98  1  0
 98 99  2  0
 99100  1  0
100101  2  0
101102  1  0
102103  1  0
101104  1  0
104105  2  0
 88106  1  0
106107  1  0
 87108  1  0
108109  2  0
109110  1  0
110111  2  0
111112  1  0
112113  2  0
113114  1  0
114115  2  0
115116  1  0
116117  1  0
117118  1  0
115119  1  0
111120  1  0
120121  2  0
121122  1  0
122123  1  0
123124  2  0
124125  1  0
125126  2  0
126127  1  0
127128  1  0
128129  1  0
126130  1  0
122131  2  0
131132  1  0
121133  1  0
133134  2  0
134135  1  0
134136  1  0
136137  2  3
137138  1  0
138139  1  0
139140  2  3
140141  1  0
141142  3  0
140143  1  0
143144  3  0
139145  1  0
145146  1  0
146147  1  0
145148  1  0
148149  2  0
 11  2  1  0
 23 17  1  0
 65 24  1  0
107 66  1  0
132108  1  0
148137  1  0
 10  5  1  0
 22 18  1  0
 34 27  1  0
 42 35  1  0
 64 43  2  0
 76 69  1  0
 84 77  1  0
106 85  2  0
131110  1  0
 23  7  1  0
 55 48  1  0
 63 56  1  0
 97 90  1  0
105 98  1  0
119112  1  0
135120  1  0
130123  1  0
  1150  1  0
  6151  1  0
  9152  1  0
 17153  1  0
 18154  1  0
 19155  1  0
 20156  1  0
 21157  1  0
 22158  1  0
 22159  1  0
 23160  1  0
 28161  1  0
 29162  1  0
 32163  1  0
 32164  1  0
 32165  1  0
 33166  1  0
 34167  1  0
 36168  1  0
 37169  1  0
 40170  1  0
 40171  1  0
 40172  1  0
 41173  1  0
 42174  1  0
 49175  1  0
 50176  1  0
 53177  1  0
 53178  1  0
 53179  1  0
 54180  1  0
 55181  1  0
 57182  1  0
 58183  1  0
 61184  1  0
 61185  1  0
 61186  1  0
 62187  1  0
 63188  1  0
 70189  1  0
 71190  1  0
 74191  1  0
 74192  1  0
 74193  1  0
 75194  1  0
 76195  1  0
 78196  1  0
 79197  1  0
 82198  1  0
 82199  1  0
 82200  1  0
 83201  1  0
 84202  1  0
 91203  1  0
 92204  1  0
 95205  1  0
 95206  1  0
 95207  1  0
 96208  1  0
 97209  1  0
 99210  1  0
100211  1  0
103212  1  0
103213  1  0
103214  1  0
104215  1  0
105216  1  0
109217  1  0
113218  1  0
114219  1  0
117220  1  0
117221  1  0
118222  1  0
118223  1  0
118224  1  0
124225  1  0
125226  1  0
128227  1  0
128228  1  0
129229  1  0
129230  1  0
129231  1  0
133232  1  0
136233  1  0
146234  1  0
146235  1  0
147236  1  0
147237  1  0
147238  1  0
M  END

