
     RDKit          3D

228252  0  0  0  0  0  0  0  0999 V2000
    1.3155   -6.8525    5.9608 C   0  0  0  0  0  0  0  0  0  0  0  0
    2.1187   -7.1499    4.9266 C   0  0  0  0  0  0  0  0  0  0  0  0
    1.5417   -7.5972    3.6596 C   0  0  0  0  0  0  0  0  0  0  0  0
    0.6708   -8.4918    3.5556 O   0  0  0  0  0  0  0  0  0  0  0  0
    2.1357   -6.8801    2.5520 C   0  0  0  0  0  0  0  0  0  0  0  0
    1.7705   -6.9491    1.1866 C   0  0  0  0  0  0  0  0  0  0  0  0
    2.4491   -6.0562    0.3781 C   0  0  0  0  0  0  0  0  0  0  0  0
    3.4239   -5.1374    0.8812 C   0  0  0  0  0  0  0  0  0  0  0  0
    3.7927   -5.0771    2.2149 C   0  0  0  0  0  0  0  0  0  0  0  0
    3.1212   -6.0083    3.0535 C   0  0  0  0  0  0  0  0  0  0  0  0
    3.2295   -6.2240    4.5255 C   0  0  0  0  0  0  0  0  0  0  0  0
    4.2233   -5.7944    5.3422 C   0  0  0  0  0  0  0  0  0  0  0  0
    5.3204   -4.9828    4.8857 C   0  0  0  0  0  0  0  0  0  0  0  0
    6.2082   -4.3197    4.5435 N   0  0  0  0  0  0  0  0  0  0  0  0
    4.2933   -6.2108    6.7234 C   0  0  0  0  0  0  0  0  0  0  0  0
    4.3619   -6.5491    7.8308 N   0  0  0  0  0  0  0  0  0  0  0  0
    3.6322   -4.5801   -0.4961 C   0  0  0  0  0  0  0  0  0  0  0  0
    4.9536   -4.9944   -1.2105 C   0  0  0  0  0  0  0  0  0  0  0  0
    4.7578   -4.6659   -2.6694 C   0  0  0  0  0  0  0  0  0  0  0  0
    3.8666   -5.5454   -3.1393 C   0  0  0  0  0  0  0  0  0  0  0  0
    3.4824   -6.4307   -1.9782 C   0  0  0  0  0  0  0  0  0  0  0  0
    4.8345   -6.5079   -1.2953 C   0  0  0  0  0  0  0  0  0  0  0  0
    2.6467   -5.5366   -1.0161 C   0  0  0  0  0  0  0  0  0  0  0  0
    0.4561   -5.6637    5.8379 C   0  0  0  0  0  0  0  0  0  0  0  0
   -0.8299   -5.5903    5.2735 C   0  0  0  0  0  0  0  0  0  0  0  0
   -1.7242   -6.7009    5.1163 N   0  0  0  0  0  0  0  0  0  0  0  0
   -2.0115   -7.2711    3.8246 C   0  0  0  0  0  0  0  0  0  0  0  0
   -2.5670   -8.5623    3.7428 C   0  0  0  0  0  0  0  0  0  0  0  0
   -2.9307   -9.1029    2.5076 C   0  0  0  0  0  0  0  0  0  0  0  0
   -2.7356   -8.3709    1.3368 C   0  0  0  0  0  0  0  0  0  0  0  0
   -3.2190   -9.0726   -0.2462 S   0  0  0  0  0  0  0  0  0  0  0  0
   -4.8332   -8.2269   -0.2536 C   0  0  0  0  0  0  0  0  0  0  0  0
   -2.1503   -7.0987    1.3948 C   0  0  0  0  0  0  0  0  0  0  0  0
   -1.7845   -6.5513    2.6325 C   0  0  0  0  0  0  0  0  0  0  0  0
   -2.6652   -6.8670    6.1927 C   0  0  0  0  0  0  0  0  0  0  0  0
   -4.0366   -6.6639    5.9628 C   0  0  0  0  0  0  0  0  0  0  0  0
   -4.9296   -6.5853    7.0344 C   0  0  0  0  0  0  0  0  0  0  0  0
   -4.4574   -6.7099    8.3459 C   0  0  0  0  0  0  0  0  0  0  0  0
   -5.5722   -6.4576    9.7235 S   0  0  0  0  0  0  0  0  0  0  0  0
   -5.2874   -4.6589    9.7647 C   0  0  0  0  0  0  0  0  0  0  0  0
   -3.1056   -6.9777    8.5805 C   0  0  0  0  0  0  0  0  0  0  0  0
   -2.2083   -7.0562    7.5097 C   0  0  0  0  0  0  0  0  0  0  0  0
   -1.2766   -4.2727    5.2429 C   0  0  0  0  0  0  0  0  0  0  0  0
   -2.6114   -3.5175    4.5832 S   0  0  0  0  0  0  0  0  0  0  0  0
   -2.0691   -1.9368    4.9356 C   0  0  0  0  0  0  0  0  0  0  0  0
   -0.8283   -2.0230    5.6019 C   0  0  0  0  0  0  0  0  0  0  0  0
   -0.0369   -0.9125    6.0595 N   0  0  0  0  0  0  0  0  0  0  0  0
    0.4178   -0.9655    7.4284 C   0  0  0  0  0  0  0  0  0  0  0  0
   -0.5168   -1.1299    8.4661 C   0  0  0  0  0  0  0  0  0  0  0  0
   -0.0846   -1.4005    9.7642 C   0  0  0  0  0  0  0  0  0  0  0  0
    1.2841   -1.5318   10.0398 C   0  0  0  0  0  0  0  0  0  0  0  0
    1.8320   -2.0204   11.6746 S   0  0  0  0  0  0  0  0  0  0  0  0
    1.6947   -3.7988   11.3174 C   0  0  0  0  0  0  0  0  0  0  0  0
    2.2179   -1.3279    9.0195 C   0  0  0  0  0  0  0  0  0  0  0  0
    1.7912   -1.0366    7.7192 C   0  0  0  0  0  0  0  0  0  0  0  0
    0.5474    0.0290    5.1336 C   0  0  0  0  0  0  0  0  0  0  0  0
    0.8386    1.3404    5.5540 C   0  0  0  0  0  0  0  0  0  0  0  0
    1.4719    2.2323    4.6850 C   0  0  0  0  0  0  0  0  0  0  0  0
    1.7985    1.8397    3.3830 C   0  0  0  0  0  0  0  0  0  0  0  0
    2.6633    2.9668    2.2896 S   0  0  0  0  0  0  0  0  0  0  0  0
    4.3061    2.2909    2.7129 C   0  0  0  0  0  0  0  0  0  0  0  0
    1.4794    0.5487    2.9477 C   0  0  0  0  0  0  0  0  0  0  0  0
    0.8659   -0.3541    3.8184 C   0  0  0  0  0  0  0  0  0  0  0  0
   -0.4235   -3.3461    5.7369 C   0  0  0  0  0  0  0  0  0  0  0  0
    0.9801   -4.0986    6.2618 S   0  0  0  0  0  0  0  0  0  0  0  0
   -2.5583   -0.7623    4.1992 C   0  0  0  0  0  0  0  0  0  0  0  0
   -2.4471    0.5799    4.5708 C   0  0  0  0  0  0  0  0  0  0  0  0
   -2.5845    1.4564    3.4776 C   0  0  0  0  0  0  0  0  0  0  0  0
   -2.4106    2.8556    3.4897 C   0  0  0  0  0  0  0  0  0  0  0  0
   -2.2903    3.6236    4.7419 C   0  0  0  0  0  0  0  0  0  0  0  0
   -3.5182    3.7611    5.8838 S   0  0  0  0  0  0  0  0  0  0  0  0
   -2.8182    5.0237    6.7614 C   0  0  0  0  0  0  0  0  0  0  0  0
   -3.4408    5.7202    7.9323 C   0  0  0  0  0  0  0  0  0  0  0  0
   -4.7692    6.3743    7.5526 C   0  0  0  0  0  0  0  0  0  0  0  0
   -1.5993    5.3411    6.1683 C   0  0  0  0  0  0  0  0  0  0  0  0
   -0.7850    6.3342    6.6161 F   0  0  0  0  0  0  0  0  0  0  0  0
   -1.3111    4.5705    5.0405 C   0  0  0  0  0  0  0  0  0  0  0  0
   -0.1906    4.7457    4.3010 F   0  0  0  0  0  0  0  0  0  0  0  0
   -2.4120    3.5108    2.2389 C   0  0  0  0  0  0  0  0  0  0  0  0
   -2.6052    2.8291    1.0322 C   0  0  0  0  0  0  0  0  0  0  0  0
   -2.8158    1.4397    1.0235 C   0  0  0  0  0  0  0  0  0  0  0  0
   -2.9419    0.6734   -0.2293 C   0  0  0  0  0  0  0  0  0  0  0  0
   -1.9622   -0.6188   -0.6803 S   0  0  0  0  0  0  0  0  0  0  0  0
   -2.7741   -0.9666   -2.1116 C   0  0  0  0  0  0  0  0  0  0  0  0
   -2.4650   -2.1245   -3.0109 C   0  0  0  0  0  0  0  0  0  0  0  0
   -3.0780   -3.4093   -2.4696 C   0  0  0  0  0  0  0  0  0  0  0  0
   -3.8286   -0.0695   -2.2540 C   0  0  0  0  0  0  0  0  0  0  0  0
   -3.9199    0.8522   -1.2075 C   0  0  0  0  0  0  0  0  0  0  0  0
   -4.8776    1.8096   -1.1402 F   0  0  0  0  0  0  0  0  0  0  0  0
   -4.7069   -0.1054   -3.2901 F   0  0  0  0  0  0  0  0  0  0  0  0
   -2.8046    0.7917    2.2710 C   0  0  0  0  0  0  0  0  0  0  0  0
   -2.8669   -0.8529    2.5496 S   0  0  0  0  0  0  0  0  0  0  0  0
   -2.4521    3.6440   -0.0936 C   0  0  0  0  0  0  0  0  0  0  0  0
   -2.1198    4.9582    0.2235 C   0  0  0  0  0  0  0  0  0  0  0  0
   -2.0719    5.1303    1.9017 S   0  0  0  0  0  0  0  0  0  0  0  0
   -1.6497    5.9780   -0.7301 C   0  0  0  0  0  0  0  0  0  0  0  0
   -2.0951    7.3106   -0.6066 C   0  0  0  0  0  0  0  0  0  0  0  0
   -2.9659    7.6632    0.3774 F   0  0  0  0  0  0  0  0  0  0  0  0
   -1.7159    8.2742   -1.5528 C   0  0  0  0  0  0  0  0  0  0  0  0
   -2.2471    9.5193   -1.4924 F   0  0  0  0  0  0  0  0  0  0  0  0
   -0.8385    7.9340   -2.5933 C   0  0  0  0  0  0  0  0  0  0  0  0
   -0.2966    6.6409   -2.6420 C   0  0  0  0  0  0  0  0  0  0  0  0
    0.6088    6.3218   -3.6041 N   0  0  0  0  0  0  0  0  0  0  0  0
    1.0449    5.0533   -3.7953 C   0  0  0  0  0  0  0  0  0  0  0  0
    2.1042    4.8285   -4.8125 C   0  0  0  0  0  0  0  0  0  0  0  0
    3.1877    3.9791   -4.5449 C   0  0  0  0  0  0  0  0  0  0  0  0
    4.2526    3.8824   -5.4487 C   0  0  0  0  0  0  0  0  0  0  0  0
    4.2605    4.6570   -6.6215 C   0  0  0  0  0  0  0  0  0  0  0  0
    5.3213    4.6355   -7.5416 O   0  0  0  0  0  0  0  0  0  0  0  0
    6.5579    3.9393   -7.3736 C   0  0  0  0  0  0  0  0  0  0  0  0
    7.4497    4.6351   -6.3484 C   0  0  0  0  0  0  0  0  0  0  0  0
    3.1701    5.4876   -6.8984 C   0  0  0  0  0  0  0  0  0  0  0  0
    2.1058    5.5841   -5.9950 C   0  0  0  0  0  0  0  0  0  0  0  0
    3.1502    6.2311   -8.0346 F   0  0  0  0  0  0  0  0  0  0  0  0
    0.4883    4.0229   -3.0070 C   0  0  0  0  0  0  0  0  0  0  0  0
   -0.3664    4.3561   -2.0005 N   0  0  0  0  0  0  0  0  0  0  0  0
   -0.7545    5.6411   -1.7684 C   0  0  0  0  0  0  0  0  0  0  0  0
    0.5505    2.6117   -3.4316 C   0  0  0  0  0  0  0  0  0  0  0  0
    1.1881    1.6349   -2.6548 C   0  0  0  0  0  0  0  0  0  0  0  0
    1.2203    0.3045   -3.0870 C   0  0  0  0  0  0  0  0  0  0  0  0
    0.5766   -0.0679   -4.2830 C   0  0  0  0  0  0  0  0  0  0  0  0
    0.5506   -1.3872   -4.7543 O   0  0  0  0  0  0  0  0  0  0  0  0
    1.2794   -2.4808   -4.2023 C   0  0  0  0  0  0  0  0  0  0  0  0
    0.8448   -3.7589   -4.8874 C   0  0  0  0  0  0  0  0  0  0  0  0
   -0.0837    0.9078   -5.0406 C   0  0  0  0  0  0  0  0  0  0  0  0
   -0.7225    0.5641   -6.1874 F   0  0  0  0  0  0  0  0  0  0  0  0
   -0.0925    2.2385   -4.6224 C   0  0  0  0  0  0  0  0  0  0  0  0
   -0.7198    8.7956   -3.7919 C   0  0  0  0  0  0  0  0  0  0  0  0
   -1.2971    8.4072   -4.9504 C   0  0  0  0  0  0  0  0  0  0  0  0
   -2.2000    7.2529   -5.0609 C   0  0  0  0  0  0  0  0  0  0  0  0
   -3.0166    6.8598   -4.1808 O   0  0  0  0  0  0  0  0  0  0  0  0
   -1.9953    6.6192   -6.3395 C   0  0  0  0  0  0  0  0  0  0  0  0
   -2.4686    5.3488   -6.7307 C   0  0  0  0  0  0  0  0  0  0  0  0
   -1.9460    4.9099   -7.9303 C   0  0  0  0  0  0  0  0  0  0  0  0
   -1.0108    5.6681   -8.7043 C   0  0  0  0  0  0  0  0  0  0  0  0
   -0.5475    6.9203   -8.3229 C   0  0  0  0  0  0  0  0  0  0  0  0
   -1.0879    7.3986   -7.0978 C   0  0  0  0  0  0  0  0  0  0  0  0
   -0.7298    8.6155   -6.3120 C   0  0  0  0  0  0  0  0  0  0  0  0
   -0.1645    9.7525   -6.7806 C   0  0  0  0  0  0  0  0  0  0  0  0
    0.1946    9.9154   -8.1652 C   0  0  0  0  0  0  0  0  0  0  0  0
    0.4872   10.0651   -9.2752 N   0  0  0  0  0  0  0  0  0  0  0  0
   -0.0349   10.9252   -5.9538 C   0  0  0  0  0  0  0  0  0  0  0  0
    0.0597   11.8674   -5.2876 N   0  0  0  0  0  0  0  0  0  0  0  0
   -0.9500    4.5711   -9.7278 C   0  0  0  0  0  0  0  0  0  0  0  0
   -1.6864    4.8053  -11.0844 C   0  0  0  0  0  0  0  0  0  0  0  0
   -2.8728    5.7198  -10.8789 C   0  0  0  0  0  0  0  0  0  0  0  0
   -3.7590    5.0364  -10.1543 C   0  0  0  0  0  0  0  0  0  0  0  0
   -3.1494    3.6760   -9.8932 C   0  0  0  0  0  0  0  0  0  0  0  0
   -2.4265    3.4864  -11.2162 C   0  0  0  0  0  0  0  0  0  0  0  0
   -1.9232    3.8056   -8.9430 C   0  0  0  0  0  0  0  0  0  0  0  0
    1.7884   -6.8679    6.9295 H   0  0  0  0  0  0  0  0  0  0  0  0
    1.0051   -7.6131    0.8127 H   0  0  0  0  0  0  0  0  0  0  0  0
    4.5090   -4.3457    2.5545 H   0  0  0  0  0  0  0  0  0  0  0  0
    3.3445   -3.5105   -0.5899 H   0  0  0  0  0  0  0  0  0  0  0  0
    5.8907   -4.6049   -0.7579 H   0  0  0  0  0  0  0  0  0  0  0  0
    5.3093   -3.9459   -3.2648 H   0  0  0  0  0  0  0  0  0  0  0  0
    3.5917   -5.6662   -4.1813 H   0  0  0  0  0  0  0  0  0  0  0  0
    3.0161   -7.4018   -2.2533 H   0  0  0  0  0  0  0  0  0  0  0  0
    4.8160   -7.0231   -0.3100 H   0  0  0  0  0  0  0  0  0  0  0  0
    5.6287   -6.9791   -1.9268 H   0  0  0  0  0  0  0  0  0  0  0  0
    1.7357   -5.0759   -1.4580 H   0  0  0  0  0  0  0  0  0  0  0  0
   -2.7373   -9.1408    4.6386 H   0  0  0  0  0  0  0  0  0  0  0  0
   -3.3743  -10.0895    2.4708 H   0  0  0  0  0  0  0  0  0  0  0  0
   -4.6943   -7.1262   -0.2515 H   0  0  0  0  0  0  0  0  0  0  0  0
   -5.4316   -8.5242    0.6334 H   0  0  0  0  0  0  0  0  0  0  0  0
   -5.3822   -8.4999   -1.1770 H   0  0  0  0  0  0  0  0  0  0  0  0
   -1.9919   -6.5315    0.4847 H   0  0  0  0  0  0  0  0  0  0  0  0
   -1.3480   -5.5619    2.6514 H   0  0  0  0  0  0  0  0  0  0  0  0
   -4.3995   -6.4899    4.9593 H   0  0  0  0  0  0  0  0  0  0  0  0
   -5.9725   -6.3707    6.8474 H   0  0  0  0  0  0  0  0  0  0  0  0
   -5.6207   -4.1921    8.8130 H   0  0  0  0  0  0  0  0  0  0  0  0
   -4.2094   -4.4467    9.9172 H   0  0  0  0  0  0  0  0  0  0  0  0
   -5.8627   -4.2160   10.6024 H   0  0  0  0  0  0  0  0  0  0  0  0
   -2.7416   -7.0889    9.5935 H   0  0  0  0  0  0  0  0  0  0  0  0
   -1.1558   -7.2218    7.7062 H   0  0  0  0  0  0  0  0  0  0  0  0
   -1.5774   -1.0864    8.2506 H   0  0  0  0  0  0  0  0  0  0  0  0
   -0.8155   -1.5567   10.5480 H   0  0  0  0  0  0  0  0  0  0  0  0
    1.9634   -4.3746   12.2235 H   0  0  0  0  0  0  0  0  0  0  0  0
    0.6499   -4.0476   11.0322 H   0  0  0  0  0  0  0  0  0  0  0  0
    2.3843   -4.0783   10.4939 H   0  0  0  0  0  0  0  0  0  0  0  0
    3.2753   -1.4328    9.2254 H   0  0  0  0  0  0  0  0  0  0  0  0
    2.5219   -0.9374    6.9294 H   0  0  0  0  0  0  0  0  0  0  0  0
    0.5877    1.6642    6.5558 H   0  0  0  0  0  0  0  0  0  0  0  0
    1.7222    3.2312    5.0321 H   0  0  0  0  0  0  0  0  0  0  0  0
    4.5186    2.4548    3.7937 H   0  0  0  0  0  0  0  0  0  0  0  0
    4.3415    1.2023    2.4849 H   0  0  0  0  0  0  0  0  0  0  0  0
    5.0801    2.8014    2.1053 H   0  0  0  0  0  0  0  0  0  0  0  0
    1.7534    0.2308    1.9507 H   0  0  0  0  0  0  0  0  0  0  0  0
    0.6611   -1.3574    3.4712 H   0  0  0  0  0  0  0  0  0  0  0  0
   -2.1794    0.8994    5.5683 H   0  0  0  0  0  0  0  0  0  0  0  0
   -2.7516    6.5047    8.3223 H   0  0  0  0  0  0  0  0  0  0  0  0
   -3.6183    4.9862    8.7435 H   0  0  0  0  0  0  0  0  0  0  0  0
   -5.1724    6.9252    8.4310 H   0  0  0  0  0  0  0  0  0  0  0  0
   -4.6244    7.0895    6.7156 H   0  0  0  0  0  0  0  0  0  0  0  0
   -5.5041    5.5949    7.2504 H   0  0  0  0  0  0  0  0  0  0  0  0
   -2.8485   -1.9288   -4.0359 H   0  0  0  0  0  0  0  0  0  0  0  0
   -1.3650   -2.2502   -3.0763 H   0  0  0  0  0  0  0  0  0  0  0  0
   -2.8079   -4.2589   -3.1294 H   0  0  0  0  0  0  0  0  0  0  0  0
   -2.6877   -3.6183   -1.4526 H   0  0  0  0  0  0  0  0  0  0  0  0
   -4.1861   -3.3220   -2.4378 H   0  0  0  0  0  0  0  0  0  0  0  0
   -2.5409    3.2844   -1.1071 H   0  0  0  0  0  0  0  0  0  0  0  0
    3.2304    3.4203   -3.6217 H   0  0  0  0  0  0  0  0  0  0  0  0
    5.0658    3.2141   -5.2146 H   0  0  0  0  0  0  0  0  0  0  0  0
    7.0899    3.9484   -8.3544 H   0  0  0  0  0  0  0  0  0  0  0  0
    6.3892    2.8763   -7.0959 H   0  0  0  0  0  0  0  0  0  0  0  0
    7.4255    5.7335   -6.4759 H   0  0  0  0  0  0  0  0  0  0  0  0
    8.4975    4.2997   -6.4862 H   0  0  0  0  0  0  0  0  0  0  0  0
    7.1342    4.3817   -5.3163 H   0  0  0  0  0  0  0  0  0  0  0  0
    1.2837    6.2532   -6.2178 H   0  0  0  0  0  0  0  0  0  0  0  0
    1.6812    1.9166   -1.7273 H   0  0  0  0  0  0  0  0  0  0  0  0
    1.7302   -0.4278   -2.4808 H   0  0  0  0  0  0  0  0  0  0  0  0
    1.0675   -2.5723   -3.1114 H   0  0  0  0  0  0  0  0  0  0  0  0
    2.3725   -2.3243   -4.3621 H   0  0  0  0  0  0  0  0  0  0  0  0
    1.0178   -3.6921   -5.9812 H   0  0  0  0  0  0  0  0  0  0  0  0
   -0.2382   -3.9271   -4.7104 H   0  0  0  0  0  0  0  0  0  0  0  0
    1.4082   -4.6260   -4.4776 H   0  0  0  0  0  0  0  0  0  0  0  0
   -0.6009    2.9833   -5.2285 H   0  0  0  0  0  0  0  0  0  0  0  0
    0.0832    9.5191   -3.7921 H   0  0  0  0  0  0  0  0  0  0  0  0
   -3.1401    4.7451   -6.1313 H   0  0  0  0  0  0  0  0  0  0  0  0
    0.2128    7.4309   -8.8962 H   0  0  0  0  0  0  0  0  0  0  0  0
    0.0484    4.0748   -9.8105 H   0  0  0  0  0  0  0  0  0  0  0  0
   -1.0317    5.0706  -11.9418 H   0  0  0  0  0  0  0  0  0  0  0  0
   -3.0150    6.7131  -11.2895 H   0  0  0  0  0  0  0  0  0  0  0  0
   -4.7492    5.3836   -9.8717 H   0  0  0  0  0  0  0  0  0  0  0  0
   -3.8761    2.8789   -9.6286 H   0  0  0  0  0  0  0  0  0  0  0  0
   -1.7479    2.5994  -11.2361 H   0  0  0  0  0  0  0  0  0  0  0  0
   -3.1133    3.4446  -12.0953 H   0  0  0  0  0  0  0  0  0  0  0  0
   -1.5265    2.8382   -8.5556 H   0  0  0  0  0  0  0  0  0  0  0  0
  1  2  2  3
  2  3  1  0
  3  4  2  0
  3  5  1  0
  5  6  2  0
  6  7  1  0
  7  8  2  0
  8  9  1  0
  9 10  2  0
 10 11  1  0
 11 12  2  3
 12 13  1  0
 13 14  3  0
 12 15  1  0
 15 16  3  0
  8 17  1  0
 17 18  1  0
 18 19  1  0
 19 20  2  0
 20 21  1  0
 21 22  1  0
 21 23  1  0
  1 24  1  0
 24 25  2  0
 25 26  1  0
 26 27  1  0
 27 28  2  0
 28 29  1  0
 29 30  2  0
 30 31  1  0
 31 32  1  0
 30 33  1  0
 33 34  2  0
 26 35  1  0
 35 36  2  0
 36 37  1  0
 37 38  2  0
 38 39  1  0
 39 40  1  0
 38 41  1  0
 41 42  2  0
 25 43  1  0
 43 44  1  0
 44 45  1  0
 45 46  2  0
 46 47  1  0
 47 48  1  0
 48 49  2  0
 49 50  1  0
 50 51  2  0
 51 52  1  0
 52 53  1  0
 51 54  1  0
 54 55  2  0
 47 56  1  0
 56 57  2  0
 57 58  1  0
 58 59  2  0
 59 60  1  0
 60 61  1  0
 59 62  1  0
 62 63  2  0
 46 64  1  0
 64 65  1  0
 45 66  1  0
 66 67  2  0
 67 68  1  0
 68 69  2  0
 69 70  1  0
 70 71  1  0
 71 72  1  0
 72 73  1  0
 73 74  1  0
 72 75  2  0
 75 76  1  0
 75 77  1  0
 77 78  1  0
 69 79  1  0
 79 80  2  0
 80 81  1  0
 81 82  1  0
 82 83  1  0
 83 84  1  0
 84 85  1  0
 85 86  1  0
 84 87  2  0
 87 88  1  0
 88 89  1  0
 87 90  1  0
 81 91  2  0
 91 92  1  0
 80 93  1  0
 93 94  2  0
 94 95  1  0
 94 96  1  0
 96 97  2  0
 97 98  1  0
 97 99  1  0
 99100  1  0
 99101  2  0
101102  1  0
102103  2  0
103104  1  0
104105  1  0
105106  2  0
106107  1  0
107108  2  0
108109  1  0
109110  1  0
110111  1  0
108112  1  0
112113  2  0
112114  1  0
104115  2  0
115116  1  0
116117  2  0
115118  1  0
118119  2  0
119120  1  0
120121  2  0
121122  1  0
122123  1  0
123124  1  0
121125  1  0
125126  1  0
125127  2  0
101128  1  0
128129  2  3
129130  1  0
130131  2  0
130132  1  0
132133  2  0
133134  1  0
134135  2  0
135136  1  0
136137  2  0
137138  1  0
138139  2  3
139140  1  0
140141  3  0
139142  1  0
142143  3  0
135144  1  0
144145  1  0
145146  1  0
146147  2  0
147148  1  0
148149  1  0
148150  1  0
 11  2  1  0
 23 17  1  0
 65 24  1  0
 92 66  1  0
117 96  1  0
127118  1  0
138129  1  0
150144  1  0
 10  5  1  0
 22 18  1  0
 34 27  1  0
 42 35  1  0
 64 43  2  0
 91 68  1  0
117102  1  0
137132  1  0
149145  1  0
 23  7  1  0
 55 48  1  0
 63 56  1  0
 77 70  2  0
 95 79  1  0
113105  1  0
150134  1  0
 88 82  2  0
  1151  1  0
  6152  1  0
  9153  1  0
 17154  1  0
 18155  1  0
 19156  1  0
 20157  1  0
 21158  1  0
 22159  1  0
 22160  1  0
 23161  1  0
 28162  1  0
 29163  1  0
 32164  1  0
 32165  1  0
 32166  1  0
 33167  1  0
 34168  1  0
 36169  1  0
 37170  1  0
 40171  1  0
 40172  1  0
 40173  1  0
 41174  1  0
 42175  1  0
 49176  1  0
 50177  1  0
 53178  1  0
 53179  1  0
 53180  1  0
 54181  1  0
 55182  1  0
 57183  1  0
 58184  1  0
 61185  1  0
 61186  1  0
 61187  1  0
 62188  1  0
 63189  1  0
 67190  1  0
 73191  1  0
 73192  1  0
 74193  1  0
 74194  1  0
 74195  1  0
 85196  1  0
 85197  1  0
 86198  1  0
 86199  1  0
 86200  1  0
 93201  1  0
106202  1  0
107203  1  0
110204  1  0
110205  1  0
111206  1  0
111207  1  0
111208  1  0
113209  1  0
119210  1  0
120211  1  0
123212  1  0
123213  1  0
124214  1  0
124215  1  0
124216  1  0
127217  1  0
128218  1  0
133219  1  0
136220  1  0
144221  1  0
145222  1  0
146223  1  0
147224  1  0
148225  1  0
149226  1  0
149227  1  0
150228  1  0
M  END

