
     RDKit          3D

222243  0  0  0  0  0  0  0  0999 V2000
   -4.6146   -1.0172    4.7049 C   0  0  0  0  0  0  0  0  0  0  0  0
   -3.8145   -1.3159    5.7452 C   0  0  0  0  0  0  0  0  0  0  0  0
   -2.7144   -2.2855    5.6960 C   0  0  0  0  0  0  0  0  0  0  0  0
   -2.4318   -3.0350    4.7229 O   0  0  0  0  0  0  0  0  0  0  0  0
   -2.0825   -2.3481    6.9983 C   0  0  0  0  0  0  0  0  0  0  0  0
   -0.9581   -3.1261    7.3672 C   0  0  0  0  0  0  0  0  0  0  0  0
   -0.5417   -2.9312    8.6733 C   0  0  0  0  0  0  0  0  0  0  0  0
   -1.1871   -2.0180    9.5641 C   0  0  0  0  0  0  0  0  0  0  0  0
   -2.2760   -1.2428    9.2059 C   0  0  0  0  0  0  0  0  0  0  0  0
   -2.7590   -1.4678    7.8818 C   0  0  0  0  0  0  0  0  0  0  0  0
   -3.9034   -0.8256    7.1643 C   0  0  0  0  0  0  0  0  0  0  0  0
   -4.8090    0.0366    7.6955 C   0  0  0  0  0  0  0  0  0  0  0  0
   -4.9144    0.2861    9.1117 C   0  0  0  0  0  0  0  0  0  0  0  0
   -5.0063    0.5092   10.2440 N   0  0  0  0  0  0  0  0  0  0  0  0
   -5.7643    0.7681    6.9057 C   0  0  0  0  0  0  0  0  0  0  0  0
   -6.5336    1.3780    6.2917 N   0  0  0  0  0  0  0  0  0  0  0  0
   -0.2271   -2.3737   10.6610 C   0  0  0  0  0  0  0  0  0  0  0  0
    0.9033   -1.3612   11.0135 C   0  0  0  0  0  0  0  0  0  0  0  0
    1.3172   -0.5904    9.7828 C   0  0  0  0  0  0  0  0  0  0  0  0
    1.9303   -1.4583    8.9782 C   0  0  0  0  0  0  0  0  0  0  0  0
    1.8957   -2.7953    9.6765 C   0  0  0  0  0  0  0  0  0  0  0  0
    2.0821   -2.3141   11.1054 C   0  0  0  0  0  0  0  0  0  0  0  0
    0.4289   -3.3246    9.7539 C   0  0  0  0  0  0  0  0  0  0  0  0
   -4.2137   -1.1580    3.2961 C   0  0  0  0  0  0  0  0  0  0  0  0
   -3.2940   -0.3198    2.6470 C   0  0  0  0  0  0  0  0  0  0  0  0
   -2.2705    0.4451    3.3032 N   0  0  0  0  0  0  0  0  0  0  0  0
   -2.4370    1.8613    3.5172 C   0  0  0  0  0  0  0  0  0  0  0  0
   -3.6253    2.3681    4.0693 C   0  0  0  0  0  0  0  0  0  0  0  0
   -3.6967    3.7026    4.4852 C   0  0  0  0  0  0  0  0  0  0  0  0
   -2.5994    4.5569    4.3189 C   0  0  0  0  0  0  0  0  0  0  0  0
   -2.6155    6.2074    5.0298 S   0  0  0  0  0  0  0  0  0  0  0  0
   -3.2596    7.0209    3.5360 C   0  0  0  0  0  0  0  0  0  0  0  0
   -1.4436    4.0812    3.6887 C   0  0  0  0  0  0  0  0  0  0  0  0
   -1.3624    2.7396    3.2877 C   0  0  0  0  0  0  0  0  0  0  0  0
   -1.0860   -0.2343    3.7719 C   0  0  0  0  0  0  0  0  0  0  0  0
   -0.5584   -1.3397    3.0682 C   0  0  0  0  0  0  0  0  0  0  0  0
    0.4944   -2.0843    3.6074 C   0  0  0  0  0  0  0  0  0  0  0  0
    1.0579   -1.7227    4.8371 C   0  0  0  0  0  0  0  0  0  0  0  0
    2.3092   -2.7613    5.5930 S   0  0  0  0  0  0  0  0  0  0  0  0
    3.6933   -1.9592    4.7332 C   0  0  0  0  0  0  0  0  0  0  0  0
    0.5805   -0.5939    5.5123 C   0  0  0  0  0  0  0  0  0  0  0  0
   -0.4845    0.1410    4.9886 C   0  0  0  0  0  0  0  0  0  0  0  0
   -3.3434   -0.4898    1.2720 C   0  0  0  0  0  0  0  0  0  0  0  0
   -2.3831    0.0613    0.0336 S   0  0  0  0  0  0  0  0  0  0  0  0
   -3.1455   -0.8904   -1.1522 C   0  0  0  0  0  0  0  0  0  0  0  0
   -4.1292   -1.7027   -0.5502 C   0  0  0  0  0  0  0  0  0  0  0  0
   -4.7886   -2.8112   -1.1965 N   0  0  0  0  0  0  0  0  0  0  0  0
   -4.0231   -3.7088   -2.0262 C   0  0  0  0  0  0  0  0  0  0  0  0
   -2.8886   -4.3576   -1.5083 C   0  0  0  0  0  0  0  0  0  0  0  0
   -2.1016   -5.1648   -2.3374 C   0  0  0  0  0  0  0  0  0  0  0  0
   -2.4461   -5.3293   -3.6846 C   0  0  0  0  0  0  0  0  0  0  0  0
   -1.3768   -6.2840   -4.7676 S   0  0  0  0  0  0  0  0  0  0  0  0
   -2.1811   -7.8676   -4.3835 C   0  0  0  0  0  0  0  0  0  0  0  0
   -3.5951   -4.7112   -4.1941 C   0  0  0  0  0  0  0  0  0  0  0  0
   -4.3857   -3.9093   -3.3633 C   0  0  0  0  0  0  0  0  0  0  0  0
   -6.1595   -3.1327   -0.8869 C   0  0  0  0  0  0  0  0  0  0  0  0
   -6.5260   -4.4569   -0.5967 C   0  0  0  0  0  0  0  0  0  0  0  0
   -7.8450   -4.7689   -0.2720 C   0  0  0  0  0  0  0  0  0  0  0  0
   -8.8185   -3.7607   -0.2419 C   0  0  0  0  0  0  0  0  0  0  0  0
  -10.5051   -4.1659    0.2244 S   0  0  0  0  0  0  0  0  0  0  0  0
  -10.9839   -4.6878   -1.4511 C   0  0  0  0  0  0  0  0  0  0  0  0
   -8.4611   -2.4394   -0.5415 C   0  0  0  0  0  0  0  0  0  0  0  0
   -7.1359   -2.1232   -0.8541 C   0  0  0  0  0  0  0  0  0  0  0  0
   -4.2266   -1.4190    0.8167 C   0  0  0  0  0  0  0  0  0  0  0  0
   -5.0677   -2.0670    2.1280 S   0  0  0  0  0  0  0  0  0  0  0  0
   -2.6132   -0.9893   -2.5091 C   0  0  0  0  0  0  0  0  0  0  0  0
   -2.7447   -0.0149   -3.5200 C   0  0  0  0  0  0  0  0  0  0  0  0
   -3.7557    1.0048   -3.5559 N   0  0  0  0  0  0  0  0  0  0  0  0
   -4.6611    1.0675   -4.6762 C   0  0  0  0  0  0  0  0  0  0  0  0
   -5.0362    2.3080   -5.2191 C   0  0  0  0  0  0  0  0  0  0  0  0
   -5.9125    2.3681   -6.3036 C   0  0  0  0  0  0  0  0  0  0  0  0
   -6.4272    1.1900   -6.8552 C   0  0  0  0  0  0  0  0  0  0  0  0
   -7.5395    1.2610   -8.2628 S   0  0  0  0  0  0  0  0  0  0  0  0
   -6.1923    1.1830   -9.4814 C   0  0  0  0  0  0  0  0  0  0  0  0
   -6.0717   -0.0530   -6.3091 C   0  0  0  0  0  0  0  0  0  0  0  0
   -5.1868   -0.1145   -5.2327 C   0  0  0  0  0  0  0  0  0  0  0  0
   -3.9376    1.8912   -2.4393 C   0  0  0  0  0  0  0  0  0  0  0  0
   -2.8529    2.6313   -1.9413 C   0  0  0  0  0  0  0  0  0  0  0  0
   -3.0319    3.4918   -0.8485 C   0  0  0  0  0  0  0  0  0  0  0  0
   -4.2918    3.6130   -0.2551 C   0  0  0  0  0  0  0  0  0  0  0  0
   -4.5351    4.7164    1.1308 S   0  0  0  0  0  0  0  0  0  0  0  0
   -4.9097    6.1535    0.0784 C   0  0  0  0  0  0  0  0  0  0  0  0
   -5.3718    2.8715   -0.7471 C   0  0  0  0  0  0  0  0  0  0  0  0
   -5.1973    2.0157   -1.8341 C   0  0  0  0  0  0  0  0  0  0  0  0
   -1.7313   -0.1256   -4.4762 C   0  0  0  0  0  0  0  0  0  0  0  0
   -1.0198    1.0136   -5.4883 S   0  0  0  0  0  0  0  0  0  0  0  0
    0.4733    0.1856   -5.6511 C   0  0  0  0  0  0  0  0  0  0  0  0
    0.3998   -0.9928   -4.8766 C   0  0  0  0  0  0  0  0  0  0  0  0
    1.5358   -1.7654   -4.4604 N   0  0  0  0  0  0  0  0  0  0  0  0
    1.9004   -2.9390   -5.2266 C   0  0  0  0  0  0  0  0  0  0  0  0
    3.2112   -3.4480   -5.1664 C   0  0  0  0  0  0  0  0  0  0  0  0
    3.5744   -4.5696   -5.9197 C   0  0  0  0  0  0  0  0  0  0  0  0
    2.6402   -5.1883   -6.7565 C   0  0  0  0  0  0  0  0  0  0  0  0
    3.1021   -6.6320   -7.7033 S   0  0  0  0  0  0  0  0  0  0  0  0
    2.3467   -7.8010   -6.5310 C   0  0  0  0  0  0  0  0  0  0  0  0
    1.3433   -4.6788   -6.8443 C   0  0  0  0  0  0  0  0  0  0  0  0
    0.9694   -3.5665   -6.0828 C   0  0  0  0  0  0  0  0  0  0  0  0
    2.0426   -1.5325   -3.1251 C   0  0  0  0  0  0  0  0  0  0  0  0
    2.2631   -2.6052   -2.2387 C   0  0  0  0  0  0  0  0  0  0  0  0
    2.5910   -2.3637   -0.8977 C   0  0  0  0  0  0  0  0  0  0  0  0
    2.6748   -1.0478   -0.4219 C   0  0  0  0  0  0  0  0  0  0  0  0
    2.9972   -0.7357    1.3128 S   0  0  0  0  0  0  0  0  0  0  0  0
    4.7865   -0.4665    1.0901 C   0  0  0  0  0  0  0  0  0  0  0  0
    2.4596    0.0199   -1.2978 C   0  0  0  0  0  0  0  0  0  0  0  0
    2.1535   -0.2147   -2.6338 C   0  0  0  0  0  0  0  0  0  0  0  0
   -0.8300   -1.1138   -4.2390 C   0  0  0  0  0  0  0  0  0  0  0  0
   -1.2270   -1.9022   -2.8207 S   0  0  0  0  0  0  0  0  0  0  0  0
    1.7331    0.8626   -6.0391 C   0  0  0  0  0  0  0  0  0  0  0  0
    2.0486    2.4872   -5.6791 S   0  0  0  0  0  0  0  0  0  0  0  0
    3.7157    2.3905   -5.8466 C   0  0  0  0  0  0  0  0  0  0  0  0
    4.7630    3.1408   -5.1504 C   0  0  0  0  0  0  0  0  0  0  0  0
    5.8982    2.4090   -4.8626 C   0  0  0  0  0  0  0  0  0  0  0  0
    5.8436    0.6536   -5.6139 Ge  0  0  0  0  0  4  0  0  0  0  0  0
    7.0505    0.4357   -7.1248 C   0  0  0  0  0  0  0  0  0  0  0  0
    6.7413    1.4669   -8.2011 C   0  0  0  0  0  0  0  0  0  0  0  0
    5.9875   -0.6960   -4.2045 C   0  0  0  0  0  0  0  0  0  0  0  0
    6.6756   -1.9541   -4.7197 C   0  0  0  0  0  0  0  0  0  0  0  0
    4.0453    1.0839   -6.1371 C   0  0  0  0  0  0  0  0  0  0  0  0
    2.9528    0.2208   -6.2690 C   0  0  0  0  0  0  0  0  0  0  0  0
    6.5947    2.8222   -3.7309 C   0  0  0  0  0  0  0  0  0  0  0  0
    6.0259    3.9524   -3.1343 C   0  0  0  0  0  0  0  0  0  0  0  0
    4.6077    4.3366   -3.9844 S   0  0  0  0  0  0  0  0  0  0  0  0
    6.2463    4.4192   -1.7499 C   0  0  0  0  0  0  0  0  0  0  0  0
    7.2934    4.1032   -0.9639 C   0  0  0  0  0  0  0  0  0  0  0  0
    8.6664    3.8561   -1.4184 C   0  0  0  0  0  0  0  0  0  0  0  0
    9.0827    3.8545   -2.6065 O   0  0  0  0  0  0  0  0  0  0  0  0
    9.5149    3.7739   -0.2479 C   0  0  0  0  0  0  0  0  0  0  0  0
   10.8750    3.4631   -0.2057 C   0  0  0  0  0  0  0  0  0  0  0  0
   11.5024    3.3411    1.0458 C   0  0  0  0  0  0  0  0  0  0  0  0
   13.2029    2.8999    1.1256 Cl  0  0  0  0  0  0  0  0  0  0  0  0
   10.7577    3.5312    2.2287 C   0  0  0  0  0  0  0  0  0  0  0  0
   11.3564    3.3999    3.4377 F   0  0  0  0  0  0  0  0  0  0  0  0
    9.3867    3.8479    2.1617 C   0  0  0  0  0  0  0  0  0  0  0  0
    8.7699    3.9833    0.9036 C   0  0  0  0  0  0  0  0  0  0  0  0
    7.3399    4.1949    0.5319 C   0  0  0  0  0  0  0  0  0  0  0  0
    6.2752    4.2419    1.3733 C   0  0  0  0  0  0  0  0  0  0  0  0
    4.9424    3.9193    0.9264 C   0  0  0  0  0  0  0  0  0  0  0  0
    3.8793    3.6370    0.5608 N   0  0  0  0  0  0  0  0  0  0  0  0
    6.4062    4.4957    2.7814 C   0  0  0  0  0  0  0  0  0  0  0  0
    6.5080    4.6960    3.9179 N   0  0  0  0  0  0  0  0  0  0  0  0
   -5.5487   -0.5082    4.8393 H   0  0  0  0  0  0  0  0  0  0  0  0
   -0.4671   -3.8186    6.6904 H   0  0  0  0  0  0  0  0  0  0  0  0
   -2.6857   -0.5335    9.9068 H   0  0  0  0  0  0  0  0  0  0  0  0
   -0.7123   -2.8582   11.5376 H   0  0  0  0  0  0  0  0  0  0  0  0
    0.7180   -0.7423   11.9188 H   0  0  0  0  0  0  0  0  0  0  0  0
    1.2626    0.4878    9.6325 H   0  0  0  0  0  0  0  0  0  0  0  0
    2.4732   -1.2055    8.0731 H   0  0  0  0  0  0  0  0  0  0  0  0
    2.6447   -3.5270    9.3187 H   0  0  0  0  0  0  0  0  0  0  0  0
    3.0605   -1.7989   11.2776 H   0  0  0  0  0  0  0  0  0  0  0  0
    1.9515   -3.1169   11.8691 H   0  0  0  0  0  0  0  0  0  0  0  0
    0.3381   -4.3816   10.0850 H   0  0  0  0  0  0  0  0  0  0  0  0
   -4.4684    1.7119    4.2501 H   0  0  0  0  0  0  0  0  0  0  0  0
   -4.5952    4.0639    4.9795 H   0  0  0  0  0  0  0  0  0  0  0  0
   -4.2821    6.6533    3.3196 H   0  0  0  0  0  0  0  0  0  0  0  0
   -3.3204    8.1143    3.7227 H   0  0  0  0  0  0  0  0  0  0  0  0
   -2.5940    6.8331    2.6718 H   0  0  0  0  0  0  0  0  0  0  0  0
   -0.5847    4.7337    3.5535 H   0  0  0  0  0  0  0  0  0  0  0  0
   -0.4414    2.3737    2.8440 H   0  0  0  0  0  0  0  0  0  0  0  0
   -0.9928   -1.6621    2.1284 H   0  0  0  0  0  0  0  0  0  0  0  0
    0.8511   -2.9664    3.0796 H   0  0  0  0  0  0  0  0  0  0  0  0
    4.6401   -2.2438    5.2369 H   0  0  0  0  0  0  0  0  0  0  0  0
    3.7268   -2.3195    3.6863 H   0  0  0  0  0  0  0  0  0  0  0  0
    3.5931   -0.8534    4.7528 H   0  0  0  0  0  0  0  0  0  0  0  0
    0.9993   -0.3087    6.4698 H   0  0  0  0  0  0  0  0  0  0  0  0
   -0.8843    0.9654    5.5647 H   0  0  0  0  0  0  0  0  0  0  0  0
   -2.5985   -4.2153   -0.4778 H   0  0  0  0  0  0  0  0  0  0  0  0
   -1.2111   -5.6368   -1.9410 H   0  0  0  0  0  0  0  0  0  0  0  0
   -1.6818   -8.6730   -4.9580 H   0  0  0  0  0  0  0  0  0  0  0  0
   -3.2509   -7.8358   -4.6715 H   0  0  0  0  0  0  0  0  0  0  0  0
   -2.0851   -8.0930   -3.2999 H   0  0  0  0  0  0  0  0  0  0  0  0
   -3.8688   -4.8351   -5.2350 H   0  0  0  0  0  0  0  0  0  0  0  0
   -5.2638   -3.4190   -3.7645 H   0  0  0  0  0  0  0  0  0  0  0  0
   -5.7822   -5.2459   -0.5966 H   0  0  0  0  0  0  0  0  0  0  0  0
   -8.1114   -5.7916   -0.0342 H   0  0  0  0  0  0  0  0  0  0  0  0
  -12.0150   -5.0955   -1.4174 H   0  0  0  0  0  0  0  0  0  0  0  0
  -10.3038   -5.4842   -1.8243 H   0  0  0  0  0  0  0  0  0  0  0  0
  -10.9582   -3.8170   -2.1383 H   0  0  0  0  0  0  0  0  0  0  0  0
   -9.2087   -1.6557   -0.5178 H   0  0  0  0  0  0  0  0  0  0  0  0
   -6.8671   -1.0984   -1.0794 H   0  0  0  0  0  0  0  0  0  0  0  0
   -4.6381    3.2270   -4.8057 H   0  0  0  0  0  0  0  0  0  0  0  0
   -6.1840    3.3281   -6.7230 H   0  0  0  0  0  0  0  0  0  0  0  0
   -5.4909    2.0320   -9.3301 H   0  0  0  0  0  0  0  0  0  0  0  0
   -6.6227    1.2536  -10.4986 H   0  0  0  0  0  0  0  0  0  0  0  0
   -5.6431    0.2241   -9.3847 H   0  0  0  0  0  0  0  0  0  0  0  0
   -6.4736   -0.9679   -6.7281 H   0  0  0  0  0  0  0  0  0  0  0  0
   -4.9248   -1.0786   -4.8128 H   0  0  0  0  0  0  0  0  0  0  0  0
   -1.8691    2.5383   -2.3962 H   0  0  0  0  0  0  0  0  0  0  0  0
   -2.1944    4.0612   -0.4749 H   0  0  0  0  0  0  0  0  0  0  0  0
   -5.8190    5.9544   -0.5298 H   0  0  0  0  0  0  0  0  0  0  0  0
   -5.0998    7.0363    0.7252 H   0  0  0  0  0  0  0  0  0  0  0  0
   -4.0492    6.3710   -0.5841 H   0  0  0  0  0  0  0  0  0  0  0  0
   -6.3471    2.9595   -0.2850 H   0  0  0  0  0  0  0  0  0  0  0  0
   -6.0407    1.4520   -2.2098 H   0  0  0  0  0  0  0  0  0  0  0  0
    3.9459   -2.9743   -4.5337 H   0  0  0  0  0  0  0  0  0  0  0  0
    4.5894   -4.9472   -5.8523 H   0  0  0  0  0  0  0  0  0  0  0  0
    2.5284   -8.8386   -6.8811 H   0  0  0  0  0  0  0  0  0  0  0  0
    2.7977   -7.6760   -5.5204 H   0  0  0  0  0  0  0  0  0  0  0  0
    1.2501   -7.6274   -6.4771 H   0  0  0  0  0  0  0  0  0  0  0  0
    0.6163   -5.1534   -7.4949 H   0  0  0  0  0  0  0  0  0  0  0  0
   -0.0517   -3.2166   -6.1597 H   0  0  0  0  0  0  0  0  0  0  0  0
    2.1487   -3.6260   -2.5727 H   0  0  0  0  0  0  0  0  0  0  0  0
    2.7381   -3.1974   -0.2229 H   0  0  0  0  0  0  0  0  0  0  0  0
    4.9670    0.5939    0.8169 H   0  0  0  0  0  0  0  0  0  0  0  0
    5.2001   -1.1256    0.2966 H   0  0  0  0  0  0  0  0  0  0  0  0
    5.3063   -0.6916    2.0399 H   0  0  0  0  0  0  0  0  0  0  0  0
    2.5086    1.0425   -0.9301 H   0  0  0  0  0  0  0  0  0  0  0  0
    1.9653    0.6322   -3.2761 H   0  0  0  0  0  0  0  0  0  0  0  0
    8.0972    0.5654   -6.7703 H   0  0  0  0  0  0  0  0  0  0  0  0
    6.9267   -0.5877   -7.5421 H   0  0  0  0  0  0  0  0  0  0  0  0
    7.4432    1.3404   -9.0547 H   0  0  0  0  0  0  0  0  0  0  0  0
    5.7021    1.3369   -8.5681 H   0  0  0  0  0  0  0  0  0  0  0  0
    6.8574    2.4979   -7.7900 H   0  0  0  0  0  0  0  0  0  0  0  0
    6.5863   -0.2684   -3.3713 H   0  0  0  0  0  0  0  0  0  0  0  0
    4.9753   -0.9357   -3.8303 H   0  0  0  0  0  0  0  0  0  0  0  0
    7.7199   -1.7183   -5.0472 H   0  0  0  0  0  0  0  0  0  0  0  0
    6.1198   -2.3746   -5.5854 H   0  0  0  0  0  0  0  0  0  0  0  0
    6.7183   -2.7075   -3.9064 H   0  0  0  0  0  0  0  0  0  0  0  0
    3.0652   -0.8480   -6.3914 H   0  0  0  0  0  0  0  0  0  0  0  0
    7.3519    2.2100   -3.2696 H   0  0  0  0  0  0  0  0  0  0  0  0
    5.4125    4.9483   -1.3136 H   0  0  0  0  0  0  0  0  0  0  0  0
   11.4375    3.2939   -1.1190 H   0  0  0  0  0  0  0  0  0  0  0  0
    8.8420    3.9473    3.0869 H   0  0  0  0  0  0  0  0  0  0  0  0
  1  2  2  3
  2  3  1  0
  3  4  2  0
  3  5  1  0
  5  6  2  0
  6  7  1  0
  7  8  2  0
  8  9  1  0
  9 10  2  0
 10 11  1  0
 11 12  2  3
 12 13  1  0
 13 14  3  0
 12 15  1  0
 15 16  3  0
  8 17  1  0
 17 18  1  0
 18 19  1  0
 19 20  2  0
 20 21  1  0
 21 22  1  0
 21 23  1  0
  1 24  1  0
 24 25  2  0
 25 26  1  0
 26 27  1  0
 27 28  2  0
 28 29  1  0
 29 30  2  0
 30 31  1  0
 31 32  1  0
 30 33  1  0
 33 34  2  0
 26 35  1  0
 35 36  2  0
 36 37  1  0
 37 38  2  0
 38 39  1  0
 39 40  1  0
 38 41  1  0
 41 42  2  0
 25 43  1  0
 43 44  1  0
 44 45  1  0
 45 46  2  0
 46 47  1  0
 47 48  1  0
 48 49  2  0
 49 50  1  0
 50 51  2  0
 51 52  1  0
 52 53  1  0
 51 54  1  0
 54 55  2  0
 47 56  1  0
 56 57  2  0
 57 58  1  0
 58 59  2  0
 59 60  1  0
 60 61  1  0
 59 62  1  0
 62 63  2  0
 46 64  1  0
 64 65  1  0
 45 66  1  0
 66 67  2  0
 67 68  1  0
 68 69  1  0
 69 70  2  0
 70 71  1  0
 71 72  2  0
 72 73  1  0
 73 74  1  0
 72 75  1  0
 75 76  2  0
 68 77  1  0
 77 78  2  0
 78 79  1  0
 79 80  2  0
 80 81  1  0
 81 82  1  0
 80 83  1  0
 83 84  2  0
 67 85  1  0
 85 86  1  0
 86 87  1  0
 87 88  2  0
 88 89  1  0
 89 90  1  0
 90 91  2  0
 91 92  1  0
 92 93  2  0
 93 94  1  0
 94 95  1  0
 93 96  1  0
 96 97  2  0
 89 98  1  0
 98 99  2  0
 99100  1  0
100101  2  0
101102  1  0
102103  1  0
101104  1  0
104105  2  0
 88106  1  0
106107  1  0
 87108  1  0
108109  1  0
109110  1  0
110111  1  0
111112  2  0
112113  1  0
113114  1  0
114115  1  0
113116  1  0
116117  1  0
113118  1  0
118119  1  0
112120  1  0
120121  2  0
121122  1  0
121123  1  0
123124  2  3
124125  1  0
125126  2  0
125127  1  0
127128  2  0
128129  1  0
129130  1  0
129131  2  0
131132  1  0
131133  1  0
133134  2  0
134135  1  0
135136  2  3
136137  1  0
137138  3  0
136139  1  0
139140  3  0
 11  2  1  0
 23 17  1  0
 65 24  1  0
107 66  1  0
119108  2  0
135124  1  0
 10  5  1  0
 22 18  1  0
 34 27  1  0
 42 35  1  0
 64 43  2  0
 76 69  1  0
 84 77  1  0
106 85  2  0
118110  2  0
134127  1  0
 23  7  1  0
 55 48  1  0
 63 56  1  0
 97 90  1  0
105 98  1  0
122111  1  0
  1141  1  0
  6142  1  0
  9143  1  0
 17144  1  0
 18145  1  0
 19146  1  0
 20147  1  0
 21148  1  0
 22149  1  0
 22150  1  0
 23151  1  0
 28152  1  0
 29153  1  0
 32154  1  0
 32155  1  0
 32156  1  0
 33157  1  0
 34158  1  0
 36159  1  0
 37160  1  0
 40161  1  0
 40162  1  0
 40163  1  0
 41164  1  0
 42165  1  0
 49166  1  0
 50167  1  0
 53168  1  0
 53169  1  0
 53170  1  0
 54171  1  0
 55172  1  0
 57173  1  0
 58174  1  0
 61175  1  0
 61176  1  0
 61177  1  0
 62178  1  0
 63179  1  0
 70180  1  0
 71181  1  0
 74182  1  0
 74183  1  0
 74184  1  0
 75185  1  0
 76186  1  0
 78187  1  0
 79188  1  0
 82189  1  0
 82190  1  0
 82191  1  0
 83192  1  0
 84193  1  0
 91194  1  0
 92195  1  0
 95196  1  0
 95197  1  0
 95198  1  0
 96199  1  0
 97200  1  0
 99201  1  0
100202  1  0
103203  1  0
103204  1  0
103205  1  0
104206  1  0
105207  1  0
114208  1  0
114209  1  0
115210  1  0
115211  1  0
115212  1  0
116213  1  0
116214  1  0
117215  1  0
117216  1  0
117217  1  0
119218  1  0
120219  1  0
123220  1  0
128221  1  0
133222  1  0
M  END

