
     RDKit          3D

156174  0  0  0  0  0  0  0  0999 V2000
    1.9801    1.6820    6.4216 C   0  0  0  0  0  0  0  0  0  0  0  0
    1.9077    0.3347    6.3765 C   0  0  0  0  0  0  0  0  0  0  0  0
    1.7293   -0.4715    5.1579 C   0  0  0  0  0  0  0  0  0  0  0  0
    1.2954   -0.0659    4.0457 O   0  0  0  0  0  0  0  0  0  0  0  0
    2.1371   -1.8289    5.4370 C   0  0  0  0  0  0  0  0  0  0  0  0
    2.2937   -2.8777    4.5012 C   0  0  0  0  0  0  0  0  0  0  0  0
    2.8475   -4.0233    5.0375 C   0  0  0  0  0  0  0  0  0  0  0  0
    3.2349   -4.1390    6.4094 C   0  0  0  0  0  0  0  0  0  0  0  0
    3.0827   -3.1206    7.3322 C   0  0  0  0  0  0  0  0  0  0  0  0
    2.4975   -1.9308    6.8019 C   0  0  0  0  0  0  0  0  0  0  0  0
    2.2360   -0.6242    7.4740 C   0  0  0  0  0  0  0  0  0  0  0  0
    2.0780   -0.4194    8.8073 C   0  0  0  0  0  0  0  0  0  0  0  0
    1.6077    0.8298    9.3423 C   0  0  0  0  0  0  0  0  0  0  0  0
    1.2231    1.8312    9.7773 N   0  0  0  0  0  0  0  0  0  0  0  0
    2.2184   -1.4803    9.7722 C   0  0  0  0  0  0  0  0  0  0  0  0
    2.3235   -2.3265   10.5581 N   0  0  0  0  0  0  0  0  0  0  0  0
    3.7372   -5.5308    6.1669 C   0  0  0  0  0  0  0  0  0  0  0  0
    2.8536   -6.6982    6.6972 C   0  0  0  0  0  0  0  0  0  0  0  0
    3.3476   -7.9431    5.9932 C   0  0  0  0  0  0  0  0  0  0  0  0
    2.9754   -7.8284    4.7133 C   0  0  0  0  0  0  0  0  0  0  0  0
    2.2477   -6.5117    4.5941 C   0  0  0  0  0  0  0  0  0  0  0  0
    1.5475   -6.5120    5.9437 C   0  0  0  0  0  0  0  0  0  0  0  0
    3.3365   -5.4099    4.7599 C   0  0  0  0  0  0  0  0  0  0  0  0
    1.8364    2.5110    5.2190 C   0  0  0  0  0  0  0  0  0  0  0  0
    2.7664    2.5576    4.1938 C   0  0  0  0  0  0  0  0  0  0  0  0
    2.2410    3.0325    2.9870 C   0  0  0  0  0  0  0  0  0  0  0  0
    2.9250    2.8734    1.8357 F   0  0  0  0  0  0  0  0  0  0  0  0
    0.8972    3.4109    3.0546 C   0  0  0  0  0  0  0  0  0  0  0  0
    0.3692    3.0649    4.6202 S   0  0  0  0  0  0  0  0  0  0  0  0
   -0.0286    3.5285    1.9133 C   0  0  0  0  0  0  0  0  0  0  0  0
    0.2026    4.0586    0.6185 C   0  0  0  0  0  0  0  0  0  0  0  0
    1.2278    5.0065    0.2632 N   0  0  0  0  0  0  0  0  0  0  0  0
    0.8398    6.3879    0.0779 C   0  0  0  0  0  0  0  0  0  0  0  0
    1.3586    7.1508   -0.9921 C   0  0  0  0  0  0  0  0  0  0  0  0
    0.9367    8.4658   -1.1971 C   0  0  0  0  0  0  0  0  0  0  0  0
   -0.0139    9.0389   -0.3476 C   0  0  0  0  0  0  0  0  0  0  0  0
   -0.5956   10.7072   -0.6513 S   0  0  0  0  0  0  0  0  0  0  0  0
   -1.9467   10.1604   -1.7446 C   0  0  0  0  0  0  0  0  0  0  0  0
   -0.5271    8.3021    0.7247 C   0  0  0  0  0  0  0  0  0  0  0  0
   -0.1085    6.9832    0.9336 C   0  0  0  0  0  0  0  0  0  0  0  0
    2.5076    4.5517   -0.2229 C   0  0  0  0  0  0  0  0  0  0  0  0
    3.6760    5.2471    0.1357 C   0  0  0  0  0  0  0  0  0  0  0  0
    4.9251    4.8140   -0.3181 C   0  0  0  0  0  0  0  0  0  0  0  0
    5.0247    3.6744   -1.1206 C   0  0  0  0  0  0  0  0  0  0  0  0
    6.6305    3.1343   -1.7135 S   0  0  0  0  0  0  0  0  0  0  0  0
    6.9287    2.0450   -0.2849 C   0  0  0  0  0  0  0  0  0  0  0  0
    3.8682    2.9703   -1.4806 C   0  0  0  0  0  0  0  0  0  0  0  0
    2.6147    3.4032   -1.0326 C   0  0  0  0  0  0  0  0  0  0  0  0
   -0.8393    3.7319   -0.2456 C   0  0  0  0  0  0  0  0  0  0  0  0
   -1.0253    3.7974   -1.9046 S   0  0  0  0  0  0  0  0  0  0  0  0
   -2.4306    2.8160   -1.9582 C   0  0  0  0  0  0  0  0  0  0  0  0
   -2.7619    2.4811   -0.6245 C   0  0  0  0  0  0  0  0  0  0  0  0
   -3.9101    1.7161   -0.2221 N   0  0  0  0  0  0  0  0  0  0  0  0
   -5.2225    2.2248   -0.5314 C   0  0  0  0  0  0  0  0  0  0  0  0
   -6.2240    1.3642   -1.0068 C   0  0  0  0  0  0  0  0  0  0  0  0
   -7.5274    1.8329   -1.1977 C   0  0  0  0  0  0  0  0  0  0  0  0
   -7.8387    3.1694   -0.9272 C   0  0  0  0  0  0  0  0  0  0  0  0
   -9.5260    3.7523   -1.0954 S   0  0  0  0  0  0  0  0  0  0  0  0
   -9.9198    3.4836    0.6613 C   0  0  0  0  0  0  0  0  0  0  0  0
   -6.8351    4.0455   -0.4960 C   0  0  0  0  0  0  0  0  0  0  0  0
   -5.5344    3.5779   -0.2981 C   0  0  0  0  0  0  0  0  0  0  0  0
   -3.7504    0.5268    0.5928 C   0  0  0  0  0  0  0  0  0  0  0  0
   -4.7248    0.1682    1.5464 C   0  0  0  0  0  0  0  0  0  0  0  0
   -4.5896   -1.0090    2.2916 C   0  0  0  0  0  0  0  0  0  0  0  0
   -3.4802   -1.8357    2.1047 C   0  0  0  0  0  0  0  0  0  0  0  0
   -3.3354   -3.3722    3.0235 S   0  0  0  0  0  0  0  0  0  0  0  0
   -4.1412   -4.3575    1.7167 C   0  0  0  0  0  0  0  0  0  0  0  0
   -2.4846   -1.4688    1.1936 C   0  0  0  0  0  0  0  0  0  0  0  0
   -2.6124   -0.2917    0.4507 C   0  0  0  0  0  0  0  0  0  0  0  0
   -1.8381    2.9902    0.2845 C   0  0  0  0  0  0  0  0  0  0  0  0
   -1.5223    2.7016    1.9006 S   0  0  0  0  0  0  0  0  0  0  0  0
   -2.7656    2.0212   -3.1751 C   0  0  0  0  0  0  0  0  0  0  0  0
   -3.0985    0.6551   -3.0555 C   0  0  0  0  0  0  0  0  0  0  0  0
   -2.9173   -0.2353   -4.1166 C   0  0  0  0  0  0  0  0  0  0  0  0
   -3.1068   -1.5629   -3.9045 F   0  0  0  0  0  0  0  0  0  0  0  0
   -2.4195    0.2147   -5.3454 C   0  0  0  0  0  0  0  0  0  0  0  0
   -2.2673    1.5906   -5.5489 C   0  0  0  0  0  0  0  0  0  0  0  0
   -2.4510    2.5021   -4.4606 C   0  0  0  0  0  0  0  0  0  0  0  0
   -2.2221    3.8128   -4.7305 N   0  0  0  0  0  0  0  0  0  0  0  0
   -1.8027    3.7261   -6.3250 S   0  0  0  0  0  0  0  0  0  0  0  0
   -1.8679    2.1256   -6.7300 N   0  0  0  0  0  0  0  0  0  0  0  0
   -1.8939   -0.7820   -6.2967 C   0  0  0  0  0  0  0  0  0  0  0  0
   -0.5961   -1.1626   -6.2698 C   0  0  0  0  0  0  0  0  0  0  0  0
    0.4453   -0.5781   -5.4124 C   0  0  0  0  0  0  0  0  0  0  0  0
    0.4369    0.5784   -4.9063 O   0  0  0  0  0  0  0  0  0  0  0  0
    1.5067   -1.5442   -5.2387 C   0  0  0  0  0  0  0  0  0  0  0  0
    2.6317   -1.4325   -4.3875 C   0  0  0  0  0  0  0  0  0  0  0  0
    3.3954   -2.5839   -4.3127 C   0  0  0  0  0  0  0  0  0  0  0  0
    3.0683   -3.7871   -5.0227 C   0  0  0  0  0  0  0  0  0  0  0  0
    1.9746   -3.8955   -5.8706 C   0  0  0  0  0  0  0  0  0  0  0  0
    1.1975   -2.7071   -5.9919 C   0  0  0  0  0  0  0  0  0  0  0  0
   -0.0443   -2.4557   -6.7791 C   0  0  0  0  0  0  0  0  0  0  0  0
   -0.4695   -3.1466   -7.8664 C   0  0  0  0  0  0  0  0  0  0  0  0
    0.2257   -4.3009   -8.3711 C   0  0  0  0  0  0  0  0  0  0  0  0
    0.7696   -5.2322   -8.7881 N   0  0  0  0  0  0  0  0  0  0  0  0
   -1.5526   -2.6771   -8.6929 C   0  0  0  0  0  0  0  0  0  0  0  0
   -2.4158   -2.2965   -9.3621 N   0  0  0  0  0  0  0  0  0  0  0  0
    4.2466   -4.4860   -4.4137 C   0  0  0  0  0  0  0  0  0  0  0  0
    5.4627   -4.7261   -5.3509 C   0  0  0  0  0  0  0  0  0  0  0  0
    6.6246   -5.0586   -4.4447 C   0  0  0  0  0  0  0  0  0  0  0  0
    6.9454   -3.9269   -3.8083 C   0  0  0  0  0  0  0  0  0  0  0  0
    5.9857   -2.8701   -4.3002 C   0  0  0  0  0  0  0  0  0  0  0  0
    5.8733   -3.3154   -5.7485 C   0  0  0  0  0  0  0  0  0  0  0  0
    4.5971   -3.2487   -3.7046 C   0  0  0  0  0  0  0  0  0  0  0  0
    2.2827    2.1934    7.3192 H   0  0  0  0  0  0  0  0  0  0  0  0
    2.0513   -2.7774    3.4497 H   0  0  0  0  0  0  0  0  0  0  0  0
    3.4513   -3.2238    8.3372 H   0  0  0  0  0  0  0  0  0  0  0  0
    4.8307   -5.6481    6.3263 H   0  0  0  0  0  0  0  0  0  0  0  0
    2.7748   -6.7804    7.8004 H   0  0  0  0  0  0  0  0  0  0  0  0
    3.8127   -8.8116    6.4440 H   0  0  0  0  0  0  0  0  0  0  0  0
    3.0999   -8.5860    3.9421 H   0  0  0  0  0  0  0  0  0  0  0  0
    1.5881   -6.4116    3.7076 H   0  0  0  0  0  0  0  0  0  0  0  0
    1.0168   -5.5646    6.1821 H   0  0  0  0  0  0  0  0  0  0  0  0
    0.8352   -7.3643    6.0708 H   0  0  0  0  0  0  0  0  0  0  0  0
    4.1835   -5.4548    4.0379 H   0  0  0  0  0  0  0  0  0  0  0  0
    3.7538    2.1220    4.2692 H   0  0  0  0  0  0  0  0  0  0  0  0
    2.0630    6.7241   -1.6928 H   0  0  0  0  0  0  0  0  0  0  0  0
    1.3330    9.0288   -2.0310 H   0  0  0  0  0  0  0  0  0  0  0  0
   -1.5340    9.5870   -2.6039 H   0  0  0  0  0  0  0  0  0  0  0  0
   -2.6572    9.5214   -1.1764 H   0  0  0  0  0  0  0  0  0  0  0  0
   -2.4835   11.0469   -2.1355 H   0  0  0  0  0  0  0  0  0  0  0  0
   -1.2695    8.7375    1.3818 H   0  0  0  0  0  0  0  0  0  0  0  0
   -0.5285    6.4247    1.7601 H   0  0  0  0  0  0  0  0  0  0  0  0
    3.6185    6.1240    0.7714 H   0  0  0  0  0  0  0  0  0  0  0  0
    5.8151    5.3618   -0.0352 H   0  0  0  0  0  0  0  0  0  0  0  0
    6.8099    2.6039    0.6709 H   0  0  0  0  0  0  0  0  0  0  0  0
    7.9677    1.6536   -0.3382 H   0  0  0  0  0  0  0  0  0  0  0  0
    6.2178    1.1899   -0.3101 H   0  0  0  0  0  0  0  0  0  0  0  0
    3.9360    2.0893   -2.1034 H   0  0  0  0  0  0  0  0  0  0  0  0
    1.7361    2.8380   -1.3171 H   0  0  0  0  0  0  0  0  0  0  0  0
   -5.9998    0.3226   -1.2043 H   0  0  0  0  0  0  0  0  0  0  0  0
   -8.2971    1.1522   -1.5353 H   0  0  0  0  0  0  0  0  0  0  0  0
  -10.9902    3.7200    0.8373 H   0  0  0  0  0  0  0  0  0  0  0  0
   -9.2980    4.1505    1.2941 H   0  0  0  0  0  0  0  0  0  0  0  0
   -9.7348    2.4260    0.9428 H   0  0  0  0  0  0  0  0  0  0  0  0
   -7.0689    5.0803   -0.2872 H   0  0  0  0  0  0  0  0  0  0  0  0
   -4.7779    4.2571    0.0756 H   0  0  0  0  0  0  0  0  0  0  0  0
   -5.5917    0.7911    1.7143 H   0  0  0  0  0  0  0  0  0  0  0  0
   -5.3604   -1.2812    3.0025 H   0  0  0  0  0  0  0  0  0  0  0  0
   -4.2170   -5.4149    2.0499 H   0  0  0  0  0  0  0  0  0  0  0  0
   -3.5337   -4.3171    0.7863 H   0  0  0  0  0  0  0  0  0  0  0  0
   -5.1628   -3.9658    1.5156 H   0  0  0  0  0  0  0  0  0  0  0  0
   -1.6194   -2.1028    1.0449 H   0  0  0  0  0  0  0  0  0  0  0  0
   -1.8356   -0.0393   -0.2596 H   0  0  0  0  0  0  0  0  0  0  0  0
   -3.3779    0.2242   -2.1129 H   0  0  0  0  0  0  0  0  0  0  0  0
   -2.6294   -1.4153   -6.7717 H   0  0  0  0  0  0  0  0  0  0  0  0
    2.8628   -0.5347   -3.8251 H   0  0  0  0  0  0  0  0  0  0  0  0
    1.7395   -4.8272   -6.3535 H   0  0  0  0  0  0  0  0  0  0  0  0
    3.9754   -5.3358   -3.7459 H   0  0  0  0  0  0  0  0  0  0  0  0
    5.2895   -5.4390   -6.1840 H   0  0  0  0  0  0  0  0  0  0  0  0
    7.1711   -5.9948   -4.3899 H   0  0  0  0  0  0  0  0  0  0  0  0
    7.7951   -3.7888   -3.1481 H   0  0  0  0  0  0  0  0  0  0  0  0
    6.3131   -1.8217   -4.1395 H   0  0  0  0  0  0  0  0  0  0  0  0
    5.1063   -2.7706   -6.3392 H   0  0  0  0  0  0  0  0  0  0  0  0
    6.8423   -3.2794   -6.3030 H   0  0  0  0  0  0  0  0  0  0  0  0
    4.5540   -3.3221   -2.5963 H   0  0  0  0  0  0  0  0  0  0  0  0
  1  2  2  3
  2  3  1  0
  3  4  2  0
  3  5  1  0
  5  6  2  0
  6  7  1  0
  7  8  2  0
  8  9  1  0
  9 10  2  0
 10 11  1  0
 11 12  2  3
 12 13  1  0
 13 14  3  0
 12 15  1  0
 15 16  3  0
  8 17  1  0
 17 18  1  0
 18 19  1  0
 19 20  2  0
 20 21  1  0
 21 22  1  0
 21 23  1  0
  1 24  1  0
 24 25  2  0
 25 26  1  0
 26 27  1  0
 26 28  2  0
 28 29  1  0
 28 30  1  0
 30 31  2  0
 31 32  1  0
 32 33  1  0
 33 34  2  0
 34 35  1  0
 35 36  2  0
 36 37  1  0
 37 38  1  0
 36 39  1  0
 39 40  2  0
 32 41  1  0
 41 42  2  0
 42 43  1  0
 43 44  2  0
 44 45  1  0
 45 46  1  0
 44 47  1  0
 47 48  2  0
 31 49  1  0
 49 50  1  0
 50 51  1  0
 51 52  2  0
 52 53  1  0
 53 54  1  0
 54 55  2  0
 55 56  1  0
 56 57  2  0
 57 58  1  0
 58 59  1  0
 57 60  1  0
 60 61  2  0
 53 62  1  0
 62 63  2  0
 63 64  1  0
 64 65  2  0
 65 66  1  0
 66 67  1  0
 65 68  1  0
 68 69  2  0
 52 70  1  0
 70 71  1  0
 51 72  1  0
 72 73  2  0
 73 74  1  0
 74 75  1  0
 74 76  2  0
 76 77  1  0
 77 78  1  0
 78 79  2  0
 79 80  1  0
 80 81  1  0
 76 82  1  0
 82 83  2  3
 83 84  1  0
 84 85  2  0
 84 86  1  0
 86 87  2  0
 87 88  1  0
 88 89  2  0
 89 90  1  0
 90 91  2  0
 91 92  1  0
 92 93  2  3
 93 94  1  0
 94 95  3  0
 93 96  1  0
 96 97  3  0
 89 98  1  0
 98 99  1  0
 99100  1  0
100101  2  0
101102  1  0
102103  1  0
102104  1  0
 11  2  1  0
 23 17  1  0
 29 24  1  0
 71 30  1  0
 78 72  1  0
 92 83  1  0
104 98  1  0
 10  5  1  0
 22 18  1  0
 40 33  1  0
 48 41  1  0
 70 49  2  0
 81 77  2  0
 91 86  1  0
103 99  1  0
 23  7  1  0
 61 54  1  0
 69 62  1  0
104 88  1  0
  1105  1  0
  6106  1  0
  9107  1  0
 17108  1  0
 18109  1  0
 19110  1  0
 20111  1  0
 21112  1  0
 22113  1  0
 22114  1  0
 23115  1  0
 25116  1  0
 34117  1  0
 35118  1  0
 38119  1  0
 38120  1  0
 38121  1  0
 39122  1  0
 40123  1  0
 42124  1  0
 43125  1  0
 46126  1  0
 46127  1  0
 46128  1  0
 47129  1  0
 48130  1  0
 55131  1  0
 56132  1  0
 59133  1  0
 59134  1  0
 59135  1  0
 60136  1  0
 61137  1  0
 63138  1  0
 64139  1  0
 67140  1  0
 67141  1  0
 67142  1  0
 68143  1  0
 69144  1  0
 73145  1  0
 82146  1  0
 87147  1  0
 90148  1  0
 98149  1  0
 99150  1  0
100151  1  0
101152  1  0
102153  1  0
103154  1  0
103155  1  0
104156  1  0
M  END

