
     RDKit          3D

268292  0  0  0  0  0  0  0  0999 V2000
   -0.2444   -6.7598   -2.2098 C   0  0  0  0  0  0  0  0  0  0  0  0
    0.7015   -6.6039   -3.1503 C   0  0  0  0  0  0  0  0  0  0  0  0
    0.7796   -7.4829   -4.3139 C   0  0  0  0  0  0  0  0  0  0  0  0
    0.1679   -8.5758   -4.4616 O   0  0  0  0  0  0  0  0  0  0  0  0
    1.6185   -6.8564   -5.3080 C   0  0  0  0  0  0  0  0  0  0  0  0
    1.9293   -7.3527   -6.5966 C   0  0  0  0  0  0  0  0  0  0  0  0
    2.7656   -6.5318   -7.3261 C   0  0  0  0  0  0  0  0  0  0  0  0
    3.2542   -5.2788   -6.8348 C   0  0  0  0  0  0  0  0  0  0  0  0
    2.9422   -4.7783   -5.5812 C   0  0  0  0  0  0  0  0  0  0  0  0
    2.1227   -5.6351   -4.7919 C   0  0  0  0  0  0  0  0  0  0  0  0
    1.6857   -5.4990   -3.3694 C   0  0  0  0  0  0  0  0  0  0  0  0
    2.3565   -4.8072   -2.4076 C   0  0  0  0  0  0  0  0  0  0  0  0
    2.2132   -5.0915   -1.0051 C   0  0  0  0  0  0  0  0  0  0  0  0
    2.1085   -5.3062    0.1285 N   0  0  0  0  0  0  0  0  0  0  0  0
    3.3881   -3.8515   -2.7116 C   0  0  0  0  0  0  0  0  0  0  0  0
    4.2237   -3.0809   -2.9380 N   0  0  0  0  0  0  0  0  0  0  0  0
    4.0243   -5.0614   -8.1074 C   0  0  0  0  0  0  0  0  0  0  0  0
    3.4414   -4.0228   -9.1108 C   0  0  0  0  0  0  0  0  0  0  0  0
    4.1433   -4.2780  -10.4221 C   0  0  0  0  0  0  0  0  0  0  0  0
    3.6852   -5.4468  -10.8804 C   0  0  0  0  0  0  0  0  0  0  0  0
    2.6882   -5.9444   -9.8620 C   0  0  0  0  0  0  0  0  0  0  0  0
    2.0838   -4.6082   -9.4583 C   0  0  0  0  0  0  0  0  0  0  0  0
    3.5228   -6.3446   -8.6089 C   0  0  0  0  0  0  0  0  0  0  0  0
   -0.6694   -5.7404   -1.2472 C   0  0  0  0  0  0  0  0  0  0  0  0
   -0.9818   -4.3961   -1.5160 C   0  0  0  0  0  0  0  0  0  0  0  0
   -1.1930   -3.8668   -2.8333 N   0  0  0  0  0  0  0  0  0  0  0  0
   -0.3192   -2.8629   -3.3970 C   0  0  0  0  0  0  0  0  0  0  0  0
    0.5004   -2.0495   -2.5850 C   0  0  0  0  0  0  0  0  0  0  0  0
    1.3146   -1.0682   -3.1578 C   0  0  0  0  0  0  0  0  0  0  0  0
    1.3267   -0.8890   -4.5470 C   0  0  0  0  0  0  0  0  0  0  0  0
    2.3831    0.3503   -5.2963 S   0  0  0  0  0  0  0  0  0  0  0  0
    1.1282    1.6669   -5.1896 C   0  0  0  0  0  0  0  0  0  0  0  0
    0.5292   -1.6977   -5.3593 C   0  0  0  0  0  0  0  0  0  0  0  0
   -0.2880   -2.6757   -4.7898 C   0  0  0  0  0  0  0  0  0  0  0  0
   -2.5183   -4.0158   -3.3680 C   0  0  0  0  0  0  0  0  0  0  0  0
   -3.4320   -2.9537   -3.2736 C   0  0  0  0  0  0  0  0  0  0  0  0
   -4.7478   -3.1131   -3.7114 C   0  0  0  0  0  0  0  0  0  0  0  0
   -5.1589   -4.3324   -4.2600 C   0  0  0  0  0  0  0  0  0  0  0  0
   -6.8529   -4.5337   -4.8108 S   0  0  0  0  0  0  0  0  0  0  0  0
   -6.5185   -3.8947   -6.4795 C   0  0  0  0  0  0  0  0  0  0  0  0
   -4.2512   -5.3943   -4.3620 C   0  0  0  0  0  0  0  0  0  0  0  0
   -2.9341   -5.2343   -3.9202 C   0  0  0  0  0  0  0  0  0  0  0  0
   -1.4684   -3.7725   -0.3668 C   0  0  0  0  0  0  0  0  0  0  0  0
   -2.1254   -2.2753   -0.0488 S   0  0  0  0  0  0  0  0  0  0  0  0
   -2.5273   -2.6195    1.5760 C   0  0  0  0  0  0  0  0  0  0  0  0
   -2.1410   -3.9472    1.8603 C   0  0  0  0  0  0  0  0  0  0  0  0
   -2.5692   -4.7215    2.9894 N   0  0  0  0  0  0  0  0  0  0  0  0
   -3.9364   -5.1640    2.9200 C   0  0  0  0  0  0  0  0  0  0  0  0
   -4.2364   -6.4223    2.3703 C   0  0  0  0  0  0  0  0  0  0  0  0
   -5.5626   -6.8317    2.2277 C   0  0  0  0  0  0  0  0  0  0  0  0
   -6.6041   -5.9895    2.6338 C   0  0  0  0  0  0  0  0  0  0  0  0
   -8.3075   -6.5214    2.4708 S   0  0  0  0  0  0  0  0  0  0  0  0
   -8.2758   -7.4852    4.0134 C   0  0  0  0  0  0  0  0  0  0  0  0
   -6.3121   -4.7325    3.1767 C   0  0  0  0  0  0  0  0  0  0  0  0
   -4.9827   -4.3135    3.3054 C   0  0  0  0  0  0  0  0  0  0  0  0
   -1.6055   -5.4889    3.7717 C   0  0  0  0  0  0  0  0  0  0  0  0
   -0.2144   -5.3321    3.5822 C   0  0  0  0  0  0  0  0  0  0  0  0
    0.7005   -6.0646    4.3444 C   0  0  0  0  0  0  0  0  0  0  0  0
    0.2501   -6.9433    5.3318 C   0  0  0  0  0  0  0  0  0  0  0  0
    1.4320   -7.7960    6.3757 S   0  0  0  0  0  0  0  0  0  0  0  0
    1.2470   -9.3977    5.5330 C   0  0  0  0  0  0  0  0  0  0  0  0
   -1.1199   -7.1042    5.5413 C   0  0  0  0  0  0  0  0  0  0  0  0
   -2.0402   -6.3962    4.7633 C   0  0  0  0  0  0  0  0  0  0  0  0
   -1.5578   -4.5471    0.7378 C   0  0  0  0  0  0  0  0  0  0  0  0
   -1.0672   -6.1074    0.3687 S   0  0  0  0  0  0  0  0  0  0  0  0
   -2.9340   -1.5300    2.4933 C   0  0  0  0  0  0  0  0  0  0  0  0
   -2.0769   -1.0327    3.4988 C   0  0  0  0  0  0  0  0  0  0  0  0
   -1.2403   -1.8555    4.3305 N   0  0  0  0  0  0  0  0  0  0  0  0
    0.1867   -1.7169    4.1755 C   0  0  0  0  0  0  0  0  0  0  0  0
    1.0003   -1.3667    5.2692 C   0  0  0  0  0  0  0  0  0  0  0  0
    2.3661   -1.1282    5.0891 C   0  0  0  0  0  0  0  0  0  0  0  0
    2.9307   -1.2205    3.8131 C   0  0  0  0  0  0  0  0  0  0  0  0
    4.6745   -0.8749    3.5722 S   0  0  0  0  0  0  0  0  0  0  0  0
    5.1504   -2.6275    3.6672 C   0  0  0  0  0  0  0  0  0  0  0  0
    2.1284   -1.5514    2.7183 C   0  0  0  0  0  0  0  0  0  0  0  0
    0.7672   -1.8003    2.8972 C   0  0  0  0  0  0  0  0  0  0  0  0
   -1.8408   -2.5652    5.4518 C   0  0  0  0  0  0  0  0  0  0  0  0
   -3.1966   -2.3560    5.7927 C   0  0  0  0  0  0  0  0  0  0  0  0
   -3.8061   -3.1024    6.8017 C   0  0  0  0  0  0  0  0  0  0  0  0
   -3.0783   -4.0604    7.5068 C   0  0  0  0  0  0  0  0  0  0  0  0
   -3.8827   -5.0229    8.7884 S   0  0  0  0  0  0  0  0  0  0  0  0
   -4.4403   -6.3331    7.6498 C   0  0  0  0  0  0  0  0  0  0  0  0
   -1.7224   -4.2477    7.2216 C   0  0  0  0  0  0  0  0  0  0  0  0
   -1.1091   -3.5118    6.2013 C   0  0  0  0  0  0  0  0  0  0  0  0
   -2.0894    0.3657    3.5856 C   0  0  0  0  0  0  0  0  0  0  0  0
   -0.8466    1.4276    3.9527 S   0  0  0  0  0  0  0  0  0  0  0  0
   -1.3831    2.7176    2.9731 C   0  0  0  0  0  0  0  0  0  0  0  0
   -2.5878    2.2913    2.3696 C   0  0  0  0  0  0  0  0  0  0  0  0
   -3.3244    3.0167    1.3691 N   0  0  0  0  0  0  0  0  0  0  0  0
   -3.0803    2.8032   -0.0480 C   0  0  0  0  0  0  0  0  0  0  0  0
   -3.8252    3.5072   -1.0190 C   0  0  0  0  0  0  0  0  0  0  0  0
   -3.6591    3.2498   -2.3811 C   0  0  0  0  0  0  0  0  0  0  0  0
   -2.7480    2.2776   -2.8024 C   0  0  0  0  0  0  0  0  0  0  0  0
   -2.6066    1.8876   -4.5484 S   0  0  0  0  0  0  0  0  0  0  0  0
   -4.0048    0.7203   -4.5257 C   0  0  0  0  0  0  0  0  0  0  0  0
   -1.9655    1.6006   -1.8612 C   0  0  0  0  0  0  0  0  0  0  0  0
   -2.1174    1.8693   -0.4967 C   0  0  0  0  0  0  0  0  0  0  0  0
   -4.5920    3.5257    1.8320 C   0  0  0  0  0  0  0  0  0  0  0  0
   -5.8019    2.9585    1.3962 C   0  0  0  0  0  0  0  0  0  0  0  0
   -7.0134    3.3397    1.9845 C   0  0  0  0  0  0  0  0  0  0  0  0
   -7.0271    4.2866    3.0151 C   0  0  0  0  0  0  0  0  0  0  0  0
   -8.5708    4.7045    3.8305 S   0  0  0  0  0  0  0  0  0  0  0  0
   -8.3113    3.5239    5.1937 C   0  0  0  0  0  0  0  0  0  0  0  0
   -5.8274    4.8641    3.4442 C   0  0  0  0  0  0  0  0  0  0  0  0
   -4.6185    4.4682    2.8648 C   0  0  0  0  0  0  0  0  0  0  0  0
   -2.9410    0.9881    2.7345 C   0  0  0  0  0  0  0  0  0  0  0  0
   -3.7410   -0.1744    1.8358 S   0  0  0  0  0  0  0  0  0  0  0  0
   -0.3883    3.5939    2.3158 C   0  0  0  0  0  0  0  0  0  0  0  0
   -0.5336    4.9133    1.8256 C   0  0  0  0  0  0  0  0  0  0  0  0
   -1.3569    5.9288    2.4418 N   0  0  0  0  0  0  0  0  0  0  0  0
   -1.9923    6.9156    1.5905 C   0  0  0  0  0  0  0  0  0  0  0  0
   -2.5293    6.5333    0.3514 C   0  0  0  0  0  0  0  0  0  0  0  0
   -3.0773    7.4783   -0.5168 C   0  0  0  0  0  0  0  0  0  0  0  0
   -3.0920    8.8293   -0.1639 C   0  0  0  0  0  0  0  0  0  0  0  0
   -3.7856   10.0436   -1.2846 S   0  0  0  0  0  0  0  0  0  0  0  0
   -2.1915   10.4194   -2.0735 C   0  0  0  0  0  0  0  0  0  0  0  0
   -2.5545    9.2287    1.0638 C   0  0  0  0  0  0  0  0  0  0  0  0
   -1.9952    8.2856    1.9302 C   0  0  0  0  0  0  0  0  0  0  0  0
   -1.2238    6.1471    3.8723 C   0  0  0  0  0  0  0  0  0  0  0  0
   -0.0113    5.8588    4.5369 C   0  0  0  0  0  0  0  0  0  0  0  0
    0.1144    6.0586    5.9125 C   0  0  0  0  0  0  0  0  0  0  0  0
   -0.9606    6.5602    6.6480 C   0  0  0  0  0  0  0  0  0  0  0  0
   -0.8056    6.7908    8.4181 S   0  0  0  0  0  0  0  0  0  0  0  0
   -0.1419    8.4772    8.2736 C   0  0  0  0  0  0  0  0  0  0  0  0
   -2.1617    6.8731    6.0029 C   0  0  0  0  0  0  0  0  0  0  0  0
   -2.2935    6.6740    4.6266 C   0  0  0  0  0  0  0  0  0  0  0  0
    0.5525    5.2512    1.0091 C   0  0  0  0  0  0  0  0  0  0  0  0
    1.0154    6.6299    0.1621 S   0  0  0  0  0  0  0  0  0  0  0  0
    2.5293    5.9860   -0.2976 C   0  0  0  0  0  0  0  0  0  0  0  0
    2.6940    4.7249    0.2848 C   0  0  0  0  0  0  0  0  0  0  0  0
    3.9655    4.0842    0.4464 N   0  0  0  0  0  0  0  0  0  0  0  0
    4.6309    4.1643    1.7232 C   0  0  0  0  0  0  0  0  0  0  0  0
    4.6364    5.3711    2.4484 C   0  0  0  0  0  0  0  0  0  0  0  0
    5.2678    5.4488    3.6914 C   0  0  0  0  0  0  0  0  0  0  0  0
    5.8998    4.3224    4.2273 C   0  0  0  0  0  0  0  0  0  0  0  0
    6.7175    4.4301    5.8227 S   0  0  0  0  0  0  0  0  0  0  0  0
    5.2134    4.0416    6.7683 C   0  0  0  0  0  0  0  0  0  0  0  0
    5.8939    3.1153    3.5198 C   0  0  0  0  0  0  0  0  0  0  0  0
    5.2728    3.0391    2.2671 C   0  0  0  0  0  0  0  0  0  0  0  0
    4.6013    3.4726   -0.6894 C   0  0  0  0  0  0  0  0  0  0  0  0
    5.9598    3.7133   -0.9626 C   0  0  0  0  0  0  0  0  0  0  0  0
    6.5713    3.1257   -2.0746 C   0  0  0  0  0  0  0  0  0  0  0  0
    5.8378    2.2758   -2.9094 C   0  0  0  0  0  0  0  0  0  0  0  0
    6.6230    1.4958   -4.3236 S   0  0  0  0  0  0  0  0  0  0  0  0
    7.2021    0.0592   -3.3636 C   0  0  0  0  0  0  0  0  0  0  0  0
    4.4872    2.0343   -2.6402 C   0  0  0  0  0  0  0  0  0  0  0  0
    3.8658    2.6411   -1.5479 C   0  0  0  0  0  0  0  0  0  0  0  0
    1.5514    4.3379    0.9649 C   0  0  0  0  0  0  0  0  0  0  0  0
    1.1326    2.9834    1.8356 S   0  0  0  0  0  0  0  0  0  0  0  0
    3.5324    6.6635   -1.1250 C   0  0  0  0  0  0  0  0  0  0  0  0
    3.3996    6.7872   -2.4595 C   0  0  0  0  0  0  0  0  0  0  0  0
    2.3175    6.2103   -3.2679 C   0  0  0  0  0  0  0  0  0  0  0  0
    1.2411    5.7136   -2.8408 O   0  0  0  0  0  0  0  0  0  0  0  0
    2.7070    6.2464   -4.6570 C   0  0  0  0  0  0  0  0  0  0  0  0
    2.0494    5.6767   -5.7453 C   0  0  0  0  0  0  0  0  0  0  0  0
    2.6611    5.7197   -7.0130 C   0  0  0  0  0  0  0  0  0  0  0  0
    2.0232    5.0365   -8.1928 C   0  0  0  0  0  0  0  0  0  0  0  0
    2.4989    3.7410   -8.2758 F   0  0  0  0  0  0  0  0  0  0  0  0
    2.3340    5.7076   -9.3648 F   0  0  0  0  0  0  0  0  0  0  0  0
    0.6491    5.0034   -8.0612 F   0  0  0  0  0  0  0  0  0  0  0  0
    3.9506    6.2800   -7.1309 C   0  0  0  0  0  0  0  0  0  0  0  0
    4.5956    6.8452   -6.0171 C   0  0  0  0  0  0  0  0  0  0  0  0
    3.9431    6.8516   -4.7765 C   0  0  0  0  0  0  0  0  0  0  0  0
    4.4064    7.3124   -3.4363 C   0  0  0  0  0  0  0  0  0  0  0  0
    5.4108    8.1941   -3.1885 C   0  0  0  0  0  0  0  0  0  0  0  0
    5.7186    8.6723   -1.8660 C   0  0  0  0  0  0  0  0  0  0  0  0
    5.9817    9.0577   -0.8067 N   0  0  0  0  0  0  0  0  0  0  0  0
    6.1345    8.8480   -4.2515 C   0  0  0  0  0  0  0  0  0  0  0  0
    6.6987    9.3964   -5.0956 N   0  0  0  0  0  0  0  0  0  0  0  0
   -0.8183   -7.6790   -2.1964 H   0  0  0  0  0  0  0  0  0  0  0  0
    1.5619   -8.2936   -6.9819 H   0  0  0  0  0  0  0  0  0  0  0  0
    3.3054   -3.8149   -5.2644 H   0  0  0  0  0  0  0  0  0  0  0  0
    5.1294   -5.0213   -7.9573 H   0  0  0  0  0  0  0  0  0  0  0  0
    3.4457   -2.9677   -8.7708 H   0  0  0  0  0  0  0  0  0  0  0  0
    4.8053   -3.6020  -10.9528 H   0  0  0  0  0  0  0  0  0  0  0  0
    3.9064   -5.8849  -11.8489 H   0  0  0  0  0  0  0  0  0  0  0  0
    1.9734   -6.7088  -10.2291 H   0  0  0  0  0  0  0  0  0  0  0  0
    1.5739   -4.0792  -10.2978 H   0  0  0  0  0  0  0  0  0  0  0  0
    1.3777   -4.6661   -8.6013 H   0  0  0  0  0  0  0  0  0  0  0  0
    4.3046   -7.1171   -8.7774 H   0  0  0  0  0  0  0  0  0  0  0  0
    0.5113   -2.1688   -1.5114 H   0  0  0  0  0  0  0  0  0  0  0  0
    1.9366   -0.4514   -2.5201 H   0  0  0  0  0  0  0  0  0  0  0  0
    0.7714    1.7796   -4.1403 H   0  0  0  0  0  0  0  0  0  0  0  0
    0.2712    1.4202   -5.8545 H   0  0  0  0  0  0  0  0  0  0  0  0
    1.5796    2.6284   -5.5190 H   0  0  0  0  0  0  0  0  0  0  0  0
    0.5361   -1.5624   -6.4336 H   0  0  0  0  0  0  0  0  0  0  0  0
   -0.8966   -3.2886   -5.4424 H   0  0  0  0  0  0  0  0  0  0  0  0
   -3.1198   -2.0206   -2.8271 H   0  0  0  0  0  0  0  0  0  0  0  0
   -5.4428   -2.2869   -3.6178 H   0  0  0  0  0  0  0  0  0  0  0  0
   -7.4734   -3.8354   -7.0408 H   0  0  0  0  0  0  0  0  0  0  0  0
   -6.0634   -2.8858   -6.4217 H   0  0  0  0  0  0  0  0  0  0  0  0
   -5.8379   -4.5841   -7.0150 H   0  0  0  0  0  0  0  0  0  0  0  0
   -4.5676   -6.3416   -4.7783 H   0  0  0  0  0  0  0  0  0  0  0  0
   -2.2443   -6.0627   -4.0063 H   0  0  0  0  0  0  0  0  0  0  0  0
   -3.4404   -7.0797    2.0468 H   0  0  0  0  0  0  0  0  0  0  0  0
   -5.7795   -7.8023    1.8003 H   0  0  0  0  0  0  0  0  0  0  0  0
   -7.9570   -6.8418    4.8601 H   0  0  0  0  0  0  0  0  0  0  0  0
   -7.5713   -8.3368    3.9071 H   0  0  0  0  0  0  0  0  0  0  0  0
   -9.2939   -7.8799    4.2147 H   0  0  0  0  0  0  0  0  0  0  0  0
   -7.1148   -4.0733    3.4828 H   0  0  0  0  0  0  0  0  0  0  0  0
   -4.7736   -3.3304    3.6951 H   0  0  0  0  0  0  0  0  0  0  0  0
    0.1795   -4.6341    2.8565 H   0  0  0  0  0  0  0  0  0  0  0  0
    1.7603   -5.9193    4.1829 H   0  0  0  0  0  0  0  0  0  0  0  0
    2.0607  -10.0755    5.8655 H   0  0  0  0  0  0  0  0  0  0  0  0
    1.3038   -9.2787    4.4331 H   0  0  0  0  0  0  0  0  0  0  0  0
    0.2747   -9.8489    5.8166 H   0  0  0  0  0  0  0  0  0  0  0  0
   -1.4755   -7.7779    6.3100 H   0  0  0  0  0  0  0  0  0  0  0  0
   -3.0943   -6.5399    4.9570 H   0  0  0  0  0  0  0  0  0  0  0  0
    0.5693   -1.2457    6.2544 H   0  0  0  0  0  0  0  0  0  0  0  0
    2.9778   -0.8458    5.9364 H   0  0  0  0  0  0  0  0  0  0  0  0
    6.2405   -2.7221    3.4860 H   0  0  0  0  0  0  0  0  0  0  0  0
    4.6036   -3.2149    2.8999 H   0  0  0  0  0  0  0  0  0  0  0  0
    4.9163   -3.0252    4.6759 H   0  0  0  0  0  0  0  0  0  0  0  0
    2.5591   -1.6121    1.7249 H   0  0  0  0  0  0  0  0  0  0  0  0
    0.1641   -2.0442    2.0361 H   0  0  0  0  0  0  0  0  0  0  0  0
   -3.8007   -1.6257    5.2743 H   0  0  0  0  0  0  0  0  0  0  0  0
   -4.8540   -2.9372    7.0271 H   0  0  0  0  0  0  0  0  0  0  0  0
   -5.2032   -6.9586    8.1590 H   0  0  0  0  0  0  0  0  0  0  0  0
   -4.8961   -5.9003    6.7335 H   0  0  0  0  0  0  0  0  0  0  0  0
   -3.5795   -6.9752    7.3761 H   0  0  0  0  0  0  0  0  0  0  0  0
   -1.1501   -4.9840    7.7690 H   0  0  0  0  0  0  0  0  0  0  0  0
   -0.0719   -3.7205    5.9750 H   0  0  0  0  0  0  0  0  0  0  0  0
   -4.5410    4.2670   -0.7254 H   0  0  0  0  0  0  0  0  0  0  0  0
   -4.2528    3.7965   -3.1069 H   0  0  0  0  0  0  0  0  0  0  0  0
   -4.9570    1.2712   -4.3748 H   0  0  0  0  0  0  0  0  0  0  0  0
   -4.0517    0.1811   -5.4948 H   0  0  0  0  0  0  0  0  0  0  0  0
   -3.8724   -0.0147   -3.7090 H   0  0  0  0  0  0  0  0  0  0  0  0
   -1.2532    0.8519   -2.1842 H   0  0  0  0  0  0  0  0  0  0  0  0
   -1.5066    1.3143    0.2042 H   0  0  0  0  0  0  0  0  0  0  0  0
   -5.7996    2.1918    0.6349 H   0  0  0  0  0  0  0  0  0  0  0  0
   -7.9378    2.8769    1.6644 H   0  0  0  0  0  0  0  0  0  0  0  0
   -8.0488    2.5198    4.8020 H   0  0  0  0  0  0  0  0  0  0  0  0
   -9.2369    3.4426    5.7971 H   0  0  0  0  0  0  0  0  0  0  0  0
   -7.4927    3.8863    5.8475 H   0  0  0  0  0  0  0  0  0  0  0  0
   -5.8229    5.5775    4.2609 H   0  0  0  0  0  0  0  0  0  0  0  0
   -3.6922    4.8557    3.2499 H   0  0  0  0  0  0  0  0  0  0  0  0
   -2.4897    5.5000    0.0497 H   0  0  0  0  0  0  0  0  0  0  0  0
   -3.4835    7.1577   -1.4678 H   0  0  0  0  0  0  0  0  0  0  0  0
   -1.7782    9.5118   -2.5517 H   0  0  0  0  0  0  0  0  0  0  0  0
   -2.3472   11.1935   -2.8514 H   0  0  0  0  0  0  0  0  0  0  0  0
   -1.4793   10.8059   -1.3195 H   0  0  0  0  0  0  0  0  0  0  0  0
   -2.5499   10.2773    1.3393 H   0  0  0  0  0  0  0  0  0  0  0  0
   -1.5398    8.6301    2.8501 H   0  0  0  0  0  0  0  0  0  0  0  0
    0.8477    5.4874    3.9922 H   0  0  0  0  0  0  0  0  0  0  0  0
    1.0481    5.8219    6.4053 H   0  0  0  0  0  0  0  0  0  0  0  0
    0.0498    8.8739    9.2908 H   0  0  0  0  0  0  0  0  0  0  0  0
    0.8098    8.4633    7.7057 H   0  0  0  0  0  0  0  0  0  0  0  0
   -0.8752    9.1328    7.7637 H   0  0  0  0  0  0  0  0  0  0  0  0
   -2.9954    7.2660    6.5688 H   0  0  0  0  0  0  0  0  0  0  0  0
   -3.2292    6.9348    4.1482 H   0  0  0  0  0  0  0  0  0  0  0  0
    4.1537    6.2542    2.0538 H   0  0  0  0  0  0  0  0  0  0  0  0
    5.2700    6.3853    4.2333 H   0  0  0  0  0  0  0  0  0  0  0  0
    4.4372    4.8075    6.5771 H   0  0  0  0  0  0  0  0  0  0  0  0
    4.8324    3.0430    6.4818 H   0  0  0  0  0  0  0  0  0  0  0  0
    5.4566    4.0397    7.8500 H   0  0  0  0  0  0  0  0  0  0  0  0
    6.3791    2.2402    3.9364 H   0  0  0  0  0  0  0  0  0  0  0  0
    5.2646    2.0954    1.7346 H   0  0  0  0  0  0  0  0  0  0  0  0
    6.5425    4.3639   -0.3227 H   0  0  0  0  0  0  0  0  0  0  0  0
    7.6147    3.3282   -2.2859 H   0  0  0  0  0  0  0  0  0  0  0  0
    7.6742   -0.6710   -4.0534 H   0  0  0  0  0  0  0  0  0  0  0  0
    6.3496   -0.4337   -2.8493 H   0  0  0  0  0  0  0  0  0  0  0  0
    7.9565    0.3846   -2.6168 H   0  0  0  0  0  0  0  0  0  0  0  0
    3.9192    1.3752   -3.2756 H   0  0  0  0  0  0  0  0  0  0  0  0
    2.8211    2.4407   -1.3555 H   0  0  0  0  0  0  0  0  0  0  0  0
    4.4700    6.8848   -0.6430 H   0  0  0  0  0  0  0  0  0  0  0  0
    1.0943    5.1890   -5.6027 H   0  0  0  0  0  0  0  0  0  0  0  0
    4.4702    6.2594   -8.0816 H   0  0  0  0  0  0  0  0  0  0  0  0
    5.5999    7.2058   -6.1328 H   0  0  0  0  0  0  0  0  0  0  0  0
  1  2  2  3
  2  3  1  0
  3  4  2  0
  3  5  1  0
  5  6  2  0
  6  7  1  0
  7  8  2  0
  8  9  1  0
  9 10  2  0
 10 11  1  0
 11 12  2  3
 12 13  1  0
 13 14  3  0
 12 15  1  0
 15 16  3  0
  8 17  1  0
 17 18  1  0
 18 19  1  0
 19 20  2  0
 20 21  1  0
 21 22  1  0
 21 23  1  0
  1 24  1  0
 24 25  2  0
 25 26  1  0
 26 27  1  0
 27 28  2  0
 28 29  1  0
 29 30  2  0
 30 31  1  0
 31 32  1  0
 30 33  1  0
 33 34  2  0
 26 35  1  0
 35 36  2  0
 36 37  1  0
 37 38  2  0
 38 39  1  0
 39 40  1  0
 38 41  1  0
 41 42  2  0
 25 43  1  0
 43 44  1  0
 44 45  1  0
 45 46  2  0
 46 47  1  0
 47 48  1  0
 48 49  2  0
 49 50  1  0
 50 51  2  0
 51 52  1  0
 52 53  1  0
 51 54  1  0
 54 55  2  0
 47 56  1  0
 56 57  2  0
 57 58  1  0
 58 59  2  0
 59 60  1  0
 60 61  1  0
 59 62  1  0
 62 63  2  0
 46 64  1  0
 64 65  1  0
 45 66  1  0
 66 67  2  0
 67 68  1  0
 68 69  1  0
 69 70  2  0
 70 71  1  0
 71 72  2  0
 72 73  1  0
 73 74  1  0
 72 75  1  0
 75 76  2  0
 68 77  1  0
 77 78  2  0
 78 79  1  0
 79 80  2  0
 80 81  1  0
 81 82  1  0
 80 83  1  0
 83 84  2  0
 67 85  1  0
 85 86  1  0
 86 87  1  0
 87 88  2  0
 88 89  1  0
 89 90  1  0
 90 91  2  0
 91 92  1  0
 92 93  2  0
 93 94  1  0
 94 95  1  0
 93 96  1  0
 96 97  2  0
 89 98  1  0
 98 99  2  0
 99100  1  0
100101  2  0
101102  1  0
102103  1  0
101104  1  0
104105  2  0
 88106  1  0
106107  1  0
 87108  1  0
108109  2  0
109110  1  0
110111  1  0
111112  2  0
112113  1  0
113114  2  0
114115  1  0
115116  1  0
114117  1  0
117118  2  0
110119  1  0
119120  2  0
120121  1  0
121122  2  0
122123  1  0
123124  1  0
122125  1  0
125126  2  0
109127  1  0
127128  1  0
128129  1  0
129130  2  0
130131  1  0
131132  1  0
132133  2  0
133134  1  0
134135  2  0
135136  1  0
136137  1  0
135138  1  0
138139  2  0
131140  1  0
140141  2  0
141142  1  0
142143  2  0
143144  1  0
144145  1  0
143146  1  0
146147  2  0
130148  1  0
148149  1  0
129150  1  0
150151  2  3
151152  1  0
152153  2  0
152154  1  0
154155  2  0
155156  1  0
156157  1  0
157158  1  0
157159  1  0
157160  1  0
156161  2  0
161162  1  0
162163  2  0
163164  1  0
164165  2  3
165166  1  0
166167  3  0
165168  1  0
168169  3  0
 11  2  1  0
 23 17  1  0
 65 24  1  0
107 66  1  0
149108  1  0
164151  1  0
 10  5  1  0
 22 18  1  0
 34 27  1  0
 42 35  1  0
 64 43  2  0
 76 69  1  0
 84 77  1  0
106 85  2  0
118111  1  0
126119  1  0
148127  2  0
163154  1  0
 23  7  1  0
 55 48  1  0
 63 56  1  0
 97 90  1  0
105 98  1  0
139132  1  0
147140  1  0
  1170  1  0
  6171  1  0
  9172  1  0
 17173  1  0
 18174  1  0
 19175  1  0
 20176  1  0
 21177  1  0
 22178  1  0
 22179  1  0
 23180  1  0
 28181  1  0
 29182  1  0
 32183  1  0
 32184  1  0
 32185  1  0
 33186  1  0
 34187  1  0
 36188  1  0
 37189  1  0
 40190  1  0
 40191  1  0
 40192  1  0
 41193  1  0
 42194  1  0
 49195  1  0
 50196  1  0
 53197  1  0
 53198  1  0
 53199  1  0
 54200  1  0
 55201  1  0
 57202  1  0
 58203  1  0
 61204  1  0
 61205  1  0
 61206  1  0
 62207  1  0
 63208  1  0
 70209  1  0
 71210  1  0
 74211  1  0
 74212  1  0
 74213  1  0
 75214  1  0
 76215  1  0
 78216  1  0
 79217  1  0
 82218  1  0
 82219  1  0
 82220  1  0
 83221  1  0
 84222  1  0
 91223  1  0
 92224  1  0
 95225  1  0
 95226  1  0
 95227  1  0
 96228  1  0
 97229  1  0
 99230  1  0
100231  1  0
103232  1  0
103233  1  0
103234  1  0
104235  1  0
105236  1  0
112237  1  0
113238  1  0
116239  1  0
116240  1  0
116241  1  0
117242  1  0
118243  1  0
120244  1  0
121245  1  0
124246  1  0
124247  1  0
124248  1  0
125249  1  0
126250  1  0
133251  1  0
134252  1  0
137253  1  0
137254  1  0
137255  1  0
138256  1  0
139257  1  0
141258  1  0
142259  1  0
145260  1  0
145261  1  0
145262  1  0
146263  1  0
147264  1  0
150265  1  0
155266  1  0
161267  1  0
162268  1  0
M  END

