
     RDKit          3D

199221  0  0  0  0  0  0  0  0999 V2000
   -1.0118   -5.2014   -7.8586 C   0  0  0  0  0  0  0  0  0  0  0  0
   -0.1986   -5.9111   -7.0331 C   0  0  0  0  0  0  0  0  0  0  0  0
    0.0129   -5.6097   -5.6141 C   0  0  0  0  0  0  0  0  0  0  0  0
   -0.2078   -4.5192   -5.0370 O   0  0  0  0  0  0  0  0  0  0  0  0
    0.6455   -6.7293   -4.9759 C   0  0  0  0  0  0  0  0  0  0  0  0
    0.8730   -6.8835   -3.5890 C   0  0  0  0  0  0  0  0  0  0  0  0
    1.5198   -8.0545   -3.2630 C   0  0  0  0  0  0  0  0  0  0  0  0
    1.9663   -9.0052   -4.2401 C   0  0  0  0  0  0  0  0  0  0  0  0
    1.7286   -8.8608   -5.6003 C   0  0  0  0  0  0  0  0  0  0  0  0
    1.0106   -7.6829   -5.9611 C   0  0  0  0  0  0  0  0  0  0  0  0
    0.5367   -7.1972   -7.3018 C   0  0  0  0  0  0  0  0  0  0  0  0
    0.8005   -7.7517   -8.5110 C   0  0  0  0  0  0  0  0  0  0  0  0
    0.4692   -7.1007   -9.7545 C   0  0  0  0  0  0  0  0  0  0  0  0
    0.2300   -6.5802  -10.7616 N   0  0  0  0  0  0  0  0  0  0  0  0
    1.5989   -8.9446   -8.6745 C   0  0  0  0  0  0  0  0  0  0  0  0
    2.2558   -9.8865   -8.8094 N   0  0  0  0  0  0  0  0  0  0  0  0
    2.5676   -9.8563   -3.1587 C   0  0  0  0  0  0  0  0  0  0  0  0
    4.1190   -9.7846   -2.9771 C   0  0  0  0  0  0  0  0  0  0  0  0
    4.3970  -10.4180   -1.6395 C   0  0  0  0  0  0  0  0  0  0  0  0
    3.9300   -9.5675   -0.7112 C   0  0  0  0  0  0  0  0  0  0  0  0
    3.3644   -8.3859   -1.4579 C   0  0  0  0  0  0  0  0  0  0  0  0
    4.3623   -8.3257   -2.6061 C   0  0  0  0  0  0  0  0  0  0  0  0
    2.0710   -8.9040   -2.1586 C   0  0  0  0  0  0  0  0  0  0  0  0
   -1.6663   -3.9429   -7.4352 C   0  0  0  0  0  0  0  0  0  0  0  0
   -2.5554   -3.9289   -6.3433 C   0  0  0  0  0  0  0  0  0  0  0  0
   -3.0451   -5.0988   -5.8563 F   0  0  0  0  0  0  0  0  0  0  0  0
   -2.8080   -2.7382   -5.6476 C   0  0  0  0  0  0  0  0  0  0  0  0
   -3.4934   -2.7966   -4.4804 F   0  0  0  0  0  0  0  0  0  0  0  0
   -2.2483   -1.5235   -6.0839 C   0  0  0  0  0  0  0  0  0  0  0  0
   -1.5661   -1.5000   -7.3052 C   0  0  0  0  0  0  0  0  0  0  0  0
   -1.2589   -2.7192   -7.9801 C   0  0  0  0  0  0  0  0  0  0  0  0
   -0.5116   -2.6201   -9.1087 N   0  0  0  0  0  0  0  0  0  0  0  0
   -0.3277   -0.9799   -9.1856 S   0  0  0  0  0  0  0  0  0  0  0  0
   -1.0960   -0.3537   -7.8660 N   0  0  0  0  0  0  0  0  0  0  0  0
   -2.1358   -0.4157   -5.1217 C   0  0  0  0  0  0  0  0  0  0  0  0
   -1.1768   -0.4064   -4.0831 C   0  0  0  0  0  0  0  0  0  0  0  0
    0.1210   -1.0448   -4.1477 N   0  0  0  0  0  0  0  0  0  0  0  0
    0.8115   -1.4195   -2.9450 C   0  0  0  0  0  0  0  0  0  0  0  0
    0.5483   -2.6573   -2.3356 C   0  0  0  0  0  0  0  0  0  0  0  0
    1.3683   -3.1123   -1.2901 C   0  0  0  0  0  0  0  0  0  0  0  0
    2.4230   -2.3155   -0.8340 C   0  0  0  0  0  0  0  0  0  0  0  0
    3.5494   -2.9424    0.4140 S   0  0  0  0  0  0  0  0  0  0  0  0
    4.8300   -3.3788   -0.8143 C   0  0  0  0  0  0  0  0  0  0  0  0
    2.6424   -1.0484   -1.4019 C   0  0  0  0  0  0  0  0  0  0  0  0
    1.8585   -0.6161   -2.4684 C   0  0  0  0  0  0  0  0  0  0  0  0
    0.9431   -0.9103   -5.3249 C   0  0  0  0  0  0  0  0  0  0  0  0
    1.1264    0.3487   -5.9262 C   0  0  0  0  0  0  0  0  0  0  0  0
    2.0772    0.5109   -6.9393 C   0  0  0  0  0  0  0  0  0  0  0  0
    2.8538   -0.5826   -7.3556 C   0  0  0  0  0  0  0  0  0  0  0  0
    4.1810   -0.3497   -8.5312 S   0  0  0  0  0  0  0  0  0  0  0  0
    3.2248   -0.9335   -9.9602 C   0  0  0  0  0  0  0  0  0  0  0  0
    2.6596   -1.8334   -6.7760 C   0  0  0  0  0  0  0  0  0  0  0  0
    1.7270   -1.9911   -5.7546 C   0  0  0  0  0  0  0  0  0  0  0  0
   -1.6190    0.3691   -3.0068 C   0  0  0  0  0  0  0  0  0  0  0  0
   -1.0556    0.6954   -1.4630 S   0  0  0  0  0  0  0  0  0  0  0  0
   -2.3714    1.6826   -1.0384 C   0  0  0  0  0  0  0  0  0  0  0  0
   -3.2611    1.7826   -2.1159 C   0  0  0  0  0  0  0  0  0  0  0  0
   -4.1661    2.8839   -2.2806 N   0  0  0  0  0  0  0  0  0  0  0  0
   -5.5519    2.7943   -1.8943 C   0  0  0  0  0  0  0  0  0  0  0  0
   -6.2883    3.9667   -1.6293 C   0  0  0  0  0  0  0  0  0  0  0  0
   -7.6602    3.9045   -1.3735 C   0  0  0  0  0  0  0  0  0  0  0  0
   -8.3158    2.6669   -1.3623 C   0  0  0  0  0  0  0  0  0  0  0  0
  -10.0952    2.6064   -1.1447 S   0  0  0  0  0  0  0  0  0  0  0  0
  -10.0164    2.5808    0.6730 C   0  0  0  0  0  0  0  0  0  0  0  0
   -7.5881    1.4952   -1.5774 C   0  0  0  0  0  0  0  0  0  0  0  0
   -6.2095    1.5516   -1.8315 C   0  0  0  0  0  0  0  0  0  0  0  0
   -3.6755    4.0132   -3.0285 C   0  0  0  0  0  0  0  0  0  0  0  0
   -2.5047    4.6762   -2.6240 C   0  0  0  0  0  0  0  0  0  0  0  0
   -1.9236    5.6535   -3.4386 C   0  0  0  0  0  0  0  0  0  0  0  0
   -2.4961    5.9630   -4.6713 C   0  0  0  0  0  0  0  0  0  0  0  0
   -1.6685    7.1012   -5.7758 S   0  0  0  0  0  0  0  0  0  0  0  0
   -0.6557    5.7988   -6.5438 C   0  0  0  0  0  0  0  0  0  0  0  0
   -3.6936    5.3422   -5.0622 C   0  0  0  0  0  0  0  0  0  0  0  0
   -4.2808    4.3685   -4.2473 C   0  0  0  0  0  0  0  0  0  0  0  0
   -2.8080    1.0091   -3.1903 C   0  0  0  0  0  0  0  0  0  0  0  0
   -3.4466    0.5909   -4.6818 S   0  0  0  0  0  0  0  0  0  0  0  0
   -2.5140    2.2703    0.2886 C   0  0  0  0  0  0  0  0  0  0  0  0
   -1.4921    3.0334    0.8546 C   0  0  0  0  0  0  0  0  0  0  0  0
   -1.3639    2.8664    2.2392 C   0  0  0  0  0  0  0  0  0  0  0  0
   -0.2644    3.3024    3.0057 C   0  0  0  0  0  0  0  0  0  0  0  0
    0.7477    4.1949    2.4090 C   0  0  0  0  0  0  0  0  0  0  0  0
    1.8930    3.6552    1.7874 C   0  0  0  0  0  0  0  0  0  0  0  0
    2.7612    4.4836    1.0756 C   0  0  0  0  0  0  0  0  0  0  0  0
    2.5105    5.8546    0.9848 C   0  0  0  0  0  0  0  0  0  0  0  0
    1.3823    6.4047    1.6052 C   0  0  0  0  0  0  0  0  0  0  0  0
    1.0839    8.1676    1.5075 S   0  0  0  0  0  0  0  0  0  0  0  0
   -0.0358    8.0872    0.0612 C   0  0  0  0  0  0  0  0  0  0  0  0
   -1.4661    8.3775    0.4938 C   0  0  0  0  0  0  0  0  0  0  0  0
    0.5049    5.5741    2.3148 C   0  0  0  0  0  0  0  0  0  0  0  0
   -0.1019    2.7080    4.2666 C   0  0  0  0  0  0  0  0  0  0  0  0
   -1.0091    1.7727    4.7747 C   0  0  0  0  0  0  0  0  0  0  0  0
   -2.1815    1.4413    4.0623 C   0  0  0  0  0  0  0  0  0  0  0  0
   -3.1881    0.5088    4.6059 C   0  0  0  0  0  0  0  0  0  0  0  0
   -4.4302    1.0016    5.0185 C   0  0  0  0  0  0  0  0  0  0  0  0
   -5.3570    0.1474    5.6302 C   0  0  0  0  0  0  0  0  0  0  0  0
   -5.0551   -1.2000    5.8073 C   0  0  0  0  0  0  0  0  0  0  0  0
   -3.8324   -1.7145    5.3504 C   0  0  0  0  0  0  0  0  0  0  0  0
   -3.4591   -3.4585    5.5705 S   0  0  0  0  0  0  0  0  0  0  0  0
   -4.4461   -4.0158    4.1325 C   0  0  0  0  0  0  0  0  0  0  0  0
   -3.6421   -3.9026    2.8443 C   0  0  0  0  0  0  0  0  0  0  0  0
   -2.8979   -0.8611    4.7505 C   0  0  0  0  0  0  0  0  0  0  0  0
   -2.3117    1.9842    2.7703 C   0  0  0  0  0  0  0  0  0  0  0  0
   -3.2812    1.4197    1.5270 S   0  0  0  0  0  0  0  0  0  0  0  0
   -0.5682    1.1541    5.9503 C   0  0  0  0  0  0  0  0  0  0  0  0
    0.7029    1.5637    6.3518 C   0  0  0  0  0  0  0  0  0  0  0  0
    1.2278    2.7876    5.2964 S   0  0  0  0  0  0  0  0  0  0  0  0
    1.4103    0.9470    7.4964 C   0  0  0  0  0  0  0  0  0  0  0  0
    2.6821    1.1417    7.9042 C   0  0  0  0  0  0  0  0  0  0  0  0
    3.1135    0.7862    9.2527 C   0  0  0  0  0  0  0  0  0  0  0  0
    2.5682   -0.0719    9.9982 O   0  0  0  0  0  0  0  0  0  0  0  0
    4.2309    1.6323    9.6180 C   0  0  0  0  0  0  0  0  0  0  0  0
    4.8520    1.7312   10.8856 C   0  0  0  0  0  0  0  0  0  0  0  0
    5.8118    2.7226   10.9574 C   0  0  0  0  0  0  0  0  0  0  0  0
    6.1457    3.5734    9.8465 C   0  0  0  0  0  0  0  0  0  0  0  0
    5.5481    3.4679    8.5981 C   0  0  0  0  0  0  0  0  0  0  0  0
    4.5699    2.4442    8.5043 C   0  0  0  0  0  0  0  0  0  0  0  0
    3.7457    2.0213    7.3376 C   0  0  0  0  0  0  0  0  0  0  0  0
    4.2176    1.9381    6.0707 C   0  0  0  0  0  0  0  0  0  0  0  0
    5.2950    2.7680    5.5993 C   0  0  0  0  0  0  0  0  0  0  0  0
    6.1500    3.4528    5.2128 N   0  0  0  0  0  0  0  0  0  0  0  0
    3.7463    0.9293    5.1487 C   0  0  0  0  0  0  0  0  0  0  0  0
    3.3812    0.1205    4.4039 N   0  0  0  0  0  0  0  0  0  0  0  0
    7.1346    4.3116   10.6923 C   0  0  0  0  0  0  0  0  0  0  0  0
    8.6387    4.0031   10.4326 C   0  0  0  0  0  0  0  0  0  0  0  0
    9.3838    4.5458   11.6333 C   0  0  0  0  0  0  0  0  0  0  0  0
    9.0768    3.7423   12.6627 C   0  0  0  0  0  0  0  0  0  0  0  0
    8.1297    2.6965   12.1234 C   0  0  0  0  0  0  0  0  0  0  0  0
    8.7435    2.5167   10.7381 C   0  0  0  0  0  0  0  0  0  0  0  0
    6.7975    3.4380   11.8275 C   0  0  0  0  0  0  0  0  0  0  0  0
   -1.1826   -5.4953   -8.8798 H   0  0  0  0  0  0  0  0  0  0  0  0
    0.5592   -6.1528   -2.8520 H   0  0  0  0  0  0  0  0  0  0  0  0
    2.0535   -9.6235   -6.2873 H   0  0  0  0  0  0  0  0  0  0  0  0
    2.1209  -10.8708   -3.0948 H   0  0  0  0  0  0  0  0  0  0  0  0
    4.7128  -10.1711   -3.8312 H   0  0  0  0  0  0  0  0  0  0  0  0
    4.9089  -11.3501   -1.4481 H   0  0  0  0  0  0  0  0  0  0  0  0
    4.0259   -9.6912    0.3595 H   0  0  0  0  0  0  0  0  0  0  0  0
    3.2452   -7.4589   -0.8548 H   0  0  0  0  0  0  0  0  0  0  0  0
    5.4069   -8.1183   -2.2727 H   0  0  0  0  0  0  0  0  0  0  0  0
    4.0969   -7.5968   -3.4095 H   0  0  0  0  0  0  0  0  0  0  0  0
    1.2931   -9.3205   -1.4800 H   0  0  0  0  0  0  0  0  0  0  0  0
   -0.2609   -3.2780   -2.6884 H   0  0  0  0  0  0  0  0  0  0  0  0
    1.1901   -4.0855   -0.8573 H   0  0  0  0  0  0  0  0  0  0  0  0
    5.7590   -3.7055   -0.2976 H   0  0  0  0  0  0  0  0  0  0  0  0
    4.4725   -4.2160   -1.4466 H   0  0  0  0  0  0  0  0  0  0  0  0
    5.0568   -2.5026   -1.4654 H   0  0  0  0  0  0  0  0  0  0  0  0
    3.4586   -0.4270   -1.0573 H   0  0  0  0  0  0  0  0  0  0  0  0
    2.0746    0.3335   -2.9406 H   0  0  0  0  0  0  0  0  0  0  0  0
    0.5686    1.2077   -5.5788 H   0  0  0  0  0  0  0  0  0  0  0  0
    2.2355    1.4907   -7.3751 H   0  0  0  0  0  0  0  0  0  0  0  0
    2.8375   -1.9613   -9.7729 H   0  0  0  0  0  0  0  0  0  0  0  0
    2.3801   -0.2343  -10.1494 H   0  0  0  0  0  0  0  0  0  0  0  0
    3.8862   -0.9585  -10.8504 H   0  0  0  0  0  0  0  0  0  0  0  0
    3.2597   -2.6752   -7.1024 H   0  0  0  0  0  0  0  0  0  0  0  0
    1.6524   -2.9537   -5.2751 H   0  0  0  0  0  0  0  0  0  0  0  0
   -5.8004    4.9333   -1.6502 H   0  0  0  0  0  0  0  0  0  0  0  0
   -8.2095    4.8228   -1.1994 H   0  0  0  0  0  0  0  0  0  0  0  0
  -11.0427    2.4685    1.0800 H   0  0  0  0  0  0  0  0  0  0  0  0
   -9.4047    1.7163    1.0117 H   0  0  0  0  0  0  0  0  0  0  0  0
   -9.5831    3.5312    1.0486 H   0  0  0  0  0  0  0  0  0  0  0  0
   -8.0891    0.5363   -1.5636 H   0  0  0  0  0  0  0  0  0  0  0  0
   -5.6769    0.6325   -2.0284 H   0  0  0  0  0  0  0  0  0  0  0  0
   -2.0272    4.4185   -1.6913 H   0  0  0  0  0  0  0  0  0  0  0  0
   -1.0032    6.1321   -3.1218 H   0  0  0  0  0  0  0  0  0  0  0  0
   -0.0241    5.2951   -5.7718 H   0  0  0  0  0  0  0  0  0  0  0  0
    0.0098    6.2539   -7.3060 H   0  0  0  0  0  0  0  0  0  0  0  0
   -1.3086    5.0461   -7.0307 H   0  0  0  0  0  0  0  0  0  0  0  0
   -4.1420    5.5872   -6.0181 H   0  0  0  0  0  0  0  0  0  0  0  0
   -5.1772    3.8593   -4.5848 H   0  0  0  0  0  0  0  0  0  0  0  0
   -0.7586    3.5440    0.2467 H   0  0  0  0  0  0  0  0  0  0  0  0
    2.0896    2.5889    1.8431 H   0  0  0  0  0  0  0  0  0  0  0  0
    3.6373    4.0621    0.5867 H   0  0  0  0  0  0  0  0  0  0  0  0
    3.1908    6.4874    0.4271 H   0  0  0  0  0  0  0  0  0  0  0  0
    0.0014    7.1083   -0.4549 H   0  0  0  0  0  0  0  0  0  0  0  0
    0.2767    8.8667   -0.6640 H   0  0  0  0  0  0  0  0  0  0  0  0
   -2.1422    8.2723   -0.3853 H   0  0  0  0  0  0  0  0  0  0  0  0
   -1.7910    7.6573    1.2753 H   0  0  0  0  0  0  0  0  0  0  0  0
   -1.5395    9.4135    0.8793 H   0  0  0  0  0  0  0  0  0  0  0  0
   -0.3775    6.0041    2.7743 H   0  0  0  0  0  0  0  0  0  0  0  0
   -4.6687    2.0462    4.9118 H   0  0  0  0  0  0  0  0  0  0  0  0
   -6.3103    0.5336    5.9530 H   0  0  0  0  0  0  0  0  0  0  0  0
   -5.7754   -1.8570    6.2764 H   0  0  0  0  0  0  0  0  0  0  0  0
   -5.3897   -3.4243    4.0518 H   0  0  0  0  0  0  0  0  0  0  0  0
   -4.7336   -5.0791    4.2935 H   0  0  0  0  0  0  0  0  0  0  0  0
   -3.2847   -2.8654    2.7112 H   0  0  0  0  0  0  0  0  0  0  0  0
   -2.7792   -4.5939    2.8728 H   0  0  0  0  0  0  0  0  0  0  0  0
   -4.2849   -4.1622    1.9801 H   0  0  0  0  0  0  0  0  0  0  0  0
   -1.9451   -1.2554    4.4180 H   0  0  0  0  0  0  0  0  0  0  0  0
   -1.1176    0.3699    6.4680 H   0  0  0  0  0  0  0  0  0  0  0  0
    0.7842    0.3203    8.1197 H   0  0  0  0  0  0  0  0  0  0  0  0
    4.5802    1.1045   11.7254 H   0  0  0  0  0  0  0  0  0  0  0  0
    5.7962    4.1436    7.7933 H   0  0  0  0  0  0  0  0  0  0  0  0
    6.8810    5.3839   10.8522 H   0  0  0  0  0  0  0  0  0  0  0  0
    9.0383    4.3293    9.4495 H   0  0  0  0  0  0  0  0  0  0  0  0
   10.0938    5.3644   11.6580 H   0  0  0  0  0  0  0  0  0  0  0  0
    9.4898    3.8030   13.6588 H   0  0  0  0  0  0  0  0  0  0  0  0
    8.0513    1.7772   12.7436 H   0  0  0  0  0  0  0  0  0  0  0  0
    9.8020    2.1381   10.7585 H   0  0  0  0  0  0  0  0  0  0  0  0
    8.1468    1.8669   10.0609 H   0  0  0  0  0  0  0  0  0  0  0  0
    6.3359    3.9708   12.6916 H   0  0  0  0  0  0  0  0  0  0  0  0
  1  2  2  3
  2  3  1  0
  3  4  2  0
  3  5  1  0
  5  6  2  0
  6  7  1  0
  7  8  2  0
  8  9  1  0
  9 10  2  0
 10 11  1  0
 11 12  2  3
 12 13  1  0
 13 14  3  0
 12 15  1  0
 15 16  3  0
  8 17  1  0
 17 18  1  0
 18 19  1  0
 19 20  2  0
 20 21  1  0
 21 22  1  0
 21 23  1  0
  1 24  1  0
 24 25  2  0
 25 26  1  0
 25 27  1  0
 27 28  1  0
 27 29  2  0
 29 30  1  0
 30 31  1  0
 31 32  2  0
 32 33  1  0
 33 34  1  0
 29 35  1  0
 35 36  2  0
 36 37  1  0
 37 38  1  0
 38 39  2  0
 39 40  1  0
 40 41  2  0
 41 42  1  0
 42 43  1  0
 41 44  1  0
 44 45  2  0
 37 46  1  0
 46 47  2  0
 47 48  1  0
 48 49  2  0
 49 50  1  0
 50 51  1  0
 49 52  1  0
 52 53  2  0
 36 54  1  0
 54 55  1  0
 55 56  1  0
 56 57  2  0
 57 58  1  0
 58 59  1  0
 59 60  2  0
 60 61  1  0
 61 62  2  0
 62 63  1  0
 63 64  1  0
 62 65  1  0
 65 66  2  0
 58 67  1  0
 67 68  2  0
 68 69  1  0
 69 70  2  0
 70 71  1  0
 71 72  1  0
 70 73  1  0
 73 74  2  0
 57 75  1  0
 75 76  1  0
 56 77  1  0
 77 78  2  0
 78 79  1  0
 79 80  2  0
 80 81  1  0
 81 82  2  0
 82 83  1  0
 83 84  2  0
 84 85  1  0
 85 86  1  0
 86 87  1  0
 87 88  1  0
 85 89  2  0
 80 90  1  0
 90 91  2  0
 91 92  1  0
 92 93  1  0
 93 94  2  0
 94 95  1  0
 95 96  2  0
 96 97  1  0
 97 98  1  0
 98 99  1  0
 99100  1  0
 97101  2  0
 92102  2  0
102103  1  0
 91104  1  0
104105  2  0
105106  1  0
105107  1  0
107108  2  3
108109  1  0
109110  2  0
109111  1  0
111112  2  0
112113  1  0
113114  2  0
114115  1  0
115116  2  0
116117  1  0
117118  2  3
118119  1  0
119120  3  0
118121  1  0
121122  3  0
114123  1  0
123124  1  0
124125  1  0
125126  2  0
126127  1  0
127128  1  0
127129  1  0
 11  2  1  0
 23 17  1  0
 31 24  1  0
 76 35  1  0
103 77  1  0
117108  1  0
129123  1  0
 10  5  1  0
 22 18  1  0
 34 30  2  0
 45 38  1  0
 53 46  1  0
 75 54  2  0
102 79  1  0
116111  1  0
128124  1  0
 23  7  1  0
 66 59  1  0
 74 67  1  0
 89 81  1  0
106 90  1  0
129113  1  0
101 93  1  0
  1130  1  0
  6131  1  0
  9132  1  0
 17133  1  0
 18134  1  0
 19135  1  0
 20136  1  0
 21137  1  0
 22138  1  0
 22139  1  0
 23140  1  0
 39141  1  0
 40142  1  0
 43143  1  0
 43144  1  0
 43145  1  0
 44146  1  0
 45147  1  0
 47148  1  0
 48149  1  0
 51150  1  0
 51151  1  0
 51152  1  0
 52153  1  0
 53154  1  0
 60155  1  0
 61156  1  0
 64157  1  0
 64158  1  0
 64159  1  0
 65160  1  0
 66161  1  0
 68162  1  0
 69163  1  0
 72164  1  0
 72165  1  0
 72166  1  0
 73167  1  0
 74168  1  0
 78169  1  0
 82170  1  0
 83171  1  0
 84172  1  0
 87173  1  0
 87174  1  0
 88175  1  0
 88176  1  0
 88177  1  0
 89178  1  0
 94179  1  0
 95180  1  0
 96181  1  0
 99182  1  0
 99183  1  0
100184  1  0
100185  1  0
100186  1  0
101187  1  0
104188  1  0
107189  1  0
112190  1  0
115191  1  0
123192  1  0
124193  1  0
125194  1  0
126195  1  0
127196  1  0
128197  1  0
128198  1  0
129199  1  0
M  END

