
     RDKit          3D

188208  0  0  0  0  0  0  0  0999 V2000
   -0.4344    4.9311   -1.3184 C   0  0  0  0  0  0  0  0  0  0  0  0
   -0.6381    4.0609   -2.3222 C   0  0  0  0  0  0  0  0  0  0  0  0
   -0.0499    2.7177   -2.4073 C   0  0  0  0  0  0  0  0  0  0  0  0
    0.4589    2.0564   -1.4639 O   0  0  0  0  0  0  0  0  0  0  0  0
   -0.1354    2.2627   -3.7754 C   0  0  0  0  0  0  0  0  0  0  0  0
    0.4577    1.1025   -4.3227 C   0  0  0  0  0  0  0  0  0  0  0  0
    0.3297    1.0062   -5.6951 C   0  0  0  0  0  0  0  0  0  0  0  0
   -0.3388    1.9923   -6.4905 C   0  0  0  0  0  0  0  0  0  0  0  0
   -0.9149    3.1346   -5.9595 C   0  0  0  0  0  0  0  0  0  0  0  0
   -0.8180    3.2385   -4.5444 C   0  0  0  0  0  0  0  0  0  0  0  0
   -1.2731    4.3391   -3.6488 C   0  0  0  0  0  0  0  0  0  0  0  0
   -2.2491    5.2484   -3.9125 C   0  0  0  0  0  0  0  0  0  0  0  0
   -2.7465    6.1554   -2.9102 C   0  0  0  0  0  0  0  0  0  0  0  0
   -3.1541    6.8932   -2.1149 N   0  0  0  0  0  0  0  0  0  0  0  0
   -2.9540    5.2749   -5.1642 C   0  0  0  0  0  0  0  0  0  0  0  0
   -3.5321    5.3022   -6.1672 N   0  0  0  0  0  0  0  0  0  0  0  0
    0.0049    1.2390   -7.7411 C   0  0  0  0  0  0  0  0  0  0  0  0
    1.1421    1.8414   -8.6147 C   0  0  0  0  0  0  0  0  0  0  0  0
    1.5594    0.7423   -9.5572 C   0  0  0  0  0  0  0  0  0  0  0  0
    2.1908   -0.1785   -8.8150 C   0  0  0  0  0  0  0  0  0  0  0  0
    2.1734    0.3328   -7.3953 C   0  0  0  0  0  0  0  0  0  0  0  0
    2.3439    1.8166   -7.6814 C   0  0  0  0  0  0  0  0  0  0  0  0
    0.6927    0.2316   -6.9265 C   0  0  0  0  0  0  0  0  0  0  0  0
    0.3385    4.5796   -0.1200 C   0  0  0  0  0  0  0  0  0  0  0  0
    1.7436    4.4233   -0.0423 C   0  0  0  0  0  0  0  0  0  0  0  0
    2.6700    4.7280   -1.1179 N   0  0  0  0  0  0  0  0  0  0  0  0
    3.9684    4.1215   -1.1856 C   0  0  0  0  0  0  0  0  0  0  0  0
    5.1095    4.8831   -0.8959 C   0  0  0  0  0  0  0  0  0  0  0  0
    6.3834    4.3247   -1.0269 C   0  0  0  0  0  0  0  0  0  0  0  0
    6.5288    3.0031   -1.4638 C   0  0  0  0  0  0  0  0  0  0  0  0
    8.1687    2.3073   -1.6895 S   0  0  0  0  0  0  0  0  0  0  0  0
    8.3678    1.8311    0.0560 C   0  0  0  0  0  0  0  0  0  0  0  0
    5.3930    2.2406   -1.7660 C   0  0  0  0  0  0  0  0  0  0  0  0
    4.1144    2.7967   -1.6267 C   0  0  0  0  0  0  0  0  0  0  0  0
    2.3333    5.6538   -2.1666 C   0  0  0  0  0  0  0  0  0  0  0  0
    2.4006    5.2516   -3.5106 C   0  0  0  0  0  0  0  0  0  0  0  0
    2.0478    6.1403   -4.5276 C   0  0  0  0  0  0  0  0  0  0  0  0
    1.6153    7.4297   -4.2133 C   0  0  0  0  0  0  0  0  0  0  0  0
    1.1551    8.5647   -5.5242 S   0  0  0  0  0  0  0  0  0  0  0  0
   -0.5401    7.9132   -5.6572 C   0  0  0  0  0  0  0  0  0  0  0  0
    1.5543    7.8419   -2.8769 C   0  0  0  0  0  0  0  0  0  0  0  0
    1.9219    6.9606   -1.8566 C   0  0  0  0  0  0  0  0  0  0  0  0
    2.0813    3.7515    1.1441 C   0  0  0  0  0  0  0  0  0  0  0  0
    3.4593    2.9953    1.7253 S   0  0  0  0  0  0  0  0  0  0  0  0
    2.6872    2.0845    2.9472 C   0  0  0  0  0  0  0  0  0  0  0  0
    1.3183    2.4552    2.9375 C   0  0  0  0  0  0  0  0  0  0  0  0
    0.2774    1.8704    3.7420 N   0  0  0  0  0  0  0  0  0  0  0  0
   -0.1218    2.5160    4.9786 C   0  0  0  0  0  0  0  0  0  0  0  0
   -0.8285    1.7868    5.9551 C   0  0  0  0  0  0  0  0  0  0  0  0
   -1.2363    2.3981    7.1450 C   0  0  0  0  0  0  0  0  0  0  0  0
   -0.9370    3.7432    7.3773 C   0  0  0  0  0  0  0  0  0  0  0  0
   -1.4667    4.5373    8.8968 S   0  0  0  0  0  0  0  0  0  0  0  0
    0.0165    4.0360    9.8242 C   0  0  0  0  0  0  0  0  0  0  0  0
   -0.2411    4.4796    6.4165 C   0  0  0  0  0  0  0  0  0  0  0  0
    0.1698    3.8703    5.2264 C   0  0  0  0  0  0  0  0  0  0  0  0
   -0.6347    0.9656    3.0855 C   0  0  0  0  0  0  0  0  0  0  0  0
   -0.1572   -0.2052    2.4756 C   0  0  0  0  0  0  0  0  0  0  0  0
   -1.0392   -1.0678    1.8252 C   0  0  0  0  0  0  0  0  0  0  0  0
   -2.3947   -0.7441    1.7176 C   0  0  0  0  0  0  0  0  0  0  0  0
   -3.4959   -1.8096    0.7898 S   0  0  0  0  0  0  0  0  0  0  0  0
   -3.3606   -0.8204   -0.7327 C   0  0  0  0  0  0  0  0  0  0  0  0
   -2.8743    0.4304    2.3029 C   0  0  0  0  0  0  0  0  0  0  0  0
   -2.0029    1.2758    2.9933 C   0  0  0  0  0  0  0  0  0  0  0  0
    1.0350    3.3728    1.9206 C   0  0  0  0  0  0  0  0  0  0  0  0
   -0.4015    3.8704    1.2314 S   0  0  0  0  0  0  0  0  0  0  0  0
    3.2629    0.8518    3.5600 C   0  0  0  0  0  0  0  0  0  0  0  0
    4.0807    0.0092    2.8955 C   0  0  0  0  0  0  0  0  0  0  0  0
    3.7521   -1.3551    3.2163 C   0  0  0  0  0  0  0  0  0  0  0  0
    2.7862   -1.2581    4.2867 C   0  0  0  0  0  0  0  0  0  0  0  0
    2.2378   -2.2209    4.8855 O   0  0  0  0  0  0  0  0  0  0  0  0
    2.5533    0.1221    4.5802 N   0  0  0  0  0  0  0  0  0  0  0  0
    2.3793    0.6197    5.9459 C   0  0  0  0  0  0  0  0  0  0  0  0
    3.6170    0.3347    6.7936 C   0  0  0  0  0  0  0  0  0  0  0  0
    3.8232   -2.1361    2.1255 C   0  0  0  0  0  0  0  0  0  0  0  0
    4.3832   -1.3846    1.0375 N   0  0  0  0  0  0  0  0  0  0  0  0
    4.9764   -1.9246   -0.1849 C   0  0  0  0  0  0  0  0  0  0  0  0
    6.3993   -2.3968    0.0798 C   0  0  0  0  0  0  0  0  0  0  0  0
    4.5456   -0.0573    1.5202 C   0  0  0  0  0  0  0  0  0  0  0  0
    5.1445    0.8485    0.8882 O   0  0  0  0  0  0  0  0  0  0  0  0
    2.9238   -3.2726    1.8704 C   0  0  0  0  0  0  0  0  0  0  0  0
    1.9785   -3.1618    0.8327 C   0  0  0  0  0  0  0  0  0  0  0  0
    1.0792   -4.2073    0.6326 C   0  0  0  0  0  0  0  0  0  0  0  0
   -0.0128   -4.2103   -0.1721 N   0  0  0  0  0  0  0  0  0  0  0  0
   -0.4044   -3.1925   -1.1570 C   0  0  0  0  0  0  0  0  0  0  0  0
    0.1570   -3.5398   -2.5256 C   0  0  0  0  0  0  0  0  0  0  0  0
   -0.6621   -5.3654    0.1237 C   0  0  0  0  0  0  0  0  0  0  0  0
    0.0361   -6.1038    1.0592 C   0  0  0  0  0  0  0  0  0  0  0  0
    1.1400   -5.3512    1.4008 C   0  0  0  0  0  0  0  0  0  0  0  0
    2.0787   -5.5049    2.4226 C   0  0  0  0  0  0  0  0  0  0  0  0
    2.9750   -4.4457    2.6610 C   0  0  0  0  0  0  0  0  0  0  0  0
   -0.4716   -7.2848    1.6000 C   0  0  0  0  0  0  0  0  0  0  0  0
   -1.7829   -7.6535    1.2478 C   0  0  0  0  0  0  0  0  0  0  0  0
   -2.5700   -6.8015    0.4354 C   0  0  0  0  0  0  0  0  0  0  0  0
   -1.9704   -5.7057   -0.2174 C   0  0  0  0  0  0  0  0  0  0  0  0
   -4.0453   -6.8241    0.4992 C   0  0  0  0  0  0  0  0  0  0  0  0
   -4.6871   -6.3657    1.5986 C   0  0  0  0  0  0  0  0  0  0  0  0
   -4.0486   -6.1588    2.9067 C   0  0  0  0  0  0  0  0  0  0  0  0
   -3.2809   -6.9679    3.4966 O   0  0  0  0  0  0  0  0  0  0  0  0
   -4.5126   -4.9165    3.4726 C   0  0  0  0  0  0  0  0  0  0  0  0
   -3.9492   -4.2272    4.5691 C   0  0  0  0  0  0  0  0  0  0  0  0
   -4.4595   -2.9602    4.7499 C   0  0  0  0  0  0  0  0  0  0  0  0
   -5.4715   -2.3934    3.9096 C   0  0  0  0  0  0  0  0  0  0  0  0
   -6.0411   -3.0728    2.8409 C   0  0  0  0  0  0  0  0  0  0  0  0
   -5.5312   -4.3893    2.6422 C   0  0  0  0  0  0  0  0  0  0  0  0
   -5.7899   -5.3559    1.5384 C   0  0  0  0  0  0  0  0  0  0  0  0
   -6.8809   -5.4090    0.7431 C   0  0  0  0  0  0  0  0  0  0  0  0
   -7.0968   -6.5050   -0.1690 C   0  0  0  0  0  0  0  0  0  0  0  0
   -7.2746   -7.3798   -0.9068 N   0  0  0  0  0  0  0  0  0  0  0  0
   -7.9572   -4.4550    0.8449 C   0  0  0  0  0  0  0  0  0  0  0  0
   -8.8234   -3.6894    0.9183 N   0  0  0  0  0  0  0  0  0  0  0  0
   -5.4083   -1.1047    4.6813 C   0  0  0  0  0  0  0  0  0  0  0  0
   -6.5654   -0.7801    5.6709 C   0  0  0  0  0  0  0  0  0  0  0  0
   -7.1526   -2.0664    6.2091 C   0  0  0  0  0  0  0  0  0  0  0  0
   -6.2209   -2.6105    6.9899 C   0  0  0  0  0  0  0  0  0  0  0  0
   -5.0306   -1.6813    6.9586 C   0  0  0  0  0  0  0  0  0  0  0  0
   -5.7638   -0.3564    6.8892 C   0  0  0  0  0  0  0  0  0  0  0  0
   -4.3766   -1.6933    5.5449 C   0  0  0  0  0  0  0  0  0  0  0  0
   -0.7703    5.9533   -1.3866 H   0  0  0  0  0  0  0  0  0  0  0  0
    1.0206    0.3882   -3.7359 H   0  0  0  0  0  0  0  0  0  0  0  0
   -1.3344    3.8925   -6.6032 H   0  0  0  0  0  0  0  0  0  0  0  0
   -0.8837    0.8632   -8.2918 H   0  0  0  0  0  0  0  0  0  0  0  0
    0.9199    2.8174   -9.0892 H   0  0  0  0  0  0  0  0  0  0  0  0
    1.4542    0.7254  -10.6410 H   0  0  0  0  0  0  0  0  0  0  0  0
    2.6911   -1.0621   -9.1921 H   0  0  0  0  0  0  0  0  0  0  0  0
    2.9260   -0.1248   -6.7179 H   0  0  0  0  0  0  0  0  0  0  0  0
    3.3060    2.0604   -8.1920 H   0  0  0  0  0  0  0  0  0  0  0  0
    2.2413    2.4655   -6.7856 H   0  0  0  0  0  0  0  0  0  0  0  0
    0.2416   -0.7838   -6.9645 H   0  0  0  0  0  0  0  0  0  0  0  0
    5.0046    5.9103   -0.5736 H   0  0  0  0  0  0  0  0  0  0  0  0
    7.2533    4.9236   -0.8014 H   0  0  0  0  0  0  0  0  0  0  0  0
    9.3381    1.3172    0.1877 H   0  0  0  0  0  0  0  0  0  0  0  0
    7.5624    1.1325    0.3547 H   0  0  0  0  0  0  0  0  0  0  0  0
    8.3415    2.7308    0.7071 H   0  0  0  0  0  0  0  0  0  0  0  0
    5.4968    1.2250   -2.1226 H   0  0  0  0  0  0  0  0  0  0  0  0
    3.2429    2.2075   -1.8808 H   0  0  0  0  0  0  0  0  0  0  0  0
    2.7056    4.2439   -3.7649 H   0  0  0  0  0  0  0  0  0  0  0  0
    2.0907    5.8164   -5.5614 H   0  0  0  0  0  0  0  0  0  0  0  0
   -0.5129    6.8395   -5.9370 H   0  0  0  0  0  0  0  0  0  0  0  0
   -1.0850    8.4730   -6.4429 H   0  0  0  0  0  0  0  0  0  0  0  0
   -1.0719    8.0358   -4.6892 H   0  0  0  0  0  0  0  0  0  0  0  0
    1.2255    8.8443   -2.6260 H   0  0  0  0  0  0  0  0  0  0  0  0
    1.8799    7.2864   -0.8249 H   0  0  0  0  0  0  0  0  0  0  0  0
   -1.0643    0.7394    5.8003 H   0  0  0  0  0  0  0  0  0  0  0  0
   -1.7821    1.8263    7.8865 H   0  0  0  0  0  0  0  0  0  0  0  0
   -0.0191    4.4940   10.8355 H   0  0  0  0  0  0  0  0  0  0  0  0
    0.9401    4.3744    9.3079 H   0  0  0  0  0  0  0  0  0  0  0  0
    0.0308    2.9299    9.9343 H   0  0  0  0  0  0  0  0  0  0  0  0
   -0.0164    5.5242    6.5862 H   0  0  0  0  0  0  0  0  0  0  0  0
    0.6946    4.4730    4.4989 H   0  0  0  0  0  0  0  0  0  0  0  0
    0.8921   -0.4452    2.4975 H   0  0  0  0  0  0  0  0  0  0  0  0
   -0.6674   -1.9863    1.4025 H   0  0  0  0  0  0  0  0  0  0  0  0
   -3.8656   -1.3567   -1.5614 H   0  0  0  0  0  0  0  0  0  0  0  0
   -2.2949   -0.6666   -1.0049 H   0  0  0  0  0  0  0  0  0  0  0  0
   -3.8492    0.1639   -0.5887 H   0  0  0  0  0  0  0  0  0  0  0  0
   -3.9162    0.7029    2.2023 H   0  0  0  0  0  0  0  0  0  0  0  0
   -2.3865    2.1921    3.4169 H   0  0  0  0  0  0  0  0  0  0  0  0
    2.2297    1.7176    5.9313 H   0  0  0  0  0  0  0  0  0  0  0  0
    1.4907    0.1388    6.4084 H   0  0  0  0  0  0  0  0  0  0  0  0
    3.8005   -0.7571    6.8665 H   0  0  0  0  0  0  0  0  0  0  0  0
    4.5002    0.8299    6.3397 H   0  0  0  0  0  0  0  0  0  0  0  0
    3.4650    0.7379    7.8190 H   0  0  0  0  0  0  0  0  0  0  0  0
    4.3710   -2.7777   -0.5588 H   0  0  0  0  0  0  0  0  0  0  0  0
    4.9855   -1.1407   -0.9719 H   0  0  0  0  0  0  0  0  0  0  0  0
    6.3888   -3.2369    0.8055 H   0  0  0  0  0  0  0  0  0  0  0  0
    7.0174   -1.5668    0.4809 H   0  0  0  0  0  0  0  0  0  0  0  0
    6.8505   -2.7555   -0.8673 H   0  0  0  0  0  0  0  0  0  0  0  0
    1.9135   -2.2540    0.2499 H   0  0  0  0  0  0  0  0  0  0  0  0
   -1.5104   -3.1240   -1.2209 H   0  0  0  0  0  0  0  0  0  0  0  0
   -0.0386   -2.1899   -0.8606 H   0  0  0  0  0  0  0  0  0  0  0  0
    1.2679   -3.5671   -2.4919 H   0  0  0  0  0  0  0  0  0  0  0  0
   -0.2209   -4.5286   -2.8606 H   0  0  0  0  0  0  0  0  0  0  0  0
   -0.1574   -2.7701   -3.2655 H   0  0  0  0  0  0  0  0  0  0  0  0
    2.0905   -6.3897    3.0437 H   0  0  0  0  0  0  0  0  0  0  0  0
    3.7007   -4.5310    3.4603 H   0  0  0  0  0  0  0  0  0  0  0  0
    0.0864   -7.8593    2.3300 H   0  0  0  0  0  0  0  0  0  0  0  0
   -2.2314   -8.5221    1.7139 H   0  0  0  0  0  0  0  0  0  0  0  0
   -2.5714   -5.0517   -0.8358 H   0  0  0  0  0  0  0  0  0  0  0  0
   -4.5301   -6.7237   -0.4616 H   0  0  0  0  0  0  0  0  0  0  0  0
   -3.1421   -4.6259    5.1704 H   0  0  0  0  0  0  0  0  0  0  0  0
   -6.7457   -2.5873    2.1815 H   0  0  0  0  0  0  0  0  0  0  0  0
   -5.0504   -0.2405    4.0904 H   0  0  0  0  0  0  0  0  0  0  0  0
   -7.3039   -0.0386    5.3041 H   0  0  0  0  0  0  0  0  0  0  0  0
   -8.1572   -2.4411    6.0574 H   0  0  0  0  0  0  0  0  0  0  0  0
   -6.3434   -3.5085    7.5846 H   0  0  0  0  0  0  0  0  0  0  0  0
   -4.3206   -1.7912    7.8073 H   0  0  0  0  0  0  0  0  0  0  0  0
   -6.3936   -0.1492    7.7860 H   0  0  0  0  0  0  0  0  0  0  0  0
   -5.0937    0.5149    6.7013 H   0  0  0  0  0  0  0  0  0  0  0  0
   -3.3918   -1.1823    5.4739 H   0  0  0  0  0  0  0  0  0  0  0  0
  1  2  2  3
  2  3  1  0
  3  4  2  0
  3  5  1  0
  5  6  2  0
  6  7  1  0
  7  8  2  0
  8  9  1  0
  9 10  2  0
 10 11  1  0
 11 12  2  3
 12 13  1  0
 13 14  3  0
 12 15  1  0
 15 16  3  0
  8 17  1  0
 17 18  1  0
 18 19  1  0
 19 20  2  0
 20 21  1  0
 21 22  1  0
 21 23  1  0
  1 24  1  0
 24 25  2  0
 25 26  1  0
 26 27  1  0
 27 28  2  0
 28 29  1  0
 29 30  2  0
 30 31  1  0
 31 32  1  0
 30 33  1  0
 33 34  2  0
 26 35  1  0
 35 36  2  0
 36 37  1  0
 37 38  2  0
 38 39  1  0
 39 40  1  0
 38 41  1  0
 41 42  2  0
 25 43  1  0
 43 44  1  0
 44 45  1  0
 45 46  2  0
 46 47  1  0
 47 48  1  0
 48 49  2  0
 49 50  1  0
 50 51  2  0
 51 52  1  0
 52 53  1  0
 51 54  1  0
 54 55  2  0
 47 56  1  0
 56 57  2  0
 57 58  1  0
 58 59  2  0
 59 60  1  0
 60 61  1  0
 59 62  1  0
 62 63  2  0
 46 64  1  0
 64 65  1  0
 45 66  1  0
 66 67  2  0
 67 68  1  0
 68 69  1  0
 69 70  2  0
 69 71  1  0
 71 72  1  0
 72 73  1  0
 68 74  2  0
 74 75  1  0
 75 76  1  0
 76 77  1  0
 75 78  1  0
 78 79  2  0
 74 80  1  0
 80 81  2  0
 81 82  1  0
 82 83  1  0
 83 84  1  0
 84 85  1  0
 83 86  1  0
 86 87  2  0
 87 88  1  0
 88 89  1  0
 89 90  2  0
 87 91  1  0
 91 92  2  0
 92 93  1  0
 93 94  2  0
 93 95  1  0
 95 96  2  3
 96 97  1  0
 97 98  2  0
 97 99  1  0
 99100  2  0
100101  1  0
101102  2  0
102103  1  0
103104  2  0
104105  1  0
105106  2  3
106107  1  0
107108  3  0
106109  1  0
109110  3  0
102111  1  0
111112  1  0
112113  1  0
113114  2  0
114115  1  0
115116  1  0
115117  1  0
 11  2  1  0
 23 17  1  0
 65 24  1  0
 71 66  1  0
 90 80  1  0
105 96  1  0
117111  1  0
 10  5  1  0
 22 18  1  0
 34 27  1  0
 42 35  1  0
 64 43  2  0
 78 67  1  0
 88 82  2  0
104 99  1  0
116112  1  0
 23  7  1  0
 55 48  1  0
 63 56  1  0
 94 86  1  0
117101  1  0
  1118  1  0
  6119  1  0
  9120  1  0
 17121  1  0
 18122  1  0
 19123  1  0
 20124  1  0
 21125  1  0
 22126  1  0
 22127  1  0
 23128  1  0
 28129  1  0
 29130  1  0
 32131  1  0
 32132  1  0
 32133  1  0
 33134  1  0
 34135  1  0
 36136  1  0
 37137  1  0
 40138  1  0
 40139  1  0
 40140  1  0
 41141  1  0
 42142  1  0
 49143  1  0
 50144  1  0
 53145  1  0
 53146  1  0
 53147  1  0
 54148  1  0
 55149  1  0
 57150  1  0
 58151  1  0
 61152  1  0
 61153  1  0
 61154  1  0
 62155  1  0
 63156  1  0
 72157  1  0
 72158  1  0
 73159  1  0
 73160  1  0
 73161  1  0
 76162  1  0
 76163  1  0
 77164  1  0
 77165  1  0
 77166  1  0
 81167  1  0
 84168  1  0
 84169  1  0
 85170  1  0
 85171  1  0
 85172  1  0
 89173  1  0
 90174  1  0
 91175  1  0
 92176  1  0
 94177  1  0
 95178  1  0
100179  1  0
103180  1  0
111181  1  0
112182  1  0
113183  1  0
114184  1  0
115185  1  0
116186  1  0
116187  1  0
117188  1  0
M  END

