
     RDKit          3D

240263  0  0  0  0  0  0  0  0999 V2000
   -2.3717   -7.4397    1.4814 C   0  0  0  0  0  0  0  0  0  0  0  0
   -3.1842   -7.6336    0.4255 C   0  0  0  0  0  0  0  0  0  0  0  0
   -3.0634   -6.9237   -0.8554 C   0  0  0  0  0  0  0  0  0  0  0  0
   -2.0359   -6.3424   -1.2902 O   0  0  0  0  0  0  0  0  0  0  0  0
   -4.3300   -6.9814   -1.5420 C   0  0  0  0  0  0  0  0  0  0  0  0
   -4.6921   -6.2771   -2.7107 C   0  0  0  0  0  0  0  0  0  0  0  0
   -6.0351   -6.3667   -3.0210 C   0  0  0  0  0  0  0  0  0  0  0  0
   -6.9764   -7.1016   -2.2300 C   0  0  0  0  0  0  0  0  0  0  0  0
   -6.6195   -7.8081   -1.0913 C   0  0  0  0  0  0  0  0  0  0  0  0
   -5.2333   -7.7611   -0.7728 C   0  0  0  0  0  0  0  0  0  0  0  0
   -4.5125   -8.3215    0.4102 C   0  0  0  0  0  0  0  0  0  0  0  0
   -4.9129   -9.3581    1.1901 C   0  0  0  0  0  0  0  0  0  0  0  0
   -4.0683   -9.9318    2.2079 C   0  0  0  0  0  0  0  0  0  0  0  0
   -3.4006  -10.4010    3.0295 N   0  0  0  0  0  0  0  0  0  0  0  0
   -6.1599  -10.0401    0.9697 C   0  0  0  0  0  0  0  0  0  0  0  0
   -7.1613  -10.6000    0.8136 N   0  0  0  0  0  0  0  0  0  0  0  0
   -8.0972   -6.6406   -3.1089 C   0  0  0  0  0  0  0  0  0  0  0  0
   -9.0148   -5.5191   -2.5379 C   0  0  0  0  0  0  0  0  0  0  0  0
   -9.7769   -4.9683   -3.7217 C   0  0  0  0  0  0  0  0  0  0  0  0
   -8.8936   -4.2961   -4.4677 C   0  0  0  0  0  0  0  0  0  0  0  0
   -7.5638   -4.4152   -3.7598 C   0  0  0  0  0  0  0  0  0  0  0  0
   -8.0567   -4.3582   -2.3234 C   0  0  0  0  0  0  0  0  0  0  0  0
   -7.1296   -5.8998   -3.9253 C   0  0  0  0  0  0  0  0  0  0  0  0
   -1.4155   -6.3233    1.5047 C   0  0  0  0  0  0  0  0  0  0  0  0
   -0.0186   -6.3950    1.5876 C   0  0  0  0  0  0  0  0  0  0  0  0
    0.6920   -7.5501    2.0535 N   0  0  0  0  0  0  0  0  0  0  0  0
    1.5592   -8.3110    1.1775 C   0  0  0  0  0  0  0  0  0  0  0  0
    1.5217   -8.1210   -0.2169 C   0  0  0  0  0  0  0  0  0  0  0  0
    2.3509   -8.8615   -1.0620 C   0  0  0  0  0  0  0  0  0  0  0  0
    3.2245   -9.8141   -0.5316 C   0  0  0  0  0  0  0  0  0  0  0  0
    4.2280  -10.8229   -1.6242 S   0  0  0  0  0  0  0  0  0  0  0  0
    5.6730   -9.7193   -1.5371 C   0  0  0  0  0  0  0  0  0  0  0  0
    3.2779  -10.0089    0.8485 C   0  0  0  0  0  0  0  0  0  0  0  0
    2.4643   -9.2591    1.7008 C   0  0  0  0  0  0  0  0  0  0  0  0
    0.4756   -7.9126    3.4288 C   0  0  0  0  0  0  0  0  0  0  0  0
   -0.1246   -9.1366    3.7624 C   0  0  0  0  0  0  0  0  0  0  0  0
   -0.4891   -9.4034    5.0894 C   0  0  0  0  0  0  0  0  0  0  0  0
   -0.2560   -8.4460    6.0879 C   0  0  0  0  0  0  0  0  0  0  0  0
   -0.7921   -8.7442    7.7725 S   0  0  0  0  0  0  0  0  0  0  0  0
   -2.4239   -7.9650    7.5253 C   0  0  0  0  0  0  0  0  0  0  0  0
    0.3753   -7.2441    5.7609 C   0  0  0  0  0  0  0  0  0  0  0  0
    0.7345   -6.9760    4.4414 C   0  0  0  0  0  0  0  0  0  0  0  0
    0.5532   -5.1262    1.4877 C   0  0  0  0  0  0  0  0  0  0  0  0
    2.1202   -4.5227    1.5699 S   0  0  0  0  0  0  0  0  0  0  0  0
    1.6245   -2.8937    1.4800 C   0  0  0  0  0  0  0  0  0  0  0  0
    0.2140   -2.8168    1.4496 C   0  0  0  0  0  0  0  0  0  0  0  0
   -0.5678   -1.6214    1.7105 N   0  0  0  0  0  0  0  0  0  0  0  0
   -1.8642   -1.4773    1.1053 C   0  0  0  0  0  0  0  0  0  0  0  0
   -3.0249   -1.7430    1.8566 C   0  0  0  0  0  0  0  0  0  0  0  0
   -4.2805   -1.7170    1.2438 C   0  0  0  0  0  0  0  0  0  0  0  0
   -4.3889   -1.3921   -0.1127 C   0  0  0  0  0  0  0  0  0  0  0  0
   -5.9838   -1.4514   -0.9259 S   0  0  0  0  0  0  0  0  0  0  0  0
   -6.4183    0.2531   -0.4741 C   0  0  0  0  0  0  0  0  0  0  0  0
   -3.2422   -1.0415   -0.8430 C   0  0  0  0  0  0  0  0  0  0  0  0
   -1.9867   -1.0689   -0.2268 C   0  0  0  0  0  0  0  0  0  0  0  0
   -0.3166   -0.8276    2.8882 C   0  0  0  0  0  0  0  0  0  0  0  0
    0.0681   -1.4344    4.0979 C   0  0  0  0  0  0  0  0  0  0  0  0
    0.2370   -0.6637    5.2521 C   0  0  0  0  0  0  0  0  0  0  0  0
   -0.0148    0.7111    5.2211 C   0  0  0  0  0  0  0  0  0  0  0  0
    0.1193    1.6843    6.7225 S   0  0  0  0  0  0  0  0  0  0  0  0
   -1.5551    1.2550    7.2914 C   0  0  0  0  0  0  0  0  0  0  0  0
   -0.3902    1.3219    4.0216 C   0  0  0  0  0  0  0  0  0  0  0  0
   -0.5396    0.5577    2.8616 C   0  0  0  0  0  0  0  0  0  0  0  0
   -0.3319   -4.0985    1.4054 C   0  0  0  0  0  0  0  0  0  0  0  0
   -1.8927   -4.7013    1.4060 S   0  0  0  0  0  0  0  0  0  0  0  0
    2.5351   -1.7553    1.3092 C   0  0  0  0  0  0  0  0  0  0  0  0
    2.7112   -1.0614    0.0882 C   0  0  0  0  0  0  0  0  0  0  0  0
    2.7546   -1.6474   -1.2357 N   0  0  0  0  0  0  0  0  0  0  0  0
    2.1248   -2.8947   -1.5616 C   0  0  0  0  0  0  0  0  0  0  0  0
    2.8984   -4.0604   -1.6818 C   0  0  0  0  0  0  0  0  0  0  0  0
    2.3420   -5.2241   -2.2213 C   0  0  0  0  0  0  0  0  0  0  0  0
    1.0090   -5.2260   -2.6544 C   0  0  0  0  0  0  0  0  0  0  0  0
    0.3288   -6.6670   -3.4830 S   0  0  0  0  0  0  0  0  0  0  0  0
    0.8466   -6.1133   -5.1396 C   0  0  0  0  0  0  0  0  0  0  0  0
    0.2250   -4.0778   -2.5018 C   0  0  0  0  0  0  0  0  0  0  0  0
    0.7867   -2.9134   -1.9727 C   0  0  0  0  0  0  0  0  0  0  0  0
    3.6596   -1.1001   -2.2105 C   0  0  0  0  0  0  0  0  0  0  0  0
    5.0067   -0.8693   -1.8816 C   0  0  0  0  0  0  0  0  0  0  0  0
    5.8753   -0.2984   -2.8170 C   0  0  0  0  0  0  0  0  0  0  0  0
    5.4131    0.0327   -4.0932 C   0  0  0  0  0  0  0  0  0  0  0  0
    6.5246    0.7943   -5.2807 S   0  0  0  0  0  0  0  0  0  0  0  0
    7.1342   -0.7989   -5.9146 C   0  0  0  0  0  0  0  0  0  0  0  0
    4.0783   -0.2123   -4.4354 C   0  0  0  0  0  0  0  0  0  0  0  0
    3.2056   -0.7832   -3.4989 C   0  0  0  0  0  0  0  0  0  0  0  0
    2.9824    0.2887    0.3178 C   0  0  0  0  0  0  0  0  0  0  0  0
    2.6926    1.6404   -0.6114 S   0  0  0  0  0  0  0  0  0  0  0  0
    2.6966    2.7581    0.6815 C   0  0  0  0  0  0  0  0  0  0  0  0
    3.0019    2.0413    1.8654 C   0  0  0  0  0  0  0  0  0  0  0  0
    3.2950    2.6147    3.1638 N   0  0  0  0  0  0  0  0  0  0  0  0
    4.1654    1.8792    4.0464 C   0  0  0  0  0  0  0  0  0  0  0  0
    3.7341    1.5069    5.3264 C   0  0  0  0  0  0  0  0  0  0  0  0
    4.5671    0.7427    6.1514 C   0  0  0  0  0  0  0  0  0  0  0  0
    5.8378    0.3601    5.7025 C   0  0  0  0  0  0  0  0  0  0  0  0
    6.8933   -0.6693    6.7245 S   0  0  0  0  0  0  0  0  0  0  0  0
    6.1414   -2.2271    6.1561 C   0  0  0  0  0  0  0  0  0  0  0  0
    6.2851    0.7610    4.4384 C   0  0  0  0  0  0  0  0  0  0  0  0
    5.4565    1.5218    3.6162 C   0  0  0  0  0  0  0  0  0  0  0  0
    3.2608    4.0298    3.3889 C   0  0  0  0  0  0  0  0  0  0  0  0
    2.3260    4.5719    4.2799 C   0  0  0  0  0  0  0  0  0  0  0  0
    2.4564    5.8957    4.7178 C   0  0  0  0  0  0  0  0  0  0  0  0
    3.5279    6.6784    4.2624 C   0  0  0  0  0  0  0  0  0  0  0  0
    3.8099    8.3075    4.9554 S   0  0  0  0  0  0  0  0  0  0  0  0
    4.9897    7.7022    6.2036 C   0  0  0  0  0  0  0  0  0  0  0  0
    4.4226    6.1601    3.3190 C   0  0  0  0  0  0  0  0  0  0  0  0
    4.3023    4.8350    2.9040 C   0  0  0  0  0  0  0  0  0  0  0  0
    3.0997    0.6657    1.6117 C   0  0  0  0  0  0  0  0  0  0  0  0
    2.8419   -0.6717    2.5890 S   0  0  0  0  0  0  0  0  0  0  0  0
    1.7315    3.8672    0.6081 C   0  0  0  0  0  0  0  0  0  0  0  0
    2.0156    5.2376    0.5450 C   0  0  0  0  0  0  0  0  0  0  0  0
    0.9177    6.0000    0.0898 C   0  0  0  0  0  0  0  0  0  0  0  0
    0.8945    7.3923   -0.1360 C   0  0  0  0  0  0  0  0  0  0  0  0
    1.9281    8.2890    0.4035 C   0  0  0  0  0  0  0  0  0  0  0  0
    1.6959    8.9163    1.6336 C   0  0  0  0  0  0  0  0  0  0  0  0
    2.5996    9.8552    2.1246 C   0  0  0  0  0  0  0  0  0  0  0  0
    2.3269   10.4752    3.3042 F   0  0  0  0  0  0  0  0  0  0  0  0
    3.7720   10.1608    1.4081 C   0  0  0  0  0  0  0  0  0  0  0  0
    4.7535   11.1671    1.9595 C   0  0  0  0  0  0  0  0  0  0  0  0
    4.2673   12.5937    1.7139 C   0  0  0  0  0  0  0  0  0  0  0  0
    3.9926    9.5423    0.1605 C   0  0  0  0  0  0  0  0  0  0  0  0
    5.0926    9.8503   -0.5781 F   0  0  0  0  0  0  0  0  0  0  0  0
    3.0743    8.6152   -0.3421 C   0  0  0  0  0  0  0  0  0  0  0  0
   -0.2433    7.9143   -0.7738 C   0  0  0  0  0  0  0  0  0  0  0  0
   -1.3430    7.1246   -1.1235 C   0  0  0  0  0  0  0  0  0  0  0  0
   -1.3438    5.7448   -0.8534 C   0  0  0  0  0  0  0  0  0  0  0  0
   -2.3779    4.8585   -1.4187 C   0  0  0  0  0  0  0  0  0  0  0  0
   -3.5352    4.5532   -0.6962 C   0  0  0  0  0  0  0  0  0  0  0  0
   -4.5686    3.8243   -1.2995 C   0  0  0  0  0  0  0  0  0  0  0  0
   -4.4547    3.4047   -2.6471 C   0  0  0  0  0  0  0  0  0  0  0  0
   -5.6202    2.7403   -3.3494 C   0  0  0  0  0  0  0  0  0  0  0  0
   -5.2826    1.3384   -3.8604 C   0  0  0  0  0  0  0  0  0  0  0  0
   -3.2797    3.7170   -3.3618 C   0  0  0  0  0  0  0  0  0  0  0  0
   -2.2437    4.4225   -2.7405 C   0  0  0  0  0  0  0  0  0  0  0  0
   -3.1484    3.3837   -4.6706 F   0  0  0  0  0  0  0  0  0  0  0  0
   -5.6955    3.5783   -0.5864 F   0  0  0  0  0  0  0  0  0  0  0  0
   -0.1977    5.2206   -0.2360 C   0  0  0  0  0  0  0  0  0  0  0  0
    0.1475    3.6158    0.0751 S   0  0  0  0  0  0  0  0  0  0  0  0
   -2.3637    7.8372   -1.7664 C   0  0  0  0  0  0  0  0  0  0  0  0
   -2.0271    9.1673   -1.9858 C   0  0  0  0  0  0  0  0  0  0  0  0
   -0.5130    9.4940   -1.3037 S   0  0  0  0  0  0  0  0  0  0  0  0
   -2.9140   10.1507   -2.6184 C   0  0  0  0  0  0  0  0  0  0  0  0
   -2.5416   11.0139   -3.5820 C   0  0  0  0  0  0  0  0  0  0  0  0
   -3.2952   12.2476   -3.8532 C   0  0  0  0  0  0  0  0  0  0  0  0
   -4.4531   12.5383   -3.4482 O   0  0  0  0  0  0  0  0  0  0  0  0
   -2.4437   13.0828   -4.6643 C   0  0  0  0  0  0  0  0  0  0  0  0
   -2.6613   14.4779   -5.5730 S   0  0  0  0  0  0  0  0  0  0  0  0
   -1.1696   14.2943   -6.3657 C   0  0  0  0  0  0  0  0  0  0  0  0
   -0.5240   15.4684   -7.7289 Br  0  0  0  0  0  0  0  0  0  0  0  0
   -0.5410   13.1112   -5.9626 C   0  0  0  0  0  0  0  0  0  0  0  0
   -1.2872   12.4457   -4.9771 C   0  0  0  0  0  0  0  0  0  0  0  0
   -1.2859   11.0759   -4.4017 C   0  0  0  0  0  0  0  0  0  0  0  0
   -0.5155   10.0502   -4.8309 C   0  0  0  0  0  0  0  0  0  0  0  0
   -0.9226    8.6753   -4.7083 C   0  0  0  0  0  0  0  0  0  0  0  0
   -1.2470    7.5659   -4.6386 N   0  0  0  0  0  0  0  0  0  0  0  0
    0.7088   10.2736   -5.5590 C   0  0  0  0  0  0  0  0  0  0  0  0
    1.7011   10.4456   -6.1291 N   0  0  0  0  0  0  0  0  0  0  0  0
   -2.5408   -7.9325    2.4198 H   0  0  0  0  0  0  0  0  0  0  0  0
   -4.0068   -5.6573   -3.2667 H   0  0  0  0  0  0  0  0  0  0  0  0
   -7.3684   -8.2874   -0.4820 H   0  0  0  0  0  0  0  0  0  0  0  0
   -8.6172   -7.4711   -3.6334 H   0  0  0  0  0  0  0  0  0  0  0  0
   -9.6369   -5.8069   -1.6656 H   0  0  0  0  0  0  0  0  0  0  0  0
  -10.8468   -5.0104   -3.8962 H   0  0  0  0  0  0  0  0  0  0  0  0
   -9.1207   -3.7039   -5.3463 H   0  0  0  0  0  0  0  0  0  0  0  0
   -6.8044   -3.6552   -4.0465 H   0  0  0  0  0  0  0  0  0  0  0  0
   -7.2633   -4.5534   -1.5666 H   0  0  0  0  0  0  0  0  0  0  0  0
   -8.5763   -3.3969   -2.0740 H   0  0  0  0  0  0  0  0  0  0  0  0
   -7.0273   -6.2654   -4.9722 H   0  0  0  0  0  0  0  0  0  0  0  0
    0.8363   -7.4102   -0.6552 H   0  0  0  0  0  0  0  0  0  0  0  0
    2.3076   -8.7031   -2.1319 H   0  0  0  0  0  0  0  0  0  0  0  0
    6.4687  -10.1246   -2.1964 H   0  0  0  0  0  0  0  0  0  0  0  0
    5.4017   -8.6997   -1.8881 H   0  0  0  0  0  0  0  0  0  0  0  0
    6.0540   -9.6754   -0.4940 H   0  0  0  0  0  0  0  0  0  0  0  0
    3.9519  -10.7417    1.2682 H   0  0  0  0  0  0  0  0  0  0  0  0
    2.5395   -9.4218    2.7660 H   0  0  0  0  0  0  0  0  0  0  0  0
   -0.3461   -9.8663    2.9903 H   0  0  0  0  0  0  0  0  0  0  0  0
   -0.9742  -10.3393    5.3345 H   0  0  0  0  0  0  0  0  0  0  0  0
   -2.9611   -7.9198    8.4961 H   0  0  0  0  0  0  0  0  0  0  0  0
   -2.3091   -6.9301    7.1375 H   0  0  0  0  0  0  0  0  0  0  0  0
   -3.0253   -8.5687    6.8126 H   0  0  0  0  0  0  0  0  0  0  0  0
    0.5586   -6.5011    6.5268 H   0  0  0  0  0  0  0  0  0  0  0  0
    1.1942   -6.0280    4.2047 H   0  0  0  0  0  0  0  0  0  0  0  0
   -2.9470   -2.0267    2.8986 H   0  0  0  0  0  0  0  0  0  0  0  0
   -5.1626   -1.9781    1.8164 H   0  0  0  0  0  0  0  0  0  0  0  0
   -7.3849    0.5167   -0.9457 H   0  0  0  0  0  0  0  0  0  0  0  0
   -6.5138    0.3435    0.6235 H   0  0  0  0  0  0  0  0  0  0  0  0
   -5.6367    0.9516   -0.8236 H   0  0  0  0  0  0  0  0  0  0  0  0
   -3.3210   -0.7606   -1.8852 H   0  0  0  0  0  0  0  0  0  0  0  0
   -1.1146   -0.7420   -0.7739 H   0  0  0  0  0  0  0  0  0  0  0  0
    0.2296   -2.5031    4.1547 H   0  0  0  0  0  0  0  0  0  0  0  0
    0.5280   -1.1429    6.1791 H   0  0  0  0  0  0  0  0  0  0  0  0
   -1.6082    0.1674    7.5094 H   0  0  0  0  0  0  0  0  0  0  0  0
   -1.7828    1.8197    8.2184 H   0  0  0  0  0  0  0  0  0  0  0  0
   -2.3069    1.5142    6.5185 H   0  0  0  0  0  0  0  0  0  0  0  0
   -0.5858    2.3857    3.9907 H   0  0  0  0  0  0  0  0  0  0  0  0
   -0.8454    1.0437    1.9445 H   0  0  0  0  0  0  0  0  0  0  0  0
    3.9413   -4.0514   -1.3917 H   0  0  0  0  0  0  0  0  0  0  0  0
    2.9539   -6.1057   -2.3410 H   0  0  0  0  0  0  0  0  0  0  0  0
    0.5144   -6.8577   -5.8912 H   0  0  0  0  0  0  0  0  0  0  0  0
    0.3885   -5.1313   -5.3802 H   0  0  0  0  0  0  0  0  0  0  0  0
    1.9540   -6.0300   -5.1825 H   0  0  0  0  0  0  0  0  0  0  0  0
   -0.7985   -4.0665   -2.8467 H   0  0  0  0  0  0  0  0  0  0  0  0
    0.2130   -2.0053   -1.9626 H   0  0  0  0  0  0  0  0  0  0  0  0
    5.3780   -1.1276   -0.8993 H   0  0  0  0  0  0  0  0  0  0  0  0
    6.9060   -0.1214   -2.5495 H   0  0  0  0  0  0  0  0  0  0  0  0
    7.9021   -0.6100   -6.6904 H   0  0  0  0  0  0  0  0  0  0  0  0
    7.5960   -1.3856   -5.0942 H   0  0  0  0  0  0  0  0  0  0  0  0
    6.3019   -1.3739   -6.3691 H   0  0  0  0  0  0  0  0  0  0  0  0
    3.7114    0.0512   -5.4172 H   0  0  0  0  0  0  0  0  0  0  0  0
    2.1703   -0.9450   -3.7704 H   0  0  0  0  0  0  0  0  0  0  0  0
    2.7526    1.7985    5.6734 H   0  0  0  0  0  0  0  0  0  0  0  0
    4.2158    0.4293    7.1297 H   0  0  0  0  0  0  0  0  0  0  0  0
    5.9829   -2.2144    5.0565 H   0  0  0  0  0  0  0  0  0  0  0  0
    5.1756   -2.3744    6.6794 H   0  0  0  0  0  0  0  0  0  0  0  0
    6.8136   -3.0692    6.4150 H   0  0  0  0  0  0  0  0  0  0  0  0
    7.2742    0.4830    4.0948 H   0  0  0  0  0  0  0  0  0  0  0  0
    5.8037    1.8251    2.6352 H   0  0  0  0  0  0  0  0  0  0  0  0
    1.5371    3.9553    4.6845 H   0  0  0  0  0  0  0  0  0  0  0  0
    1.7630    6.2942    5.4464 H   0  0  0  0  0  0  0  0  0  0  0  0
    5.3791    8.5659    6.7800 H   0  0  0  0  0  0  0  0  0  0  0  0
    4.4834    6.9998    6.9004 H   0  0  0  0  0  0  0  0  0  0  0  0
    5.8452    7.1916    5.7095 H   0  0  0  0  0  0  0  0  0  0  0  0
    5.2380    6.7697    2.9492 H   0  0  0  0  0  0  0  0  0  0  0  0
    5.0405    4.4180    2.2320 H   0  0  0  0  0  0  0  0  0  0  0  0
    2.9953    5.6544    0.7149 H   0  0  0  0  0  0  0  0  0  0  0  0
    0.7947    8.6943    2.1939 H   0  0  0  0  0  0  0  0  0  0  0  0
    5.7564   11.0411    1.4994 H   0  0  0  0  0  0  0  0  0  0  0  0
    4.8811   11.0112    3.0544 H   0  0  0  0  0  0  0  0  0  0  0  0
    3.3076   12.7766    2.2420 H   0  0  0  0  0  0  0  0  0  0  0  0
    5.0225   13.3147    2.1001 H   0  0  0  0  0  0  0  0  0  0  0  0
    4.1254   12.7757    0.6267 H   0  0  0  0  0  0  0  0  0  0  0  0
    3.2440    8.1584   -1.3140 H   0  0  0  0  0  0  0  0  0  0  0  0
   -3.6512    4.9127    0.3192 H   0  0  0  0  0  0  0  0  0  0  0  0
   -5.9343    3.3699   -4.2084 H   0  0  0  0  0  0  0  0  0  0  0  0
   -6.4980    2.6544   -2.6773 H   0  0  0  0  0  0  0  0  0  0  0  0
   -4.8920    0.7023   -3.0396 H   0  0  0  0  0  0  0  0  0  0  0  0
   -4.5270    1.3760   -4.6718 H   0  0  0  0  0  0  0  0  0  0  0  0
   -6.1971    0.8663   -4.2771 H   0  0  0  0  0  0  0  0  0  0  0  0
   -1.3529    4.6642   -3.3080 H   0  0  0  0  0  0  0  0  0  0  0  0
   -3.2939    7.3913   -2.1007 H   0  0  0  0  0  0  0  0  0  0  0  0
   -3.8893   10.2700   -2.1662 H   0  0  0  0  0  0  0  0  0  0  0  0
    0.3611   12.7414   -6.4203 H   0  0  0  0  0  0  0  0  0  0  0  0
  1  2  2  3
  2  3  1  0
  3  4  2  0
  3  5  1  0
  5  6  2  0
  6  7  1  0
  7  8  2  0
  8  9  1  0
  9 10  2  0
 10 11  1  0
 11 12  2  3
 12 13  1  0
 13 14  3  0
 12 15  1  0
 15 16  3  0
  8 17  1  0
 17 18  1  0
 18 19  1  0
 19 20  2  0
 20 21  1  0
 21 22  1  0
 21 23  1  0
  1 24  1  0
 24 25  2  0
 25 26  1  0
 26 27  1  0
 27 28  2  0
 28 29  1  0
 29 30  2  0
 30 31  1  0
 31 32  1  0
 30 33  1  0
 33 34  2  0
 26 35  1  0
 35 36  2  0
 36 37  1  0
 37 38  2  0
 38 39  1  0
 39 40  1  0
 38 41  1  0
 41 42  2  0
 25 43  1  0
 43 44  1  0
 44 45  1  0
 45 46  2  0
 46 47  1  0
 47 48  1  0
 48 49  2  0
 49 50  1  0
 50 51  2  0
 51 52  1  0
 52 53  1  0
 51 54  1  0
 54 55  2  0
 47 56  1  0
 56 57  2  0
 57 58  1  0
 58 59  2  0
 59 60  1  0
 60 61  1  0
 59 62  1  0
 62 63  2  0
 46 64  1  0
 64 65  1  0
 45 66  1  0
 66 67  2  0
 67 68  1  0
 68 69  1  0
 69 70  2  0
 70 71  1  0
 71 72  2  0
 72 73  1  0
 73 74  1  0
 72 75  1  0
 75 76  2  0
 68 77  1  0
 77 78  2  0
 78 79  1  0
 79 80  2  0
 80 81  1  0
 81 82  1  0
 80 83  1  0
 83 84  2  0
 67 85  1  0
 85 86  1  0
 86 87  1  0
 87 88  2  0
 88 89  1  0
 89 90  1  0
 90 91  2  0
 91 92  1  0
 92 93  2  0
 93 94  1  0
 94 95  1  0
 93 96  1  0
 96 97  2  0
 89 98  1  0
 98 99  2  0
 99100  1  0
100101  2  0
101102  1  0
102103  1  0
101104  1  0
104105  2  0
 88106  1  0
106107  1  0
 87108  1  0
108109  2  0
109110  1  0
110111  2  0
111112  1  0
112113  2  0
113114  1  0
114115  1  0
114116  2  0
116117  1  0
117118  1  0
116119  1  0
119120  1  0
119121  2  0
111122  1  0
122123  2  0
123124  1  0
124125  1  0
125126  2  0
126127  1  0
127128  2  0
128129  1  0
129130  1  0
128131  1  0
131132  2  0
131133  1  0
127134  1  0
124135  2  0
135136  1  0
123137  1  0
137138  2  0
138139  1  0
138140  1  0
140141  2  3
141142  1  0
142143  2  0
142144  1  0
144145  1  0
145146  1  0
146147  1  0
146148  2  0
148149  1  0
149150  1  0
150151  2  3
151152  1  0
152153  3  0
151154  1  0
154155  3  0
 11  2  1  0
 23 17  1  0
 65 24  1  0
107 66  1  0
136108  1  0
150141  1  0
 10  5  1  0
 22 18  1  0
 34 27  1  0
 42 35  1  0
 64 43  2  0
 76 69  1  0
 84 77  1  0
106 85  2  0
135110  1  0
149144  2  0
 23  7  1  0
 55 48  1  0
 63 56  1  0
 97 90  1  0
105 98  1  0
121112  1  0
139122  1  0
132125  1  0
  1156  1  0
  6157  1  0
  9158  1  0
 17159  1  0
 18160  1  0
 19161  1  0
 20162  1  0
 21163  1  0
 22164  1  0
 22165  1  0
 23166  1  0
 28167  1  0
 29168  1  0
 32169  1  0
 32170  1  0
 32171  1  0
 33172  1  0
 34173  1  0
 36174  1  0
 37175  1  0
 40176  1  0
 40177  1  0
 40178  1  0
 41179  1  0
 42180  1  0
 49181  1  0
 50182  1  0
 53183  1  0
 53184  1  0
 53185  1  0
 54186  1  0
 55187  1  0
 57188  1  0
 58189  1  0
 61190  1  0
 61191  1  0
 61192  1  0
 62193  1  0
 63194  1  0
 70195  1  0
 71196  1  0
 74197  1  0
 74198  1  0
 74199  1  0
 75200  1  0
 76201  1  0
 78202  1  0
 79203  1  0
 82204  1  0
 82205  1  0
 82206  1  0
 83207  1  0
 84208  1  0
 91209  1  0
 92210  1  0
 95211  1  0
 95212  1  0
 95213  1  0
 96214  1  0
 97215  1  0
 99216  1  0
100217  1  0
103218  1  0
103219  1  0
103220  1  0
104221  1  0
105222  1  0
109223  1  0
113224  1  0
117225  1  0
117226  1  0
118227  1  0
118228  1  0
118229  1  0
121230  1  0
126231  1  0
129232  1  0
129233  1  0
130234  1  0
130235  1  0
130236  1  0
132237  1  0
137238  1  0
140239  1  0
148240  1  0
M  END

