
     RDKit          3D

250276  0  0  0  0  0  0  0  0999 V2000
   -3.7554   -6.7753    5.2974 C   0  0  0  0  0  0  0  0  0  0  0  0
   -4.5666   -5.8086    5.8020 C   0  0  0  0  0  0  0  0  0  0  0  0
   -4.9482   -4.5815    5.0814 C   0  0  0  0  0  0  0  0  0  0  0  0
   -4.4307   -4.1319    4.0282 O   0  0  0  0  0  0  0  0  0  0  0  0
   -6.0841   -3.9886    5.7291 C   0  0  0  0  0  0  0  0  0  0  0  0
   -6.8374   -2.9017    5.2367 C   0  0  0  0  0  0  0  0  0  0  0  0
   -7.9607   -2.6224    5.9801 C   0  0  0  0  0  0  0  0  0  0  0  0
   -8.3292   -3.3603    7.1473 C   0  0  0  0  0  0  0  0  0  0  0  0
   -7.5803   -4.4217    7.6414 C   0  0  0  0  0  0  0  0  0  0  0  0
   -6.4198   -4.7427    6.8792 C   0  0  0  0  0  0  0  0  0  0  0  0
   -5.4432   -5.8704    7.0227 C   0  0  0  0  0  0  0  0  0  0  0  0
   -5.2929   -6.6944    8.0944 C   0  0  0  0  0  0  0  0  0  0  0  0
   -4.2299   -7.6628    8.1881 C   0  0  0  0  0  0  0  0  0  0  0  0
   -3.3816   -8.4466    8.2716 N   0  0  0  0  0  0  0  0  0  0  0  0
   -6.1231   -6.5998    9.2654 C   0  0  0  0  0  0  0  0  0  0  0  0
   -6.7715   -6.5398   10.2200 N   0  0  0  0  0  0  0  0  0  0  0  0
   -9.5564   -2.5097    7.3120 C   0  0  0  0  0  0  0  0  0  0  0  0
   -9.5159   -1.4414    8.4413 C   0  0  0  0  0  0  0  0  0  0  0  0
  -10.6501   -0.4842    8.1397 C   0  0  0  0  0  0  0  0  0  0  0  0
  -10.2921    0.2065    7.0518 C   0  0  0  0  0  0  0  0  0  0  0  0
   -8.9342   -0.3134    6.6473 C   0  0  0  0  0  0  0  0  0  0  0  0
   -8.3505   -0.5551    8.0309 C   0  0  0  0  0  0  0  0  0  0  0  0
   -9.1718   -1.7555    6.1124 C   0  0  0  0  0  0  0  0  0  0  0  0
   -3.1011   -6.6267    3.9912 C   0  0  0  0  0  0  0  0  0  0  0  0
   -3.7467   -6.8513    2.7651 C   0  0  0  0  0  0  0  0  0  0  0  0
   -4.7624   -7.8499    2.5471 N   0  0  0  0  0  0  0  0  0  0  0  0
   -5.9480   -7.8771    3.3620 C   0  0  0  0  0  0  0  0  0  0  0  0
   -6.7800   -6.7475    3.4504 C   0  0  0  0  0  0  0  0  0  0  0  0
   -7.9665   -6.8002    4.1905 C   0  0  0  0  0  0  0  0  0  0  0  0
   -8.3414   -7.9877    4.8330 C   0  0  0  0  0  0  0  0  0  0  0  0
   -9.9144   -8.0998    5.6860 S   0  0  0  0  0  0  0  0  0  0  0  0
   -9.2025   -7.8231    7.3323 C   0  0  0  0  0  0  0  0  0  0  0  0
   -7.5043   -9.1091    4.7651 C   0  0  0  0  0  0  0  0  0  0  0  0
   -6.3101   -9.0502    4.0449 C   0  0  0  0  0  0  0  0  0  0  0  0
   -4.4868   -8.9427    1.6399 C   0  0  0  0  0  0  0  0  0  0  0  0
   -3.1734   -9.4446    1.5031 C   0  0  0  0  0  0  0  0  0  0  0  0
   -2.9104  -10.5116    0.6465 C   0  0  0  0  0  0  0  0  0  0  0  0
   -3.9474  -11.1075   -0.0829 C   0  0  0  0  0  0  0  0  0  0  0  0
   -3.5961  -12.4815   -1.1796 S   0  0  0  0  0  0  0  0  0  0  0  0
   -3.7469  -13.7348    0.1319 C   0  0  0  0  0  0  0  0  0  0  0  0
   -5.2546  -10.6182    0.0470 C   0  0  0  0  0  0  0  0  0  0  0  0
   -5.5227   -9.5433    0.9019 C   0  0  0  0  0  0  0  0  0  0  0  0
   -3.1791   -6.0946    1.7429 C   0  0  0  0  0  0  0  0  0  0  0  0
   -3.8459   -5.4922    0.3271 S   0  0  0  0  0  0  0  0  0  0  0  0
   -2.6914   -4.2582    0.1392 C   0  0  0  0  0  0  0  0  0  0  0  0
   -1.7731   -4.3138    1.2109 C   0  0  0  0  0  0  0  0  0  0  0  0
   -0.6827   -3.3753    1.3888 N   0  0  0  0  0  0  0  0  0  0  0  0
    0.1190   -2.9585    0.2556 C   0  0  0  0  0  0  0  0  0  0  0  0
    0.4257   -3.8598   -0.7805 C   0  0  0  0  0  0  0  0  0  0  0  0
    1.1800   -3.4471   -1.8843 C   0  0  0  0  0  0  0  0  0  0  0  0
    1.6596   -2.1367   -1.9540 C   0  0  0  0  0  0  0  0  0  0  0  0
    2.6325   -1.6102   -3.3660 S   0  0  0  0  0  0  0  0  0  0  0  0
    4.1925   -2.2470   -2.6753 C   0  0  0  0  0  0  0  0  0  0  0  0
    1.3787   -1.2365   -0.9241 C   0  0  0  0  0  0  0  0  0  0  0  0
    0.6024   -1.6402    0.1716 C   0  0  0  0  0  0  0  0  0  0  0  0
   -0.2824   -2.9573    2.7058 C   0  0  0  0  0  0  0  0  0  0  0  0
   -1.1854   -2.2993    3.5552 C   0  0  0  0  0  0  0  0  0  0  0  0
   -0.7882   -1.9026    4.8388 C   0  0  0  0  0  0  0  0  0  0  0  0
    0.5169   -2.1576    5.2764 C   0  0  0  0  0  0  0  0  0  0  0  0
    1.0351   -1.6533    6.9196 S   0  0  0  0  0  0  0  0  0  0  0  0
    0.6730   -3.2755    7.6733 C   0  0  0  0  0  0  0  0  0  0  0  0
    1.4277   -2.7972    4.4288 C   0  0  0  0  0  0  0  0  0  0  0  0
    1.0282   -3.1985    3.1484 C   0  0  0  0  0  0  0  0  0  0  0  0
   -2.1043   -5.3388    2.1019 C   0  0  0  0  0  0  0  0  0  0  0  0
   -1.8008   -5.5573    3.7396 S   0  0  0  0  0  0  0  0  0  0  0  0
   -2.9850   -3.0107   -0.5667 C   0  0  0  0  0  0  0  0  0  0  0  0
   -2.3814   -2.6232   -1.7568 C   0  0  0  0  0  0  0  0  0  0  0  0
   -2.2777   -1.2172   -1.9089 C   0  0  0  0  0  0  0  0  0  0  0  0
   -1.5314   -0.5064   -2.8909 C   0  0  0  0  0  0  0  0  0  0  0  0
   -1.1397   -1.0707   -4.2285 C   0  0  0  0  0  0  0  0  0  0  0  0
   -0.7594   -0.3344   -5.3667 C   0  0  0  0  0  0  0  0  0  0  0  0
   -0.5348   -1.0988   -6.5170 C   0  0  0  0  0  0  0  0  0  0  0  0
   -0.0701   -0.3710   -8.0482 Cl  0  0  0  0  0  0  0  0  0  0  0  0
   -0.7712   -2.4549   -6.3402 C   0  0  0  0  0  0  0  0  0  0  0  0
   -0.8047   -3.5089   -7.4004 C   0  0  0  0  0  0  0  0  0  0  0  0
   -2.1441   -3.4991   -8.1330 C   0  0  0  0  0  0  0  0  0  0  0  0
   -1.2635   -2.6744   -4.7516 S   0  0  0  0  0  0  0  0  0  0  0  0
   -1.1808    0.8165   -2.5252 C   0  0  0  0  0  0  0  0  0  0  0  0
   -1.6762    1.4691   -1.3877 C   0  0  0  0  0  0  0  0  0  0  0  0
   -2.5937    0.8185   -0.5485 C   0  0  0  0  0  0  0  0  0  0  0  0
   -3.2102    1.4633    0.6239 C   0  0  0  0  0  0  0  0  0  0  0  0
   -2.5515    2.0128    1.7228 C   0  0  0  0  0  0  0  0  0  0  0  0
   -3.4262    2.4740    2.7174 C   0  0  0  0  0  0  0  0  0  0  0  0
   -4.7685    2.2760    2.4037 C   0  0  0  0  0  0  0  0  0  0  0  0
   -5.9344    2.6037    3.2805 C   0  0  0  0  0  0  0  0  0  0  0  0
   -6.9177    3.5301    2.5706 C   0  0  0  0  0  0  0  0  0  0  0  0
   -4.8698    1.5177    0.9073 S   0  0  0  0  0  0  0  0  0  0  0  0
   -2.8377   -0.5339   -0.8143 C   0  0  0  0  0  0  0  0  0  0  0  0
   -3.4470   -1.6356    0.2866 S   0  0  0  0  0  0  0  0  0  0  0  0
   -1.0767    2.7227   -1.1456 C   0  0  0  0  0  0  0  0  0  0  0  0
   -0.0771    3.0375   -2.0606 C   0  0  0  0  0  0  0  0  0  0  0  0
    0.0391    1.7715   -3.1549 S   0  0  0  0  0  0  0  0  0  0  0  0
    0.9968    4.0233   -1.8750 C   0  0  0  0  0  0  0  0  0  0  0  0
    2.0082    4.2429   -2.8220 C   0  0  0  0  0  0  0  0  0  0  0  0
    1.8201    4.1402   -4.2416 N   0  0  0  0  0  0  0  0  0  0  0  0
    2.7161    3.3600   -5.0590 C   0  0  0  0  0  0  0  0  0  0  0  0
    3.0883    3.8092   -6.3373 C   0  0  0  0  0  0  0  0  0  0  0  0
    3.9487    3.0482   -7.1341 C   0  0  0  0  0  0  0  0  0  0  0  0
    4.4266    1.8165   -6.6684 C   0  0  0  0  0  0  0  0  0  0  0  0
    5.4549    0.8024   -7.7274 S   0  0  0  0  0  0  0  0  0  0  0  0
    4.0209    0.0612   -8.5734 C   0  0  0  0  0  0  0  0  0  0  0  0
    4.0803    1.3685   -5.3912 C   0  0  0  0  0  0  0  0  0  0  0  0
    3.2478    2.1444   -4.5813 C   0  0  0  0  0  0  0  0  0  0  0  0
    0.7714    4.9280   -4.8316 C   0  0  0  0  0  0  0  0  0  0  0  0
   -0.2575    4.3120   -5.5590 C   0  0  0  0  0  0  0  0  0  0  0  0
   -1.3631    5.0585   -5.9802 C   0  0  0  0  0  0  0  0  0  0  0  0
   -1.4315    6.4279   -5.7073 C   0  0  0  0  0  0  0  0  0  0  0  0
   -2.8810    7.3659   -6.1773 S   0  0  0  0  0  0  0  0  0  0  0  0
   -3.6773    7.1788   -4.5489 C   0  0  0  0  0  0  0  0  0  0  0  0
   -0.3754    7.0611   -5.0386 C   0  0  0  0  0  0  0  0  0  0  0  0
    0.7143    6.3118   -4.5908 C   0  0  0  0  0  0  0  0  0  0  0  0
    3.1387    4.7701   -2.2385 C   0  0  0  0  0  0  0  0  0  0  0  0
    4.6667    5.1117   -2.7974 S   0  0  0  0  0  0  0  0  0  0  0  0
    5.2563    5.5736   -1.2642 C   0  0  0  0  0  0  0  0  0  0  0  0
    4.2024    5.5579   -0.3275 C   0  0  0  0  0  0  0  0  0  0  0  0
    4.1752    6.3393    0.8802 N   0  0  0  0  0  0  0  0  0  0  0  0
    4.7626    5.8971    2.1296 C   0  0  0  0  0  0  0  0  0  0  0  0
    4.3907    6.4862    3.3615 C   0  0  0  0  0  0  0  0  0  0  0  0
    4.9631    6.0574    4.5598 C   0  0  0  0  0  0  0  0  0  0  0  0
    5.9138    5.0356    4.5607 C   0  0  0  0  0  0  0  0  0  0  0  0
    6.6892    4.5185    6.0899 S   0  0  0  0  0  0  0  0  0  0  0  0
    8.0207    5.7494    5.9466 C   0  0  0  0  0  0  0  0  0  0  0  0
    6.2837    4.4318    3.3565 C   0  0  0  0  0  0  0  0  0  0  0  0
    5.7149    4.8651    2.1524 C   0  0  0  0  0  0  0  0  0  0  0  0
    3.4693    7.5860    0.7977 C   0  0  0  0  0  0  0  0  0  0  0  0
    4.0935    8.7043    0.2255 C   0  0  0  0  0  0  0  0  0  0  0  0
    3.3832    9.8948    0.0525 C   0  0  0  0  0  0  0  0  0  0  0  0
    2.0437    9.9774    0.4502 C   0  0  0  0  0  0  0  0  0  0  0  0
    1.1248   11.5066    0.2170 S   0  0  0  0  0  0  0  0  0  0  0  0
    1.6207   12.1868    1.8333 C   0  0  0  0  0  0  0  0  0  0  0  0
    1.4168    8.8636    1.0190 C   0  0  0  0  0  0  0  0  0  0  0  0
    2.1281    7.6717    1.1912 C   0  0  0  0  0  0  0  0  0  0  0  0
    3.0472    5.0385   -0.9136 C   0  0  0  0  0  0  0  0  0  0  0  0
    1.5339    4.5794   -0.3498 S   0  0  0  0  0  0  0  0  0  0  0  0
    6.6561    5.9478   -1.0110 C   0  0  0  0  0  0  0  0  0  0  0  0
    7.6860    5.3738   -1.6602 C   0  0  0  0  0  0  0  0  0  0  0  0
    8.9090    6.1102   -1.9922 C   0  0  0  0  0  0  0  0  0  0  0  0
    9.3553    7.1154   -1.3763 O   0  0  0  0  0  0  0  0  0  0  0  0
    9.4259    5.6018   -3.2536 C   0  0  0  0  0  0  0  0  0  0  0  0
   10.4329    6.1579   -4.0784 C   0  0  0  0  0  0  0  0  0  0  0  0
   10.5268    5.5684   -5.3257 C   0  0  0  0  0  0  0  0  0  0  0  0
    9.6721    4.4947   -5.7466 C   0  0  0  0  0  0  0  0  0  0  0  0
    8.7038    3.9334   -4.9444 C   0  0  0  0  0  0  0  0  0  0  0  0
    8.6213    4.5048   -3.6510 C   0  0  0  0  0  0  0  0  0  0  0  0
    7.6469    4.1998   -2.5833 C   0  0  0  0  0  0  0  0  0  0  0  0
    7.1174    2.9762   -2.3354 C   0  0  0  0  0  0  0  0  0  0  0  0
    7.3805    1.8408   -3.1807 C   0  0  0  0  0  0  0  0  0  0  0  0
    7.5974    0.9189   -3.8462 N   0  0  0  0  0  0  0  0  0  0  0  0
    6.3955    2.6789   -1.1235 C   0  0  0  0  0  0  0  0  0  0  0  0
    5.8074    2.3993   -0.1628 N   0  0  0  0  0  0  0  0  0  0  0  0
   10.3105    4.4917   -7.1013 C   0  0  0  0  0  0  0  0  0  0  0  0
   11.2747    3.3076   -7.4018 C   0  0  0  0  0  0  0  0  0  0  0  0
   12.0683    3.7200   -8.6154 C   0  0  0  0  0  0  0  0  0  0  0  0
   12.8875    4.7045   -8.2198 C   0  0  0  0  0  0  0  0  0  0  0  0
   12.6191    4.9204   -6.7489 C   0  0  0  0  0  0  0  0  0  0  0  0
   12.3575    3.4765   -6.3487 C   0  0  0  0  0  0  0  0  0  0  0  0
   11.2037    5.5723   -6.6659 C   0  0  0  0  0  0  0  0  0  0  0  0
   -3.6693   -7.7388    5.7663 H   0  0  0  0  0  0  0  0  0  0  0  0
   -6.5876   -2.3627    4.3356 H   0  0  0  0  0  0  0  0  0  0  0  0
   -7.9205   -4.9590    8.5065 H   0  0  0  0  0  0  0  0  0  0  0  0
  -10.5113   -3.0732    7.2119 H   0  0  0  0  0  0  0  0  0  0  0  0
   -9.4915   -1.8362    9.4784 H   0  0  0  0  0  0  0  0  0  0  0  0
  -11.5551   -0.3353    8.7270 H   0  0  0  0  0  0  0  0  0  0  0  0
  -10.8480    1.0180    6.6002 H   0  0  0  0  0  0  0  0  0  0  0  0
   -8.3475    0.3553    5.9857 H   0  0  0  0  0  0  0  0  0  0  0  0
   -7.3671   -1.0716    8.0252 H   0  0  0  0  0  0  0  0  0  0  0  0
   -8.2642    0.3745    8.6461 H   0  0  0  0  0  0  0  0  0  0  0  0
   -9.8809   -1.8416    5.2597 H   0  0  0  0  0  0  0  0  0  0  0  0
   -6.5181   -5.8364    2.9324 H   0  0  0  0  0  0  0  0  0  0  0  0
   -8.6054   -5.9259    4.2423 H   0  0  0  0  0  0  0  0  0  0  0  0
   -8.5845   -6.9102    7.3211 H   0  0  0  0  0  0  0  0  0  0  0  0
   -8.5768   -8.6886    7.6318 H   0  0  0  0  0  0  0  0  0  0  0  0
  -10.0220   -7.6964    8.0688 H   0  0  0  0  0  0  0  0  0  0  0  0
   -7.7855  -10.0298    5.2601 H   0  0  0  0  0  0  0  0  0  0  0  0
   -5.6718   -9.9238    4.0078 H   0  0  0  0  0  0  0  0  0  0  0  0
   -2.3538   -9.0281    2.0714 H   0  0  0  0  0  0  0  0  0  0  0  0
   -1.8986  -10.8886    0.5594 H   0  0  0  0  0  0  0  0  0  0  0  0
   -3.1120  -13.4672    1.0016 H   0  0  0  0  0  0  0  0  0  0  0  0
   -4.8071  -13.8209    0.4480 H   0  0  0  0  0  0  0  0  0  0  0  0
   -3.4112  -14.7120   -0.2674 H   0  0  0  0  0  0  0  0  0  0  0  0
   -6.0630  -11.0678   -0.5150 H   0  0  0  0  0  0  0  0  0  0  0  0
   -6.5382   -9.1741    0.9850 H   0  0  0  0  0  0  0  0  0  0  0  0
    0.0762   -4.8815   -0.7387 H   0  0  0  0  0  0  0  0  0  0  0  0
    1.3908   -4.1513   -2.6795 H   0  0  0  0  0  0  0  0  0  0  0  0
    5.0286   -2.0036   -3.3675 H   0  0  0  0  0  0  0  0  0  0  0  0
    4.1333   -3.3514   -2.5674 H   0  0  0  0  0  0  0  0  0  0  0  0
    4.3878   -1.7822   -1.6861 H   0  0  0  0  0  0  0  0  0  0  0  0
    1.7480   -0.2179   -0.9705 H   0  0  0  0  0  0  0  0  0  0  0  0
    0.3741   -0.9157    0.9465 H   0  0  0  0  0  0  0  0  0  0  0  0
   -2.1944   -2.0990    3.2207 H   0  0  0  0  0  0  0  0  0  0  0  0
   -1.4940   -1.3934    5.4832 H   0  0  0  0  0  0  0  0  0  0  0  0
    1.0017   -3.2662    8.7339 H   0  0  0  0  0  0  0  0  0  0  0  0
   -0.4183   -3.4792    7.6292 H   0  0  0  0  0  0  0  0  0  0  0  0
    1.2268   -4.0774    7.1409 H   0  0  0  0  0  0  0  0  0  0  0  0
    2.4418   -2.9881    4.7551 H   0  0  0  0  0  0  0  0  0  0  0  0
    1.7372   -3.7077    2.5071 H   0  0  0  0  0  0  0  0  0  0  0  0
   -1.8719   -3.3535   -2.3580 H   0  0  0  0  0  0  0  0  0  0  0  0
   -0.7045    0.7389   -5.4128 H   0  0  0  0  0  0  0  0  0  0  0  0
    0.0218   -3.3415   -8.1229 H   0  0  0  0  0  0  0  0  0  0  0  0
   -0.6551   -4.5071   -6.9321 H   0  0  0  0  0  0  0  0  0  0  0  0
   -2.9656   -3.7523   -7.4276 H   0  0  0  0  0  0  0  0  0  0  0  0
   -2.3380   -2.5008   -8.5767 H   0  0  0  0  0  0  0  0  0  0  0  0
   -2.1264   -4.2478   -8.9505 H   0  0  0  0  0  0  0  0  0  0  0  0
   -1.4730    2.0594    1.8165 H   0  0  0  0  0  0  0  0  0  0  0  0
   -3.0878    2.9277    3.6403 H   0  0  0  0  0  0  0  0  0  0  0  0
   -6.4522    1.6592    3.5608 H   0  0  0  0  0  0  0  0  0  0  0  0
   -5.5818    3.0991    4.2105 H   0  0  0  0  0  0  0  0  0  0  0  0
   -7.3540    3.0269    1.6782 H   0  0  0  0  0  0  0  0  0  0  0  0
   -6.4105    4.4636    2.2517 H   0  0  0  0  0  0  0  0  0  0  0  0
   -7.7435    3.7946    3.2616 H   0  0  0  0  0  0  0  0  0  0  0  0
   -1.2908    3.3463   -0.2832 H   0  0  0  0  0  0  0  0  0  0  0  0
    2.7225    4.7545   -6.7191 H   0  0  0  0  0  0  0  0  0  0  0  0
    4.2242    3.4030   -8.1201 H   0  0  0  0  0  0  0  0  0  0  0  0
    4.3767   -0.7119   -9.2823 H   0  0  0  0  0  0  0  0  0  0  0  0
    3.3357   -0.4095   -7.8376 H   0  0  0  0  0  0  0  0  0  0  0  0
    3.4775    0.8484   -9.1414 H   0  0  0  0  0  0  0  0  0  0  0  0
    4.4543    0.4240   -5.0194 H   0  0  0  0  0  0  0  0  0  0  0  0
    2.9979    1.7895   -3.5914 H   0  0  0  0  0  0  0  0  0  0  0  0
   -0.2249    3.2509   -5.7592 H   0  0  0  0  0  0  0  0  0  0  0  0
   -2.1740    4.5640   -6.5006 H   0  0  0  0  0  0  0  0  0  0  0  0
   -3.7535    6.1050   -4.2797 H   0  0  0  0  0  0  0  0  0  0  0  0
   -3.0860    7.7179   -3.7793 H   0  0  0  0  0  0  0  0  0  0  0  0
   -4.6980    7.6134   -4.5872 H   0  0  0  0  0  0  0  0  0  0  0  0
   -0.4161    8.1243   -4.8280 H   0  0  0  0  0  0  0  0  0  0  0  0
    1.5096    6.8016   -4.0365 H   0  0  0  0  0  0  0  0  0  0  0  0
    3.6638    7.2810    3.3999 H   0  0  0  0  0  0  0  0  0  0  0  0
    4.6708    6.5302    5.4876 H   0  0  0  0  0  0  0  0  0  0  0  0
    8.5701    5.6059    4.9921 H   0  0  0  0  0  0  0  0  0  0  0  0
    8.7266    5.6267    6.7930 H   0  0  0  0  0  0  0  0  0  0  0  0
    7.5964    6.7742    5.9853 H   0  0  0  0  0  0  0  0  0  0  0  0
    7.0265    3.6431    3.3422 H   0  0  0  0  0  0  0  0  0  0  0  0
    6.0607    4.4215    1.2327 H   0  0  0  0  0  0  0  0  0  0  0  0
    5.1242    8.6447   -0.1025 H   0  0  0  0  0  0  0  0  0  0  0  0
    3.8714   10.7475   -0.4081 H   0  0  0  0  0  0  0  0  0  0  0  0
    2.7200   12.3389    1.8638 H   0  0  0  0  0  0  0  0  0  0  0  0
    1.1120   13.1614    1.9828 H   0  0  0  0  0  0  0  0  0  0  0  0
    1.3147   11.4968    2.6472 H   0  0  0  0  0  0  0  0  0  0  0  0
    0.3789    8.9136    1.3230 H   0  0  0  0  0  0  0  0  0  0  0  0
    1.6283    6.8143    1.6231 H   0  0  0  0  0  0  0  0  0  0  0  0
    6.8431    6.8085   -0.3869 H   0  0  0  0  0  0  0  0  0  0  0  0
   11.0271    7.0125   -3.7880 H   0  0  0  0  0  0  0  0  0  0  0  0
    8.0323    3.1791   -5.3219 H   0  0  0  0  0  0  0  0  0  0  0  0
    9.6084    4.7640   -7.9200 H   0  0  0  0  0  0  0  0  0  0  0  0
   10.8054    2.3027   -7.4590 H   0  0  0  0  0  0  0  0  0  0  0  0
   12.0468    3.2712   -9.6001 H   0  0  0  0  0  0  0  0  0  0  0  0
   13.6461    5.1780   -8.8279 H   0  0  0  0  0  0  0  0  0  0  0  0
   13.4245    5.4390   -6.1894 H   0  0  0  0  0  0  0  0  0  0  0  0
   11.9959    3.3454   -5.3042 H   0  0  0  0  0  0  0  0  0  0  0  0
   13.2319    2.8048   -6.5109 H   0  0  0  0  0  0  0  0  0  0  0  0
   11.0667    6.5203   -7.2303 H   0  0  0  0  0  0  0  0  0  0  0  0
  1  2  2  3
  2  3  1  0
  3  4  2  0
  3  5  1  0
  5  6  2  0
  6  7  1  0
  7  8  2  0
  8  9  1  0
  9 10  2  0
 10 11  1  0
 11 12  2  3
 12 13  1  0
 13 14  3  0
 12 15  1  0
 15 16  3  0
  8 17  1  0
 17 18  1  0
 18 19  1  0
 19 20  2  0
 20 21  1  0
 21 22  1  0
 21 23  1  0
  1 24  1  0
 24 25  2  0
 25 26  1  0
 26 27  1  0
 27 28  2  0
 28 29  1  0
 29 30  2  0
 30 31  1  0
 31 32  1  0
 30 33  1  0
 33 34  2  0
 26 35  1  0
 35 36  2  0
 36 37  1  0
 37 38  2  0
 38 39  1  0
 39 40  1  0
 38 41  1  0
 41 42  2  0
 25 43  1  0
 43 44  1  0
 44 45  1  0
 45 46  2  0
 46 47  1  0
 47 48  1  0
 48 49  2  0
 49 50  1  0
 50 51  2  0
 51 52  1  0
 52 53  1  0
 51 54  1  0
 54 55  2  0
 47 56  1  0
 56 57  2  0
 57 58  1  0
 58 59  2  0
 59 60  1  0
 60 61  1  0
 59 62  1  0
 62 63  2  0
 46 64  1  0
 64 65  1  0
 45 66  1  0
 66 67  2  0
 67 68  1  0
 68 69  2  0
 69 70  1  0
 70 71  2  0
 71 72  1  0
 72 73  1  0
 72 74  2  0
 74 75  1  0
 75 76  1  0
 74 77  1  0
 69 78  1  0
 78 79  2  0
 79 80  1  0
 80 81  1  0
 81 82  2  0
 82 83  1  0
 83 84  2  0
 84 85  1  0
 85 86  1  0
 84 87  1  0
 80 88  2  0
 88 89  1  0
 79 90  1  0
 90 91  2  0
 91 92  1  0
 91 93  1  0
 93 94  2  0
 94 95  1  0
 95 96  1  0
 96 97  2  0
 97 98  1  0
 98 99  2  0
 99100  1  0
100101  1  0
 99102  1  0
102103  2  0
 95104  1  0
104105  2  0
105106  1  0
106107  2  0
107108  1  0
108109  1  0
107110  1  0
110111  2  0
 94112  1  0
112113  1  0
113114  1  0
114115  2  0
115116  1  0
116117  1  0
117118  2  0
118119  1  0
119120  2  0
120121  1  0
121122  1  0
120123  1  0
123124  2  0
116125  1  0
125126  2  0
126127  1  0
127128  2  0
128129  1  0
129130  1  0
128131  1  0
131132  2  0
115133  1  0
133134  1  0
114135  1  0
135136  2  3
136137  1  0
137138  2  0
137139  1  0
139140  2  0
140141  1  0
141142  2  0
142143  1  0
143144  2  0
144145  1  0
145146  2  3
146147  1  0
147148  3  0
146149  1  0
149150  3  0
142151  1  0
151152  1  0
152153  1  0
153154  2  0
154155  1  0
155156  1  0
155157  1  0
 11  2  1  0
 23 17  1  0
 65 24  1  0
 89 66  1  0
134 93  1  0
145136  1  0
157151  1  0
 10  5  1  0
 22 18  1  0
 34 27  1  0
 42 35  1  0
 64 43  2  0
 88 68  1  0
103 96  1  0
111104  1  0
133112  2  0
144139  1  0
156152  1  0
 23  7  1  0
 55 48  1  0
 63 56  1  0
 77 70  1  0
 92 78  1  0
124117  1  0
132125  1  0
157141  1  0
 87 81  1  0
  1158  1  0
  6159  1  0
  9160  1  0
 17161  1  0
 18162  1  0
 19163  1  0
 20164  1  0
 21165  1  0
 22166  1  0
 22167  1  0
 23168  1  0
 28169  1  0
 29170  1  0
 32171  1  0
 32172  1  0
 32173  1  0
 33174  1  0
 34175  1  0
 36176  1  0
 37177  1  0
 40178  1  0
 40179  1  0
 40180  1  0
 41181  1  0
 42182  1  0
 49183  1  0
 50184  1  0
 53185  1  0
 53186  1  0
 53187  1  0
 54188  1  0
 55189  1  0
 57190  1  0
 58191  1  0
 61192  1  0
 61193  1  0
 61194  1  0
 62195  1  0
 63196  1  0
 67197  1  0
 71198  1  0
 75199  1  0
 75200  1  0
 76201  1  0
 76202  1  0
 76203  1  0
 82204  1  0
 83205  1  0
 85206  1  0
 85207  1  0
 86208  1  0
 86209  1  0
 86210  1  0
 90211  1  0
 97212  1  0
 98213  1  0
101214  1  0
101215  1  0
101216  1  0
102217  1  0
103218  1  0
105219  1  0
106220  1  0
109221  1  0
109222  1  0
109223  1  0
110224  1  0
111225  1  0
118226  1  0
119227  1  0
122228  1  0
122229  1  0
122230  1  0
123231  1  0
124232  1  0
126233  1  0
127234  1  0
130235  1  0
130236  1  0
130237  1  0
131238  1  0
132239  1  0
135240  1  0
140241  1  0
143242  1  0
151243  1  0
152244  1  0
153245  1  0
154246  1  0
155247  1  0
156248  1  0
156249  1  0
157250  1  0
M  END

