
     RDKit          3D

203222  0  0  0  0  0  0  0  0999 V2000
   -4.5254   -4.0250   -0.9198 C   0  0  0  0  0  0  0  0  0  0  0  0
   -4.8311   -3.5093   -2.1289 C   0  0  0  0  0  0  0  0  0  0  0  0
   -4.6505   -2.1050   -2.5198 C   0  0  0  0  0  0  0  0  0  0  0  0
   -4.6995   -1.1027   -1.7535 O   0  0  0  0  0  0  0  0  0  0  0  0
   -4.5193   -2.0304   -3.9552 C   0  0  0  0  0  0  0  0  0  0  0  0
   -4.2022   -0.8854   -4.7217 C   0  0  0  0  0  0  0  0  0  0  0  0
   -3.9877   -1.1499   -6.0625 C   0  0  0  0  0  0  0  0  0  0  0  0
   -4.0678   -2.4702   -6.6190 C   0  0  0  0  0  0  0  0  0  0  0  0
   -4.3943   -3.5927   -5.8746 C   0  0  0  0  0  0  0  0  0  0  0  0
   -4.6571   -3.3336   -4.5026 C   0  0  0  0  0  0  0  0  0  0  0  0
   -5.0034   -4.2785   -3.4012 C   0  0  0  0  0  0  0  0  0  0  0  0
   -5.5540   -5.5112   -3.5257 C   0  0  0  0  0  0  0  0  0  0  0  0
   -5.7973   -6.1151   -4.8079 C   0  0  0  0  0  0  0  0  0  0  0  0
   -6.0020   -6.6113   -5.8363 N   0  0  0  0  0  0  0  0  0  0  0  0
   -6.0553   -6.2443   -2.3925 C   0  0  0  0  0  0  0  0  0  0  0  0
   -6.4571   -6.8211   -1.4774 N   0  0  0  0  0  0  0  0  0  0  0  0
   -3.6732   -1.9425   -7.9669 C   0  0  0  0  0  0  0  0  0  0  0  0
   -4.7851   -1.8247   -9.0595 C   0  0  0  0  0  0  0  0  0  0  0  0
   -6.1222   -1.5721   -8.4102 C   0  0  0  0  0  0  0  0  0  0  0  0
   -6.0646   -0.3474   -7.8874 C   0  0  0  0  0  0  0  0  0  0  0  0
   -4.6913    0.1956   -8.2032 C   0  0  0  0  0  0  0  0  0  0  0  0
   -4.4937   -0.4258   -9.5732 C   0  0  0  0  0  0  0  0  0  0  0  0
   -3.6064   -0.5864   -7.4010 C   0  0  0  0  0  0  0  0  0  0  0  0
   -3.7586   -3.2630    0.0697 C   0  0  0  0  0  0  0  0  0  0  0  0
   -2.3646   -3.2958    0.1381 C   0  0  0  0  0  0  0  0  0  0  0  0
   -1.5368   -4.3009   -0.4725 N   0  0  0  0  0  0  0  0  0  0  0  0
   -0.4295   -3.8905   -1.3038 C   0  0  0  0  0  0  0  0  0  0  0  0
   -0.6292   -2.9692   -2.3441 C   0  0  0  0  0  0  0  0  0  0  0  0
    0.4373   -2.5948   -3.1663 C   0  0  0  0  0  0  0  0  0  0  0  0
    1.7096   -3.1352   -2.9599 C   0  0  0  0  0  0  0  0  0  0  0  0
    3.0659   -2.6981   -4.0522 S   0  0  0  0  0  0  0  0  0  0  0  0
    3.6108   -1.2992   -3.0275 C   0  0  0  0  0  0  0  0  0  0  0  0
    1.9224   -4.0376   -1.9111 C   0  0  0  0  0  0  0  0  0  0  0  0
    0.8616   -4.4116   -1.0827 C   0  0  0  0  0  0  0  0  0  0  0  0
   -1.6596   -5.6799   -0.0586 C   0  0  0  0  0  0  0  0  0  0  0  0
   -2.0578   -6.0008    1.2529 C   0  0  0  0  0  0  0  0  0  0  0  0
   -2.0913   -7.3337    1.6759 C   0  0  0  0  0  0  0  0  0  0  0  0
   -1.7189   -8.3564    0.7993 C   0  0  0  0  0  0  0  0  0  0  0  0
   -1.7500  -10.0626    1.3555 S   0  0  0  0  0  0  0  0  0  0  0  0
   -3.4436  -10.3564    0.7570 C   0  0  0  0  0  0  0  0  0  0  0  0
   -1.3426   -8.0479   -0.5125 C   0  0  0  0  0  0  0  0  0  0  0  0
   -1.3244   -6.7209   -0.9421 C   0  0  0  0  0  0  0  0  0  0  0  0
   -1.8791   -2.2855    0.9479 C   0  0  0  0  0  0  0  0  0  0  0  0
   -0.3565   -1.7826    1.3581 S   0  0  0  0  0  0  0  0  0  0  0  0
   -0.8691   -0.5250    2.3759 C   0  0  0  0  0  0  0  0  0  0  0  0
   -2.2742   -0.4893    2.3657 C   0  0  0  0  0  0  0  0  0  0  0  0
   -3.0707    0.2788    3.2764 N   0  0  0  0  0  0  0  0  0  0  0  0
   -3.9396    1.3454    2.8071 C   0  0  0  0  0  0  0  0  0  0  0  0
   -4.7479    2.0636    3.7180 C   0  0  0  0  0  0  0  0  0  0  0  0
   -5.6274    3.0496    3.2633 C   0  0  0  0  0  0  0  0  0  0  0  0
   -5.7226    3.3327    1.8998 C   0  0  0  0  0  0  0  0  0  0  0  0
   -6.9027    4.5548    1.3122 S   0  0  0  0  0  0  0  0  0  0  0  0
   -8.2719    3.3596    1.1852 C   0  0  0  0  0  0  0  0  0  0  0  0
   -4.9042    2.6559    0.9903 C   0  0  0  0  0  0  0  0  0  0  0  0
   -4.0054    1.6850    1.4373 C   0  0  0  0  0  0  0  0  0  0  0  0
   -3.3539   -0.3817    4.5205 C   0  0  0  0  0  0  0  0  0  0  0  0
   -4.5685   -1.0779    4.6816 C   0  0  0  0  0  0  0  0  0  0  0  0
   -4.8182   -1.7868    5.8550 C   0  0  0  0  0  0  0  0  0  0  0  0
   -3.8721   -1.8010    6.8925 C   0  0  0  0  0  0  0  0  0  0  0  0
   -4.2224   -2.6742    8.4138 S   0  0  0  0  0  0  0  0  0  0  0  0
   -5.0676   -1.2482    9.1709 C   0  0  0  0  0  0  0  0  0  0  0  0
   -2.6560   -1.1215    6.7285 C   0  0  0  0  0  0  0  0  0  0  0  0
   -2.3959   -0.4227    5.5420 C   0  0  0  0  0  0  0  0  0  0  0  0
   -2.8027   -1.5047    1.5552 C   0  0  0  0  0  0  0  0  0  0  0  0
   -4.3458   -2.0154    1.0920 S   0  0  0  0  0  0  0  0  0  0  0  0
    0.0712    0.5117    2.8298 C   0  0  0  0  0  0  0  0  0  0  0  0
    1.4532    0.2399    2.9165 C   0  0  0  0  0  0  0  0  0  0  0  0
    1.9918   -0.9174    3.5924 N   0  0  0  0  0  0  0  0  0  0  0  0
    1.7284   -1.0566    5.0068 C   0  0  0  0  0  0  0  0  0  0  0  0
    1.6600    0.0769    5.8467 C   0  0  0  0  0  0  0  0  0  0  0  0
    1.5693   -0.0752    7.2356 C   0  0  0  0  0  0  0  0  0  0  0  0
    1.5478   -1.3517    7.8004 C   0  0  0  0  0  0  0  0  0  0  0  0
    1.6558   -1.5445    9.5718 S   0  0  0  0  0  0  0  0  0  0  0  0
    3.4770   -1.6217    9.5583 C   0  0  0  0  0  0  0  0  0  0  0  0
    1.5405   -2.4776    6.9705 C   0  0  0  0  0  0  0  0  0  0  0  0
    1.6309   -2.3348    5.5825 C   0  0  0  0  0  0  0  0  0  0  0  0
    3.1355   -1.6050    3.0583 C   0  0  0  0  0  0  0  0  0  0  0  0
    4.4198   -1.3084    3.5400 C   0  0  0  0  0  0  0  0  0  0  0  0
    5.5406   -1.9552    3.0096 C   0  0  0  0  0  0  0  0  0  0  0  0
    5.3764   -2.9437    2.0254 C   0  0  0  0  0  0  0  0  0  0  0  0
    6.8008   -3.7839    1.3447 S   0  0  0  0  0  0  0  0  0  0  0  0
    6.9500   -2.6528   -0.0788 C   0  0  0  0  0  0  0  0  0  0  0  0
    4.0958   -3.2874    1.5889 C   0  0  0  0  0  0  0  0  0  0  0  0
    2.9783   -2.6277    2.1063 C   0  0  0  0  0  0  0  0  0  0  0  0
    2.2154    1.3342    2.5317 C   0  0  0  0  0  0  0  0  0  0  0  0
    3.8102    1.5306    2.1005 S   0  0  0  0  0  0  0  0  0  0  0  0
    3.6208    3.1222    1.5240 C   0  0  0  0  0  0  0  0  0  0  0  0
    2.2807    3.5124    1.7287 C   0  0  0  0  0  0  0  0  0  0  0  0
    1.8638    4.8884    1.8302 N   0  0  0  0  0  0  0  0  0  0  0  0
    0.6669    5.3238    1.1667 C   0  0  0  0  0  0  0  0  0  0  0  0
    0.5648    5.2506   -0.2348 C   0  0  0  0  0  0  0  0  0  0  0  0
   -0.5574    5.7824   -0.8832 C   0  0  0  0  0  0  0  0  0  0  0  0
   -1.5870    6.3759   -0.1404 C   0  0  0  0  0  0  0  0  0  0  0  0
   -2.9730    7.1585   -0.9738 S   0  0  0  0  0  0  0  0  0  0  0  0
   -4.0410    5.6879   -0.8697 C   0  0  0  0  0  0  0  0  0  0  0  0
   -1.5092    6.4067    1.2564 C   0  0  0  0  0  0  0  0  0  0  0  0
   -0.3879    5.8861    1.9062 C   0  0  0  0  0  0  0  0  0  0  0  0
    2.5092    5.7615    2.7926 C   0  0  0  0  0  0  0  0  0  0  0  0
    3.0962    5.2453    3.9615 C   0  0  0  0  0  0  0  0  0  0  0  0
    3.7768    6.0838    4.8494 C   0  0  0  0  0  0  0  0  0  0  0  0
    3.8681    7.4537    4.5820 C   0  0  0  0  0  0  0  0  0  0  0  0
    4.8128    8.5135    5.6753 S   0  0  0  0  0  0  0  0  0  0  0  0
    3.4040    8.8680    6.7717 C   0  0  0  0  0  0  0  0  0  0  0  0
    3.2588    7.9917    3.4424 C   0  0  0  0  0  0  0  0  0  0  0  0
    2.5860    7.1496    2.5532 C   0  0  0  0  0  0  0  0  0  0  0  0
    1.5196    2.4587    2.2439 C   0  0  0  0  0  0  0  0  0  0  0  0
   -0.1268    2.1461    2.3764 S   0  0  0  0  0  0  0  0  0  0  0  0
    4.4514    3.6050    0.4031 C   0  0  0  0  0  0  0  0  0  0  0  0
    4.6758    4.9615    0.1465 C   0  0  0  0  0  0  0  0  0  0  0  0
    5.3618    5.3250   -0.9702 N   0  0  0  0  0  0  0  0  0  0  0  0
    5.8341    4.4051   -1.8541 C   0  0  0  0  0  0  0  0  0  0  0  0
    5.5739    3.0496   -1.6168 C   0  0  0  0  0  0  0  0  0  0  0  0
    4.9095    2.6888   -0.4959 N   0  0  0  0  0  0  0  0  0  0  0  0
    6.4658    4.8851   -3.1045 C   0  0  0  0  0  0  0  0  0  0  0  0
    7.3257    4.2153   -3.9014 C   0  0  0  0  0  0  0  0  0  0  0  0
    7.4642    4.5253   -5.3217 C   0  0  0  0  0  0  0  0  0  0  0  0
    7.0593    5.5696   -5.9046 O   0  0  0  0  0  0  0  0  0  0  0  0
    8.0583    3.3841   -5.9810 C   0  0  0  0  0  0  0  0  0  0  0  0
    8.2392    3.1780   -7.3461 C   0  0  0  0  0  0  0  0  0  0  0  0
    8.7733    1.9579   -7.7756 C   0  0  0  0  0  0  0  0  0  0  0  0
    9.0298    1.6289   -9.6427 Br  0  0  0  0  0  0  0  0  0  0  0  0
    9.0937    0.9631   -6.8360 C   0  0  0  0  0  0  0  0  0  0  0  0
    8.8854    1.1863   -5.4601 C   0  0  0  0  0  0  0  0  0  0  0  0
    8.3766    2.4184   -5.0406 C   0  0  0  0  0  0  0  0  0  0  0  0
    8.0687    2.9365   -3.6774 C   0  0  0  0  0  0  0  0  0  0  0  0
    8.6802    2.5513   -2.5259 C   0  0  0  0  0  0  0  0  0  0  0  0
    9.5201    1.3840   -2.4475 C   0  0  0  0  0  0  0  0  0  0  0  0
   10.1974    0.4472   -2.3755 N   0  0  0  0  0  0  0  0  0  0  0  0
    8.6531    3.3692   -1.3374 C   0  0  0  0  0  0  0  0  0  0  0  0
    8.6310    4.0174   -0.3781 N   0  0  0  0  0  0  0  0  0  0  0  0
   -4.4896   -5.0939   -0.7945 H   0  0  0  0  0  0  0  0  0  0  0  0
   -4.0730    0.1007   -4.2933 H   0  0  0  0  0  0  0  0  0  0  0  0
   -4.4047   -4.5688   -6.3301 H   0  0  0  0  0  0  0  0  0  0  0  0
   -2.6921   -2.3242   -8.3342 H   0  0  0  0  0  0  0  0  0  0  0  0
   -4.7724   -2.6290   -9.8280 H   0  0  0  0  0  0  0  0  0  0  0  0
   -6.9897   -2.2242   -8.4213 H   0  0  0  0  0  0  0  0  0  0  0  0
   -6.8838    0.1765   -7.4000 H   0  0  0  0  0  0  0  0  0  0  0  0
   -4.6081    1.3020   -8.1625 H   0  0  0  0  0  0  0  0  0  0  0  0
   -3.4596   -0.2981   -9.9725 H   0  0  0  0  0  0  0  0  0  0  0  0
   -5.2294   -0.0677  -10.3302 H   0  0  0  0  0  0  0  0  0  0  0  0
   -2.5869   -0.1421   -7.4316 H   0  0  0  0  0  0  0  0  0  0  0  0
   -1.6135   -2.5499   -2.5128 H   0  0  0  0  0  0  0  0  0  0  0  0
    0.2646   -1.8855   -3.9660 H   0  0  0  0  0  0  0  0  0  0  0  0
    3.8813   -1.6516   -2.0106 H   0  0  0  0  0  0  0  0  0  0  0  0
    4.5035   -0.8387   -3.4987 H   0  0  0  0  0  0  0  0  0  0  0  0
    2.8043   -0.5385   -2.9617 H   0  0  0  0  0  0  0  0  0  0  0  0
    2.9087   -4.4535   -1.7301 H   0  0  0  0  0  0  0  0  0  0  0  0
    1.0393   -5.1089   -0.2671 H   0  0  0  0  0  0  0  0  0  0  0  0
   -2.3181   -5.2253    1.9613 H   0  0  0  0  0  0  0  0  0  0  0  0
   -2.3934   -7.5664    2.6918 H   0  0  0  0  0  0  0  0  0  0  0  0
   -4.1381   -9.6026    1.1874 H   0  0  0  0  0  0  0  0  0  0  0  0
   -3.4598  -10.2991   -0.3547 H   0  0  0  0  0  0  0  0  0  0  0  0
   -3.7783  -11.3689    1.0687 H   0  0  0  0  0  0  0  0  0  0  0  0
   -1.0541   -8.8351   -1.1962 H   0  0  0  0  0  0  0  0  0  0  0  0
   -1.0351   -6.4975   -1.9626 H   0  0  0  0  0  0  0  0  0  0  0  0
   -4.7071    1.8584    4.7794 H   0  0  0  0  0  0  0  0  0  0  0  0
   -6.2544    3.5748    3.9771 H   0  0  0  0  0  0  0  0  0  0  0  0
   -9.1858    3.8915    0.8437 H   0  0  0  0  0  0  0  0  0  0  0  0
   -8.4744    2.9054    2.1802 H   0  0  0  0  0  0  0  0  0  0  0  0
   -8.0218    2.5612    0.4576 H   0  0  0  0  0  0  0  0  0  0  0  0
   -4.9688    2.8749   -0.0674 H   0  0  0  0  0  0  0  0  0  0  0  0
   -3.3825    1.1842    0.7065 H   0  0  0  0  0  0  0  0  0  0  0  0
   -5.3066   -1.0733    3.8879 H   0  0  0  0  0  0  0  0  0  0  0  0
   -5.7503   -2.3255    5.9628 H   0  0  0  0  0  0  0  0  0  0  0  0
   -5.9723   -0.9952    8.5746 H   0  0  0  0  0  0  0  0  0  0  0  0
   -4.3849   -0.3738    9.2073 H   0  0  0  0  0  0  0  0  0  0  0  0
   -5.3817   -1.5071   10.2021 H   0  0  0  0  0  0  0  0  0  0  0  0
   -1.9085   -1.1424    7.5126 H   0  0  0  0  0  0  0  0  0  0  0  0
   -1.4436    0.0810    5.4177 H   0  0  0  0  0  0  0  0  0  0  0  0
    1.7376    1.0730    5.4374 H   0  0  0  0  0  0  0  0  0  0  0  0
    1.5749    0.8068    7.8697 H   0  0  0  0  0  0  0  0  0  0  0  0
    3.8949   -0.7087    9.0804 H   0  0  0  0  0  0  0  0  0  0  0  0
    3.8136   -2.5214    9.0036 H   0  0  0  0  0  0  0  0  0  0  0  0
    3.8528   -1.6725   10.6010 H   0  0  0  0  0  0  0  0  0  0  0  0
    1.5337   -3.4782    7.4030 H   0  0  0  0  0  0  0  0  0  0  0  0
    1.6905   -3.2215    4.9586 H   0  0  0  0  0  0  0  0  0  0  0  0
    4.5603   -0.5469    4.3031 H   0  0  0  0  0  0  0  0  0  0  0  0
    6.5368   -1.6882    3.3508 H   0  0  0  0  0  0  0  0  0  0  0  0
    6.0051   -2.6435   -0.6678 H   0  0  0  0  0  0  0  0  0  0  0  0
    7.1740   -1.6275    0.2831 H   0  0  0  0  0  0  0  0  0  0  0  0
    7.7762   -2.9973   -0.7300 H   0  0  0  0  0  0  0  0  0  0  0  0
    3.9616   -4.0632    0.8396 H   0  0  0  0  0  0  0  0  0  0  0  0
    2.0037   -2.9348    1.7731 H   0  0  0  0  0  0  0  0  0  0  0  0
    1.3787    4.8354   -0.8154 H   0  0  0  0  0  0  0  0  0  0  0  0
   -0.6033    5.7671   -1.9679 H   0  0  0  0  0  0  0  0  0  0  0  0
   -4.1540    5.3884    0.1933 H   0  0  0  0  0  0  0  0  0  0  0  0
   -5.0435    5.9339   -1.2821 H   0  0  0  0  0  0  0  0  0  0  0  0
   -3.5986    4.8562   -1.4503 H   0  0  0  0  0  0  0  0  0  0  0  0
   -2.2996    6.8592    1.8431 H   0  0  0  0  0  0  0  0  0  0  0  0
   -0.3188    5.9420    2.9872 H   0  0  0  0  0  0  0  0  0  0  0  0
    3.0324    4.1925    4.1963 H   0  0  0  0  0  0  0  0  0  0  0  0
    4.2376    5.6701    5.7385 H   0  0  0  0  0  0  0  0  0  0  0  0
    3.0685    7.9412    7.2796 H   0  0  0  0  0  0  0  0  0  0  0  0
    3.7221    9.6028    7.5421 H   0  0  0  0  0  0  0  0  0  0  0  0
    2.5691    9.3061    6.1870 H   0  0  0  0  0  0  0  0  0  0  0  0
    3.3316    9.0481    3.2361 H   0  0  0  0  0  0  0  0  0  0  0  0
    2.1500    7.5743    1.6561 H   0  0  0  0  0  0  0  0  0  0  0  0
    4.3235    5.7275    0.8211 H   0  0  0  0  0  0  0  0  0  0  0  0
    5.8692    2.2845   -2.3210 H   0  0  0  0  0  0  0  0  0  0  0  0
    6.0823    5.8318   -3.4701 H   0  0  0  0  0  0  0  0  0  0  0  0
    7.9574    3.9423   -8.0597 H   0  0  0  0  0  0  0  0  0  0  0  0
    9.4850    0.0082   -7.1728 H   0  0  0  0  0  0  0  0  0  0  0  0
    9.0897    0.3823   -4.7689 H   0  0  0  0  0  0  0  0  0  0  0  0
  1  2  2  3
  2  3  1  0
  3  4  2  0
  3  5  1  0
  5  6  2  0
  6  7  1  0
  7  8  2  0
  8  9  1  0
  9 10  2  0
 10 11  1  0
 11 12  2  3
 12 13  1  0
 13 14  3  0
 12 15  1  0
 15 16  3  0
  8 17  1  0
 17 18  1  0
 18 19  1  0
 19 20  2  0
 20 21  1  0
 21 22  1  0
 21 23  1  0
  1 24  1  0
 24 25  2  0
 25 26  1  0
 26 27  1  0
 27 28  2  0
 28 29  1  0
 29 30  2  0
 30 31  1  0
 31 32  1  0
 30 33  1  0
 33 34  2  0
 26 35  1  0
 35 36  2  0
 36 37  1  0
 37 38  2  0
 38 39  1  0
 39 40  1  0
 38 41  1  0
 41 42  2  0
 25 43  1  0
 43 44  1  0
 44 45  1  0
 45 46  2  0
 46 47  1  0
 47 48  1  0
 48 49  2  0
 49 50  1  0
 50 51  2  0
 51 52  1  0
 52 53  1  0
 51 54  1  0
 54 55  2  0
 47 56  1  0
 56 57  2  0
 57 58  1  0
 58 59  2  0
 59 60  1  0
 60 61  1  0
 59 62  1  0
 62 63  2  0
 46 64  1  0
 64 65  1  0
 45 66  1  0
 66 67  2  0
 67 68  1  0
 68 69  1  0
 69 70  2  0
 70 71  1  0
 71 72  2  0
 72 73  1  0
 73 74  1  0
 72 75  1  0
 75 76  2  0
 68 77  1  0
 77 78  2  0
 78 79  1  0
 79 80  2  0
 80 81  1  0
 81 82  1  0
 80 83  1  0
 83 84  2  0
 67 85  1  0
 85 86  1  0
 86 87  1  0
 87 88  2  0
 88 89  1  0
 89 90  1  0
 90 91  2  0
 91 92  1  0
 92 93  2  0
 93 94  1  0
 94 95  1  0
 93 96  1  0
 96 97  2  0
 89 98  1  0
 98 99  2  0
 99100  1  0
100101  2  0
101102  1  0
102103  1  0
101104  1  0
104105  2  0
 88106  1  0
106107  1  0
 87108  1  0
108109  2  0
109110  1  0
110111  2  0
111112  1  0
112113  2  0
111114  1  0
114115  2  3
115116  1  0
116117  2  0
116118  1  0
118119  2  0
119120  1  0
120121  1  0
120122  2  0
122123  1  0
123124  2  0
124125  1  0
125126  2  3
126127  1  0
127128  3  0
126129  1  0
129130  3  0
 11  2  1  0
 23 17  1  0
 65 24  1  0
107 66  1  0
113108  1  0
125115  1  0
 10  5  1  0
 22 18  1  0
 34 27  1  0
 42 35  1  0
 64 43  2  0
 76 69  1  0
 84 77  1  0
106 85  2  0
124118  1  0
 23  7  1  0
 55 48  1  0
 63 56  1  0
 97 90  1  0
105 98  1  0
  1131  1  0
  6132  1  0
  9133  1  0
 17134  1  0
 18135  1  0
 19136  1  0
 20137  1  0
 21138  1  0
 22139  1  0
 22140  1  0
 23141  1  0
 28142  1  0
 29143  1  0
 32144  1  0
 32145  1  0
 32146  1  0
 33147  1  0
 34148  1  0
 36149  1  0
 37150  1  0
 40151  1  0
 40152  1  0
 40153  1  0
 41154  1  0
 42155  1  0
 49156  1  0
 50157  1  0
 53158  1  0
 53159  1  0
 53160  1  0
 54161  1  0
 55162  1  0
 57163  1  0
 58164  1  0
 61165  1  0
 61166  1  0
 61167  1  0
 62168  1  0
 63169  1  0
 70170  1  0
 71171  1  0
 74172  1  0
 74173  1  0
 74174  1  0
 75175  1  0
 76176  1  0
 78177  1  0
 79178  1  0
 82179  1  0
 82180  1  0
 82181  1  0
 83182  1  0
 84183  1  0
 91184  1  0
 92185  1  0
 95186  1  0
 95187  1  0
 95188  1  0
 96189  1  0
 97190  1  0
 99191  1  0
100192  1  0
103193  1  0
103194  1  0
103195  1  0
104196  1  0
105197  1  0
109198  1  0
112199  1  0
114200  1  0
119201  1  0
122202  1  0
123203  1  0
M  END

