
     RDKit          3D

189208  0  0  0  0  0  0  0  0999 V2000
    5.7286    5.0278   -0.9171 C   0  0  0  0  0  0  0  0  0  0  0  0
    6.0721    4.2139    0.1204 C   0  0  0  0  0  0  0  0  0  0  0  0
    5.2156    3.1499    0.6524 C   0  0  0  0  0  0  0  0  0  0  0  0
    4.3329    2.5181    0.0221 O   0  0  0  0  0  0  0  0  0  0  0  0
    5.5793    2.8810    2.0141 C   0  0  0  0  0  0  0  0  0  0  0  0
    4.9093    1.9957    2.8910 C   0  0  0  0  0  0  0  0  0  0  0  0
    5.4109    2.0184    4.1796 C   0  0  0  0  0  0  0  0  0  0  0  0
    6.5093    2.8617    4.5646 C   0  0  0  0  0  0  0  0  0  0  0  0
    7.1951    3.6971    3.7009 C   0  0  0  0  0  0  0  0  0  0  0  0
    6.7120    3.6743    2.3636 C   0  0  0  0  0  0  0  0  0  0  0  0
    7.1561    4.4369    1.1576 C   0  0  0  0  0  0  0  0  0  0  0  0
    8.3428    5.0777    0.9905 C   0  0  0  0  0  0  0  0  0  0  0  0
    8.7512    5.6575   -0.2612 C   0  0  0  0  0  0  0  0  0  0  0  0
    9.0725    6.1444   -1.2529 N   0  0  0  0  0  0  0  0  0  0  0  0
    9.2719    5.2476    2.0862 C   0  0  0  0  0  0  0  0  0  0  0  0
   10.0079    5.4072    2.9674 N   0  0  0  0  0  0  0  0  0  0  0  0
    6.3134    2.4828    5.9984 C   0  0  0  0  0  0  0  0  0  0  0  0
    5.5850    3.5324    6.9077 C   0  0  0  0  0  0  0  0  0  0  0  0
    5.1954    2.7829    8.1528 C   0  0  0  0  0  0  0  0  0  0  0  0
    4.2333    1.9254    7.7976 C   0  0  0  0  0  0  0  0  0  0  0  0
    3.9809    2.1521    6.3262 C   0  0  0  0  0  0  0  0  0  0  0  0
    4.2044    3.6643    6.2779 C   0  0  0  0  0  0  0  0  0  0  0  0
    5.2320    1.5718    5.5933 C   0  0  0  0  0  0  0  0  0  0  0  0
    4.3703    4.9181   -1.5120 C   0  0  0  0  0  0  0  0  0  0  0  0
    3.2561    5.2223   -0.7048 C   0  0  0  0  0  0  0  0  0  0  0  0
    3.3858    6.0417    0.4093 O   0  0  0  0  0  0  0  0  0  0  0  0
    3.7445    7.4116    0.2990 C   0  0  0  0  0  0  0  0  0  0  0  0
    2.5543    8.1831   -0.2594 C   0  0  0  0  0  0  0  0  0  0  0  0
    2.0081    4.6111   -0.9397 C   0  0  0  0  0  0  0  0  0  0  0  0
    0.9880    4.7416    0.0122 O   0  0  0  0  0  0  0  0  0  0  0  0
    1.0495    4.0297    1.2550 C   0  0  0  0  0  0  0  0  0  0  0  0
   -0.1342    4.3825    2.1508 C   0  0  0  0  0  0  0  0  0  0  0  0
    1.8303    3.7812   -2.0519 C   0  0  0  0  0  0  0  0  0  0  0  0
    2.8862    3.6059   -2.9452 C   0  0  0  0  0  0  0  0  0  0  0  0
    4.1763    4.1729   -2.6729 C   0  0  0  0  0  0  0  0  0  0  0  0
    5.1759    3.8223   -3.5116 N   0  0  0  0  0  0  0  0  0  0  0  0
    4.3631    2.8425   -4.5684 S   0  0  0  0  0  0  0  0  0  0  0  0
    2.8082    2.7835   -4.0225 N   0  0  0  0  0  0  0  0  0  0  0  0
    0.7407    2.7841   -2.0000 C   0  0  0  0  0  0  0  0  0  0  0  0
    1.0197    1.5657   -1.3623 C   0  0  0  0  0  0  0  0  0  0  0  0
    2.2873    1.2138   -1.0443 F   0  0  0  0  0  0  0  0  0  0  0  0
   -0.0129    0.7545   -0.9333 C   0  0  0  0  0  0  0  0  0  0  0  0
    0.3023   -0.3911   -0.2525 F   0  0  0  0  0  0  0  0  0  0  0  0
   -1.3593    1.1325   -1.1608 C   0  0  0  0  0  0  0  0  0  0  0  0
   -1.6363    2.2738   -1.9609 C   0  0  0  0  0  0  0  0  0  0  0  0
   -2.9029    2.5856   -2.3626 N   0  0  0  0  0  0  0  0  0  0  0  0
   -3.1586    3.6722   -3.1513 C   0  0  0  0  0  0  0  0  0  0  0  0
   -4.5655    3.8864   -3.6481 C   0  0  0  0  0  0  0  0  0  0  0  0
   -4.6905    3.5292   -5.1319 C   0  0  0  0  0  0  0  0  0  0  0  0
   -2.0851    4.5151   -3.5268 C   0  0  0  0  0  0  0  0  0  0  0  0
   -0.8367    4.1966   -3.0987 N   0  0  0  0  0  0  0  0  0  0  0  0
   -0.5771    3.0965   -2.3547 C   0  0  0  0  0  0  0  0  0  0  0  0
   -2.2159    5.7007   -4.4545 C   0  0  0  0  0  0  0  0  0  0  0  0
   -1.6365    5.3800   -5.8302 C   0  0  0  0  0  0  0  0  0  0  0  0
   -2.3813    0.3537   -0.4666 C   0  0  0  0  0  0  0  0  0  0  0  0
   -2.7854   -0.9108   -0.9397 C   0  0  0  0  0  0  0  0  0  0  0  0
   -3.2102   -1.1913   -2.2992 N   0  0  0  0  0  0  0  0  0  0  0  0
   -2.3833   -1.8605   -3.2790 C   0  0  0  0  0  0  0  0  0  0  0  0
   -1.1280   -1.3176   -3.6453 C   0  0  0  0  0  0  0  0  0  0  0  0
   -0.4494   -1.7966   -4.7686 C   0  0  0  0  0  0  0  0  0  0  0  0
   -0.9998   -2.8239   -5.5485 C   0  0  0  0  0  0  0  0  0  0  0  0
   -0.1300   -3.4291   -6.9960 S   0  0  0  0  0  0  0  0  0  0  0  0
   -0.8541   -2.2100   -8.1432 C   0  0  0  0  0  0  0  0  0  0  0  0
   -2.2111   -3.4089   -5.1585 C   0  0  0  0  0  0  0  0  0  0  0  0
   -2.8930   -2.9387   -4.0398 C   0  0  0  0  0  0  0  0  0  0  0  0
   -4.6100   -0.9908   -2.6380 C   0  0  0  0  0  0  0  0  0  0  0  0
   -5.6189   -1.6149   -1.8864 C   0  0  0  0  0  0  0  0  0  0  0  0
   -6.9621   -1.5530   -2.2910 C   0  0  0  0  0  0  0  0  0  0  0  0
   -7.3009   -0.8559   -3.4622 C   0  0  0  0  0  0  0  0  0  0  0  0
   -9.0013   -0.8976   -4.0693 S   0  0  0  0  0  0  0  0  0  0  0  0
   -9.5945    0.4271   -2.9740 C   0  0  0  0  0  0  0  0  0  0  0  0
   -6.3012   -0.2098   -4.2012 C   0  0  0  0  0  0  0  0  0  0  0  0
   -4.9597   -0.2848   -3.8010 C   0  0  0  0  0  0  0  0  0  0  0  0
   -2.8942   -1.8370    0.1040 C   0  0  0  0  0  0  0  0  0  0  0  0
   -2.9272   -3.5107    0.1214 S   0  0  0  0  0  0  0  0  0  0  0  0
   -2.4942   -3.6937    1.7555 C   0  0  0  0  0  0  0  0  0  0  0  0
   -2.3847   -2.3849    2.2932 C   0  0  0  0  0  0  0  0  0  0  0  0
   -1.9472   -2.0712    3.6401 N   0  0  0  0  0  0  0  0  0  0  0  0
   -2.7975   -1.2727    4.4899 C   0  0  0  0  0  0  0  0  0  0  0  0
   -2.2296   -0.3271    5.3671 C   0  0  0  0  0  0  0  0  0  0  0  0
   -3.0432    0.4969    6.1283 C   0  0  0  0  0  0  0  0  0  0  0  0
   -4.4345    0.4276    6.0192 C   0  0  0  0  0  0  0  0  0  0  0  0
   -5.4377    1.5818    6.9454 S   0  0  0  0  0  0  0  0  0  0  0  0
   -5.1978    2.9230    5.7329 C   0  0  0  0  0  0  0  0  0  0  0  0
   -5.0249   -0.5237    5.1695 C   0  0  0  0  0  0  0  0  0  0  0  0
   -4.2113   -1.3592    4.3950 C   0  0  0  0  0  0  0  0  0  0  0  0
   -0.5868   -2.3838    4.0497 C   0  0  0  0  0  0  0  0  0  0  0  0
    0.4898   -2.0305    3.2249 C   0  0  0  0  0  0  0  0  0  0  0  0
    1.8000   -2.3639    3.5886 C   0  0  0  0  0  0  0  0  0  0  0  0
    2.0339   -3.0582    4.7884 C   0  0  0  0  0  0  0  0  0  0  0  0
    3.7174   -3.4645    5.2478 S   0  0  0  0  0  0  0  0  0  0  0  0
    3.6677   -5.1719    4.6249 C   0  0  0  0  0  0  0  0  0  0  0  0
    0.9621   -3.3628    5.6434 C   0  0  0  0  0  0  0  0  0  0  0  0
   -0.3452   -3.0337    5.2729 C   0  0  0  0  0  0  0  0  0  0  0  0
   -2.5961   -1.3847    1.3378 C   0  0  0  0  0  0  0  0  0  0  0  0
   -2.2187    0.2576    1.2390 S   0  0  0  0  0  0  0  0  0  0  0  0
   -1.7741   -4.9110    2.2891 C   0  0  0  0  0  0  0  0  0  0  0  0
   -1.6398   -6.1188    1.7453 C   0  0  0  0  0  0  0  0  0  0  0  0
   -0.3909   -6.8931    1.9424 C   0  0  0  0  0  0  0  0  0  0  0  0
    0.3030   -6.8920    3.0106 O   0  0  0  0  0  0  0  0  0  0  0  0
   -0.0610   -7.5799    0.7002 C   0  0  0  0  0  0  0  0  0  0  0  0
    1.0751   -8.3719    0.4052 C   0  0  0  0  0  0  0  0  0  0  0  0
    1.1273   -8.7582   -0.9188 C   0  0  0  0  0  0  0  0  0  0  0  0
    0.1090   -8.4276   -1.8973 C   0  0  0  0  0  0  0  0  0  0  0  0
   -1.0399   -7.7324   -1.5866 C   0  0  0  0  0  0  0  0  0  0  0  0
   -1.1191   -7.3153   -0.2418 C   0  0  0  0  0  0  0  0  0  0  0  0
   -2.1953   -6.5869    0.4737 C   0  0  0  0  0  0  0  0  0  0  0  0
   -3.4738   -6.5156    0.0821 C   0  0  0  0  0  0  0  0  0  0  0  0
   -4.5405   -6.2097    0.9887 C   0  0  0  0  0  0  0  0  0  0  0  0
   -5.3903   -5.9666    1.7410 N   0  0  0  0  0  0  0  0  0  0  0  0
   -3.8126   -6.3971   -1.3263 C   0  0  0  0  0  0  0  0  0  0  0  0
   -4.0885   -6.2512   -2.4440 N   0  0  0  0  0  0  0  0  0  0  0  0
    0.9554   -8.9675   -2.9955 C   0  0  0  0  0  0  0  0  0  0  0  0
    1.7031   -7.9388   -3.9229 C   0  0  0  0  0  0  0  0  0  0  0  0
    2.0679   -6.6922   -3.1508 C   0  0  0  0  0  0  0  0  0  0  0  0
    3.0005   -7.0554   -2.2709 C   0  0  0  0  0  0  0  0  0  0  0  0
    3.2227   -8.5401   -2.4572 C   0  0  0  0  0  0  0  0  0  0  0  0
    3.0726   -8.5904   -3.9707 C   0  0  0  0  0  0  0  0  0  0  0  0
    1.9770   -9.3526   -2.0113 C   0  0  0  0  0  0  0  0  0  0  0  0
    6.3508    5.8633   -1.2125 H   0  0  0  0  0  0  0  0  0  0  0  0
    3.9992    1.4731    2.6264 H   0  0  0  0  0  0  0  0  0  0  0  0
    8.0008    4.3229    4.0764 H   0  0  0  0  0  0  0  0  0  0  0  0
    7.2013    1.9825    6.4525 H   0  0  0  0  0  0  0  0  0  0  0  0
    6.1253    4.4823    7.0858 H   0  0  0  0  0  0  0  0  0  0  0  0
    5.5471    2.9678    9.1668 H   0  0  0  0  0  0  0  0  0  0  0  0
    3.6741    1.2789    8.4651 H   0  0  0  0  0  0  0  0  0  0  0  0
    2.9935    1.7873    5.9561 H   0  0  0  0  0  0  0  0  0  0  0  0
    4.1966    4.1249    5.2583 H   0  0  0  0  0  0  0  0  0  0  0  0
    3.4688    4.2411    6.9019 H   0  0  0  0  0  0  0  0  0  0  0  0
    5.4419    0.4895    5.7508 H   0  0  0  0  0  0  0  0  0  0  0  0
    4.6304    7.5322   -0.3545 H   0  0  0  0  0  0  0  0  0  0  0  0
    4.0158    7.7926    1.3074 H   0  0  0  0  0  0  0  0  0  0  0  0
    2.2777    7.7911   -1.2532 H   0  0  0  0  0  0  0  0  0  0  0  0
    1.6878    8.0758    0.4334 H   0  0  0  0  0  0  0  0  0  0  0  0
    2.8117    9.2581   -0.3517 H   0  0  0  0  0  0  0  0  0  0  0  0
    1.0186    2.9302    1.0642 H   0  0  0  0  0  0  0  0  0  0  0  0
    1.9965    4.2691    1.7974 H   0  0  0  0  0  0  0  0  0  0  0  0
   -0.0443    3.8423    3.1220 H   0  0  0  0  0  0  0  0  0  0  0  0
   -0.1593    5.4794    2.3503 H   0  0  0  0  0  0  0  0  0  0  0  0
   -1.0894    4.0817    1.6652 H   0  0  0  0  0  0  0  0  0  0  0  0
   -4.9075    4.9268   -3.4622 H   0  0  0  0  0  0  0  0  0  0  0  0
   -5.2622    3.2341   -3.0745 H   0  0  0  0  0  0  0  0  0  0  0  0
   -4.6331    4.4605   -5.7496 H   0  0  0  0  0  0  0  0  0  0  0  0
   -3.8817    2.8383   -5.4752 H   0  0  0  0  0  0  0  0  0  0  0  0
   -5.6696    3.0483   -5.3385 H   0  0  0  0  0  0  0  0  0  0  0  0
   -1.6428    6.5490   -4.0201 H   0  0  0  0  0  0  0  0  0  0  0  0
   -3.2635    6.0534   -4.5689 H   0  0  0  0  0  0  0  0  0  0  0  0
   -0.6082    4.9608   -5.7440 H   0  0  0  0  0  0  0  0  0  0  0  0
   -2.2744    4.6431   -6.3660 H   0  0  0  0  0  0  0  0  0  0  0  0
   -1.5823    6.3030   -6.4465 H   0  0  0  0  0  0  0  0  0  0  0  0
   -0.7238   -0.4750   -3.1269 H   0  0  0  0  0  0  0  0  0  0  0  0
    0.4983   -1.3421   -5.0365 H   0  0  0  0  0  0  0  0  0  0  0  0
   -0.6117   -2.5166   -9.1897 H   0  0  0  0  0  0  0  0  0  0  0  0
   -0.4081   -1.2051   -7.9432 H   0  0  0  0  0  0  0  0  0  0  0  0
   -1.9668   -2.1987   -8.0141 H   0  0  0  0  0  0  0  0  0  0  0  0
   -2.6345   -4.2217   -5.7447 H   0  0  0  0  0  0  0  0  0  0  0  0
   -3.8621   -3.3657   -3.7959 H   0  0  0  0  0  0  0  0  0  0  0  0
   -5.3768   -2.2148   -1.0300 H   0  0  0  0  0  0  0  0  0  0  0  0
   -7.7202   -2.0753   -1.7144 H   0  0  0  0  0  0  0  0  0  0  0  0
   -9.3754    1.4185   -3.4393 H   0  0  0  0  0  0  0  0  0  0  0  0
   -9.1267    0.3597   -1.9675 H   0  0  0  0  0  0  0  0  0  0  0  0
  -10.6998    0.3291   -2.8598 H   0  0  0  0  0  0  0  0  0  0  0  0
   -6.5454    0.2904   -5.1352 H   0  0  0  0  0  0  0  0  0  0  0  0
   -4.1972    0.1715   -4.4175 H   0  0  0  0  0  0  0  0  0  0  0  0
   -1.1508   -0.2276    5.4444 H   0  0  0  0  0  0  0  0  0  0  0  0
   -2.5646    1.2291    6.7731 H   0  0  0  0  0  0  0  0  0  0  0  0
   -4.1254    3.1999    5.6525 H   0  0  0  0  0  0  0  0  0  0  0  0
   -5.5728    2.6139    4.7363 H   0  0  0  0  0  0  0  0  0  0  0  0
   -5.7611    3.8110    6.0689 H   0  0  0  0  0  0  0  0  0  0  0  0
   -6.1057   -0.6086    5.0960 H   0  0  0  0  0  0  0  0  0  0  0  0
   -4.6716   -2.0834    3.7305 H   0  0  0  0  0  0  0  0  0  0  0  0
    0.3281   -1.4798    2.3078 H   0  0  0  0  0  0  0  0  0  0  0  0
    2.6158   -2.0737    2.9445 H   0  0  0  0  0  0  0  0  0  0  0  0
    3.1597   -5.2354    3.6408 H   0  0  0  0  0  0  0  0  0  0  0  0
    4.7093   -5.5464    4.5158 H   0  0  0  0  0  0  0  0  0  0  0  0
    3.1530   -5.8190    5.3625 H   0  0  0  0  0  0  0  0  0  0  0  0
    1.1385   -3.8455    6.5988 H   0  0  0  0  0  0  0  0  0  0  0  0
   -1.1652   -3.2745    5.9295 H   0  0  0  0  0  0  0  0  0  0  0  0
   -0.9934   -4.6298    2.9597 H   0  0  0  0  0  0  0  0  0  0  0  0
    1.9001   -8.5089    1.1203 H   0  0  0  0  0  0  0  0  0  0  0  0
   -1.7505   -7.5078   -2.3802 H   0  0  0  0  0  0  0  0  0  0  0  0
    0.4588   -9.8070   -3.5273 H   0  0  0  0  0  0  0  0  0  0  0  0
    1.2484   -7.7505   -4.9213 H   0  0  0  0  0  0  0  0  0  0  0  0
    1.5407   -5.7390   -3.1462 H   0  0  0  0  0  0  0  0  0  0  0  0
    3.3644   -6.4402   -1.4458 H   0  0  0  0  0  0  0  0  0  0  0  0
    4.1738   -8.9516   -2.0690 H   0  0  0  0  0  0  0  0  0  0  0  0
    3.8439   -7.9954   -4.5170 H   0  0  0  0  0  0  0  0  0  0  0  0
    3.0674   -9.6307   -4.3742 H   0  0  0  0  0  0  0  0  0  0  0  0
    2.0837  -10.4567   -1.9369 H   0  0  0  0  0  0  0  0  0  0  0  0
  1  2  2  3
  2  3  1  0
  3  4  2  0
  3  5  1  0
  5  6  2  0
  6  7  1  0
  7  8  2  0
  8  9  1  0
  9 10  2  0
 10 11  1  0
 11 12  2  3
 12 13  1  0
 13 14  3  0
 12 15  1  0
 15 16  3  0
  8 17  1  0
 17 18  1  0
 18 19  1  0
 19 20  2  0
 20 21  1  0
 21 22  1  0
 21 23  1  0
  1 24  1  0
 24 25  2  0
 25 26  1  0
 26 27  1  0
 27 28  1  0
 25 29  1  0
 29 30  1  0
 30 31  1  0
 31 32  1  0
 29 33  2  0
 33 34  1  0
 34 35  1  0
 35 36  2  0
 36 37  1  0
 37 38  1  0
 33 39  1  0
 39 40  2  0
 40 41  1  0
 40 42  1  0
 42 43  1  0
 42 44  2  0
 44 45  1  0
 45 46  2  0
 46 47  1  0
 47 48  1  0
 48 49  1  0
 47 50  2  0
 50 51  1  0
 51 52  2  0
 50 53  1  0
 53 54  1  0
 44 55  1  0
 55 56  2  0
 56 57  1  0
 57 58  1  0
 58 59  2  0
 59 60  1  0
 60 61  2  0
 61 62  1  0
 62 63  1  0
 61 64  1  0
 64 65  2  0
 57 66  1  0
 66 67  2  0
 67 68  1  0
 68 69  2  0
 69 70  1  0
 70 71  1  0
 69 72  1  0
 72 73  2  0
 56 74  1  0
 74 75  1  0
 75 76  1  0
 76 77  2  0
 77 78  1  0
 78 79  1  0
 79 80  2  0
 80 81  1  0
 81 82  2  0
 82 83  1  0
 83 84  1  0
 82 85  1  0
 85 86  2  0
 78 87  1  0
 87 88  2  0
 88 89  1  0
 89 90  2  0
 90 91  1  0
 91 92  1  0
 90 93  1  0
 93 94  2  0
 77 95  1  0
 95 96  1  0
 76 97  1  0
 97 98  2  3
 98 99  1  0
 99100  2  0
 99101  1  0
101102  2  0
102103  1  0
103104  2  0
104105  1  0
105106  2  0
106107  1  0
107108  2  3
108109  1  0
109110  3  0
108111  1  0
111112  3  0
104113  1  0
113114  1  0
114115  1  0
115116  2  0
116117  1  0
117118  1  0
117119  1  0
 11  2  1  0
 23 17  1  0
 35 24  1  0
 52 39  1  0
 96 55  1  0
107 98  1  0
119113  1  0
 10  5  1  0
 22 18  1  0
 38 34  2  0
 52 45  1  0
 65 58  1  0
 73 66  1  0
 95 74  2  0
106101  1  0
118114  1  0
 23  7  1  0
 86 79  1  0
 94 87  1  0
119103  1  0
  1120  1  0
  6121  1  0
  9122  1  0
 17123  1  0
 18124  1  0
 19125  1  0
 20126  1  0
 21127  1  0
 22128  1  0
 22129  1  0
 23130  1  0
 27131  1  0
 27132  1  0
 28133  1  0
 28134  1  0
 28135  1  0
 31136  1  0
 31137  1  0
 32138  1  0
 32139  1  0
 32140  1  0
 48141  1  0
 48142  1  0
 49143  1  0
 49144  1  0
 49145  1  0
 53146  1  0
 53147  1  0
 54148  1  0
 54149  1  0
 54150  1  0
 59151  1  0
 60152  1  0
 63153  1  0
 63154  1  0
 63155  1  0
 64156  1  0
 65157  1  0
 67158  1  0
 68159  1  0
 71160  1  0
 71161  1  0
 71162  1  0
 72163  1  0
 73164  1  0
 80165  1  0
 81166  1  0
 84167  1  0
 84168  1  0
 84169  1  0
 85170  1  0
 86171  1  0
 88172  1  0
 89173  1  0
 92174  1  0
 92175  1  0
 92176  1  0
 93177  1  0
 94178  1  0
 97179  1  0
102180  1  0
105181  1  0
113182  1  0
114183  1  0
115184  1  0
116185  1  0
117186  1  0
118187  1  0
118188  1  0
119189  1  0
M  END

