
     RDKit          3D

215237  0  0  0  0  0  0  0  0999 V2000
    7.6723    4.9624    2.5850 C   0  0  0  0  0  0  0  0  0  0  0  0
    6.8710    5.9215    2.0617 C   0  0  0  0  0  0  0  0  0  0  0  0
    5.4066    5.9436    2.2068 C   0  0  0  0  0  0  0  0  0  0  0  0
    4.7132    5.1881    2.9426 O   0  0  0  0  0  0  0  0  0  0  0  0
    4.8789    7.0353    1.4469 C   0  0  0  0  0  0  0  0  0  0  0  0
    3.5065    7.2918    1.2119 C   0  0  0  0  0  0  0  0  0  0  0  0
    3.3003    8.3267    0.3219 C   0  0  0  0  0  0  0  0  0  0  0  0
    4.3672    9.0761   -0.2767 C   0  0  0  0  0  0  0  0  0  0  0  0
    5.6993    8.8698   -0.0033 C   0  0  0  0  0  0  0  0  0  0  0  0
    5.9598    7.7811    0.8825 C   0  0  0  0  0  0  0  0  0  0  0  0
    7.2598    7.1169    1.2310 C   0  0  0  0  0  0  0  0  0  0  0  0
    8.4859    7.4290    0.6998 C   0  0  0  0  0  0  0  0  0  0  0  0
    9.6071    6.5262    0.7949 C   0  0  0  0  0  0  0  0  0  0  0  0
   10.5088    5.7955    0.8463 N   0  0  0  0  0  0  0  0  0  0  0  0
    8.7409    8.6434   -0.0404 C   0  0  0  0  0  0  0  0  0  0  0  0
    8.9668    9.6119   -0.6381 N   0  0  0  0  0  0  0  0  0  0  0  0
    3.3933    9.8930   -1.0670 C   0  0  0  0  0  0  0  0  0  0  0  0
    3.1239   11.3628   -0.6228 C   0  0  0  0  0  0  0  0  0  0  0  0
    3.3438   11.5182    0.8722 C   0  0  0  0  0  0  0  0  0  0  0  0
    2.3713   10.8184    1.4670 C   0  0  0  0  0  0  0  0  0  0  0  0
    1.5172   10.2348    0.3544 C   0  0  0  0  0  0  0  0  0  0  0  0
    1.6086   11.3699   -0.6429 C   0  0  0  0  0  0  0  0  0  0  0  0
    2.3041    9.1317   -0.4270 C   0  0  0  0  0  0  0  0  0  0  0  0
    7.1543    3.5983    2.8591 C   0  0  0  0  0  0  0  0  0  0  0  0
    6.9822    3.0178    4.1236 C   0  0  0  0  0  0  0  0  0  0  0  0
    6.0996    1.9227    4.0962 C   0  0  0  0  0  0  0  0  0  0  0  0
    5.7178    1.2627    5.2177 F   0  0  0  0  0  0  0  0  0  0  0  0
    5.5753    1.6448    2.8320 C   0  0  0  0  0  0  0  0  0  0  0  0
    6.2511    2.7317    1.7476 S   0  0  0  0  0  0  0  0  0  0  0  0
    4.3679    0.8638    2.5324 C   0  0  0  0  0  0  0  0  0  0  0  0
    4.0284   -0.4564    2.9817 C   0  0  0  0  0  0  0  0  0  0  0  0
    5.0661   -1.4528    3.1687 N   0  0  0  0  0  0  0  0  0  0  0  0
    6.2041   -1.3702    2.2929 C   0  0  0  0  0  0  0  0  0  0  0  0
    7.3953   -0.7692    2.7271 C   0  0  0  0  0  0  0  0  0  0  0  0
    8.3679   -0.3886    1.7918 C   0  0  0  0  0  0  0  0  0  0  0  0
    8.1893   -0.6807    0.4317 C   0  0  0  0  0  0  0  0  0  0  0  0
    9.4207   -0.1736   -0.7747 S   0  0  0  0  0  0  0  0  0  0  0  0
    8.5173    1.3347   -1.2621 C   0  0  0  0  0  0  0  0  0  0  0  0
    7.0609   -1.4028    0.0135 C   0  0  0  0  0  0  0  0  0  0  0  0
    6.0650   -1.7313    0.9385 C   0  0  0  0  0  0  0  0  0  0  0  0
    4.8416   -2.7579    3.7370 C   0  0  0  0  0  0  0  0  0  0  0  0
    5.5870   -3.1426    4.8670 C   0  0  0  0  0  0  0  0  0  0  0  0
    5.6960   -4.4884    5.2230 C   0  0  0  0  0  0  0  0  0  0  0  0
    5.0892   -5.4781    4.4363 C   0  0  0  0  0  0  0  0  0  0  0  0
    5.3160   -7.2149    4.8295 S   0  0  0  0  0  0  0  0  0  0  0  0
    6.6532   -7.4512    3.6069 C   0  0  0  0  0  0  0  0  0  0  0  0
    4.3143   -5.1037    3.3363 C   0  0  0  0  0  0  0  0  0  0  0  0
    4.2019   -3.7523    2.9744 C   0  0  0  0  0  0  0  0  0  0  0  0
    2.6984   -0.7365    2.5845 C   0  0  0  0  0  0  0  0  0  0  0  0
    1.5214   -1.9500    2.8014 S   0  0  0  0  0  0  0  0  0  0  0  0
    0.3939   -1.2654    1.6989 C   0  0  0  0  0  0  0  0  0  0  0  0
    0.9684   -0.1223    1.1360 C   0  0  0  0  0  0  0  0  0  0  0  0
    0.6425    0.3372   -0.1892 N   0  0  0  0  0  0  0  0  0  0  0  0
    0.4608    1.7399   -0.4613 C   0  0  0  0  0  0  0  0  0  0  0  0
   -0.2159    2.5753    0.4395 C   0  0  0  0  0  0  0  0  0  0  0  0
   -0.4199    3.9248    0.1379 C   0  0  0  0  0  0  0  0  0  0  0  0
    0.0632    4.4528   -1.0703 C   0  0  0  0  0  0  0  0  0  0  0  0
   -0.1682    6.1920   -1.4587 S   0  0  0  0  0  0  0  0  0  0  0  0
   -1.7330    5.9002   -2.3552 C   0  0  0  0  0  0  0  0  0  0  0  0
    0.7738    3.6288   -1.9525 C   0  0  0  0  0  0  0  0  0  0  0  0
    0.9681    2.2832   -1.6612 C   0  0  0  0  0  0  0  0  0  0  0  0
    0.6653   -0.6340   -1.2567 C   0  0  0  0  0  0  0  0  0  0  0  0
    1.7529   -1.5283   -1.3777 C   0  0  0  0  0  0  0  0  0  0  0  0
    1.7406   -2.5305   -2.3522 C   0  0  0  0  0  0  0  0  0  0  0  0
    0.6353   -2.6735   -3.2038 C   0  0  0  0  0  0  0  0  0  0  0  0
    0.6078   -3.9769   -4.4323 S   0  0  0  0  0  0  0  0  0  0  0  0
    0.0743   -5.2510   -3.2449 C   0  0  0  0  0  0  0  0  0  0  0  0
   -0.4284   -1.7643   -3.1144 C   0  0  0  0  0  0  0  0  0  0  0  0
   -0.4080   -0.7399   -2.1621 C   0  0  0  0  0  0  0  0  0  0  0  0
    2.1863    0.1835    1.7120 C   0  0  0  0  0  0  0  0  0  0  0  0
    3.2044    1.4702    1.4809 S   0  0  0  0  0  0  0  0  0  0  0  0
   -1.0141   -1.6168    1.4121 C   0  0  0  0  0  0  0  0  0  0  0  0
   -1.7559   -2.8109    1.5826 C   0  0  0  0  0  0  0  0  0  0  0  0
   -1.3645   -3.8890    2.4301 N   0  0  0  0  0  0  0  0  0  0  0  0
   -0.5011   -4.9398    1.9576 C   0  0  0  0  0  0  0  0  0  0  0  0
    0.4032   -5.5489    2.8402 C   0  0  0  0  0  0  0  0  0  0  0  0
    1.1479   -6.6592    2.4462 C   0  0  0  0  0  0  0  0  0  0  0  0
    1.0162   -7.1697    1.1493 C   0  0  0  0  0  0  0  0  0  0  0  0
    2.0151   -8.5688    0.6376 S   0  0  0  0  0  0  0  0  0  0  0  0
    0.7921   -9.8050    1.1866 C   0  0  0  0  0  0  0  0  0  0  0  0
    0.1487   -6.5396    0.2451 C   0  0  0  0  0  0  0  0  0  0  0  0
   -0.6049   -5.4228    0.6419 C   0  0  0  0  0  0  0  0  0  0  0  0
   -1.9660   -3.9624    3.7378 C   0  0  0  0  0  0  0  0  0  0  0  0
   -2.5596   -5.1488    4.1793 C   0  0  0  0  0  0  0  0  0  0  0  0
   -3.1904   -5.2051    5.4249 C   0  0  0  0  0  0  0  0  0  0  0  0
   -3.2385   -4.0677    6.2467 C   0  0  0  0  0  0  0  0  0  0  0  0
   -4.0307   -4.1371    7.8547 S   0  0  0  0  0  0  0  0  0  0  0  0
   -5.6377   -3.5223    7.2480 C   0  0  0  0  0  0  0  0  0  0  0  0
   -2.6085   -2.8869    5.8235 C   0  0  0  0  0  0  0  0  0  0  0  0
   -1.9785   -2.8230    4.5789 C   0  0  0  0  0  0  0  0  0  0  0  0
   -3.0766   -2.6545    1.1001 C   0  0  0  0  0  0  0  0  0  0  0  0
   -4.5060   -3.5484    1.0962 S   0  0  0  0  0  0  0  0  0  0  0  0
   -5.4496   -2.3371    0.3022 C   0  0  0  0  0  0  0  0  0  0  0  0
   -4.6603   -1.1760    0.2004 C   0  0  0  0  0  0  0  0  0  0  0  0
   -5.1864    0.1641    0.3016 N   0  0  0  0  0  0  0  0  0  0  0  0
   -5.9858    0.7994   -0.7306 C   0  0  0  0  0  0  0  0  0  0  0  0
   -6.9360    1.7828   -0.3555 C   0  0  0  0  0  0  0  0  0  0  0  0
   -7.5097    2.6275   -1.3077 C   0  0  0  0  0  0  0  0  0  0  0  0
   -7.1993    2.4665   -2.6563 C   0  0  0  0  0  0  0  0  0  0  0  0
   -7.8169    3.6640   -3.8363 S   0  0  0  0  0  0  0  0  0  0  0  0
   -9.3391    2.7586   -4.2207 C   0  0  0  0  0  0  0  0  0  0  0  0
   -6.3103    1.4503   -3.0603 C   0  0  0  0  0  0  0  0  0  0  0  0
   -5.6886    0.6248   -2.0967 C   0  0  0  0  0  0  0  0  0  0  0  0
   -4.7918    0.9645    1.4482 C   0  0  0  0  0  0  0  0  0  0  0  0
   -4.3173    2.2721    1.2593 C   0  0  0  0  0  0  0  0  0  0  0  0
   -3.9551    3.0554    2.3563 C   0  0  0  0  0  0  0  0  0  0  0  0
   -4.0095    2.5277    3.6535 C   0  0  0  0  0  0  0  0  0  0  0  0
   -3.6215    3.5781    5.0565 S   0  0  0  0  0  0  0  0  0  0  0  0
   -1.8247    3.2754    5.0043 C   0  0  0  0  0  0  0  0  0  0  0  0
   -4.4588    1.2120    3.8491 C   0  0  0  0  0  0  0  0  0  0  0  0
   -4.8542    0.4276    2.7569 C   0  0  0  0  0  0  0  0  0  0  0  0
   -3.3545   -1.4442    0.5820 C   0  0  0  0  0  0  0  0  0  0  0  0
   -2.0499   -0.4511    0.7637 S   0  0  0  0  0  0  0  0  0  0  0  0
   -6.5396   -2.6271   -0.6629 C   0  0  0  0  0  0  0  0  0  0  0  0
   -6.2711   -2.9874   -1.9581 C   0  0  0  0  0  0  0  0  0  0  0  0
   -5.0260   -3.6716   -2.3476 C   0  0  0  0  0  0  0  0  0  0  0  0
   -4.3285   -4.4413   -1.6324 O   0  0  0  0  0  0  0  0  0  0  0  0
   -4.8157   -3.5101   -3.7495 C   0  0  0  0  0  0  0  0  0  0  0  0
   -3.6190   -3.8387   -4.4149 C   0  0  0  0  0  0  0  0  0  0  0  0
   -3.6049   -3.4512   -5.7350 C   0  0  0  0  0  0  0  0  0  0  0  0
   -4.7185   -2.8218   -6.3711 C   0  0  0  0  0  0  0  0  0  0  0  0
   -5.9189   -2.5541   -5.7410 C   0  0  0  0  0  0  0  0  0  0  0  0
   -5.9447   -2.8857   -4.3450 C   0  0  0  0  0  0  0  0  0  0  0  0
   -6.9458   -2.5346   -3.2653 C   0  0  0  0  0  0  0  0  0  0  0  0
   -8.0642   -1.7431   -3.4138 C   0  0  0  0  0  0  0  0  0  0  0  0
   -8.4506   -1.1892   -4.6916 C   0  0  0  0  0  0  0  0  0  0  0  0
   -8.6777   -0.7008   -5.7268 N   0  0  0  0  0  0  0  0  0  0  0  0
   -8.6018   -1.0332   -2.2776 C   0  0  0  0  0  0  0  0  0  0  0  0
   -8.7001   -0.3771   -1.3255 N   0  0  0  0  0  0  0  0  0  0  0  0
   -3.9406   -2.7184   -7.6542 C   0  0  0  0  0  0  0  0  0  0  0  0
   -4.2598   -3.7087   -8.8122 C   0  0  0  0  0  0  0  0  0  0  0  0
   -4.7748   -5.0190   -8.2571 C   0  0  0  0  0  0  0  0  0  0  0  0
   -3.7452   -5.5971   -7.6422 C   0  0  0  0  0  0  0  0  0  0  0  0
   -2.5641   -4.6583   -7.7948 C   0  0  0  0  0  0  0  0  0  0  0  0
   -2.8531   -4.1449   -9.1831 C   0  0  0  0  0  0  0  0  0  0  0  0
   -2.7994   -3.3522   -6.9796 C   0  0  0  0  0  0  0  0  0  0  0  0
    8.7370    5.0897    2.6823 H   0  0  0  0  0  0  0  0  0  0  0  0
    2.6993    6.7042    1.6503 H   0  0  0  0  0  0  0  0  0  0  0  0
    6.4411    9.4564   -0.4950 H   0  0  0  0  0  0  0  0  0  0  0  0
    3.4594    9.7318   -2.1680 H   0  0  0  0  0  0  0  0  0  0  0  0
    3.6127   12.1388   -1.2589 H   0  0  0  0  0  0  0  0  0  0  0  0
    4.1089   12.1145    1.3623 H   0  0  0  0  0  0  0  0  0  0  0  0
    2.2237   10.7238    2.5364 H   0  0  0  0  0  0  0  0  0  0  0  0
    0.4920    9.9386    0.6570 H   0  0  0  0  0  0  0  0  0  0  0  0
    1.1612   12.3274   -0.2692 H   0  0  0  0  0  0  0  0  0  0  0  0
    1.1681   11.1335   -1.6424 H   0  0  0  0  0  0  0  0  0  0  0  0
    1.7010    8.5434   -1.1571 H   0  0  0  0  0  0  0  0  0  0  0  0
    7.4173    3.4211    5.0287 H   0  0  0  0  0  0  0  0  0  0  0  0
    7.5162   -0.4967    3.7692 H   0  0  0  0  0  0  0  0  0  0  0  0
    9.2503    0.1439    2.1252 H   0  0  0  0  0  0  0  0  0  0  0  0
    8.3208    1.9784   -0.3790 H   0  0  0  0  0  0  0  0  0  0  0  0
    9.1371    1.9010   -1.9908 H   0  0  0  0  0  0  0  0  0  0  0  0
    7.5602    1.0583   -1.7533 H   0  0  0  0  0  0  0  0  0  0  0  0
    6.9203   -1.6624   -1.0275 H   0  0  0  0  0  0  0  0  0  0  0  0
    5.1551   -2.1995    0.5897 H   0  0  0  0  0  0  0  0  0  0  0  0
    6.1414   -2.3887    5.4216 H   0  0  0  0  0  0  0  0  0  0  0  0
    6.2889   -4.7620    6.0854 H   0  0  0  0  0  0  0  0  0  0  0  0
    6.2679   -7.3018    2.5727 H   0  0  0  0  0  0  0  0  0  0  0  0
    7.4901   -6.7444    3.7992 H   0  0  0  0  0  0  0  0  0  0  0  0
    7.0386   -8.4877    3.6934 H   0  0  0  0  0  0  0  0  0  0  0  0
    3.8469   -5.8594    2.7185 H   0  0  0  0  0  0  0  0  0  0  0  0
    3.6852   -3.5075    2.0486 H   0  0  0  0  0  0  0  0  0  0  0  0
   -0.6092    2.1793    1.3708 H   0  0  0  0  0  0  0  0  0  0  0  0
   -0.9511    4.5618    0.8344 H   0  0  0  0  0  0  0  0  0  0  0  0
   -2.5016    5.5016   -1.6625 H   0  0  0  0  0  0  0  0  0  0  0  0
   -1.5805    5.1965   -3.1985 H   0  0  0  0  0  0  0  0  0  0  0  0
   -2.0924    6.8696   -2.7633 H   0  0  0  0  0  0  0  0  0  0  0  0
    1.1822    4.0343   -2.8762 H   0  0  0  0  0  0  0  0  0  0  0  0
    1.5158    1.6655   -2.3624 H   0  0  0  0  0  0  0  0  0  0  0  0
    2.6065   -1.4493   -0.7067 H   0  0  0  0  0  0  0  0  0  0  0  0
    2.5823   -3.2110   -2.4148 H   0  0  0  0  0  0  0  0  0  0  0  0
    0.8857   -5.4570   -2.5160 H   0  0  0  0  0  0  0  0  0  0  0  0
   -0.1449   -6.1891   -3.7954 H   0  0  0  0  0  0  0  0  0  0  0  0
   -0.8407   -4.9364   -2.7006 H   0  0  0  0  0  0  0  0  0  0  0  0
   -1.2768   -1.8572   -3.7737 H   0  0  0  0  0  0  0  0  0  0  0  0
   -1.2415   -0.0495   -2.0926 H   0  0  0  0  0  0  0  0  0  0  0  0
    0.5017   -5.1781    3.8586 H   0  0  0  0  0  0  0  0  0  0  0  0
    1.8171   -7.1237    3.1633 H   0  0  0  0  0  0  0  0  0  0  0  0
   -0.1488   -9.7078    0.6051 H   0  0  0  0  0  0  0  0  0  0  0  0
    1.2060  -10.8208    1.0132 H   0  0  0  0  0  0  0  0  0  0  0  0
    0.5772   -9.6985    2.2722 H   0  0  0  0  0  0  0  0  0  0  0  0
    0.0364   -6.9283   -0.7617 H   0  0  0  0  0  0  0  0  0  0  0  0
   -1.3121   -4.9785   -0.0529 H   0  0  0  0  0  0  0  0  0  0  0  0
   -2.5595   -6.0379    3.5470 H   0  0  0  0  0  0  0  0  0  0  0  0
   -3.6492   -6.1306    5.7458 H   0  0  0  0  0  0  0  0  0  0  0  0
   -6.3358   -3.4431    8.1071 H   0  0  0  0  0  0  0  0  0  0  0  0
   -6.0730   -4.2200    6.5053 H   0  0  0  0  0  0  0  0  0  0  0  0
   -5.5324   -2.5090    6.8005 H   0  0  0  0  0  0  0  0  0  0  0  0
   -2.6134   -2.0079    6.4594 H   0  0  0  0  0  0  0  0  0  0  0  0
   -1.5076   -1.8999    4.2688 H   0  0  0  0  0  0  0  0  0  0  0  0
   -7.2060    1.9308    0.6802 H   0  0  0  0  0  0  0  0  0  0  0  0
   -8.1620    3.4218   -0.9698 H   0  0  0  0  0  0  0  0  0  0  0  0
  -10.0145    3.4373   -4.7907 H   0  0  0  0  0  0  0  0  0  0  0  0
   -9.0903    1.9053   -4.8941 H   0  0  0  0  0  0  0  0  0  0  0  0
   -9.8745    2.4116   -3.3110 H   0  0  0  0  0  0  0  0  0  0  0  0
   -6.0657    1.3264   -4.1067 H   0  0  0  0  0  0  0  0  0  0  0  0
   -4.9554   -0.1143   -2.4250 H   0  0  0  0  0  0  0  0  0  0  0  0
   -4.2441    2.6849    0.2630 H   0  0  0  0  0  0  0  0  0  0  0  0
   -3.6088    4.0570    2.1914 H   0  0  0  0  0  0  0  0  0  0  0  0
   -1.4380    3.2441    3.9622 H   0  0  0  0  0  0  0  0  0  0  0  0
   -1.3240    4.1188    5.5254 H   0  0  0  0  0  0  0  0  0  0  0  0
   -1.5673    2.3399    5.5383 H   0  0  0  0  0  0  0  0  0  0  0  0
   -4.5171    0.7850    4.8468 H   0  0  0  0  0  0  0  0  0  0  0  0
   -5.1929   -0.5897    2.9206 H   0  0  0  0  0  0  0  0  0  0  0  0
   -7.4909   -2.2315   -0.3809 H   0  0  0  0  0  0  0  0  0  0  0  0
   -2.7855   -4.3370   -3.9258 H   0  0  0  0  0  0  0  0  0  0  0  0
   -6.7139   -2.0911   -6.2848 H   0  0  0  0  0  0  0  0  0  0  0  0
   -3.7531   -1.6671   -7.9688 H   0  0  0  0  0  0  0  0  0  0  0  0
   -4.8644   -3.2881   -9.6426 H   0  0  0  0  0  0  0  0  0  0  0  0
   -5.7825   -5.4238   -8.3456 H   0  0  0  0  0  0  0  0  0  0  0  0
   -3.7546   -6.5818   -7.1765 H   0  0  0  0  0  0  0  0  0  0  0  0
   -1.5619   -5.1213   -7.6474 H   0  0  0  0  0  0  0  0  0  0  0  0
   -2.8303   -4.9449   -9.9685 H   0  0  0  0  0  0  0  0  0  0  0  0
   -2.1932   -3.3059   -9.5005 H   0  0  0  0  0  0  0  0  0  0  0  0
   -1.9141   -2.6813   -6.8884 H   0  0  0  0  0  0  0  0  0  0  0  0
  1  2  2  3
  2  3  1  0
  3  4  2  0
  3  5  1  0
  5  6  2  0
  6  7  1  0
  7  8  2  0
  8  9  1  0
  9 10  2  0
 10 11  1  0
 11 12  2  3
 12 13  1  0
 13 14  3  0
 12 15  1  0
 15 16  3  0
  8 17  1  0
 17 18  1  0
 18 19  1  0
 19 20  2  0
 20 21  1  0
 21 22  1  0
 21 23  1  0
  1 24  1  0
 24 25  2  0
 25 26  1  0
 26 27  1  0
 26 28  2  0
 28 29  1  0
 28 30  1  0
 30 31  2  0
 31 32  1  0
 32 33  1  0
 33 34  2  0
 34 35  1  0
 35 36  2  0
 36 37  1  0
 37 38  1  0
 36 39  1  0
 39 40  2  0
 32 41  1  0
 41 42  2  0
 42 43  1  0
 43 44  2  0
 44 45  1  0
 45 46  1  0
 44 47  1  0
 47 48  2  0
 31 49  1  0
 49 50  1  0
 50 51  1  0
 51 52  2  0
 52 53  1  0
 53 54  1  0
 54 55  2  0
 55 56  1  0
 56 57  2  0
 57 58  1  0
 58 59  1  0
 57 60  1  0
 60 61  2  0
 53 62  1  0
 62 63  2  0
 63 64  1  0
 64 65  2  0
 65 66  1  0
 66 67  1  0
 65 68  1  0
 68 69  2  0
 52 70  1  0
 70 71  1  0
 51 72  1  0
 72 73  2  0
 73 74  1  0
 74 75  1  0
 75 76  2  0
 76 77  1  0
 77 78  2  0
 78 79  1  0
 79 80  1  0
 78 81  1  0
 81 82  2  0
 74 83  1  0
 83 84  2  0
 84 85  1  0
 85 86  2  0
 86 87  1  0
 87 88  1  0
 86 89  1  0
 89 90  2  0
 73 91  1  0
 91 92  1  0
 92 93  1  0
 93 94  2  0
 94 95  1  0
 95 96  1  0
 96 97  2  0
 97 98  1  0
 98 99  2  0
 99100  1  0
100101  1  0
 99102  1  0
102103  2  0
 95104  1  0
104105  2  0
105106  1  0
106107  2  0
107108  1  0
108109  1  0
107110  1  0
110111  2  0
 94112  1  0
112113  1  0
 93114  1  0
114115  2  3
115116  1  0
116117  2  0
116118  1  0
118119  2  0
119120  1  0
120121  2  0
121122  1  0
122123  2  0
123124  1  0
124125  2  3
125126  1  0
126127  3  0
125128  1  0
128129  3  0
121130  1  0
130131  1  0
131132  1  0
132133  2  0
133134  1  0
134135  1  0
134136  1  0
 11  2  1  0
 23 17  1  0
 29 24  1  0
 71 30  1  0
113 72  1  0
124115  1  0
136130  1  0
 10  5  1  0
 22 18  1  0
 40 33  1  0
 48 41  1  0
 70 49  2  0
 82 75  1  0
 90 83  1  0
112 91  2  0
123118  1  0
135131  1  0
 23  7  1  0
 61 54  1  0
 69 62  1  0
103 96  1  0
111104  1  0
136120  1  0
  1137  1  0
  6138  1  0
  9139  1  0
 17140  1  0
 18141  1  0
 19142  1  0
 20143  1  0
 21144  1  0
 22145  1  0
 22146  1  0
 23147  1  0
 25148  1  0
 34149  1  0
 35150  1  0
 38151  1  0
 38152  1  0
 38153  1  0
 39154  1  0
 40155  1  0
 42156  1  0
 43157  1  0
 46158  1  0
 46159  1  0
 46160  1  0
 47161  1  0
 48162  1  0
 55163  1  0
 56164  1  0
 59165  1  0
 59166  1  0
 59167  1  0
 60168  1  0
 61169  1  0
 63170  1  0
 64171  1  0
 67172  1  0
 67173  1  0
 67174  1  0
 68175  1  0
 69176  1  0
 76177  1  0
 77178  1  0
 80179  1  0
 80180  1  0
 80181  1  0
 81182  1  0
 82183  1  0
 84184  1  0
 85185  1  0
 88186  1  0
 88187  1  0
 88188  1  0
 89189  1  0
 90190  1  0
 97191  1  0
 98192  1  0
101193  1  0
101194  1  0
101195  1  0
102196  1  0
103197  1  0
105198  1  0
106199  1  0
109200  1  0
109201  1  0
109202  1  0
110203  1  0
111204  1  0
114205  1  0
119206  1  0
122207  1  0
130208  1  0
131209  1  0
132210  1  0
133211  1  0
134212  1  0
135213  1  0
135214  1  0
136215  1  0
M  END

