
     RDKit          3D

174188  0  0  0  0  0  0  0  0999 V2000
   -2.1896    4.2778    4.6458 C   0  0  0  0  0  0  0  0  0  0  0  0
   -3.3058    4.5824    3.9570 C   0  0  0  0  0  0  0  0  0  0  0  0
   -3.6360    4.1251    2.5989 C   0  0  0  0  0  0  0  0  0  0  0  0
   -3.2494    3.0575    2.0506 O   0  0  0  0  0  0  0  0  0  0  0  0
   -4.5278    5.0911    1.9954 C   0  0  0  0  0  0  0  0  0  0  0  0
   -4.8663    5.1944    0.6267 C   0  0  0  0  0  0  0  0  0  0  0  0
   -5.5533    6.3494    0.3057 C   0  0  0  0  0  0  0  0  0  0  0  0
   -5.8884    7.3527    1.2704 C   0  0  0  0  0  0  0  0  0  0  0  0
   -5.5659    7.2541    2.6134 C   0  0  0  0  0  0  0  0  0  0  0  0
   -4.8712    6.0639    2.9666 C   0  0  0  0  0  0  0  0  0  0  0  0
   -4.2497    5.6947    4.2656 C   0  0  0  0  0  0  0  0  0  0  0  0
   -4.6627    6.0778    5.4979 C   0  0  0  0  0  0  0  0  0  0  0  0
   -4.1691    5.4503    6.6947 C   0  0  0  0  0  0  0  0  0  0  0  0
   -3.7713    4.9465    7.6561 N   0  0  0  0  0  0  0  0  0  0  0  0
   -5.7340    7.0246    5.6834 C   0  0  0  0  0  0  0  0  0  0  0  0
   -6.5992    7.7778    5.8398 N   0  0  0  0  0  0  0  0  0  0  0  0
   -6.4697    8.2159    0.1905 C   0  0  0  0  0  0  0  0  0  0  0  0
   -5.6446    9.4552   -0.2704 C   0  0  0  0  0  0  0  0  0  0  0  0
   -4.1648    9.1818   -0.1041 C   0  0  0  0  0  0  0  0  0  0  0  0
   -3.8498    8.2434   -0.9986 C   0  0  0  0  0  0  0  0  0  0  0  0
   -5.1234    7.9124   -1.7446 C   0  0  0  0  0  0  0  0  0  0  0  0
   -5.7471    9.2971   -1.7748 C   0  0  0  0  0  0  0  0  0  0  0  0
   -6.1253    7.1866   -0.7960 C   0  0  0  0  0  0  0  0  0  0  0  0
   -1.1475    3.3507    4.1561 C   0  0  0  0  0  0  0  0  0  0  0  0
   -0.6794    2.3061    4.9696 C   0  0  0  0  0  0  0  0  0  0  0  0
   -1.2280    2.0830    6.2375 O   0  0  0  0  0  0  0  0  0  0  0  0
   -2.5529    1.5918    6.4283 C   0  0  0  0  0  0  0  0  0  0  0  0
   -2.6804    0.1703    5.8908 C   0  0  0  0  0  0  0  0  0  0  0  0
    0.3477    1.4611    4.5213 C   0  0  0  0  0  0  0  0  0  0  0  0
    0.8043    0.4616    5.3901 O   0  0  0  0  0  0  0  0  0  0  0  0
    2.1524    0.3653    5.8325 C   0  0  0  0  0  0  0  0  0  0  0  0
    2.4980    1.5275    6.7597 C   0  0  0  0  0  0  0  0  0  0  0  0
    0.8605    1.6063    3.2089 C   0  0  0  0  0  0  0  0  0  0  0  0
    0.3939    2.6718    2.4191 C   0  0  0  0  0  0  0  0  0  0  0  0
   -0.5554    3.5629    2.9067 C   0  0  0  0  0  0  0  0  0  0  0  0
    1.6923    0.5505    2.5783 C   0  0  0  0  0  0  0  0  0  0  0  0
    2.5459    0.7299    1.4629 C   0  0  0  0  0  0  0  0  0  0  0  0
    3.1455    1.9893    1.0802 N   0  0  0  0  0  0  0  0  0  0  0  0
    3.4873    2.2329   -0.2944 C   0  0  0  0  0  0  0  0  0  0  0  0
    4.8313    2.4039   -0.6622 C   0  0  0  0  0  0  0  0  0  0  0  0
    5.1788    2.5377   -2.0114 C   0  0  0  0  0  0  0  0  0  0  0  0
    4.1835    2.5212   -2.9977 C   0  0  0  0  0  0  0  0  0  0  0  0
    4.6370    2.6406   -4.7280 S   0  0  0  0  0  0  0  0  0  0  0  0
    4.7770    0.8361   -4.9288 C   0  0  0  0  0  0  0  0  0  0  0  0
    2.8367    2.3833   -2.6269 C   0  0  0  0  0  0  0  0  0  0  0  0
    2.4894    2.2471   -1.2813 C   0  0  0  0  0  0  0  0  0  0  0  0
    3.5443    2.9522    2.0815 C   0  0  0  0  0  0  0  0  0  0  0  0
    4.0856    2.5293    3.3068 C   0  0  0  0  0  0  0  0  0  0  0  0
    4.3445    3.4510    4.3206 C   0  0  0  0  0  0  0  0  0  0  0  0
    4.0836    4.8121    4.1153 C   0  0  0  0  0  0  0  0  0  0  0  0
    4.3371    5.9824    5.4489 S   0  0  0  0  0  0  0  0  0  0  0  0
    6.1192    6.1489    5.1292 C   0  0  0  0  0  0  0  0  0  0  0  0
    3.6014    5.2489    2.8777 C   0  0  0  0  0  0  0  0  0  0  0  0
    3.3333    4.3254    1.8606 C   0  0  0  0  0  0  0  0  0  0  0  0
    2.7823   -0.4923    0.8209 C   0  0  0  0  0  0  0  0  0  0  0  0
    3.3469   -0.9181   -0.6998 S   0  0  0  0  0  0  0  0  0  0  0  0
    2.8817   -2.5476   -0.5699 C   0  0  0  0  0  0  0  0  0  0  0  0
    2.2943   -2.7614    0.6830 C   0  0  0  0  0  0  0  0  0  0  0  0
    1.9093   -4.0494    1.1860 N   0  0  0  0  0  0  0  0  0  0  0  0
    0.6109   -4.5665    0.8561 C   0  0  0  0  0  0  0  0  0  0  0  0
   -0.5280   -4.0976    1.5293 C   0  0  0  0  0  0  0  0  0  0  0  0
   -1.7833   -4.6434    1.2602 C   0  0  0  0  0  0  0  0  0  0  0  0
   -1.9190   -5.6625    0.3096 C   0  0  0  0  0  0  0  0  0  0  0  0
   -3.5335   -6.3619   -0.0371 S   0  0  0  0  0  0  0  0  0  0  0  0
   -3.9920   -5.0432   -1.2110 C   0  0  0  0  0  0  0  0  0  0  0  0
   -0.7779   -6.1562   -0.3437 C   0  0  0  0  0  0  0  0  0  0  0  0
    0.4799   -5.6151   -0.0692 C   0  0  0  0  0  0  0  0  0  0  0  0
    2.8554   -4.8323    1.9566 C   0  0  0  0  0  0  0  0  0  0  0  0
    2.4296   -5.9399    2.7159 C   0  0  0  0  0  0  0  0  0  0  0  0
    3.3451   -6.6822    3.4682 C   0  0  0  0  0  0  0  0  0  0  0  0
    4.6984   -6.3293    3.4820 C   0  0  0  0  0  0  0  0  0  0  0  0
    5.8682   -7.2731    4.4667 S   0  0  0  0  0  0  0  0  0  0  0  0
    6.3768   -8.3279    3.0729 C   0  0  0  0  0  0  0  0  0  0  0  0
    5.1364   -5.2347    2.7332 C   0  0  0  0  0  0  0  0  0  0  0  0
    4.2287   -4.4943    1.9750 C   0  0  0  0  0  0  0  0  0  0  0  0
    2.2415   -1.5850    1.4204 C   0  0  0  0  0  0  0  0  0  0  0  0
    1.3515   -1.1150    2.7508 S   0  0  0  0  0  0  0  0  0  0  0  0
    2.6990   -3.4266   -1.7292 C   0  0  0  0  0  0  0  0  0  0  0  0
    1.7347   -3.1112   -2.7081 C   0  0  0  0  0  0  0  0  0  0  0  0
    0.9844   -1.9298   -2.6423 O   0  0  0  0  0  0  0  0  0  0  0  0
   -0.1328   -1.7512   -1.7757 C   0  0  0  0  0  0  0  0  0  0  0  0
   -1.2644   -2.7038   -2.1299 C   0  0  0  0  0  0  0  0  0  0  0  0
    1.5513   -3.9592   -3.8056 C   0  0  0  0  0  0  0  0  0  0  0  0
    0.5805   -3.6250   -4.7590 O   0  0  0  0  0  0  0  0  0  0  0  0
    0.9040   -3.0967   -6.0393 C   0  0  0  0  0  0  0  0  0  0  0  0
    1.3673   -1.6506   -5.9137 C   0  0  0  0  0  0  0  0  0  0  0  0
    2.3214   -5.1340   -3.9320 C   0  0  0  0  0  0  0  0  0  0  0  0
    3.2994   -5.4243   -2.9678 C   0  0  0  0  0  0  0  0  0  0  0  0
    3.4739   -4.5850   -1.8643 C   0  0  0  0  0  0  0  0  0  0  0  0
    2.1560   -6.0340   -5.0958 C   0  0  0  0  0  0  0  0  0  0  0  0
    0.9663   -6.5112   -5.5061 C   0  0  0  0  0  0  0  0  0  0  0  0
   -0.2307   -6.6159   -4.6650 C   0  0  0  0  0  0  0  0  0  0  0  0
   -0.3284   -6.2091   -3.4837 O   0  0  0  0  0  0  0  0  0  0  0  0
   -1.2257   -7.4156   -5.3680 C   0  0  0  0  0  0  0  0  0  0  0  0
   -2.5043   -7.8326   -4.9471 C   0  0  0  0  0  0  0  0  0  0  0  0
   -3.0413   -7.5017   -3.7025 O   0  0  0  0  0  0  0  0  0  0  0  0
   -3.2698   -8.6126   -5.8178 C   0  0  0  0  0  0  0  0  0  0  0  0
   -2.7484   -9.0051   -7.0587 C   0  0  0  0  0  0  0  0  0  0  0  0
   -1.4597   -8.6168   -7.4483 C   0  0  0  0  0  0  0  0  0  0  0  0
   -0.7094   -7.7842   -6.6034 C   0  0  0  0  0  0  0  0  0  0  0  0
    0.6511   -7.1976   -6.7916 C   0  0  0  0  0  0  0  0  0  0  0  0
    1.3099   -7.0428   -7.9684 C   0  0  0  0  0  0  0  0  0  0  0  0
    2.4981   -6.2373   -8.1005 C   0  0  0  0  0  0  0  0  0  0  0  0
    3.4515   -5.5882   -8.2124 N   0  0  0  0  0  0  0  0  0  0  0  0
    0.8427   -7.6097   -9.2066 C   0  0  0  0  0  0  0  0  0  0  0  0
    0.4785   -8.0566  -10.2106 N   0  0  0  0  0  0  0  0  0  0  0  0
   -1.9894    4.7611    5.5880 H   0  0  0  0  0  0  0  0  0  0  0  0
   -4.5537    4.4730   -0.1152 H   0  0  0  0  0  0  0  0  0  0  0  0
   -5.7573    8.0675    3.2946 H   0  0  0  0  0  0  0  0  0  0  0  0
   -7.5640    8.3896    0.2886 H   0  0  0  0  0  0  0  0  0  0  0  0
   -5.9866   10.4287    0.1336 H   0  0  0  0  0  0  0  0  0  0  0  0
   -3.4731    9.6873    0.5630 H   0  0  0  0  0  0  0  0  0  0  0  0
   -2.8544    7.8590   -1.1937 H   0  0  0  0  0  0  0  0  0  0  0  0
   -4.9742    7.4339   -2.7364 H   0  0  0  0  0  0  0  0  0  0  0  0
   -6.7957    9.3063   -2.1537 H   0  0  0  0  0  0  0  0  0  0  0  0
   -5.1429   10.0467   -2.3414 H   0  0  0  0  0  0  0  0  0  0  0  0
   -7.0080    6.7302   -1.3039 H   0  0  0  0  0  0  0  0  0  0  0  0
   -2.7763    1.5878    7.5166 H   0  0  0  0  0  0  0  0  0  0  0  0
   -3.2946    2.2456    5.9293 H   0  0  0  0  0  0  0  0  0  0  0  0
   -2.6267    0.1788    4.7832 H   0  0  0  0  0  0  0  0  0  0  0  0
   -3.6580   -0.2596    6.1947 H   0  0  0  0  0  0  0  0  0  0  0  0
   -1.8632   -0.4660    6.2882 H   0  0  0  0  0  0  0  0  0  0  0  0
    2.2775   -0.5877    6.3908 H   0  0  0  0  0  0  0  0  0  0  0  0
    2.8528    0.3439    4.9784 H   0  0  0  0  0  0  0  0  0  0  0  0
    2.3871    2.4914    6.2208 H   0  0  0  0  0  0  0  0  0  0  0  0
    1.8176    1.5237    7.6363 H   0  0  0  0  0  0  0  0  0  0  0  0
    3.5468    1.4251    7.1095 H   0  0  0  0  0  0  0  0  0  0  0  0
    0.7248    2.7987    1.3994 H   0  0  0  0  0  0  0  0  0  0  0  0
   -0.8651    4.3903    2.2846 H   0  0  0  0  0  0  0  0  0  0  0  0
    5.6109    2.3850    0.0875 H   0  0  0  0  0  0  0  0  0  0  0  0
    6.2228    2.6331   -2.2894 H   0  0  0  0  0  0  0  0  0  0  0  0
    5.1026    0.6110   -5.9652 H   0  0  0  0  0  0  0  0  0  0  0  0
    5.5262    0.4268   -4.2173 H   0  0  0  0  0  0  0  0  0  0  0  0
    3.7892    0.3582   -4.7482 H   0  0  0  0  0  0  0  0  0  0  0  0
    2.0635    2.3703   -3.3870 H   0  0  0  0  0  0  0  0  0  0  0  0
    1.4500    2.1139   -1.0052 H   0  0  0  0  0  0  0  0  0  0  0  0
    4.2906    1.4777    3.4800 H   0  0  0  0  0  0  0  0  0  0  0  0
    4.7423    3.1092    5.2669 H   0  0  0  0  0  0  0  0  0  0  0  0
    6.2923    6.5127    4.0973 H   0  0  0  0  0  0  0  0  0  0  0  0
    6.5495    6.8754    5.8458 H   0  0  0  0  0  0  0  0  0  0  0  0
    6.6203    5.1684    5.2689 H   0  0  0  0  0  0  0  0  0  0  0  0
    3.4033    6.3004    2.7074 H   0  0  0  0  0  0  0  0  0  0  0  0
    2.9229    4.6713    0.9206 H   0  0  0  0  0  0  0  0  0  0  0  0
   -0.4326   -3.3256    2.2836 H   0  0  0  0  0  0  0  0  0  0  0  0
   -2.6525   -4.2744    1.7853 H   0  0  0  0  0  0  0  0  0  0  0  0
   -4.9897   -5.2767   -1.6402 H   0  0  0  0  0  0  0  0  0  0  0  0
   -3.2565   -4.9777   -2.0398 H   0  0  0  0  0  0  0  0  0  0  0  0
   -4.0490   -4.0676   -0.6850 H   0  0  0  0  0  0  0  0  0  0  0  0
   -0.8703   -6.9712   -1.0493 H   0  0  0  0  0  0  0  0  0  0  0  0
    1.3558   -6.0150   -0.5712 H   0  0  0  0  0  0  0  0  0  0  0  0
    1.3853   -6.2284    2.7395 H   0  0  0  0  0  0  0  0  0  0  0  0
    2.9992   -7.5272    4.0450 H   0  0  0  0  0  0  0  0  0  0  0  0
    5.4984   -8.8648    2.6584 H   0  0  0  0  0  0  0  0  0  0  0  0
    7.1198   -9.0701    3.4352 H   0  0  0  0  0  0  0  0  0  0  0  0
    6.8463   -7.7072    2.2811 H   0  0  0  0  0  0  0  0  0  0  0  0
    6.1850   -4.9640    2.7308 H   0  0  0  0  0  0  0  0  0  0  0  0
    4.6117   -3.6565    1.4028 H   0  0  0  0  0  0  0  0  0  0  0  0
    0.1585   -1.8948   -0.7184 H   0  0  0  0  0  0  0  0  0  0  0  0
   -0.4995   -0.7091   -1.8889 H   0  0  0  0  0  0  0  0  0  0  0  0
   -1.5375   -2.5977   -3.2003 H   0  0  0  0  0  0  0  0  0  0  0  0
   -0.9542   -3.7492   -1.9373 H   0  0  0  0  0  0  0  0  0  0  0  0
   -2.1523   -2.4776   -1.5064 H   0  0  0  0  0  0  0  0  0  0  0  0
    1.6916   -3.7074   -6.5280 H   0  0  0  0  0  0  0  0  0  0  0  0
   -0.0107   -3.1317   -6.6735 H   0  0  0  0  0  0  0  0  0  0  0  0
    1.5285   -1.2189   -6.9249 H   0  0  0  0  0  0  0  0  0  0  0  0
    0.5961   -1.0517   -5.3770 H   0  0  0  0  0  0  0  0  0  0  0  0
    2.3226   -1.6081   -5.3438 H   0  0  0  0  0  0  0  0  0  0  0  0
    3.9120   -6.3093   -3.0663 H   0  0  0  0  0  0  0  0  0  0  0  0
    4.2139   -4.8350   -1.1169 H   0  0  0  0  0  0  0  0  0  0  0  0
    3.0514   -6.2761   -5.6429 H   0  0  0  0  0  0  0  0  0  0  0  0
   -2.5195   -6.9975   -3.0016 H   0  0  0  0  0  0  0  0  0  0  0  0
   -4.2613   -8.9346   -5.5317 H   0  0  0  0  0  0  0  0  0  0  0  0
   -3.3367   -9.6339   -7.7127 H   0  0  0  0  0  0  0  0  0  0  0  0
   -1.0819   -8.9852   -8.3882 H   0  0  0  0  0  0  0  0  0  0  0  0
  1  2  2  3
  2  3  1  0
  3  4  2  0
  3  5  1  0
  5  6  2  0
  6  7  1  0
  7  8  2  0
  8  9  1  0
  9 10  2  0
 10 11  1  0
 11 12  2  3
 12 13  1  0
 13 14  3  0
 12 15  1  0
 15 16  3  0
  8 17  1  0
 17 18  1  0
 18 19  1  0
 19 20  2  0
 20 21  1  0
 21 22  1  0
 21 23  1  0
  1 24  1  0
 24 25  2  0
 25 26  1  0
 26 27  1  0
 27 28  1  0
 25 29  1  0
 29 30  1  0
 30 31  1  0
 31 32  1  0
 29 33  2  0
 33 34  1  0
 34 35  2  0
 33 36  1  0
 36 37  2  0
 37 38  1  0
 38 39  1  0
 39 40  2  0
 40 41  1  0
 41 42  2  0
 42 43  1  0
 43 44  1  0
 42 45  1  0
 45 46  2  0
 38 47  1  0
 47 48  2  0
 48 49  1  0
 49 50  2  0
 50 51  1  0
 51 52  1  0
 50 53  1  0
 53 54  2  0
 37 55  1  0
 55 56  1  0
 56 57  1  0
 57 58  2  0
 58 59  1  0
 59 60  1  0
 60 61  2  0
 61 62  1  0
 62 63  2  0
 63 64  1  0
 64 65  1  0
 63 66  1  0
 66 67  2  0
 59 68  1  0
 68 69  2  0
 69 70  1  0
 70 71  2  0
 71 72  1  0
 72 73  1  0
 71 74  1  0
 74 75  2  0
 58 76  1  0
 76 77  1  0
 57 78  1  0
 78 79  2  0
 79 80  1  0
 80 81  1  0
 81 82  1  0
 79 83  1  0
 83 84  1  0
 84 85  1  0
 85 86  1  0
 83 87  2  0
 87 88  1  0
 88 89  2  0
 87 90  1  0
 90 91  2  3
 91 92  1  0
 92 93  2  0
 92 94  1  0
 94 95  2  0
 95 96  1  0
 95 97  1  0
 97 98  2  0
 98 99  1  0
 99100  2  0
100101  1  0
101102  2  3
102103  1  0
103104  3  0
102105  1  0
105106  3  0
 11  2  1  0
 23 17  1  0
 35 24  1  0
 77 36  1  0
 89 78  1  0
101 91  1  0
 10  5  1  0
 22 18  1  0
 46 39  1  0
 54 47  1  0
 76 55  2  0
100 94  1  0
 23  7  1  0
 67 60  1  0
 75 68  1  0
  1107  1  0
  6108  1  0
  9109  1  0
 17110  1  0
 18111  1  0
 19112  1  0
 20113  1  0
 21114  1  0
 22115  1  0
 22116  1  0
 23117  1  0
 27118  1  0
 27119  1  0
 28120  1  0
 28121  1  0
 28122  1  0
 31123  1  0
 31124  1  0
 32125  1  0
 32126  1  0
 32127  1  0
 34128  1  0
 35129  1  0
 40130  1  0
 41131  1  0
 44132  1  0
 44133  1  0
 44134  1  0
 45135  1  0
 46136  1  0
 48137  1  0
 49138  1  0
 52139  1  0
 52140  1  0
 52141  1  0
 53142  1  0
 54143  1  0
 61144  1  0
 62145  1  0
 65146  1  0
 65147  1  0
 65148  1  0
 66149  1  0
 67150  1  0
 69151  1  0
 70152  1  0
 73153  1  0
 73154  1  0
 73155  1  0
 74156  1  0
 75157  1  0
 81158  1  0
 81159  1  0
 82160  1  0
 82161  1  0
 82162  1  0
 85163  1  0
 85164  1  0
 86165  1  0
 86166  1  0
 86167  1  0
 88168  1  0
 89169  1  0
 90170  1  0
 96171  1  0
 97172  1  0
 98173  1  0
 99174  1  0
M  END

