
     RDKit          3D

183204  0  0  0  0  0  0  0  0999 V2000
   -6.2562    4.9136   -3.5819 C   0  0  0  0  0  0  0  0  0  0  0  0
   -7.0062    5.3561   -2.5503 C   0  0  0  0  0  0  0  0  0  0  0  0
   -7.7580    4.5070   -1.6134 C   0  0  0  0  0  0  0  0  0  0  0  0
   -7.8234    3.2470   -1.6330 O   0  0  0  0  0  0  0  0  0  0  0  0
   -8.5983    5.3466   -0.7914 C   0  0  0  0  0  0  0  0  0  0  0  0
   -9.4195    4.9245    0.2777 C   0  0  0  0  0  0  0  0  0  0  0  0
  -10.0864    5.9520    0.9123 C   0  0  0  0  0  0  0  0  0  0  0  0
   -9.9665    7.3203    0.5155 C   0  0  0  0  0  0  0  0  0  0  0  0
   -9.1652    7.7416   -0.5325 C   0  0  0  0  0  0  0  0  0  0  0  0
   -8.4590    6.6987   -1.2018 C   0  0  0  0  0  0  0  0  0  0  0  0
   -7.4378    6.7716   -2.2939 C   0  0  0  0  0  0  0  0  0  0  0  0
   -6.8685    7.8965   -2.7992 C   0  0  0  0  0  0  0  0  0  0  0  0
   -5.6359    7.8671   -3.5435 C   0  0  0  0  0  0  0  0  0  0  0  0
   -4.6397    7.8539   -4.1288 N   0  0  0  0  0  0  0  0  0  0  0  0
   -7.3966    9.2165   -2.5693 C   0  0  0  0  0  0  0  0  0  0  0  0
   -7.8025   10.2929   -2.3993 N   0  0  0  0  0  0  0  0  0  0  0  0
  -10.8959    7.7387    1.6155 C   0  0  0  0  0  0  0  0  0  0  0  0
  -10.2425    8.4248    2.8514 C   0  0  0  0  0  0  0  0  0  0  0  0
  -11.2842    8.3808    3.9448 C   0  0  0  0  0  0  0  0  0  0  0  0
  -11.3903    7.0992    4.3187 C   0  0  0  0  0  0  0  0  0  0  0  0
  -10.4211    6.3203    3.4630 C   0  0  0  0  0  0  0  0  0  0  0  0
   -9.3078    7.3513    3.3829 C   0  0  0  0  0  0  0  0  0  0  0  0
  -11.0159    6.3357    2.0235 C   0  0  0  0  0  0  0  0  0  0  0  0
   -5.5973    3.5869   -3.6473 C   0  0  0  0  0  0  0  0  0  0  0  0
   -5.1274    2.9529   -4.8254 C   0  0  0  0  0  0  0  0  0  0  0  0
   -5.3153    3.5140   -6.2121 C   0  0  0  0  0  0  0  0  0  0  0  0
   -4.3027    4.6153   -6.5419 C   0  0  0  0  0  0  0  0  0  0  0  0
   -4.4339    1.7583   -4.5254 C   0  0  0  0  0  0  0  0  0  0  0  0
   -4.3844    1.4949   -3.1931 C   0  0  0  0  0  0  0  0  0  0  0  0
   -5.0525    2.7185   -2.2834 S   0  0  0  0  0  0  0  0  0  0  0  0
   -3.5269    0.3834   -2.9394 C   0  0  0  0  0  0  0  0  0  0  0  0
   -3.0011   -0.0328   -4.1250 C   0  0  0  0  0  0  0  0  0  0  0  0
   -3.5864    0.7399   -5.3037 C   0  0  0  0  0  0  0  0  0  0  0  0
   -4.5215   -0.1732   -6.1407 C   0  0  0  0  0  0  0  0  0  0  0  0
   -3.8340   -1.4012   -6.7480 C   0  0  0  0  0  0  0  0  0  0  0  0
   -2.4771    1.4095   -6.1601 C   0  0  0  0  0  0  0  0  0  0  0  0
   -1.5629    2.3642   -5.3771 C   0  0  0  0  0  0  0  0  0  0  0  0
   -1.8019   -0.7476   -3.9829 C   0  0  0  0  0  0  0  0  0  0  0  0
   -1.4298   -0.8716   -2.6362 C   0  0  0  0  0  0  0  0  0  0  0  0
   -2.5273   -0.0095   -1.6708 S   0  0  0  0  0  0  0  0  0  0  0  0
   -0.1188   -1.3098   -2.1430 C   0  0  0  0  0  0  0  0  0  0  0  0
    0.1316   -1.8490   -0.8662 C   0  0  0  0  0  0  0  0  0  0  0  0
   -0.8420   -2.6018   -0.1133 N   0  0  0  0  0  0  0  0  0  0  0  0
   -1.1405   -2.2432    1.2507 C   0  0  0  0  0  0  0  0  0  0  0  0
   -2.2618   -1.4485    1.5429 C   0  0  0  0  0  0  0  0  0  0  0  0
   -2.6056   -1.1679    2.8653 C   0  0  0  0  0  0  0  0  0  0  0  0
   -1.8505   -1.7024    3.9162 C   0  0  0  0  0  0  0  0  0  0  0  0
   -2.3352   -1.3961    5.6144 S   0  0  0  0  0  0  0  0  0  0  0  0
   -3.5154   -2.7854    5.6437 C   0  0  0  0  0  0  0  0  0  0  0  0
   -0.7472   -2.5193    3.6344 C   0  0  0  0  0  0  0  0  0  0  0  0
   -0.4071   -2.8051    2.3096 C   0  0  0  0  0  0  0  0  0  0  0  0
   -1.3651   -3.8359   -0.6591 C   0  0  0  0  0  0  0  0  0  0  0  0
   -2.6368   -4.3063   -0.2813 C   0  0  0  0  0  0  0  0  0  0  0  0
   -3.1276   -5.5130   -0.7899 C   0  0  0  0  0  0  0  0  0  0  0  0
   -2.3514   -6.2717   -1.6717 C   0  0  0  0  0  0  0  0  0  0  0  0
   -2.9623   -7.8423   -2.2924 S   0  0  0  0  0  0  0  0  0  0  0  0
   -2.3920   -8.7740   -0.8337 C   0  0  0  0  0  0  0  0  0  0  0  0
   -1.0906   -5.8121   -2.0606 C   0  0  0  0  0  0  0  0  0  0  0  0
   -0.6014   -4.6016   -1.5610 C   0  0  0  0  0  0  0  0  0  0  0  0
    1.5047   -1.9125   -0.6318 C   0  0  0  0  0  0  0  0  0  0  0  0
    2.4675   -2.4758    0.6106 S   0  0  0  0  0  0  0  0  0  0  0  0
    3.9496   -2.1503   -0.1638 C   0  0  0  0  0  0  0  0  0  0  0  0
    3.6732   -1.5950   -1.4309 C   0  0  0  0  0  0  0  0  0  0  0  0
    4.6441   -1.3692   -2.4646 N   0  0  0  0  0  0  0  0  0  0  0  0
    5.0064   -2.5129   -3.2567 C   0  0  0  0  0  0  0  0  0  0  0  0
    4.4012   -2.7152   -4.5082 C   0  0  0  0  0  0  0  0  0  0  0  0
    4.7273   -3.8373   -5.2741 C   0  0  0  0  0  0  0  0  0  0  0  0
    5.6673   -4.7610   -4.7999 C   0  0  0  0  0  0  0  0  0  0  0  0
    6.0698   -6.2101   -5.7769 S   0  0  0  0  0  0  0  0  0  0  0  0
    7.3806   -5.3681   -6.7185 C   0  0  0  0  0  0  0  0  0  0  0  0
    6.2781   -4.5577   -3.5558 C   0  0  0  0  0  0  0  0  0  0  0  0
    5.9472   -3.4393   -2.7854 C   0  0  0  0  0  0  0  0  0  0  0  0
    4.9673   -0.0291   -2.9185 C   0  0  0  0  0  0  0  0  0  0  0  0
    4.2891    1.1004   -2.4084 C   0  0  0  0  0  0  0  0  0  0  0  0
    4.6410    2.3887   -2.8174 C   0  0  0  0  0  0  0  0  0  0  0  0
    5.6687    2.5741   -3.7451 C   0  0  0  0  0  0  0  0  0  0  0  0
    6.1056    4.2289   -4.2810 S   0  0  0  0  0  0  0  0  0  0  0  0
    4.8905    4.2288   -5.6388 C   0  0  0  0  0  0  0  0  0  0  0  0
    6.3705    1.4695   -4.2370 C   0  0  0  0  0  0  0  0  0  0  0  0
    6.0291    0.1791   -3.8245 C   0  0  0  0  0  0  0  0  0  0  0  0
    2.2982   -1.4836   -1.6467 C   0  0  0  0  0  0  0  0  0  0  0  0
    1.3525   -0.9643   -2.9312 S   0  0  0  0  0  0  0  0  0  0  0  0
    5.2589   -2.3060    0.5190 C   0  0  0  0  0  0  0  0  0  0  0  0
    5.4722   -3.3949    1.3848 C   0  0  0  0  0  0  0  0  0  0  0  0
    6.5508   -3.4112    2.3005 C   0  0  0  0  0  0  0  0  0  0  0  0
    6.5894   -4.5570    3.1607 N   0  0  0  0  0  0  0  0  0  0  0  0
    5.3017   -5.3473    2.6551 S   0  0  0  0  0  4  0  0  0  0  0  0
    4.6045   -4.5325    1.4764 N   0  0  0  0  0  0  0  0  0  0  0  0
    7.4550   -2.3431    2.3778 C   0  0  0  0  0  0  0  0  0  0  0  0
    7.3521   -1.3269    1.4159 C   0  0  0  0  0  0  0  0  0  0  0  0
    8.2056   -0.2709    1.3778 N   0  0  0  0  0  0  0  0  0  0  0  0
    7.4999    0.6515    0.2045 S   0  0  0  0  0  0  0  0  0  0  0  0
    6.1521   -0.1792   -0.2634 N   0  0  0  0  0  0  0  0  0  0  0  0
    6.2380   -1.2878    0.5128 C   0  0  0  0  0  0  0  0  0  0  0  0
    8.3928   -2.2170    3.5105 C   0  0  0  0  0  0  0  0  0  0  0  0
    7.9968   -2.2381    4.7991 C   0  0  0  0  0  0  0  0  0  0  0  0
    8.8983   -2.5774    5.8995 C   0  0  0  0  0  0  0  0  0  0  0  0
   10.1556   -2.5330    5.8651 O   0  0  0  0  0  0  0  0  0  0  0  0
    8.1048   -3.0536    7.0147 C   0  0  0  0  0  0  0  0  0  0  0  0
    8.5751   -3.5451    8.2566 C   0  0  0  0  0  0  0  0  0  0  0  0
    7.5661   -3.9247    9.1236 C   0  0  0  0  0  0  0  0  0  0  0  0
    6.1756   -3.8514    8.7879 C   0  0  0  0  0  0  0  0  0  0  0  0
    5.7118   -3.3930    7.5688 C   0  0  0  0  0  0  0  0  0  0  0  0
    6.7292   -2.9699    6.6699 C   0  0  0  0  0  0  0  0  0  0  0  0
    6.6048   -2.3301    5.3329 C   0  0  0  0  0  0  0  0  0  0  0  0
    5.5350   -1.6158    4.8997 C   0  0  0  0  0  0  0  0  0  0  0  0
    5.6839   -0.4781    4.0320 C   0  0  0  0  0  0  0  0  0  0  0  0
    5.7831    0.4543    3.3547 N   0  0  0  0  0  0  0  0  0  0  0  0
    4.2029   -1.8331    5.3918 C   0  0  0  0  0  0  0  0  0  0  0  0
    3.1212   -1.9997    5.7714 N   0  0  0  0  0  0  0  0  0  0  0  0
    5.8015   -4.4009   10.1309 C   0  0  0  0  0  0  0  0  0  0  0  0
    5.3233   -5.8817   10.2034 C   0  0  0  0  0  0  0  0  0  0  0  0
    5.9831   -6.6948    9.1155 C   0  0  0  0  0  0  0  0  0  0  0  0
    7.2763   -6.7693    9.4292 C   0  0  0  0  0  0  0  0  0  0  0  0
    7.4535   -6.0033   10.7202 C   0  0  0  0  0  0  0  0  0  0  0  0
    6.1380   -6.3597   11.3868 C   0  0  0  0  0  0  0  0  0  0  0  0
    7.2253   -4.4802   10.4750 C   0  0  0  0  0  0  0  0  0  0  0  0
   -6.0883    5.5740   -4.4137 H   0  0  0  0  0  0  0  0  0  0  0  0
   -9.4995    3.8934    0.5941 H   0  0  0  0  0  0  0  0  0  0  0  0
   -9.1034    8.7843   -0.7712 H   0  0  0  0  0  0  0  0  0  0  0  0
  -11.8400    8.1994    1.2486 H   0  0  0  0  0  0  0  0  0  0  0  0
   -9.7876    9.4218    2.6668 H   0  0  0  0  0  0  0  0  0  0  0  0
  -11.7767    9.2248    4.4178 H   0  0  0  0  0  0  0  0  0  0  0  0
  -11.9842    6.7273    5.1481 H   0  0  0  0  0  0  0  0  0  0  0  0
  -10.1324    5.3227    3.8599 H   0  0  0  0  0  0  0  0  0  0  0  0
   -8.4796    7.0824    2.6911 H   0  0  0  0  0  0  0  0  0  0  0  0
   -8.8673    7.6055    4.3778 H   0  0  0  0  0  0  0  0  0  0  0  0
  -12.0391    5.9086    1.9206 H   0  0  0  0  0  0  0  0  0  0  0  0
   -6.3424    3.9286   -6.2978 H   0  0  0  0  0  0  0  0  0  0  0  0
   -5.2375    2.7095   -6.9709 H   0  0  0  0  0  0  0  0  0  0  0  0
   -3.2811    4.2014   -6.6330 H   0  0  0  0  0  0  0  0  0  0  0  0
   -4.2915    5.4020   -5.7627 H   0  0  0  0  0  0  0  0  0  0  0  0
   -4.5720    5.0821   -7.5108 H   0  0  0  0  0  0  0  0  0  0  0  0
   -4.9792    0.4116   -6.9656 H   0  0  0  0  0  0  0  0  0  0  0  0
   -5.3576   -0.5334   -5.5010 H   0  0  0  0  0  0  0  0  0  0  0  0
   -3.0554   -1.0996   -7.4786 H   0  0  0  0  0  0  0  0  0  0  0  0
   -3.3787   -2.0304   -5.9546 H   0  0  0  0  0  0  0  0  0  0  0  0
   -4.5873   -2.0173   -7.2807 H   0  0  0  0  0  0  0  0  0  0  0  0
   -1.8250    0.6272   -6.6048 H   0  0  0  0  0  0  0  0  0  0  0  0
   -2.9388    1.9554   -7.0094 H   0  0  0  0  0  0  0  0  0  0  0  0
   -0.9247    1.8088   -4.6655 H   0  0  0  0  0  0  0  0  0  0  0  0
   -2.1466    3.1241   -4.8201 H   0  0  0  0  0  0  0  0  0  0  0  0
   -0.8977    2.9004   -6.0910 H   0  0  0  0  0  0  0  0  0  0  0  0
   -1.1769   -1.0463   -4.8100 H   0  0  0  0  0  0  0  0  0  0  0  0
   -2.9043   -1.0908    0.7537 H   0  0  0  0  0  0  0  0  0  0  0  0
   -3.4842   -0.5674    3.0745 H   0  0  0  0  0  0  0  0  0  0  0  0
   -4.2944   -2.6471    4.8642 H   0  0  0  0  0  0  0  0  0  0  0  0
   -4.0070   -2.8251    6.6370 H   0  0  0  0  0  0  0  0  0  0  0  0
   -2.9864   -3.7422    5.4605 H   0  0  0  0  0  0  0  0  0  0  0  0
   -0.1732   -2.9565    4.4432 H   0  0  0  0  0  0  0  0  0  0  0  0
    0.4032   -3.4928    2.1085 H   0  0  0  0  0  0  0  0  0  0  0  0
   -3.2550   -3.7440    0.4039 H   0  0  0  0  0  0  0  0  0  0  0  0
   -4.1048   -5.8633   -0.4863 H   0  0  0  0  0  0  0  0  0  0  0  0
   -3.0094   -8.5084    0.0486 H   0  0  0  0  0  0  0  0  0  0  0  0
   -2.4997   -9.8588   -1.0313 H   0  0  0  0  0  0  0  0  0  0  0  0
   -1.3268   -8.5531   -0.6232 H   0  0  0  0  0  0  0  0  0  0  0  0
   -0.4835   -6.3941   -2.7429 H   0  0  0  0  0  0  0  0  0  0  0  0
    0.3894   -4.2849   -1.8637 H   0  0  0  0  0  0  0  0  0  0  0  0
    3.6704   -2.0071   -4.8813 H   0  0  0  0  0  0  0  0  0  0  0  0
    4.2513   -3.9879   -6.2331 H   0  0  0  0  0  0  0  0  0  0  0  0
    6.9546   -4.5126   -7.2832 H   0  0  0  0  0  0  0  0  0  0  0  0
    7.8296   -6.0902   -7.4348 H   0  0  0  0  0  0  0  0  0  0  0  0
    8.1705   -5.0048   -6.0294 H   0  0  0  0  0  0  0  0  0  0  0  0
    7.0132   -5.2636   -3.1884 H   0  0  0  0  0  0  0  0  0  0  0  0
    6.4326   -3.2866   -1.8315 H   0  0  0  0  0  0  0  0  0  0  0  0
    3.4945    0.9997   -1.6833 H   0  0  0  0  0  0  0  0  0  0  0  0
    4.1072    3.2424   -2.4198 H   0  0  0  0  0  0  0  0  0  0  0  0
    3.8655    4.1162   -5.2273 H   0  0  0  0  0  0  0  0  0  0  0  0
    5.1085    3.3931   -6.3361 H   0  0  0  0  0  0  0  0  0  0  0  0
    4.9619    5.1914   -6.1874 H   0  0  0  0  0  0  0  0  0  0  0  0
    7.1865    1.6120   -4.9378 H   0  0  0  0  0  0  0  0  0  0  0  0
    6.6086   -0.6552   -4.1999 H   0  0  0  0  0  0  0  0  0  0  0  0
    9.4517   -2.1792    3.2803 H   0  0  0  0  0  0  0  0  0  0  0  0
    9.6244   -3.6064    8.5167 H   0  0  0  0  0  0  0  0  0  0  0  0
    4.6561   -3.3769    7.3550 H   0  0  0  0  0  0  0  0  0  0  0  0
    5.2273   -3.6913   10.7664 H   0  0  0  0  0  0  0  0  0  0  0  0
    4.2289   -6.0206   10.2911 H   0  0  0  0  0  0  0  0  0  0  0  0
    5.5024   -7.1931    8.2818 H   0  0  0  0  0  0  0  0  0  0  0  0
    8.0283   -7.3398    8.8959 H   0  0  0  0  0  0  0  0  0  0  0  0
    8.3683   -6.2589   11.2964 H   0  0  0  0  0  0  0  0  0  0  0  0
    6.0261   -7.4491   11.5976 H   0  0  0  0  0  0  0  0  0  0  0  0
    5.9455   -5.7872   12.3242 H   0  0  0  0  0  0  0  0  0  0  0  0
    7.5182   -3.8194   11.3213 H   0  0  0  0  0  0  0  0  0  0  0  0
  1  2  2  3
  2  3  1  0
  3  4  2  0
  3  5  1  0
  5  6  2  0
  6  7  1  0
  7  8  2  0
  8  9  1  0
  9 10  2  0
 10 11  1  0
 11 12  2  3
 12 13  1  0
 13 14  3  0
 12 15  1  0
 15 16  3  0
  8 17  1  0
 17 18  1  0
 18 19  1  0
 19 20  2  0
 20 21  1  0
 21 22  1  0
 21 23  1  0
  1 24  1  0
 24 25  2  0
 25 26  1  0
 26 27  1  0
 25 28  1  0
 28 29  2  0
 29 30  1  0
 29 31  1  0
 31 32  2  0
 32 33  1  0
 33 34  1  0
 34 35  1  0
 33 36  1  0
 36 37  1  0
 32 38  1  0
 38 39  2  0
 39 40  1  0
 39 41  1  0
 41 42  2  0
 42 43  1  0
 43 44  1  0
 44 45  2  0
 45 46  1  0
 46 47  2  0
 47 48  1  0
 48 49  1  0
 47 50  1  0
 50 51  2  0
 43 52  1  0
 52 53  2  0
 53 54  1  0
 54 55  2  0
 55 56  1  0
 56 57  1  0
 55 58  1  0
 58 59  2  0
 42 60  1  0
 60 61  1  0
 61 62  1  0
 62 63  2  0
 63 64  1  0
 64 65  1  0
 65 66  2  0
 66 67  1  0
 67 68  2  0
 68 69  1  0
 69 70  1  0
 68 71  1  0
 71 72  2  0
 64 73  1  0
 73 74  2  0
 74 75  1  0
 75 76  2  0
 76 77  1  0
 77 78  1  0
 76 79  1  0
 79 80  2  0
 63 81  1  0
 81 82  1  0
 62 83  1  0
 83 84  2  0
 84 85  1  0
 85 86  1  0
 86 87  2  0
 87 88  2  0
 85 89  2  0
 89 90  1  0
 90 91  2  0
 91 92  1  0
 92 93  1  0
 93 94  2  0
 89 95  1  0
 95 96  2  3
 96 97  1  0
 97 98  2  0
 97 99  1  0
 99100  2  0
100101  1  0
101102  2  0
102103  1  0
103104  2  0
104105  1  0
105106  2  3
106107  1  0
107108  3  0
106109  1  0
109110  3  0
102111  1  0
111112  1  0
112113  1  0
113114  2  0
114115  1  0
115116  1  0
115117  1  0
 11  2  1  0
 23 17  1  0
 30 24  1  0
 40 31  1  0
 82 41  1  0
 94 83  1  0
105 96  1  0
117111  1  0
 10  5  1  0
 22 18  1  0
 33 28  1  0
 51 44  1  0
 59 52  1  0
 81 60  2  0
 88 84  1  0
 94 90  1  0
104 99  1  0
116112  1  0
 23  7  1  0
 72 65  1  0
 80 73  1  0
117101  1  0
  1118  1  0
  6119  1  0
  9120  1  0
 17121  1  0
 18122  1  0
 19123  1  0
 20124  1  0
 21125  1  0
 22126  1  0
 22127  1  0
 23128  1  0
 26129  1  0
 26130  1  0
 27131  1  0
 27132  1  0
 27133  1  0
 34134  1  0
 34135  1  0
 35136  1  0
 35137  1  0
 35138  1  0
 36139  1  0
 36140  1  0
 37141  1  0
 37142  1  0
 37143  1  0
 38144  1  0
 45145  1  0
 46146  1  0
 49147  1  0
 49148  1  0
 49149  1  0
 50150  1  0
 51151  1  0
 53152  1  0
 54153  1  0
 57154  1  0
 57155  1  0
 57156  1  0
 58157  1  0
 59158  1  0
 66159  1  0
 67160  1  0
 70161  1  0
 70162  1  0
 70163  1  0
 71164  1  0
 72165  1  0
 74166  1  0
 75167  1  0
 78168  1  0
 78169  1  0
 78170  1  0
 79171  1  0
 80172  1  0
 95173  1  0
100174  1  0
103175  1  0
111176  1  0
112177  1  0
113178  1  0
114179  1  0
115180  1  0
116181  1  0
116182  1  0
117183  1  0
M  END

