
     RDKit          3D

180199  0  0  0  0  0  0  0  0999 V2000
   -6.0990   -0.8899   -5.3445 C   0  0  0  0  0  0  0  0  0  0  0  0
   -5.9864    0.4204   -5.0620 C   0  0  0  0  0  0  0  0  0  0  0  0
   -7.1735    1.2521   -4.8444 C   0  0  0  0  0  0  0  0  0  0  0  0
   -8.2905    1.1048   -5.4090 O   0  0  0  0  0  0  0  0  0  0  0  0
   -6.8967    2.1662   -3.7468 C   0  0  0  0  0  0  0  0  0  0  0  0
   -7.8218    2.9659   -3.0375 C   0  0  0  0  0  0  0  0  0  0  0  0
   -7.2876    3.5775   -1.9167 C   0  0  0  0  0  0  0  0  0  0  0  0
   -5.9258    3.4057   -1.5034 C   0  0  0  0  0  0  0  0  0  0  0  0
   -5.0166    2.6204   -2.1865 C   0  0  0  0  0  0  0  0  0  0  0  0
   -5.5446    2.0019   -3.3506 C   0  0  0  0  0  0  0  0  0  0  0  0
   -4.8945    1.0385   -4.2637 C   0  0  0  0  0  0  0  0  0  0  0  0
   -3.5873    1.0303   -4.6092 C   0  0  0  0  0  0  0  0  0  0  0  0
   -2.5928    1.7872   -3.8955 C   0  0  0  0  0  0  0  0  0  0  0  0
   -1.7867    2.3936   -3.3289 N   0  0  0  0  0  0  0  0  0  0  0  0
   -3.1551    0.4415   -5.8531 C   0  0  0  0  0  0  0  0  0  0  0  0
   -2.8083   -0.0190   -6.8573 N   0  0  0  0  0  0  0  0  0  0  0  0
   -6.1666    4.2509   -0.2911 C   0  0  0  0  0  0  0  0  0  0  0  0
   -6.2857    3.4911    1.0626 C   0  0  0  0  0  0  0  0  0  0  0  0
   -6.8960    4.4722    2.0322 C   0  0  0  0  0  0  0  0  0  0  0  0
   -8.1691    4.6403    1.6517 C   0  0  0  0  0  0  0  0  0  0  0  0
   -8.3730    3.7646    0.4383 C   0  0  0  0  0  0  0  0  0  0  0  0
   -7.4947    2.5946    0.8490 C   0  0  0  0  0  0  0  0  0  0  0  0
   -7.5596    4.4290   -0.7123 C   0  0  0  0  0  0  0  0  0  0  0  0
   -5.3396   -1.8922   -4.5768 C   0  0  0  0  0  0  0  0  0  0  0  0
   -5.5936   -2.2224   -3.2306 C   0  0  0  0  0  0  0  0  0  0  0  0
   -6.7506   -1.7139   -2.4122 C   0  0  0  0  0  0  0  0  0  0  0  0
   -8.0342   -2.4499   -2.7745 C   0  0  0  0  0  0  0  0  0  0  0  0
   -4.5664   -3.0094   -2.7162 C   0  0  0  0  0  0  0  0  0  0  0  0
   -3.5466   -3.2749   -3.5712 C   0  0  0  0  0  0  0  0  0  0  0  0
   -3.8569   -2.5793   -5.0640 S   0  0  0  0  0  0  0  0  0  0  0  0
   -2.3862   -3.7686   -2.9886 C   0  0  0  0  0  0  0  0  0  0  0  0
   -2.5470   -3.9267   -1.6026 C   0  0  0  0  0  0  0  0  0  0  0  0
   -4.1085   -3.4053   -1.1565 S   0  0  0  0  0  0  0  0  0  0  0  0
   -1.4407   -4.0412   -0.6371 C   0  0  0  0  0  0  0  0  0  0  0  0
   -0.1607   -4.5966   -0.8652 C   0  0  0  0  0  0  0  0  0  0  0  0
    0.1950   -5.4021   -2.0118 N   0  0  0  0  0  0  0  0  0  0  0  0
    1.4403   -5.1552   -2.6889 C   0  0  0  0  0  0  0  0  0  0  0  0
    1.7501   -3.8654   -3.1503 C   0  0  0  0  0  0  0  0  0  0  0  0
    2.9701   -3.6194   -3.7860 C   0  0  0  0  0  0  0  0  0  0  0  0
    3.8912   -4.6594   -3.9613 C   0  0  0  0  0  0  0  0  0  0  0  0
    5.4582   -4.3453   -4.7749 S   0  0  0  0  0  0  0  0  0  0  0  0
    4.8537   -4.8872   -6.4026 C   0  0  0  0  0  0  0  0  0  0  0  0
    3.5864   -5.9466   -3.5028 C   0  0  0  0  0  0  0  0  0  0  0  0
    2.3620   -6.1968   -2.8782 C   0  0  0  0  0  0  0  0  0  0  0  0
   -0.7116   -6.4081   -2.5226 C   0  0  0  0  0  0  0  0  0  0  0  0
   -1.5598   -7.1201   -1.6538 C   0  0  0  0  0  0  0  0  0  0  0  0
   -2.5139   -8.0060   -2.1618 C   0  0  0  0  0  0  0  0  0  0  0  0
   -2.6252   -8.2022   -3.5419 C   0  0  0  0  0  0  0  0  0  0  0  0
   -3.8817   -9.3005   -4.1961 S   0  0  0  0  0  0  0  0  0  0  0  0
   -5.1316   -7.9833   -4.3339 C   0  0  0  0  0  0  0  0  0  0  0  0
   -1.7630   -7.5289   -4.4126 C   0  0  0  0  0  0  0  0  0  0  0  0
   -0.8098   -6.6408   -3.9082 C   0  0  0  0  0  0  0  0  0  0  0  0
    0.7550   -4.1390    0.0952 C   0  0  0  0  0  0  0  0  0  0  0  0
    2.4255   -4.0636    0.1683 S   0  0  0  0  0  0  0  0  0  0  0  0
    2.5121   -2.8335    1.3565 C   0  0  0  0  0  0  0  0  0  0  0  0
    1.1822   -2.5290    1.7278 C   0  0  0  0  0  0  0  0  0  0  0  0
    0.7697   -1.4998    2.6425 N   0  0  0  0  0  0  0  0  0  0  0  0
   -0.0412   -1.9121    3.7696 C   0  0  0  0  0  0  0  0  0  0  0  0
    0.2430   -3.1179    4.4422 C   0  0  0  0  0  0  0  0  0  0  0  0
   -0.5305   -3.5223    5.5337 C   0  0  0  0  0  0  0  0  0  0  0  0
   -1.6076   -2.7384    5.9582 C   0  0  0  0  0  0  0  0  0  0  0  0
   -2.5665   -3.2322    7.3888 S   0  0  0  0  0  0  0  0  0  0  0  0
   -1.5101   -2.3101    8.5503 C   0  0  0  0  0  0  0  0  0  0  0  0
   -1.9276   -1.5636    5.2711 C   0  0  0  0  0  0  0  0  0  0  0  0
   -1.1554   -1.1552    4.1808 C   0  0  0  0  0  0  0  0  0  0  0  0
    0.9037   -0.1028    2.2927 C   0  0  0  0  0  0  0  0  0  0  0  0
    0.7645    0.3236    0.9591 C   0  0  0  0  0  0  0  0  0  0  0  0
    0.7283    1.6882    0.6537 C   0  0  0  0  0  0  0  0  0  0  0  0
    0.8527    2.6410    1.6723 C   0  0  0  0  0  0  0  0  0  0  0  0
    0.6352    4.3875    1.3138 S   0  0  0  0  0  0  0  0  0  0  0  0
    2.3849    4.6725    0.9205 C   0  0  0  0  0  0  0  0  0  0  0  0
    1.0615    2.2246    2.9900 C   0  0  0  0  0  0  0  0  0  0  0  0
    1.0854    0.8632    3.2994 C   0  0  0  0  0  0  0  0  0  0  0  0
    0.2522   -3.2806    1.0136 C   0  0  0  0  0  0  0  0  0  0  0  0
   -1.3733   -3.0327    0.7308 S   0  0  0  0  0  0  0  0  0  0  0  0
    3.7059   -1.9552    1.5553 C   0  0  0  0  0  0  0  0  0  0  0  0
    4.5446   -1.6798    0.4487 C   0  0  0  0  0  0  0  0  0  0  0  0
    4.4095   -2.3348   -0.7309 F   0  0  0  0  0  0  0  0  0  0  0  0
    5.4759   -0.6462    0.4980 C   0  0  0  0  0  0  0  0  0  0  0  0
    6.2235   -0.3776   -0.6042 F   0  0  0  0  0  0  0  0  0  0  0  0
    5.5571    0.1815    1.6231 C   0  0  0  0  0  0  0  0  0  0  0  0
    4.8538   -0.1733    2.7829 C   0  0  0  0  0  0  0  0  0  0  0  0
    5.0157    0.5355    3.9284 N   0  0  0  0  0  0  0  0  0  0  0  0
    4.3700    0.2133    5.0793 C   0  0  0  0  0  0  0  0  0  0  0  0
    4.5956    1.0954    6.2788 C   0  0  0  0  0  0  0  0  0  0  0  0
    3.5397    2.1962    6.3452 C   0  0  0  0  0  0  0  0  0  0  0  0
    3.4812   -0.8880    5.0773 C   0  0  0  0  0  0  0  0  0  0  0  0
    3.3016   -1.5855    3.9181 N   0  0  0  0  0  0  0  0  0  0  0  0
    3.9455   -1.2559    2.7642 C   0  0  0  0  0  0  0  0  0  0  0  0
    2.7306   -1.3362    6.3079 C   0  0  0  0  0  0  0  0  0  0  0  0
    3.4071   -2.5425    6.9453 C   0  0  0  0  0  0  0  0  0  0  0  0
    6.3185    1.4468    1.5415 C   0  0  0  0  0  0  0  0  0  0  0  0
    5.9828    2.4308    0.6781 C   0  0  0  0  0  0  0  0  0  0  0  0
    4.8484    2.3760   -0.2549 C   0  0  0  0  0  0  0  0  0  0  0  0
    3.8465    1.6166   -0.1739 O   0  0  0  0  0  0  0  0  0  0  0  0
    5.0299    3.3801   -1.2716 C   0  0  0  0  0  0  0  0  0  0  0  0
    4.2290    3.5697   -2.4204 C   0  0  0  0  0  0  0  0  0  0  0  0
    4.6762    4.5755   -3.2511 C   0  0  0  0  0  0  0  0  0  0  0  0
    5.8447    5.3561   -2.9782 C   0  0  0  0  0  0  0  0  0  0  0  0
    6.6374    5.1693   -1.8555 C   0  0  0  0  0  0  0  0  0  0  0  0
    6.1848    4.1456   -0.9709 C   0  0  0  0  0  0  0  0  0  0  0  0
    6.7689    3.6563    0.3173 C   0  0  0  0  0  0  0  0  0  0  0  0
    7.6904    4.2952    1.0861 C   0  0  0  0  0  0  0  0  0  0  0  0
    8.0420    3.8471    2.4075 C   0  0  0  0  0  0  0  0  0  0  0  0
    8.3325    3.4998    3.4739 N   0  0  0  0  0  0  0  0  0  0  0  0
    8.2925    5.5450    0.7002 C   0  0  0  0  0  0  0  0  0  0  0  0
    8.7810    6.5527    0.4099 N   0  0  0  0  0  0  0  0  0  0  0  0
    5.6325    6.1399   -4.2399 C   0  0  0  0  0  0  0  0  0  0  0  0
    5.0655    7.5807   -4.0776 C   0  0  0  0  0  0  0  0  0  0  0  0
    4.5787    7.9897   -5.4479 C   0  0  0  0  0  0  0  0  0  0  0  0
    3.4893    7.2535   -5.6994 C   0  0  0  0  0  0  0  0  0  0  0  0
    3.2797    6.3730   -4.4923 C   0  0  0  0  0  0  0  0  0  0  0  0
    3.7180    7.3498   -3.4131 C   0  0  0  0  0  0  0  0  0  0  0  0
    4.4381    5.3348   -4.5187 C   0  0  0  0  0  0  0  0  0  0  0  0
   -7.0145   -1.2408   -5.8044 H   0  0  0  0  0  0  0  0  0  0  0  0
   -8.8645    3.0486   -3.3092 H   0  0  0  0  0  0  0  0  0  0  0  0
   -4.0215    2.4544   -1.8063 H   0  0  0  0  0  0  0  0  0  0  0  0
   -5.5621    5.1847   -0.2696 H   0  0  0  0  0  0  0  0  0  0  0  0
   -5.3618    2.9862    1.4153 H   0  0  0  0  0  0  0  0  0  0  0  0
   -6.4396    4.8857    2.9254 H   0  0  0  0  0  0  0  0  0  0  0  0
   -8.9179    5.2184    2.1827 H   0  0  0  0  0  0  0  0  0  0  0  0
   -9.4313    3.5206    0.2025 H   0  0  0  0  0  0  0  0  0  0  0  0
   -7.8398    2.0855    1.7822 H   0  0  0  0  0  0  0  0  0  0  0  0
   -7.3588    1.8268    0.0577 H   0  0  0  0  0  0  0  0  0  0  0  0
   -7.8379    5.4765   -0.9590 H   0  0  0  0  0  0  0  0  0  0  0  0
   -6.8879   -0.6265   -2.5729 H   0  0  0  0  0  0  0  0  0  0  0  0
   -6.5492   -1.8599   -1.3306 H   0  0  0  0  0  0  0  0  0  0  0  0
   -7.9058   -3.5445   -2.6292 H   0  0  0  0  0  0  0  0  0  0  0  0
   -8.8629   -2.1032   -2.1227 H   0  0  0  0  0  0  0  0  0  0  0  0
   -8.3096   -2.2489   -3.8295 H   0  0  0  0  0  0  0  0  0  0  0  0
   -1.4434   -3.8404   -3.5132 H   0  0  0  0  0  0  0  0  0  0  0  0
    1.0446   -3.0558   -3.0159 H   0  0  0  0  0  0  0  0  0  0  0  0
    3.2011   -2.6216   -4.1338 H   0  0  0  0  0  0  0  0  0  0  0  0
    5.6534   -4.7291   -7.1555 H   0  0  0  0  0  0  0  0  0  0  0  0
    4.5966   -5.9672   -6.3713 H   0  0  0  0  0  0  0  0  0  0  0  0
    3.9597   -4.2983   -6.6967 H   0  0  0  0  0  0  0  0  0  0  0  0
    4.2956   -6.7548   -3.6377 H   0  0  0  0  0  0  0  0  0  0  0  0
    2.1362   -7.1968   -2.5236 H   0  0  0  0  0  0  0  0  0  0  0  0
   -1.4977   -6.9730   -0.5823 H   0  0  0  0  0  0  0  0  0  0  0  0
   -3.1783   -8.5255   -1.4833 H   0  0  0  0  0  0  0  0  0  0  0  0
   -5.3597   -7.5673   -3.3313 H   0  0  0  0  0  0  0  0  0  0  0  0
   -4.7630   -7.1742   -4.9977 H   0  0  0  0  0  0  0  0  0  0  0  0
   -6.0602   -8.4092   -4.7664 H   0  0  0  0  0  0  0  0  0  0  0  0
   -1.8446   -7.6750   -5.4826 H   0  0  0  0  0  0  0  0  0  0  0  0
   -0.1800   -6.1016   -4.6037 H   0  0  0  0  0  0  0  0  0  0  0  0
    1.0855   -3.7286    4.1455 H   0  0  0  0  0  0  0  0  0  0  0  0
   -0.2797   -4.4359    6.0589 H   0  0  0  0  0  0  0  0  0  0  0  0
   -0.4652   -2.6787    8.4889 H   0  0  0  0  0  0  0  0  0  0  0  0
   -1.5397   -1.2268    8.3112 H   0  0  0  0  0  0  0  0  0  0  0  0
   -1.8867   -2.4614    9.5814 H   0  0  0  0  0  0  0  0  0  0  0  0
   -2.7730   -0.9633    5.5854 H   0  0  0  0  0  0  0  0  0  0  0  0
   -1.4369   -0.2541    3.6515 H   0  0  0  0  0  0  0  0  0  0  0  0
    0.6223   -0.3959    0.1615 H   0  0  0  0  0  0  0  0  0  0  0  0
    0.5724    2.0035   -0.3709 H   0  0  0  0  0  0  0  0  0  0  0  0
    2.6374    4.1257   -0.0069 H   0  0  0  0  0  0  0  0  0  0  0  0
    3.0335    4.3351    1.7557 H   0  0  0  0  0  0  0  0  0  0  0  0
    2.5466    5.7562    0.7497 H   0  0  0  0  0  0  0  0  0  0  0  0
    1.1588    2.9541    3.7840 H   0  0  0  0  0  0  0  0  0  0  0  0
    1.1947    0.5634    4.3331 H   0  0  0  0  0  0  0  0  0  0  0  0
    4.6075    0.5061    7.2197 H   0  0  0  0  0  0  0  0  0  0  0  0
    5.5980    1.5715    6.1958 H   0  0  0  0  0  0  0  0  0  0  0  0
    3.5278    2.7765    5.3971 H   0  0  0  0  0  0  0  0  0  0  0  0
    3.7776    2.8868    7.1793 H   0  0  0  0  0  0  0  0  0  0  0  0
    2.5316    1.7657    6.5162 H   0  0  0  0  0  0  0  0  0  0  0  0
    1.6962   -1.6061    6.0280 H   0  0  0  0  0  0  0  0  0  0  0  0
    2.6285   -0.5317    7.0621 H   0  0  0  0  0  0  0  0  0  0  0  0
    4.4352   -2.2765    7.2713 H   0  0  0  0  0  0  0  0  0  0  0  0
    3.4566   -3.3830    6.2197 H   0  0  0  0  0  0  0  0  0  0  0  0
    2.8222   -2.8703    7.8309 H   0  0  0  0  0  0  0  0  0  0  0  0
    7.1989    1.5118    2.1559 H   0  0  0  0  0  0  0  0  0  0  0  0
    3.3527    2.9749   -2.6403 H   0  0  0  0  0  0  0  0  0  0  0  0
    7.5320    5.7520   -1.7183 H   0  0  0  0  0  0  0  0  0  0  0  0
    6.4528    6.0248   -4.9826 H   0  0  0  0  0  0  0  0  0  0  0  0
    5.7356    8.3104   -3.5770 H   0  0  0  0  0  0  0  0  0  0  0  0
    4.9646    8.7868   -6.0739 H   0  0  0  0  0  0  0  0  0  0  0  0
    2.8430    7.3502   -6.5656 H   0  0  0  0  0  0  0  0  0  0  0  0
    2.2579    5.9530   -4.3829 H   0  0  0  0  0  0  0  0  0  0  0  0
    3.7825    6.9062   -2.3944 H   0  0  0  0  0  0  0  0  0  0  0  0
    3.0837    8.2683   -3.3648 H   0  0  0  0  0  0  0  0  0  0  0  0
    4.5046    4.7080   -5.4352 H   0  0  0  0  0  0  0  0  0  0  0  0
  1  2  2  3
  2  3  1  0
  3  4  2  0
  3  5  1  0
  5  6  2  0
  6  7  1  0
  7  8  2  0
  8  9  1  0
  9 10  2  0
 10 11  1  0
 11 12  2  3
 12 13  1  0
 13 14  3  0
 12 15  1  0
 15 16  3  0
  8 17  1  0
 17 18  1  0
 18 19  1  0
 19 20  2  0
 20 21  1  0
 21 22  1  0
 21 23  1  0
  1 24  1  0
 24 25  2  0
 25 26  1  0
 26 27  1  0
 25 28  1  0
 28 29  2  0
 29 30  1  0
 29 31  1  0
 31 32  2  0
 32 33  1  0
 32 34  1  0
 34 35  2  0
 35 36  1  0
 36 37  1  0
 37 38  2  0
 38 39  1  0
 39 40  2  0
 40 41  1  0
 41 42  1  0
 40 43  1  0
 43 44  2  0
 36 45  1  0
 45 46  2  0
 46 47  1  0
 47 48  2  0
 48 49  1  0
 49 50  1  0
 48 51  1  0
 51 52  2  0
 35 53  1  0
 53 54  1  0
 54 55  1  0
 55 56  2  0
 56 57  1  0
 57 58  1  0
 58 59  2  0
 59 60  1  0
 60 61  2  0
 61 62  1  0
 62 63  1  0
 61 64  1  0
 64 65  2  0
 57 66  1  0
 66 67  2  0
 67 68  1  0
 68 69  2  0
 69 70  1  0
 70 71  1  0
 69 72  1  0
 72 73  2  0
 56 74  1  0
 74 75  1  0
 55 76  1  0
 76 77  2  0
 77 78  1  0
 77 79  1  0
 79 80  1  0
 79 81  2  0
 81 82  1  0
 82 83  2  0
 83 84  1  0
 84 85  1  0
 85 86  1  0
 84 87  2  0
 87 88  1  0
 88 89  2  0
 87 90  1  0
 90 91  1  0
 81 92  1  0
 92 93  2  3
 93 94  1  0
 94 95  2  0
 94 96  1  0
 96 97  2  0
 97 98  1  0
 98 99  2  0
 99100  1  0
100101  2  0
101102  1  0
102103  2  3
103104  1  0
104105  3  0
103106  1  0
106107  3  0
 99108  1  0
108109  1  0
109110  1  0
110111  2  0
111112  1  0
112113  1  0
112114  1  0
 11  2  1  0
 23 17  1  0
 30 24  1  0
 75 34  1  0
 89 76  1  0
102 93  1  0
114108  1  0
 10  5  1  0
 22 18  1  0
 33 28  1  0
 44 37  1  0
 52 45  1  0
 74 53  2  0
 89 82  1  0
101 96  1  0
113109  1  0
 23  7  1  0
 65 58  1  0
 73 66  1  0
114 98  1  0
  1115  1  0
  6116  1  0
  9117  1  0
 17118  1  0
 18119  1  0
 19120  1  0
 20121  1  0
 21122  1  0
 22123  1  0
 22124  1  0
 23125  1  0
 26126  1  0
 26127  1  0
 27128  1  0
 27129  1  0
 27130  1  0
 31131  1  0
 38132  1  0
 39133  1  0
 42134  1  0
 42135  1  0
 42136  1  0
 43137  1  0
 44138  1  0
 46139  1  0
 47140  1  0
 50141  1  0
 50142  1  0
 50143  1  0
 51144  1  0
 52145  1  0
 59146  1  0
 60147  1  0
 63148  1  0
 63149  1  0
 63150  1  0
 64151  1  0
 65152  1  0
 67153  1  0
 68154  1  0
 71155  1  0
 71156  1  0
 71157  1  0
 72158  1  0
 73159  1  0
 85160  1  0
 85161  1  0
 86162  1  0
 86163  1  0
 86164  1  0
 90165  1  0
 90166  1  0
 91167  1  0
 91168  1  0
 91169  1  0
 92170  1  0
 97171  1  0
100172  1  0
108173  1  0
109174  1  0
110175  1  0
111176  1  0
112177  1  0
113178  1  0
113179  1  0
114180  1  0
M  END

