
     RDKit          3D

120134  0  0  0  0  0  0  0  0999 V2000
    0.0959   -6.1311    1.7212 C   0  0  0  0  0  0  0  0  0  0  0  0
   -0.2197   -6.5472    2.9285 C   0  0  0  0  0  0  0  0  0  0  0  0
   -0.8251   -5.8809    4.0351 C   0  0  0  0  0  0  0  0  0  0  0  0
   -1.3422   -4.7602    4.0194 O   0  0  0  0  0  0  0  0  0  0  0  0
   -0.7109   -6.8085    5.2546 C   0  0  0  0  0  0  0  0  0  0  0  0
   -1.2185   -6.4422    6.4991 C   0  0  0  0  0  0  0  0  0  0  0  0
   -0.9994   -7.4965    7.5264 C   0  0  0  0  0  0  0  0  0  0  0  0
   -0.4072   -8.5039    7.1035 C   0  0  0  0  0  0  0  0  0  0  0  0
    0.1132   -8.9468    5.9436 C   0  0  0  0  0  0  0  0  0  0  0  0
   -0.1073   -7.8786    4.8789 C   0  0  0  0  0  0  0  0  0  0  0  0
    0.2823   -7.9321    3.4885 C   0  0  0  0  0  0  0  0  0  0  0  0
    0.7493   -8.8867    2.8151 C   0  0  0  0  0  0  0  0  0  0  0  0
    0.9535   -9.0572    1.3239 C   0  0  0  0  0  0  0  0  0  0  0  0
    1.0767   -9.1759    0.3222 N   0  0  0  0  0  0  0  0  0  0  0  0
    1.3719   -9.9343    3.5344 C   0  0  0  0  0  0  0  0  0  0  0  0
    1.9245  -10.9036    4.1806 N   0  0  0  0  0  0  0  0  0  0  0  0
   -0.4733   -9.0488    8.5891 C   0  0  0  0  0  0  0  0  0  0  0  0
    0.7332   -8.7923    9.3785 C   0  0  0  0  0  0  0  0  0  0  0  0
    1.3816   -7.5188    9.0108 C   0  0  0  0  0  0  0  0  0  0  0  0
    0.6009   -6.4635    9.3688 C   0  0  0  0  0  0  0  0  0  0  0  0
   -0.5693   -7.0720    9.9686 C   0  0  0  0  0  0  0  0  0  0  0  0
    0.0759   -8.2877   10.6878 C   0  0  0  0  0  0  0  0  0  0  0  0
   -1.3108   -7.8070    8.8885 C   0  0  0  0  0  0  0  0  0  0  0  0
   -0.1817   -4.7567    1.4103 C   0  0  0  0  0  0  0  0  0  0  0  0
    1.2735   -3.3632    1.6845 Se  0  0  0  0  0  2  0  0  0  0  0  0
    0.0573   -2.0224    1.0902 C   0  0  0  0  0  0  0  0  0  0  0  0
   -1.4362   -2.9658    0.7507 C   0  0  0  0  0  0  0  0  0  0  0  0
   -2.1750   -1.9393    0.3679 C   0  0  0  0  0  0  0  0  0  0  0  0
   -3.2083   -2.7413   -0.1739 C   0  0  0  0  0  0  0  0  0  0  0  0
   -4.5087   -2.5511   -0.8512 C   0  0  0  0  0  0  0  0  0  0  0  0
   -4.8078   -1.0797   -0.8360 C   0  0  0  0  0  0  0  0  0  0  0  0
   -2.6465   -4.4761    0.1404 S   0  0  0  0  0  0  0  0  0  0  0  0
   -0.8786   -3.7301    1.0395 C   0  0  0  0  0  0  0  0  0  0  0  0
    0.3199   -0.6925    0.9396 C   0  0  0  0  0  0  0  0  0  0  0  0
    0.8960   -0.0477    2.0527 C   0  0  0  0  0  0  0  0  0  0  0  0
    0.8780   -0.7219    3.2293 F   0  0  0  0  0  0  0  0  0  0  0  0
    1.4306    1.1928    1.9170 C   0  0  0  0  0  0  0  0  0  0  0  0
    1.9821    1.7936    3.0282 F   0  0  0  0  0  0  0  0  0  0  0  0
    1.4434    1.8309    0.7551 C   0  0  0  0  0  0  0  0  0  0  0  0
    0.8895    1.3056   -0.3532 C   0  0  0  0  0  0  0  0  0  0  0  0
    0.7610    2.0479   -1.5137 N   0  0  0  0  0  0  0  0  0  0  0  0
    0.0848    1.4724   -2.4972 C   0  0  0  0  0  0  0  0  0  0  0  0
   -0.1059    2.3411   -3.7301 C   0  0  0  0  0  0  0  0  0  0  0  0
   -1.4700    2.9896   -3.7304 C   0  0  0  0  0  0  0  0  0  0  0  0
   -0.4999    0.2614   -2.5156 C   0  0  0  0  0  0  0  0  0  0  0  0
   -0.3525   -0.5060   -1.3039 N   0  0  0  0  0  0  0  0  0  0  0  0
    0.3060    0.0187   -0.2876 C   0  0  0  0  0  0  0  0  0  0  0  0
   -1.2970   -0.3587   -3.5396 C   0  0  0  0  0  0  0  0  0  0  0  0
   -0.5620   -0.9084   -4.7176 C   0  0  0  0  0  0  0  0  0  0  0  0
    2.1711    3.1616    0.7517 C   0  0  0  0  0  0  0  0  0  0  0  0
    3.5806    2.9091    1.0973 C   0  0  0  0  0  0  0  0  0  0  0  0
    4.0173    1.8105    1.5059 F   0  0  0  0  0  0  0  0  0  0  0  0
    4.3086    4.0831    0.8527 C   0  0  0  0  0  0  0  0  0  0  0  0
    3.9418    5.1762    0.4366 C   0  0  0  0  0  0  0  0  0  0  0  0
    2.5547    5.4239    0.1155 C   0  0  0  0  0  0  0  0  0  0  0  0
    1.7293    4.2868    0.3238 C   0  0  0  0  0  0  0  0  0  0  0  0
    4.8500    6.2819    0.0156 C   0  0  0  0  0  0  0  0  0  0  0  0
    4.6519    7.1815   -0.8157 C   0  0  0  0  0  0  0  0  0  0  0  0
    4.2950    8.1717   -1.8088 C   0  0  0  0  0  0  0  0  0  0  0  0
    4.8887    9.3377   -1.4148 O   0  0  0  0  0  0  0  0  0  0  0  0
    3.5388    8.0737   -2.9294 C   0  0  0  0  0  0  0  0  0  0  0  0
    3.0250    8.9440   -3.8597 C   0  0  0  0  0  0  0  0  0  0  0  0
    2.1203    8.5927   -4.8075 C   0  0  0  0  0  0  0  0  0  0  0  0
    1.6933    7.2099   -4.8011 C   0  0  0  0  0  0  0  0  0  0  0  0
    2.2276    6.4279   -3.9180 C   0  0  0  0  0  0  0  0  0  0  0  0
    3.1371    6.6753   -2.9452 C   0  0  0  0  0  0  0  0  0  0  0  0
    3.7593    6.1382   -1.8357 C   0  0  0  0  0  0  0  0  0  0  0  0
    4.3441    4.8810   -2.0457 C   0  0  0  0  0  0  0  0  0  0  0  0
    5.6435    4.4814   -1.5238 C   0  0  0  0  0  0  0  0  0  0  0  0
    6.6555    4.1902   -1.1223 N   0  0  0  0  0  0  0  0  0  0  0  0
    3.7524    3.9242   -2.8844 C   0  0  0  0  0  0  0  0  0  0  0  0
    3.2697    3.1151   -3.5978 N   0  0  0  0  0  0  0  0  0  0  0  0
    0.7294    7.5307   -5.9141 C   0  0  0  0  0  0  0  0  0  0  0  0
   -0.7043    7.6503   -5.4177 C   0  0  0  0  0  0  0  0  0  0  0  0
   -1.4304    8.4113   -6.4740 C   0  0  0  0  0  0  0  0  0  0  0  0
   -1.0176    9.6687   -6.3838 C   0  0  0  0  0  0  0  0  0  0  0  0
    0.0688    9.7509   -5.3942 C   0  0  0  0  0  0  0  0  0  0  0  0
   -0.5034    8.7370   -4.3695 C   0  0  0  0  0  0  0  0  0  0  0  0
    1.2434    8.9288   -5.9079 C   0  0  0  0  0  0  0  0  0  0  0  0
    0.5423   -6.7401    0.9532 H   0  0  0  0  0  0  0  0  0  0  0  0
   -1.7010   -5.5677    6.6984 H   0  0  0  0  0  0  0  0  0  0  0  0
    0.5639   -9.7857    5.7310 H   0  0  0  0  0  0  0  0  0  0  0  0
   -1.0097   -9.9808    8.5701 H   0  0  0  0  0  0  0  0  0  0  0  0
    1.4340   -9.6001    9.5861 H   0  0  0  0  0  0  0  0  0  0  0  0
    2.3464   -7.4450    8.5402 H   0  0  0  0  0  0  0  0  0  0  0  0
    0.8586   -5.4445    9.2147 H   0  0  0  0  0  0  0  0  0  0  0  0
   -1.1889   -6.5049   10.6480 H   0  0  0  0  0  0  0  0  0  0  0  0
    0.8357   -7.9954   11.4174 H   0  0  0  0  0  0  0  0  0  0  0  0
   -0.6676   -8.9832   11.0522 H   0  0  0  0  0  0  0  0  0  0  0  0
   -2.3671   -8.0650    9.1289 H   0  0  0  0  0  0  0  0  0  0  0  0
   -2.3907   -0.8973    0.2554 H   0  0  0  0  0  0  0  0  0  0  0  0
   -4.3530   -2.8289   -1.9344 H   0  0  0  0  0  0  0  0  0  0  0  0
   -5.3378   -3.1247   -0.4142 H   0  0  0  0  0  0  0  0  0  0  0  0
   -4.3354   -0.5777    0.0254 H   0  0  0  0  0  0  0  0  0  0  0  0
   -5.9088   -0.9056   -0.8004 H   0  0  0  0  0  0  0  0  0  0  0  0
   -4.4183   -0.5686   -1.7528 H   0  0  0  0  0  0  0  0  0  0  0  0
    0.6475    3.1595   -3.7558 H   0  0  0  0  0  0  0  0  0  0  0  0
   -0.0393    1.7108   -4.6549 H   0  0  0  0  0  0  0  0  0  0  0  0
   -2.0598    2.7667   -4.6513 H   0  0  0  0  0  0  0  0  0  0  0  0
   -1.3528    4.1094   -3.6389 H   0  0  0  0  0  0  0  0  0  0  0  0
   -2.0752    2.6981   -2.8642 H   0  0  0  0  0  0  0  0  0  0  0  0
   -1.9085   -1.2388   -3.0726 H   0  0  0  0  0  0  0  0  0  0  0  0
   -2.1395    0.3022   -3.9071 H   0  0  0  0  0  0  0  0  0  0  0  0
   -0.4618   -2.0336   -4.6586 H   0  0  0  0  0  0  0  0  0  0  0  0
   -1.1765   -0.6816   -5.6457 H   0  0  0  0  0  0  0  0  0  0  0  0
    0.4413   -0.5319   -4.8896 H   0  0  0  0  0  0  0  0  0  0  0  0
    5.3984    3.9163    1.1780 H   0  0  0  0  0  0  0  0  0  0  0  0
    2.2041    6.3235   -0.2003 H   0  0  0  0  0  0  0  0  0  0  0  0
    0.6577    4.4498    0.0914 H   0  0  0  0  0  0  0  0  0  0  0  0
    5.8056    6.2570    0.5834 H   0  0  0  0  0  0  0  0  0  0  0  0
    3.3941    9.9962   -3.8213 H   0  0  0  0  0  0  0  0  0  0  0  0
    1.8949    5.3354   -3.8821 H   0  0  0  0  0  0  0  0  0  0  0  0
    0.9116    6.8881   -6.7635 H   0  0  0  0  0  0  0  0  0  0  0  0
   -1.1314    6.7441   -5.0770 H   0  0  0  0  0  0  0  0  0  0  0  0
   -2.1499    7.9353   -7.1179 H   0  0  0  0  0  0  0  0  0  0  0  0
   -1.4446   10.4914   -6.9267 H   0  0  0  0  0  0  0  0  0  0  0  0
    0.3147   10.6862   -4.9659 H   0  0  0  0  0  0  0  0  0  0  0  0
   -1.4573    9.1155   -3.9622 H   0  0  0  0  0  0  0  0  0  0  0  0
    0.2445    8.4861   -3.6189 H   0  0  0  0  0  0  0  0  0  0  0  0
    1.7254    9.3370   -6.8105 H   0  0  0  0  0  0  0  0  0  0  0  0
  1  2  2  3
  2  3  1  0
  3  4  2  0
  3  5  1  0
  5  6  2  0
  6  7  1  0
  7  8  2  0
  8  9  1  0
  9 10  2  0
 10 11  1  0
 11 12  2  3
 12 13  1  0
 13 14  3  0
 12 15  1  0
 15 16  3  0
  8 17  1  0
 17 18  1  0
 18 19  1  0
 19 20  2  0
 20 21  1  0
 21 22  1  0
 21 23  1  0
  1 24  1  0
 24 25  1  0
 25 26  1  0
 26 27  2  0
 27 28  1  0
 28 29  2  0
 29 30  1  0
 30 31  1  0
 29 32  1  0
 32 33  1  0
 26 34  1  0
 34 35  2  0
 35 36  1  0
 35 37  1  0
 37 38  1  0
 37 39  2  0
 39 40  1  0
 40 41  2  0
 41 42  1  0
 42 43  1  0
 43 44  1  0
 42 45  2  0
 45 46  1  0
 46 47  2  0
 45 48  1  0
 48 49  1  0
 39 50  1  0
 50 51  2  0
 51 52  1  0
 51 53  1  0
 53 54  2  0
 54 55  1  0
 55 56  2  0
 54 57  1  0
 57 58  2  3
 58 59  1  0
 59 60  2  0
 59 61  1  0
 61 62  2  0
 62 63  1  0
 63 64  2  0
 64 65  1  0
 65 66  2  0
 66 67  1  0
 67 68  2  3
 68 69  1  0
 69 70  3  0
 68 71  1  0
 71 72  3  0
 64 73  1  0
 73 74  1  0
 74 75  1  0
 75 76  2  0
 76 77  1  0
 77 78  1  0
 77 79  1  0
 11  2  1  0
 23 17  1  0
 33 24  2  0
 47 34  1  0
 56 50  1  0
 67 58  1  0
 79 73  1  0
 10  5  1  0
 22 18  1  0
 33 27  1  0
 47 40  1  0
 66 61  1  0
 78 74  1  0
 23  7  1  0
 79 63  1  0
  1 80  1  0
  6 81  1  0
  9 82  1  0
 17 83  1  0
 18 84  1  0
 19 85  1  0
 20 86  1  0
 21 87  1  0
 22 88  1  0
 22 89  1  0
 23 90  1  0
 28 91  1  0
 30 92  1  0
 30 93  1  0
 31 94  1  0
 31 95  1  0
 31 96  1  0
 43 97  1  0
 43 98  1  0
 44 99  1  0
 44100  1  0
 44101  1  0
 48102  1  0
 48103  1  0
 49104  1  0
 49105  1  0
 49106  1  0
 53107  1  0
 55108  1  0
 56109  1  0
 57110  1  0
 62111  1  0
 65112  1  0
 73113  1  0
 74114  1  0
 75115  1  0
 76116  1  0
 77117  1  0
 78118  1  0
 78119  1  0
 79120  1  0
M  END

