
     RDKit          3D

262289  0  0  0  0  0  0  0  0999 V2000
   -3.4761   -3.9456    5.1664 C   0  0  0  0  0  0  0  0  0  0  0  0
   -2.7981   -4.6302    6.1021 C   0  0  0  0  0  0  0  0  0  0  0  0
   -1.8793   -5.7354    5.8257 C   0  0  0  0  0  0  0  0  0  0  0  0
   -1.8929   -6.4745    4.8059 O   0  0  0  0  0  0  0  0  0  0  0  0
   -0.9711   -5.8724    6.9400 C   0  0  0  0  0  0  0  0  0  0  0  0
    0.1862   -6.6790    6.9926 C   0  0  0  0  0  0  0  0  0  0  0  0
    0.9674   -6.4614    8.1100 C   0  0  0  0  0  0  0  0  0  0  0  0
    0.6388   -5.5030    9.1195 C   0  0  0  0  0  0  0  0  0  0  0  0
   -0.4934   -4.7062    9.0736 C   0  0  0  0  0  0  0  0  0  0  0  0
   -1.3297   -4.9358    7.9442 C   0  0  0  0  0  0  0  0  0  0  0  0
   -2.5663   -4.2152    7.5203 C   0  0  0  0  0  0  0  0  0  0  0  0
   -3.3612   -3.4304    8.2958 C   0  0  0  0  0  0  0  0  0  0  0  0
   -4.6189   -2.9015    7.8380 C   0  0  0  0  0  0  0  0  0  0  0  0
   -5.6322   -2.4703    7.4848 N   0  0  0  0  0  0  0  0  0  0  0  0
   -3.0601   -3.1412    9.6741 C   0  0  0  0  0  0  0  0  0  0  0  0
   -2.8300   -2.8980   10.7818 N   0  0  0  0  0  0  0  0  0  0  0  0
    1.9048   -5.8207    9.8571 C   0  0  0  0  0  0  0  0  0  0  0  0
    3.0528   -4.7747    9.7487 C   0  0  0  0  0  0  0  0  0  0  0  0
    4.3011   -5.4813   10.2222 C   0  0  0  0  0  0  0  0  0  0  0  0
    4.6049   -6.3826    9.2806 C   0  0  0  0  0  0  0  0  0  0  0  0
    3.5559   -6.2493    8.2035 C   0  0  0  0  0  0  0  0  0  0  0  0
    3.3564   -4.7443    8.2620 C   0  0  0  0  0  0  0  0  0  0  0  0
    2.2403   -6.8037    8.8246 C   0  0  0  0  0  0  0  0  0  0  0  0
   -3.2124   -4.0583    3.7249 C   0  0  0  0  0  0  0  0  0  0  0  0
   -2.0030   -3.6893    3.1087 C   0  0  0  0  0  0  0  0  0  0  0  0
   -0.7141   -3.6194    3.7486 N   0  0  0  0  0  0  0  0  0  0  0  0
   -0.4789   -2.6191    4.7661 C   0  0  0  0  0  0  0  0  0  0  0  0
   -1.0453   -1.3417    4.6494 C   0  0  0  0  0  0  0  0  0  0  0  0
   -0.7608   -0.3498    5.5910 C   0  0  0  0  0  0  0  0  0  0  0  0
    0.0790   -0.6236    6.6719 C   0  0  0  0  0  0  0  0  0  0  0  0
    0.4264    0.6558    7.8808 S   0  0  0  0  0  0  0  0  0  0  0  0
    1.6833    1.4779    6.8486 C   0  0  0  0  0  0  0  0  0  0  0  0
    0.6318   -1.8991    6.8127 C   0  0  0  0  0  0  0  0  0  0  0  0
    0.3655   -2.8886    5.8608 C   0  0  0  0  0  0  0  0  0  0  0  0
    0.3777   -4.3870    3.1714 C   0  0  0  0  0  0  0  0  0  0  0  0
    0.1141   -5.5883    2.4811 C   0  0  0  0  0  0  0  0  0  0  0  0
    1.1355   -6.2850    1.8351 C   0  0  0  0  0  0  0  0  0  0  0  0
    2.4450   -5.7979    1.8670 C   0  0  0  0  0  0  0  0  0  0  0  0
    3.7506   -6.6828    1.0128 S   0  0  0  0  0  0  0  0  0  0  0  0
    4.1427   -7.7237    2.4529 C   0  0  0  0  0  0  0  0  0  0  0  0
    2.7296   -4.6173    2.5567 C   0  0  0  0  0  0  0  0  0  0  0  0
    1.7076   -3.9147    3.2018 C   0  0  0  0  0  0  0  0  0  0  0  0
   -2.1915   -3.3889    1.7666 C   0  0  0  0  0  0  0  0  0  0  0  0
   -1.2008   -2.6750    0.6360 S   0  0  0  0  0  0  0  0  0  0  0  0
   -2.4195   -2.5478   -0.5366 C   0  0  0  0  0  0  0  0  0  0  0  0
   -3.6326   -3.0863   -0.0463 C   0  0  0  0  0  0  0  0  0  0  0  0
   -4.8299   -3.2880   -0.8440 N   0  0  0  0  0  0  0  0  0  0  0  0
   -4.7043   -3.5647   -2.2591 C   0  0  0  0  0  0  0  0  0  0  0  0
   -3.6991   -4.4292   -2.7402 C   0  0  0  0  0  0  0  0  0  0  0  0
   -3.5279   -4.6242   -4.1135 C   0  0  0  0  0  0  0  0  0  0  0  0
   -4.3863   -3.9981   -5.0229 C   0  0  0  0  0  0  0  0  0  0  0  0
   -4.1320   -4.1895   -6.7891 S   0  0  0  0  0  0  0  0  0  0  0  0
   -5.1461   -5.6961   -6.9030 C   0  0  0  0  0  0  0  0  0  0  0  0
   -5.4276   -3.1902   -4.5543 C   0  0  0  0  0  0  0  0  0  0  0  0
   -5.5870   -2.9755   -3.1826 C   0  0  0  0  0  0  0  0  0  0  0  0
   -6.1472   -3.3044   -0.2397 C   0  0  0  0  0  0  0  0  0  0  0  0
   -6.4850   -2.4007    0.7834 C   0  0  0  0  0  0  0  0  0  0  0  0
   -7.7517   -2.4261    1.3689 C   0  0  0  0  0  0  0  0  0  0  0  0
   -8.7107   -3.3404    0.9209 C   0  0  0  0  0  0  0  0  0  0  0  0
  -10.3374   -3.3866    1.6794 S   0  0  0  0  0  0  0  0  0  0  0  0
   -9.8996   -4.7335    2.8206 C   0  0  0  0  0  0  0  0  0  0  0  0
   -8.3969   -4.2280   -0.1122 C   0  0  0  0  0  0  0  0  0  0  0  0
   -7.1226   -4.2215   -0.6797 C   0  0  0  0  0  0  0  0  0  0  0  0
   -3.4546   -3.5215    1.2805 C   0  0  0  0  0  0  0  0  0  0  0  0
   -4.4492   -4.0141    2.5492 S   0  0  0  0  0  0  0  0  0  0  0  0
   -2.1801   -1.8099   -1.7724 C   0  0  0  0  0  0  0  0  0  0  0  0
   -2.2740   -0.4086   -1.8574 C   0  0  0  0  0  0  0  0  0  0  0  0
   -3.3230    0.3834   -1.2770 N   0  0  0  0  0  0  0  0  0  0  0  0
   -3.3997    0.5925    0.1449 C   0  0  0  0  0  0  0  0  0  0  0  0
   -2.2391    0.8214    0.8973 C   0  0  0  0  0  0  0  0  0  0  0  0
   -2.3219    1.0873    2.2672 C   0  0  0  0  0  0  0  0  0  0  0  0
   -3.5706    1.1160    2.9007 C   0  0  0  0  0  0  0  0  0  0  0  0
   -3.6993    1.4414    4.6591 S   0  0  0  0  0  0  0  0  0  0  0  0
   -3.7342    3.2474    4.4526 C   0  0  0  0  0  0  0  0  0  0  0  0
   -4.7325    0.8888    2.1585 C   0  0  0  0  0  0  0  0  0  0  0  0
   -4.6490    0.6420    0.7879 C   0  0  0  0  0  0  0  0  0  0  0  0
   -4.2677    1.0149   -2.1704 C   0  0  0  0  0  0  0  0  0  0  0  0
   -4.7493    2.3134   -1.9132 C   0  0  0  0  0  0  0  0  0  0  0  0
   -5.6661    2.9124   -2.7803 C   0  0  0  0  0  0  0  0  0  0  0  0
   -6.1145    2.2228   -3.9140 C   0  0  0  0  0  0  0  0  0  0  0  0
   -7.2985    2.9874   -5.0215 S   0  0  0  0  0  0  0  0  0  0  0  0
   -6.0148    3.6129   -6.1504 C   0  0  0  0  0  0  0  0  0  0  0  0
   -5.6293    0.9391   -4.1855 C   0  0  0  0  0  0  0  0  0  0  0  0
   -4.7001    0.3476   -3.3306 C   0  0  0  0  0  0  0  0  0  0  0  0
   -1.3943    0.1002   -2.8022 C   0  0  0  0  0  0  0  0  0  0  0  0
   -0.8653    1.6418   -3.1521 S   0  0  0  0  0  0  0  0  0  0  0  0
    0.3574    1.1228   -4.2233 C   0  0  0  0  0  0  0  0  0  0  0  0
    0.3082   -0.2838   -4.3389 C   0  0  0  0  0  0  0  0  0  0  0  0
    0.7312   -0.9948   -5.5241 N   0  0  0  0  0  0  0  0  0  0  0  0
    1.0637   -2.3984   -5.4281 C   0  0  0  0  0  0  0  0  0  0  0  0
    1.9470   -2.8452   -4.4363 C   0  0  0  0  0  0  0  0  0  0  0  0
    2.1739   -4.2089   -4.2428 C   0  0  0  0  0  0  0  0  0  0  0  0
    1.5121   -5.1463   -5.0408 C   0  0  0  0  0  0  0  0  0  0  0  0
    1.7386   -6.8973   -4.7340 S   0  0  0  0  0  0  0  0  0  0  0  0
    0.3209   -6.9916   -3.5961 C   0  0  0  0  0  0  0  0  0  0  0  0
    0.6537   -4.7171   -6.0567 C   0  0  0  0  0  0  0  0  0  0  0  0
    0.4269   -3.3500   -6.2497 C   0  0  0  0  0  0  0  0  0  0  0  0
    0.3988   -0.4367   -6.8171 C   0  0  0  0  0  0  0  0  0  0  0  0
   -0.8243    0.2386   -7.0113 C   0  0  0  0  0  0  0  0  0  0  0  0
   -1.1788    0.7153   -8.2721 C   0  0  0  0  0  0  0  0  0  0  0  0
   -0.3273    0.5059   -9.3611 C   0  0  0  0  0  0  0  0  0  0  0  0
   -0.8197    1.0665  -10.9929 S   0  0  0  0  0  0  0  0  0  0  0  0
   -1.7096   -0.4728  -11.3822 C   0  0  0  0  0  0  0  0  0  0  0  0
    0.8903   -0.1632   -9.1825 C   0  0  0  0  0  0  0  0  0  0  0  0
    1.2533   -0.6321   -7.9162 C   0  0  0  0  0  0  0  0  0  0  0  0
   -0.6544   -0.8057   -3.4744 C   0  0  0  0  0  0  0  0  0  0  0  0
   -1.0089   -2.3361   -2.8959 S   0  0  0  0  0  0  0  0  0  0  0  0
    1.5766    1.9352   -4.3558 C   0  0  0  0  0  0  0  0  0  0  0  0
    2.6970    1.7190   -3.5298 C   0  0  0  0  0  0  0  0  0  0  0  0
    3.1756    0.4354   -3.1014 N   0  0  0  0  0  0  0  0  0  0  0  0
    4.2853   -0.0744   -3.8724 C   0  0  0  0  0  0  0  0  0  0  0  0
    5.5496   -0.2583   -3.2835 C   0  0  0  0  0  0  0  0  0  0  0  0
    6.6337   -0.6832   -4.0609 C   0  0  0  0  0  0  0  0  0  0  0  0
    6.4705   -0.9043   -5.4304 C   0  0  0  0  0  0  0  0  0  0  0  0
    5.2289   -0.6936   -6.0307 C   0  0  0  0  0  0  0  0  0  0  0  0
    4.1452   -0.2654   -5.2574 C   0  0  0  0  0  0  0  0  0  0  0  0
    2.7971   -0.1218   -1.8110 C   0  0  0  0  0  0  0  0  0  0  0  0
    3.2994   -1.3714   -1.3777 C   0  0  0  0  0  0  0  0  0  0  0  0
    2.9417   -1.8974   -0.1334 C   0  0  0  0  0  0  0  0  0  0  0  0
    2.0689   -1.1966    0.6953 C   0  0  0  0  0  0  0  0  0  0  0  0
    1.5502    0.0265    0.2818 C   0  0  0  0  0  0  0  0  0  0  0  0
    1.9012    0.5619   -0.9601 C   0  0  0  0  0  0  0  0  0  0  0  0
    3.3399    2.8992   -3.1810 C   0  0  0  0  0  0  0  0  0  0  0  0
    4.3200    3.2669   -1.8755 S   0  0  0  0  0  0  0  0  0  0  0  0
    4.1209    4.9440   -2.0466 C   0  0  0  0  0  0  0  0  0  0  0  0
    3.3227    5.2273   -3.1798 C   0  0  0  0  0  0  0  0  0  0  0  0
    2.9831    6.5598   -3.6351 N   0  0  0  0  0  0  0  0  0  0  0  0
    1.9494    6.7688   -4.6078 C   0  0  0  0  0  0  0  0  0  0  0  0
    0.6380    7.0560   -4.1961 C   0  0  0  0  0  0  0  0  0  0  0  0
   -0.3744    7.2218   -5.1484 C   0  0  0  0  0  0  0  0  0  0  0  0
   -0.0802    7.1036   -6.5103 C   0  0  0  0  0  0  0  0  0  0  0  0
    1.2279    6.8292   -6.9244 C   0  0  0  0  0  0  0  0  0  0  0  0
    2.2413    6.6657   -5.9755 C   0  0  0  0  0  0  0  0  0  0  0  0
    3.8982    7.6472   -3.4310 C   0  0  0  0  0  0  0  0  0  0  0  0
    5.2020    7.5803   -3.9509 C   0  0  0  0  0  0  0  0  0  0  0  0
    6.1126    8.6091   -3.6918 C   0  0  0  0  0  0  0  0  0  0  0  0
    5.7230    9.7124   -2.9280 C   0  0  0  0  0  0  0  0  0  0  0  0
    4.4213    9.7921   -2.4230 C   0  0  0  0  0  0  0  0  0  0  0  0
    3.5071    8.7633   -2.6780 C   0  0  0  0  0  0  0  0  0  0  0  0
    2.8452    4.0316   -3.7394 C   0  0  0  0  0  0  0  0  0  0  0  0
    1.4933    3.6144   -4.6546 S   0  0  0  0  0  0  0  0  0  0  0  0
    4.6396    5.9203   -1.0832 C   0  0  0  0  0  0  0  0  0  0  0  0
    4.2309    6.0827    0.1943 C   0  0  0  0  0  0  0  0  0  0  0  0
    4.9405    6.9810    1.1119 C   0  0  0  0  0  0  0  0  0  0  0  0
    5.8897    7.7491    0.8007 O   0  0  0  0  0  0  0  0  0  0  0  0
    4.3955    6.8390    2.4435 C   0  0  0  0  0  0  0  0  0  0  0  0
    4.6846    7.6513    3.5675 C   0  0  0  0  0  0  0  0  0  0  0  0
    3.8304    7.4546    4.6382 C   0  0  0  0  0  0  0  0  0  0  0  0
    2.7618    6.5038    4.6159 C   0  0  0  0  0  0  0  0  0  0  0  0
    2.4855    5.6964    3.5272 C   0  0  0  0  0  0  0  0  0  0  0  0
    3.3589    5.8724    2.4133 C   0  0  0  0  0  0  0  0  0  0  0  0
    3.2049    5.3568    1.0208 C   0  0  0  0  0  0  0  0  0  0  0  0
    2.1928    4.5576    0.6127 C   0  0  0  0  0  0  0  0  0  0  0  0
    1.4680    4.8027   -0.6028 C   0  0  0  0  0  0  0  0  0  0  0  0
    0.8395    4.9926   -1.5532 N   0  0  0  0  0  0  0  0  0  0  0  0
    1.5773    3.6078    1.5032 C   0  0  0  0  0  0  0  0  0  0  0  0
    1.0781    2.8423    2.2159 N   0  0  0  0  0  0  0  0  0  0  0  0
    2.3209    6.9356    5.9794 C   0  0  0  0  0  0  0  0  0  0  0  0
    2.6596    5.9768    7.1580 C   0  0  0  0  0  0  0  0  0  0  0  0
    2.4651    6.7901    8.4154 C   0  0  0  0  0  0  0  0  0  0  0  0
    3.4558    7.6902    8.4423 C   0  0  0  0  0  0  0  0  0  0  0  0
    4.2890    7.4480    7.2039 C   0  0  0  0  0  0  0  0  0  0  0  0
    4.1789    5.9331    7.1409 C   0  0  0  0  0  0  0  0  0  0  0  0
    3.4126    7.9143    6.0062 C   0  0  0  0  0  0  0  0  0  0  0  0
   -4.0995   -3.1100    5.4290 H   0  0  0  0  0  0  0  0  0  0  0  0
    0.4762   -7.3545    6.2022 H   0  0  0  0  0  0  0  0  0  0  0  0
   -0.6551   -3.9442    9.8154 H   0  0  0  0  0  0  0  0  0  0  0  0
    1.7348   -6.2436   10.8719 H   0  0  0  0  0  0  0  0  0  0  0  0
    2.8540   -3.7923   10.2256 H   0  0  0  0  0  0  0  0  0  0  0  0
    4.8955   -5.2540   11.1019 H   0  0  0  0  0  0  0  0  0  0  0  0
    5.4873   -7.0162    9.2622 H   0  0  0  0  0  0  0  0  0  0  0  0
    3.8379   -6.6604    7.2119 H   0  0  0  0  0  0  0  0  0  0  0  0
    4.2764   -4.1645    8.0081 H   0  0  0  0  0  0  0  0  0  0  0  0
    2.5193   -4.3732    7.6320 H   0  0  0  0  0  0  0  0  0  0  0  0
    2.2768   -7.8577    9.1790 H   0  0  0  0  0  0  0  0  0  0  0  0
   -1.6896   -1.1061    3.8161 H   0  0  0  0  0  0  0  0  0  0  0  0
   -1.1608    0.6433    5.4659 H   0  0  0  0  0  0  0  0  0  0  0  0
    2.2074    2.2417    7.4566 H   0  0  0  0  0  0  0  0  0  0  0  0
    1.1907    1.9761    5.9875 H   0  0  0  0  0  0  0  0  0  0  0  0
    2.4249    0.7395    6.4806 H   0  0  0  0  0  0  0  0  0  0  0  0
    1.2742   -2.1188    7.6521 H   0  0  0  0  0  0  0  0  0  0  0  0
    0.8172   -3.8653    5.9721 H   0  0  0  0  0  0  0  0  0  0  0  0
   -0.8893   -5.9842    2.4209 H   0  0  0  0  0  0  0  0  0  0  0  0
    0.9069   -7.1947    1.2965 H   0  0  0  0  0  0  0  0  0  0  0  0
    3.2353   -8.2691    2.7902 H   0  0  0  0  0  0  0  0  0  0  0  0
    4.5305   -7.0936    3.2811 H   0  0  0  0  0  0  0  0  0  0  0  0
    4.9186   -8.4628    2.1665 H   0  0  0  0  0  0  0  0  0  0  0  0
    3.7402   -4.2327    2.5828 H   0  0  0  0  0  0  0  0  0  0  0  0
    1.9593   -2.9890    3.7000 H   0  0  0  0  0  0  0  0  0  0  0  0
   -3.0226   -4.9186   -2.0517 H   0  0  0  0  0  0  0  0  0  0  0  0
   -2.7194   -5.2497   -4.4701 H   0  0  0  0  0  0  0  0  0  0  0  0
   -6.1391   -5.5382   -6.4326 H   0  0  0  0  0  0  0  0  0  0  0  0
   -5.2952   -5.9517   -7.9717 H   0  0  0  0  0  0  0  0  0  0  0  0
   -4.6211   -6.5342   -6.4000 H   0  0  0  0  0  0  0  0  0  0  0  0
   -6.0990   -2.7064   -5.2545 H   0  0  0  0  0  0  0  0  0  0  0  0
   -6.3759   -2.3171   -2.8414 H   0  0  0  0  0  0  0  0  0  0  0  0
   -5.7494   -1.7106    1.1612 H   0  0  0  0  0  0  0  0  0  0  0  0
   -7.9844   -1.7408    2.1736 H   0  0  0  0  0  0  0  0  0  0  0  0
  -10.7971   -5.0171    3.4079 H   0  0  0  0  0  0  0  0  0  0  0  0
   -9.5549   -5.6205    2.2487 H   0  0  0  0  0  0  0  0  0  0  0  0
   -9.0997   -4.4007    3.5149 H   0  0  0  0  0  0  0  0  0  0  0  0
   -9.1348   -4.9364   -0.4653 H   0  0  0  0  0  0  0  0  0  0  0  0
   -6.8941   -4.9365   -1.4588 H   0  0  0  0  0  0  0  0  0  0  0  0
   -1.2797    0.8336    0.4055 H   0  0  0  0  0  0  0  0  0  0  0  0
   -1.4179    1.2777    2.8311 H   0  0  0  0  0  0  0  0  0  0  0  0
   -4.6066    3.5398    3.8314 H   0  0  0  0  0  0  0  0  0  0  0  0
   -3.8252    3.7226    5.4505 H   0  0  0  0  0  0  0  0  0  0  0  0
   -2.7949    3.5963    3.9742 H   0  0  0  0  0  0  0  0  0  0  0  0
   -5.7012    0.9107    2.6413 H   0  0  0  0  0  0  0  0  0  0  0  0
   -5.5604    0.4885    0.2241 H   0  0  0  0  0  0  0  0  0  0  0  0
   -4.4062    2.8655   -1.0473 H   0  0  0  0  0  0  0  0  0  0  0  0
   -6.0279    3.9095   -2.5719 H   0  0  0  0  0  0  0  0  0  0  0  0
   -5.2831    4.2379   -5.5987 H   0  0  0  0  0  0  0  0  0  0  0  0
   -6.4947    4.2258   -6.9389 H   0  0  0  0  0  0  0  0  0  0  0  0
   -5.4885    2.7604   -6.6293 H   0  0  0  0  0  0  0  0  0  0  0  0
   -5.9622    0.4008   -5.0659 H   0  0  0  0  0  0  0  0  0  0  0  0
   -4.3163   -0.6327   -3.5741 H   0  0  0  0  0  0  0  0  0  0  0  0
    2.4342   -2.1355   -3.7960 H   0  0  0  0  0  0  0  0  0  0  0  0
    2.8431   -4.5343   -3.4564 H   0  0  0  0  0  0  0  0  0  0  0  0
    0.4484   -6.2775   -2.7574 H   0  0  0  0  0  0  0  0  0  0  0  0
    0.2488   -8.0188   -3.1859 H   0  0  0  0  0  0  0  0  0  0  0  0
   -0.6155   -6.7573   -4.1434 H   0  0  0  0  0  0  0  0  0  0  0  0
    0.1363   -5.4387   -6.6775 H   0  0  0  0  0  0  0  0  0  0  0  0
   -0.2745   -3.0402   -7.0131 H   0  0  0  0  0  0  0  0  0  0  0  0
   -1.5218    0.3645   -6.1943 H   0  0  0  0  0  0  0  0  0  0  0  0
   -2.1257    1.2225   -8.4070 H   0  0  0  0  0  0  0  0  0  0  0  0
   -1.0099   -1.3350  -11.3591 H   0  0  0  0  0  0  0  0  0  0  0  0
   -2.1506   -0.3912  -12.3985 H   0  0  0  0  0  0  0  0  0  0  0  0
   -2.5281   -0.6341  -10.6496 H   0  0  0  0  0  0  0  0  0  0  0  0
    1.5471   -0.3315  -10.0277 H   0  0  0  0  0  0  0  0  0  0  0  0
    2.1888   -1.1617   -7.7956 H   0  0  0  0  0  0  0  0  0  0  0  0
    5.6954   -0.0610   -2.2312 H   0  0  0  0  0  0  0  0  0  0  0  0
    7.6013   -0.8289   -3.6013 H   0  0  0  0  0  0  0  0  0  0  0  0
    7.3124   -1.2286   -6.0311 H   0  0  0  0  0  0  0  0  0  0  0  0
    5.1061   -0.8472   -7.0946 H   0  0  0  0  0  0  0  0  0  0  0  0
    3.2003   -0.0727   -5.7424 H   0  0  0  0  0  0  0  0  0  0  0  0
    3.9682   -1.9540   -1.9955 H   0  0  0  0  0  0  0  0  0  0  0  0
    3.3421   -2.8501    0.1870 H   0  0  0  0  0  0  0  0  0  0  0  0
    1.7890   -1.5979    1.6580 H   0  0  0  0  0  0  0  0  0  0  0  0
    0.8833    0.5642    0.9358 H   0  0  0  0  0  0  0  0  0  0  0  0
    1.4781    1.5149   -1.2440 H   0  0  0  0  0  0  0  0  0  0  0  0
    0.4066    7.1547   -3.1435 H   0  0  0  0  0  0  0  0  0  0  0  0
   -1.3847    7.4423   -4.8279 H   0  0  0  0  0  0  0  0  0  0  0  0
   -0.8632    7.2282   -7.2471 H   0  0  0  0  0  0  0  0  0  0  0  0
    1.4544    6.7335   -7.9777 H   0  0  0  0  0  0  0  0  0  0  0  0
    3.2471    6.4407   -6.3018 H   0  0  0  0  0  0  0  0  0  0  0  0
    5.5124    6.7226   -4.5339 H   0  0  0  0  0  0  0  0  0  0  0  0
    7.1211    8.5461   -4.0822 H   0  0  0  0  0  0  0  0  0  0  0  0
    6.4328   10.5059   -2.7256 H   0  0  0  0  0  0  0  0  0  0  0  0
    4.1238   10.6481   -1.8323 H   0  0  0  0  0  0  0  0  0  0  0  0
    2.5056    8.8230   -2.2707 H   0  0  0  0  0  0  0  0  0  0  0  0
    5.4581    6.5351   -1.4343 H   0  0  0  0  0  0  0  0  0  0  0  0
    5.4462    8.4194    3.5655 H   0  0  0  0  0  0  0  0  0  0  0  0
    1.6099    5.0679    3.5372 H   0  0  0  0  0  0  0  0  0  0  0  0
    1.3005    7.3780    5.9933 H   0  0  0  0  0  0  0  0  0  0  0  0
    2.1406    4.9948    7.1446 H   0  0  0  0  0  0  0  0  0  0  0  0
    1.7273    6.6352    9.1950 H   0  0  0  0  0  0  0  0  0  0  0  0
    3.6577    8.3896    9.2474 H   0  0  0  0  0  0  0  0  0  0  0  0
    5.3183    7.8617    7.2375 H   0  0  0  0  0  0  0  0  0  0  0  0
    4.6166    5.4201    8.0313 H   0  0  0  0  0  0  0  0  0  0  0  0
    4.6112    5.4829    6.2215 H   0  0  0  0  0  0  0  0  0  0  0  0
    3.0776    8.9753    6.0380 H   0  0  0  0  0  0  0  0  0  0  0  0
  1  2  2  3
  2  3  1  0
  3  4  2  0
  3  5  1  0
  5  6  2  0
  6  7  1  0
  7  8  2  0
  8  9  1  0
  9 10  2  0
 10 11  1  0
 11 12  2  3
 12 13  1  0
 13 14  3  0
 12 15  1  0
 15 16  3  0
  8 17  1  0
 17 18  1  0
 18 19  1  0
 19 20  2  0
 20 21  1  0
 21 22  1  0
 21 23  1  0
  1 24  1  0
 24 25  2  0
 25 26  1  0
 26 27  1  0
 27 28  2  0
 28 29  1  0
 29 30  2  0
 30 31  1  0
 31 32  1  0
 30 33  1  0
 33 34  2  0
 26 35  1  0
 35 36  2  0
 36 37  1  0
 37 38  2  0
 38 39  1  0
 39 40  1  0
 38 41  1  0
 41 42  2  0
 25 43  1  0
 43 44  1  0
 44 45  1  0
 45 46  2  0
 46 47  1  0
 47 48  1  0
 48 49  2  0
 49 50  1  0
 50 51  2  0
 51 52  1  0
 52 53  1  0
 51 54  1  0
 54 55  2  0
 47 56  1  0
 56 57  2  0
 57 58  1  0
 58 59  2  0
 59 60  1  0
 60 61  1  0
 59 62  1  0
 62 63  2  0
 46 64  1  0
 64 65  1  0
 45 66  1  0
 66 67  2  0
 67 68  1  0
 68 69  1  0
 69 70  2  0
 70 71  1  0
 71 72  2  0
 72 73  1  0
 73 74  1  0
 72 75  1  0
 75 76  2  0
 68 77  1  0
 77 78  2  0
 78 79  1  0
 79 80  2  0
 80 81  1  0
 81 82  1  0
 80 83  1  0
 83 84  2  0
 67 85  1  0
 85 86  1  0
 86 87  1  0
 87 88  2  0
 88 89  1  0
 89 90  1  0
 90 91  2  0
 91 92  1  0
 92 93  2  0
 93 94  1  0
 94 95  1  0
 93 96  1  0
 96 97  2  0
 89 98  1  0
 98 99  2  0
 99100  1  0
100101  2  0
101102  1  0
102103  1  0
101104  1  0
104105  2  0
 88106  1  0
106107  1  0
 87108  1  0
108109  2  0
109110  1  0
110111  1  0
111112  2  0
112113  1  0
113114  2  0
114115  1  0
115116  2  0
110117  1  0
117118  2  0
118119  1  0
119120  2  0
120121  1  0
121122  2  0
109123  1  0
123124  1  0
124125  1  0
125126  2  0
126127  1  0
127128  1  0
128129  2  0
129130  1  0
130131  2  0
131132  1  0
132133  2  0
127134  1  0
134135  2  0
135136  1  0
136137  2  0
137138  1  0
138139  2  0
126140  1  0
140141  1  0
125142  1  0
142143  2  3
143144  1  0
144145  2  0
144146  1  0
146147  2  0
147148  1  0
148149  2  0
149150  1  0
150151  2  0
151152  1  0
152153  2  3
153154  1  0
154155  3  0
153156  1  0
156157  3  0
149158  1  0
158159  1  0
159160  1  0
160161  2  0
161162  1  0
162163  1  0
162164  1  0
 11  2  1  0
 23 17  1  0
 65 24  1  0
107 66  1  0
141108  1  0
152143  1  0
164158  1  0
 10  5  1  0
 22 18  1  0
 34 27  1  0
 42 35  1  0
 64 43  2  0
 76 69  1  0
 84 77  1  0
106 85  2  0
116111  1  0
122117  1  0
140123  2  0
151146  1  0
163159  1  0
 23  7  1  0
 55 48  1  0
 63 56  1  0
 97 90  1  0
105 98  1  0
133128  1  0
139134  1  0
164148  1  0
  1165  1  0
  6166  1  0
  9167  1  0
 17168  1  0
 18169  1  0
 19170  1  0
 20171  1  0
 21172  1  0
 22173  1  0
 22174  1  0
 23175  1  0
 28176  1  0
 29177  1  0
 32178  1  0
 32179  1  0
 32180  1  0
 33181  1  0
 34182  1  0
 36183  1  0
 37184  1  0
 40185  1  0
 40186  1  0
 40187  1  0
 41188  1  0
 42189  1  0
 49190  1  0
 50191  1  0
 53192  1  0
 53193  1  0
 53194  1  0
 54195  1  0
 55196  1  0
 57197  1  0
 58198  1  0
 61199  1  0
 61200  1  0
 61201  1  0
 62202  1  0
 63203  1  0
 70204  1  0
 71205  1  0
 74206  1  0
 74207  1  0
 74208  1  0
 75209  1  0
 76210  1  0
 78211  1  0
 79212  1  0
 82213  1  0
 82214  1  0
 82215  1  0
 83216  1  0
 84217  1  0
 91218  1  0
 92219  1  0
 95220  1  0
 95221  1  0
 95222  1  0
 96223  1  0
 97224  1  0
 99225  1  0
100226  1  0
103227  1  0
103228  1  0
103229  1  0
104230  1  0
105231  1  0
112232  1  0
113233  1  0
114234  1  0
115235  1  0
116236  1  0
118237  1  0
119238  1  0
120239  1  0
121240  1  0
122241  1  0
129242  1  0
130243  1  0
131244  1  0
132245  1  0
133246  1  0
135247  1  0
136248  1  0
137249  1  0
138250  1  0
139251  1  0
142252  1  0
147253  1  0
150254  1  0
158255  1  0
159256  1  0
160257  1  0
161258  1  0
162259  1  0
163260  1  0
163261  1  0
164262  1  0
M  END

