
     RDKit          3D

212233  0  0  0  0  0  0  0  0999 V2000
   -5.1316   -0.9651   -2.6305 C   0  0  0  0  0  0  0  0  0  0  0  0
   -4.8928   -1.1317   -3.9651 C   0  0  0  0  0  0  0  0  0  0  0  0
   -3.6398   -0.9004   -4.7123 C   0  0  0  0  0  0  0  0  0  0  0  0
   -2.4901   -0.8553   -4.2351 O   0  0  0  0  0  0  0  0  0  0  0  0
   -3.9298   -0.9160   -6.1197 C   0  0  0  0  0  0  0  0  0  0  0  0
   -2.9947   -0.8404   -7.2185 C   0  0  0  0  0  0  0  0  0  0  0  0
   -3.5163   -1.1871   -8.4306 C   0  0  0  0  0  0  0  0  0  0  0  0
   -4.8787   -1.6426   -8.6095 C   0  0  0  0  0  0  0  0  0  0  0  0
   -5.7735   -1.7599   -7.5514 C   0  0  0  0  0  0  0  0  0  0  0  0
   -5.2853   -1.3376   -6.3176 C   0  0  0  0  0  0  0  0  0  0  0  0
   -5.9218   -1.4770   -4.9946 C   0  0  0  0  0  0  0  0  0  0  0  0
   -7.2080   -1.8665   -4.8048 C   0  0  0  0  0  0  0  0  0  0  0  0
   -7.5509   -2.9532   -3.9149 C   0  0  0  0  0  0  0  0  0  0  0  0
   -7.9014   -3.8698   -3.3194 N   0  0  0  0  0  0  0  0  0  0  0  0
   -8.2334   -1.2939   -5.6562 C   0  0  0  0  0  0  0  0  0  0  0  0
   -9.0266   -0.7189   -6.2577 N   0  0  0  0  0  0  0  0  0  0  0  0
   -4.6596   -1.8014  -10.0720 C   0  0  0  0  0  0  0  0  0  0  0  0
   -4.5497   -3.2983  -10.5700 C   0  0  0  0  0  0  0  0  0  0  0  0
   -3.9919   -3.1969  -11.9574 C   0  0  0  0  0  0  0  0  0  0  0  0
   -2.7176   -2.7761  -11.8304 C   0  0  0  0  0  0  0  0  0  0  0  0
   -2.4597   -2.6170  -10.3435 C   0  0  0  0  0  0  0  0  0  0  0  0
   -3.3041   -3.7857   -9.8341 C   0  0  0  0  0  0  0  0  0  0  0  0
   -3.2761   -1.3599   -9.9280 C   0  0  0  0  0  0  0  0  0  0  0  0
   -4.2776   -0.2218   -1.6517 C   0  0  0  0  0  0  0  0  0  0  0  0
   -4.1389   -0.3538   -0.2070 C   0  0  0  0  0  0  0  0  0  0  0  0
   -5.1286   -0.9817    0.7042 N   0  0  0  0  0  0  0  0  0  0  0  0
   -5.1702   -0.6772    2.1177 C   0  0  0  0  0  0  0  0  0  0  0  0
   -6.4331   -0.2758    2.7003 C   0  0  0  0  0  0  0  0  0  0  0  0
   -6.5613   -0.1282    4.0901 C   0  0  0  0  0  0  0  0  0  0  0  0
   -5.4670   -0.3631    4.9265 C   0  0  0  0  0  0  0  0  0  0  0  0
   -5.6374   -0.3009    6.6969 S   0  0  0  0  0  0  0  0  0  0  0  0
   -4.6545    1.2284    6.9287 C   0  0  0  0  0  0  0  0  0  0  0  0
   -4.2173   -0.7117    4.3697 C   0  0  0  0  0  0  0  0  0  0  0  0
   -4.1692   -1.1838    3.0161 C   0  0  0  0  0  0  0  0  0  0  0  0
   -6.3241   -1.5008    0.1311 C   0  0  0  0  0  0  0  0  0  0  0  0
   -7.3168   -0.6422   -0.3702 C   0  0  0  0  0  0  0  0  0  0  0  0
   -8.6046   -1.1304   -0.6646 C   0  0  0  0  0  0  0  0  0  0  0  0
   -8.8898   -2.4983   -0.5201 C   0  0  0  0  0  0  0  0  0  0  0  0
  -10.5632   -3.1354   -0.7160 S   0  0  0  0  0  0  0  0  0  0  0  0
  -11.0241   -2.2148   -2.2477 C   0  0  0  0  0  0  0  0  0  0  0  0
   -7.8725   -3.3590   -0.0917 C   0  0  0  0  0  0  0  0  0  0  0  0
   -6.5980   -2.8602    0.2118 C   0  0  0  0  0  0  0  0  0  0  0  0
   -3.0398    0.5049    0.2176 C   0  0  0  0  0  0  0  0  0  0  0  0
   -1.8688    0.6207    1.4735 S   0  0  0  0  0  0  0  0  0  0  0  0
   -0.8512    1.7405    0.7967 C   0  0  0  0  0  0  0  0  0  0  0  0
   -1.4169    2.0677   -0.4531 C   0  0  0  0  0  0  0  0  0  0  0  0
   -1.0051    3.0938   -1.3375 N   0  0  0  0  0  0  0  0  0  0  0  0
   -0.4532    2.5723   -2.5570 C   0  0  0  0  0  0  0  0  0  0  0  0
   -0.8653    2.9843   -3.8179 C   0  0  0  0  0  0  0  0  0  0  0  0
   -0.4128    2.2894   -4.9572 C   0  0  0  0  0  0  0  0  0  0  0  0
    0.5094    1.2334   -4.8498 C   0  0  0  0  0  0  0  0  0  0  0  0
    1.2961    0.5870   -6.3011 S   0  0  0  0  0  0  0  0  0  0  0  0
    1.5807   -1.1478   -5.7079 C   0  0  0  0  0  0  0  0  0  0  0  0
    0.9486    0.8714   -3.5694 C   0  0  0  0  0  0  0  0  0  0  0  0
    0.4109    1.4518   -2.4621 C   0  0  0  0  0  0  0  0  0  0  0  0
   -1.6629    4.4099   -1.2186 C   0  0  0  0  0  0  0  0  0  0  0  0
   -1.0504    5.4400   -0.4684 C   0  0  0  0  0  0  0  0  0  0  0  0
   -1.7722    6.5505   -0.0630 C   0  0  0  0  0  0  0  0  0  0  0  0
   -3.1506    6.6046   -0.3045 C   0  0  0  0  0  0  0  0  0  0  0  0
   -4.1526    7.9206    0.4408 S   0  0  0  0  0  0  0  0  0  0  0  0
   -4.5835    6.9813    1.9435 C   0  0  0  0  0  0  0  0  0  0  0  0
   -3.7663    5.5886   -1.0572 C   0  0  0  0  0  0  0  0  0  0  0  0
   -3.0143    4.5309   -1.5363 C   0  0  0  0  0  0  0  0  0  0  0  0
   -2.5761    1.3505   -0.7198 C   0  0  0  0  0  0  0  0  0  0  0  0
   -3.3550    1.0649   -2.1751 S   0  0  0  0  0  0  0  0  0  0  0  0
    0.4066    2.2593    1.4961 C   0  0  0  0  0  0  0  0  0  0  0  0
    1.7746    2.1243    1.0589 C   0  0  0  0  0  0  0  0  0  0  0  0
    2.3545    2.6805   -0.1707 N   0  0  0  0  0  0  0  0  0  0  0  0
    2.5351    4.1041   -0.2952 C   0  0  0  0  0  0  0  0  0  0  0  0
    3.3519    4.8003    0.6343 C   0  0  0  0  0  0  0  0  0  0  0  0
    3.5572    6.1722    0.4689 C   0  0  0  0  0  0  0  0  0  0  0  0
    2.9831    6.8776   -0.6002 C   0  0  0  0  0  0  0  0  0  0  0  0
    3.2009    8.6579   -0.7347 S   0  0  0  0  0  0  0  0  0  0  0  0
    4.3780    8.5819   -2.1273 C   0  0  0  0  0  0  0  0  0  0  0  0
    2.1946    6.1854   -1.5103 C   0  0  0  0  0  0  0  0  0  0  0  0
    2.0113    4.8363   -1.3900 C   0  0  0  0  0  0  0  0  0  0  0  0
    3.1175    1.7972   -1.0565 C   0  0  0  0  0  0  0  0  0  0  0  0
    3.2861    0.4491   -0.7217 C   0  0  0  0  0  0  0  0  0  0  0  0
    4.2171   -0.3449   -1.4320 C   0  0  0  0  0  0  0  0  0  0  0  0
    4.9103    0.1930   -2.5055 C   0  0  0  0  0  0  0  0  0  0  0  0
    6.3148   -0.7196   -3.2242 S   0  0  0  0  0  0  0  0  0  0  0  0
    5.3290   -1.8289   -4.2822 C   0  0  0  0  0  0  0  0  0  0  0  0
    4.6197    1.5031   -2.9157 C   0  0  0  0  0  0  0  0  0  0  0  0
    3.7647    2.2947   -2.1867 C   0  0  0  0  0  0  0  0  0  0  0  0
    2.5677    1.9104    2.1729 C   0  0  0  0  0  0  0  0  0  0  0  0
    4.1055    1.2083    2.2962 S   0  0  0  0  0  0  0  0  0  0  0  0
    3.9970    1.0663    4.0105 C   0  0  0  0  0  0  0  0  0  0  0  0
    2.8308    1.6343    4.5020 C   0  0  0  0  0  0  0  0  0  0  0  0
    2.8245    2.2837    5.7683 N   0  0  0  0  0  0  0  0  0  0  0  0
    3.8954    3.2549    6.0014 C   0  0  0  0  0  0  0  0  0  0  0  0
    4.1000    4.3197    5.1048 C   0  0  0  0  0  0  0  0  0  0  0  0
    5.2092    5.1519    5.2502 C   0  0  0  0  0  0  0  0  0  0  0  0
    6.0804    4.9996    6.3072 C   0  0  0  0  0  0  0  0  0  0  0  0
    7.3544    6.2376    6.5824 S   0  0  0  0  0  0  0  0  0  0  0  0
    8.8385    5.1702    6.5163 C   0  0  0  0  0  0  0  0  0  0  0  0
    5.9042    3.9204    7.1916 C   0  0  0  0  0  0  0  0  0  0  0  0
    4.8649    3.0232    7.0402 C   0  0  0  0  0  0  0  0  0  0  0  0
    1.9431    1.8044    6.7847 C   0  0  0  0  0  0  0  0  0  0  0  0
    1.6069    2.6316    7.8883 C   0  0  0  0  0  0  0  0  0  0  0  0
    0.6533    2.2084    8.8186 C   0  0  0  0  0  0  0  0  0  0  0  0
   -0.0178    0.9787    8.6666 C   0  0  0  0  0  0  0  0  0  0  0  0
   -1.4143    0.5928    9.7264 S   0  0  0  0  0  0  0  0  0  0  0  0
   -0.7179   -0.9395   10.4410 C   0  0  0  0  0  0  0  0  0  0  0  0
    0.3119    0.1728    7.5790 C   0  0  0  0  0  0  0  0  0  0  0  0
    1.2802    0.5693    6.6676 C   0  0  0  0  0  0  0  0  0  0  0  0
    2.0761    2.0841    3.4126 C   0  0  0  0  0  0  0  0  0  0  0  0
    0.4283    2.3874    3.1957 S   0  0  0  0  0  0  0  0  0  0  0  0
    4.8340    0.1172    4.8415 C   0  0  0  0  0  0  0  0  0  0  0  0
    4.7642   -1.2112    4.7962 C   0  0  0  0  0  0  0  0  0  0  0  0
    3.9035   -2.0106    3.9223 C   0  0  0  0  0  0  0  0  0  0  0  0
    4.4331   -2.8344    3.0238 C   0  0  0  0  0  0  0  0  0  0  0  0
    3.6512   -2.9813    1.7970 C   0  0  0  0  0  0  0  0  0  0  0  0
    2.9852   -2.0685    1.2430 O   0  0  0  0  0  0  0  0  0  0  0  0
    3.6883   -4.3659    1.2886 C   0  0  0  0  0  0  0  0  0  0  0  0
    3.5487   -4.7841   -0.0399 C   0  0  0  0  0  0  0  0  0  0  0  0
    3.8945   -6.1104   -0.2618 C   0  0  0  0  0  0  0  0  0  0  0  0
    4.4677   -6.8872    0.7889 C   0  0  0  0  0  0  0  0  0  0  0  0
    4.6757   -6.4865    2.0561 C   0  0  0  0  0  0  0  0  0  0  0  0
    4.2186   -5.1453    2.3107 C   0  0  0  0  0  0  0  0  0  0  0  0
    4.7286   -4.2606    3.3926 C   0  0  0  0  0  0  0  0  0  0  0  0
    5.7007   -4.6113    4.2592 C   0  0  0  0  0  0  0  0  0  0  0  0
    5.6520   -5.8479    5.0156 C   0  0  0  0  0  0  0  0  0  0  0  0
    5.6339   -6.8872    5.5327 N   0  0  0  0  0  0  0  0  0  0  0  0
    6.7676   -3.7046    4.6064 C   0  0  0  0  0  0  0  0  0  0  0  0
    7.6212   -2.9947    4.8920 N   0  0  0  0  0  0  0  0  0  0  0  0
    4.7127   -8.0252   -0.1581 C   0  0  0  0  0  0  0  0  0  0  0  0
    6.1822   -8.1450   -0.6668 C   0  0  0  0  0  0  0  0  0  0  0  0
    6.1395   -9.0189   -1.8844 C   0  0  0  0  0  0  0  0  0  0  0  0
    5.4813   -8.3216   -2.8491 C   0  0  0  0  0  0  0  0  0  0  0  0
    5.1924   -6.9658   -2.2517 C   0  0  0  0  0  0  0  0  0  0  0  0
    6.4368   -6.8145   -1.3697 C   0  0  0  0  0  0  0  0  0  0  0  0
    4.0622   -7.2094   -1.2094 C   0  0  0  0  0  0  0  0  0  0  0  0
   -6.0807   -1.2921   -2.2994 H   0  0  0  0  0  0  0  0  0  0  0  0
   -1.9715   -0.5848   -7.0490 H   0  0  0  0  0  0  0  0  0  0  0  0
   -6.7641   -2.1960   -7.7157 H   0  0  0  0  0  0  0  0  0  0  0  0
   -5.2952   -1.1643  -10.6841 H   0  0  0  0  0  0  0  0  0  0  0  0
   -5.4600   -3.9086  -10.4437 H   0  0  0  0  0  0  0  0  0  0  0  0
   -4.5058   -3.4215  -12.8924 H   0  0  0  0  0  0  0  0  0  0  0  0
   -2.0442   -2.5970  -12.6490 H   0  0  0  0  0  0  0  0  0  0  0  0
   -1.3891   -2.6382  -10.0697 H   0  0  0  0  0  0  0  0  0  0  0  0
   -2.9472   -4.7437  -10.2591 H   0  0  0  0  0  0  0  0  0  0  0  0
   -3.3847   -3.8522   -8.7260 H   0  0  0  0  0  0  0  0  0  0  0  0
   -3.0323   -0.4161  -10.4300 H   0  0  0  0  0  0  0  0  0  0  0  0
   -7.2814   -0.1109    2.0623 H   0  0  0  0  0  0  0  0  0  0  0  0
   -7.5830   -0.0110    4.5753 H   0  0  0  0  0  0  0  0  0  0  0  0
   -3.7934    1.0483    7.6103 H   0  0  0  0  0  0  0  0  0  0  0  0
   -5.2900    2.0159    7.3813 H   0  0  0  0  0  0  0  0  0  0  0  0
   -4.2645    1.5908    5.9730 H   0  0  0  0  0  0  0  0  0  0  0  0
   -3.4982   -1.0525    5.0646 H   0  0  0  0  0  0  0  0  0  0  0  0
   -4.4183   -2.2687    3.1522 H   0  0  0  0  0  0  0  0  0  0  0  0
   -7.1490    0.4420   -0.4001 H   0  0  0  0  0  0  0  0  0  0  0  0
   -9.4168   -0.4124   -0.8942 H   0  0  0  0  0  0  0  0  0  0  0  0
  -10.1346   -1.8443   -2.8045 H   0  0  0  0  0  0  0  0  0  0  0  0
  -11.6701   -1.3584   -1.9412 H   0  0  0  0  0  0  0  0  0  0  0  0
  -11.6204   -2.8896   -2.9203 H   0  0  0  0  0  0  0  0  0  0  0  0
   -8.0857   -4.4463   -0.0028 H   0  0  0  0  0  0  0  0  0  0  0  0
   -5.8407   -3.5643    0.5666 H   0  0  0  0  0  0  0  0  0  0  0  0
   -1.5712    3.7846   -3.9717 H   0  0  0  0  0  0  0  0  0  0  0  0
   -0.7943    2.5310   -5.9386 H   0  0  0  0  0  0  0  0  0  0  0  0
    0.7686   -1.4826   -5.0166 H   0  0  0  0  0  0  0  0  0  0  0  0
    2.5613   -1.1303   -5.1595 H   0  0  0  0  0  0  0  0  0  0  0  0
    1.6931   -1.8998   -6.5442 H   0  0  0  0  0  0  0  0  0  0  0  0
    1.6863    0.0790   -3.4244 H   0  0  0  0  0  0  0  0  0  0  0  0
    0.6891    1.0478   -1.4970 H   0  0  0  0  0  0  0  0  0  0  0  0
   -0.0672    5.3309   -0.0515 H   0  0  0  0  0  0  0  0  0  0  0  0
   -1.3134    7.3408    0.5297 H   0  0  0  0  0  0  0  0  0  0  0  0
   -4.9607    7.7363    2.6683 H   0  0  0  0  0  0  0  0  0  0  0  0
   -3.6366    6.5078    2.3179 H   0  0  0  0  0  0  0  0  0  0  0  0
   -5.3313    6.2046    1.6513 H   0  0  0  0  0  0  0  0  0  0  0  0
   -4.8287    5.6055   -1.2020 H   0  0  0  0  0  0  0  0  0  0  0  0
   -3.5326    3.7599   -2.0501 H   0  0  0  0  0  0  0  0  0  0  0  0
    3.7850    4.2622    1.4655 H   0  0  0  0  0  0  0  0  0  0  0  0
    4.2003    6.6727    1.2012 H   0  0  0  0  0  0  0  0  0  0  0  0
    4.4004    9.5877   -2.6017 H   0  0  0  0  0  0  0  0  0  0  0  0
    4.0343    7.8348   -2.8904 H   0  0  0  0  0  0  0  0  0  0  0  0
    5.3869    8.3229   -1.7319 H   0  0  0  0  0  0  0  0  0  0  0  0
    1.7509    6.7268   -2.3553 H   0  0  0  0  0  0  0  0  0  0  0  0
    1.4184    4.3192   -2.1226 H   0  0  0  0  0  0  0  0  0  0  0  0
    2.7445    0.0249    0.1157 H   0  0  0  0  0  0  0  0  0  0  0  0
    4.4723   -1.3469   -1.0668 H   0  0  0  0  0  0  0  0  0  0  0  0
    4.5029   -2.2789   -3.7077 H   0  0  0  0  0  0  0  0  0  0  0  0
    4.9323   -1.2945   -5.1716 H   0  0  0  0  0  0  0  0  0  0  0  0
    5.9926   -2.6584   -4.6311 H   0  0  0  0  0  0  0  0  0  0  0  0
    5.1203    1.8568   -3.8147 H   0  0  0  0  0  0  0  0  0  0  0  0
    3.5842    3.2890   -2.5896 H   0  0  0  0  0  0  0  0  0  0  0  0
    3.3874    4.4919    4.3226 H   0  0  0  0  0  0  0  0  0  0  0  0
    5.3386    5.9807    4.5425 H   0  0  0  0  0  0  0  0  0  0  0  0
    9.7514    5.7960    6.4886 H   0  0  0  0  0  0  0  0  0  0  0  0
    8.8773    4.5900    7.4710 H   0  0  0  0  0  0  0  0  0  0  0  0
    8.8148    4.4675    5.6530 H   0  0  0  0  0  0  0  0  0  0  0  0
    6.6108    3.7709    7.9836 H   0  0  0  0  0  0  0  0  0  0  0  0
    4.7657    2.1943    7.7162 H   0  0  0  0  0  0  0  0  0  0  0  0
    2.0615    3.6102    8.0105 H   0  0  0  0  0  0  0  0  0  0  0  0
    0.3527    2.8877    9.6318 H   0  0  0  0  0  0  0  0  0  0  0  0
    0.2119   -0.7414   11.0156 H   0  0  0  0  0  0  0  0  0  0  0  0
   -0.5074   -1.6723    9.6291 H   0  0  0  0  0  0  0  0  0  0  0  0
   -1.4730   -1.3906   11.1068 H   0  0  0  0  0  0  0  0  0  0  0  0
   -0.2034   -0.7661    7.4230 H   0  0  0  0  0  0  0  0  0  0  0  0
    1.5091   -0.1118    5.8601 H   0  0  0  0  0  0  0  0  0  0  0  0
    5.3573    0.5742    5.6586 H   0  0  0  0  0  0  0  0  0  0  0  0
    5.2818   -1.7395    5.6059 H   0  0  0  0  0  0  0  0  0  0  0  0
    2.9673   -2.3242    4.4955 H   0  0  0  0  0  0  0  0  0  0  0  0
    3.3197   -4.1071   -0.8521 H   0  0  0  0  0  0  0  0  0  0  0  0
    5.4818   -6.9706    2.6443 H   0  0  0  0  0  0  0  0  0  0  0  0
    4.1545   -8.9527    0.0501 H   0  0  0  0  0  0  0  0  0  0  0  0
    6.9201   -8.4269    0.1075 H   0  0  0  0  0  0  0  0  0  0  0  0
    6.5863  -10.0026   -1.9969 H   0  0  0  0  0  0  0  0  0  0  0  0
    5.3333   -8.6847   -3.8672 H   0  0  0  0  0  0  0  0  0  0  0  0
    4.9831   -6.1749   -3.0245 H   0  0  0  0  0  0  0  0  0  0  0  0
    7.3968   -6.8391   -1.9389 H   0  0  0  0  0  0  0  0  0  0  0  0
    6.4270   -5.9468   -0.6773 H   0  0  0  0  0  0  0  0  0  0  0  0
    3.1314   -7.6316   -1.6448 H   0  0  0  0  0  0  0  0  0  0  0  0
  1  2  2  3
  2  3  1  0
  3  4  2  0
  3  5  1  0
  5  6  2  0
  6  7  1  0
  7  8  2  0
  8  9  1  0
  9 10  2  0
 10 11  1  0
 11 12  2  3
 12 13  1  0
 13 14  3  0
 12 15  1  0
 15 16  3  0
  8 17  1  0
 17 18  1  0
 18 19  1  0
 19 20  2  0
 20 21  1  0
 21 22  1  0
 21 23  1  0
  1 24  1  0
 24 25  2  0
 25 26  1  0
 26 27  1  0
 27 28  2  0
 28 29  1  0
 29 30  2  0
 30 31  1  0
 31 32  1  0
 30 33  1  0
 33 34  2  0
 26 35  1  0
 35 36  2  0
 36 37  1  0
 37 38  2  0
 38 39  1  0
 39 40  1  0
 38 41  1  0
 41 42  2  0
 25 43  1  0
 43 44  1  0
 44 45  1  0
 45 46  2  0
 46 47  1  0
 47 48  1  0
 48 49  2  0
 49 50  1  0
 50 51  2  0
 51 52  1  0
 52 53  1  0
 51 54  1  0
 54 55  2  0
 47 56  1  0
 56 57  2  0
 57 58  1  0
 58 59  2  0
 59 60  1  0
 60 61  1  0
 59 62  1  0
 62 63  2  0
 46 64  1  0
 64 65  1  0
 45 66  1  0
 66 67  2  0
 67 68  1  0
 68 69  1  0
 69 70  2  0
 70 71  1  0
 71 72  2  0
 72 73  1  0
 73 74  1  0
 72 75  1  0
 75 76  2  0
 68 77  1  0
 77 78  2  0
 78 79  1  0
 79 80  2  0
 80 81  1  0
 81 82  1  0
 80 83  1  0
 83 84  2  0
 67 85  1  0
 85 86  1  0
 86 87  1  0
 87 88  2  0
 88 89  1  0
 89 90  1  0
 90 91  2  0
 91 92  1  0
 92 93  2  0
 93 94  1  0
 94 95  1  0
 93 96  1  0
 96 97  2  0
 89 98  1  0
 98 99  2  0
 99100  1  0
100101  2  0
101102  1  0
102103  1  0
101104  1  0
104105  2  0
 88106  1  0
106107  1  0
 87108  1  0
108109  2  3
109110  1  0
110111  2  3
111112  1  0
112113  2  0
112114  1  0
114115  2  0
115116  1  0
116117  2  0
117118  1  0
118119  2  0
119120  1  0
120121  2  3
121122  1  0
122123  3  0
121124  1  0
124125  3  0
117126  1  0
126127  1  0
127128  1  0
128129  2  0
129130  1  0
130131  1  0
130132  1  0
 11  2  1  0
 23 17  1  0
 65 24  1  0
107 66  1  0
120111  1  0
132126  1  0
 10  5  1  0
 22 18  1  0
 34 27  1  0
 42 35  1  0
 64 43  2  0
 76 69  1  0
 84 77  1  0
106 85  2  0
119114  1  0
131127  1  0
 23  7  1  0
 55 48  1  0
 63 56  1  0
 97 90  1  0
105 98  1  0
132116  1  0
  1133  1  0
  6134  1  0
  9135  1  0
 17136  1  0
 18137  1  0
 19138  1  0
 20139  1  0
 21140  1  0
 22141  1  0
 22142  1  0
 23143  1  0
 28144  1  0
 29145  1  0
 32146  1  0
 32147  1  0
 32148  1  0
 33149  1  0
 34150  1  0
 36151  1  0
 37152  1  0
 40153  1  0
 40154  1  0
 40155  1  0
 41156  1  0
 42157  1  0
 49158  1  0
 50159  1  0
 53160  1  0
 53161  1  0
 53162  1  0
 54163  1  0
 55164  1  0
 57165  1  0
 58166  1  0
 61167  1  0
 61168  1  0
 61169  1  0
 62170  1  0
 63171  1  0
 70172  1  0
 71173  1  0
 74174  1  0
 74175  1  0
 74176  1  0
 75177  1  0
 76178  1  0
 78179  1  0
 79180  1  0
 82181  1  0
 82182  1  0
 82183  1  0
 83184  1  0
 84185  1  0
 91186  1  0
 92187  1  0
 95188  1  0
 95189  1  0
 95190  1  0
 96191  1  0
 97192  1  0
 99193  1  0
100194  1  0
103195  1  0
103196  1  0
103197  1  0
104198  1  0
105199  1  0
108200  1  0
109201  1  0
110202  1  0
115203  1  0
118204  1  0
126205  1  0
127206  1  0
128207  1  0
129208  1  0
130209  1  0
131210  1  0
131211  1  0
132212  1  0
M  END

