
     RDKit          3D

193213  0  0  0  0  0  0  0  0999 V2000
    7.6798    3.7233    0.9321 C   0  0  0  0  0  0  0  0  0  0  0  0
    7.3188    4.7807    1.6899 C   0  0  0  0  0  0  0  0  0  0  0  0
    5.9347    5.0994    2.0583 C   0  0  0  0  0  0  0  0  0  0  0  0
    4.9239    5.0073    1.3080 O   0  0  0  0  0  0  0  0  0  0  0  0
    5.9056    5.5717    3.4155 C   0  0  0  0  0  0  0  0  0  0  0  0
    4.7526    5.7353    4.2282 C   0  0  0  0  0  0  0  0  0  0  0  0
    5.0433    5.9925    5.5462 C   0  0  0  0  0  0  0  0  0  0  0  0
    6.3784    6.0970    6.0554 C   0  0  0  0  0  0  0  0  0  0  0  0
    7.5084    5.9555    5.2657 C   0  0  0  0  0  0  0  0  0  0  0  0
    7.2336    5.6905    3.8851 C   0  0  0  0  0  0  0  0  0  0  0  0
    8.1710    5.3537    2.7758 C   0  0  0  0  0  0  0  0  0  0  0  0
    9.4974    5.6281    2.7044 C   0  0  0  0  0  0  0  0  0  0  0  0
   10.2388    5.4259    1.4823 C   0  0  0  0  0  0  0  0  0  0  0  0
   10.8452    5.2653    0.5080 N   0  0  0  0  0  0  0  0  0  0  0  0
   10.2049    6.2778    3.7731 C   0  0  0  0  0  0  0  0  0  0  0  0
   10.7845    6.8046    4.6266 N   0  0  0  0  0  0  0  0  0  0  0  0
    5.8434    6.3220    7.4406 C   0  0  0  0  0  0  0  0  0  0  0  0
    5.8842    7.7676    8.0228 C   0  0  0  0  0  0  0  0  0  0  0  0
    5.7806    8.7803    6.9047 C   0  0  0  0  0  0  0  0  0  0  0  0
    4.5364    8.6804    6.4225 C   0  0  0  0  0  0  0  0  0  0  0  0
    3.8463    7.5972    7.2243 C   0  0  0  0  0  0  0  0  0  0  0  0
    4.4760    7.8684    8.5797 C   0  0  0  0  0  0  0  0  0  0  0  0
    4.4785    6.2131    6.9147 C   0  0  0  0  0  0  0  0  0  0  0  0
    6.7104    2.6472    0.6482 C   0  0  0  0  0  0  0  0  0  0  0  0
    5.7042    2.8106   -0.3125 C   0  0  0  0  0  0  0  0  0  0  0  0
    5.7425    3.8691   -1.1647 F   0  0  0  0  0  0  0  0  0  0  0  0
    4.6099    1.9396   -0.3340 C   0  0  0  0  0  0  0  0  0  0  0  0
    3.5864    2.1856   -1.1975 F   0  0  0  0  0  0  0  0  0  0  0  0
    4.5279    0.8823    0.5905 C   0  0  0  0  0  0  0  0  0  0  0  0
    5.6177    0.6144    1.4254 C   0  0  0  0  0  0  0  0  0  0  0  0
    5.6220   -0.4681    2.2522 N   0  0  0  0  0  0  0  0  0  0  0  0
    6.6358   -0.7124    3.1268 C   0  0  0  0  0  0  0  0  0  0  0  0
    6.5230   -1.9342    3.9911 C   0  0  0  0  0  0  0  0  0  0  0  0
    7.0328   -3.1697    3.2477 C   0  0  0  0  0  0  0  0  0  0  0  0
    7.7344    0.1779    3.1629 C   0  0  0  0  0  0  0  0  0  0  0  0
    7.7195    1.2655    2.3428 N   0  0  0  0  0  0  0  0  0  0  0  0
    6.7010    1.5091    1.4689 C   0  0  0  0  0  0  0  0  0  0  0  0
    8.8901    0.0389    4.1115 C   0  0  0  0  0  0  0  0  0  0  0  0
    8.6203    0.8186    5.3899 C   0  0  0  0  0  0  0  0  0  0  0  0
    3.2978    0.0722    0.6786 C   0  0  0  0  0  0  0  0  0  0  0  0
    3.0806   -0.9044   -0.2881 C   0  0  0  0  0  0  0  0  0  0  0  0
    1.8870   -1.6034   -0.3448 C   0  0  0  0  0  0  0  0  0  0  0  0
    0.8453   -1.3806    0.5833 C   0  0  0  0  0  0  0  0  0  0  0  0
    1.1222   -0.5046    1.6659 C   0  0  0  0  0  0  0  0  0  0  0  0
    0.2592   -0.0062    2.7511 C   0  0  0  0  0  0  0  0  0  0  0  0
   -0.7990   -0.5374    3.3879 C   0  0  0  0  0  0  0  0  0  0  0  0
   -1.2815   -1.9195    3.2843 C   0  0  0  0  0  0  0  0  0  0  0  0
   -2.5990   -2.2486    3.6376 C   0  0  0  0  0  0  0  0  0  0  0  0
   -2.8351   -3.6101    3.7151 C   0  0  0  0  0  0  0  0  0  0  0  0
   -1.4026   -4.4029    3.3831 S   0  0  0  0  0  0  0  0  0  0  0  0
   -0.4619   -3.0340    3.1239 C   0  0  0  0  0  0  0  0  0  0  0  0
    0.9433    1.1808    3.2497 C   0  0  0  0  0  0  0  0  0  0  0  0
    0.4941    1.9495    4.1465 O   0  0  0  0  0  0  0  0  0  0  0  0
    2.1989    1.3560    2.6238 N   0  0  0  0  0  0  0  0  0  0  0  0
    3.1500    2.3997    3.0140 C   0  0  0  0  0  0  0  0  0  0  0  0
    3.9455    1.9788    4.2440 C   0  0  0  0  0  0  0  0  0  0  0  0
    2.2890    0.2857    1.6605 C   0  0  0  0  0  0  0  0  0  0  0  0
   -0.5415   -1.7582    0.1659 C   0  0  0  0  0  0  0  0  0  0  0  0
   -0.8696   -2.7284   -0.8271 C   0  0  0  0  0  0  0  0  0  0  0  0
   -0.0815   -3.9008   -1.1424 N   0  0  0  0  0  0  0  0  0  0  0  0
    0.1829   -4.8436   -0.1028 C   0  0  0  0  0  0  0  0  0  0  0  0
    1.5049   -5.1286    0.2602 C   0  0  0  0  0  0  0  0  0  0  0  0
    1.7894   -6.2435    1.0679 C   0  0  0  0  0  0  0  0  0  0  0  0
    0.7555   -7.0849    1.4850 C   0  0  0  0  0  0  0  0  0  0  0  0
    1.1235   -8.5658    2.4211 S   0  0  0  0  0  0  0  0  0  0  0  0
    0.9454   -7.7410    4.0385 C   0  0  0  0  0  0  0  0  0  0  0  0
   -0.5609   -6.7896    1.1433 C   0  0  0  0  0  0  0  0  0  0  0  0
   -0.8487   -5.6781    0.3573 C   0  0  0  0  0  0  0  0  0  0  0  0
    0.0210   -4.4106   -2.4870 C   0  0  0  0  0  0  0  0  0  0  0  0
   -0.9109   -5.3699   -2.9472 C   0  0  0  0  0  0  0  0  0  0  0  0
   -0.7225   -6.0181   -4.1632 C   0  0  0  0  0  0  0  0  0  0  0  0
    0.4138   -5.7413   -4.9319 C   0  0  0  0  0  0  0  0  0  0  0  0
    0.7187   -6.6781   -6.4308 S   0  0  0  0  0  0  0  0  0  0  0  0
    1.7713   -7.8908   -5.5793 C   0  0  0  0  0  0  0  0  0  0  0  0
    1.3347   -4.7871   -4.4938 C   0  0  0  0  0  0  0  0  0  0  0  0
    1.1470   -4.1365   -3.2702 C   0  0  0  0  0  0  0  0  0  0  0  0
   -2.0846   -2.4089   -1.4494 C   0  0  0  0  0  0  0  0  0  0  0  0
   -2.7593   -2.8024   -2.9313 S   0  0  0  0  0  0  0  0  0  0  0  0
   -3.9626   -1.6048   -2.9132 C   0  0  0  0  0  0  0  0  0  0  0  0
   -3.8290   -0.8700   -1.7108 C   0  0  0  0  0  0  0  0  0  0  0  0
   -4.6795    0.2078   -1.2648 N   0  0  0  0  0  0  0  0  0  0  0  0
   -5.0440    0.2629    0.1330 C   0  0  0  0  0  0  0  0  0  0  0  0
   -5.3890   -0.9079    0.8362 C   0  0  0  0  0  0  0  0  0  0  0  0
   -5.6190   -0.8700    2.2161 C   0  0  0  0  0  0  0  0  0  0  0  0
   -5.5230    0.3491    2.9054 C   0  0  0  0  0  0  0  0  0  0  0  0
   -5.6914    0.3726    4.6912 S   0  0  0  0  0  0  0  0  0  0  0  0
   -7.4938    0.6684    4.6602 C   0  0  0  0  0  0  0  0  0  0  0  0
   -5.2250    1.5205    2.2163 C   0  0  0  0  0  0  0  0  0  0  0  0
   -4.9751    1.4801    0.8394 C   0  0  0  0  0  0  0  0  0  0  0  0
   -5.1376    1.2394   -2.1613 C   0  0  0  0  0  0  0  0  0  0  0  0
   -4.2549    1.8468   -3.0643 C   0  0  0  0  0  0  0  0  0  0  0  0
   -4.7140    2.8161   -3.9661 C   0  0  0  0  0  0  0  0  0  0  0  0
   -6.0536    3.2055   -3.9561 C   0  0  0  0  0  0  0  0  0  0  0  0
   -6.6550    4.4123   -5.1328 S   0  0  0  0  0  0  0  0  0  0  0  0
   -6.3555    5.8116   -4.0161 C   0  0  0  0  0  0  0  0  0  0  0  0
   -6.9305    2.6413   -3.0265 C   0  0  0  0  0  0  0  0  0  0  0  0
   -6.4808    1.6713   -2.1299 C   0  0  0  0  0  0  0  0  0  0  0  0
   -2.7448   -1.3415   -0.9508 C   0  0  0  0  0  0  0  0  0  0  0  0
   -1.8101   -0.6208    0.2308 S   0  0  0  0  0  0  0  0  0  0  0  0
   -4.4697   -1.0981   -4.1804 C   0  0  0  0  0  0  0  0  0  0  0  0
   -5.7467   -0.8564   -4.5283 C   0  0  0  0  0  0  0  0  0  0  0  0
   -6.0352    0.0336   -5.6510 C   0  0  0  0  0  0  0  0  0  0  0  0
   -5.1883    0.4713   -6.4867 O   0  0  0  0  0  0  0  0  0  0  0  0
   -7.4266    0.4033   -5.6137 C   0  0  0  0  0  0  0  0  0  0  0  0
   -8.0920    1.2245   -6.5494 C   0  0  0  0  0  0  0  0  0  0  0  0
   -9.4642    1.2441   -6.3833 C   0  0  0  0  0  0  0  0  0  0  0  0
  -10.1467    0.5162   -5.3607 C   0  0  0  0  0  0  0  0  0  0  0  0
   -9.4868   -0.2582   -4.4190 C   0  0  0  0  0  0  0  0  0  0  0  0
   -8.0649   -0.2816   -4.5477 C   0  0  0  0  0  0  0  0  0  0  0  0
   -7.0513   -1.1102   -3.8195 C   0  0  0  0  0  0  0  0  0  0  0  0
   -7.3017   -1.9857   -2.8144 C   0  0  0  0  0  0  0  0  0  0  0  0
   -6.4280   -3.0777   -2.5004 C   0  0  0  0  0  0  0  0  0  0  0  0
   -5.7533   -3.9789   -2.2373 N   0  0  0  0  0  0  0  0  0  0  0  0
   -8.5015   -1.9122   -2.0263 C   0  0  0  0  0  0  0  0  0  0  0  0
   -9.4596   -1.8560   -1.3740 N   0  0  0  0  0  0  0  0  0  0  0  0
  -11.4762    0.9292   -5.9264 C   0  0  0  0  0  0  0  0  0  0  0  0
  -12.2768   -0.1243   -6.7462 C   0  0  0  0  0  0  0  0  0  0  0  0
  -11.3257   -1.0739   -7.4468 C   0  0  0  0  0  0  0  0  0  0  0  0
  -10.6995   -0.3641   -8.3847 C   0  0  0  0  0  0  0  0  0  0  0  0
  -11.2380    1.0466   -8.2882 C   0  0  0  0  0  0  0  0  0  0  0  0
  -12.6774    0.7212   -7.9379 C   0  0  0  0  0  0  0  0  0  0  0  0
  -10.7766    1.7063   -6.9469 C   0  0  0  0  0  0  0  0  0  0  0  0
    8.7166    3.4334    0.9014 H   0  0  0  0  0  0  0  0  0  0  0  0
    3.7450    5.6014    3.8589 H   0  0  0  0  0  0  0  0  0  0  0  0
    8.5002    5.9802    5.6912 H   0  0  0  0  0  0  0  0  0  0  0  0
    6.1034    5.5154    8.1611 H   0  0  0  0  0  0  0  0  0  0  0  0
    6.7015    7.9596    8.7549 H   0  0  0  0  0  0  0  0  0  0  0  0
    6.5202    9.5201    6.6091 H   0  0  0  0  0  0  0  0  0  0  0  0
    4.1008    9.3095    5.6553 H   0  0  0  0  0  0  0  0  0  0  0  0
    2.7365    7.6278    7.1971 H   0  0  0  0  0  0  0  0  0  0  0  0
    4.2302    8.8839    8.9874 H   0  0  0  0  0  0  0  0  0  0  0  0
    4.2346    7.0891    9.3450 H   0  0  0  0  0  0  0  0  0  0  0  0
    3.9077    5.3387    7.3059 H   0  0  0  0  0  0  0  0  0  0  0  0
    7.0765   -1.8135    4.9426 H   0  0  0  0  0  0  0  0  0  0  0  0
    5.4592   -2.0937    4.2632 H   0  0  0  0  0  0  0  0  0  0  0  0
    6.4435   -3.3144    2.3150 H   0  0  0  0  0  0  0  0  0  0  0  0
    6.9056   -4.0613    3.8927 H   0  0  0  0  0  0  0  0  0  0  0  0
    8.1011   -3.0537    2.9805 H   0  0  0  0  0  0  0  0  0  0  0  0
    9.1131   -1.0252    4.3367 H   0  0  0  0  0  0  0  0  0  0  0  0
    9.8071    0.4468    3.6252 H   0  0  0  0  0  0  0  0  0  0  0  0
    7.7493    0.4038    5.9295 H   0  0  0  0  0  0  0  0  0  0  0  0
    8.4312    1.8914    5.1623 H   0  0  0  0  0  0  0  0  0  0  0  0
    9.5171    0.7494    6.0569 H   0  0  0  0  0  0  0  0  0  0  0  0
    3.8263   -1.0582   -1.0687 H   0  0  0  0  0  0  0  0  0  0  0  0
    1.7302   -2.2012   -1.2175 H   0  0  0  0  0  0  0  0  0  0  0  0
   -1.2963    0.0665    4.1489 H   0  0  0  0  0  0  0  0  0  0  0  0
   -3.3537   -1.5085    3.8807 H   0  0  0  0  0  0  0  0  0  0  0  0
   -3.7827   -4.0753    3.9777 H   0  0  0  0  0  0  0  0  0  0  0  0
    0.6087   -3.0309    2.9507 H   0  0  0  0  0  0  0  0  0  0  0  0
    3.8209    2.6810    2.1851 H   0  0  0  0  0  0  0  0  0  0  0  0
    2.5890    3.3225    3.2697 H   0  0  0  0  0  0  0  0  0  0  0  0
    4.5873    2.8081    4.5838 H   0  0  0  0  0  0  0  0  0  0  0  0
    4.5941    1.1075    4.0159 H   0  0  0  0  0  0  0  0  0  0  0  0
    3.2619    1.6960    5.0726 H   0  0  0  0  0  0  0  0  0  0  0  0
    2.3181   -4.5332   -0.1295 H   0  0  0  0  0  0  0  0  0  0  0  0
    2.8175   -6.4812    1.3111 H   0  0  0  0  0  0  0  0  0  0  0  0
   -0.0904   -7.3594    4.1739 H   0  0  0  0  0  0  0  0  0  0  0  0
    1.1623   -8.4694    4.8430 H   0  0  0  0  0  0  0  0  0  0  0  0
    1.6607   -6.8956    4.1068 H   0  0  0  0  0  0  0  0  0  0  0  0
   -1.3695   -7.4475    1.4551 H   0  0  0  0  0  0  0  0  0  0  0  0
   -1.8817   -5.4681    0.0871 H   0  0  0  0  0  0  0  0  0  0  0  0
   -1.7728   -5.6266   -2.3414 H   0  0  0  0  0  0  0  0  0  0  0  0
   -1.4370   -6.7607   -4.4873 H   0  0  0  0  0  0  0  0  0  0  0  0
    1.9118   -8.7785   -6.2278 H   0  0  0  0  0  0  0  0  0  0  0  0
    2.7593   -7.4441   -5.3683 H   0  0  0  0  0  0  0  0  0  0  0  0
    1.3086   -8.2232   -4.6276 H   0  0  0  0  0  0  0  0  0  0  0  0
    2.2252   -4.5802   -5.0788 H   0  0  0  0  0  0  0  0  0  0  0  0
    1.9168   -3.4763   -2.9226 H   0  0  0  0  0  0  0  0  0  0  0  0
   -5.4333   -1.8546    0.3144 H   0  0  0  0  0  0  0  0  0  0  0  0
   -5.8447   -1.7890    2.7416 H   0  0  0  0  0  0  0  0  0  0  0  0
   -7.7406    1.5343    4.0154 H   0  0  0  0  0  0  0  0  0  0  0  0
   -7.8421    0.8921    5.6966 H   0  0  0  0  0  0  0  0  0  0  0  0
   -8.0242   -0.2379    4.3041 H   0  0  0  0  0  0  0  0  0  0  0  0
   -5.1329    2.4523    2.7444 H   0  0  0  0  0  0  0  0  0  0  0  0
   -4.7045    2.3973    0.3263 H   0  0  0  0  0  0  0  0  0  0  0  0
   -3.2193    1.5476   -3.0968 H   0  0  0  0  0  0  0  0  0  0  0  0
   -4.0193    3.2484   -4.6808 H   0  0  0  0  0  0  0  0  0  0  0  0
   -6.9288    5.6879   -3.0788 H   0  0  0  0  0  0  0  0  0  0  0  0
   -6.6939    6.7478   -4.5087 H   0  0  0  0  0  0  0  0  0  0  0  0
   -5.2775    5.9004   -3.7895 H   0  0  0  0  0  0  0  0  0  0  0  0
   -7.9729    2.9352   -3.0140 H   0  0  0  0  0  0  0  0  0  0  0  0
   -7.1714    1.2332   -1.4177 H   0  0  0  0  0  0  0  0  0  0  0  0
   -3.6892   -0.8148   -4.8809 H   0  0  0  0  0  0  0  0  0  0  0  0
   -7.5922    1.7322   -7.3605 H   0  0  0  0  0  0  0  0  0  0  0  0
  -10.0542   -0.8211   -3.6900 H   0  0  0  0  0  0  0  0  0  0  0  0
  -12.0810    1.5494   -5.2273 H   0  0  0  0  0  0  0  0  0  0  0  0
  -13.1131   -0.6129   -6.2090 H   0  0  0  0  0  0  0  0  0  0  0  0
  -11.2150   -2.1433   -7.2703 H   0  0  0  0  0  0  0  0  0  0  0  0
   -9.9891   -0.7436   -9.1091 H   0  0  0  0  0  0  0  0  0  0  0  0
  -11.0957    1.6669   -9.1934 H   0  0  0  0  0  0  0  0  0  0  0  0
  -13.2032    0.1419   -8.7412 H   0  0  0  0  0  0  0  0  0  0  0  0
  -13.2863    1.6221   -7.6712 H   0  0  0  0  0  0  0  0  0  0  0  0
  -10.9416    2.8041   -6.8783 H   0  0  0  0  0  0  0  0  0  0  0  0
  1  2  2  3
  2  3  1  0
  3  4  2  0
  3  5  1  0
  5  6  2  0
  6  7  1  0
  7  8  2  0
  8  9  1  0
  9 10  2  0
 10 11  1  0
 11 12  2  3
 12 13  1  0
 13 14  3  0
 12 15  1  0
 15 16  3  0
  8 17  1  0
 17 18  1  0
 18 19  1  0
 19 20  2  0
 20 21  1  0
 21 22  1  0
 21 23  1  0
  1 24  1  0
 24 25  2  0
 25 26  1  0
 25 27  1  0
 27 28  1  0
 27 29  2  0
 29 30  1  0
 30 31  2  0
 31 32  1  0
 32 33  1  0
 33 34  1  0
 32 35  2  0
 35 36  1  0
 36 37  2  0
 35 38  1  0
 38 39  1  0
 29 40  1  0
 40 41  2  0
 41 42  1  0
 42 43  2  0
 43 44  1  0
 44 45  1  0
 45 46  2  3
 46 47  1  0
 47 48  1  0
 48 49  2  0
 49 50  1  0
 50 51  1  0
 45 52  1  0
 52 53  2  0
 52 54  1  0
 54 55  1  0
 55 56  1  0
 54 57  1  0
 43 58  1  0
 58 59  2  0
 59 60  1  0
 60 61  1  0
 61 62  2  0
 62 63  1  0
 63 64  2  0
 64 65  1  0
 65 66  1  0
 64 67  1  0
 67 68  2  0
 60 69  1  0
 69 70  2  0
 70 71  1  0
 71 72  2  0
 72 73  1  0
 73 74  1  0
 72 75  1  0
 75 76  2  0
 59 77  1  0
 77 78  1  0
 78 79  1  0
 79 80  2  0
 80 81  1  0
 81 82  1  0
 82 83  2  0
 83 84  1  0
 84 85  2  0
 85 86  1  0
 86 87  1  0
 85 88  1  0
 88 89  2  0
 81 90  1  0
 90 91  2  0
 91 92  1  0
 92 93  2  0
 93 94  1  0
 94 95  1  0
 93 96  1  0
 96 97  2  0
 80 98  1  0
 98 99  1  0
 79100  1  0
100101  2  3
101102  1  0
102103  2  0
102104  1  0
104105  2  0
105106  1  0
106107  2  0
107108  1  0
108109  2  0
109110  1  0
110111  2  3
111112  1  0
112113  3  0
111114  1  0
114115  3  0
107116  1  0
116117  1  0
117118  1  0
118119  2  0
119120  1  0
120121  1  0
120122  1  0
 11  2  1  0
 23 17  1  0
 37 24  1  0
 57 40  1  0
 99 58  1  0
110101  1  0
122116  1  0
 10  5  1  0
 22 18  1  0
 37 30  1  0
 57 44  2  0
 68 61  1  0
 76 69  1  0
 98 77  2  0
109104  1  0
121117  1  0
 23  7  1  0
 51 47  2  0
 89 82  1  0
 97 90  1  0
122106  1  0
  1123  1  0
  6124  1  0
  9125  1  0
 17126  1  0
 18127  1  0
 19128  1  0
 20129  1  0
 21130  1  0
 22131  1  0
 22132  1  0
 23133  1  0
 33134  1  0
 33135  1  0
 34136  1  0
 34137  1  0
 34138  1  0
 38139  1  0
 38140  1  0
 39141  1  0
 39142  1  0
 39143  1  0
 41144  1  0
 42145  1  0
 46146  1  0
 48147  1  0
 49148  1  0
 51149  1  0
 55150  1  0
 55151  1  0
 56152  1  0
 56153  1  0
 56154  1  0
 62155  1  0
 63156  1  0
 66157  1  0
 66158  1  0
 66159  1  0
 67160  1  0
 68161  1  0
 70162  1  0
 71163  1  0
 74164  1  0
 74165  1  0
 74166  1  0
 75167  1  0
 76168  1  0
 83169  1  0
 84170  1  0
 87171  1  0
 87172  1  0
 87173  1  0
 88174  1  0
 89175  1  0
 91176  1  0
 92177  1  0
 95178  1  0
 95179  1  0
 95180  1  0
 96181  1  0
 97182  1  0
100183  1  0
105184  1  0
108185  1  0
116186  1  0
117187  1  0
118188  1  0
119189  1  0
120190  1  0
121191  1  0
121192  1  0
122193  1  0
M  END

