
     RDKit          3D

175195  0  0  0  0  0  0  0  0999 V2000
    2.4796   -1.7588    5.1288 C   0  0  0  0  0  0  0  0  0  0  0  0
    3.2782   -2.2889    4.1769 C   0  0  0  0  0  0  0  0  0  0  0  0
    3.3914   -1.7903    2.7950 C   0  0  0  0  0  0  0  0  0  0  0  0
    2.9730   -0.6844    2.3600 O   0  0  0  0  0  0  0  0  0  0  0  0
    4.0570   -2.7836    1.9882 C   0  0  0  0  0  0  0  0  0  0  0  0
    4.2300   -2.7600    0.5862 C   0  0  0  0  0  0  0  0  0  0  0  0
    4.7091   -3.9457    0.0624 C   0  0  0  0  0  0  0  0  0  0  0  0
    5.0053   -5.0930    0.8651 C   0  0  0  0  0  0  0  0  0  0  0  0
    4.8550   -5.1142    2.2402 C   0  0  0  0  0  0  0  0  0  0  0  0
    4.3925   -3.8903    2.8075 C   0  0  0  0  0  0  0  0  0  0  0  0
    4.0327   -3.5849    4.2239 C   0  0  0  0  0  0  0  0  0  0  0  0
    4.4414   -4.2732    5.3246 C   0  0  0  0  0  0  0  0  0  0  0  0
    5.3671   -5.3712    5.2406 C   0  0  0  0  0  0  0  0  0  0  0  0
    6.1212   -6.2501    5.1899 N   0  0  0  0  0  0  0  0  0  0  0  0
    4.0889   -3.8886    6.6648 C   0  0  0  0  0  0  0  0  0  0  0  0
    3.8071   -3.5969    7.7491 N   0  0  0  0  0  0  0  0  0  0  0  0
    5.3661   -5.8760   -0.3635 C   0  0  0  0  0  0  0  0  0  0  0  0
    6.8818   -6.1214   -0.6126 C   0  0  0  0  0  0  0  0  0  0  0  0
    6.9983   -6.5570   -2.0539 C   0  0  0  0  0  0  0  0  0  0  0  0
    6.7315   -5.4800   -2.7996 C   0  0  0  0  0  0  0  0  0  0  0  0
    6.4402   -4.3527   -1.8379 C   0  0  0  0  0  0  0  0  0  0  0  0
    7.4387   -4.7150   -0.7505 C   0  0  0  0  0  0  0  0  0  0  0  0
    5.0688   -4.6976   -1.1831 C   0  0  0  0  0  0  0  0  0  0  0  0
    1.5056   -0.7057    4.8245 C   0  0  0  0  0  0  0  0  0  0  0  0
    1.7400    0.6841    4.6817 C   0  0  0  0  0  0  0  0  0  0  0  0
    2.9674    1.3692    5.0381 N   0  0  0  0  0  0  0  0  0  0  0  0
    4.0475    0.7014    5.7033 C   0  0  0  0  0  0  0  0  0  0  0  0
    5.1842    0.3105    4.9809 C   0  0  0  0  0  0  0  0  0  0  0  0
    6.2800   -0.2504    5.6423 C   0  0  0  0  0  0  0  0  0  0  0  0
    6.2573   -0.4026    7.0354 C   0  0  0  0  0  0  0  0  0  0  0  0
    7.7136   -1.0144    7.8889 S   0  0  0  0  0  0  0  0  0  0  0  0
    7.2238   -2.7603    7.7620 C   0  0  0  0  0  0  0  0  0  0  0  0
    5.1187   -0.0240    7.7593 C   0  0  0  0  0  0  0  0  0  0  0  0
    4.0164    0.5259    7.0953 C   0  0  0  0  0  0  0  0  0  0  0  0
    3.0811    2.7919    4.9175 C   0  0  0  0  0  0  0  0  0  0  0  0
    2.4308    3.6317    5.8338 C   0  0  0  0  0  0  0  0  0  0  0  0
    2.5545    5.0208    5.7238 C   0  0  0  0  0  0  0  0  0  0  0  0
    3.3356    5.5761    4.7036 C   0  0  0  0  0  0  0  0  0  0  0  0
    3.5118    7.3574    4.5735 S   0  0  0  0  0  0  0  0  0  0  0  0
    5.0088    7.4030    5.6086 C   0  0  0  0  0  0  0  0  0  0  0  0
    3.9808    4.7403    3.7837 C   0  0  0  0  0  0  0  0  0  0  0  0
    3.8601    3.3515    3.8950 C   0  0  0  0  0  0  0  0  0  0  0  0
    0.6621    1.2824    3.9953 C   0  0  0  0  0  0  0  0  0  0  0  0
    0.4542    2.7329    3.1666 S   0  0  0  0  0  0  0  0  0  0  0  0
   -0.9466    2.2485    2.3281 C   0  0  0  0  0  0  0  0  0  0  0  0
   -1.2261    0.9113    2.6655 C   0  0  0  0  0  0  0  0  0  0  0  0
   -2.0548    0.0441    1.8673 N   0  0  0  0  0  0  0  0  0  0  0  0
   -3.4677    0.3249    1.7566 C   0  0  0  0  0  0  0  0  0  0  0  0
   -4.1916    0.7794    2.8723 C   0  0  0  0  0  0  0  0  0  0  0  0
   -5.5537    1.0721    2.7597 C   0  0  0  0  0  0  0  0  0  0  0  0
   -6.2092    0.8988    1.5367 C   0  0  0  0  0  0  0  0  0  0  0  0
   -7.9527    1.2968    1.3862 S   0  0  0  0  0  0  0  0  0  0  0  0
   -8.5008   -0.3832    1.8229 C   0  0  0  0  0  0  0  0  0  0  0  0
   -5.4991    0.4373    0.4243 C   0  0  0  0  0  0  0  0  0  0  0  0
   -4.1311    0.1698    0.5256 C   0  0  0  0  0  0  0  0  0  0  0  0
   -1.4602   -1.0923    1.1892 C   0  0  0  0  0  0  0  0  0  0  0  0
   -2.1742   -2.2959    1.0386 C   0  0  0  0  0  0  0  0  0  0  0  0
   -1.5856   -3.3981    0.4088 C   0  0  0  0  0  0  0  0  0  0  0  0
   -0.2714   -3.3149   -0.0702 C   0  0  0  0  0  0  0  0  0  0  0  0
    0.4924   -4.7273   -0.8692 S   0  0  0  0  0  0  0  0  0  0  0  0
    1.2038   -5.3710    0.6762 C   0  0  0  0  0  0  0  0  0  0  0  0
    0.4464   -2.1272    0.0760 C   0  0  0  0  0  0  0  0  0  0  0  0
   -0.1363   -1.0289    0.7093 C   0  0  0  0  0  0  0  0  0  0  0  0
   -0.3331    0.4314    3.6214 C   0  0  0  0  0  0  0  0  0  0  0  0
    0.0187   -1.1204    4.1253 S   0  0  0  0  0  0  0  0  0  0  0  0
   -1.4119    2.8813    1.0820 C   0  0  0  0  0  0  0  0  0  0  0  0
   -2.6686    3.4760    0.9881 C   0  0  0  0  0  0  0  0  0  0  0  0
   -3.2180    3.8351   -0.1992 C   0  0  0  0  0  0  0  0  0  0  0  0
   -4.4453    4.3222    0.0340 N   0  0  0  0  0  0  0  0  0  0  0  0
   -4.5868    4.2476    1.3369 O   0  0  0  0  0  0  0  0  0  0  0  0
   -3.5530    3.7440    1.9620 N   0  0  0  0  0  0  0  0  0  0  0  0
   -2.5752    3.6130   -1.4200 C   0  0  0  0  0  0  0  0  0  0  0  0
   -1.2774    3.0339   -1.3657 C   0  0  0  0  0  0  0  0  0  0  0  0
   -0.6208    2.6700   -2.5451 O   0  0  0  0  0  0  0  0  0  0  0  0
   -0.9759    1.5038   -3.2854 C   0  0  0  0  0  0  0  0  0  0  0  0
   -0.6368    0.2400   -2.5061 C   0  0  0  0  0  0  0  0  0  0  0  0
   -0.6714    2.7327   -0.1137 C   0  0  0  0  0  0  0  0  0  0  0  0
    0.6263    2.2052   -0.0432 O   0  0  0  0  0  0  0  0  0  0  0  0
    1.7727    2.8126   -0.6382 C   0  0  0  0  0  0  0  0  0  0  0  0
    2.1954    4.0463    0.1508 C   0  0  0  0  0  0  0  0  0  0  0  0
   -3.2633    3.8296   -2.7173 C   0  0  0  0  0  0  0  0  0  0  0  0
   -2.6610    4.5876   -3.7382 C   0  0  0  0  0  0  0  0  0  0  0  0
   -3.1741    4.5877   -5.0606 C   0  0  0  0  0  0  0  0  0  0  0  0
   -2.4055    5.3450   -6.0015 N   0  0  0  0  0  0  0  0  0  0  0  0
   -1.2422    5.8902   -5.0522 S   0  0  0  0  0  4  0  0  0  0  0  0
   -1.4643    5.3561   -3.5654 N   0  0  0  0  0  0  0  0  0  0  0  0
   -4.2948    3.8224   -5.4032 C   0  0  0  0  0  0  0  0  0  0  0  0
   -4.9595    3.1306   -4.3753 C   0  0  0  0  0  0  0  0  0  0  0  0
   -6.0696    2.3805   -4.5961 N   0  0  0  0  0  0  0  0  0  0  0  0
   -6.3192    1.7538   -3.0893 S   0  0  0  0  0  0  0  0  0  0  0  0
   -5.1076    2.3558   -2.1427 N   0  0  0  0  0  0  0  0  0  0  0  0
   -4.4408    3.1262   -3.0391 C   0  0  0  0  0  0  0  0  0  0  0  0
   -4.6929    3.6472   -6.8154 C   0  0  0  0  0  0  0  0  0  0  0  0
   -4.5645    2.4626   -7.4539 C   0  0  0  0  0  0  0  0  0  0  0  0
   -3.8459    1.3042   -6.9017 C   0  0  0  0  0  0  0  0  0  0  0  0
   -3.1608    1.2833   -5.8452 O   0  0  0  0  0  0  0  0  0  0  0  0
   -3.9698    0.1938   -7.8027 C   0  0  0  0  0  0  0  0  0  0  0  0
   -3.4596   -1.1082   -7.5977 C   0  0  0  0  0  0  0  0  0  0  0  0
   -3.7473   -1.9861   -8.6204 C   0  0  0  0  0  0  0  0  0  0  0  0
   -4.4841   -1.6114   -9.7889 C   0  0  0  0  0  0  0  0  0  0  0  0
   -4.9844   -0.3358   -9.9953 C   0  0  0  0  0  0  0  0  0  0  0  0
   -4.7086    0.5935   -8.9464 C   0  0  0  0  0  0  0  0  0  0  0  0
   -5.1040    2.0362   -8.7967 C   0  0  0  0  0  0  0  0  0  0  0  0
   -5.8416    2.7744   -9.6748 C   0  0  0  0  0  0  0  0  0  0  0  0
   -6.2097    4.1460   -9.4477 C   0  0  0  0  0  0  0  0  0  0  0  0
   -6.5153    5.2514   -9.2898 N   0  0  0  0  0  0  0  0  0  0  0  0
   -6.3252    2.2536  -10.9256 C   0  0  0  0  0  0  0  0  0  0  0  0
   -6.7277    1.8608  -11.9383 N   0  0  0  0  0  0  0  0  0  0  0  0
   -4.3451   -3.0008  -10.3394 C   0  0  0  0  0  0  0  0  0  0  0  0
   -3.3235   -3.2332  -11.4908 C   0  0  0  0  0  0  0  0  0  0  0  0
   -2.1716   -2.2615  -11.3693 C   0  0  0  0  0  0  0  0  0  0  0  0
   -1.4909   -2.6135  -10.2769 C   0  0  0  0  0  0  0  0  0  0  0  0
   -2.2045   -3.8102   -9.6917 C   0  0  0  0  0  0  0  0  0  0  0  0
   -2.6358   -4.4864  -10.9803 C   0  0  0  0  0  0  0  0  0  0  0  0
   -3.5970   -3.3843   -9.1376 C   0  0  0  0  0  0  0  0  0  0  0  0
    2.3346   -2.2512    6.0723 H   0  0  0  0  0  0  0  0  0  0  0  0
    3.9554   -1.9184   -0.0364 H   0  0  0  0  0  0  0  0  0  0  0  0
    5.0194   -6.0196    2.7983 H   0  0  0  0  0  0  0  0  0  0  0  0
    4.6998   -6.7464   -0.5480 H   0  0  0  0  0  0  0  0  0  0  0  0
    7.3920   -6.7787    0.1209 H   0  0  0  0  0  0  0  0  0  0  0  0
    7.3287   -7.5209   -2.4269 H   0  0  0  0  0  0  0  0  0  0  0  0
    6.8091   -5.4201   -3.8794 H   0  0  0  0  0  0  0  0  0  0  0  0
    6.5290   -3.3302   -2.2590 H   0  0  0  0  0  0  0  0  0  0  0  0
    7.3550   -4.0987    0.1708 H   0  0  0  0  0  0  0  0  0  0  0  0
    8.4990   -4.6919   -1.1000 H   0  0  0  0  0  0  0  0  0  0  0  0
    4.2152   -4.8265   -1.8864 H   0  0  0  0  0  0  0  0  0  0  0  0
    5.2225    0.4457    3.9077 H   0  0  0  0  0  0  0  0  0  0  0  0
    7.1578   -0.5419    5.0792 H   0  0  0  0  0  0  0  0  0  0  0  0
    6.3882   -2.9638    8.4608 H   0  0  0  0  0  0  0  0  0  0  0  0
    6.9203   -3.0048    6.7239 H   0  0  0  0  0  0  0  0  0  0  0  0
    8.0879   -3.3965    8.0373 H   0  0  0  0  0  0  0  0  0  0  0  0
    5.0991   -0.1291    8.8375 H   0  0  0  0  0  0  0  0  0  0  0  0
    3.1505    0.8405    7.6636 H   0  0  0  0  0  0  0  0  0  0  0  0
    1.8281    3.2072    6.6271 H   0  0  0  0  0  0  0  0  0  0  0  0
    2.0454    5.6632    6.4314 H   0  0  0  0  0  0  0  0  0  0  0  0
    4.7850    7.0205    6.6262 H   0  0  0  0  0  0  0  0  0  0  0  0
    5.3615    8.4537    5.6885 H   0  0  0  0  0  0  0  0  0  0  0  0
    5.8127    6.7924    5.1455 H   0  0  0  0  0  0  0  0  0  0  0  0
    4.5791    5.1650    2.9868 H   0  0  0  0  0  0  0  0  0  0  0  0
    4.3613    2.7125    3.1789 H   0  0  0  0  0  0  0  0  0  0  0  0
   -3.7007    0.9112    3.8285 H   0  0  0  0  0  0  0  0  0  0  0  0
   -6.0973    1.4370    3.6227 H   0  0  0  0  0  0  0  0  0  0  0  0
   -9.6060   -0.4337    1.7485 H   0  0  0  0  0  0  0  0  0  0  0  0
   -8.0583   -1.1258    1.1269 H   0  0  0  0  0  0  0  0  0  0  0  0
   -8.1989   -0.6176    2.8647 H   0  0  0  0  0  0  0  0  0  0  0  0
   -6.0051    0.2892   -0.5189 H   0  0  0  0  0  0  0  0  0  0  0  0
   -3.5899   -0.1504   -0.3554 H   0  0  0  0  0  0  0  0  0  0  0  0
   -3.1830   -2.3892    1.4232 H   0  0  0  0  0  0  0  0  0  0  0  0
   -2.1461   -4.3190    0.3013 H   0  0  0  0  0  0  0  0  0  0  0  0
    1.8758   -4.6163    1.1307 H   0  0  0  0  0  0  0  0  0  0  0  0
    0.3952   -5.6240    1.3916 H   0  0  0  0  0  0  0  0  0  0  0  0
    1.7910   -6.2862    0.4546 H   0  0  0  0  0  0  0  0  0  0  0  0
    1.4609   -2.0565   -0.2946 H   0  0  0  0  0  0  0  0  0  0  0  0
    0.4505   -0.1303    0.8287 H   0  0  0  0  0  0  0  0  0  0  0  0
   -2.0585    1.5112   -3.5208 H   0  0  0  0  0  0  0  0  0  0  0  0
   -0.4087    1.5042   -4.2404 H   0  0  0  0  0  0  0  0  0  0  0  0
   -1.2716    0.1775   -1.5983 H   0  0  0  0  0  0  0  0  0  0  0  0
   -0.8317   -0.6538   -3.1324 H   0  0  0  0  0  0  0  0  0  0  0  0
    0.4335    0.2492   -2.2095 H   0  0  0  0  0  0  0  0  0  0  0  0
    1.5850    3.0938   -1.6935 H   0  0  0  0  0  0  0  0  0  0  0  0
    2.6064    2.0788   -0.6265 H   0  0  0  0  0  0  0  0  0  0  0  0
    1.3728    4.7915    0.1683 H   0  0  0  0  0  0  0  0  0  0  0  0
    3.0865    4.5067   -0.3228 H   0  0  0  0  0  0  0  0  0  0  0  0
    2.4546    3.7636    1.1926 H   0  0  0  0  0  0  0  0  0  0  0  0
   -5.1126    4.5122   -7.2869 H   0  0  0  0  0  0  0  0  0  0  0  0
   -2.9001   -1.3955   -6.7176 H   0  0  0  0  0  0  0  0  0  0  0  0
   -5.5338   -0.1196  -10.8915 H   0  0  0  0  0  0  0  0  0  0  0  0
   -5.3132   -3.5414  -10.4505 H   0  0  0  0  0  0  0  0  0  0  0  0
   -3.7637   -3.3123  -12.5070 H   0  0  0  0  0  0  0  0  0  0  0  0
   -1.8912   -1.4810  -12.0678 H   0  0  0  0  0  0  0  0  0  0  0  0
   -0.5647   -2.1664   -9.9324 H   0  0  0  0  0  0  0  0  0  0  0  0
   -1.5925   -4.4332   -9.0057 H   0  0  0  0  0  0  0  0  0  0  0  0
   -1.7782   -4.8149  -11.6164 H   0  0  0  0  0  0  0  0  0  0  0  0
   -3.3318   -5.3447  -10.8236 H   0  0  0  0  0  0  0  0  0  0  0  0
   -4.1099   -4.1509   -8.5167 H   0  0  0  0  0  0  0  0  0  0  0  0
  1  2  2  3
  2  3  1  0
  3  4  2  0
  3  5  1  0
  5  6  2  0
  6  7  1  0
  7  8  2  0
  8  9  1  0
  9 10  2  0
 10 11  1  0
 11 12  2  3
 12 13  1  0
 13 14  3  0
 12 15  1  0
 15 16  3  0
  8 17  1  0
 17 18  1  0
 18 19  1  0
 19 20  2  0
 20 21  1  0
 21 22  1  0
 21 23  1  0
  1 24  1  0
 24 25  2  0
 25 26  1  0
 26 27  1  0
 27 28  2  0
 28 29  1  0
 29 30  2  0
 30 31  1  0
 31 32  1  0
 30 33  1  0
 33 34  2  0
 26 35  1  0
 35 36  2  0
 36 37  1  0
 37 38  2  0
 38 39  1  0
 39 40  1  0
 38 41  1  0
 41 42  2  0
 25 43  1  0
 43 44  1  0
 44 45  1  0
 45 46  2  0
 46 47  1  0
 47 48  1  0
 48 49  2  0
 49 50  1  0
 50 51  2  0
 51 52  1  0
 52 53  1  0
 51 54  1  0
 54 55  2  0
 47 56  1  0
 56 57  2  0
 57 58  1  0
 58 59  2  0
 59 60  1  0
 60 61  1  0
 59 62  1  0
 62 63  2  0
 46 64  1  0
 64 65  1  0
 45 66  1  0
 66 67  1  0
 67 68  1  0
 68 69  2  0
 69 70  1  0
 70 71  1  0
 68 72  1  0
 72 73  2  0
 73 74  1  0
 74 75  1  0
 75 76  1  0
 73 77  1  0
 77 78  1  0
 78 79  1  0
 79 80  1  0
 72 81  1  0
 81 82  2  0
 82 83  1  0
 83 84  1  0
 84 85  2  0
 85 86  2  0
 83 87  2  0
 87 88  1  0
 88 89  2  0
 89 90  1  0
 90 91  1  0
 91 92  2  0
 87 93  1  0
 93 94  2  3
 94 95  1  0
 95 96  2  0
 95 97  1  0
 97 98  2  0
 98 99  1  0
 99100  2  0
100101  1  0
101102  2  0
102103  1  0
103104  2  3
104105  1  0
105106  3  0
104107  1  0
107108  3  0
100109  1  0
109110  1  0
110111  1  0
111112  2  0
112113  1  0
113114  1  0
113115  1  0
 11  2  1  0
 23 17  1  0
 65 24  1  0
 77 66  2  0
 92 81  1  0
103 94  1  0
115109  1  0
 10  5  1  0
 22 18  1  0
 34 27  1  0
 42 35  1  0
 64 43  2  0
 71 67  2  0
 86 82  1  0
 92 88  1  0
102 97  1  0
114110  1  0
 23  7  1  0
 55 48  1  0
 63 56  1  0
115 99  1  0
  1116  1  0
  6117  1  0
  9118  1  0
 17119  1  0
 18120  1  0
 19121  1  0
 20122  1  0
 21123  1  0
 22124  1  0
 22125  1  0
 23126  1  0
 28127  1  0
 29128  1  0
 32129  1  0
 32130  1  0
 32131  1  0
 33132  1  0
 34133  1  0
 36134  1  0
 37135  1  0
 40136  1  0
 40137  1  0
 40138  1  0
 41139  1  0
 42140  1  0
 49141  1  0
 50142  1  0
 53143  1  0
 53144  1  0
 53145  1  0
 54146  1  0
 55147  1  0
 57148  1  0
 58149  1  0
 61150  1  0
 61151  1  0
 61152  1  0
 62153  1  0
 63154  1  0
 75155  1  0
 75156  1  0
 76157  1  0
 76158  1  0
 76159  1  0
 79160  1  0
 79161  1  0
 80162  1  0
 80163  1  0
 80164  1  0
 93165  1  0
 98166  1  0
101167  1  0
109168  1  0
110169  1  0
111170  1  0
112171  1  0
113172  1  0
114173  1  0
114174  1  0
115175  1  0
M  END

