
     RDKit          3D

203223  0  0  0  0  0  0  0  0999 V2000
   -5.6781    2.5854   -1.8446 C   0  0  0  0  0  0  0  0  0  0  0  0
   -6.5552    1.5578   -1.6844 C   0  0  0  0  0  0  0  0  0  0  0  0
   -7.0541    1.0160   -0.4160 C   0  0  0  0  0  0  0  0  0  0  0  0
   -7.0841    1.6461    0.7082 O   0  0  0  0  0  0  0  0  0  0  0  0
   -7.8496   -0.1849   -0.6636 C   0  0  0  0  0  0  0  0  0  0  0  0
   -8.6065   -0.9911    0.2167 C   0  0  0  0  0  0  0  0  0  0  0  0
   -9.2546   -2.0525   -0.4180 C   0  0  0  0  0  0  0  0  0  0  0  0
   -9.1905   -2.3236   -1.8519 C   0  0  0  0  0  0  0  0  0  0  0  0
   -8.4858   -1.4930   -2.6889 C   0  0  0  0  0  0  0  0  0  0  0  0
   -7.8485   -0.4126   -2.1255 C   0  0  0  0  0  0  0  0  0  0  0  0
   -7.1972    0.7499   -2.7165 C   0  0  0  0  0  0  0  0  0  0  0  0
   -7.2951    1.0625   -4.0179 C   0  0  0  0  0  0  0  0  0  0  0  0
   -7.4158    2.3653   -4.5068 C   0  0  0  0  0  0  0  0  0  0  0  0
   -7.5015    3.4958   -4.9240 N   0  0  0  0  0  0  0  0  0  0  0  0
   -6.8990    0.0046   -5.0746 C   0  0  0  0  0  0  0  0  0  0  0  0
   -6.4175   -0.8180   -5.8031 N   0  0  0  0  0  0  0  0  0  0  0  0
  -10.0331   -3.5697   -1.6421 C   0  0  0  0  0  0  0  0  0  0  0  0
   -9.3077   -4.9542   -1.7521 C   0  0  0  0  0  0  0  0  0  0  0  0
   -7.8600   -4.7963   -1.3182 C   0  0  0  0  0  0  0  0  0  0  0  0
   -7.8730   -4.5589   -0.0166 C   0  0  0  0  0  0  0  0  0  0  0  0
   -9.3325   -4.5177    0.4004 C   0  0  0  0  0  0  0  0  0  0  0  0
   -9.8578   -5.6299   -0.4916 C   0  0  0  0  0  0  0  0  0  0  0  0
  -10.0639   -3.3164   -0.1990 C   0  0  0  0  0  0  0  0  0  0  0  0
   -4.2001    2.4057   -1.8491 C   0  0  0  0  0  0  0  0  0  0  0  0
   -3.3789    2.5067   -0.7381 C   0  0  0  0  0  0  0  0  0  0  0  0
   -3.8452    2.5301    0.6292 N   0  0  0  0  0  0  0  0  0  0  0  0
   -3.6846    3.7678    1.3268 C   0  0  0  0  0  0  0  0  0  0  0  0
   -2.9616    3.7550    2.5187 C   0  0  0  0  0  0  0  0  0  0  0  0
   -2.4831    4.9297    3.0724 C   0  0  0  0  0  0  0  0  0  0  0  0
   -2.7524    6.1545    2.4194 C   0  0  0  0  0  0  0  0  0  0  0  0
   -2.2142    7.6963    3.1678 S   0  0  0  0  0  0  0  0  0  0  0  0
   -0.6658    7.8751    2.2472 C   0  0  0  0  0  0  0  0  0  0  0  0
   -3.4460    6.1935    1.2148 C   0  0  0  0  0  0  0  0  0  0  0  0
   -3.9326    5.0079    0.6824 C   0  0  0  0  0  0  0  0  0  0  0  0
   -4.0843    1.2503    1.2548 C   0  0  0  0  0  0  0  0  0  0  0  0
   -3.4959    0.0825    0.6950 C   0  0  0  0  0  0  0  0  0  0  0  0
   -3.7121   -1.1687    1.2311 C   0  0  0  0  0  0  0  0  0  0  0  0
   -4.6056   -1.3355    2.2955 C   0  0  0  0  0  0  0  0  0  0  0  0
   -4.9107   -3.0229    2.9150 S   0  0  0  0  0  0  0  0  0  0  0  0
   -4.3826   -4.0249    1.4703 C   0  0  0  0  0  0  0  0  0  0  0  0
   -5.1858   -0.1943    2.8956 C   0  0  0  0  0  0  0  0  0  0  0  0
   -4.9213    1.0698    2.3741 C   0  0  0  0  0  0  0  0  0  0  0  0
   -2.0283    2.3291   -1.0132 C   0  0  0  0  0  0  0  0  0  0  0  0
   -0.6751    2.3704   -0.0630 S   0  0  0  0  0  0  0  0  0  0  0  0
    0.4658    2.0600   -1.2266 C   0  0  0  0  0  0  0  0  0  0  0  0
   -0.2411    1.9698   -2.4388 C   0  0  0  0  0  0  0  0  0  0  0  0
    0.3584    2.2516   -3.7390 N   0  0  0  0  0  0  0  0  0  0  0  0
    0.4666    1.1849   -4.7053 C   0  0  0  0  0  0  0  0  0  0  0  0
   -0.1512    1.3684   -5.9556 C   0  0  0  0  0  0  0  0  0  0  0  0
   -0.0650    0.4437   -6.9548 C   0  0  0  0  0  0  0  0  0  0  0  0
    0.5414   -0.8306   -6.6902 C   0  0  0  0  0  0  0  0  0  0  0  0
    0.5759   -2.1504   -7.9599 S   0  0  0  0  0  0  0  0  0  0  0  0
   -0.7268   -1.5632   -9.1077 C   0  0  0  0  0  0  0  0  0  0  0  0
    1.1373   -1.0405   -5.4221 C   0  0  0  0  0  0  0  0  0  0  0  0
    1.0913   -0.0292   -4.4408 C   0  0  0  0  0  0  0  0  0  0  0  0
    0.4116    3.6371   -4.2159 C   0  0  0  0  0  0  0  0  0  0  0  0
   -0.6362    4.5421   -3.9666 C   0  0  0  0  0  0  0  0  0  0  0  0
   -0.7339    5.7584   -4.6436 C   0  0  0  0  0  0  0  0  0  0  0  0
    0.2549    6.1254   -5.5947 C   0  0  0  0  0  0  0  0  0  0  0  0
    0.1793    7.7363   -6.4240 S   0  0  0  0  0  0  0  0  0  0  0  0
   -1.6178    8.0642   -6.4413 C   0  0  0  0  0  0  0  0  0  0  0  0
    1.3412    5.2418   -5.8039 C   0  0  0  0  0  0  0  0  0  0  0  0
    1.4082    4.0472   -5.0989 C   0  0  0  0  0  0  0  0  0  0  0  0
   -1.6533    2.1085   -2.2514 C   0  0  0  0  0  0  0  0  0  0  0  0
   -3.1091    2.1567   -3.1449 S   0  0  0  0  0  0  0  0  0  0  0  0
    1.7664    1.3994   -0.7932 C   0  0  0  0  0  0  0  0  0  0  0  0
    1.7738    0.2488   -0.0234 C   0  0  0  0  0  0  0  0  0  0  0  0
    0.6609   -0.5795    0.1772 N   0  0  0  0  0  0  0  0  0  0  0  0
    0.4925   -1.6378   -0.7959 C   0  0  0  0  0  0  0  0  0  0  0  0
    1.6118   -2.3371   -1.3077 C   0  0  0  0  0  0  0  0  0  0  0  0
    1.4788   -3.4393   -2.1043 C   0  0  0  0  0  0  0  0  0  0  0  0
    0.1846   -3.9550   -2.3909 C   0  0  0  0  0  0  0  0  0  0  0  0
    0.0103   -5.3788   -3.4794 S   0  0  0  0  0  0  0  0  0  0  0  0
    1.4893   -6.3614   -3.0489 C   0  0  0  0  0  0  0  0  0  0  0  0
   -0.9442   -3.2462   -1.9536 C   0  0  0  0  0  0  0  0  0  0  0  0
   -0.7710   -2.0744   -1.2056 C   0  0  0  0  0  0  0  0  0  0  0  0
    0.0623   -0.6464    1.4992 C   0  0  0  0  0  0  0  0  0  0  0  0
   -0.5439   -1.8318    1.9953 C   0  0  0  0  0  0  0  0  0  0  0  0
   -1.0616   -1.9163    3.2766 C   0  0  0  0  0  0  0  0  0  0  0  0
   -0.9840   -0.8011    4.1481 C   0  0  0  0  0  0  0  0  0  0  0  0
   -1.7885   -0.9035    5.7513 S   0  0  0  0  0  0  0  0  0  0  0  0
   -0.6663    0.1074    6.7589 C   0  0  0  0  0  0  0  0  0  0  0  0
   -0.3624    0.3749    3.7045 C   0  0  0  0  0  0  0  0  0  0  0  0
    0.1728    0.4324    2.4179 C   0  0  0  0  0  0  0  0  0  0  0  0
    2.9401   -0.0045    0.6155 C   0  0  0  0  0  0  0  0  0  0  0  0
    3.4076   -1.2753    1.6101 S   0  0  0  0  0  0  0  0  0  0  0  0
    4.9987   -0.7696    1.8592 C   0  0  0  0  0  0  0  0  0  0  0  0
    5.1558    0.4291    1.1543 C   0  0  0  0  0  0  0  0  0  0  0  0
    6.4331    1.1532    1.1460 N   0  0  0  0  0  0  0  0  0  0  0  0
    7.4596    0.5305    0.3717 C   0  0  0  0  0  0  0  0  0  0  0  0
    7.2354    0.3569   -1.0075 C   0  0  0  0  0  0  0  0  0  0  0  0
    8.0780   -0.4135   -1.7917 C   0  0  0  0  0  0  0  0  0  0  0  0
    9.1816   -1.0805   -1.1788 C   0  0  0  0  0  0  0  0  0  0  0  0
   10.2277   -2.0894   -2.2212 S   0  0  0  0  0  0  0  0  0  0  0  0
    8.9676   -3.2559   -2.7919 C   0  0  0  0  0  0  0  0  0  0  0  0
    9.4230   -0.8835    0.1760 C   0  0  0  0  0  0  0  0  0  0  0  0
    8.5883   -0.0908    0.9568 C   0  0  0  0  0  0  0  0  0  0  0  0
    6.5248    2.4961    1.6680 C   0  0  0  0  0  0  0  0  0  0  0  0
    7.4137    3.4200    1.0502 C   0  0  0  0  0  0  0  0  0  0  0  0
    7.3578    4.7592    1.3354 C   0  0  0  0  0  0  0  0  0  0  0  0
    6.4038    5.2469    2.2625 C   0  0  0  0  0  0  0  0  0  0  0  0
    6.2424    7.0076    2.5506 S   0  0  0  0  0  0  0  0  0  0  0  0
    5.6422    7.4169    0.8926 C   0  0  0  0  0  0  0  0  0  0  0  0
    5.5450    4.3387    2.9145 C   0  0  0  0  0  0  0  0  0  0  0  0
    5.6402    2.9872    2.6245 C   0  0  0  0  0  0  0  0  0  0  0  0
    3.9645    0.8272    0.4437 C   0  0  0  0  0  0  0  0  0  0  0  0
    3.3578    2.0318   -0.5992 S   0  0  0  0  0  0  0  0  0  0  0  0
    5.8048   -1.2519    2.9724 C   0  0  0  0  0  0  0  0  0  0  0  0
    5.5043   -0.7115    4.2329 C   0  0  0  0  0  0  0  0  0  0  0  0
    5.7237   -1.4339    5.3726 C   0  0  0  0  0  0  0  0  0  0  0  0
    5.1826   -0.9301    6.4752 F   0  0  0  0  0  0  0  0  0  0  0  0
    6.2558   -2.7406    5.3037 C   0  0  0  0  0  0  0  0  0  0  0  0
    6.8208   -3.1512    4.0696 C   0  0  0  0  0  0  0  0  0  0  0  0
    6.5967   -2.3884    2.9096 C   0  0  0  0  0  0  0  0  0  0  0  0
    7.1194   -2.8727    1.7682 N   0  0  0  0  0  0  0  0  0  0  0  0
    7.8431   -4.2618    2.3106 S   0  0  0  0  0  0  0  0  0  0  0  0
    7.5371   -4.2721    3.9057 N   0  0  0  0  0  0  0  0  0  0  0  0
    6.0879   -3.6114    6.5031 C   0  0  0  0  0  0  0  0  0  0  0  0
    4.9024   -4.0644    6.9452 C   0  0  0  0  0  0  0  0  0  0  0  0
    4.5744   -4.2098    8.4459 C   0  0  0  0  0  0  0  0  0  0  0  0
    5.3024   -3.7670    9.3558 O   0  0  0  0  0  0  0  0  0  0  0  0
    3.0739   -4.0607    8.5140 C   0  0  0  0  0  0  0  0  0  0  0  0
    2.2186   -4.2349    9.5648 C   0  0  0  0  0  0  0  0  0  0  0  0
    0.6782   -3.9014    8.8965 S   0  0  0  0  0  0  0  0  0  0  0  0
    1.1610   -3.5629    7.3219 C   0  0  0  0  0  0  0  0  0  0  0  0
    2.5465   -3.7595    7.2970 C   0  0  0  0  0  0  0  0  0  0  0  0
    3.6075   -3.8183    6.2401 C   0  0  0  0  0  0  0  0  0  0  0  0
    3.3805   -4.0993    4.9353 C   0  0  0  0  0  0  0  0  0  0  0  0
    4.2485   -5.0376    4.3001 C   0  0  0  0  0  0  0  0  0  0  0  0
    4.9893   -5.8299    3.8316 N   0  0  0  0  0  0  0  0  0  0  0  0
    2.1678   -3.7821    4.2371 C   0  0  0  0  0  0  0  0  0  0  0  0
    1.2204   -3.5784    3.6666 N   0  0  0  0  0  0  0  0  0  0  0  0
   -5.7253    3.2037   -2.7077 H   0  0  0  0  0  0  0  0  0  0  0  0
   -8.6906   -0.8177    1.3076 H   0  0  0  0  0  0  0  0  0  0  0  0
   -8.4637   -1.7027   -3.7684 H   0  0  0  0  0  0  0  0  0  0  0  0
  -11.0047   -3.5062   -2.1360 H   0  0  0  0  0  0  0  0  0  0  0  0
   -9.4773   -5.5117   -2.6835 H   0  0  0  0  0  0  0  0  0  0  0  0
   -6.9803   -4.8830   -1.9274 H   0  0  0  0  0  0  0  0  0  0  0  0
   -7.0217   -4.4324    0.6085 H   0  0  0  0  0  0  0  0  0  0  0  0
   -9.5341   -4.6685    1.4865 H   0  0  0  0  0  0  0  0  0  0  0  0
   -9.4301   -6.6184   -0.2749 H   0  0  0  0  0  0  0  0  0  0  0  0
  -10.9747   -5.7380   -0.4585 H   0  0  0  0  0  0  0  0  0  0  0  0
  -11.0848   -3.0997    0.1758 H   0  0  0  0  0  0  0  0  0  0  0  0
   -2.6846    2.8199    2.9768 H   0  0  0  0  0  0  0  0  0  0  0  0
   -1.9798    4.8937    4.0258 H   0  0  0  0  0  0  0  0  0  0  0  0
    0.1088    7.2470    2.7113 H   0  0  0  0  0  0  0  0  0  0  0  0
   -0.7977    7.6242    1.1976 H   0  0  0  0  0  0  0  0  0  0  0  0
   -0.3515    8.9429    2.3205 H   0  0  0  0  0  0  0  0  0  0  0  0
   -3.6943    7.1148    0.7009 H   0  0  0  0  0  0  0  0  0  0  0  0
   -4.3931    5.0387   -0.2937 H   0  0  0  0  0  0  0  0  0  0  0  0
   -2.8593    0.1304   -0.1566 H   0  0  0  0  0  0  0  0  0  0  0  0
   -3.1734   -1.9795    0.7801 H   0  0  0  0  0  0  0  0  0  0  0  0
   -3.3013   -4.0246    1.3406 H   0  0  0  0  0  0  0  0  0  0  0  0
   -4.8908   -3.6744    0.5516 H   0  0  0  0  0  0  0  0  0  0  0  0
   -4.6515   -5.0701    1.6589 H   0  0  0  0  0  0  0  0  0  0  0  0
   -5.8632   -0.3078    3.7426 H   0  0  0  0  0  0  0  0  0  0  0  0
   -5.4036    1.9251    2.8216 H   0  0  0  0  0  0  0  0  0  0  0  0
   -0.6753    2.2864   -6.1897 H   0  0  0  0  0  0  0  0  0  0  0  0
   -0.4969    0.7583   -7.9059 H   0  0  0  0  0  0  0  0  0  0  0  0
   -1.6167   -1.2074   -8.5740 H   0  0  0  0  0  0  0  0  0  0  0  0
   -0.2978   -0.7435   -9.7196 H   0  0  0  0  0  0  0  0  0  0  0  0
   -1.0236   -2.3885   -9.7965 H   0  0  0  0  0  0  0  0  0  0  0  0
    1.6815   -1.9652   -5.2372 H   0  0  0  0  0  0  0  0  0  0  0  0
    1.5833   -0.1699   -3.5062 H   0  0  0  0  0  0  0  0  0  0  0  0
   -1.4683    4.3227   -3.3419 H   0  0  0  0  0  0  0  0  0  0  0  0
   -1.5739    6.3963   -4.3931 H   0  0  0  0  0  0  0  0  0  0  0  0
   -1.8023    8.8258   -5.6419 H   0  0  0  0  0  0  0  0  0  0  0  0
   -1.9110    8.5288   -7.3929 H   0  0  0  0  0  0  0  0  0  0  0  0
   -2.2442    7.1843   -6.3150 H   0  0  0  0  0  0  0  0  0  0  0  0
    2.1640    5.5419   -6.4645 H   0  0  0  0  0  0  0  0  0  0  0  0
    2.2493    3.3920   -5.3496 H   0  0  0  0  0  0  0  0  0  0  0  0
    2.6183   -2.0841   -1.0305 H   0  0  0  0  0  0  0  0  0  0  0  0
    2.4150   -3.8921   -2.4263 H   0  0  0  0  0  0  0  0  0  0  0  0
    1.2282   -7.4293   -2.9935 H   0  0  0  0  0  0  0  0  0  0  0  0
    1.9624   -6.0645   -2.1101 H   0  0  0  0  0  0  0  0  0  0  0  0
    2.1986   -6.2243   -3.8799 H   0  0  0  0  0  0  0  0  0  0  0  0
   -1.9495   -3.5674   -2.2036 H   0  0  0  0  0  0  0  0  0  0  0  0
   -1.6530   -1.5595   -0.9040 H   0  0  0  0  0  0  0  0  0  0  0  0
   -0.6010   -2.7283    1.3817 H   0  0  0  0  0  0  0  0  0  0  0  0
   -1.5200   -2.8327    3.5842 H   0  0  0  0  0  0  0  0  0  0  0  0
   -0.9890    1.1504    6.7027 H   0  0  0  0  0  0  0  0  0  0  0  0
    0.3575    0.0280    6.4005 H   0  0  0  0  0  0  0  0  0  0  0  0
   -0.7426   -0.2263    7.8060 H   0  0  0  0  0  0  0  0  0  0  0  0
   -0.3088    1.2653    4.3177 H   0  0  0  0  0  0  0  0  0  0  0  0
    0.6728    1.3332    2.1071 H   0  0  0  0  0  0  0  0  0  0  0  0
    6.3679    0.8019   -1.4661 H   0  0  0  0  0  0  0  0  0  0  0  0
    7.8261   -0.5402   -2.8365 H   0  0  0  0  0  0  0  0  0  0  0  0
    9.4700   -4.0502   -3.3857 H   0  0  0  0  0  0  0  0  0  0  0  0
    8.4832   -3.7344   -1.9216 H   0  0  0  0  0  0  0  0  0  0  0  0
    8.2484   -2.7926   -3.4642 H   0  0  0  0  0  0  0  0  0  0  0  0
   10.3166   -1.3523    0.6166 H   0  0  0  0  0  0  0  0  0  0  0  0
    8.8161    0.0296    1.9970 H   0  0  0  0  0  0  0  0  0  0  0  0
    8.1265    3.1113    0.2911 H   0  0  0  0  0  0  0  0  0  0  0  0
    8.0289    5.4426    0.7917 H   0  0  0  0  0  0  0  0  0  0  0  0
    4.7848    6.7733    0.6219 H   0  0  0  0  0  0  0  0  0  0  0  0
    5.2602    8.4587    0.9375 H   0  0  0  0  0  0  0  0  0  0  0  0
    6.4482    7.3582    0.1569 H   0  0  0  0  0  0  0  0  0  0  0  0
    4.8589    4.6797    3.6684 H   0  0  0  0  0  0  0  0  0  0  0  0
    4.9991    2.2955    3.1417 H   0  0  0  0  0  0  0  0  0  0  0  0
    4.8863    0.1584    4.2960 H   0  0  0  0  0  0  0  0  0  0  0  0
    6.9620   -3.8033    7.1026 H   0  0  0  0  0  0  0  0  0  0  0  0
    2.4552   -4.4527   10.5746 H   0  0  0  0  0  0  0  0  0  0  0  0
    0.5196   -3.3024    6.5129 H   0  0  0  0  0  0  0  0  0  0  0  0
  1  2  2  3
  2  3  1  0
  3  4  2  0
  3  5  1  0
  5  6  2  0
  6  7  1  0
  7  8  2  0
  8  9  1  0
  9 10  2  0
 10 11  1  0
 11 12  2  3
 12 13  1  0
 13 14  3  0
 12 15  1  0
 15 16  3  0
  8 17  1  0
 17 18  1  0
 18 19  1  0
 19 20  2  0
 20 21  1  0
 21 22  1  0
 21 23  1  0
  1 24  1  0
 24 25  2  0
 25 26  1  0
 26 27  1  0
 27 28  2  0
 28 29  1  0
 29 30  2  0
 30 31  1  0
 31 32  1  0
 30 33  1  0
 33 34  2  0
 26 35  1  0
 35 36  2  0
 36 37  1  0
 37 38  2  0
 38 39  1  0
 39 40  1  0
 38 41  1  0
 41 42  2  0
 25 43  1  0
 43 44  1  0
 44 45  1  0
 45 46  2  0
 46 47  1  0
 47 48  1  0
 48 49  2  0
 49 50  1  0
 50 51  2  0
 51 52  1  0
 52 53  1  0
 51 54  1  0
 54 55  2  0
 47 56  1  0
 56 57  2  0
 57 58  1  0
 58 59  2  0
 59 60  1  0
 60 61  1  0
 59 62  1  0
 62 63  2  0
 46 64  1  0
 64 65  1  0
 45 66  1  0
 66 67  2  0
 67 68  1  0
 68 69  1  0
 69 70  2  0
 70 71  1  0
 71 72  2  0
 72 73  1  0
 73 74  1  0
 72 75  1  0
 75 76  2  0
 68 77  1  0
 77 78  2  0
 78 79  1  0
 79 80  2  0
 80 81  1  0
 81 82  1  0
 80 83  1  0
 83 84  2  0
 67 85  1  0
 85 86  1  0
 86 87  1  0
 87 88  2  0
 88 89  1  0
 89 90  1  0
 90 91  2  0
 91 92  1  0
 92 93  2  0
 93 94  1  0
 94 95  1  0
 93 96  1  0
 96 97  2  0
 89 98  1  0
 98 99  2  0
 99100  1  0
100101  2  0
101102  1  0
102103  1  0
101104  1  0
104105  2  0
 88106  1  0
106107  1  0
 87108  1  0
108109  2  0
109110  1  0
110111  1  0
110112  2  0
112113  1  0
113114  1  0
114115  2  0
115116  1  0
116117  1  0
112118  1  0
118119  2  3
119120  1  0
120121  2  0
120122  1  0
122123  2  0
123124  1  0
124125  1  0
125126  2  0
126127  1  0
127128  2  3
128129  1  0
129130  3  0
128131  1  0
131132  3  0
 11  2  1  0
 23 17  1  0
 65 24  1  0
107 66  1  0
114108  1  0
127119  1  0
 10  5  1  0
 22 18  1  0
 34 27  1  0
 42 35  1  0
 64 43  2  0
 76 69  1  0
 84 77  1  0
106 85  2  0
117113  2  0
126122  1  0
 23  7  1  0
 55 48  1  0
 63 56  1  0
 97 90  1  0
105 98  1  0
  1133  1  0
  6134  1  0
  9135  1  0
 17136  1  0
 18137  1  0
 19138  1  0
 20139  1  0
 21140  1  0
 22141  1  0
 22142  1  0
 23143  1  0
 28144  1  0
 29145  1  0
 32146  1  0
 32147  1  0
 32148  1  0
 33149  1  0
 34150  1  0
 36151  1  0
 37152  1  0
 40153  1  0
 40154  1  0
 40155  1  0
 41156  1  0
 42157  1  0
 49158  1  0
 50159  1  0
 53160  1  0
 53161  1  0
 53162  1  0
 54163  1  0
 55164  1  0
 57165  1  0
 58166  1  0
 61167  1  0
 61168  1  0
 61169  1  0
 62170  1  0
 63171  1  0
 70172  1  0
 71173  1  0
 74174  1  0
 74175  1  0
 74176  1  0
 75177  1  0
 76178  1  0
 78179  1  0
 79180  1  0
 82181  1  0
 82182  1  0
 82183  1  0
 83184  1  0
 84185  1  0
 91186  1  0
 92187  1  0
 95188  1  0
 95189  1  0
 95190  1  0
 96191  1  0
 97192  1  0
 99193  1  0
100194  1  0
103195  1  0
103196  1  0
103197  1  0
104198  1  0
105199  1  0
109200  1  0
118201  1  0
123202  1  0
125203  1  0
M  END

