
     RDKit          3D

248271  0  0  0  0  0  0  0  0999 V2000
   -2.7816   -5.2258   -2.9186 C   0  0  0  0  0  0  0  0  0  0  0  0
   -2.2472   -6.3729   -3.3639 C   0  0  0  0  0  0  0  0  0  0  0  0
   -1.5696   -6.3448   -4.6622 C   0  0  0  0  0  0  0  0  0  0  0  0
   -1.9948   -5.7588   -5.6936 O   0  0  0  0  0  0  0  0  0  0  0  0
   -0.1917   -6.7891   -4.4675 C   0  0  0  0  0  0  0  0  0  0  0  0
    0.9045   -6.4913   -5.3096 C   0  0  0  0  0  0  0  0  0  0  0  0
    2.1292   -6.5888   -4.6657 C   0  0  0  0  0  0  0  0  0  0  0  0
    2.2779   -7.0180   -3.3041 C   0  0  0  0  0  0  0  0  0  0  0  0
    1.2029   -7.4124   -2.5107 C   0  0  0  0  0  0  0  0  0  0  0  0
   -0.0724   -7.2813   -3.1397 C   0  0  0  0  0  0  0  0  0  0  0  0
   -1.4302   -7.2667   -2.5168 C   0  0  0  0  0  0  0  0  0  0  0  0
   -1.8759   -8.0125   -1.4907 C   0  0  0  0  0  0  0  0  0  0  0  0
   -3.2741   -8.0067   -1.1537 C   0  0  0  0  0  0  0  0  0  0  0  0
   -4.4052   -7.9881   -0.8989 N   0  0  0  0  0  0  0  0  0  0  0  0
   -1.0058   -8.8182   -0.6871 C   0  0  0  0  0  0  0  0  0  0  0  0
   -0.2666   -9.3830    0.0073 N   0  0  0  0  0  0  0  0  0  0  0  0
    3.7508   -6.7109   -3.3471 C   0  0  0  0  0  0  0  0  0  0  0  0
    4.7633   -7.8891   -3.4252 C   0  0  0  0  0  0  0  0  0  0  0  0
    4.1210   -9.0725   -4.1132 C   0  0  0  0  0  0  0  0  0  0  0  0
    3.9454   -8.7249   -5.3901 C   0  0  0  0  0  0  0  0  0  0  0  0
    4.4893   -7.3164   -5.5294 C   0  0  0  0  0  0  0  0  0  0  0  0
    5.6607   -7.4090   -4.5582 C   0  0  0  0  0  0  0  0  0  0  0  0
    3.6015   -6.3080   -4.7561 C   0  0  0  0  0  0  0  0  0  0  0  0
   -3.2183   -4.8989   -1.5430 C   0  0  0  0  0  0  0  0  0  0  0  0
   -4.2536   -3.9897   -1.2902 C   0  0  0  0  0  0  0  0  0  0  0  0
   -5.3701   -3.7555   -2.1593 N   0  0  0  0  0  0  0  0  0  0  0  0
   -6.6927   -3.9373   -1.6195 C   0  0  0  0  0  0  0  0  0  0  0  0
   -6.9583   -4.9909   -0.7232 C   0  0  0  0  0  0  0  0  0  0  0  0
   -8.1936   -5.0726   -0.0819 C   0  0  0  0  0  0  0  0  0  0  0  0
   -9.1844   -4.1167   -0.3395 C   0  0  0  0  0  0  0  0  0  0  0  0
  -10.7175   -4.1528    0.5824 S   0  0  0  0  0  0  0  0  0  0  0  0
  -10.1041   -3.0405    1.8771 C   0  0  0  0  0  0  0  0  0  0  0  0
   -8.9556   -3.1167   -1.2883 C   0  0  0  0  0  0  0  0  0  0  0  0
   -7.7160   -3.0231   -1.9237 C   0  0  0  0  0  0  0  0  0  0  0  0
   -5.1896   -3.2610   -3.4946 C   0  0  0  0  0  0  0  0  0  0  0  0
   -4.4760   -2.0746   -3.7241 C   0  0  0  0  0  0  0  0  0  0  0  0
   -4.3435   -1.5757   -5.0257 C   0  0  0  0  0  0  0  0  0  0  0  0
   -4.9155   -2.2562   -6.1082 C   0  0  0  0  0  0  0  0  0  0  0  0
   -4.7160   -1.6177   -7.7781 S   0  0  0  0  0  0  0  0  0  0  0  0
   -6.2477   -0.6290   -7.7249 C   0  0  0  0  0  0  0  0  0  0  0  0
   -5.6305   -3.4395   -5.8817 C   0  0  0  0  0  0  0  0  0  0  0  0
   -5.7682   -3.9374   -4.5805 C   0  0  0  0  0  0  0  0  0  0  0  0
   -4.1531   -3.4056   -0.0268 C   0  0  0  0  0  0  0  0  0  0  0  0
   -4.7302   -1.9533    0.5597 S   0  0  0  0  0  0  0  0  0  0  0  0
   -3.6180   -1.8518    1.8407 C   0  0  0  0  0  0  0  0  0  0  0  0
   -2.8440   -3.0231    1.8690 C   0  0  0  0  0  0  0  0  0  0  0  0
   -2.2990   -3.5178    3.1126 N   0  0  0  0  0  0  0  0  0  0  0  0
   -3.0891   -3.3561    4.3106 C   0  0  0  0  0  0  0  0  0  0  0  0
   -2.5050   -2.8808    5.4929 C   0  0  0  0  0  0  0  0  0  0  0  0
   -3.2655   -2.7782    6.6635 C   0  0  0  0  0  0  0  0  0  0  0  0
   -4.6189   -3.1440    6.6590 C   0  0  0  0  0  0  0  0  0  0  0  0
   -5.6022   -3.0145    8.1529 S   0  0  0  0  0  0  0  0  0  0  0  0
   -5.5703   -4.7995    8.5068 C   0  0  0  0  0  0  0  0  0  0  0  0
   -5.2110   -3.6026    5.4713 C   0  0  0  0  0  0  0  0  0  0  0  0
   -4.4499   -3.7200    4.3123 C   0  0  0  0  0  0  0  0  0  0  0  0
   -1.3437   -4.5802    3.1494 C   0  0  0  0  0  0  0  0  0  0  0  0
    0.0144   -4.2945    3.3076 C   0  0  0  0  0  0  0  0  0  0  0  0
    0.9127   -5.3227    3.6314 C   0  0  0  0  0  0  0  0  0  0  0  0
    0.4535   -6.6324    3.7907 C   0  0  0  0  0  0  0  0  0  0  0  0
    1.5794   -7.9345    4.2992 S   0  0  0  0  0  0  0  0  0  0  0  0
    1.9997   -8.4002    2.5905 C   0  0  0  0  0  0  0  0  0  0  0  0
   -0.8938   -6.9340    3.5628 C   0  0  0  0  0  0  0  0  0  0  0  0
   -1.7921   -5.9063    3.2517 C   0  0  0  0  0  0  0  0  0  0  0  0
   -3.1393   -3.8454    0.7643 C   0  0  0  0  0  0  0  0  0  0  0  0
   -2.2498   -4.9675   -0.1352 S   0  0  0  0  0  0  0  0  0  0  0  0
   -3.0389   -0.5379    2.2060 C   0  0  0  0  0  0  0  0  0  0  0  0
   -2.5994    0.3782    1.2373 C   0  0  0  0  0  0  0  0  0  0  0  0
   -2.2581   -0.0135   -0.1087 N   0  0  0  0  0  0  0  0  0  0  0  0
   -1.1826   -0.9829   -0.2972 C   0  0  0  0  0  0  0  0  0  0  0  0
   -0.1039   -1.0556    0.6105 C   0  0  0  0  0  0  0  0  0  0  0  0
    0.9420   -1.9644    0.4205 C   0  0  0  0  0  0  0  0  0  0  0  0
    0.9248   -2.8414   -0.6705 C   0  0  0  0  0  0  0  0  0  0  0  0
    2.3434   -3.8899   -0.9795 S   0  0  0  0  0  0  0  0  0  0  0  0
    1.6460   -5.2647   -0.0320 C   0  0  0  0  0  0  0  0  0  0  0  0
   -0.1373   -2.7922   -1.5759 C   0  0  0  0  0  0  0  0  0  0  0  0
   -1.1916   -1.8831   -1.3827 C   0  0  0  0  0  0  0  0  0  0  0  0
   -2.9343    0.6251   -1.2170 C   0  0  0  0  0  0  0  0  0  0  0  0
   -4.2668    1.0739   -1.0926 C   0  0  0  0  0  0  0  0  0  0  0  0
   -4.9318    1.6416   -2.1896 C   0  0  0  0  0  0  0  0  0  0  0  0
   -4.2647    1.7814   -3.4133 C   0  0  0  0  0  0  0  0  0  0  0  0
   -5.1575    2.3649   -4.8576 S   0  0  0  0  0  0  0  0  0  0  0  0
   -4.7598    4.1152   -4.5820 C   0  0  0  0  0  0  0  0  0  0  0  0
   -2.9294    1.3838   -3.5295 C   0  0  0  0  0  0  0  0  0  0  0  0
   -2.2557    0.8449   -2.4334 C   0  0  0  0  0  0  0  0  0  0  0  0
   -2.0059    1.4912    1.8213 C   0  0  0  0  0  0  0  0  0  0  0  0
   -1.0569    2.7061    1.1654 S   0  0  0  0  0  0  0  0  0  0  0  0
   -0.3498    3.1625    2.6435 C   0  0  0  0  0  0  0  0  0  0  0  0
   -0.8172    2.2993    3.6546 C   0  0  0  0  0  0  0  0  0  0  0  0
   -0.2023    2.1950    4.9557 N   0  0  0  0  0  0  0  0  0  0  0  0
    0.3361    0.9332    5.4151 C   0  0  0  0  0  0  0  0  0  0  0  0
    0.2637    0.5781    6.7765 C   0  0  0  0  0  0  0  0  0  0  0  0
    0.8419   -0.6061    7.2371 C   0  0  0  0  0  0  0  0  0  0  0  0
    1.4947   -1.4667    6.3469 C   0  0  0  0  0  0  0  0  0  0  0  0
    2.3566   -2.9166    6.9634 S   0  0  0  0  0  0  0  0  0  0  0  0
    0.8854   -3.9851    6.9755 C   0  0  0  0  0  0  0  0  0  0  0  0
    1.5567   -1.1367    4.9898 C   0  0  0  0  0  0  0  0  0  0  0  0
    0.9889    0.0623    4.5225 C   0  0  0  0  0  0  0  0  0  0  0  0
   -0.0155    3.4059    5.7236 C   0  0  0  0  0  0  0  0  0  0  0  0
   -1.0421    4.3614    5.8146 C   0  0  0  0  0  0  0  0  0  0  0  0
   -0.8449    5.5558    6.5157 C   0  0  0  0  0  0  0  0  0  0  0  0
    0.3882    5.8108    7.1363 C   0  0  0  0  0  0  0  0  0  0  0  0
    0.6797    7.3776    7.9644 S   0  0  0  0  0  0  0  0  0  0  0  0
    0.2174    6.7411    9.6082 C   0  0  0  0  0  0  0  0  0  0  0  0
    1.4110    4.8537    7.0599 C   0  0  0  0  0  0  0  0  0  0  0  0
    1.2133    3.6624    6.3629 C   0  0  0  0  0  0  0  0  0  0  0  0
   -1.7894    1.4078    3.1565 C   0  0  0  0  0  0  0  0  0  0  0  0
   -2.4709   -0.0246    3.7317 S   0  0  0  0  0  0  0  0  0  0  0  0
    0.9223    3.8960    2.6407 C   0  0  0  0  0  0  0  0  0  0  0  0
    2.0698    3.3048    2.1001 C   0  0  0  0  0  0  0  0  0  0  0  0
    2.9238    4.2118    1.4419 C   0  0  0  0  0  0  0  0  0  0  0  0
    4.0026    3.8527    0.5981 C   0  0  0  0  0  0  0  0  0  0  0  0
    4.3022    2.4312    0.3147 C   0  0  0  0  0  0  0  0  0  0  0  0
    4.6870    1.5607    1.3473 C   0  0  0  0  0  0  0  0  0  0  0  0
    4.7991    0.1871    1.1084 C   0  0  0  0  0  0  0  0  0  0  0  0
    4.5612   -0.3203   -0.1679 C   0  0  0  0  0  0  0  0  0  0  0  0
    4.2049    0.5344   -1.2188 C   0  0  0  0  0  0  0  0  0  0  0  0
    4.0594   -0.1131   -2.8873 S   0  0  0  0  0  0  0  0  0  0  0  0
    2.2405   -0.2035   -2.8932 C   0  0  0  0  0  0  0  0  0  0  0  0
    1.7717   -1.0969   -4.0416 C   0  0  0  0  0  0  0  0  0  0  0  0
    4.0550    1.9087   -0.9700 C   0  0  0  0  0  0  0  0  0  0  0  0
    4.6078    4.8857   -0.1467 C   0  0  0  0  0  0  0  0  0  0  0  0
    4.1437    6.2095   -0.1039 C   0  0  0  0  0  0  0  0  0  0  0  0
    3.0680    6.5658    0.7380 C   0  0  0  0  0  0  0  0  0  0  0  0
    2.5007    7.9305    0.7394 C   0  0  0  0  0  0  0  0  0  0  0  0
    3.2785    9.0056    1.1987 C   0  0  0  0  0  0  0  0  0  0  0  0
    2.7251   10.2876    1.2614 C   0  0  0  0  0  0  0  0  0  0  0  0
    1.4054   10.5069    0.8476 C   0  0  0  0  0  0  0  0  0  0  0  0
    0.6335    9.4403    0.3638 C   0  0  0  0  0  0  0  0  0  0  0  0
   -1.0561    9.7079   -0.1918 S   0  0  0  0  0  0  0  0  0  0  0  0
   -1.8410    9.1904    1.3752 C   0  0  0  0  0  0  0  0  0  0  0  0
   -1.8940   10.3452    2.3636 C   0  0  0  0  0  0  0  0  0  0  0  0
    1.1934    8.1609    0.2877 C   0  0  0  0  0  0  0  0  0  0  0  0
    2.4714    5.5279    1.4909 C   0  0  0  0  0  0  0  0  0  0  0  0
    1.0179    5.5547    2.3359 S   0  0  0  0  0  0  0  0  0  0  0  0
    4.7331    7.0313   -1.0924 C   0  0  0  0  0  0  0  0  0  0  0  0
    5.6461    6.3450   -1.8916 C   0  0  0  0  0  0  0  0  0  0  0  0
    5.7811    4.7513   -1.3502 S   0  0  0  0  0  0  0  0  0  0  0  0
    6.1161    6.8361   -3.1995 C   0  0  0  0  0  0  0  0  0  0  0  0
    5.6436    6.3686   -4.3804 C   0  0  0  0  0  0  0  0  0  0  0  0
    4.5573    5.3834   -4.5257 C   0  0  0  0  0  0  0  0  0  0  0  0
    3.9412    4.7890   -3.6022 O   0  0  0  0  0  0  0  0  0  0  0  0
    4.1914    5.2897   -5.9094 C   0  0  0  0  0  0  0  0  0  0  0  0
    3.2096    4.4686   -6.4620 C   0  0  0  0  0  0  0  0  0  0  0  0
    2.9656    4.5621   -7.8321 C   0  0  0  0  0  0  0  0  0  0  0  0
    3.6877    5.4700   -8.6309 C   0  0  0  0  0  0  0  0  0  0  0  0
    3.3903    5.6037  -10.0886 C   0  0  0  0  0  0  0  0  0  0  0  0
    4.6645    6.2978   -8.0391 C   0  0  0  0  0  0  0  0  0  0  0  0
    4.9321    6.1834   -6.6631 C   0  0  0  0  0  0  0  0  0  0  0  0
    5.9248    6.8752   -5.7808 C   0  0  0  0  0  0  0  0  0  0  0  0
    6.9356    7.6963   -6.1789 C   0  0  0  0  0  0  0  0  0  0  0  0
    7.1152    8.1038   -7.5541 C   0  0  0  0  0  0  0  0  0  0  0  0
    7.2855    8.4375   -8.6492 N   0  0  0  0  0  0  0  0  0  0  0  0
    7.9535    8.1790   -5.2849 C   0  0  0  0  0  0  0  0  0  0  0  0
    8.7805    8.5830   -4.5785 N   0  0  0  0  0  0  0  0  0  0  0  0
   -2.8523   -4.3985   -3.6188 H   0  0  0  0  0  0  0  0  0  0  0  0
    0.7974   -6.0861   -6.3138 H   0  0  0  0  0  0  0  0  0  0  0  0
    1.3363   -7.6871   -1.4745 H   0  0  0  0  0  0  0  0  0  0  0  0
    4.0550   -5.8645   -2.6843 H   0  0  0  0  0  0  0  0  0  0  0  0
    5.3057   -8.1143   -2.4796 H   0  0  0  0  0  0  0  0  0  0  0  0
    3.9103  -10.0451   -3.6734 H   0  0  0  0  0  0  0  0  0  0  0  0
    3.5400   -9.3736   -6.1672 H   0  0  0  0  0  0  0  0  0  0  0  0
    4.7615   -7.0173   -6.5615 H   0  0  0  0  0  0  0  0  0  0  0  0
    6.4376   -8.1539   -4.8610 H   0  0  0  0  0  0  0  0  0  0  0  0
    6.1525   -6.4216   -4.3712 H   0  0  0  0  0  0  0  0  0  0  0  0
    3.8445   -5.2380   -4.9203 H   0  0  0  0  0  0  0  0  0  0  0  0
   -6.1919   -5.7235   -0.4820 H   0  0  0  0  0  0  0  0  0  0  0  0
   -8.3794   -5.8714    0.6267 H   0  0  0  0  0  0  0  0  0  0  0  0
   -9.2366   -3.5025    2.3955 H   0  0  0  0  0  0  0  0  0  0  0  0
  -10.9216   -2.8623    2.6027 H   0  0  0  0  0  0  0  0  0  0  0  0
   -9.8036   -2.0724    1.4239 H   0  0  0  0  0  0  0  0  0  0  0  0
   -9.7289   -2.3819   -1.5108 H   0  0  0  0  0  0  0  0  0  0  0  0
   -7.5310   -2.1941   -2.5995 H   0  0  0  0  0  0  0  0  0  0  0  0
   -4.1019   -1.5044   -2.8890 H   0  0  0  0  0  0  0  0  0  0  0  0
   -3.7858   -0.6680   -5.1989 H   0  0  0  0  0  0  0  0  0  0  0  0
   -6.2139    0.1000   -6.8903 H   0  0  0  0  0  0  0  0  0  0  0  0
   -6.3447   -0.0762   -8.6800 H   0  0  0  0  0  0  0  0  0  0  0  0
   -7.1285   -1.2931   -7.6054 H   0  0  0  0  0  0  0  0  0  0  0  0
   -6.0718   -3.9788   -6.7095 H   0  0  0  0  0  0  0  0  0  0  0  0
   -6.3513   -4.8328   -4.4182 H   0  0  0  0  0  0  0  0  0  0  0  0
   -1.4700   -2.5683    5.4938 H   0  0  0  0  0  0  0  0  0  0  0  0
   -2.7965   -2.4059    7.5699 H   0  0  0  0  0  0  0  0  0  0  0  0
   -6.1269   -4.9846    9.4493 H   0  0  0  0  0  0  0  0  0  0  0  0
   -6.0873   -5.3536    7.6912 H   0  0  0  0  0  0  0  0  0  0  0  0
   -4.5320   -5.1690    8.6216 H   0  0  0  0  0  0  0  0  0  0  0  0
   -6.2555   -3.9055    5.4547 H   0  0  0  0  0  0  0  0  0  0  0  0
   -4.9157   -4.1201    3.4181 H   0  0  0  0  0  0  0  0  0  0  0  0
    0.3554   -3.2689    3.2411 H   0  0  0  0  0  0  0  0  0  0  0  0
    1.9533   -5.0783    3.7883 H   0  0  0  0  0  0  0  0  0  0  0  0
    1.0957   -8.7576    2.0576 H   0  0  0  0  0  0  0  0  0  0  0  0
    2.4258   -7.5299    2.0510 H   0  0  0  0  0  0  0  0  0  0  0  0
    2.7562   -9.2144    2.6077 H   0  0  0  0  0  0  0  0  0  0  0  0
   -1.2626   -7.9473    3.6667 H   0  0  0  0  0  0  0  0  0  0  0  0
   -2.8449   -6.1452    3.1513 H   0  0  0  0  0  0  0  0  0  0  0  0
   -0.0458   -0.3921    1.4615 H   0  0  0  0  0  0  0  0  0  0  0  0
    1.7658   -1.9765    1.1224 H   0  0  0  0  0  0  0  0  0  0  0  0
    0.6877   -5.5829   -0.4846 H   0  0  0  0  0  0  0  0  0  0  0  0
    1.4674   -4.9476    1.0127 H   0  0  0  0  0  0  0  0  0  0  0  0
    2.3608   -6.1135   -0.0268 H   0  0  0  0  0  0  0  0  0  0  0  0
   -0.1493   -3.4579   -2.4303 H   0  0  0  0  0  0  0  0  0  0  0  0
   -2.0108   -1.8939   -2.0801 H   0  0  0  0  0  0  0  0  0  0  0  0
   -4.8109    0.9386   -0.1606 H   0  0  0  0  0  0  0  0  0  0  0  0
   -5.9697    1.9293   -2.0850 H   0  0  0  0  0  0  0  0  0  0  0  0
   -3.6722    4.2937   -4.7465 H   0  0  0  0  0  0  0  0  0  0  0  0
   -5.0544    4.4294   -3.5554 H   0  0  0  0  0  0  0  0  0  0  0  0
   -5.3385    4.7156   -5.3190 H   0  0  0  0  0  0  0  0  0  0  0  0
   -2.4269    1.4553   -4.4775 H   0  0  0  0  0  0  0  0  0  0  0  0
   -1.2200    0.5506   -2.5481 H   0  0  0  0  0  0  0  0  0  0  0  0
   -0.2385    1.2348    7.4815 H   0  0  0  0  0  0  0  0  0  0  0  0
    0.7736   -0.8561    8.2931 H   0  0  0  0  0  0  0  0  0  0  0  0
    0.2030   -3.6894    7.7997 H   0  0  0  0  0  0  0  0  0  0  0  0
    1.2097   -5.0367    7.1267 H   0  0  0  0  0  0  0  0  0  0  0  0
    0.3502   -3.9260    6.0082 H   0  0  0  0  0  0  0  0  0  0  0  0
    2.0599   -1.7910    4.2925 H   0  0  0  0  0  0  0  0  0  0  0  0
    1.0900    0.3248    3.4753 H   0  0  0  0  0  0  0  0  0  0  0  0
   -1.9992    4.1870    5.3398 H   0  0  0  0  0  0  0  0  0  0  0  0
   -1.6406    6.2866    6.5655 H   0  0  0  0  0  0  0  0  0  0  0  0
    0.2674    7.5671   10.3431 H   0  0  0  0  0  0  0  0  0  0  0  0
   -0.8148    6.3340    9.5843 H   0  0  0  0  0  0  0  0  0  0  0  0
    0.9355    5.9522    9.9180 H   0  0  0  0  0  0  0  0  0  0  0  0
    2.3673    5.0386    7.5391 H   0  0  0  0  0  0  0  0  0  0  0  0
    2.0228    2.9449    6.3020 H   0  0  0  0  0  0  0  0  0  0  0  0
    2.1656    2.2299    2.0258 H   0  0  0  0  0  0  0  0  0  0  0  0
    4.8724    1.9471    2.3477 H   0  0  0  0  0  0  0  0  0  0  0  0
    5.0927   -0.4756    1.9081 H   0  0  0  0  0  0  0  0  0  0  0  0
    4.6751   -1.3819   -0.3528 H   0  0  0  0  0  0  0  0  0  0  0  0
    1.8198    0.8142   -3.0085 H   0  0  0  0  0  0  0  0  0  0  0  0
    1.8739   -0.6256   -1.9402 H   0  0  0  0  0  0  0  0  0  0  0  0
    1.9549   -0.5869   -5.0103 H   0  0  0  0  0  0  0  0  0  0  0  0
    0.6890   -1.3157   -3.9463 H   0  0  0  0  0  0  0  0  0  0  0  0
    2.3376   -2.0493   -4.0385 H   0  0  0  0  0  0  0  0  0  0  0  0
    3.7245    2.5634   -1.7730 H   0  0  0  0  0  0  0  0  0  0  0  0
    4.2917    8.8432    1.5337 H   0  0  0  0  0  0  0  0  0  0  0  0
    3.3155   11.1054    1.6501 H   0  0  0  0  0  0  0  0  0  0  0  0
    0.9851   11.4997    0.9122 H   0  0  0  0  0  0  0  0  0  0  0  0
   -1.3066    8.3292    1.8277 H   0  0  0  0  0  0  0  0  0  0  0  0
   -2.8752    8.8602    1.1532 H   0  0  0  0  0  0  0  0  0  0  0  0
   -0.8649   10.7192    2.5670 H   0  0  0  0  0  0  0  0  0  0  0  0
   -2.3395   10.0050    3.3258 H   0  0  0  0  0  0  0  0  0  0  0  0
   -2.5148   11.1717    1.9583 H   0  0  0  0  0  0  0  0  0  0  0  0
    0.5999    7.3360   -0.0969 H   0  0  0  0  0  0  0  0  0  0  0  0
    4.4339    8.0498   -1.2860 H   0  0  0  0  0  0  0  0  0  0  0  0
    6.7301    7.7119   -3.1776 H   0  0  0  0  0  0  0  0  0  0  0  0
    2.6555    3.7759   -5.8324 H   0  0  0  0  0  0  0  0  0  0  0  0
    2.2065    3.9311   -8.2699 H   0  0  0  0  0  0  0  0  0  0  0  0
    2.7729    6.5079  -10.2681 H   0  0  0  0  0  0  0  0  0  0  0  0
    4.3385    5.6996  -10.6648 H   0  0  0  0  0  0  0  0  0  0  0  0
    2.8487    4.7129  -10.4678 H   0  0  0  0  0  0  0  0  0  0  0  0
    5.1714    7.0184   -8.6621 H   0  0  0  0  0  0  0  0  0  0  0  0
  1  2  2  3
  2  3  1  0
  3  4  2  0
  3  5  1  0
  5  6  2  0
  6  7  1  0
  7  8  2  0
  8  9  1  0
  9 10  2  0
 10 11  1  0
 11 12  2  3
 12 13  1  0
 13 14  3  0
 12 15  1  0
 15 16  3  0
  8 17  1  0
 17 18  1  0
 18 19  1  0
 19 20  2  0
 20 21  1  0
 21 22  1  0
 21 23  1  0
  1 24  1  0
 24 25  2  0
 25 26  1  0
 26 27  1  0
 27 28  2  0
 28 29  1  0
 29 30  2  0
 30 31  1  0
 31 32  1  0
 30 33  1  0
 33 34  2  0
 26 35  1  0
 35 36  2  0
 36 37  1  0
 37 38  2  0
 38 39  1  0
 39 40  1  0
 38 41  1  0
 41 42  2  0
 25 43  1  0
 43 44  1  0
 44 45  1  0
 45 46  2  0
 46 47  1  0
 47 48  1  0
 48 49  2  0
 49 50  1  0
 50 51  2  0
 51 52  1  0
 52 53  1  0
 51 54  1  0
 54 55  2  0
 47 56  1  0
 56 57  2  0
 57 58  1  0
 58 59  2  0
 59 60  1  0
 60 61  1  0
 59 62  1  0
 62 63  2  0
 46 64  1  0
 64 65  1  0
 45 66  1  0
 66 67  2  0
 67 68  1  0
 68 69  1  0
 69 70  2  0
 70 71  1  0
 71 72  2  0
 72 73  1  0
 73 74  1  0
 72 75  1  0
 75 76  2  0
 68 77  1  0
 77 78  2  0
 78 79  1  0
 79 80  2  0
 80 81  1  0
 81 82  1  0
 80 83  1  0
 83 84  2  0
 67 85  1  0
 85 86  1  0
 86 87  1  0
 87 88  2  0
 88 89  1  0
 89 90  1  0
 90 91  2  0
 91 92  1  0
 92 93  2  0
 93 94  1  0
 94 95  1  0
 93 96  1  0
 96 97  2  0
 89 98  1  0
 98 99  2  0
 99100  1  0
100101  2  0
101102  1  0
102103  1  0
101104  1  0
104105  2  0
 88106  1  0
106107  1  0
 87108  1  0
108109  2  0
109110  1  0
110111  2  0
111112  1  0
112113  2  0
113114  1  0
114115  2  0
115116  1  0
116117  1  0
117118  1  0
118119  1  0
116120  2  0
111121  1  0
121122  2  0
122123  1  0
123124  1  0
124125  2  0
125126  1  0
126127  2  0
127128  1  0
128129  1  0
129130  1  0
130131  1  0
128132  2  0
123133  2  0
133134  1  0
122135  1  0
135136  2  0
136137  1  0
136138  1  0
138139  2  3
139140  1  0
140141  2  0
140142  1  0
142143  2  0
143144  1  0
144145  2  0
145146  1  0
145147  1  0
147148  2  0
148149  1  0
149150  2  3
150151  1  0
151152  3  0
150153  1  0
153154  3  0
 11  2  1  0
 23 17  1  0
 65 24  1  0
107 66  1  0
134108  1  0
149139  1  0
 10  5  1  0
 22 18  1  0
 34 27  1  0
 42 35  1  0
 64 43  2  0
 76 69  1  0
 84 77  1  0
106 85  2  0
133110  1  0
148142  1  0
 23  7  1  0
 55 48  1  0
 63 56  1  0
 97 90  1  0
105 98  1  0
120112  1  0
137121  1  0
132124  1  0
  1155  1  0
  6156  1  0
  9157  1  0
 17158  1  0
 18159  1  0
 19160  1  0
 20161  1  0
 21162  1  0
 22163  1  0
 22164  1  0
 23165  1  0
 28166  1  0
 29167  1  0
 32168  1  0
 32169  1  0
 32170  1  0
 33171  1  0
 34172  1  0
 36173  1  0
 37174  1  0
 40175  1  0
 40176  1  0
 40177  1  0
 41178  1  0
 42179  1  0
 49180  1  0
 50181  1  0
 53182  1  0
 53183  1  0
 53184  1  0
 54185  1  0
 55186  1  0
 57187  1  0
 58188  1  0
 61189  1  0
 61190  1  0
 61191  1  0
 62192  1  0
 63193  1  0
 70194  1  0
 71195  1  0
 74196  1  0
 74197  1  0
 74198  1  0
 75199  1  0
 76200  1  0
 78201  1  0
 79202  1  0
 82203  1  0
 82204  1  0
 82205  1  0
 83206  1  0
 84207  1  0
 91208  1  0
 92209  1  0
 95210  1  0
 95211  1  0
 95212  1  0
 96213  1  0
 97214  1  0
 99215  1  0
100216  1  0
103217  1  0
103218  1  0
103219  1  0
104220  1  0
105221  1  0
109222  1  0
113223  1  0
114224  1  0
115225  1  0
118226  1  0
118227  1  0
119228  1  0
119229  1  0
119230  1  0
120231  1  0
125232  1  0
126233  1  0
127234  1  0
130235  1  0
130236  1  0
131237  1  0
131238  1  0
131239  1  0
132240  1  0
135241  1  0
138242  1  0
143243  1  0
144244  1  0
146245  1  0
146246  1  0
146247  1  0
147248  1  0
M  END

