
     RDKit          3D

154170  0  0  0  0  0  0  0  0999 V2000
    3.7229   -7.3950   -2.4609 C   0  0  0  0  0  0  0  0  0  0  0  0
    4.3739   -7.6762   -1.2485 C   0  0  0  0  0  0  0  0  0  0  0  0
    3.8622   -7.2458    0.0662 C   0  0  0  0  0  0  0  0  0  0  0  0
    2.6601   -7.1666    0.3773 O   0  0  0  0  0  0  0  0  0  0  0  0
    4.9755   -6.9393    0.9534 C   0  0  0  0  0  0  0  0  0  0  0  0
    4.9305   -6.3275    2.1692 C   0  0  0  0  0  0  0  0  0  0  0  0
    6.0454   -5.8693    2.8178 C   0  0  0  0  0  0  0  0  0  0  0  0
    7.2433   -6.0546    2.1691 C   0  0  0  0  0  0  0  0  0  0  0  0
    7.3111   -6.6988    0.9250 C   0  0  0  0  0  0  0  0  0  0  0  0
    6.1498   -7.1584    0.2903 C   0  0  0  0  0  0  0  0  0  0  0  0
    5.8217   -7.6356   -1.1034 C   0  0  0  0  0  0  0  0  0  0  0  0
    6.7769   -7.9225   -2.0162 C   0  0  0  0  0  0  0  0  0  0  0  0
    8.1707   -7.8361   -1.6000 C   0  0  0  0  0  0  0  0  0  0  0  0
    9.3373   -7.7618   -1.2536 N   0  0  0  0  0  0  0  0  0  0  0  0
    6.4480   -8.2572   -3.3611 C   0  0  0  0  0  0  0  0  0  0  0  0
    6.1541   -8.5523   -4.4963 N   0  0  0  0  0  0  0  0  0  0  0  0
    7.9795   -5.2666    3.2219 C   0  0  0  0  0  0  0  0  0  0  0  0
    8.2201   -3.8004    2.8617 C   0  0  0  0  0  0  0  0  0  0  0  0
    8.4690   -3.0403    4.0573 C   0  0  0  0  0  0  0  0  0  0  0  0
    7.3265   -3.0362    4.8094 C   0  0  0  0  0  0  0  0  0  0  0  0
    6.3106   -3.7202    4.0118 C   0  0  0  0  0  0  0  0  0  0  0  0
    6.7307   -3.3701    2.6040 C   0  0  0  0  0  0  0  0  0  0  0  0
    6.6452   -5.1905    3.9934 C   0  0  0  0  0  0  0  0  0  0  0  0
    2.5125   -6.5356   -2.1518 C   0  0  0  0  0  0  0  0  0  0  0  0
    1.3300   -6.5357   -1.5969 C   0  0  0  0  0  0  0  0  0  0  0  0
    0.8173   -5.3454   -1.1043 C   0  0  0  0  0  0  0  0  0  0  0  0
   -0.2646   -5.1366   -0.2630 C   0  0  0  0  0  0  0  0  0  0  0  0
   -1.3410   -6.0841   -0.0712 C   0  0  0  0  0  0  0  0  0  0  0  0
   -2.6545   -5.7328    0.0911 C   0  0  0  0  0  0  0  0  0  0  0  0
   -3.6653   -6.5331    0.2733 C   0  0  0  0  0  0  0  0  0  0  0  0
   -3.4996   -7.8990    0.3251 C   0  0  0  0  0  0  0  0  0  0  0  0
   -4.4250   -9.3209    0.4249 S   0  0  0  0  0  0  0  0  0  0  0  0
   -6.1972   -8.8924    0.2274 C   0  0  0  0  0  0  0  0  0  0  0  0
   -6.6834   -7.9981    1.3402 C   0  0  0  0  0  0  0  0  0  0  0  0
   -1.4355   -7.9018    0.0470 Se  0  0  0  0  0  2  0  0  0  0  0  0
   -0.4397   -3.8792    0.3590 C   0  0  0  0  0  0  0  0  0  0  0  0
    0.3712   -2.7974    0.1891 C   0  0  0  0  0  0  0  0  0  0  0  0
    1.4434   -2.9619   -0.6654 C   0  0  0  0  0  0  0  0  0  0  0  0
    2.2873   -1.9051   -1.1593 C   0  0  0  0  0  0  0  0  0  0  0  0
    2.3010   -0.5785   -1.1557 C   0  0  0  0  0  0  0  0  0  0  0  0
    3.2797    0.1246   -1.7628 C   0  0  0  0  0  0  0  0  0  0  0  0
    4.3145   -0.3990   -2.4139 C   0  0  0  0  0  0  0  0  0  0  0  0
    5.7329    0.1894   -3.2661 S   0  0  0  0  0  0  0  0  0  0  0  0
    6.4625   -1.1618   -4.2323 C   0  0  0  0  0  0  0  0  0  0  0  0
    5.5863   -1.6458   -5.3257 C   0  0  0  0  0  0  0  0  0  0  0  0
    3.8994   -2.3075   -2.1638 Se  0  0  0  0  0  2  0  0  0  0  0  0
    1.6085   -4.2455   -1.2661 C   0  0  0  0  0  0  0  0  0  0  0  0
    2.9672   -4.8379   -2.0453 S   0  0  0  0  0  0  0  0  0  0  0  0
    0.1222   -1.7484    1.0020 C   0  0  0  0  0  0  0  0  0  0  0  0
   -0.8965   -1.8516    1.9177 C   0  0  0  0  0  0  0  0  0  0  0  0
   -1.4983   -3.4141    1.6396 S   0  0  0  0  0  0  0  0  0  0  0  0
   -1.4540   -0.7879    2.8301 C   0  0  0  0  0  0  0  0  0  0  0  0
   -0.7177    0.3662    2.8616 C   0  0  0  0  0  0  0  0  0  0  0  0
    0.5982    0.4638    2.6264 O   0  0  0  0  0  0  0  0  0  0  0  0
    1.7706    0.3342    3.2662 C   0  0  0  0  0  0  0  0  0  0  0  0
    2.0958   -1.0236    3.9045 C   0  0  0  0  0  0  0  0  0  0  0  0
   -1.4725    1.5255    3.1766 C   0  0  0  0  0  0  0  0  0  0  0  0
   -0.8267    2.7165    3.2516 O   0  0  0  0  0  0  0  0  0  0  0  0
   -0.3025    3.2161    4.4362 C   0  0  0  0  0  0  0  0  0  0  0  0
   -1.3655    3.4557    5.5002 C   0  0  0  0  0  0  0  0  0  0  0  0
   -2.7977    1.4429    3.4066 C   0  0  0  0  0  0  0  0  0  0  0  0
   -3.5230    0.2060    3.3932 C   0  0  0  0  0  0  0  0  0  0  0  0
   -2.8272   -0.9359    3.0966 C   0  0  0  0  0  0  0  0  0  0  0  0
   -3.5014   -2.0352    3.1178 N   0  0  0  0  0  0  0  0  0  0  0  0
   -5.0598   -1.6098    3.5157 S   0  0  0  0  0  0  0  0  0  0  0  0
   -4.8066    0.0743    3.6621 N   0  0  0  0  0  0  0  0  0  0  0  0
   -3.6132    2.6173    2.9634 C   0  0  0  0  0  0  0  0  0  0  0  0
   -3.6530    2.6516    1.1413 S   0  0  0  0  0  0  0  0  0  0  0  0
   -4.6064    4.0282    0.9573 C   0  0  0  0  0  0  0  0  0  0  0  0
   -5.1755    4.7234   -0.1776 C   0  0  0  0  0  0  0  0  0  0  0  0
   -5.9541    5.7539    0.0345 C   0  0  0  0  0  0  0  0  0  0  0  0
   -5.8563    5.9927    1.8853 Si  0  0  0  0  0  4  0  0  0  0  0  0
   -7.4866    5.9810    2.6915 C   0  0  0  0  0  0  0  0  0  0  0  0
   -7.3660    6.4720    4.1476 C   0  0  0  0  0  0  0  0  0  0  0  0
   -4.8046    7.4775    2.2524 C   0  0  0  0  0  0  0  0  0  0  0  0
   -4.8730    8.4884    1.1331 C   0  0  0  0  0  0  0  0  0  0  0  0
   -4.8637    4.4238    2.1918 C   0  0  0  0  0  0  0  0  0  0  0  0
   -4.3226    3.6482    3.2209 C   0  0  0  0  0  0  0  0  0  0  0  0
   -6.5037    6.3575   -1.0727 C   0  0  0  0  0  0  0  0  0  0  0  0
   -6.2291    5.9023   -2.2720 C   0  0  0  0  0  0  0  0  0  0  0  0
   -5.1437    4.5333   -1.8600 S   0  0  0  0  0  0  0  0  0  0  0  0
   -6.5003    6.0815   -3.7271 C   0  0  0  0  0  0  0  0  0  0  0  0
   -5.3728    6.3236   -4.4311 C   0  0  0  0  0  0  0  0  0  0  0  0
   -4.0515    6.4632   -3.8927 C   0  0  0  0  0  0  0  0  0  0  0  0
   -3.7224    6.6061   -2.6425 O   0  0  0  0  0  0  0  0  0  0  0  0
   -3.0607    6.4316   -4.9687 C   0  0  0  0  0  0  0  0  0  0  0  0
   -1.6821    6.4986   -4.8390 C   0  0  0  0  0  0  0  0  0  0  0  0
   -0.9243    6.3808   -6.0239 C   0  0  0  0  0  0  0  0  0  0  0  0
   -1.5663    6.2099   -7.2127 C   0  0  0  0  0  0  0  0  0  0  0  0
   -0.7476    6.0490   -8.4366 C   0  0  0  0  0  0  0  0  0  0  0  0
   -2.9785    6.1504   -7.2648 C   0  0  0  0  0  0  0  0  0  0  0  0
   -3.7527    6.2604   -6.1381 C   0  0  0  0  0  0  0  0  0  0  0  0
   -5.2141    6.1822   -5.8651 C   0  0  0  0  0  0  0  0  0  0  0  0
   -6.0349    5.7291   -6.7755 C   0  0  0  0  0  0  0  0  0  0  0  0
   -5.7960    5.6504   -8.1552 C   0  0  0  0  0  0  0  0  0  0  0  0
   -5.5809    5.5945   -9.3662 N   0  0  0  0  0  0  0  0  0  0  0  0
   -7.2831    5.1138   -6.3751 C   0  0  0  0  0  0  0  0  0  0  0  0
   -8.3635    4.5866   -6.0339 N   0  0  0  0  0  0  0  0  0  0  0  0
    3.9855   -7.6930   -3.3577 H   0  0  0  0  0  0  0  0  0  0  0  0
    3.9585   -6.1860    2.6702 H   0  0  0  0  0  0  0  0  0  0  0  0
    8.2401   -6.7931    0.5010 H   0  0  0  0  0  0  0  0  0  0  0  0
    8.7774   -5.7966    3.7016 H   0  0  0  0  0  0  0  0  0  0  0  0
    8.8113   -3.6685    1.9655 H   0  0  0  0  0  0  0  0  0  0  0  0
    9.3566   -2.5191    4.3792 H   0  0  0  0  0  0  0  0  0  0  0  0
    7.2945   -2.5749    5.7611 H   0  0  0  0  0  0  0  0  0  0  0  0
    5.2832   -3.4540    4.2581 H   0  0  0  0  0  0  0  0  0  0  0  0
    6.3418   -4.0447    1.8136 H   0  0  0  0  0  0  0  0  0  0  0  0
    6.5752   -2.3037    2.4481 H   0  0  0  0  0  0  0  0  0  0  0  0
    6.5929   -5.7039    4.9511 H   0  0  0  0  0  0  0  0  0  0  0  0
    0.7448   -7.4985   -1.4946 H   0  0  0  0  0  0  0  0  0  0  0  0
   -2.8483   -4.5744    0.0089 H   0  0  0  0  0  0  0  0  0  0  0  0
   -4.7236   -6.1601    0.4084 H   0  0  0  0  0  0  0  0  0  0  0  0
   -6.8312   -9.8072    0.2007 H   0  0  0  0  0  0  0  0  0  0  0  0
   -6.3796   -8.3069   -0.6958 H   0  0  0  0  0  0  0  0  0  0  0  0
   -7.3539   -8.5373    2.0232 H   0  0  0  0  0  0  0  0  0  0  0  0
   -7.2118   -7.1038    0.9341 H   0  0  0  0  0  0  0  0  0  0  0  0
   -5.8385   -7.5873    1.9219 H   0  0  0  0  0  0  0  0  0  0  0  0
    1.4329   -0.0257   -0.6586 H   0  0  0  0  0  0  0  0  0  0  0  0
    3.2047    1.2659   -1.7600 H   0  0  0  0  0  0  0  0  0  0  0  0
    6.6613   -2.0115   -3.5010 H   0  0  0  0  0  0  0  0  0  0  0  0
    7.4309   -0.8353   -4.6877 H   0  0  0  0  0  0  0  0  0  0  0  0
    4.7113   -0.9368   -5.5315 H   0  0  0  0  0  0  0  0  0  0  0  0
    5.1303   -2.6332   -5.1089 H   0  0  0  0  0  0  0  0  0  0  0  0
    6.1754   -1.7383   -6.2794 H   0  0  0  0  0  0  0  0  0  0  0  0
    0.7162   -0.8186    1.0087 H   0  0  0  0  0  0  0  0  0  0  0  0
    2.0101    1.1191    4.0049 H   0  0  0  0  0  0  0  0  0  0  0  0
    2.5902    0.4398    2.4302 H   0  0  0  0  0  0  0  0  0  0  0  0
    2.6180   -1.6466    3.1309 H   0  0  0  0  0  0  0  0  0  0  0  0
    2.7641   -0.7994    4.7612 H   0  0  0  0  0  0  0  0  0  0  0  0
    1.2348   -1.5633    4.1759 H   0  0  0  0  0  0  0  0  0  0  0  0
    0.1701    4.2034    4.2308 H   0  0  0  0  0  0  0  0  0  0  0  0
    0.4681    2.5431    4.9030 H   0  0  0  0  0  0  0  0  0  0  0  0
   -2.2037    4.0646    5.0946 H   0  0  0  0  0  0  0  0  0  0  0  0
   -0.9075    4.0829    6.3013 H   0  0  0  0  0  0  0  0  0  0  0  0
   -1.7410    2.5269    5.9045 H   0  0  0  0  0  0  0  0  0  0  0  0
   -7.8849    4.9102    2.7014 H   0  0  0  0  0  0  0  0  0  0  0  0
   -8.2454    6.5736    2.1322 H   0  0  0  0  0  0  0  0  0  0  0  0
   -6.3661    6.1565    4.5239 H   0  0  0  0  0  0  0  0  0  0  0  0
   -7.5452    7.5240    4.2740 H   0  0  0  0  0  0  0  0  0  0  0  0
   -8.0911    5.8866    4.7756 H   0  0  0  0  0  0  0  0  0  0  0  0
   -3.7280    7.2293    2.4860 H   0  0  0  0  0  0  0  0  0  0  0  0
   -5.1717    7.9687    3.2045 H   0  0  0  0  0  0  0  0  0  0  0  0
   -3.9992    8.3434    0.4319 H   0  0  0  0  0  0  0  0  0  0  0  0
   -5.8262    8.3635    0.6020 H   0  0  0  0  0  0  0  0  0  0  0  0
   -4.7589    9.5133    1.5433 H   0  0  0  0  0  0  0  0  0  0  0  0
   -4.5182    3.9447    4.2823 H   0  0  0  0  0  0  0  0  0  0  0  0
   -7.2029    7.2273   -0.9869 H   0  0  0  0  0  0  0  0  0  0  0  0
   -7.4348    6.0570   -4.1479 H   0  0  0  0  0  0  0  0  0  0  0  0
   -1.1411    6.6011   -3.9337 H   0  0  0  0  0  0  0  0  0  0  0  0
    0.1577    6.4264   -5.9636 H   0  0  0  0  0  0  0  0  0  0  0  0
    0.2792    5.7030   -8.1675 H   0  0  0  0  0  0  0  0  0  0  0  0
   -1.1877    5.3158   -9.1186 H   0  0  0  0  0  0  0  0  0  0  0  0
   -0.6024    7.0058   -8.9790 H   0  0  0  0  0  0  0  0  0  0  0  0
   -3.3251    6.0088   -8.2541 H   0  0  0  0  0  0  0  0  0  0  0  0
  1  2  2  3
  2  3  1  0
  3  4  2  0
  3  5  1  0
  5  6  2  0
  6  7  1  0
  7  8  2  0
  8  9  1  0
  9 10  2  0
 10 11  1  0
 11 12  2  3
 12 13  1  0
 13 14  3  0
 12 15  1  0
 15 16  3  0
  8 17  1  0
 17 18  1  0
 18 19  1  0
 19 20  2  0
 20 21  1  0
 21 22  1  0
 21 23  1  0
  1 24  1  0
 24 25  2  0
 25 26  1  0
 26 27  2  0
 27 28  1  0
 28 29  2  0
 29 30  1  0
 30 31  2  0
 31 32  1  0
 32 33  1  0
 33 34  1  0
 31 35  1  0
 27 36  1  0
 36 37  2  0
 37 38  1  0
 38 39  1  0
 39 40  2  0
 40 41  1  0
 41 42  2  0
 42 43  1  0
 43 44  1  0
 44 45  1  0
 42 46  1  0
 38 47  2  0
 47 48  1  0
 37 49  1  0
 49 50  2  0
 50 51  1  0
 50 52  1  0
 52 53  2  0
 53 54  1  0
 54 55  1  0
 55 56  1  0
 53 57  1  0
 57 58  1  0
 58 59  1  0
 59 60  1  0
 57 61  2  0
 61 62  1  0
 62 63  1  0
 63 64  2  0
 64 65  1  0
 65 66  1  0
 61 67  1  0
 67 68  1  0
 68 69  1  0
 69 70  1  0
 70 71  2  0
 71 72  1  0
 72 73  1  0
 73 74  1  0
 72 75  1  0
 75 76  1  0
 72 77  1  0
 77 78  1  0
 71 79  1  0
 79 80  2  0
 80 81  1  0
 80 82  1  0
 82 83  2  3
 83 84  1  0
 84 85  2  0
 84 86  1  0
 86 87  2  0
 87 88  1  0
 88 89  2  0
 89 90  1  0
 89 91  1  0
 91 92  2  0
 92 93  1  0
 93 94  2  3
 94 95  1  0
 95 96  3  0
 94 97  1  0
 97 98  3  0
 11  2  1  0
 23 17  1  0
 48 24  1  0
 63 52  1  0
 78 67  2  0
 93 83  1  0
 10  5  1  0
 22 18  1  0
 47 26  1  0
 66 62  2  0
 77 69  2  0
 92 86  1  0
 23  7  1  0
 35 28  1  0
 51 36  1  0
 81 70  1  0
 46 39  1  0
  1 99  1  0
  6100  1  0
  9101  1  0
 17102  1  0
 18103  1  0
 19104  1  0
 20105  1  0
 21106  1  0
 22107  1  0
 22108  1  0
 23109  1  0
 25110  1  0
 29111  1  0
 30112  1  0
 33113  1  0
 33114  1  0
 34115  1  0
 34116  1  0
 34117  1  0
 40118  1  0
 41119  1  0
 44120  1  0
 44121  1  0
 45122  1  0
 45123  1  0
 45124  1  0
 49125  1  0
 55126  1  0
 55127  1  0
 56128  1  0
 56129  1  0
 56130  1  0
 59131  1  0
 59132  1  0
 60133  1  0
 60134  1  0
 60135  1  0
 73136  1  0
 73137  1  0
 74138  1  0
 74139  1  0
 74140  1  0
 75141  1  0
 75142  1  0
 76143  1  0
 76144  1  0
 76145  1  0
 78146  1  0
 79147  1  0
 82148  1  0
 87149  1  0
 88150  1  0
 90151  1  0
 90152  1  0
 90153  1  0
 91154  1  0
M  END

