
     RDKit          3D

155173  0  0  0  0  0  0  0  0999 V2000
   -4.4509    4.4317    1.3393 C   0  0  0  0  0  0  0  0  0  0  0  0
   -3.9882    5.0932    0.2526 C   0  0  0  0  0  0  0  0  0  0  0  0
   -3.4579    4.4913   -0.9862 C   0  0  0  0  0  0  0  0  0  0  0  0
   -2.8747    3.3756   -1.1007 O   0  0  0  0  0  0  0  0  0  0  0  0
   -3.6543    5.4233   -2.0698 C   0  0  0  0  0  0  0  0  0  0  0  0
   -3.5622    5.1465   -3.4573 C   0  0  0  0  0  0  0  0  0  0  0  0
   -4.0031    6.1869   -4.2603 C   0  0  0  0  0  0  0  0  0  0  0  0
   -4.5044    7.4194   -3.7354 C   0  0  0  0  0  0  0  0  0  0  0  0
   -4.5938    7.6939   -2.3756 C   0  0  0  0  0  0  0  0  0  0  0  0
   -4.1438    6.6430   -1.5388 C   0  0  0  0  0  0  0  0  0  0  0  0
   -4.2019    6.5323   -0.0547 C   0  0  0  0  0  0  0  0  0  0  0  0
   -4.1371    7.5577    0.8308 C   0  0  0  0  0  0  0  0  0  0  0  0
   -4.1433    8.9314    0.4118 C   0  0  0  0  0  0  0  0  0  0  0  0
   -4.1398   10.0429    0.0847 N   0  0  0  0  0  0  0  0  0  0  0  0
   -3.8785    7.3271    2.2298 C   0  0  0  0  0  0  0  0  0  0  0  0
   -3.6595    7.1473    3.3549 N   0  0  0  0  0  0  0  0  0  0  0  0
   -4.7616    7.9255   -5.1267 C   0  0  0  0  0  0  0  0  0  0  0  0
   -3.7825    8.9824   -5.7093 C   0  0  0  0  0  0  0  0  0  0  0  0
   -2.4019    8.7782   -5.1327 C   0  0  0  0  0  0  0  0  0  0  0  0
   -1.9455    7.6315   -5.6368 C   0  0  0  0  0  0  0  0  0  0  0  0
   -3.0374    7.0867   -6.5313 C   0  0  0  0  0  0  0  0  0  0  0  0
   -3.5655    8.3941   -7.0922 C   0  0  0  0  0  0  0  0  0  0  0  0
   -4.2603    6.6539   -5.6619 C   0  0  0  0  0  0  0  0  0  0  0  0
   -4.3445    2.9701    1.4828 C   0  0  0  0  0  0  0  0  0  0  0  0
   -3.4845    2.3442    2.3935 C   0  0  0  0  0  0  0  0  0  0  0  0
   -3.2232    2.8578    3.7081 N   0  0  0  0  0  0  0  0  0  0  0  0
   -1.9180    2.7382    4.2888 C   0  0  0  0  0  0  0  0  0  0  0  0
   -0.9143    3.6645    3.9713 C   0  0  0  0  0  0  0  0  0  0  0  0
    0.3481    3.5620    4.5654 C   0  0  0  0  0  0  0  0  0  0  0  0
    0.6237    2.5114    5.4529 C   0  0  0  0  0  0  0  0  0  0  0  0
    2.2684    2.3342    6.1495 S   0  0  0  0  0  0  0  0  0  0  0  0
    1.8637    3.2018    7.6994 C   0  0  0  0  0  0  0  0  0  0  0  0
   -0.3738    1.5807    5.7616 C   0  0  0  0  0  0  0  0  0  0  0  0
   -1.6446    1.7034    5.1957 C   0  0  0  0  0  0  0  0  0  0  0  0
   -4.3428    3.0951    4.5844 C   0  0  0  0  0  0  0  0  0  0  0  0
   -4.4003    4.2621    5.3648 C   0  0  0  0  0  0  0  0  0  0  0  0
   -5.4784    4.4816    6.2272 C   0  0  0  0  0  0  0  0  0  0  0  0
   -6.5014    3.5315    6.3243 C   0  0  0  0  0  0  0  0  0  0  0  0
   -7.8535    3.7781    7.4792 S   0  0  0  0  0  0  0  0  0  0  0  0
   -8.9670    4.5341    6.2443 C   0  0  0  0  0  0  0  0  0  0  0  0
   -6.4468    2.3608    5.5589 C   0  0  0  0  0  0  0  0  0  0  0  0
   -5.3751    2.1420    4.6924 C   0  0  0  0  0  0  0  0  0  0  0  0
   -3.2219    1.0329    2.0103 C   0  0  0  0  0  0  0  0  0  0  0  0
   -2.0110   -0.0631    2.3762 S   0  0  0  0  0  0  0  0  0  0  0  0
   -2.3669   -1.1178    1.0778 C   0  0  0  0  0  0  0  0  0  0  0  0
   -3.4680   -0.5974    0.3659 C   0  0  0  0  0  0  0  0  0  0  0  0
   -4.0705   -1.1543   -0.8151 N   0  0  0  0  0  0  0  0  0  0  0  0
   -3.3516   -1.1829   -2.0698 C   0  0  0  0  0  0  0  0  0  0  0  0
   -3.6451   -2.1726   -3.0290 C   0  0  0  0  0  0  0  0  0  0  0  0
   -2.9321   -2.2325   -4.2235 C   0  0  0  0  0  0  0  0  0  0  0  0
   -1.9163   -1.3024   -4.4850 C   0  0  0  0  0  0  0  0  0  0  0  0
   -0.9441   -1.4416   -5.9895 S   0  0  0  0  0  0  0  0  0  0  0  0
   -1.9581   -0.2664   -6.9366 C   0  0  0  0  0  0  0  0  0  0  0  0
   -1.6267   -0.3056   -3.5472 C   0  0  0  0  0  0  0  0  0  0  0  0
   -2.3388   -0.2428   -2.3481 C   0  0  0  0  0  0  0  0  0  0  0  0
   -5.5037   -1.3446   -0.7879 C   0  0  0  0  0  0  0  0  0  0  0  0
   -6.3229   -0.8000   -1.7921 C   0  0  0  0  0  0  0  0  0  0  0  0
   -7.7146   -0.8043   -1.6464 C   0  0  0  0  0  0  0  0  0  0  0  0
   -8.3018   -1.3487   -0.4976 C   0  0  0  0  0  0  0  0  0  0  0  0
  -10.0794   -1.2511   -0.2626 S   0  0  0  0  0  0  0  0  0  0  0  0
   -9.9853    0.3501    0.6088 C   0  0  0  0  0  0  0  0  0  0  0  0
   -7.4961   -1.9447    0.4789 C   0  0  0  0  0  0  0  0  0  0  0  0
   -6.1067   -1.9397    0.3353 C   0  0  0  0  0  0  0  0  0  0  0  0
   -3.8935    0.6103    0.9086 C   0  0  0  0  0  0  0  0  0  0  0  0
   -4.8625    1.8349    0.3136 S   0  0  0  0  0  0  0  0  0  0  0  0
   -1.4036   -2.1337    0.6088 C   0  0  0  0  0  0  0  0  0  0  0  0
   -1.7322   -3.4438   -0.4331 S   0  0  0  0  0  0  0  0  0  0  0  0
   -0.1114   -3.8053   -0.6819 C   0  0  0  0  0  0  0  0  0  0  0  0
    0.5813   -4.6347   -1.5616 C   0  0  0  0  0  0  0  0  0  0  0  0
    1.9624   -4.4011   -1.4743 C   0  0  0  0  0  0  0  0  0  0  0  0
    2.2800   -3.1801   -0.3296 S   0  0  0  0  0  0  0  0  0  0  0  0
    0.6610   -2.9625    0.0514 C   0  0  0  0  0  0  0  0  0  0  0  0
   -0.0172   -2.0025    0.7823 C   0  0  0  0  0  0  0  0  0  0  0  0
    2.9985   -4.9986   -2.3315 C   0  0  0  0  0  0  0  0  0  0  0  0
    2.7928   -5.6192   -3.5560 C   0  0  0  0  0  0  0  0  0  0  0  0
    3.9863   -5.9774   -4.1983 C   0  0  0  0  0  0  0  0  0  0  0  0
    4.0150   -6.7161   -5.7881 Cl  0  0  0  0  0  0  0  0  0  0  0  0
    5.1297   -5.6743   -3.4599 C   0  0  0  0  0  0  0  0  0  0  0  0
    4.6529   -4.9049   -2.0368 S   0  0  0  0  0  0  0  0  0  0  0  0
    6.5193   -5.8506   -3.9048 C   0  0  0  0  0  0  0  0  0  0  0  0
    7.5435   -6.1675   -3.1005 C   0  0  0  0  0  0  0  0  0  0  0  0
    8.9338   -5.8058   -3.4029 C   0  0  0  0  0  0  0  0  0  0  0  0
    9.3805   -5.4559   -4.5307 O   0  0  0  0  0  0  0  0  0  0  0  0
    9.6851   -5.8035   -2.1642 C   0  0  0  0  0  0  0  0  0  0  0  0
   11.0137   -5.3661   -1.9589 C   0  0  0  0  0  0  0  0  0  0  0  0
   11.4064   -5.3644   -0.6278 C   0  0  0  0  0  0  0  0  0  0  0  0
   10.5329   -5.7272    0.4440 C   0  0  0  0  0  0  0  0  0  0  0  0
    9.2304   -6.1519    0.2503 C   0  0  0  0  0  0  0  0  0  0  0  0
    8.8295   -6.2146   -1.1127 C   0  0  0  0  0  0  0  0  0  0  0  0
    7.5214   -6.6213   -1.6785 C   0  0  0  0  0  0  0  0  0  0  0  0
    6.7159   -7.5868   -1.1590 C   0  0  0  0  0  0  0  0  0  0  0  0
    5.6320   -8.1750   -1.9040 C   0  0  0  0  0  0  0  0  0  0  0  0
    4.7582   -8.6371   -2.5007 N   0  0  0  0  0  0  0  0  0  0  0  0
    7.0122   -8.2425    0.0870 C   0  0  0  0  0  0  0  0  0  0  0  0
    7.2493   -8.7829    1.0823 N   0  0  0  0  0  0  0  0  0  0  0  0
   11.6028   -5.4108    1.4470 C   0  0  0  0  0  0  0  0  0  0  0  0
   11.4547   -4.0758    2.2322 C   0  0  0  0  0  0  0  0  0  0  0  0
   12.8061   -3.8151    2.8613 C   0  0  0  0  0  0  0  0  0  0  0  0
   13.6319   -3.5034    1.8606 C   0  0  0  0  0  0  0  0  0  0  0  0
   12.8156   -3.5525    0.5908 C   0  0  0  0  0  0  0  0  0  0  0  0
   11.5056   -3.0222    1.1409 C   0  0  0  0  0  0  0  0  0  0  0  0
   12.5055   -5.0587    0.3421 C   0  0  0  0  0  0  0  0  0  0  0  0
   -4.9544    4.9625    2.1327 H   0  0  0  0  0  0  0  0  0  0  0  0
   -3.2259    4.1963   -3.8523 H   0  0  0  0  0  0  0  0  0  0  0  0
   -5.0348    8.6123   -2.0201 H   0  0  0  0  0  0  0  0  0  0  0  0
   -5.8407    8.1069   -5.3442 H   0  0  0  0  0  0  0  0  0  0  0  0
   -4.1543   10.0274   -5.6892 H   0  0  0  0  0  0  0  0  0  0  0  0
   -1.8539    9.4525   -4.4884 H   0  0  0  0  0  0  0  0  0  0  0  0
   -0.9618    7.2154   -5.4699 H   0  0  0  0  0  0  0  0  0  0  0  0
   -2.7045    6.3413   -7.2848 H   0  0  0  0  0  0  0  0  0  0  0  0
   -2.8108    8.9511   -7.7003 H   0  0  0  0  0  0  0  0  0  0  0  0
   -4.5079    8.2771   -7.6781 H   0  0  0  0  0  0  0  0  0  0  0  0
   -5.0356    6.0662   -6.2037 H   0  0  0  0  0  0  0  0  0  0  0  0
   -1.1246    4.4794    3.2870 H   0  0  0  0  0  0  0  0  0  0  0  0
    1.1148    4.2888    4.3225 H   0  0  0  0  0  0  0  0  0  0  0  0
    1.5850    4.2542    7.4850 H   0  0  0  0  0  0  0  0  0  0  0  0
    2.7585    3.1879    8.3495 H   0  0  0  0  0  0  0  0  0  0  0  0
    1.0279    2.6888    8.2207 H   0  0  0  0  0  0  0  0  0  0  0  0
   -0.1608    0.7580    6.4321 H   0  0  0  0  0  0  0  0  0  0  0  0
   -2.4066    0.9616    5.4178 H   0  0  0  0  0  0  0  0  0  0  0  0
   -3.6035    4.9939    5.3054 H   0  0  0  0  0  0  0  0  0  0  0  0
   -5.5097    5.3763    6.8327 H   0  0  0  0  0  0  0  0  0  0  0  0
   -9.9421    4.7564    6.7279 H   0  0  0  0  0  0  0  0  0  0  0  0
   -9.1349    3.8402    5.3962 H   0  0  0  0  0  0  0  0  0  0  0  0
   -8.5260    5.4814    5.8704 H   0  0  0  0  0  0  0  0  0  0  0  0
   -7.2390    1.6244    5.6298 H   0  0  0  0  0  0  0  0  0  0  0  0
   -5.3374    1.2225    4.1211 H   0  0  0  0  0  0  0  0  0  0  0  0
   -4.4090   -2.9140   -2.8329 H   0  0  0  0  0  0  0  0  0  0  0  0
   -3.1548   -3.0030   -4.9500 H   0  0  0  0  0  0  0  0  0  0  0  0
   -1.7023   -0.3604   -8.0138 H   0  0  0  0  0  0  0  0  0  0  0  0
   -3.0366   -0.5009   -6.8174 H   0  0  0  0  0  0  0  0  0  0  0  0
   -1.7569    0.7702   -6.6078 H   0  0  0  0  0  0  0  0  0  0  0  0
   -0.8452    0.4167   -3.7462 H   0  0  0  0  0  0  0  0  0  0  0  0
   -2.0973    0.5300   -1.6358 H   0  0  0  0  0  0  0  0  0  0  0  0
   -5.8894   -0.3167   -2.6538 H   0  0  0  0  0  0  0  0  0  0  0  0
   -8.3358   -0.3549   -2.4120 H   0  0  0  0  0  0  0  0  0  0  0  0
   -9.3860    0.2466    1.5401 H   0  0  0  0  0  0  0  0  0  0  0  0
   -9.5220    1.1205   -0.0428 H   0  0  0  0  0  0  0  0  0  0  0  0
  -11.0060    0.6841    0.8851 H   0  0  0  0  0  0  0  0  0  0  0  0
   -7.9401   -2.3779    1.3656 H   0  0  0  0  0  0  0  0  0  0  0  0
   -5.4953   -2.3612    1.1266 H   0  0  0  0  0  0  0  0  0  0  0  0
    0.1086   -5.3131   -2.2590 H   0  0  0  0  0  0  0  0  0  0  0  0
    0.4669   -1.2010    1.3266 H   0  0  0  0  0  0  0  0  0  0  0  0
    1.8219   -5.7419   -4.0087 H   0  0  0  0  0  0  0  0  0  0  0  0
    6.7332   -5.5698   -4.9255 H   0  0  0  0  0  0  0  0  0  0  0  0
   11.6606   -5.0282   -2.7551 H   0  0  0  0  0  0  0  0  0  0  0  0
    8.5768   -6.3771    1.0805 H   0  0  0  0  0  0  0  0  0  0  0  0
   11.9304   -6.2920    2.0411 H   0  0  0  0  0  0  0  0  0  0  0  0
   10.5934   -4.0169    2.9298 H   0  0  0  0  0  0  0  0  0  0  0  0
   13.0447   -3.7723    3.9167 H   0  0  0  0  0  0  0  0  0  0  0  0
   14.6588   -3.1727    1.9673 H   0  0  0  0  0  0  0  0  0  0  0  0
   13.2447   -3.0002   -0.2734 H   0  0  0  0  0  0  0  0  0  0  0  0
   11.5768   -1.9786    1.5287 H   0  0  0  0  0  0  0  0  0  0  0  0
   10.6528   -3.0657    0.4282 H   0  0  0  0  0  0  0  0  0  0  0  0
   13.3914   -5.7261    0.2356 H   0  0  0  0  0  0  0  0  0  0  0  0
  1  2  2  3
  2  3  1  0
  3  4  2  0
  3  5  1  0
  5  6  2  0
  6  7  1  0
  7  8  2  0
  8  9  1  0
  9 10  2  0
 10 11  1  0
 11 12  2  3
 12 13  1  0
 13 14  3  0
 12 15  1  0
 15 16  3  0
  8 17  1  0
 17 18  1  0
 18 19  1  0
 19 20  2  0
 20 21  1  0
 21 22  1  0
 21 23  1  0
  1 24  1  0
 24 25  2  0
 25 26  1  0
 26 27  1  0
 27 28  2  0
 28 29  1  0
 29 30  2  0
 30 31  1  0
 31 32  1  0
 30 33  1  0
 33 34  2  0
 26 35  1  0
 35 36  2  0
 36 37  1  0
 37 38  2  0
 38 39  1  0
 39 40  1  0
 38 41  1  0
 41 42  2  0
 25 43  1  0
 43 44  1  0
 44 45  1  0
 45 46  2  0
 46 47  1  0
 47 48  1  0
 48 49  2  0
 49 50  1  0
 50 51  2  0
 51 52  1  0
 52 53  1  0
 51 54  1  0
 54 55  2  0
 47 56  1  0
 56 57  2  0
 57 58  1  0
 58 59  2  0
 59 60  1  0
 60 61  1  0
 59 62  1  0
 62 63  2  0
 46 64  1  0
 64 65  1  0
 45 66  1  0
 66 67  1  0
 67 68  1  0
 68 69  1  0
 69 70  2  0
 70 71  1  0
 71 72  1  0
 72 73  1  0
 70 74  1  0
 74 75  2  0
 75 76  1  0
 76 77  1  0
 76 78  2  0
 78 79  1  0
 78 80  1  0
 80 81  2  3
 81 82  1  0
 82 83  2  0
 82 84  1  0
 84 85  2  0
 85 86  1  0
 86 87  2  0
 87 88  1  0
 88 89  2  0
 89 90  1  0
 90 91  2  3
 91 92  1  0
 92 93  3  0
 91 94  1  0
 94 95  3  0
 87 96  1  0
 96 97  1  0
 97 98  1  0
 98 99  2  0
 99100  1  0
100101  1  0
100102  1  0
 11  2  1  0
 23 17  1  0
 65 24  1  0
 73 66  2  0
 79 74  1  0
 90 81  1  0
102 96  1  0
 10  5  1  0
 22 18  1  0
 34 27  1  0
 42 35  1  0
 64 43  2  0
 72 68  2  0
 89 84  1  0
101 97  1  0
 23  7  1  0
 55 48  1  0
 63 56  1  0
102 86  1  0
  1103  1  0
  6104  1  0
  9105  1  0
 17106  1  0
 18107  1  0
 19108  1  0
 20109  1  0
 21110  1  0
 22111  1  0
 22112  1  0
 23113  1  0
 28114  1  0
 29115  1  0
 32116  1  0
 32117  1  0
 32118  1  0
 33119  1  0
 34120  1  0
 36121  1  0
 37122  1  0
 40123  1  0
 40124  1  0
 40125  1  0
 41126  1  0
 42127  1  0
 49128  1  0
 50129  1  0
 53130  1  0
 53131  1  0
 53132  1  0
 54133  1  0
 55134  1  0
 57135  1  0
 58136  1  0
 61137  1  0
 61138  1  0
 61139  1  0
 62140  1  0
 63141  1  0
 69142  1  0
 73143  1  0
 75144  1  0
 80145  1  0
 85146  1  0
 88147  1  0
 96148  1  0
 97149  1  0
 98150  1  0
 99151  1  0
100152  1  0
101153  1  0
101154  1  0
102155  1  0
M  END

