
     RDKit          3D

276302  0  0  0  0  0  0  0  0999 V2000
   -3.2296   -7.4910   -1.3452 C   0  0  0  0  0  0  0  0  0  0  0  0
   -3.8306   -7.4733   -0.1359 C   0  0  0  0  0  0  0  0  0  0  0  0
   -3.8533   -6.3479    0.8146 C   0  0  0  0  0  0  0  0  0  0  0  0
   -3.6441   -5.1333    0.5425 O   0  0  0  0  0  0  0  0  0  0  0  0
   -4.2376   -6.8470    2.1196 C   0  0  0  0  0  0  0  0  0  0  0  0
   -4.2285   -6.1404    3.3463 C   0  0  0  0  0  0  0  0  0  0  0  0
   -4.5743   -6.9152    4.4399 C   0  0  0  0  0  0  0  0  0  0  0  0
   -4.8781   -8.3129    4.3425 C   0  0  0  0  0  0  0  0  0  0  0  0
   -4.8661   -9.0137    3.1498 C   0  0  0  0  0  0  0  0  0  0  0  0
   -4.5658   -8.2213    2.0044 C   0  0  0  0  0  0  0  0  0  0  0  0
   -4.4652   -8.6293    0.5742 C   0  0  0  0  0  0  0  0  0  0  0  0
   -5.0946   -9.6916    0.0059 C   0  0  0  0  0  0  0  0  0  0  0  0
   -5.8672  -10.6294    0.7782 C   0  0  0  0  0  0  0  0  0  0  0  0
   -6.4853  -11.3926    1.3902 N   0  0  0  0  0  0  0  0  0  0  0  0
   -5.1425   -9.9072   -1.4142 C   0  0  0  0  0  0  0  0  0  0  0  0
   -5.1969  -10.0961   -2.5544 N   0  0  0  0  0  0  0  0  0  0  0  0
   -5.0718   -8.3918    5.8290 C   0  0  0  0  0  0  0  0  0  0  0  0
   -3.9365   -9.0704    6.6441 C   0  0  0  0  0  0  0  0  0  0  0  0
   -4.1747   -8.6876    8.0871 C   0  0  0  0  0  0  0  0  0  0  0  0
   -3.8949   -7.3790    8.1803 C   0  0  0  0  0  0  0  0  0  0  0  0
   -3.4737   -6.9286    6.8002 C   0  0  0  0  0  0  0  0  0  0  0  0
   -2.7345   -8.1823    6.3680 C   0  0  0  0  0  0  0  0  0  0  0  0
   -4.7629   -6.9629    5.9293 C   0  0  0  0  0  0  0  0  0  0  0  0
   -2.5957   -6.3173   -1.9687 C   0  0  0  0  0  0  0  0  0  0  0  0
   -2.8579   -5.8585   -3.2746 C   0  0  0  0  0  0  0  0  0  0  0  0
   -3.4061   -6.6914   -4.3104 N   0  0  0  0  0  0  0  0  0  0  0  0
   -4.4334   -6.1756   -5.1755 C   0  0  0  0  0  0  0  0  0  0  0  0
   -5.6734   -5.7902   -4.6466 C   0  0  0  0  0  0  0  0  0  0  0  0
   -6.6961   -5.3556   -5.5012 C   0  0  0  0  0  0  0  0  0  0  0  0
   -6.4838   -5.2972   -6.8828 C   0  0  0  0  0  0  0  0  0  0  0  0
   -7.7938   -4.7359   -7.9740 S   0  0  0  0  0  0  0  0  0  0  0  0
   -8.3550   -6.4187   -8.3889 C   0  0  0  0  0  0  0  0  0  0  0  0
   -5.2347   -5.6536   -7.4117 C   0  0  0  0  0  0  0  0  0  0  0  0
   -4.2190   -6.1003   -6.5634 C   0  0  0  0  0  0  0  0  0  0  0  0
   -2.7791   -7.9609   -4.6064 C   0  0  0  0  0  0  0  0  0  0  0  0
   -3.5489   -9.0447   -5.0631 C   0  0  0  0  0  0  0  0  0  0  0  0
   -2.9610  -10.3009   -5.2444 C   0  0  0  0  0  0  0  0  0  0  0  0
   -1.6013  -10.4840   -4.9798 C   0  0  0  0  0  0  0  0  0  0  0  0
   -0.8666  -12.1096   -5.1446 S   0  0  0  0  0  0  0  0  0  0  0  0
   -1.1693  -12.5506   -3.4049 C   0  0  0  0  0  0  0  0  0  0  0  0
   -0.8176   -9.4057   -4.5614 C   0  0  0  0  0  0  0  0  0  0  0  0
   -1.3986   -8.1483   -4.3855 C   0  0  0  0  0  0  0  0  0  0  0  0
   -2.1136   -4.7151   -3.5525 C   0  0  0  0  0  0  0  0  0  0  0  0
   -1.9959   -3.6847   -4.8706 S   0  0  0  0  0  0  0  0  0  0  0  0
   -0.7266   -2.7649   -4.2018 C   0  0  0  0  0  0  0  0  0  0  0  0
   -0.3814   -3.2968   -2.9354 C   0  0  0  0  0  0  0  0  0  0  0  0
    0.8288   -2.9780   -2.2160 N   0  0  0  0  0  0  0  0  0  0  0  0
    0.8126   -2.9116   -0.7720 C   0  0  0  0  0  0  0  0  0  0  0  0
   -0.1151   -2.1019   -0.0964 C   0  0  0  0  0  0  0  0  0  0  0  0
   -0.0939   -2.0251    1.3043 C   0  0  0  0  0  0  0  0  0  0  0  0
    0.8502   -2.7608    2.0358 C   0  0  0  0  0  0  0  0  0  0  0  0
    0.8939   -2.6649    3.8299 S   0  0  0  0  0  0  0  0  0  0  0  0
    2.2165   -1.4122    3.8721 C   0  0  0  0  0  0  0  0  0  0  0  0
    1.7527   -3.5932    1.3720 C   0  0  0  0  0  0  0  0  0  0  0  0
    1.7363   -3.6657   -0.0235 C   0  0  0  0  0  0  0  0  0  0  0  0
    2.1013   -3.0219   -2.9087 C   0  0  0  0  0  0  0  0  0  0  0  0
    2.2913   -3.8813   -4.0114 C   0  0  0  0  0  0  0  0  0  0  0  0
    3.4926   -3.8719   -4.7199 C   0  0  0  0  0  0  0  0  0  0  0  0
    4.5394   -3.0454   -4.3083 C   0  0  0  0  0  0  0  0  0  0  0  0
    6.0846   -3.0629   -5.2128 S   0  0  0  0  0  0  0  0  0  0  0  0
    6.7737   -4.4567   -4.2643 C   0  0  0  0  0  0  0  0  0  0  0  0
    4.3781   -2.2096   -3.1977 C   0  0  0  0  0  0  0  0  0  0  0  0
    3.1664   -2.1936   -2.5022 C   0  0  0  0  0  0  0  0  0  0  0  0
   -1.2151   -4.3579   -2.5968 C   0  0  0  0  0  0  0  0  0  0  0  0
   -1.3217   -5.4038   -1.2865 S   0  0  0  0  0  0  0  0  0  0  0  0
   -0.4985   -1.3658   -4.5699 C   0  0  0  0  0  0  0  0  0  0  0  0
    0.7491   -0.7588   -4.6545 C   0  0  0  0  0  0  0  0  0  0  0  0
    0.7265    0.6047   -4.3192 C   0  0  0  0  0  0  0  0  0  0  0  0
    1.8568    1.4126   -4.0609 C   0  0  0  0  0  0  0  0  0  0  0  0
    3.1957    1.0498   -4.5997 C   0  0  0  0  0  0  0  0  0  0  0  0
    3.4159    0.4669   -5.8499 C   0  0  0  0  0  0  0  0  0  0  0  0
    4.7605    0.4122   -6.2283 C   0  0  0  0  0  0  0  0  0  0  0  0
    5.2337   -0.1835   -7.8100 Cl  0  0  0  0  0  0  0  0  0  0  0  0
    5.6367    0.9452   -5.2803 C   0  0  0  0  0  0  0  0  0  0  0  0
    7.4100    1.4290   -5.5699 Si  0  0  0  0  0  4  0  0  0  0  0  0
    8.3097    1.7704   -3.9448 C   0  0  0  0  0  0  0  0  0  0  0  0
    7.7973    3.0072   -3.2162 C   0  0  0  0  0  0  0  0  0  0  0  0
    8.2948    0.0614   -6.5216 C   0  0  0  0  0  0  0  0  0  0  0  0
    9.8025    0.0512   -6.2939 C   0  0  0  0  0  0  0  0  0  0  0  0
    7.3240    2.9681   -6.6484 C   0  0  0  0  0  0  0  0  0  0  0  0
    8.6929    3.5694   -6.9255 C   0  0  0  0  0  0  0  0  0  0  0  0
    4.6995    1.5094   -4.0044 S   0  0  0  0  0  0  0  0  0  0  0  0
    1.6126    2.5877   -3.3064 C   0  0  0  0  0  0  0  0  0  0  0  0
    0.3233    3.0345   -2.9870 C   0  0  0  0  0  0  0  0  0  0  0  0
   -0.8012    2.3122   -3.4324 C   0  0  0  0  0  0  0  0  0  0  0  0
   -2.1820    2.7773   -3.2506 C   0  0  0  0  0  0  0  0  0  0  0  0
   -3.0175    3.5463   -4.4893 S   0  0  0  0  0  0  0  0  0  0  0  0
   -4.5634    3.1071   -4.0138 C   0  0  0  0  0  0  0  0  0  0  0  0
   -6.0766    3.3788   -5.0553 Si  0  0  0  0  0  4  0  0  0  0  0  0
   -6.8802    1.7193   -5.4535 C   0  0  0  0  0  0  0  0  0  0  0  0
   -8.0572    1.8723   -6.4124 C   0  0  0  0  0  0  0  0  0  0  0  0
   -5.6196    4.2487   -6.6648 C   0  0  0  0  0  0  0  0  0  0  0  0
   -4.7986    3.3601   -7.6010 C   0  0  0  0  0  0  0  0  0  0  0  0
   -7.3104    4.4403   -4.1182 C   0  0  0  0  0  0  0  0  0  0  0  0
   -6.6769    5.7273   -3.6064 C   0  0  0  0  0  0  0  0  0  0  0  0
   -4.4486    2.3391   -2.8585 C   0  0  0  0  0  0  0  0  0  0  0  0
   -3.1219    2.1362   -2.4499 C   0  0  0  0  0  0  0  0  0  0  0  0
   -5.7965    1.5632   -2.0464 Cl  0  0  0  0  0  0  0  0  0  0  0  0
   -0.5579    1.0694   -4.0295 C   0  0  0  0  0  0  0  0  0  0  0  0
   -1.6415   -0.2018   -4.1748 S   0  0  0  0  0  0  0  0  0  0  0  0
    0.2975    4.0928   -2.0675 C   0  0  0  0  0  0  0  0  0  0  0  0
    1.5643    4.4278   -1.5728 C   0  0  0  0  0  0  0  0  0  0  0  0
    2.7009    3.5018   -2.4137 S   0  0  0  0  0  0  0  0  0  0  0  0
    1.8741    5.0582   -0.2652 C   0  0  0  0  0  0  0  0  0  0  0  0
    0.9724    5.3584    0.7801 C   0  0  0  0  0  0  0  0  0  0  0  0
   -0.4568    5.3956    0.6766 N   0  0  0  0  0  0  0  0  0  0  0  0
   -1.0602    6.7006    0.6720 C   0  0  0  0  0  0  0  0  0  0  0  0
   -0.7479    7.6159   -0.3442 C   0  0  0  0  0  0  0  0  0  0  0  0
   -1.3156    8.8937   -0.3441 C   0  0  0  0  0  0  0  0  0  0  0  0
   -2.2051    9.2727    0.6700 C   0  0  0  0  0  0  0  0  0  0  0  0
   -2.8073   10.6474    0.6658 C   0  0  0  0  0  0  0  0  0  0  0  0
   -2.4891    8.3701    1.7117 C   0  0  0  0  0  0  0  0  0  0  0  0
   -1.9180    7.0945    1.7124 C   0  0  0  0  0  0  0  0  0  0  0  0
   -1.2541    4.1936    0.8513 C   0  0  0  0  0  0  0  0  0  0  0  0
   -2.6336    4.2014    0.5520 C   0  0  0  0  0  0  0  0  0  0  0  0
   -3.4045    3.0511    0.7178 C   0  0  0  0  0  0  0  0  0  0  0  0
   -2.8167    1.8576    1.1498 C   0  0  0  0  0  0  0  0  0  0  0  0
   -3.6560    0.6261    1.3221 C   0  0  0  0  0  0  0  0  0  0  0  0
   -1.4461    1.8365    1.4449 C   0  0  0  0  0  0  0  0  0  0  0  0
   -0.6717    2.9890    1.2885 C   0  0  0  0  0  0  0  0  0  0  0  0
    1.6313    5.5272    1.9982 C   0  0  0  0  0  0  0  0  0  0  0  0
    1.1163    5.5123    3.5948 S   0  0  0  0  0  0  0  0  0  0  0  0
    2.6809    5.3382    4.2625 C   0  0  0  0  0  0  0  0  0  0  0  0
    3.5975    5.2646    3.1973 C   0  0  0  0  0  0  0  0  0  0  0  0
    4.9790    4.8950    3.3429 N   0  0  0  0  0  0  0  0  0  0  0  0
    5.9780    5.9345    3.2844 C   0  0  0  0  0  0  0  0  0  0  0  0
    5.7331    7.1910    3.8713 C   0  0  0  0  0  0  0  0  0  0  0  0
    6.6824    8.2092    3.7848 C   0  0  0  0  0  0  0  0  0  0  0  0
    7.8931    7.9942    3.1038 C   0  0  0  0  0  0  0  0  0  0  0  0
    8.9287    9.0750    3.0453 C   0  0  0  0  0  0  0  0  0  0  0  0
    8.1517    6.7361    2.5394 C   0  0  0  0  0  0  0  0  0  0  0  0
    7.1982    5.7173    2.6208 C   0  0  0  0  0  0  0  0  0  0  0  0
    5.3254    3.5079    3.5710 C   0  0  0  0  0  0  0  0  0  0  0  0
    4.5701    2.4771    2.9822 C   0  0  0  0  0  0  0  0  0  0  0  0
    4.8857    1.1376    3.2261 C   0  0  0  0  0  0  0  0  0  0  0  0
    5.9448    0.8016    4.0770 C   0  0  0  0  0  0  0  0  0  0  0  0
    6.2942   -0.6368    4.3219 C   0  0  0  0  0  0  0  0  0  0  0  0
    6.7109    1.8212    4.6588 C   0  0  0  0  0  0  0  0  0  0  0  0
    6.3969    3.1642    4.4188 C   0  0  0  0  0  0  0  0  0  0  0  0
    2.9754    5.3897    1.9590 C   0  0  0  0  0  0  0  0  0  0  0  0
    3.4509    5.0352    0.3961 S   0  0  0  0  0  0  0  0  0  0  0  0
    3.0653    5.0608    5.6683 C   0  0  0  0  0  0  0  0  0  0  0  0
    2.2991    5.0839    6.7790 C   0  0  0  0  0  0  0  0  0  0  0  0
    0.8665    5.3906    6.8979 C   0  0  0  0  0  0  0  0  0  0  0  0
    0.2176    6.2172    6.2073 O   0  0  0  0  0  0  0  0  0  0  0  0
    0.3480    4.7160    8.0720 C   0  0  0  0  0  0  0  0  0  0  0  0
   -1.0040    4.5781    8.4639 C   0  0  0  0  0  0  0  0  0  0  0  0
   -1.1870    3.7184    9.5361 C   0  0  0  0  0  0  0  0  0  0  0  0
   -0.1099    3.0165   10.1702 C   0  0  0  0  0  0  0  0  0  0  0  0
    1.2166    3.1760    9.8089 C   0  0  0  0  0  0  0  0  0  0  0  0
    1.4259    4.0915    8.7452 C   0  0  0  0  0  0  0  0  0  0  0  0
    2.6947    4.4641    8.0777 C   0  0  0  0  0  0  0  0  0  0  0  0
    3.9142    4.5295    8.6737 C   0  0  0  0  0  0  0  0  0  0  0  0
    5.0450    5.1605    8.0388 C   0  0  0  0  0  0  0  0  0  0  0  0
    5.9552    5.6626    7.5365 N   0  0  0  0  0  0  0  0  0  0  0  0
    4.0993    4.1862   10.0594 C   0  0  0  0  0  0  0  0  0  0  0  0
    4.2451    3.9387   11.1753 N   0  0  0  0  0  0  0  0  0  0  0  0
   -1.0773    2.2999   11.0640 C   0  0  0  0  0  0  0  0  0  0  0  0
   -1.1336    2.7199   12.5607 C   0  0  0  0  0  0  0  0  0  0  0  0
   -0.7588    4.1744   12.6991 C   0  0  0  0  0  0  0  0  0  0  0  0
   -1.7436    4.8766   12.1348 C   0  0  0  0  0  0  0  0  0  0  0  0
   -2.7588    3.8726   11.6385 C   0  0  0  0  0  0  0  0  0  0  0  0
   -2.6359    2.8413   12.7450 C   0  0  0  0  0  0  0  0  0  0  0  0
   -2.1760    3.0519   10.4485 C   0  0  0  0  0  0  0  0  0  0  0  0
   -3.2138   -8.3976   -1.9243 H   0  0  0  0  0  0  0  0  0  0  0  0
   -3.9490   -5.0976    3.4307 H   0  0  0  0  0  0  0  0  0  0  0  0
   -5.0396  -10.0804    3.1288 H   0  0  0  0  0  0  0  0  0  0  0  0
   -6.1076   -8.6662    6.1267 H   0  0  0  0  0  0  0  0  0  0  0  0
   -3.7935  -10.1562    6.4595 H   0  0  0  0  0  0  0  0  0  0  0  0
   -4.4175   -9.3463    8.9118 H   0  0  0  0  0  0  0  0  0  0  0  0
   -3.8808   -6.7956    9.0935 H   0  0  0  0  0  0  0  0  0  0  0  0
   -2.8958   -5.9796    6.7683 H   0  0  0  0  0  0  0  0  0  0  0  0
   -1.8526   -8.4210    7.0120 H   0  0  0  0  0  0  0  0  0  0  0  0
   -2.4083   -8.1747    5.3057 H   0  0  0  0  0  0  0  0  0  0  0  0
   -5.6042   -6.3349    6.2993 H   0  0  0  0  0  0  0  0  0  0  0  0
   -5.8470   -5.8391   -3.5802 H   0  0  0  0  0  0  0  0  0  0  0  0
   -7.6481   -5.0568   -5.0804 H   0  0  0  0  0  0  0  0  0  0  0  0
   -8.7324   -6.9314   -7.4808 H   0  0  0  0  0  0  0  0  0  0  0  0
   -7.5230   -7.0035   -8.8347 H   0  0  0  0  0  0  0  0  0  0  0  0
   -9.1776   -6.3497   -9.1314 H   0  0  0  0  0  0  0  0  0  0  0  0
   -5.0656   -5.6142   -8.4793 H   0  0  0  0  0  0  0  0  0  0  0  0
   -3.2674   -6.3930   -6.9856 H   0  0  0  0  0  0  0  0  0  0  0  0
   -4.6097   -8.9289   -5.2448 H   0  0  0  0  0  0  0  0  0  0  0  0
   -3.5681  -11.1334   -5.5752 H   0  0  0  0  0  0  0  0  0  0  0  0
   -0.6312  -11.8458   -2.7354 H   0  0  0  0  0  0  0  0  0  0  0  0
   -0.7952  -13.5804   -3.2190 H   0  0  0  0  0  0  0  0  0  0  0  0
   -2.2592  -12.5145   -3.1876 H   0  0  0  0  0  0  0  0  0  0  0  0
    0.2378   -9.5385   -4.3544 H   0  0  0  0  0  0  0  0  0  0  0  0
   -0.7713   -7.3250   -4.0652 H   0  0  0  0  0  0  0  0  0  0  0  0
   -0.8415   -1.5235   -0.6522 H   0  0  0  0  0  0  0  0  0  0  0  0
   -0.8080   -1.4038    1.8192 H   0  0  0  0  0  0  0  0  0  0  0  0
    2.6738   -1.4063    4.8807 H   0  0  0  0  0  0  0  0  0  0  0  0
    3.0111   -1.6392    3.1317 H   0  0  0  0  0  0  0  0  0  0  0  0
    1.7884   -0.4101    3.6717 H   0  0  0  0  0  0  0  0  0  0  0  0
    2.4824   -4.1697    1.9334 H   0  0  0  0  0  0  0  0  0  0  0  0
    2.4445   -4.3138   -0.5217 H   0  0  0  0  0  0  0  0  0  0  0  0
    1.5064   -4.5522   -4.3390 H   0  0  0  0  0  0  0  0  0  0  0  0
    3.6181   -4.5201   -5.5799 H   0  0  0  0  0  0  0  0  0  0  0  0
    6.9663   -4.1389   -3.2194 H   0  0  0  0  0  0  0  0  0  0  0  0
    7.7334   -4.7664   -4.7315 H   0  0  0  0  0  0  0  0  0  0  0  0
    6.0746   -5.3189   -4.2783 H   0  0  0  0  0  0  0  0  0  0  0  0
    5.1881   -1.5620   -2.8838 H   0  0  0  0  0  0  0  0  0  0  0  0
    3.0499   -1.5173   -1.6618 H   0  0  0  0  0  0  0  0  0  0  0  0
    1.6545   -1.3177   -4.8113 H   0  0  0  0  0  0  0  0  0  0  0  0
    2.6119    0.1721   -6.5164 H   0  0  0  0  0  0  0  0  0  0  0  0
    9.3819    1.9235   -4.1753 H   0  0  0  0  0  0  0  0  0  0  0  0
    8.2165    0.8834   -3.2865 H   0  0  0  0  0  0  0  0  0  0  0  0
    7.7221    3.8733   -3.9072 H   0  0  0  0  0  0  0  0  0  0  0  0
    6.8099    2.8160   -2.7543 H   0  0  0  0  0  0  0  0  0  0  0  0
    8.5105    3.2696   -2.4107 H   0  0  0  0  0  0  0  0  0  0  0  0
    8.0903    0.1979   -7.6054 H   0  0  0  0  0  0  0  0  0  0  0  0
    7.8710   -0.9148   -6.2114 H   0  0  0  0  0  0  0  0  0  0  0  0
   10.2400    1.0551   -6.4602 H   0  0  0  0  0  0  0  0  0  0  0  0
   10.2844   -0.6566   -7.0015 H   0  0  0  0  0  0  0  0  0  0  0  0
   10.0379   -0.2782   -5.2600 H   0  0  0  0  0  0  0  0  0  0  0  0
    6.8399    2.6925   -7.6115 H   0  0  0  0  0  0  0  0  0  0  0  0
    6.6827    3.7230   -6.1395 H   0  0  0  0  0  0  0  0  0  0  0  0
    9.2057    3.8274   -5.9769 H   0  0  0  0  0  0  0  0  0  0  0  0
    8.5650    4.4958   -7.5218 H   0  0  0  0  0  0  0  0  0  0  0  0
    9.3116    2.8646   -7.5192 H   0  0  0  0  0  0  0  0  0  0  0  0
   -6.1214    1.0465   -5.9077 H   0  0  0  0  0  0  0  0  0  0  0  0
   -7.2419    1.2553   -4.5137 H   0  0  0  0  0  0  0  0  0  0  0  0
   -8.4775    0.8704   -6.6445 H   0  0  0  0  0  0  0  0  0  0  0  0
   -7.7344    2.3385   -7.3664 H   0  0  0  0  0  0  0  0  0  0  0  0
   -8.8551    2.4917   -5.9490 H   0  0  0  0  0  0  0  0  0  0  0  0
   -6.5561    4.5492   -7.1788 H   0  0  0  0  0  0  0  0  0  0  0  0
   -5.0405    5.1669   -6.4281 H   0  0  0  0  0  0  0  0  0  0  0  0
   -3.8046    3.1360   -7.1663 H   0  0  0  0  0  0  0  0  0  0  0  0
   -4.6434    3.8893   -8.5668 H   0  0  0  0  0  0  0  0  0  0  0  0
   -5.3245    2.4072   -7.8120 H   0  0  0  0  0  0  0  0  0  0  0  0
   -8.1524    4.6876   -4.7973 H   0  0  0  0  0  0  0  0  0  0  0  0
   -7.7070    3.8550   -3.2616 H   0  0  0  0  0  0  0  0  0  0  0  0
   -7.4473    6.3423   -3.0989 H   0  0  0  0  0  0  0  0  0  0  0  0
   -5.8662    5.5037   -2.8769 H   0  0  0  0  0  0  0  0  0  0  0  0
   -6.2588    6.3177   -4.4485 H   0  0  0  0  0  0  0  0  0  0  0  0
   -2.8485    1.4336   -1.6740 H   0  0  0  0  0  0  0  0  0  0  0  0
   -0.6233    4.5121   -1.6946 H   0  0  0  0  0  0  0  0  0  0  0  0
   -0.0670    7.3354   -1.1352 H   0  0  0  0  0  0  0  0  0  0  0  0
   -1.0669    9.5857   -1.1399 H   0  0  0  0  0  0  0  0  0  0  0  0
   -3.6537   10.7189    1.3824 H   0  0  0  0  0  0  0  0  0  0  0  0
   -2.0337   11.3926    0.9458 H   0  0  0  0  0  0  0  0  0  0  0  0
   -3.1926   10.8854   -0.3502 H   0  0  0  0  0  0  0  0  0  0  0  0
   -3.1525    8.6554    2.5182 H   0  0  0  0  0  0  0  0  0  0  0  0
   -2.1350    6.4162    2.5307 H   0  0  0  0  0  0  0  0  0  0  0  0
   -3.1126    5.0909    0.1661 H   0  0  0  0  0  0  0  0  0  0  0  0
   -4.4638    3.0898    0.4909 H   0  0  0  0  0  0  0  0  0  0  0  0
   -4.1088    0.6251    2.3353 H   0  0  0  0  0  0  0  0  0  0  0  0
   -4.4688    0.5992    0.5668 H   0  0  0  0  0  0  0  0  0  0  0  0
   -3.0468   -0.2960    1.1930 H   0  0  0  0  0  0  0  0  0  0  0  0
   -0.9775    0.9330    1.8066 H   0  0  0  0  0  0  0  0  0  0  0  0
    0.3853    2.9305    1.5129 H   0  0  0  0  0  0  0  0  0  0  0  0
    4.8068    7.3794    4.4008 H   0  0  0  0  0  0  0  0  0  0  0  0
    6.4740    9.1670    4.2509 H   0  0  0  0  0  0  0  0  0  0  0  0
    8.4702   10.0781    3.1834 H   0  0  0  0  0  0  0  0  0  0  0  0
    9.4495    9.0649    2.0620 H   0  0  0  0  0  0  0  0  0  0  0  0
    9.6715    8.9101    3.8528 H   0  0  0  0  0  0  0  0  0  0  0  0
    9.0871    6.5463    2.0323 H   0  0  0  0  0  0  0  0  0  0  0  0
    7.4048    4.7600    2.1596 H   0  0  0  0  0  0  0  0  0  0  0  0
    3.7362    2.6972    2.3269 H   0  0  0  0  0  0  0  0  0  0  0  0
    4.3059    0.3614    2.7443 H   0  0  0  0  0  0  0  0  0  0  0  0
    6.7254   -0.7690    5.3354 H   0  0  0  0  0  0  0  0  0  0  0  0
    7.0324   -0.9751    3.5692 H   0  0  0  0  0  0  0  0  0  0  0  0
    5.3907   -1.2773    4.2558 H   0  0  0  0  0  0  0  0  0  0  0  0
    7.5459    1.5813    5.3059 H   0  0  0  0  0  0  0  0  0  0  0  0
    6.9812    3.9342    4.9063 H   0  0  0  0  0  0  0  0  0  0  0  0
    4.0670    4.6830    5.7794 H   0  0  0  0  0  0  0  0  0  0  0  0
   -1.8247    5.0591    7.9441 H   0  0  0  0  0  0  0  0  0  0  0  0
    2.0036    2.6024   10.2783 H   0  0  0  0  0  0  0  0  0  0  0  0
   -1.1387    1.2037   10.8846 H   0  0  0  0  0  0  0  0  0  0  0  0
   -0.6202    2.0314   13.2661 H   0  0  0  0  0  0  0  0  0  0  0  0
    0.1091    4.5812   13.2028 H   0  0  0  0  0  0  0  0  0  0  0  0
   -1.8266    5.9593   12.1180 H   0  0  0  0  0  0  0  0  0  0  0  0
   -3.7804    4.2789   11.4815 H   0  0  0  0  0  0  0  0  0  0  0  0
   -2.9332    3.2278   13.7495 H   0  0  0  0  0  0  0  0  0  0  0  0
   -3.1874    1.8944   12.5351 H   0  0  0  0  0  0  0  0  0  0  0  0
   -2.9116    2.4063    9.9207 H   0  0  0  0  0  0  0  0  0  0  0  0
  1  2  2  3
  2  3  1  0
  3  4  2  0
  3  5  1  0
  5  6  2  0
  6  7  1  0
  7  8  2  0
  8  9  1  0
  9 10  2  0
 10 11  1  0
 11 12  2  3
 12 13  1  0
 13 14  3  0
 12 15  1  0
 15 16  3  0
  8 17  1  0
 17 18  1  0
 18 19  1  0
 19 20  2  0
 20 21  1  0
 21 22  1  0
 21 23  1  0
  1 24  1  0
 24 25  2  0
 25 26  1  0
 26 27  1  0
 27 28  2  0
 28 29  1  0
 29 30  2  0
 30 31  1  0
 31 32  1  0
 30 33  1  0
 33 34  2  0
 26 35  1  0
 35 36  2  0
 36 37  1  0
 37 38  2  0
 38 39  1  0
 39 40  1  0
 38 41  1  0
 41 42  2  0
 25 43  1  0
 43 44  1  0
 44 45  1  0
 45 46  2  0
 46 47  1  0
 47 48  1  0
 48 49  2  0
 49 50  1  0
 50 51  2  0
 51 52  1  0
 52 53  1  0
 51 54  1  0
 54 55  2  0
 47 56  1  0
 56 57  2  0
 57 58  1  0
 58 59  2  0
 59 60  1  0
 60 61  1  0
 59 62  1  0
 62 63  2  0
 46 64  1  0
 64 65  1  0
 45 66  1  0
 66 67  2  0
 67 68  1  0
 68 69  2  0
 69 70  1  0
 70 71  2  0
 71 72  1  0
 72 73  1  0
 72 74  2  0
 74 75  1  0
 75 76  1  0
 76 77  1  0
 75 78  1  0
 78 79  1  0
 75 80  1  0
 80 81  1  0
 74 82  1  0
 69 83  1  0
 83 84  2  0
 84 85  1  0
 85 86  1  0
 86 87  1  0
 87 88  1  0
 88 89  1  0
 89 90  1  0
 90 91  1  0
 89 92  1  0
 92 93  1  0
 89 94  1  0
 94 95  1  0
 88 96  2  0
 96 97  1  0
 96 98  1  0
 85 99  2  0
 99100  1  0
 84101  1  0
101102  2  0
102103  1  0
102104  1  0
104105  2  0
105106  1  0
106107  1  0
107108  2  0
108109  1  0
109110  2  0
110111  1  0
110112  1  0
112113  2  0
106114  1  0
114115  2  0
115116  1  0
116117  2  0
117118  1  0
117119  1  0
119120  2  0
105121  1  0
121122  1  0
122123  1  0
123124  2  0
124125  1  0
125126  1  0
126127  2  0
127128  1  0
128129  2  0
129130  1  0
129131  1  0
131132  2  0
125133  1  0
133134  2  0
134135  1  0
135136  2  0
136137  1  0
136138  1  0
138139  2  0
124140  1  0
140141  1  0
123142  1  0
142143  2  3
143144  1  0
144145  2  0
144146  1  0
146147  2  0
147148  1  0
148149  2  0
149150  1  0
150151  2  0
151152  1  0
152153  2  3
153154  1  0
154155  3  0
153156  1  0
156157  3  0
149158  1  0
158159  1  0
159160  1  0
160161  2  0
161162  1  0
162163  1  0
162164  1  0
 11  2  1  0
 23 17  1  0
 65 24  1  0
100 66  1  0
141104  1  0
152143  1  0
164158  1  0
 10  5  1  0
 22 18  1  0
 34 27  1  0
 42 35  1  0
 64 43  2  0
 99 68  1  0
113107  1  0
120114  1  0
140121  2  0
151146  1  0
163159  1  0
 23  7  1  0
 55 48  1  0
 63 56  1  0
 82 70  1  0
103 83  1  0
132126  1  0
139133  1  0
164148  1  0
 97 86  2  0
  1165  1  0
  6166  1  0
  9167  1  0
 17168  1  0
 18169  1  0
 19170  1  0
 20171  1  0
 21172  1  0
 22173  1  0
 22174  1  0
 23175  1  0
 28176  1  0
 29177  1  0
 32178  1  0
 32179  1  0
 32180  1  0
 33181  1  0
 34182  1  0
 36183  1  0
 37184  1  0
 40185  1  0
 40186  1  0
 40187  1  0
 41188  1  0
 42189  1  0
 49190  1  0
 50191  1  0
 53192  1  0
 53193  1  0
 53194  1  0
 54195  1  0
 55196  1  0
 57197  1  0
 58198  1  0
 61199  1  0
 61200  1  0
 61201  1  0
 62202  1  0
 63203  1  0
 67204  1  0
 71205  1  0
 76206  1  0
 76207  1  0
 77208  1  0
 77209  1  0
 77210  1  0
 78211  1  0
 78212  1  0
 79213  1  0
 79214  1  0
 79215  1  0
 80216  1  0
 80217  1  0
 81218  1  0
 81219  1  0
 81220  1  0
 90221  1  0
 90222  1  0
 91223  1  0
 91224  1  0
 91225  1  0
 92226  1  0
 92227  1  0
 93228  1  0
 93229  1  0
 93230  1  0
 94231  1  0
 94232  1  0
 95233  1  0
 95234  1  0
 95235  1  0
 97236  1  0
101237  1  0
108238  1  0
109239  1  0
111240  1  0
111241  1  0
111242  1  0
112243  1  0
113244  1  0
115245  1  0
116246  1  0
118247  1  0
118248  1  0
118249  1  0
119250  1  0
120251  1  0
127252  1  0
128253  1  0
130254  1  0
130255  1  0
130256  1  0
131257  1  0
132258  1  0
134259  1  0
135260  1  0
137261  1  0
137262  1  0
137263  1  0
138264  1  0
139265  1  0
142266  1  0
147267  1  0
150268  1  0
158269  1  0
159270  1  0
160271  1  0
161272  1  0
162273  1  0
163274  1  0
163275  1  0
164276  1  0
M  END

