
     RDKit          3D

153170  0  0  0  0  0  0  0  0999 V2000
    5.1612   -0.1615    2.7677 C   0  0  0  0  0  0  0  0  0  0  0  0
    5.7420    0.3343    3.8759 C   0  0  0  0  0  0  0  0  0  0  0  0
    5.4238    1.6198    4.5152 C   0  0  0  0  0  0  0  0  0  0  0  0
    4.3689    2.2936    4.3695 O   0  0  0  0  0  0  0  0  0  0  0  0
    6.5287    1.9926    5.3691 C   0  0  0  0  0  0  0  0  0  0  0  0
    6.6780    3.2017    6.0879 C   0  0  0  0  0  0  0  0  0  0  0  0
    7.8439    3.2707    6.8245 C   0  0  0  0  0  0  0  0  0  0  0  0
    8.8100    2.2148    6.8647 C   0  0  0  0  0  0  0  0  0  0  0  0
    8.6774    1.0355    6.1565 C   0  0  0  0  0  0  0  0  0  0  0  0
    7.4841    0.9394    5.3853 C   0  0  0  0  0  0  0  0  0  0  0  0
    6.9791   -0.1803    4.5371 C   0  0  0  0  0  0  0  0  0  0  0  0
    7.4106   -1.4692    4.5435 C   0  0  0  0  0  0  0  0  0  0  0  0
    6.6050   -2.5415    4.0187 C   0  0  0  0  0  0  0  0  0  0  0  0
    5.9580   -3.4146    3.6190 N   0  0  0  0  0  0  0  0  0  0  0  0
    8.6353   -1.8820    5.1832 C   0  0  0  0  0  0  0  0  0  0  0  0
    9.6165   -2.2262    5.6943 N   0  0  0  0  0  0  0  0  0  0  0  0
    9.6562    2.9967    7.8176 C   0  0  0  0  0  0  0  0  0  0  0  0
    9.6155    2.5554    9.3121 C   0  0  0  0  0  0  0  0  0  0  0  0
   10.2167    3.6992   10.0910 C   0  0  0  0  0  0  0  0  0  0  0  0
    9.3285    4.7036   10.0354 C   0  0  0  0  0  0  0  0  0  0  0  0
    8.1617    4.2021    9.2242 C   0  0  0  0  0  0  0  0  0  0  0  0
    8.1543    2.7563    9.6947 C   0  0  0  0  0  0  0  0  0  0  0  0
    8.6757    4.0901    7.7596 C   0  0  0  0  0  0  0  0  0  0  0  0
    3.9545    0.4031    2.1289 C   0  0  0  0  0  0  0  0  0  0  0  0
    3.9551    1.6959    1.5781 C   0  0  0  0  0  0  0  0  0  0  0  0
    2.8304    2.1952    0.9005 C   0  0  0  0  0  0  0  0  0  0  0  0
    2.8732    3.4492    0.3853 F   0  0  0  0  0  0  0  0  0  0  0  0
    1.6867    1.3966    0.7311 C   0  0  0  0  0  0  0  0  0  0  0  0
    1.6834    0.0980    1.2677 C   0  0  0  0  0  0  0  0  0  0  0  0
    2.8224   -0.3985    1.9606 C   0  0  0  0  0  0  0  0  0  0  0  0
    2.7481   -1.6785    2.4146 N   0  0  0  0  0  0  0  0  0  0  0  0
    1.2308   -2.0865    1.9102 S   0  0  0  0  0  0  0  0  0  0  0  0
    0.6362   -0.7570    1.1366 N   0  0  0  0  0  0  0  0  0  0  0  0
    0.5554    1.8491   -0.0871 C   0  0  0  0  0  0  0  0  0  0  0  0
    0.4615    1.5650   -1.4579 C   0  0  0  0  0  0  0  0  0  0  0  0
    1.5880    1.4854   -2.3436 N   0  0  0  0  0  0  0  0  0  0  0  0
    2.3903    2.6744   -2.5324 C   0  0  0  0  0  0  0  0  0  0  0  0
    1.7902    3.9490   -2.5245 C   0  0  0  0  0  0  0  0  0  0  0  0
    2.5719    5.1022   -2.6029 C   0  0  0  0  0  0  0  0  0  0  0  0
    3.9620    5.0048   -2.7122 C   0  0  0  0  0  0  0  0  0  0  0  0
    4.9701    6.4843   -2.7141 S   0  0  0  0  0  0  0  0  0  0  0  0
    4.7547    6.8140   -4.4885 C   0  0  0  0  0  0  0  0  0  0  0  0
    4.5653    3.7438   -2.7519 C   0  0  0  0  0  0  0  0  0  0  0  0
    3.7910    2.5825   -2.6531 C   0  0  0  0  0  0  0  0  0  0  0  0
    1.8384    0.2856   -3.1027 C   0  0  0  0  0  0  0  0  0  0  0  0
    1.6675   -0.9787   -2.5138 C   0  0  0  0  0  0  0  0  0  0  0  0
    1.9559   -2.1420   -3.2379 C   0  0  0  0  0  0  0  0  0  0  0  0
    2.4236   -2.0544   -4.5546 C   0  0  0  0  0  0  0  0  0  0  0  0
    2.8467   -3.5468   -5.4619 S   0  0  0  0  0  0  0  0  0  0  0  0
    1.2707   -3.5849   -6.3717 C   0  0  0  0  0  0  0  0  0  0  0  0
    2.5820   -0.7998   -5.1530 C   0  0  0  0  0  0  0  0  0  0  0  0
    2.2801    0.3604   -4.4386 C   0  0  0  0  0  0  0  0  0  0  0  0
   -0.8645    1.4664   -1.8760 C   0  0  0  0  0  0  0  0  0  0  0  0
   -1.5808    0.7506   -3.2025 S   0  0  0  0  0  0  0  0  0  0  0  0
   -3.1504    0.7218   -2.5326 C   0  0  0  0  0  0  0  0  0  0  0  0
   -3.1190    1.3599   -1.2690 C   0  0  0  0  0  0  0  0  0  0  0  0
   -4.2936    1.7091   -0.4944 N   0  0  0  0  0  0  0  0  0  0  0  0
   -5.5136    2.0806   -1.1690 C   0  0  0  0  0  0  0  0  0  0  0  0
   -6.7563    1.6510   -0.6719 C   0  0  0  0  0  0  0  0  0  0  0  0
   -7.9413    2.0398   -1.3026 C   0  0  0  0  0  0  0  0  0  0  0  0
   -7.8999    2.8755   -2.4248 C   0  0  0  0  0  0  0  0  0  0  0  0
   -9.4207    3.3750   -3.2323 S   0  0  0  0  0  0  0  0  0  0  0  0
   -9.6867    4.8021   -2.1368 C   0  0  0  0  0  0  0  0  0  0  0  0
   -6.6680    3.3082   -2.9250 C   0  0  0  0  0  0  0  0  0  0  0  0
   -5.4807    2.9170   -2.3008 C   0  0  0  0  0  0  0  0  0  0  0  0
   -4.1865    2.0007    0.9070 C   0  0  0  0  0  0  0  0  0  0  0  0
   -3.9944    3.3196    1.3380 C   0  0  0  0  0  0  0  0  0  0  0  0
   -3.8044    3.5951    2.6956 C   0  0  0  0  0  0  0  0  0  0  0  0
   -3.8305    2.5551    3.6321 C   0  0  0  0  0  0  0  0  0  0  0  0
   -3.5141    2.8904    5.3649 S   0  0  0  0  0  0  0  0  0  0  0  0
   -1.7724    2.3726    5.2614 C   0  0  0  0  0  0  0  0  0  0  0  0
   -4.0810    1.2462    3.2075 C   0  0  0  0  0  0  0  0  0  0  0  0
   -4.2417    0.9666    1.8527 C   0  0  0  0  0  0  0  0  0  0  0  0
   -1.8019    1.6960   -0.9190 C   0  0  0  0  0  0  0  0  0  0  0  0
   -1.0190    1.9893    0.5447 S   0  0  0  0  0  0  0  0  0  0  0  0
   -4.0990   -0.3389   -2.9662 C   0  0  0  0  0  0  0  0  0  0  0  0
   -4.1738   -0.6471   -4.3397 C   0  0  0  0  0  0  0  0  0  0  0  0
   -4.5835   -1.9163   -4.7702 C   0  0  0  0  0  0  0  0  0  0  0  0
   -4.4689   -2.2400   -6.0808 F   0  0  0  0  0  0  0  0  0  0  0  0
   -4.9711   -2.8953   -3.8425 C   0  0  0  0  0  0  0  0  0  0  0  0
   -5.0619   -2.5494   -2.4940 C   0  0  0  0  0  0  0  0  0  0  0  0
   -4.6173   -1.2756   -2.0485 C   0  0  0  0  0  0  0  0  0  0  0  0
   -4.5987   -1.0976   -0.7080 N   0  0  0  0  0  0  0  0  0  0  0  0
   -5.1845   -2.5416   -0.1782 S   0  0  0  0  0  0  0  0  0  0  0  0
   -5.4350   -3.4381   -1.5366 N   0  0  0  0  0  0  0  0  0  0  0  0
   -4.9141   -4.3273   -4.2118 C   0  0  0  0  0  0  0  0  0  0  0  0
   -6.1025   -5.0125   -4.4816 C   0  0  0  0  0  0  0  0  0  0  0  0
   -6.0951   -6.3893   -4.7082 C   0  0  0  0  0  0  0  0  0  0  0  0
   -4.8907   -7.1095   -4.7021 C   0  0  0  0  0  0  0  0  0  0  0  0
   -4.8912   -8.5829   -4.8786 C   0  0  0  0  0  0  0  0  0  0  0  0
   -5.9863   -9.2039   -4.9649 O   0  0  0  0  0  0  0  0  0  0  0  0
   -3.6459   -9.2983   -4.9386 N   0  0  0  0  0  0  0  0  0  0  0  0
   -3.6095  -10.7711   -4.9048 C   0  0  0  0  0  0  0  0  0  0  0  0
   -3.3787  -11.2647   -3.4769 C   0  0  0  0  0  0  0  0  0  0  0  0
   -2.4117   -8.5613   -4.8363 C   0  0  0  0  0  0  0  0  0  0  0  0
   -1.3094   -9.1451   -5.0206 O   0  0  0  0  0  0  0  0  0  0  0  0
   -2.4428   -7.1284   -4.4895 C   0  0  0  0  0  0  0  0  0  0  0  0
   -1.2540   -6.4576   -4.1583 C   0  0  0  0  0  0  0  0  0  0  0  0
   -1.2797   -5.1105   -3.8261 C   0  0  0  0  0  0  0  0  0  0  0  0
   -2.4759   -4.3998   -3.8464 C   0  0  0  0  0  0  0  0  0  0  0  0
   -3.6856   -5.0376   -4.1832 C   0  0  0  0  0  0  0  0  0  0  0  0
   -3.6765   -6.4304   -4.4666 C   0  0  0  0  0  0  0  0  0  0  0  0
    5.5788   -1.0239    2.2838 H   0  0  0  0  0  0  0  0  0  0  0  0
    5.9453    3.9955    6.0807 H   0  0  0  0  0  0  0  0  0  0  0  0
    9.4395    0.2790    6.2118 H   0  0  0  0  0  0  0  0  0  0  0  0
   10.6678    3.2454    7.4206 H   0  0  0  0  0  0  0  0  0  0  0  0
   10.0428    1.5552    9.5328 H   0  0  0  0  0  0  0  0  0  0  0  0
   11.1331    3.6958   10.6724 H   0  0  0  0  0  0  0  0  0  0  0  0
    9.4047    5.6514   10.5602 H   0  0  0  0  0  0  0  0  0  0  0  0
    7.2129    4.7610    9.3616 H   0  0  0  0  0  0  0  0  0  0  0  0
    7.4468    2.0960    9.1442 H   0  0  0  0  0  0  0  0  0  0  0  0
    7.9653    2.6482   10.7892 H   0  0  0  0  0  0  0  0  0  0  0  0
    9.0600    5.0321    7.3077 H   0  0  0  0  0  0  0  0  0  0  0  0
    4.8336    2.3240    1.6732 H   0  0  0  0  0  0  0  0  0  0  0  0
    0.7179    4.0510   -2.4414 H   0  0  0  0  0  0  0  0  0  0  0  0
    2.0973    6.0719   -2.5633 H   0  0  0  0  0  0  0  0  0  0  0  0
    5.3404    7.7137   -4.7664 H   0  0  0  0  0  0  0  0  0  0  0  0
    3.6857    7.0045   -4.7090 H   0  0  0  0  0  0  0  0  0  0  0  0
    5.1202    5.9541   -5.0868 H   0  0  0  0  0  0  0  0  0  0  0  0
    5.6408    3.6601   -2.8260 H   0  0  0  0  0  0  0  0  0  0  0  0
    4.2805    1.6158   -2.6429 H   0  0  0  0  0  0  0  0  0  0  0  0
    1.3313   -1.0654   -1.4914 H   0  0  0  0  0  0  0  0  0  0  0  0
    1.8465   -3.1106   -2.7644 H   0  0  0  0  0  0  0  0  0  0  0  0
    0.4302   -3.7107   -5.6621 H   0  0  0  0  0  0  0  0  0  0  0  0
    1.2748   -4.4330   -7.0905 H   0  0  0  0  0  0  0  0  0  0  0  0
    1.1439   -2.6414   -6.9371 H   0  0  0  0  0  0  0  0  0  0  0  0
    2.9357   -0.7279   -6.1760 H   0  0  0  0  0  0  0  0  0  0  0  0
    2.3892    1.3217   -4.9260 H   0  0  0  0  0  0  0  0  0  0  0  0
   -6.8027    1.0077    0.1956 H   0  0  0  0  0  0  0  0  0  0  0  0
   -8.8907    1.6926   -0.9171 H   0  0  0  0  0  0  0  0  0  0  0  0
   -8.8680    5.5388   -2.2656 H   0  0  0  0  0  0  0  0  0  0  0  0
  -10.6496    5.2910   -2.3892 H   0  0  0  0  0  0  0  0  0  0  0  0
   -9.7227    4.4692   -1.0796 H   0  0  0  0  0  0  0  0  0  0  0  0
   -6.6290    3.9580   -3.7910 H   0  0  0  0  0  0  0  0  0  0  0  0
   -4.5395    3.2922   -2.6776 H   0  0  0  0  0  0  0  0  0  0  0  0
   -3.9613    4.1268    0.6164 H   0  0  0  0  0  0  0  0  0  0  0  0
   -3.6245    4.6116    3.0176 H   0  0  0  0  0  0  0  0  0  0  0  0
   -1.2245    3.0169    4.5443 H   0  0  0  0  0  0  0  0  0  0  0  0
   -1.7121    1.3141    4.9313 H   0  0  0  0  0  0  0  0  0  0  0  0
   -1.2982    2.4606    6.2591 H   0  0  0  0  0  0  0  0  0  0  0  0
   -4.1160    0.4350    3.9225 H   0  0  0  0  0  0  0  0  0  0  0  0
   -4.4016   -0.0563    1.5470 H   0  0  0  0  0  0  0  0  0  0  0  0
   -3.7779    0.0464   -5.0752 H   0  0  0  0  0  0  0  0  0  0  0  0
   -7.0519   -4.4879   -4.4659 H   0  0  0  0  0  0  0  0  0  0  0  0
   -7.0402   -6.8945   -4.8884 H   0  0  0  0  0  0  0  0  0  0  0  0
   -2.7879  -11.1449   -5.5626 H   0  0  0  0  0  0  0  0  0  0  0  0
   -4.5509  -11.2018   -5.3028 H   0  0  0  0  0  0  0  0  0  0  0  0
   -3.2191  -12.3618   -3.4885 H   0  0  0  0  0  0  0  0  0  0  0  0
   -2.4812  -10.7774   -3.0405 H   0  0  0  0  0  0  0  0  0  0  0  0
   -4.2612  -11.0329   -2.8413 H   0  0  0  0  0  0  0  0  0  0  0  0
   -0.3060   -6.9846   -4.1485 H   0  0  0  0  0  0  0  0  0  0  0  0
   -0.3617   -4.6101   -3.5502 H   0  0  0  0  0  0  0  0  0  0  0  0
   -2.4433   -3.3536   -3.5797 H   0  0  0  0  0  0  0  0  0  0  0  0
  1  2  2  3
  2  3  1  0
  3  4  2  0
  3  5  1  0
  5  6  2  0
  6  7  1  0
  7  8  2  0
  8  9  1  0
  9 10  2  0
 10 11  1  0
 11 12  2  3
 12 13  1  0
 13 14  3  0
 12 15  1  0
 15 16  3  0
  8 17  1  0
 17 18  1  0
 18 19  1  0
 19 20  2  0
 20 21  1  0
 21 22  1  0
 21 23  1  0
  1 24  1  0
 24 25  2  0
 25 26  1  0
 26 27  1  0
 26 28  2  0
 28 29  1  0
 29 30  1  0
 30 31  2  0
 31 32  1  0
 32 33  1  0
 28 34  1  0
 34 35  2  0
 35 36  1  0
 36 37  1  0
 37 38  2  0
 38 39  1  0
 39 40  2  0
 40 41  1  0
 41 42  1  0
 40 43  1  0
 43 44  2  0
 36 45  1  0
 45 46  2  0
 46 47  1  0
 47 48  2  0
 48 49  1  0
 49 50  1  0
 48 51  1  0
 51 52  2  0
 35 53  1  0
 53 54  1  0
 54 55  1  0
 55 56  2  0
 56 57  1  0
 57 58  1  0
 58 59  2  0
 59 60  1  0
 60 61  2  0
 61 62  1  0
 62 63  1  0
 61 64  1  0
 64 65  2  0
 57 66  1  0
 66 67  2  0
 67 68  1  0
 68 69  2  0
 69 70  1  0
 70 71  1  0
 69 72  1  0
 72 73  2  0
 56 74  1  0
 74 75  1  0
 55 76  1  0
 76 77  2  0
 77 78  1  0
 78 79  1  0
 78 80  2  0
 80 81  1  0
 81 82  1  0
 82 83  2  0
 83 84  1  0
 84 85  1  0
 80 86  1  0
 86 87  2  0
 87 88  1  0
 88 89  2  0
 89 90  1  0
 90 91  2  0
 90 92  1  0
 92 93  1  0
 93 94  1  0
 92 95  1  0
 95 96  2  0
 95 97  1  0
 97 98  1  0
 98 99  2  0
 99100  1  0
100101  2  0
101102  1  0
 11  2  1  0
 23 17  1  0
 30 24  1  0
 75 34  1  0
 82 76  1  0
101 86  1  0
 10  5  1  0
 22 18  1  0
 33 29  2  0
 44 37  1  0
 52 45  1  0
 74 53  2  0
 85 81  2  0
102 89  1  0
 23  7  1  0
 65 58  1  0
 73 66  1  0
102 97  2  0
  1103  1  0
  6104  1  0
  9105  1  0
 17106  1  0
 18107  1  0
 19108  1  0
 20109  1  0
 21110  1  0
 22111  1  0
 22112  1  0
 23113  1  0
 25114  1  0
 38115  1  0
 39116  1  0
 42117  1  0
 42118  1  0
 42119  1  0
 43120  1  0
 44121  1  0
 46122  1  0
 47123  1  0
 50124  1  0
 50125  1  0
 50126  1  0
 51127  1  0
 52128  1  0
 59129  1  0
 60130  1  0
 63131  1  0
 63132  1  0
 63133  1  0
 64134  1  0
 65135  1  0
 67136  1  0
 68137  1  0
 71138  1  0
 71139  1  0
 71140  1  0
 72141  1  0
 73142  1  0
 77143  1  0
 87144  1  0
 88145  1  0
 93146  1  0
 93147  1  0
 94148  1  0
 94149  1  0
 94150  1  0
 98151  1  0
 99152  1  0
100153  1  0
M  END

