
     RDKit          3D

210230  0  0  0  0  0  0  0  0999 V2000
   -3.0324   -0.8229    6.0856 C   0  0  0  0  0  0  0  0  0  0  0  0
   -2.7053   -2.1769    6.0772 C   0  0  0  0  0  0  0  0  0  0  0  0
   -2.7017   -2.9918    4.8701 C   0  0  0  0  0  0  0  0  0  0  0  0
   -3.2568   -2.6819    3.7755 O   0  0  0  0  0  0  0  0  0  0  0  0
   -2.0011   -4.2027    5.0962 C   0  0  0  0  0  0  0  0  0  0  0  0
   -1.6449   -5.0957    4.0012 C   0  0  0  0  0  0  0  0  0  0  0  0
   -0.9162   -6.1505    4.5684 C   0  0  0  0  0  0  0  0  0  0  0  0
   -0.5148   -6.2729    5.9455 C   0  0  0  0  0  0  0  0  0  0  0  0
   -0.8703   -5.3721    7.0145 C   0  0  0  0  0  0  0  0  0  0  0  0
   -1.6343   -4.2576    6.4907 C   0  0  0  0  0  0  0  0  0  0  0  0
   -2.0547   -2.9694    7.1855 C   0  0  0  0  0  0  0  0  0  0  0  0
   -1.3623   -2.7041    8.3709 C   0  0  0  0  0  0  0  0  0  0  0  0
    0.0535   -2.9609    8.3415 C   0  0  0  0  0  0  0  0  0  0  0  0
    1.2347   -3.1150    8.3715 N   0  0  0  0  0  0  0  0  0  0  0  0
   -2.0396   -2.9905    9.5943 C   0  0  0  0  0  0  0  0  0  0  0  0
   -2.5884   -3.2602   10.5524 N   0  0  0  0  0  0  0  0  0  0  0  0
   -0.2204   -7.6592    5.7874 C   0  0  0  0  0  0  0  0  0  0  0  0
   -1.2407   -8.6674    6.4309 C   0  0  0  0  0  0  0  0  0  0  0  0
   -0.8559   -9.9945    5.7854 C   0  0  0  0  0  0  0  0  0  0  0  0
   -1.2574   -9.9140    4.4910 C   0  0  0  0  0  0  0  0  0  0  0  0
   -1.8636   -8.5311    4.3262 C   0  0  0  0  0  0  0  0  0  0  0  0
   -2.5716   -8.4525    5.7000 C   0  0  0  0  0  0  0  0  0  0  0  0
   -0.6377   -7.5172    4.3899 C   0  0  0  0  0  0  0  0  0  0  0  0
   -2.8834   -0.0175    4.8939 C   0  0  0  0  0  0  0  0  0  0  0  0
   -1.5482    0.1926    4.3719 C   0  0  0  0  0  0  0  0  0  0  0  0
   -0.3539    0.3789    5.2156 N   0  0  0  0  0  0  0  0  0  0  0  0
    1.0038    0.6059    4.7232 C   0  0  0  0  0  0  0  0  0  0  0  0
    1.2319    1.7623    3.9381 C   0  0  0  0  0  0  0  0  0  0  0  0
    2.5203    2.1738    3.5992 C   0  0  0  0  0  0  0  0  0  0  0  0
    3.6493    1.5504    4.1930 C   0  0  0  0  0  0  0  0  0  0  0  0
    5.2392    2.4029    4.1942 S   0  0  0  0  0  0  0  0  0  0  0  0
    6.1252    1.3962    2.9533 C   0  0  0  0  0  0  0  0  0  0  0  0
    3.4544    0.4262    5.0285 C   0  0  0  0  0  0  0  0  0  0  0  0
    2.1560   -0.0684    5.2364 C   0  0  0  0  0  0  0  0  0  0  0  0
   -0.5667    0.9476    6.5095 C   0  0  0  0  0  0  0  0  0  0  0  0
   -1.4214    2.0631    6.6026 C   0  0  0  0  0  0  0  0  0  0  0  0
   -1.5912    2.7297    7.8143 C   0  0  0  0  0  0  0  0  0  0  0  0
   -0.8669    2.3181    8.9654 C   0  0  0  0  0  0  0  0  0  0  0  0
   -1.0452    3.1420   10.5176 S   0  0  0  0  0  0  0  0  0  0  0  0
    0.3836    4.2645   10.3207 C   0  0  0  0  0  0  0  0  0  0  0  0
   -0.1117    1.1232    8.9025 C   0  0  0  0  0  0  0  0  0  0  0  0
    0.0057    0.4216    7.6829 C   0  0  0  0  0  0  0  0  0  0  0  0
   -1.4782    0.1989    2.9842 C   0  0  0  0  0  0  0  0  0  0  0  0
   -0.2437    0.1456    1.8795 S   0  0  0  0  0  0  0  0  0  0  0  0
   -1.1434    0.1690    0.4380 C   0  0  0  0  0  0  0  0  0  0  0  0
   -2.5351    0.2299    0.8333 C   0  0  0  0  0  0  0  0  0  0  0  0
   -3.6881    0.5613    0.0220 N   0  0  0  0  0  0  0  0  0  0  0  0
   -4.7631   -0.3760   -0.2602 C   0  0  0  0  0  0  0  0  0  0  0  0
   -5.4658   -0.2598   -1.4876 C   0  0  0  0  0  0  0  0  0  0  0  0
   -6.4993   -1.1713   -1.8439 C   0  0  0  0  0  0  0  0  0  0  0  0
   -6.8915   -2.1973   -0.9648 C   0  0  0  0  0  0  0  0  0  0  0  0
   -8.2241   -3.2915   -1.5360 S   0  0  0  0  0  0  0  0  0  0  0  0
   -8.4866   -4.3510   -0.0744 C   0  0  0  0  0  0  0  0  0  0  0  0
   -6.1990   -2.3138    0.2834 C   0  0  0  0  0  0  0  0  0  0  0  0
   -5.1267   -1.4186    0.6305 C   0  0  0  0  0  0  0  0  0  0  0  0
   -3.9466    1.9524   -0.2987 C   0  0  0  0  0  0  0  0  0  0  0  0
   -2.9825    2.6849   -1.0431 C   0  0  0  0  0  0  0  0  0  0  0  0
   -3.1693    4.0428   -1.3620 C   0  0  0  0  0  0  0  0  0  0  0  0
   -4.2907    4.7721   -0.8840 C   0  0  0  0  0  0  0  0  0  0  0  0
   -4.1257    6.5635   -0.8964 S   0  0  0  0  0  0  0  0  0  0  0  0
   -5.9049    7.0030   -1.1697 C   0  0  0  0  0  0  0  0  0  0  0  0
   -5.2701    4.0522   -0.1180 C   0  0  0  0  0  0  0  0  0  0  0  0
   -5.1196    2.6534    0.1498 C   0  0  0  0  0  0  0  0  0  0  0  0
   -2.6458    0.2258    2.2773 C   0  0  0  0  0  0  0  0  0  0  0  0
   -3.9085    0.2731    3.4925 S   0  0  0  0  0  0  0  0  0  0  0  0
   -0.3047    0.3040   -0.8185 C   0  0  0  0  0  0  0  0  0  0  0  0
   -0.4768    0.2265   -2.2557 C   0  0  0  0  0  0  0  0  0  0  0  0
   -1.6247   -0.2452   -3.0092 N   0  0  0  0  0  0  0  0  0  0  0  0
   -2.1573   -1.5524   -2.7169 C   0  0  0  0  0  0  0  0  0  0  0  0
   -1.2824   -2.6143   -2.3547 C   0  0  0  0  0  0  0  0  0  0  0  0
   -1.7588   -3.9685   -2.3441 C   0  0  0  0  0  0  0  0  0  0  0  0
   -3.0941   -4.2815   -2.6823 C   0  0  0  0  0  0  0  0  0  0  0  0
   -3.6385   -6.0332   -2.5416 S   0  0  0  0  0  0  0  0  0  0  0  0
   -5.3464   -6.0015   -3.2030 C   0  0  0  0  0  0  0  0  0  0  0  0
   -3.9470   -3.2114   -3.0605 C   0  0  0  0  0  0  0  0  0  0  0  0
   -3.4766   -1.8737   -3.1008 C   0  0  0  0  0  0  0  0  0  0  0  0
   -1.9307    0.3593   -4.3143 C   0  0  0  0  0  0  0  0  0  0  0  0
   -2.1212   -0.4701   -5.4768 C   0  0  0  0  0  0  0  0  0  0  0  0
   -2.4957    0.0651   -6.7199 C   0  0  0  0  0  0  0  0  0  0  0  0
   -2.6206    1.4714   -6.8847 C   0  0  0  0  0  0  0  0  0  0  0  0
   -3.2970    2.1402   -8.4232 S   0  0  0  0  0  0  0  0  0  0  0  0
   -1.7814    1.9120   -9.4163 C   0  0  0  0  0  0  0  0  0  0  0  0
   -2.3495    2.2877   -5.7681 C   0  0  0  0  0  0  0  0  0  0  0  0
   -2.0132    1.7526   -4.4967 C   0  0  0  0  0  0  0  0  0  0  0  0
    0.7777    0.3737   -2.9515 C   0  0  0  0  0  0  0  0  0  0  0  0
    1.3552    0.4019   -4.5809 S   0  0  0  0  0  0  0  0  0  0  0  0
    3.0006    0.8058   -4.1097 C   0  0  0  0  0  0  0  0  0  0  0  0
    3.1017    0.7584   -2.6994 C   0  0  0  0  0  0  0  0  0  0  0  0
    4.2941    0.6162   -1.8977 N   0  0  0  0  0  0  0  0  0  0  0  0
    4.9248    1.7847   -1.3371 C   0  0  0  0  0  0  0  0  0  0  0  0
    4.1464    2.8615   -0.8663 C   0  0  0  0  0  0  0  0  0  0  0  0
    4.7201    3.9692   -0.2264 C   0  0  0  0  0  0  0  0  0  0  0  0
    6.1379    4.0729   -0.0923 C   0  0  0  0  0  0  0  0  0  0  0  0
    7.0126    5.4532    0.7639 S   0  0  0  0  0  0  0  0  0  0  0  0
    5.7100    6.7209    1.0162 C   0  0  0  0  0  0  0  0  0  0  0  0
    6.9319    3.0180   -0.6031 C   0  0  0  0  0  0  0  0  0  0  0  0
    6.3362    1.8827   -1.2085 C   0  0  0  0  0  0  0  0  0  0  0  0
    4.6073   -0.6975   -1.4337 C   0  0  0  0  0  0  0  0  0  0  0  0
    4.8709   -0.9445   -0.0659 C   0  0  0  0  0  0  0  0  0  0  0  0
    4.9789   -2.2578    0.4597 C   0  0  0  0  0  0  0  0  0  0  0  0
    4.7891   -3.3965   -0.3943 C   0  0  0  0  0  0  0  0  0  0  0  0
    4.5152   -5.0394    0.2781 S   0  0  0  0  0  0  0  0  0  0  0  0
    6.2338   -5.6929    0.1832 C   0  0  0  0  0  0  0  0  0  0  0  0
    4.5233   -3.1563   -1.7507 C   0  0  0  0  0  0  0  0  0  0  0  0
    4.4169   -1.8456   -2.2538 C   0  0  0  0  0  0  0  0  0  0  0  0
    1.8641    0.5470   -2.1411 C   0  0  0  0  0  0  0  0  0  0  0  0
    1.3933    0.5108   -0.5809 S   0  0  0  0  0  0  0  0  0  0  0  0
    4.0282    1.4431   -4.9147 C   0  0  0  0  0  0  0  0  0  0  0  0
    3.6153    2.2168   -6.0138 C   0  0  0  0  0  0  0  0  0  0  0  0
    2.3605    2.5458   -6.3519 N   0  0  0  0  0  0  0  0  0  0  0  0
    2.4250    3.5306   -7.2728 N   0  0  0  0  0  0  0  0  0  0  0  0
    1.3375    4.0873   -7.9967 C   0  0  0  0  0  0  0  0  0  0  0  0
    0.5229    5.0656   -7.1538 C   0  0  0  0  0  0  0  0  0  0  0  0
    3.7277    3.8452   -7.4987 N   0  0  0  0  0  0  0  0  0  0  0  0
    4.4432    3.0652   -6.7008 C   0  0  0  0  0  0  0  0  0  0  0  0
    5.7912    3.3196   -6.2941 C   0  0  0  0  0  0  0  0  0  0  0  0
    6.2815    2.3482   -5.3366 C   0  0  0  0  0  0  0  0  0  0  0  0
    5.4260    1.4006   -4.6997 C   0  0  0  0  0  0  0  0  0  0  0  0
    5.9927    0.4574   -3.8940 F   0  0  0  0  0  0  0  0  0  0  0  0
    7.5704    2.4959   -4.8743 F   0  0  0  0  0  0  0  0  0  0  0  0
    6.3961    4.7522   -6.5391 C   0  0  0  0  0  0  0  0  0  0  0  0
    5.8044    5.9296   -6.2569 C   0  0  0  0  0  0  0  0  0  0  0  0
    5.5997    7.1566   -7.0817 C   0  0  0  0  0  0  0  0  0  0  0  0
    6.3538    7.5240   -8.0583 O   0  0  0  0  0  0  0  0  0  0  0  0
    4.3176    7.7373   -6.6641 C   0  0  0  0  0  0  0  0  0  0  0  0
    3.4250    9.1510   -6.8637 S   0  0  0  0  0  0  0  0  0  0  0  0
    2.2564    8.6941   -5.6837 C   0  0  0  0  0  0  0  0  0  0  0  0
    0.6889    9.6004   -5.2142 Br  0  0  0  0  0  0  0  0  0  0  0  0
    2.5800    7.4681   -5.0997 C   0  0  0  0  0  0  0  0  0  0  0  0
    3.7807    7.0216   -5.6172 C   0  0  0  0  0  0  0  0  0  0  0  0
    4.7412    6.0496   -5.1886 C   0  0  0  0  0  0  0  0  0  0  0  0
    4.7609    5.5002   -3.9657 C   0  0  0  0  0  0  0  0  0  0  0  0
    3.5442    5.2047   -3.1499 C   0  0  0  0  0  0  0  0  0  0  0  0
    2.5445    4.9320   -2.6066 N   0  0  0  0  0  0  0  0  0  0  0  0
    6.0297    5.0998   -3.4149 C   0  0  0  0  0  0  0  0  0  0  0  0
    7.1080    4.8412   -3.1415 N   0  0  0  0  0  0  0  0  0  0  0  0
   -2.9793   -0.2443    6.9538 H   0  0  0  0  0  0  0  0  0  0  0  0
   -2.1856   -5.0532    3.0179 H   0  0  0  0  0  0  0  0  0  0  0  0
   -0.7076   -5.5582    8.0428 H   0  0  0  0  0  0  0  0  0  0  0  0
    0.8654   -7.8265    6.0157 H   0  0  0  0  0  0  0  0  0  0  0  0
   -1.2899   -8.7397    7.5345 H   0  0  0  0  0  0  0  0  0  0  0  0
   -0.4218  -10.9062    6.2559 H   0  0  0  0  0  0  0  0  0  0  0  0
   -1.2419  -10.7649    3.7839 H   0  0  0  0  0  0  0  0  0  0  0  0
   -2.5087   -8.4183    3.4371 H   0  0  0  0  0  0  0  0  0  0  0  0
   -3.4045   -9.2312    5.8965 H   0  0  0  0  0  0  0  0  0  0  0  0
   -3.1613   -7.5319    5.9510 H   0  0  0  0  0  0  0  0  0  0  0  0
    0.1993   -7.7023    3.6783 H   0  0  0  0  0  0  0  0  0  0  0  0
    0.3278    2.3557    3.5689 H   0  0  0  0  0  0  0  0  0  0  0  0
    2.6253    3.0902    3.0266 H   0  0  0  0  0  0  0  0  0  0  0  0
    6.2043    1.9228    1.9968 H   0  0  0  0  0  0  0  0  0  0  0  0
    5.7580    0.3716    2.7671 H   0  0  0  0  0  0  0  0  0  0  0  0
    7.1850    1.2504    3.2922 H   0  0  0  0  0  0  0  0  0  0  0  0
    4.2280   -0.0611    5.6264 H   0  0  0  0  0  0  0  0  0  0  0  0
    1.9650   -0.8658    5.9342 H   0  0  0  0  0  0  0  0  0  0  0  0
   -2.0028    2.4429    5.7190 H   0  0  0  0  0  0  0  0  0  0  0  0
   -2.3027    3.5810    7.8612 H   0  0  0  0  0  0  0  0  0  0  0  0
    0.0798    5.1921    9.8126 H   0  0  0  0  0  0  0  0  0  0  0  0
    1.2304    3.7762    9.7916 H   0  0  0  0  0  0  0  0  0  0  0  0
    0.6949    4.5483   11.3368 H   0  0  0  0  0  0  0  0  0  0  0  0
    0.4102    0.7067    9.7903 H   0  0  0  0  0  0  0  0  0  0  0  0
    0.5781   -0.4856    7.6354 H   0  0  0  0  0  0  0  0  0  0  0  0
   -5.1655    0.4987   -2.2381 H   0  0  0  0  0  0  0  0  0  0  0  0
   -6.9315   -1.0632   -2.8205 H   0  0  0  0  0  0  0  0  0  0  0  0
   -7.8017   -5.2282   -0.0799 H   0  0  0  0  0  0  0  0  0  0  0  0
   -9.5209   -4.7328   -0.1518 H   0  0  0  0  0  0  0  0  0  0  0  0
   -8.4576   -3.8297    0.8928 H   0  0  0  0  0  0  0  0  0  0  0  0
   -6.4255   -3.0785    1.0533 H   0  0  0  0  0  0  0  0  0  0  0  0
   -4.6566   -1.5529    1.5864 H   0  0  0  0  0  0  0  0  0  0  0  0
   -2.0809    2.2099   -1.4157 H   0  0  0  0  0  0  0  0  0  0  0  0
   -2.3513    4.5636   -1.9300 H   0  0  0  0  0  0  0  0  0  0  0  0
   -6.4480    6.2597   -1.7791 H   0  0  0  0  0  0  0  0  0  0  0  0
   -6.4265    7.2397   -0.1716 H   0  0  0  0  0  0  0  0  0  0  0  0
   -5.8865    7.9096   -1.7835 H   0  0  0  0  0  0  0  0  0  0  0  0
   -6.1547    4.5532    0.2991 H   0  0  0  0  0  0  0  0  0  0  0  0
   -5.9156    2.1019    0.7066 H   0  0  0  0  0  0  0  0  0  0  0  0
   -0.1881   -2.4974   -2.1679 H   0  0  0  0  0  0  0  0  0  0  0  0
   -1.0614   -4.7854   -2.0556 H   0  0  0  0  0  0  0  0  0  0  0  0
   -6.0433   -6.1086   -2.3465 H   0  0  0  0  0  0  0  0  0  0  0  0
   -5.4455   -6.9054   -3.8348 H   0  0  0  0  0  0  0  0  0  0  0  0
   -5.6677   -5.1813   -3.8540 H   0  0  0  0  0  0  0  0  0  0  0  0
   -4.9847   -3.2499   -3.3702 H   0  0  0  0  0  0  0  0  0  0  0  0
   -4.1130   -1.1159   -3.5421 H   0  0  0  0  0  0  0  0  0  0  0  0
   -2.0459   -1.5878   -5.4442 H   0  0  0  0  0  0  0  0  0  0  0  0
   -2.7766   -0.6619   -7.5016 H   0  0  0  0  0  0  0  0  0  0  0  0
   -0.8892    1.4673   -8.9157 H   0  0  0  0  0  0  0  0  0  0  0  0
   -2.0205    1.3022  -10.3061 H   0  0  0  0  0  0  0  0  0  0  0  0
   -1.4933    2.8961   -9.7938 H   0  0  0  0  0  0  0  0  0  0  0  0
   -2.4953    3.3536   -5.8009 H   0  0  0  0  0  0  0  0  0  0  0  0
   -1.8339    2.3903   -3.6590 H   0  0  0  0  0  0  0  0  0  0  0  0
    3.0339    2.8466   -0.9263 H   0  0  0  0  0  0  0  0  0  0  0  0
    3.9841    4.6771    0.1692 H   0  0  0  0  0  0  0  0  0  0  0  0
    5.4911    6.7705    2.1051 H   0  0  0  0  0  0  0  0  0  0  0  0
    4.7730    6.6416    0.4342 H   0  0  0  0  0  0  0  0  0  0  0  0
    6.1409    7.6905    0.7103 H   0  0  0  0  0  0  0  0  0  0  0  0
    8.0198    3.0255   -0.5272 H   0  0  0  0  0  0  0  0  0  0  0  0
    6.9605    1.0877   -1.5611 H   0  0  0  0  0  0  0  0  0  0  0  0
    4.9181   -0.0962    0.6252 H   0  0  0  0  0  0  0  0  0  0  0  0
    5.0796   -2.3526    1.5362 H   0  0  0  0  0  0  0  0  0  0  0  0
    6.7041   -5.8034    1.1894 H   0  0  0  0  0  0  0  0  0  0  0  0
    6.9560   -5.1468   -0.4518 H   0  0  0  0  0  0  0  0  0  0  0  0
    6.1992   -6.7089   -0.2217 H   0  0  0  0  0  0  0  0  0  0  0  0
    4.2465   -3.9554   -2.4725 H   0  0  0  0  0  0  0  0  0  0  0  0
    4.1456   -1.6913   -3.3012 H   0  0  0  0  0  0  0  0  0  0  0  0
    1.7177    4.5846   -8.8946 H   0  0  0  0  0  0  0  0  0  0  0  0
    0.6815    3.2856   -8.3575 H   0  0  0  0  0  0  0  0  0  0  0  0
   -0.3893    4.5698   -6.7502 H   0  0  0  0  0  0  0  0  0  0  0  0
    0.1757    5.9147   -7.7946 H   0  0  0  0  0  0  0  0  0  0  0  0
    1.1372    5.4936   -6.3162 H   0  0  0  0  0  0  0  0  0  0  0  0
    7.3341    4.8207   -6.9516 H   0  0  0  0  0  0  0  0  0  0  0  0
    2.0087    6.9346   -4.3101 H   0  0  0  0  0  0  0  0  0  0  0  0
  1  2  2  3
  2  3  1  0
  3  4  2  0
  3  5  1  0
  5  6  2  0
  6  7  1  0
  7  8  2  0
  8  9  1  0
  9 10  2  0
 10 11  1  0
 11 12  2  3
 12 13  1  0
 13 14  3  0
 12 15  1  0
 15 16  3  0
  8 17  1  0
 17 18  1  0
 18 19  1  0
 19 20  2  0
 20 21  1  0
 21 22  1  0
 21 23  1  0
  1 24  1  0
 24 25  2  0
 25 26  1  0
 26 27  1  0
 27 28  2  0
 28 29  1  0
 29 30  2  0
 30 31  1  0
 31 32  1  0
 30 33  1  0
 33 34  2  0
 26 35  1  0
 35 36  2  0
 36 37  1  0
 37 38  2  0
 38 39  1  0
 39 40  1  0
 38 41  1  0
 41 42  2  0
 25 43  1  0
 43 44  1  0
 44 45  1  0
 45 46  2  0
 46 47  1  0
 47 48  1  0
 48 49  2  0
 49 50  1  0
 50 51  2  0
 51 52  1  0
 52 53  1  0
 51 54  1  0
 54 55  2  0
 47 56  1  0
 56 57  2  0
 57 58  1  0
 58 59  2  0
 59 60  1  0
 60 61  1  0
 59 62  1  0
 62 63  2  0
 46 64  1  0
 64 65  1  0
 45 66  1  0
 66 67  2  0
 67 68  1  0
 68 69  1  0
 69 70  2  0
 70 71  1  0
 71 72  2  0
 72 73  1  0
 73 74  1  0
 72 75  1  0
 75 76  2  0
 68 77  1  0
 77 78  2  0
 78 79  1  0
 79 80  2  0
 80 81  1  0
 81 82  1  0
 80 83  1  0
 83 84  2  0
 67 85  1  0
 85 86  1  0
 86 87  1  0
 87 88  2  0
 88 89  1  0
 89 90  1  0
 90 91  2  0
 91 92  1  0
 92 93  2  0
 93 94  1  0
 94 95  1  0
 93 96  1  0
 96 97  2  0
 89 98  1  0
 98 99  2  0
 99100  1  0
100101  2  0
101102  1  0
102103  1  0
101104  1  0
104105  2  0
 88106  1  0
106107  1  0
 87108  1  0
108109  1  0
109110  2  0
110111  1  0
111112  1  0
112113  1  0
111114  1  0
114115  2  0
115116  1  0
116117  2  0
117118  1  0
118119  1  0
117120  1  0
116121  1  0
121122  2  3
122123  1  0
123124  2  0
123125  1  0
125126  1  0
126127  1  0
127128  1  0
127129  2  0
129130  1  0
130131  1  0
131132  2  3
132133  1  0
133134  3  0
132135  1  0
135136  3  0
 11  2  1  0
 23 17  1  0
 65 24  1  0
107 66  1  0
118108  2  0
131122  1  0
 10  5  1  0
 22 18  1  0
 34 27  1  0
 42 35  1  0
 64 43  2  0
 76 69  1  0
 84 77  1  0
106 85  2  0
115109  1  0
130125  2  0
 23  7  1  0
 55 48  1  0
 63 56  1  0
 97 90  1  0
105 98  1  0
  1137  1  0
  6138  1  0
  9139  1  0
 17140  1  0
 18141  1  0
 19142  1  0
 20143  1  0
 21144  1  0
 22145  1  0
 22146  1  0
 23147  1  0
 28148  1  0
 29149  1  0
 32150  1  0
 32151  1  0
 32152  1  0
 33153  1  0
 34154  1  0
 36155  1  0
 37156  1  0
 40157  1  0
 40158  1  0
 40159  1  0
 41160  1  0
 42161  1  0
 49162  1  0
 50163  1  0
 53164  1  0
 53165  1  0
 53166  1  0
 54167  1  0
 55168  1  0
 57169  1  0
 58170  1  0
 61171  1  0
 61172  1  0
 61173  1  0
 62174  1  0
 63175  1  0
 70176  1  0
 71177  1  0
 74178  1  0
 74179  1  0
 74180  1  0
 75181  1  0
 76182  1  0
 78183  1  0
 79184  1  0
 82185  1  0
 82186  1  0
 82187  1  0
 83188  1  0
 84189  1  0
 91190  1  0
 92191  1  0
 95192  1  0
 95193  1  0
 95194  1  0
 96195  1  0
 97196  1  0
 99197  1  0
100198  1  0
103199  1  0
103200  1  0
103201  1  0
104202  1  0
105203  1  0
112204  1  0
112205  1  0
113206  1  0
113207  1  0
113208  1  0
121209  1  0
129210  1  0
M  END

