
     RDKit          3D

215236  0  0  0  0  0  0  0  0999 V2000
   -1.1762   -2.2989   -6.4248 C   0  0  0  0  0  0  0  0  0  0  0  0
   -0.0454   -1.8636   -7.0237 C   0  0  0  0  0  0  0  0  0  0  0  0
    0.0624   -1.8694   -8.4865 C   0  0  0  0  0  0  0  0  0  0  0  0
   -0.8849   -2.0512   -9.2991 O   0  0  0  0  0  0  0  0  0  0  0  0
    1.4289   -1.6296   -8.8726 C   0  0  0  0  0  0  0  0  0  0  0  0
    1.9328   -1.4996  -10.1934 C   0  0  0  0  0  0  0  0  0  0  0  0
    3.2713   -1.1549  -10.2497 C   0  0  0  0  0  0  0  0  0  0  0  0
    4.0724   -0.9571   -9.0816 C   0  0  0  0  0  0  0  0  0  0  0  0
    3.5986   -1.1095   -7.7925 C   0  0  0  0  0  0  0  0  0  0  0  0
    2.2138   -1.4541   -7.7010 C   0  0  0  0  0  0  0  0  0  0  0  0
    1.3248   -1.5083   -6.5021 C   0  0  0  0  0  0  0  0  0  0  0  0
    1.6635   -1.0333   -5.2781 C   0  0  0  0  0  0  0  0  0  0  0  0
    3.0230   -0.9647   -4.8110 C   0  0  0  0  0  0  0  0  0  0  0  0
    4.1087   -0.9135   -4.4124 N   0  0  0  0  0  0  0  0  0  0  0  0
    0.7167   -0.4626   -4.3774 C   0  0  0  0  0  0  0  0  0  0  0  0
   -0.0180    0.0079   -3.6229 N   0  0  0  0  0  0  0  0  0  0  0  0
    5.2646   -0.6142   -9.9307 C   0  0  0  0  0  0  0  0  0  0  0  0
    6.4022   -1.6744  -10.0446 C   0  0  0  0  0  0  0  0  0  0  0  0
    5.8319   -3.0644   -9.9062 C   0  0  0  0  0  0  0  0  0  0  0  0
    5.0723   -3.2760  -10.9798 C   0  0  0  0  0  0  0  0  0  0  0  0
    5.1705   -2.0275  -11.8322 C   0  0  0  0  0  0  0  0  0  0  0  0
    6.6136   -1.6579  -11.5480 C   0  0  0  0  0  0  0  0  0  0  0  0
    4.4498   -0.8409  -11.1276 C   0  0  0  0  0  0  0  0  0  0  0  0
   -1.4440   -2.4989   -4.9957 C   0  0  0  0  0  0  0  0  0  0  0  0
   -0.6169   -3.0682   -4.0102 C   0  0  0  0  0  0  0  0  0  0  0  0
    0.4642   -3.9897   -4.3008 N   0  0  0  0  0  0  0  0  0  0  0  0
    1.3914   -4.4108   -3.2876 C   0  0  0  0  0  0  0  0  0  0  0  0
    2.7654   -4.1494   -3.4306 C   0  0  0  0  0  0  0  0  0  0  0  0
    3.6706   -4.5805   -2.4565 C   0  0  0  0  0  0  0  0  0  0  0  0
    3.2141   -5.2558   -1.3233 C   0  0  0  0  0  0  0  0  0  0  0  0
    4.3674   -5.7542   -0.0365 S   0  0  0  0  0  0  0  0  0  0  0  0
    4.4472   -4.1028    0.7307 C   0  0  0  0  0  0  0  0  0  0  0  0
    1.8580   -5.5626   -1.1925 C   0  0  0  0  0  0  0  0  0  0  0  0
    0.9515   -5.1665   -2.1853 C   0  0  0  0  0  0  0  0  0  0  0  0
    0.3139   -4.8882   -5.4174 C   0  0  0  0  0  0  0  0  0  0  0  0
   -0.8236   -5.7114   -5.4957 C   0  0  0  0  0  0  0  0  0  0  0  0
   -1.0278   -6.5281   -6.6120 C   0  0  0  0  0  0  0  0  0  0  0  0
   -0.0883   -6.5433   -7.6528 C   0  0  0  0  0  0  0  0  0  0  0  0
   -0.4052   -7.5378   -9.1154 S   0  0  0  0  0  0  0  0  0  0  0  0
    0.3796   -9.0347   -8.4255 C   0  0  0  0  0  0  0  0  0  0  0  0
    1.0455   -5.7310   -7.5783 C   0  0  0  0  0  0  0  0  0  0  0  0
    1.2531   -4.9121   -6.4566 C   0  0  0  0  0  0  0  0  0  0  0  0
   -1.1442   -2.7960   -2.7329 C   0  0  0  0  0  0  0  0  0  0  0  0
   -0.4069   -2.4562   -1.2670 S   0  0  0  0  0  0  0  0  0  0  0  0
   -1.7545   -1.7040   -0.5607 C   0  0  0  0  0  0  0  0  0  0  0  0
   -2.8232   -1.7272   -1.4725 C   0  0  0  0  0  0  0  0  0  0  0  0
   -4.2127   -1.4601   -1.1264 N   0  0  0  0  0  0  0  0  0  0  0  0
   -5.2354   -1.6465   -2.1165 C   0  0  0  0  0  0  0  0  0  0  0  0
   -5.6325   -2.9468   -2.4635 C   0  0  0  0  0  0  0  0  0  0  0  0
   -6.6485   -3.1516   -3.3997 C   0  0  0  0  0  0  0  0  0  0  0  0
   -7.2963   -2.0484   -3.9737 C   0  0  0  0  0  0  0  0  0  0  0  0
   -8.6346   -2.3051   -5.1430 S   0  0  0  0  0  0  0  0  0  0  0  0
   -9.9173   -2.3035   -3.8514 C   0  0  0  0  0  0  0  0  0  0  0  0
   -6.9192   -0.7476   -3.6206 C   0  0  0  0  0  0  0  0  0  0  0  0
   -5.8915   -0.5481   -2.6907 C   0  0  0  0  0  0  0  0  0  0  0  0
   -4.6587   -1.5284    0.2436 C   0  0  0  0  0  0  0  0  0  0  0  0
   -4.2299   -2.5731    1.0803 C   0  0  0  0  0  0  0  0  0  0  0  0
   -4.6445   -2.6293    2.4133 C   0  0  0  0  0  0  0  0  0  0  0  0
   -5.5331   -1.6677    2.9125 C   0  0  0  0  0  0  0  0  0  0  0  0
   -5.9821   -1.6777    4.6542 S   0  0  0  0  0  0  0  0  0  0  0  0
   -7.5253   -2.6049    4.3954 C   0  0  0  0  0  0  0  0  0  0  0  0
   -6.0262   -0.6706    2.0626 C   0  0  0  0  0  0  0  0  0  0  0  0
   -5.5970   -0.6070    0.7324 C   0  0  0  0  0  0  0  0  0  0  0  0
   -2.4002   -2.2672   -2.7008 C   0  0  0  0  0  0  0  0  0  0  0  0
   -2.8658   -1.9114   -4.2714 S   0  0  0  0  0  0  0  0  0  0  0  0
   -1.5998   -0.8164    0.6002 C   0  0  0  0  0  0  0  0  0  0  0  0
   -1.4734    0.5875    0.5091 C   0  0  0  0  0  0  0  0  0  0  0  0
   -2.3123    1.4251   -0.3138 N   0  0  0  0  0  0  0  0  0  0  0  0
   -1.8236    1.8466   -1.6008 C   0  0  0  0  0  0  0  0  0  0  0  0
   -2.4944    1.4721   -2.7761 C   0  0  0  0  0  0  0  0  0  0  0  0
   -2.1410    2.0301   -4.0075 C   0  0  0  0  0  0  0  0  0  0  0  0
   -1.0742    2.9311   -4.0858 C   0  0  0  0  0  0  0  0  0  0  0  0
   -0.6060    3.6452   -5.6656 S   0  0  0  0  0  0  0  0  0  0  0  0
   -1.7976    5.0170   -5.5471 C   0  0  0  0  0  0  0  0  0  0  0  0
   -0.3669    3.2718   -2.9248 C   0  0  0  0  0  0  0  0  0  0  0  0
   -0.7372    2.7337   -1.6909 C   0  0  0  0  0  0  0  0  0  0  0  0
   -3.5298    2.0133    0.2376 C   0  0  0  0  0  0  0  0  0  0  0  0
   -4.4761    2.6598   -0.5959 C   0  0  0  0  0  0  0  0  0  0  0  0
   -5.6683    3.1683   -0.0736 C   0  0  0  0  0  0  0  0  0  0  0  0
   -5.9354    3.0846    1.2911 C   0  0  0  0  0  0  0  0  0  0  0  0
   -7.5135    3.6663    1.9255 S   0  0  0  0  0  0  0  0  0  0  0  0
   -6.9764    5.4024    2.1184 C   0  0  0  0  0  0  0  0  0  0  0  0
   -4.9894    2.5142    2.1482 C   0  0  0  0  0  0  0  0  0  0  0  0
   -3.8115    1.9603    1.6261 C   0  0  0  0  0  0  0  0  0  0  0  0
   -0.6847    1.0801    1.5506 C   0  0  0  0  0  0  0  0  0  0  0  0
   -0.1065    2.5933    1.9898 S   0  0  0  0  0  0  0  0  0  0  0  0
    0.6571    2.0310    3.4121 C   0  0  0  0  0  0  0  0  0  0  0  0
    0.3967    0.6553    3.5548 C   0  0  0  0  0  0  0  0  0  0  0  0
    0.3969   -0.0181    4.8179 N   0  0  0  0  0  0  0  0  0  0  0  0
    1.2845   -1.1326    5.0825 C   0  0  0  0  0  0  0  0  0  0  0  0
    2.4293   -1.3431    4.2832 C   0  0  0  0  0  0  0  0  0  0  0  0
    3.2849   -2.4177    4.5351 C   0  0  0  0  0  0  0  0  0  0  0  0
    3.0125   -3.2961    5.5877 C   0  0  0  0  0  0  0  0  0  0  0  0
    4.1278   -4.6526    5.9479 S   0  0  0  0  0  0  0  0  0  0  0  0
    5.1823   -3.6599    7.0556 C   0  0  0  0  0  0  0  0  0  0  0  0
    1.8783   -3.1063    6.3790 C   0  0  0  0  0  0  0  0  0  0  0  0
    1.0165   -2.0361    6.1302 C   0  0  0  0  0  0  0  0  0  0  0  0
   -0.6187    0.4023    5.7532 C   0  0  0  0  0  0  0  0  0  0  0  0
   -1.9727    0.3960    5.3678 C   0  0  0  0  0  0  0  0  0  0  0  0
   -2.9421    0.9993    6.1735 C   0  0  0  0  0  0  0  0  0  0  0  0
   -2.5663    1.6275    7.3688 C   0  0  0  0  0  0  0  0  0  0  0  0
   -3.7916    2.5086    8.3405 S   0  0  0  0  0  0  0  0  0  0  0  0
   -3.6951    4.0060    7.3086 C   0  0  0  0  0  0  0  0  0  0  0  0
   -1.2308    1.5835    7.7886 C   0  0  0  0  0  0  0  0  0  0  0  0
   -0.2640    0.9558    6.9927 C   0  0  0  0  0  0  0  0  0  0  0  0
   -0.2968    0.1650    2.4622 C   0  0  0  0  0  0  0  0  0  0  0  0
   -0.8129   -1.3573    2.0110 S   0  0  0  0  0  0  0  0  0  0  0  0
    1.6571    2.7956    4.1890 C   0  0  0  0  0  0  0  0  0  0  0  0
    2.2164    4.0114    3.8097 C   0  0  0  0  0  0  0  0  0  0  0  0
    3.3851    4.3469    4.5251 C   0  0  0  0  0  0  0  0  0  0  0  0
    4.2426    5.4795    4.1111 C   0  0  0  0  0  0  0  0  0  0  0  0
    5.6163    5.2855    3.8917 C   0  0  0  0  0  0  0  0  0  0  0  0
    6.4309    6.3704    3.5531 C   0  0  0  0  0  0  0  0  0  0  0  0
    5.8804    7.6458    3.4086 C   0  0  0  0  0  0  0  0  0  0  0  0
    4.5102    7.8363    3.5941 C   0  0  0  0  0  0  0  0  0  0  0  0
    3.6910    6.7563    3.9376 C   0  0  0  0  0  0  0  0  0  0  0  0
    3.7047    3.4145    5.5234 C   0  0  0  0  0  0  0  0  0  0  0  0
    2.6079    2.1573    5.4186 S   0  0  0  0  0  0  0  0  0  0  0  0
    4.8818    3.3609    6.4083 C   0  0  0  0  0  0  0  0  0  0  0  0
    5.4603    4.4095    7.0219 C   0  0  0  0  0  0  0  0  0  0  0  0
    6.8767    4.4016    7.3975 C   0  0  0  0  0  0  0  0  0  0  0  0
    7.5838    3.3775    7.5704 O   0  0  0  0  0  0  0  0  0  0  0  0
    7.3449    5.7661    7.4243 C   0  0  0  0  0  0  0  0  0  0  0  0
    8.6723    6.2243    7.4970 C   0  0  0  0  0  0  0  0  0  0  0  0
    8.8878    7.5900    7.2810 C   0  0  0  0  0  0  0  0  0  0  0  0
   10.1348    8.2229    7.2493 C   0  0  0  0  0  0  0  0  0  0  0  0
   10.0361    9.5854    6.9568 C   0  0  0  0  0  0  0  0  0  0  0  0
    8.4071    9.9866    6.7243 S   0  0  0  0  0  0  0  0  0  0  0  0
    7.8155    8.4441    7.0079 C   0  0  0  0  0  0  0  0  0  0  0  0
    6.4931    7.9961    6.9384 C   0  0  0  0  0  0  0  0  0  0  0  0
    6.2704    6.6277    7.1776 C   0  0  0  0  0  0  0  0  0  0  0  0
    5.0180    5.8329    7.0756 C   0  0  0  0  0  0  0  0  0  0  0  0
    3.7648    6.2754    7.3259 C   0  0  0  0  0  0  0  0  0  0  0  0
    3.4703    7.6728    7.5327 C   0  0  0  0  0  0  0  0  0  0  0  0
    3.2217    8.7858    7.7117 N   0  0  0  0  0  0  0  0  0  0  0  0
    2.6670    5.3675    7.5629 C   0  0  0  0  0  0  0  0  0  0  0  0
    1.7853    4.6426    7.7556 N   0  0  0  0  0  0  0  0  0  0  0  0
   -2.0364   -2.4804   -7.0523 H   0  0  0  0  0  0  0  0  0  0  0  0
    1.3243   -1.6249  -11.0776 H   0  0  0  0  0  0  0  0  0  0  0  0
    4.2685   -0.9455   -6.9651 H   0  0  0  0  0  0  0  0  0  0  0  0
    5.6132    0.4337   -9.8063 H   0  0  0  0  0  0  0  0  0  0  0  0
    7.3020   -1.4705   -9.4264 H   0  0  0  0  0  0  0  0  0  0  0  0
    6.0454   -3.7892   -9.1244 H   0  0  0  0  0  0  0  0  0  0  0  0
    4.5629   -4.1985  -11.2217 H   0  0  0  0  0  0  0  0  0  0  0  0
    4.9202   -2.1645  -12.9030 H   0  0  0  0  0  0  0  0  0  0  0  0
    6.9076   -0.6536  -11.9400 H   0  0  0  0  0  0  0  0  0  0  0  0
    7.3549   -2.4203  -11.8932 H   0  0  0  0  0  0  0  0  0  0  0  0
    4.3220    0.0706  -11.7531 H   0  0  0  0  0  0  0  0  0  0  0  0
    3.1338   -3.6415   -4.3035 H   0  0  0  0  0  0  0  0  0  0  0  0
    4.7233   -4.3753   -2.5701 H   0  0  0  0  0  0  0  0  0  0  0  0
    5.1658   -3.4694    0.1696 H   0  0  0  0  0  0  0  0  0  0  0  0
    4.8035   -4.2033    1.7764 H   0  0  0  0  0  0  0  0  0  0  0  0
    3.4515   -3.6101    0.7491 H   0  0  0  0  0  0  0  0  0  0  0  0
    1.4964   -6.1042   -0.3260 H   0  0  0  0  0  0  0  0  0  0  0  0
   -0.0928   -5.4328   -2.0944 H   0  0  0  0  0  0  0  0  0  0  0  0
   -1.5539   -5.7089   -4.6964 H   0  0  0  0  0  0  0  0  0  0  0  0
   -1.9208   -7.1355   -6.6697 H   0  0  0  0  0  0  0  0  0  0  0  0
    1.4757   -8.8900   -8.4209 H   0  0  0  0  0  0  0  0  0  0  0  0
    0.1349   -9.9075   -9.0602 H   0  0  0  0  0  0  0  0  0  0  0  0
    0.0128   -9.2384   -7.3999 H   0  0  0  0  0  0  0  0  0  0  0  0
    1.7561   -5.7136   -8.3880 H   0  0  0  0  0  0  0  0  0  0  0  0
    2.1198   -4.2703   -6.4258 H   0  0  0  0  0  0  0  0  0  0  0  0
   -5.1416   -3.8011   -2.0133 H   0  0  0  0  0  0  0  0  0  0  0  0
   -6.9312   -4.1600   -3.6789 H   0  0  0  0  0  0  0  0  0  0  0  0
   -9.8703   -1.3597   -3.2671 H   0  0  0  0  0  0  0  0  0  0  0  0
  -10.9156   -2.3797   -4.3320 H   0  0  0  0  0  0  0  0  0  0  0  0
   -9.7717   -3.1708   -3.1741 H   0  0  0  0  0  0  0  0  0  0  0  0
   -7.4021    0.1032   -4.0776 H   0  0  0  0  0  0  0  0  0  0  0  0
   -5.6029    0.4590   -2.4299 H   0  0  0  0  0  0  0  0  0  0  0  0
   -3.5693   -3.3440    0.7048 H   0  0  0  0  0  0  0  0  0  0  0  0
   -4.2651   -3.4111    3.0598 H   0  0  0  0  0  0  0  0  0  0  0  0
   -7.3345   -3.5383    3.8304 H   0  0  0  0  0  0  0  0  0  0  0  0
   -7.9676   -2.8668    5.3800 H   0  0  0  0  0  0  0  0  0  0  0  0
   -8.2552   -1.9761    3.8392 H   0  0  0  0  0  0  0  0  0  0  0  0
   -6.7217    0.0637    2.4395 H   0  0  0  0  0  0  0  0  0  0  0  0
   -5.9774    0.1754    0.0929 H   0  0  0  0  0  0  0  0  0  0  0  0
   -3.3235    0.7777   -2.7246 H   0  0  0  0  0  0  0  0  0  0  0  0
   -2.6810    1.7421   -4.9009 H   0  0  0  0  0  0  0  0  0  0  0  0
   -2.8295    4.6326   -5.7010 H   0  0  0  0  0  0  0  0  0  0  0  0
   -1.7302    5.5086   -4.5549 H   0  0  0  0  0  0  0  0  0  0  0  0
   -1.5684    5.7654   -6.3297 H   0  0  0  0  0  0  0  0  0  0  0  0
    0.4693    3.9596   -2.9760 H   0  0  0  0  0  0  0  0  0  0  0  0
   -0.2099    3.0389   -0.7981 H   0  0  0  0  0  0  0  0  0  0  0  0
   -4.3315    2.7670   -1.6566 H   0  0  0  0  0  0  0  0  0  0  0  0
   -6.3956    3.6171   -0.7372 H   0  0  0  0  0  0  0  0  0  0  0  0
   -6.6683    5.5883    3.1714 H   0  0  0  0  0  0  0  0  0  0  0  0
   -6.1383    5.6549    1.4394 H   0  0  0  0  0  0  0  0  0  0  0  0
   -7.8336    6.0653    1.8673 H   0  0  0  0  0  0  0  0  0  0  0  0
   -5.1813    2.4532    3.2126 H   0  0  0  0  0  0  0  0  0  0  0  0
   -3.1378    1.4793    2.3207 H   0  0  0  0  0  0  0  0  0  0  0  0
    2.6758   -0.6621    3.4792 H   0  0  0  0  0  0  0  0  0  0  0  0
    4.1552   -2.5654    3.9124 H   0  0  0  0  0  0  0  0  0  0  0  0
    5.8605   -3.0249    6.4434 H   0  0  0  0  0  0  0  0  0  0  0  0
    4.5661   -3.0175    7.7203 H   0  0  0  0  0  0  0  0  0  0  0  0
    5.7885   -4.3465    7.6834 H   0  0  0  0  0  0  0  0  0  0  0  0
    1.6632   -3.7842    7.1952 H   0  0  0  0  0  0  0  0  0  0  0  0
    0.1404   -1.9210    6.7542 H   0  0  0  0  0  0  0  0  0  0  0  0
   -2.2725   -0.0342    4.4202 H   0  0  0  0  0  0  0  0  0  0  0  0
   -3.9735    1.0145    5.8497 H   0  0  0  0  0  0  0  0  0  0  0  0
   -4.2437    4.8297    7.8058 H   0  0  0  0  0  0  0  0  0  0  0  0
   -4.1639    3.8092    6.3226 H   0  0  0  0  0  0  0  0  0  0  0  0
   -2.6426    4.3144    7.1628 H   0  0  0  0  0  0  0  0  0  0  0  0
   -0.9376    2.0501    8.7181 H   0  0  0  0  0  0  0  0  0  0  0  0
    0.7667    0.9543    7.3156 H   0  0  0  0  0  0  0  0  0  0  0  0
    1.8621    4.5822    2.9626 H   0  0  0  0  0  0  0  0  0  0  0  0
    6.0606    4.3011    3.9917 H   0  0  0  0  0  0  0  0  0  0  0  0
    7.4944    6.2148    3.4018 H   0  0  0  0  0  0  0  0  0  0  0  0
    6.5154    8.4829    3.1524 H   0  0  0  0  0  0  0  0  0  0  0  0
    4.0786    8.8258    3.4813 H   0  0  0  0  0  0  0  0  0  0  0  0
    2.6341    6.9249    4.1059 H   0  0  0  0  0  0  0  0  0  0  0  0
    5.3648    2.3945    6.4811 H   0  0  0  0  0  0  0  0  0  0  0  0
    9.4927    5.5354    7.6410 H   0  0  0  0  0  0  0  0  0  0  0  0
   11.0752    7.7163    7.4212 H   0  0  0  0  0  0  0  0  0  0  0  0
   10.8676   10.2680    6.8673 H   0  0  0  0  0  0  0  0  0  0  0  0
    5.7028    8.6744    6.6572 H   0  0  0  0  0  0  0  0  0  0  0  0
  1  2  2  3
  2  3  1  0
  3  4  2  0
  3  5  1  0
  5  6  2  0
  6  7  1  0
  7  8  2  0
  8  9  1  0
  9 10  2  0
 10 11  1  0
 11 12  2  3
 12 13  1  0
 13 14  3  0
 12 15  1  0
 15 16  3  0
  8 17  1  0
 17 18  1  0
 18 19  1  0
 19 20  2  0
 20 21  1  0
 21 22  1  0
 21 23  1  0
  1 24  1  0
 24 25  2  0
 25 26  1  0
 26 27  1  0
 27 28  2  0
 28 29  1  0
 29 30  2  0
 30 31  1  0
 31 32  1  0
 30 33  1  0
 33 34  2  0
 26 35  1  0
 35 36  2  0
 36 37  1  0
 37 38  2  0
 38 39  1  0
 39 40  1  0
 38 41  1  0
 41 42  2  0
 25 43  1  0
 43 44  1  0
 44 45  1  0
 45 46  2  0
 46 47  1  0
 47 48  1  0
 48 49  2  0
 49 50  1  0
 50 51  2  0
 51 52  1  0
 52 53  1  0
 51 54  1  0
 54 55  2  0
 47 56  1  0
 56 57  2  0
 57 58  1  0
 58 59  2  0
 59 60  1  0
 60 61  1  0
 59 62  1  0
 62 63  2  0
 46 64  1  0
 64 65  1  0
 45 66  1  0
 66 67  2  0
 67 68  1  0
 68 69  1  0
 69 70  2  0
 70 71  1  0
 71 72  2  0
 72 73  1  0
 73 74  1  0
 72 75  1  0
 75 76  2  0
 68 77  1  0
 77 78  2  0
 78 79  1  0
 79 80  2  0
 80 81  1  0
 81 82  1  0
 80 83  1  0
 83 84  2  0
 67 85  1  0
 85 86  1  0
 86 87  1  0
 87 88  2  0
 88 89  1  0
 89 90  1  0
 90 91  2  0
 91 92  1  0
 92 93  2  0
 93 94  1  0
 94 95  1  0
 93 96  1  0
 96 97  2  0
 89 98  1  0
 98 99  2  0
 99100  1  0
100101  2  0
101102  1  0
102103  1  0
101104  1  0
104105  2  0
 88106  1  0
106107  1  0
 87108  1  0
108109  2  0
109110  1  0
110111  1  0
111112  2  0
112113  1  0
113114  2  0
114115  1  0
115116  2  0
110117  2  0
117118  1  0
117119  1  0
119120  2  3
120121  1  0
121122  2  0
121123  1  0
123124  2  0
124125  1  0
125126  1  0
126127  2  0
127128  1  0
128129  1  0
129130  1  0
130131  2  0
131132  1  0
132133  2  3
133134  1  0
134135  3  0
133136  1  0
136137  3  0
 11  2  1  0
 23 17  1  0
 65 24  1  0
107 66  1  0
118108  1  0
132120  1  0
 10  5  1  0
 22 18  1  0
 34 27  1  0
 42 35  1  0
 64 43  2  0
 76 69  1  0
 84 77  1  0
106 85  2  0
116111  1  0
131123  1  0
 23  7  1  0
 55 48  1  0
 63 56  1  0
 97 90  1  0
105 98  1  0
129125  2  0
  1138  1  0
  6139  1  0
  9140  1  0
 17141  1  0
 18142  1  0
 19143  1  0
 20144  1  0
 21145  1  0
 22146  1  0
 22147  1  0
 23148  1  0
 28149  1  0
 29150  1  0
 32151  1  0
 32152  1  0
 32153  1  0
 33154  1  0
 34155  1  0
 36156  1  0
 37157  1  0
 40158  1  0
 40159  1  0
 40160  1  0
 41161  1  0
 42162  1  0
 49163  1  0
 50164  1  0
 53165  1  0
 53166  1  0
 53167  1  0
 54168  1  0
 55169  1  0
 57170  1  0
 58171  1  0
 61172  1  0
 61173  1  0
 61174  1  0
 62175  1  0
 63176  1  0
 70177  1  0
 71178  1  0
 74179  1  0
 74180  1  0
 74181  1  0
 75182  1  0
 76183  1  0
 78184  1  0
 79185  1  0
 82186  1  0
 82187  1  0
 82188  1  0
 83189  1  0
 84190  1  0
 91191  1  0
 92192  1  0
 95193  1  0
 95194  1  0
 95195  1  0
 96196  1  0
 97197  1  0
 99198  1  0
100199  1  0
103200  1  0
103201  1  0
103202  1  0
104203  1  0
105204  1  0
109205  1  0
112206  1  0
113207  1  0
114208  1  0
115209  1  0
116210  1  0
119211  1  0
124212  1  0
126213  1  0
127214  1  0
130215  1  0
M  END

