
     RDKit          3D

243267  0  0  0  0  0  0  0  0999 V2000
    0.3712    5.1662   -0.3986 C   0  0  0  0  0  0  0  0  0  0  0  0
    1.3403    4.3500   -0.8774 C   0  0  0  0  0  0  0  0  0  0  0  0
    1.1895    2.8995   -1.0732 C   0  0  0  0  0  0  0  0  0  0  0  0
    0.4665    2.1266   -0.3858 O   0  0  0  0  0  0  0  0  0  0  0  0
    2.0093    2.4856   -2.1838 C   0  0  0  0  0  0  0  0  0  0  0  0
    1.9464    1.2487   -2.8664 C   0  0  0  0  0  0  0  0  0  0  0  0
    2.7016    1.2104   -4.0214 C   0  0  0  0  0  0  0  0  0  0  0  0
    3.4828    2.3203   -4.4829 C   0  0  0  0  0  0  0  0  0  0  0  0
    3.5371    3.5394   -3.8227 C   0  0  0  0  0  0  0  0  0  0  0  0
    2.7710    3.5983   -2.6253 C   0  0  0  0  0  0  0  0  0  0  0  0
    2.4916    4.7614   -1.7344 C   0  0  0  0  0  0  0  0  0  0  0  0
    3.2340    5.8910   -1.6062 C   0  0  0  0  0  0  0  0  0  0  0  0
    2.9483    6.8806   -0.6014 C   0  0  0  0  0  0  0  0  0  0  0  0
    2.7263    7.6858    0.2012 N   0  0  0  0  0  0  0  0  0  0  0  0
    4.4336    6.1112   -2.3675 C   0  0  0  0  0  0  0  0  0  0  0  0
    5.3960    6.2920   -2.9844 N   0  0  0  0  0  0  0  0  0  0  0  0
    3.9314    1.5255   -5.6750 C   0  0  0  0  0  0  0  0  0  0  0  0
    3.2842    1.9007   -7.0383 C   0  0  0  0  0  0  0  0  0  0  0  0
    3.5654    0.7425   -7.9671 C   0  0  0  0  0  0  0  0  0  0  0  0
    2.8159   -0.2811   -7.5420 C   0  0  0  0  0  0  0  0  0  0  0  0
    2.0597    0.2188   -6.3347 C   0  0  0  0  0  0  0  0  0  0  0  0
    1.8081    1.6444   -6.7938 C   0  0  0  0  0  0  0  0  0  0  0  0
    3.1199    0.3957   -5.2080 C   0  0  0  0  0  0  0  0  0  0  0  0
   -1.0049    4.6694   -0.2458 C   0  0  0  0  0  0  0  0  0  0  0  0
   -1.7218    4.1888   -1.3493 C   0  0  0  0  0  0  0  0  0  0  0  0
   -1.6301    4.7888   -2.6640 N   0  0  0  0  0  0  0  0  0  0  0  0
   -1.9138    4.0418   -3.8602 C   0  0  0  0  0  0  0  0  0  0  0  0
   -2.9087    4.4829   -4.7513 C   0  0  0  0  0  0  0  0  0  0  0  0
   -3.2100    3.7387   -5.8932 C   0  0  0  0  0  0  0  0  0  0  0  0
   -2.5077    2.5594   -6.1667 C   0  0  0  0  0  0  0  0  0  0  0  0
   -2.9452    1.5608   -7.5884 S   0  0  0  0  0  0  0  0  0  0  0  0
   -1.8790    2.4855   -8.7301 C   0  0  0  0  0  0  0  0  0  0  0  0
   -1.5025    2.1260   -5.2928 C   0  0  0  0  0  0  0  0  0  0  0  0
   -1.2020    2.8701   -4.1517 C   0  0  0  0  0  0  0  0  0  0  0  0
   -1.4740    6.2196   -2.7547 C   0  0  0  0  0  0  0  0  0  0  0  0
   -0.5064    6.7760   -3.6067 C   0  0  0  0  0  0  0  0  0  0  0  0
   -0.3223    8.1625   -3.6544 C   0  0  0  0  0  0  0  0  0  0  0  0
   -1.1097    9.0036   -2.8592 C   0  0  0  0  0  0  0  0  0  0  0  0
   -0.8984   10.7799   -2.9510 S   0  0  0  0  0  0  0  0  0  0  0  0
    0.2461   10.8568   -1.5377 C   0  0  0  0  0  0  0  0  0  0  0  0
   -2.0788    8.4562   -2.0104 C   0  0  0  0  0  0  0  0  0  0  0  0
   -2.2574    7.0727   -1.9550 C   0  0  0  0  0  0  0  0  0  0  0  0
   -2.6208    3.1834   -0.9802 C   0  0  0  0  0  0  0  0  0  0  0  0
   -3.0432    1.7737   -1.7637 S   0  0  0  0  0  0  0  0  0  0  0  0
   -3.4802    0.8801   -0.3849 C   0  0  0  0  0  0  0  0  0  0  0  0
   -3.3111    1.7327    0.7321 C   0  0  0  0  0  0  0  0  0  0  0  0
   -3.8552    1.4749    2.0477 N   0  0  0  0  0  0  0  0  0  0  0  0
   -5.1161    0.7856    2.2033 C   0  0  0  0  0  0  0  0  0  0  0  0
   -5.3565    0.0153    3.3562 C   0  0  0  0  0  0  0  0  0  0  0  0
   -6.5868   -0.6202    3.5388 C   0  0  0  0  0  0  0  0  0  0  0  0
   -7.5903   -0.4929    2.5703 C   0  0  0  0  0  0  0  0  0  0  0  0
   -9.1889   -1.2614    2.8266 S   0  0  0  0  0  0  0  0  0  0  0  0
   -9.9207    0.2516    3.5277 C   0  0  0  0  0  0  0  0  0  0  0  0
   -7.3587    0.2613    1.4170 C   0  0  0  0  0  0  0  0  0  0  0  0
   -6.1367    0.9098    1.2397 C   0  0  0  0  0  0  0  0  0  0  0  0
   -3.4121    2.2764    3.1534 C   0  0  0  0  0  0  0  0  0  0  0  0
   -4.1444    3.4147    3.5271 C   0  0  0  0  0  0  0  0  0  0  0  0
   -3.7080    4.2175    4.5828 C   0  0  0  0  0  0  0  0  0  0  0  0
   -2.5469    3.8737    5.2858 C   0  0  0  0  0  0  0  0  0  0  0  0
   -2.0239    4.8673    6.6823 S   0  0  0  0  0  0  0  0  0  0  0  0
   -3.1162    4.0004    7.8545 C   0  0  0  0  0  0  0  0  0  0  0  0
   -1.8044    2.7478    4.9076 C   0  0  0  0  0  0  0  0  0  0  0  0
   -2.2364    1.9468    3.8437 C   0  0  0  0  0  0  0  0  0  0  0  0
   -2.7359    2.9619    0.3611 C   0  0  0  0  0  0  0  0  0  0  0  0
   -1.5880    3.9102    1.1534 S   0  0  0  0  0  0  0  0  0  0  0  0
   -3.4460   -0.6123   -0.3307 C   0  0  0  0  0  0  0  0  0  0  0  0
   -3.1153   -1.4664   -1.4174 C   0  0  0  0  0  0  0  0  0  0  0  0
   -3.4356   -1.2195   -2.8116 N   0  0  0  0  0  0  0  0  0  0  0  0
   -4.6129   -0.4748   -3.2053 C   0  0  0  0  0  0  0  0  0  0  0  0
   -4.5874    0.2655   -4.3998 C   0  0  0  0  0  0  0  0  0  0  0  0
   -5.6763    1.0554   -4.7718 C   0  0  0  0  0  0  0  0  0  0  0  0
   -6.8223    1.0844   -3.9694 C   0  0  0  0  0  0  0  0  0  0  0  0
   -8.2214    2.1029   -4.4467 S   0  0  0  0  0  0  0  0  0  0  0  0
   -8.9533    0.8209   -5.5119 C   0  0  0  0  0  0  0  0  0  0  0  0
   -6.8756    0.3244   -2.7949 C   0  0  0  0  0  0  0  0  0  0  0  0
   -5.7811   -0.4602   -2.4139 C   0  0  0  0  0  0  0  0  0  0  0  0
   -2.8069   -2.0230   -3.8221 C   0  0  0  0  0  0  0  0  0  0  0  0
   -1.4797   -1.7730   -4.2092 C   0  0  0  0  0  0  0  0  0  0  0  0
   -0.8151   -2.6687   -5.0500 C   0  0  0  0  0  0  0  0  0  0  0  0
   -1.4736   -3.8176   -5.5142 C   0  0  0  0  0  0  0  0  0  0  0  0
   -0.5670   -5.0455   -6.4545 S   0  0  0  0  0  0  0  0  0  0  0  0
    0.0181   -5.9161   -4.9669 C   0  0  0  0  0  0  0  0  0  0  0  0
   -2.8211   -4.0336   -5.1877 C   0  0  0  0  0  0  0  0  0  0  0  0
   -3.4858   -3.1400   -4.3462 C   0  0  0  0  0  0  0  0  0  0  0  0
   -2.5238   -2.6564   -0.9550 C   0  0  0  0  0  0  0  0  0  0  0  0
   -1.3461   -3.6697   -1.5978 S   0  0  0  0  0  0  0  0  0  0  0  0
   -0.8799   -4.3862   -0.1292 C   0  0  0  0  0  0  0  0  0  0  0  0
   -1.6858   -3.8342    0.8817 C   0  0  0  0  0  0  0  0  0  0  0  0
   -1.8837   -4.4544    2.1637 N   0  0  0  0  0  0  0  0  0  0  0  0
   -1.5263   -3.7647    3.3798 C   0  0  0  0  0  0  0  0  0  0  0  0
   -0.3949   -2.9284    3.4261 C   0  0  0  0  0  0  0  0  0  0  0  0
   -0.0508   -2.2825    4.6193 C   0  0  0  0  0  0  0  0  0  0  0  0
   -0.8334   -2.4562    5.7668 C   0  0  0  0  0  0  0  0  0  0  0  0
   -0.4270   -1.5829    7.2784 S   0  0  0  0  0  0  0  0  0  0  0  0
   -1.4583   -0.1527    6.8418 C   0  0  0  0  0  0  0  0  0  0  0  0
   -1.9597   -3.2808    5.7278 C   0  0  0  0  0  0  0  0  0  0  0  0
   -2.3067   -3.9259    4.5397 C   0  0  0  0  0  0  0  0  0  0  0  0
   -2.5305   -5.7476    2.1958 C   0  0  0  0  0  0  0  0  0  0  0  0
   -3.6125   -6.0240    1.3370 C   0  0  0  0  0  0  0  0  0  0  0  0
   -4.1953   -7.2942    1.3192 C   0  0  0  0  0  0  0  0  0  0  0  0
   -3.7051   -8.3035    2.1543 C   0  0  0  0  0  0  0  0  0  0  0  0
   -4.4243   -9.9444    2.0849 S   0  0  0  0  0  0  0  0  0  0  0  0
   -5.6844   -9.5838    3.3472 C   0  0  0  0  0  0  0  0  0  0  0  0
   -2.6414   -8.0348    3.0235 C   0  0  0  0  0  0  0  0  0  0  0  0
   -2.0620   -6.7616    3.0522 C   0  0  0  0  0  0  0  0  0  0  0  0
   -2.5276   -2.8375    0.3931 C   0  0  0  0  0  0  0  0  0  0  0  0
   -3.1213   -1.4624    1.1190 S   0  0  0  0  0  0  0  0  0  0  0  0
    0.5145   -4.7999    0.1285 C   0  0  0  0  0  0  0  0  0  0  0  0
    0.9564   -5.3891    1.3141 C   0  0  0  0  0  0  0  0  0  0  0  0
    2.3114   -5.1499    1.5943 C   0  0  0  0  0  0  0  0  0  0  0  0
    2.9679   -5.4710    2.8015 C   0  0  0  0  0  0  0  0  0  0  0  0
    2.2746   -6.1742    3.8975 C   0  0  0  0  0  0  0  0  0  0  0  0
    2.0257   -5.5427    5.4391 S   0  0  0  0  0  0  0  0  0  0  0  0
    1.2295   -6.8845    6.0625 C   0  0  0  0  0  0  0  0  0  0  0  0
    0.8340   -7.0396    7.5001 C   0  0  0  0  0  0  0  0  0  0  0  0
    1.9953   -7.5969    8.3160 C   0  0  0  0  0  0  0  0  0  0  0  0
    1.1573   -7.8583    5.0682 C   0  0  0  0  0  0  0  0  0  0  0  0
    0.4521   -9.4479    5.3221 Cl  0  0  0  0  0  0  0  0  0  0  0  0
    1.7313   -7.4554    3.8512 C   0  0  0  0  0  0  0  0  0  0  0  0
    1.8247   -8.5025    2.4406 Cl  0  0  0  0  0  0  0  0  0  0  0  0
    4.2686   -4.9695    2.9681 C   0  0  0  0  0  0  0  0  0  0  0  0
    4.9054   -4.1912    1.9960 C   0  0  0  0  0  0  0  0  0  0  0  0
    4.2627   -3.8922    0.7761 C   0  0  0  0  0  0  0  0  0  0  0  0
    4.8876   -3.0028   -0.2232 C   0  0  0  0  0  0  0  0  0  0  0  0
    4.3172   -1.4708   -0.6397 S   0  0  0  0  0  0  0  0  0  0  0  0
    5.6049   -1.0671   -1.6477 C   0  0  0  0  0  0  0  0  0  0  0  0
    5.7476    0.2369   -2.3721 C   0  0  0  0  0  0  0  0  0  0  0  0
    6.6369    1.2120   -1.6092 C   0  0  0  0  0  0  0  0  0  0  0  0
    6.5128   -2.1257   -1.6586 C   0  0  0  0  0  0  0  0  0  0  0  0
    6.1109   -3.2080   -0.8594 C   0  0  0  0  0  0  0  0  0  0  0  0
    7.0501   -4.6891   -0.7045 Cl  0  0  0  0  0  0  0  0  0  0  0  0
    8.0146   -2.1084   -2.5727 Cl  0  0  0  0  0  0  0  0  0  0  0  0
    2.9540   -4.3852    0.6145 C   0  0  0  0  0  0  0  0  0  0  0  0
    1.8345   -4.0162   -0.5849 S   0  0  0  0  0  0  0  0  0  0  0  0
    6.1401   -3.6804    2.4290 C   0  0  0  0  0  0  0  0  0  0  0  0
    6.4572   -4.0586    3.7312 C   0  0  0  0  0  0  0  0  0  0  0  0
    5.2436   -5.0523    4.3399 S   0  0  0  0  0  0  0  0  0  0  0  0
    7.6080   -3.5866    4.5107 C   0  0  0  0  0  0  0  0  0  0  0  0
    7.8647   -2.2824    4.7315 C   0  0  0  0  0  0  0  0  0  0  0  0
    7.0893   -1.1479    4.2094 C   0  0  0  0  0  0  0  0  0  0  0  0
    5.8996   -1.1768    3.7911 O   0  0  0  0  0  0  0  0  0  0  0  0
    7.8947    0.0464    4.3299 C   0  0  0  0  0  0  0  0  0  0  0  0
    7.6195    1.3151    3.8266 C   0  0  0  0  0  0  0  0  0  0  0  0
    8.5945    2.3181    3.9663 C   0  0  0  0  0  0  0  0  0  0  0  0
    8.3598    3.6091    3.4666 C   0  0  0  0  0  0  0  0  0  0  0  0
    9.3400    4.5979    3.5931 C   0  0  0  0  0  0  0  0  0  0  0  0
    9.1068    5.8436    3.1107 F   0  0  0  0  0  0  0  0  0  0  0  0
   10.5608    4.3043    4.2124 C   0  0  0  0  0  0  0  0  0  0  0  0
   11.5067    5.2691    4.3328 F   0  0  0  0  0  0  0  0  0  0  0  0
   10.8130    3.0221    4.7109 C   0  0  0  0  0  0  0  0  0  0  0  0
    9.8372    2.0192    4.5989 C   0  0  0  0  0  0  0  0  0  0  0  0
   10.0826    0.7208    5.0953 C   0  0  0  0  0  0  0  0  0  0  0  0
    9.0794   -0.2562    4.9775 C   0  0  0  0  0  0  0  0  0  0  0  0
    9.0740   -1.6908    5.3866 C   0  0  0  0  0  0  0  0  0  0  0  0
    9.8282   -2.2518    6.3664 C   0  0  0  0  0  0  0  0  0  0  0  0
   10.8146   -1.5045    7.0996 C   0  0  0  0  0  0  0  0  0  0  0  0
   11.6022   -0.9107    7.7036 N   0  0  0  0  0  0  0  0  0  0  0  0
    9.5810   -3.5755    6.8710 C   0  0  0  0  0  0  0  0  0  0  0  0
    9.3915   -4.6404    7.2875 N   0  0  0  0  0  0  0  0  0  0  0  0
    0.4836    6.2380   -0.4420 H   0  0  0  0  0  0  0  0  0  0  0  0
    1.3290    0.4190   -2.5423 H   0  0  0  0  0  0  0  0  0  0  0  0
    4.0735    4.3729   -4.2474 H   0  0  0  0  0  0  0  0  0  0  0  0
    5.0271    1.3256   -5.6948 H   0  0  0  0  0  0  0  0  0  0  0  0
    3.5430    2.9043   -7.4382 H   0  0  0  0  0  0  0  0  0  0  0  0
    4.1586    0.7622   -8.8727 H   0  0  0  0  0  0  0  0  0  0  0  0
    2.6995   -1.2367   -8.0419 H   0  0  0  0  0  0  0  0  0  0  0  0
    1.1550   -0.3653   -6.0636 H   0  0  0  0  0  0  0  0  0  0  0  0
    1.2000    1.7039   -7.7239 H   0  0  0  0  0  0  0  0  0  0  0  0
    1.3522    2.3030   -6.0201 H   0  0  0  0  0  0  0  0  0  0  0  0
    3.6965   -0.5193   -4.9398 H   0  0  0  0  0  0  0  0  0  0  0  0
   -3.4645    5.3901   -4.5464 H   0  0  0  0  0  0  0  0  0  0  0  0
   -3.9934    4.0766   -6.5600 H   0  0  0  0  0  0  0  0  0  0  0  0
   -0.8445    2.5319   -8.3377 H   0  0  0  0  0  0  0  0  0  0  0  0
   -2.2680    3.5183   -8.8511 H   0  0  0  0  0  0  0  0  0  0  0  0
   -1.8697    1.9743   -9.7104 H   0  0  0  0  0  0  0  0  0  0  0  0
   -0.9726    1.2022   -5.4847 H   0  0  0  0  0  0  0  0  0  0  0  0
   -0.4431    2.5199   -3.4713 H   0  0  0  0  0  0  0  0  0  0  0  0
    0.1163    6.1320   -4.2185 H   0  0  0  0  0  0  0  0  0  0  0  0
    0.4313    8.5813   -4.3124 H   0  0  0  0  0  0  0  0  0  0  0  0
    0.5604   11.9086   -1.3760 H   0  0  0  0  0  0  0  0  0  0  0  0
    1.1469   10.2410   -1.7415 H   0  0  0  0  0  0  0  0  0  0  0  0
   -0.2600   10.4900   -0.6196 H   0  0  0  0  0  0  0  0  0  0  0  0
   -2.6890    9.1010   -1.3889 H   0  0  0  0  0  0  0  0  0  0  0  0
   -3.0083    6.6647   -1.2858 H   0  0  0  0  0  0  0  0  0  0  0  0
   -4.5868   -0.0939    4.1096 H   0  0  0  0  0  0  0  0  0  0  0  0
   -6.7619   -1.2079    4.4311 H   0  0  0  0  0  0  0  0  0  0  0  0
  -10.9545    0.0336    3.8665 H   0  0  0  0  0  0  0  0  0  0  0  0
   -9.3231    0.6048    4.3953 H   0  0  0  0  0  0  0  0  0  0  0  0
   -9.9553    1.0442    2.7522 H   0  0  0  0  0  0  0  0  0  0  0  0
   -8.1348    0.3669    0.6682 H   0  0  0  0  0  0  0  0  0  0  0  0
   -5.9977    1.5214    0.3597 H   0  0  0  0  0  0  0  0  0  0  0  0
   -5.0454    3.6827    2.9906 H   0  0  0  0  0  0  0  0  0  0  0  0
   -4.2792    5.0946    4.8644 H   0  0  0  0  0  0  0  0  0  0  0  0
   -3.0191    4.4623    8.8578 H   0  0  0  0  0  0  0  0  0  0  0  0
   -2.8357    2.9290    7.9173 H   0  0  0  0  0  0  0  0  0  0  0  0
   -4.1736    4.0904    7.5233 H   0  0  0  0  0  0  0  0  0  0  0  0
   -0.8901    2.5036    5.4341 H   0  0  0  0  0  0  0  0  0  0  0  0
   -1.6584    1.0804    3.5468 H   0  0  0  0  0  0  0  0  0  0  0  0
   -3.7055    0.2510   -5.0262 H   0  0  0  0  0  0  0  0  0  0  0  0
   -5.6268    1.6439   -5.6807 H   0  0  0  0  0  0  0  0  0  0  0  0
   -9.2735   -0.0486   -4.8988 H   0  0  0  0  0  0  0  0  0  0  0  0
   -9.8368    1.2451   -6.0307 H   0  0  0  0  0  0  0  0  0  0  0  0
   -8.2163    0.4881   -6.2751 H   0  0  0  0  0  0  0  0  0  0  0  0
   -7.7639    0.3431   -2.1747 H   0  0  0  0  0  0  0  0  0  0  0  0
   -5.8500   -1.0484   -1.5061 H   0  0  0  0  0  0  0  0  0  0  0  0
   -0.9498   -0.9191   -3.8040 H   0  0  0  0  0  0  0  0  0  0  0  0
    0.2252   -2.5050   -5.2966 H   0  0  0  0  0  0  0  0  0  0  0  0
    0.7025   -6.7358   -5.2619 H   0  0  0  0  0  0  0  0  0  0  0  0
    0.5776   -5.2176   -4.3081 H   0  0  0  0  0  0  0  0  0  0  0  0
   -0.8408   -6.3412   -4.4057 H   0  0  0  0  0  0  0  0  0  0  0  0
   -3.3383   -4.9176   -5.5466 H   0  0  0  0  0  0  0  0  0  0  0  0
   -4.5107   -3.3396   -4.0497 H   0  0  0  0  0  0  0  0  0  0  0  0
    0.2277   -2.7863    2.5513 H   0  0  0  0  0  0  0  0  0  0  0  0
    0.8223   -1.6415    4.6477 H   0  0  0  0  0  0  0  0  0  0  0  0
   -2.5279   -0.4470    6.7916 H   0  0  0  0  0  0  0  0  0  0  0  0
   -1.3318    0.6469    7.6003 H   0  0  0  0  0  0  0  0  0  0  0  0
   -1.1401    0.2262    5.8534 H   0  0  0  0  0  0  0  0  0  0  0  0
   -2.5800   -3.4060    6.6069 H   0  0  0  0  0  0  0  0  0  0  0  0
   -3.1952   -4.5438    4.5253 H   0  0  0  0  0  0  0  0  0  0  0  0
   -4.0063   -5.2553    0.6838 H   0  0  0  0  0  0  0  0  0  0  0  0
   -5.0233   -7.4926    0.6475 H   0  0  0  0  0  0  0  0  0  0  0  0
   -6.2654   -8.6788    3.0663 H   0  0  0  0  0  0  0  0  0  0  0  0
   -6.3814  -10.4446    3.4181 H   0  0  0  0  0  0  0  0  0  0  0  0
   -5.1963   -9.4288    4.3328 H   0  0  0  0  0  0  0  0  0  0  0  0
   -2.2567   -8.8141    3.6668 H   0  0  0  0  0  0  0  0  0  0  0  0
   -1.2325   -6.5756    3.7233 H   0  0  0  0  0  0  0  0  0  0  0  0
    0.2956   -5.8707    2.0095 H   0  0  0  0  0  0  0  0  0  0  0  0
   -0.0428   -7.7154    7.5867 H   0  0  0  0  0  0  0  0  0  0  0  0
    0.5412   -6.0471    7.9064 H   0  0  0  0  0  0  0  0  0  0  0  0
    2.8624   -6.9044    8.2714 H   0  0  0  0  0  0  0  0  0  0  0  0
    1.6832   -7.7124    9.3760 H   0  0  0  0  0  0  0  0  0  0  0  0
    2.2988   -8.5908    7.9250 H   0  0  0  0  0  0  0  0  0  0  0  0
    4.7503    0.6957   -2.4806 H   0  0  0  0  0  0  0  0  0  0  0  0
    6.1636    0.0638   -3.3892 H   0  0  0  0  0  0  0  0  0  0  0  0
    7.6573    0.7884   -1.4889 H   0  0  0  0  0  0  0  0  0  0  0  0
    6.7135    2.1615   -2.1795 H   0  0  0  0  0  0  0  0  0  0  0  0
    6.1994    1.4287   -0.6093 H   0  0  0  0  0  0  0  0  0  0  0  0
    6.7610   -3.0121    1.8470 H   0  0  0  0  0  0  0  0  0  0  0  0
    8.2738   -4.3493    4.8779 H   0  0  0  0  0  0  0  0  0  0  0  0
    6.6796    1.5104    3.3211 H   0  0  0  0  0  0  0  0  0  0  0  0
    7.4201    3.8487    2.9766 H   0  0  0  0  0  0  0  0  0  0  0  0
   11.7661    2.8131    5.1847 H   0  0  0  0  0  0  0  0  0  0  0  0
   11.0476    0.4864    5.5209 H   0  0  0  0  0  0  0  0  0  0  0  0
  1  2  2  3
  2  3  1  0
  3  4  2  0
  3  5  1  0
  5  6  2  0
  6  7  1  0
  7  8  2  0
  8  9  1  0
  9 10  2  0
 10 11  1  0
 11 12  2  3
 12 13  1  0
 13 14  3  0
 12 15  1  0
 15 16  3  0
  8 17  1  0
 17 18  1  0
 18 19  1  0
 19 20  2  0
 20 21  1  0
 21 22  1  0
 21 23  1  0
  1 24  1  0
 24 25  2  0
 25 26  1  0
 26 27  1  0
 27 28  2  0
 28 29  1  0
 29 30  2  0
 30 31  1  0
 31 32  1  0
 30 33  1  0
 33 34  2  0
 26 35  1  0
 35 36  2  0
 36 37  1  0
 37 38  2  0
 38 39  1  0
 39 40  1  0
 38 41  1  0
 41 42  2  0
 25 43  1  0
 43 44  1  0
 44 45  1  0
 45 46  2  0
 46 47  1  0
 47 48  1  0
 48 49  2  0
 49 50  1  0
 50 51  2  0
 51 52  1  0
 52 53  1  0
 51 54  1  0
 54 55  2  0
 47 56  1  0
 56 57  2  0
 57 58  1  0
 58 59  2  0
 59 60  1  0
 60 61  1  0
 59 62  1  0
 62 63  2  0
 46 64  1  0
 64 65  1  0
 45 66  1  0
 66 67  2  0
 67 68  1  0
 68 69  1  0
 69 70  2  0
 70 71  1  0
 71 72  2  0
 72 73  1  0
 73 74  1  0
 72 75  1  0
 75 76  2  0
 68 77  1  0
 77 78  2  0
 78 79  1  0
 79 80  2  0
 80 81  1  0
 81 82  1  0
 80 83  1  0
 83 84  2  0
 67 85  1  0
 85 86  1  0
 86 87  1  0
 87 88  2  0
 88 89  1  0
 89 90  1  0
 90 91  2  0
 91 92  1  0
 92 93  2  0
 93 94  1  0
 94 95  1  0
 93 96  1  0
 96 97  2  0
 89 98  1  0
 98 99  2  0
 99100  1  0
100101  2  0
101102  1  0
102103  1  0
101104  1  0
104105  2  0
 88106  1  0
106107  1  0
 87108  1  0
108109  2  0
109110  1  0
110111  2  0
111112  1  0
112113  1  0
113114  1  0
114115  1  0
115116  1  0
114117  2  0
117118  1  0
117119  1  0
119120  1  0
111121  1  0
121122  2  0
122123  1  0
123124  1  0
124125  1  0
125126  1  0
126127  1  0
127128  1  0
126129  2  0
129130  1  0
130131  1  0
129132  1  0
123133  2  0
133134  1  0
122135  1  0
135136  2  0
136137  1  0
136138  1  0
138139  2  3
139140  1  0
140141  2  0
140142  1  0
142143  2  0
143144  1  0
144145  2  0
145146  1  0
146147  1  0
146148  2  0
148149  1  0
148150  1  0
150151  2  0
151152  1  0
152153  2  0
153154  1  0
154155  2  3
155156  1  0
156157  3  0
155158  1  0
158159  3  0
 11  2  1  0
 23 17  1  0
 65 24  1  0
107 66  1  0
134108  1  0
154139  1  0
 10  5  1  0
 22 18  1  0
 34 27  1  0
 42 35  1  0
 64 43  2  0
 76 69  1  0
 84 77  1  0
106 85  2  0
133110  1  0
153142  1  0
 23  7  1  0
 55 48  1  0
 63 56  1  0
 97 90  1  0
105 98  1  0
119112  2  0
137121  1  0
151144  1  0
130124  2  0
  1160  1  0
  6161  1  0
  9162  1  0
 17163  1  0
 18164  1  0
 19165  1  0
 20166  1  0
 21167  1  0
 22168  1  0
 22169  1  0
 23170  1  0
 28171  1  0
 29172  1  0
 32173  1  0
 32174  1  0
 32175  1  0
 33176  1  0
 34177  1  0
 36178  1  0
 37179  1  0
 40180  1  0
 40181  1  0
 40182  1  0
 41183  1  0
 42184  1  0
 49185  1  0
 50186  1  0
 53187  1  0
 53188  1  0
 53189  1  0
 54190  1  0
 55191  1  0
 57192  1  0
 58193  1  0
 61194  1  0
 61195  1  0
 61196  1  0
 62197  1  0
 63198  1  0
 70199  1  0
 71200  1  0
 74201  1  0
 74202  1  0
 74203  1  0
 75204  1  0
 76205  1  0
 78206  1  0
 79207  1  0
 82208  1  0
 82209  1  0
 82210  1  0
 83211  1  0
 84212  1  0
 91213  1  0
 92214  1  0
 95215  1  0
 95216  1  0
 95217  1  0
 96218  1  0
 97219  1  0
 99220  1  0
100221  1  0
103222  1  0
103223  1  0
103224  1  0
104225  1  0
105226  1  0
109227  1  0
115228  1  0
115229  1  0
116230  1  0
116231  1  0
116232  1  0
127233  1  0
127234  1  0
128235  1  0
128236  1  0
128237  1  0
135238  1  0
138239  1  0
143240  1  0
145241  1  0
150242  1  0
152243  1  0
M  END

