
     RDKit          3D

252278  0  0  0  0  0  0  0  0999 V2000
    8.2468    4.4645    5.8935 C   0  0  0  0  0  0  0  0  0  0  0  0
    8.5037    4.7610    4.5893 C   0  0  0  0  0  0  0  0  0  0  0  0
    8.2362    3.8514    3.4755 C   0  0  0  0  0  0  0  0  0  0  0  0
    8.2570    2.5949    3.4857 O   0  0  0  0  0  0  0  0  0  0  0  0
    8.0453    4.5976    2.2679 C   0  0  0  0  0  0  0  0  0  0  0  0
    7.4963    4.1552    1.0832 C   0  0  0  0  0  0  0  0  0  0  0  0
    7.2154    5.1634    0.1609 C   0  0  0  0  0  0  0  0  0  0  0  0
    7.6682    6.5177    0.3680 C   0  0  0  0  0  0  0  0  0  0  0  0
    8.1856    6.9521    1.5497 C   0  0  0  0  0  0  0  0  0  0  0  0
    8.3219    5.9427    2.5401 C   0  0  0  0  0  0  0  0  0  0  0  0
    8.6185    6.1094    3.9773 C   0  0  0  0  0  0  0  0  0  0  0  0
    9.4003    7.0983    4.4557 C   0  0  0  0  0  0  0  0  0  0  0  0
    8.7435    8.2318    5.0304 C   0  0  0  0  0  0  0  0  0  0  0  0
    8.2169    9.1603    5.4771 N   0  0  0  0  0  0  0  0  0  0  0  0
   10.5130    7.5738    3.5990 C   0  0  0  0  0  0  0  0  0  0  0  0
   11.3398    7.9738    2.8798 N   0  0  0  0  0  0  0  0  0  0  0  0
    7.2224    6.8995   -0.9993 C   0  0  0  0  0  0  0  0  0  0  0  0
    8.2333    6.8468   -2.1771 C   0  0  0  0  0  0  0  0  0  0  0  0
    9.1896    5.6757   -2.0467 C   0  0  0  0  0  0  0  0  0  0  0  0
    8.4969    4.5626   -2.2572 C   0  0  0  0  0  0  0  0  0  0  0  0
    7.0942    4.9907   -2.4630 C   0  0  0  0  0  0  0  0  0  0  0  0
    7.3048    6.2662   -3.2630 C   0  0  0  0  0  0  0  0  0  0  0  0
    6.5605    5.5843   -1.1277 C   0  0  0  0  0  0  0  0  0  0  0  0
    7.3056    3.3245    6.1803 C   0  0  0  0  0  0  0  0  0  0  0  0
    7.4356    1.9576    6.0459 C   0  0  0  0  0  0  0  0  0  0  0  0
    6.3266    1.1613    6.2554 C   0  0  0  0  0  0  0  0  0  0  0  0
    6.1648   -0.2477    6.1083 C   0  0  0  0  0  0  0  0  0  0  0  0
    7.2923   -1.1399    6.4402 C   0  0  0  0  0  0  0  0  0  0  0  0
    8.0427   -0.9230    7.6254 C   0  0  0  0  0  0  0  0  0  0  0  0
    8.9041   -1.9508    7.9750 C   0  0  0  0  0  0  0  0  0  0  0  0
    8.8101   -3.0494    7.1393 C   0  0  0  0  0  0  0  0  0  0  0  0
    9.9924   -4.4146    7.2670 S   0  0  0  0  0  0  0  0  0  0  0  0
    8.9578   -5.8495    6.8140 C   0  0  0  0  0  0  0  0  0  0  0  0
    7.6868   -6.0440    7.6354 C   0  0  0  0  0  0  0  0  0  0  0  0
    7.6729   -2.7035    5.8662 S   0  0  0  0  0  0  0  0  0  0  0  0
    4.8269   -0.7240    5.9290 C   0  0  0  0  0  0  0  0  0  0  0  0
    3.7240    0.0645    6.1588 C   0  0  0  0  0  0  0  0  0  0  0  0
    3.8475    1.4382    6.5116 C   0  0  0  0  0  0  0  0  0  0  0  0
    2.6960    2.2881    6.7793 C   0  0  0  0  0  0  0  0  0  0  0  0
    1.4706    2.2461    6.1458 C   0  0  0  0  0  0  0  0  0  0  0  0
    0.4622    2.9794    6.7312 C   0  0  0  0  0  0  0  0  0  0  0  0
    0.9429    3.8302    7.7745 C   0  0  0  0  0  0  0  0  0  0  0  0
   -0.1586    4.8507    8.7470 S   0  0  0  0  0  0  0  0  0  0  0  0
   -0.5477    6.1379    7.4817 C   0  0  0  0  0  0  0  0  0  0  0  0
   -1.3597    5.6017    6.2954 C   0  0  0  0  0  0  0  0  0  0  0  0
    2.5797    3.4382    8.0051 S   0  0  0  0  0  0  0  0  0  0  0  0
    5.1877    1.9639    6.5258 C   0  0  0  0  0  0  0  0  0  0  0  0
    5.6049    3.5999    6.5405 S   0  0  0  0  0  0  0  0  0  0  0  0
    2.5157   -0.6630    5.9490 C   0  0  0  0  0  0  0  0  0  0  0  0
    2.6316   -1.9298    5.3478 C   0  0  0  0  0  0  0  0  0  0  0  0
    4.3149   -2.2392    5.2713 S   0  0  0  0  0  0  0  0  0  0  0  0
    1.5865   -2.4453    4.4529 C   0  0  0  0  0  0  0  0  0  0  0  0
    1.5048   -2.0409    3.1094 C   0  0  0  0  0  0  0  0  0  0  0  0
    2.6077   -1.7275    2.3170 N   0  0  0  0  0  0  0  0  0  0  0  0
    3.6749   -2.6990    2.0958 C   0  0  0  0  0  0  0  0  0  0  0  0
    4.9872   -2.2433    2.0439 C   0  0  0  0  0  0  0  0  0  0  0  0
    6.0150   -3.1337    1.7579 C   0  0  0  0  0  0  0  0  0  0  0  0
    5.7341   -4.4634    1.4428 C   0  0  0  0  0  0  0  0  0  0  0  0
    7.0545   -5.5946    0.9593 S   0  0  0  0  0  0  0  0  0  0  0  0
    7.8809   -4.4918   -0.2396 C   0  0  0  0  0  0  0  0  0  0  0  0
    4.4156   -4.9268    1.5018 C   0  0  0  0  0  0  0  0  0  0  0  0
    3.3705   -4.0462    1.8350 C   0  0  0  0  0  0  0  0  0  0  0  0
    2.7678   -0.4555    1.6999 C   0  0  0  0  0  0  0  0  0  0  0  0
    3.2633   -0.3841    0.3905 C   0  0  0  0  0  0  0  0  0  0  0  0
    3.8232    0.8095   -0.0291 C   0  0  0  0  0  0  0  0  0  0  0  0
    3.7528    1.9445    0.7827 C   0  0  0  0  0  0  0  0  0  0  0  0
    4.4747    3.4588    0.2234 S   0  0  0  0  0  0  0  0  0  0  0  0
    2.9678    3.9698   -0.6476 C   0  0  0  0  0  0  0  0  0  0  0  0
    3.1793    1.8891    2.0592 C   0  0  0  0  0  0  0  0  0  0  0  0
    2.6399    0.6783    2.5088 C   0  0  0  0  0  0  0  0  0  0  0  0
    0.1962   -2.0742    2.5923 C   0  0  0  0  0  0  0  0  0  0  0  0
   -0.5293   -1.5293    1.1941 S   0  0  0  0  0  0  0  0  0  0  0  0
   -2.1231   -2.0865    1.6002 C   0  0  0  0  0  0  0  0  0  0  0  0
   -2.0314   -2.7136    2.8684 C   0  0  0  0  0  0  0  0  0  0  0  0
   -2.8940   -3.7751    3.3276 N   0  0  0  0  0  0  0  0  0  0  0  0
   -3.7203   -3.5590    4.4752 C   0  0  0  0  0  0  0  0  0  0  0  0
   -3.5133   -2.4817    5.3059 C   0  0  0  0  0  0  0  0  0  0  0  0
   -4.2613   -2.3984    6.5031 C   0  0  0  0  0  0  0  0  0  0  0  0
   -5.1867   -3.3797    6.8657 C   0  0  0  0  0  0  0  0  0  0  0  0
   -6.0363   -3.2704    8.4537 S   0  0  0  0  0  0  0  0  0  0  0  0
   -4.5347   -3.4517    9.4940 C   0  0  0  0  0  0  0  0  0  0  0  0
   -5.4475   -4.4026    6.0105 C   0  0  0  0  0  0  0  0  0  0  0  0
   -4.7328   -4.4877    4.8071 C   0  0  0  0  0  0  0  0  0  0  0  0
   -2.4766   -5.1258    3.0024 C   0  0  0  0  0  0  0  0  0  0  0  0
   -3.0171   -5.7643    1.8960 C   0  0  0  0  0  0  0  0  0  0  0  0
   -2.6491   -7.0563    1.5420 C   0  0  0  0  0  0  0  0  0  0  0  0
   -1.7425   -7.7602    2.3294 C   0  0  0  0  0  0  0  0  0  0  0  0
   -1.3764   -9.5024    1.9899 S   0  0  0  0  0  0  0  0  0  0  0  0
   -0.1933   -9.1934    0.6423 C   0  0  0  0  0  0  0  0  0  0  0  0
   -1.1950   -7.1366    3.4549 C   0  0  0  0  0  0  0  0  0  0  0  0
   -1.5831   -5.8516    3.7994 C   0  0  0  0  0  0  0  0  0  0  0  0
   -0.7476   -2.5958    3.4052 C   0  0  0  0  0  0  0  0  0  0  0  0
    0.0227   -2.9255    4.9077 S   0  0  0  0  0  0  0  0  0  0  0  0
   -3.2896   -1.6490    0.7656 C   0  0  0  0  0  0  0  0  0  0  0  0
   -3.7204   -2.2604   -0.4677 C   0  0  0  0  0  0  0  0  0  0  0  0
   -4.1341   -3.6407   -0.6519 N   0  0  0  0  0  0  0  0  0  0  0  0
   -3.1590   -4.5261   -1.2164 C   0  0  0  0  0  0  0  0  0  0  0  0
   -1.8361   -4.5319   -0.7955 C   0  0  0  0  0  0  0  0  0  0  0  0
   -0.9229   -5.4673   -1.2763 C   0  0  0  0  0  0  0  0  0  0  0  0
   -1.2770   -6.3590   -2.2711 C   0  0  0  0  0  0  0  0  0  0  0  0
   -0.1521   -7.6525   -2.8262 S   0  0  0  0  0  0  0  0  0  0  0  0
    1.4236   -6.7237   -2.7517 C   0  0  0  0  0  0  0  0  0  0  0  0
   -2.5897   -6.3515   -2.7426 C   0  0  0  0  0  0  0  0  0  0  0  0
   -3.5429   -5.4561   -2.2251 C   0  0  0  0  0  0  0  0  0  0  0  0
   -5.5557   -3.9853   -0.5309 C   0  0  0  0  0  0  0  0  0  0  0  0
   -5.9460   -5.2881   -0.1948 C   0  0  0  0  0  0  0  0  0  0  0  0
   -7.2965   -5.6413   -0.0086 C   0  0  0  0  0  0  0  0  0  0  0  0
   -8.2912   -4.7059   -0.2534 C   0  0  0  0  0  0  0  0  0  0  0  0
  -10.0220   -5.0646    0.1275 S   0  0  0  0  0  0  0  0  0  0  0  0
  -10.2964   -6.3242   -1.1635 C   0  0  0  0  0  0  0  0  0  0  0  0
   -7.9318   -3.4099   -0.6678 C   0  0  0  0  0  0  0  0  0  0  0  0
   -6.5712   -3.0564   -0.7635 C   0  0  0  0  0  0  0  0  0  0  0  0
   -3.9981   -1.3211   -1.4764 C   0  0  0  0  0  0  0  0  0  0  0  0
   -4.4429   -1.4740   -3.0826 S   0  0  0  0  0  0  0  0  0  0  0  0
   -4.3915    0.1680   -3.4410 C   0  0  0  0  0  0  0  0  0  0  0  0
   -4.3020    0.8964   -2.2037 C   0  0  0  0  0  0  0  0  0  0  0  0
   -4.7573    2.2485   -1.9865 N   0  0  0  0  0  0  0  0  0  0  0  0
   -3.9770    3.1231   -1.1366 C   0  0  0  0  0  0  0  0  0  0  0  0
   -2.6109    3.2757   -1.3846 C   0  0  0  0  0  0  0  0  0  0  0  0
   -1.8603    4.1534   -0.5889 C   0  0  0  0  0  0  0  0  0  0  0  0
   -2.4248    4.8955    0.4470 C   0  0  0  0  0  0  0  0  0  0  0  0
   -1.4311    5.8864    1.5496 S   0  0  0  0  0  0  0  0  0  0  0  0
   -1.4367    7.4170    0.5697 C   0  0  0  0  0  0  0  0  0  0  0  0
   -3.7887    4.7288    0.6909 C   0  0  0  0  0  0  0  0  0  0  0  0
   -4.5697    3.8091   -0.0564 C   0  0  0  0  0  0  0  0  0  0  0  0
   -6.0190    2.7394   -2.5767 C   0  0  0  0  0  0  0  0  0  0  0  0
   -6.0760    3.1052   -3.9300 C   0  0  0  0  0  0  0  0  0  0  0  0
   -7.2656    3.4122   -4.5737 C   0  0  0  0  0  0  0  0  0  0  0  0
   -8.4069    3.6141   -3.8284 C   0  0  0  0  0  0  0  0  0  0  0  0
   -9.9061    4.3109   -4.5814 S   0  0  0  0  0  0  0  0  0  0  0  0
  -10.8372    2.7397   -4.6898 C   0  0  0  0  0  0  0  0  0  0  0  0
   -8.3477    3.4225   -2.4195 C   0  0  0  0  0  0  0  0  0  0  0  0
   -7.1741    2.8887   -1.8143 C   0  0  0  0  0  0  0  0  0  0  0  0
   -3.9676   -0.0145   -1.1597 C   0  0  0  0  0  0  0  0  0  0  0  0
   -3.4442    0.0646    0.4553 S   0  0  0  0  0  0  0  0  0  0  0  0
   -4.6210    0.6015   -4.8283 C   0  0  0  0  0  0  0  0  0  0  0  0
   -3.7160    0.7342   -5.8700 C   0  0  0  0  0  0  0  0  0  0  0  0
   -4.2191    1.3560   -7.1333 C   0  0  0  0  0  0  0  0  0  0  0  0
   -5.4080    1.6962   -7.3871 O   0  0  0  0  0  0  0  0  0  0  0  0
   -3.1248    1.5980   -8.0179 C   0  0  0  0  0  0  0  0  0  0  0  0
   -3.1760    1.9755   -9.3852 C   0  0  0  0  0  0  0  0  0  0  0  0
   -1.9669    1.8445  -10.0774 C   0  0  0  0  0  0  0  0  0  0  0  0
   -0.8245    1.2834   -9.4575 C   0  0  0  0  0  0  0  0  0  0  0  0
   -0.7550    0.9171   -8.1605 C   0  0  0  0  0  0  0  0  0  0  0  0
   -1.9337    1.1436   -7.4058 C   0  0  0  0  0  0  0  0  0  0  0  0
   -2.2025    0.6109   -6.0379 C   0  0  0  0  0  0  0  0  0  0  0  0
   -1.3902   -0.3807   -5.5349 C   0  0  0  0  0  0  0  0  0  0  0  0
    0.0104   -0.0695   -5.1494 C   0  0  0  0  0  0  0  0  0  0  0  0
    1.0818    0.2941   -4.8513 N   0  0  0  0  0  0  0  0  0  0  0  0
   -1.9401   -1.6681   -5.1034 C   0  0  0  0  0  0  0  0  0  0  0  0
   -2.4718   -2.6338   -4.7261 N   0  0  0  0  0  0  0  0  0  0  0  0
   -0.0855    1.2558  -10.7737 C   0  0  0  0  0  0  0  0  0  0  0  0
   -0.0772   -0.0822  -11.5545 C   0  0  0  0  0  0  0  0  0  0  0  0
   -1.3913   -0.8236  -11.3069 C   0  0  0  0  0  0  0  0  0  0  0  0
   -2.3381   -0.1560  -11.9867 C   0  0  0  0  0  0  0  0  0  0  0  0
   -1.6695    1.0549  -12.5684 C   0  0  0  0  0  0  0  0  0  0  0  0
   -0.3269    0.4403  -12.9576 C   0  0  0  0  0  0  0  0  0  0  0  0
   -1.2290    1.9789  -11.3915 C   0  0  0  0  0  0  0  0  0  0  0  0
    8.3184    5.2666    6.5926 H   0  0  0  0  0  0  0  0  0  0  0  0
    7.2025    3.1383    0.8459 H   0  0  0  0  0  0  0  0  0  0  0  0
    8.3625    7.9950    1.7598 H   0  0  0  0  0  0  0  0  0  0  0  0
    6.5176    7.7695   -1.0122 H   0  0  0  0  0  0  0  0  0  0  0  0
    8.7097    7.8312   -2.4326 H   0  0  0  0  0  0  0  0  0  0  0  0
   10.2707    5.7457   -1.8471 H   0  0  0  0  0  0  0  0  0  0  0  0
    8.9030    3.5514   -2.2770 H   0  0  0  0  0  0  0  0  0  0  0  0
    6.4230    4.2389   -2.9376 H   0  0  0  0  0  0  0  0  0  0  0  0
    6.3947    6.8568   -3.4252 H   0  0  0  0  0  0  0  0  0  0  0  0
    7.8389    6.0804   -4.2263 H   0  0  0  0  0  0  0  0  0  0  0  0
    5.4606    5.7029   -1.0730 H   0  0  0  0  0  0  0  0  0  0  0  0
    8.3934    1.5059    5.6594 H   0  0  0  0  0  0  0  0  0  0  0  0
    7.9347   -0.0076    8.1737 H   0  0  0  0  0  0  0  0  0  0  0  0
    9.5691   -1.8987    8.8136 H   0  0  0  0  0  0  0  0  0  0  0  0
    8.7095   -5.7880    5.7355 H   0  0  0  0  0  0  0  0  0  0  0  0
    9.6032   -6.7418    6.9615 H   0  0  0  0  0  0  0  0  0  0  0  0
    7.3640   -7.1058    7.5214 H   0  0  0  0  0  0  0  0  0  0  0  0
    6.8741   -5.3954    7.2620 H   0  0  0  0  0  0  0  0  0  0  0  0
    7.8732   -5.8401    8.7110 H   0  0  0  0  0  0  0  0  0  0  0  0
    1.2947    1.6685    5.2266 H   0  0  0  0  0  0  0  0  0  0  0  0
   -0.5169    2.9846    6.4181 H   0  0  0  0  0  0  0  0  0  0  0  0
   -1.1855    6.9135    7.9974 H   0  0  0  0  0  0  0  0  0  0  0  0
    0.3950    6.6186    7.1273 H   0  0  0  0  0  0  0  0  0  0  0  0
   -0.6833    5.1548    5.5278 H   0  0  0  0  0  0  0  0  0  0  0  0
   -1.9137    6.4437    5.8343 H   0  0  0  0  0  0  0  0  0  0  0  0
   -2.1239    4.8601    6.6218 H   0  0  0  0  0  0  0  0  0  0  0  0
    1.5187   -0.2711    6.1632 H   0  0  0  0  0  0  0  0  0  0  0  0
    5.2469   -1.2233    2.2844 H   0  0  0  0  0  0  0  0  0  0  0  0
    7.0136   -2.7686    1.7159 H   0  0  0  0  0  0  0  0  0  0  0  0
    8.4857   -5.0929   -0.9520 H   0  0  0  0  0  0  0  0  0  0  0  0
    8.5599   -3.8047    0.3110 H   0  0  0  0  0  0  0  0  0  0  0  0
    7.1392   -3.8918   -0.7997 H   0  0  0  0  0  0  0  0  0  0  0  0
    4.2016   -5.9498    1.2747 H   0  0  0  0  0  0  0  0  0  0  0  0
    2.3695   -4.4055    1.8972 H   0  0  0  0  0  0  0  0  0  0  0  0
    3.2877   -1.2513   -0.2645 H   0  0  0  0  0  0  0  0  0  0  0  0
    4.3359    0.8772   -0.9752 H   0  0  0  0  0  0  0  0  0  0  0  0
    3.2573    4.6626   -1.4791 H   0  0  0  0  0  0  0  0  0  0  0  0
    2.4530    3.0739   -1.0885 H   0  0  0  0  0  0  0  0  0  0  0  0
    2.2942    4.4779    0.0957 H   0  0  0  0  0  0  0  0  0  0  0  0
    3.2060    2.7354    2.7000 H   0  0  0  0  0  0  0  0  0  0  0  0
    2.2212    0.6112    3.4861 H   0  0  0  0  0  0  0  0  0  0  0  0
   -2.7760   -1.7188    5.1218 H   0  0  0  0  0  0  0  0  0  0  0  0
   -4.0467   -1.5924    7.1911 H   0  0  0  0  0  0  0  0  0  0  0  0
   -4.3541   -2.4839   10.0257 H   0  0  0  0  0  0  0  0  0  0  0  0
   -3.6224   -3.6975    8.8924 H   0  0  0  0  0  0  0  0  0  0  0  0
   -4.6944   -4.2602   10.2467 H   0  0  0  0  0  0  0  0  0  0  0  0
   -6.2113   -5.1590    6.2274 H   0  0  0  0  0  0  0  0  0  0  0  0
   -4.9581   -5.3083    4.1314 H   0  0  0  0  0  0  0  0  0  0  0  0
   -3.7495   -5.2169    1.3176 H   0  0  0  0  0  0  0  0  0  0  0  0
   -3.0717   -7.5572    0.6914 H   0  0  0  0  0  0  0  0  0  0  0  0
   -0.7278   -8.7826   -0.2358 H   0  0  0  0  0  0  0  0  0  0  0  0
    0.6026   -8.4944    0.9663 H   0  0  0  0  0  0  0  0  0  0  0  0
    0.2642  -10.1664    0.3448 H   0  0  0  0  0  0  0  0  0  0  0  0
   -0.5027   -7.6835    4.0965 H   0  0  0  0  0  0  0  0  0  0  0  0
   -1.1836   -5.4212    4.7200 H   0  0  0  0  0  0  0  0  0  0  0  0
   -1.5032   -3.8462   -0.0492 H   0  0  0  0  0  0  0  0  0  0  0  0
    0.0760   -5.4494   -0.8539 H   0  0  0  0  0  0  0  0  0  0  0  0
    1.3207   -5.7086   -3.1972 H   0  0  0  0  0  0  0  0  0  0  0  0
    2.2186   -7.2901   -3.2997 H   0  0  0  0  0  0  0  0  0  0  0  0
    1.7276   -6.6465   -1.6821 H   0  0  0  0  0  0  0  0  0  0  0  0
   -2.9180   -7.0879   -3.4777 H   0  0  0  0  0  0  0  0  0  0  0  0
   -4.5585   -5.4773   -2.5986 H   0  0  0  0  0  0  0  0  0  0  0  0
   -5.2118   -6.0704   -0.0213 H   0  0  0  0  0  0  0  0  0  0  0  0
   -7.5679   -6.6409    0.3286 H   0  0  0  0  0  0  0  0  0  0  0  0
  -10.0445   -7.3218   -0.7353 H   0  0  0  0  0  0  0  0  0  0  0  0
   -9.6751   -6.1438   -2.0685 H   0  0  0  0  0  0  0  0  0  0  0  0
  -11.3689   -6.3181   -1.4428 H   0  0  0  0  0  0  0  0  0  0  0  0
   -8.6971   -2.6921   -0.8672 H   0  0  0  0  0  0  0  0  0  0  0  0
   -6.3720   -2.0341   -1.0371 H   0  0  0  0  0  0  0  0  0  0  0  0
   -2.1221    2.7379   -2.1551 H   0  0  0  0  0  0  0  0  0  0  0  0
   -0.7841    4.2313   -0.7616 H   0  0  0  0  0  0  0  0  0  0  0  0
   -0.5848    7.3721   -0.1417 H   0  0  0  0  0  0  0  0  0  0  0  0
   -1.3136    8.2911    1.2483 H   0  0  0  0  0  0  0  0  0  0  0  0
   -2.3862    7.5286    0.0154 H   0  0  0  0  0  0  0  0  0  0  0  0
   -4.2261    5.3073    1.4969 H   0  0  0  0  0  0  0  0  0  0  0  0
   -5.5956    3.6208    0.2213 H   0  0  0  0  0  0  0  0  0  0  0  0
   -5.1620    3.0587   -4.5126 H   0  0  0  0  0  0  0  0  0  0  0  0
   -7.3350    3.5041   -5.6693 H   0  0  0  0  0  0  0  0  0  0  0  0
  -11.9276    2.9786   -4.7311 H   0  0  0  0  0  0  0  0  0  0  0  0
  -10.6447    2.0931   -3.8101 H   0  0  0  0  0  0  0  0  0  0  0  0
  -10.5516    2.2039   -5.6281 H   0  0  0  0  0  0  0  0  0  0  0  0
   -9.2345    3.7454   -1.8597 H   0  0  0  0  0  0  0  0  0  0  0  0
   -7.1866    2.6642   -0.7544 H   0  0  0  0  0  0  0  0  0  0  0  0
   -5.6970    0.6873   -5.0887 H   0  0  0  0  0  0  0  0  0  0  0  0
   -4.0682    2.2901   -9.8667 H   0  0  0  0  0  0  0  0  0  0  0  0
    0.1550    0.4709   -7.7309 H   0  0  0  0  0  0  0  0  0  0  0  0
    0.8865    1.8234  -10.7669 H   0  0  0  0  0  0  0  0  0  0  0  0
    0.8133   -0.6958  -11.4110 H   0  0  0  0  0  0  0  0  0  0  0  0
   -1.5629   -1.7540  -10.7588 H   0  0  0  0  0  0  0  0  0  0  0  0
   -3.3659   -0.4747  -12.1431 H   0  0  0  0  0  0  0  0  0  0  0  0
   -2.2119    1.5449  -13.4111 H   0  0  0  0  0  0  0  0  0  0  0  0
    0.4401    1.1533  -13.2769 H   0  0  0  0  0  0  0  0  0  0  0  0
   -0.4186   -0.3849  -13.7151 H   0  0  0  0  0  0  0  0  0  0  0  0
   -0.9572    3.0051  -11.7009 H   0  0  0  0  0  0  0  0  0  0  0  0
  1  2  2  3
  2  3  1  0
  3  4  2  0
  3  5  1  0
  5  6  2  0
  6  7  1  0
  7  8  2  0
  8  9  1  0
  9 10  2  0
 10 11  1  0
 11 12  2  3
 12 13  1  0
 13 14  3  0
 12 15  1  0
 15 16  3  0
  8 17  1  0
 17 18  1  0
 18 19  1  0
 19 20  2  0
 20 21  1  0
 21 22  1  0
 21 23  1  0
  1 24  1  0
 24 25  2  0
 25 26  1  0
 26 27  2  0
 27 28  1  0
 28 29  2  0
 29 30  1  0
 30 31  2  0
 31 32  1  0
 32 33  1  0
 33 34  1  0
 31 35  1  0
 27 36  1  0
 36 37  2  0
 37 38  1  0
 38 39  1  0
 39 40  2  0
 40 41  1  0
 41 42  2  0
 42 43  1  0
 43 44  1  0
 44 45  1  0
 42 46  1  0
 38 47  2  0
 47 48  1  0
 37 49  1  0
 49 50  2  0
 50 51  1  0
 50 52  1  0
 52 53  2  0
 53 54  1  0
 54 55  1  0
 55 56  2  0
 56 57  1  0
 57 58  2  0
 58 59  1  0
 59 60  1  0
 58 61  1  0
 61 62  2  0
 54 63  1  0
 63 64  2  0
 64 65  1  0
 65 66  2  0
 66 67  1  0
 67 68  1  0
 66 69  1  0
 69 70  2  0
 53 71  1  0
 71 72  1  0
 72 73  1  0
 73 74  2  0
 74 75  1  0
 75 76  1  0
 76 77  2  0
 77 78  1  0
 78 79  2  0
 79 80  1  0
 80 81  1  0
 79 82  1  0
 82 83  2  0
 75 84  1  0
 84 85  2  0
 85 86  1  0
 86 87  2  0
 87 88  1  0
 88 89  1  0
 87 90  1  0
 90 91  2  0
 74 92  1  0
 92 93  1  0
 73 94  1  0
 94 95  2  0
 95 96  1  0
 96 97  1  0
 97 98  2  0
 98 99  1  0
 99100  2  0
100101  1  0
101102  1  0
100103  1  0
103104  2  0
 96105  1  0
105106  2  0
106107  1  0
107108  2  0
108109  1  0
109110  1  0
108111  1  0
111112  2  0
 95113  1  0
113114  1  0
114115  1  0
115116  2  0
116117  1  0
117118  1  0
118119  2  0
119120  1  0
120121  2  0
121122  1  0
122123  1  0
121124  1  0
124125  2  0
117126  1  0
126127  2  0
127128  1  0
128129  2  0
129130  1  0
130131  1  0
129132  1  0
132133  2  0
116134  1  0
134135  1  0
115136  1  0
136137  2  3
137138  1  0
138139  2  0
138140  1  0
140141  2  0
141142  1  0
142143  2  0
143144  1  0
144145  2  0
145146  1  0
146147  2  3
147148  1  0
148149  3  0
147150  1  0
150151  3  0
143152  1  0
152153  1  0
153154  1  0
154155  2  0
155156  1  0
156157  1  0
156158  1  0
 11  2  1  0
 23 17  1  0
 48 24  1  0
 93 52  1  0
135 94  1  0
146137  1  0
158152  1  0
 10  5  1  0
 22 18  1  0
 47 26  1  0
 62 55  1  0
 70 63  1  0
 92 71  2  0
104 97  1  0
112105  1  0
134113  2  0
145140  1  0
157153  1  0
 23  7  1  0
 35 28  1  0
 51 36  1  0
 83 76  1  0
 91 84  1  0
125118  1  0
133126  1  0
158142  1  0
 46 39  1  0
  1159  1  0
  6160  1  0
  9161  1  0
 17162  1  0
 18163  1  0
 19164  1  0
 20165  1  0
 21166  1  0
 22167  1  0
 22168  1  0
 23169  1  0
 25170  1  0
 29171  1  0
 30172  1  0
 33173  1  0
 33174  1  0
 34175  1  0
 34176  1  0
 34177  1  0
 40178  1  0
 41179  1  0
 44180  1  0
 44181  1  0
 45182  1  0
 45183  1  0
 45184  1  0
 49185  1  0
 56186  1  0
 57187  1  0
 60188  1  0
 60189  1  0
 60190  1  0
 61191  1  0
 62192  1  0
 64193  1  0
 65194  1  0
 68195  1  0
 68196  1  0
 68197  1  0
 69198  1  0
 70199  1  0
 77200  1  0
 78201  1  0
 81202  1  0
 81203  1  0
 81204  1  0
 82205  1  0
 83206  1  0
 85207  1  0
 86208  1  0
 89209  1  0
 89210  1  0
 89211  1  0
 90212  1  0
 91213  1  0
 98214  1  0
 99215  1  0
102216  1  0
102217  1  0
102218  1  0
103219  1  0
104220  1  0
106221  1  0
107222  1  0
110223  1  0
110224  1  0
110225  1  0
111226  1  0
112227  1  0
119228  1  0
120229  1  0
123230  1  0
123231  1  0
123232  1  0
124233  1  0
125234  1  0
127235  1  0
128236  1  0
131237  1  0
131238  1  0
131239  1  0
132240  1  0
133241  1  0
136242  1  0
141243  1  0
144244  1  0
152245  1  0
153246  1  0
154247  1  0
155248  1  0
156249  1  0
157250  1  0
157251  1  0
158252  1  0
M  END

