
     RDKit          3D

224244  0  0  0  0  0  0  0  0999 V2000
   -7.1868    2.0042    2.5372 C   0  0  0  0  0  0  0  0  0  0  0  0
   -7.8110    0.7908    2.4157 C   0  0  0  0  0  0  0  0  0  0  0  0
   -7.1220   -0.4274    1.9517 C   0  0  0  0  0  0  0  0  0  0  0  0
   -5.8711   -0.5683    1.8128 O   0  0  0  0  0  0  0  0  0  0  0  0
   -8.0176   -1.4384    1.7347 C   0  0  0  0  0  0  0  0  0  0  0  0
   -7.6691   -2.6793    1.1824 C   0  0  0  0  0  0  0  0  0  0  0  0
   -8.7881   -3.3977    0.8833 C   0  0  0  0  0  0  0  0  0  0  0  0
  -10.1492   -2.9820    1.0505 C   0  0  0  0  0  0  0  0  0  0  0  0
  -10.4966   -1.8070    1.7100 C   0  0  0  0  0  0  0  0  0  0  0  0
   -9.3527   -0.9968    2.0503 C   0  0  0  0  0  0  0  0  0  0  0  0
   -9.2876    0.4023    2.5838 C   0  0  0  0  0  0  0  0  0  0  0  0
  -10.3299    1.1539    3.0091 C   0  0  0  0  0  0  0  0  0  0  0  0
  -11.6559    0.6070    3.1472 C   0  0  0  0  0  0  0  0  0  0  0  0
  -12.6742    0.1119    3.2923 N   0  0  0  0  0  0  0  0  0  0  0  0
  -10.2466    2.5939    3.2997 C   0  0  0  0  0  0  0  0  0  0  0  0
  -10.2481    3.7366    3.4479 N   0  0  0  0  0  0  0  0  0  0  0  0
  -10.6508   -4.3359    0.5462 C   0  0  0  0  0  0  0  0  0  0  0  0
  -11.2629   -5.3738    1.5870 C   0  0  0  0  0  0  0  0  0  0  0  0
  -11.1636   -6.7938    1.0300 C   0  0  0  0  0  0  0  0  0  0  0  0
   -9.8610   -7.0959    1.0417 C   0  0  0  0  0  0  0  0  0  0  0  0
   -9.1145   -5.8899    1.6043 C   0  0  0  0  0  0  0  0  0  0  0  0
  -10.1518   -5.4662    2.6541 C   0  0  0  0  0  0  0  0  0  0  0  0
   -9.2251   -4.7762    0.4823 C   0  0  0  0  0  0  0  0  0  0  0  0
   -5.7576    2.2212    2.0662 C   0  0  0  0  0  0  0  0  0  0  0  0
   -4.6485    1.9255    2.8741 C   0  0  0  0  0  0  0  0  0  0  0  0
   -4.6284    2.2311    4.2985 N   0  0  0  0  0  0  0  0  0  0  0  0
   -3.3706    2.3388    5.0353 C   0  0  0  0  0  0  0  0  0  0  0  0
   -2.9867    3.5406    5.6929 C   0  0  0  0  0  0  0  0  0  0  0  0
   -1.8174    3.6193    6.4492 C   0  0  0  0  0  0  0  0  0  0  0  0
   -0.8801    2.5703    6.4484 C   0  0  0  0  0  0  0  0  0  0  0  0
    0.5591    2.7567    7.5581 S   0  0  0  0  0  0  0  0  0  0  0  0
    1.5699    3.7660    6.4168 C   0  0  0  0  0  0  0  0  0  0  0  0
   -1.2672    1.3340    5.8766 C   0  0  0  0  0  0  0  0  0  0  0  0
   -2.5188    1.1971    5.2011 C   0  0  0  0  0  0  0  0  0  0  0  0
   -5.6087    3.2536    4.6493 C   0  0  0  0  0  0  0  0  0  0  0  0
   -6.2412    3.2103    5.8961 C   0  0  0  0  0  0  0  0  0  0  0  0
   -6.9336    4.3304    6.3778 C   0  0  0  0  0  0  0  0  0  0  0  0
   -6.9703    5.5448    5.6603 C   0  0  0  0  0  0  0  0  0  0  0  0
   -7.9943    6.9529    6.2039 S   0  0  0  0  0  0  0  0  0  0  0  0
   -6.5508    7.8945    6.8435 C   0  0  0  0  0  0  0  0  0  0  0  0
   -6.3866    5.5862    4.3768 C   0  0  0  0  0  0  0  0  0  0  0  0
   -5.6721    4.4815    3.9082 C   0  0  0  0  0  0  0  0  0  0  0  0
   -3.5856    1.5559    2.0414 C   0  0  0  0  0  0  0  0  0  0  0  0
   -2.0091    1.0039    2.2882 S   0  0  0  0  0  0  0  0  0  0  0  0
   -1.6177    0.6765    0.5983 C   0  0  0  0  0  0  0  0  0  0  0  0
   -2.7455    1.1456   -0.1687 C   0  0  0  0  0  0  0  0  0  0  0  0
   -2.6188    1.6681   -1.5372 N   0  0  0  0  0  0  0  0  0  0  0  0
   -2.2214    3.0767   -1.5812 C   0  0  0  0  0  0  0  0  0  0  0  0
   -0.9188    3.4236   -1.2060 C   0  0  0  0  0  0  0  0  0  0  0  0
   -0.5518    4.7800   -1.1712 C   0  0  0  0  0  0  0  0  0  0  0  0
   -1.4433    5.7922   -1.5479 C   0  0  0  0  0  0  0  0  0  0  0  0
   -0.7633    7.4926   -1.4732 S   0  0  0  0  0  0  0  0  0  0  0  0
   -2.3346    8.4266   -1.5705 C   0  0  0  0  0  0  0  0  0  0  0  0
   -2.7213    5.4352   -2.0524 C   0  0  0  0  0  0  0  0  0  0  0  0
   -3.1173    4.0796   -2.0499 C   0  0  0  0  0  0  0  0  0  0  0  0
   -3.4449    1.1976   -2.6303 C   0  0  0  0  0  0  0  0  0  0  0  0
   -4.7031    0.5447   -2.4391 C   0  0  0  0  0  0  0  0  0  0  0  0
   -5.5283    0.3029   -3.5764 C   0  0  0  0  0  0  0  0  0  0  0  0
   -5.1155    0.5950   -4.8985 C   0  0  0  0  0  0  0  0  0  0  0  0
   -6.3171    0.6671   -6.3067 S   0  0  0  0  0  0  0  0  0  0  0  0
   -6.3635   -1.1250   -6.7603 C   0  0  0  0  0  0  0  0  0  0  0  0
   -3.8522    1.2153   -5.0501 C   0  0  0  0  0  0  0  0  0  0  0  0
   -3.0376    1.4852   -3.9453 C   0  0  0  0  0  0  0  0  0  0  0  0
   -3.8302    1.5847    0.6702 C   0  0  0  0  0  0  0  0  0  0  0  0
   -5.4235    2.1412    0.3810 S   0  0  0  0  0  0  0  0  0  0  0  0
   -0.1524    0.2846    0.2506 C   0  0  0  0  0  0  0  0  0  0  0  0
    0.4891   -0.1559   -0.9635 C   0  0  0  0  0  0  0  0  0  0  0  0
   -0.2173   -1.0154   -1.8916 N   0  0  0  0  0  0  0  0  0  0  0  0
   -0.6914   -0.6649   -3.1996 C   0  0  0  0  0  0  0  0  0  0  0  0
   -1.8501   -1.3025   -3.6653 C   0  0  0  0  0  0  0  0  0  0  0  0
   -2.1120   -1.4207   -5.0140 C   0  0  0  0  0  0  0  0  0  0  0  0
   -1.2919   -0.8618   -6.0259 C   0  0  0  0  0  0  0  0  0  0  0  0
   -1.7213   -0.8240   -7.8255 S   0  0  0  0  0  0  0  0  0  0  0  0
   -2.9918   -2.1566   -7.9288 C   0  0  0  0  0  0  0  0  0  0  0  0
   -0.1377   -0.1453   -5.5709 C   0  0  0  0  0  0  0  0  0  0  0  0
    0.1656   -0.0872   -4.1858 C   0  0  0  0  0  0  0  0  0  0  0  0
   -0.1275   -2.4409   -1.5948 C   0  0  0  0  0  0  0  0  0  0  0  0
   -0.8105   -2.9419   -0.4884 C   0  0  0  0  0  0  0  0  0  0  0  0
   -0.8029   -4.2979   -0.2358 C   0  0  0  0  0  0  0  0  0  0  0  0
   -0.1698   -5.1835   -1.1319 C   0  0  0  0  0  0  0  0  0  0  0  0
   -0.2128   -6.9702   -0.6686 S   0  0  0  0  0  0  0  0  0  0  0  0
    0.7537   -7.6974   -2.0528 C   0  0  0  0  0  0  0  0  0  0  0  0
    0.3643   -4.6639   -2.3300 C   0  0  0  0  0  0  0  0  0  0  0  0
    0.3997   -3.2998   -2.5738 C   0  0  0  0  0  0  0  0  0  0  0  0
    1.8313   -0.4796   -0.6640 C   0  0  0  0  0  0  0  0  0  0  0  0
    3.0671   -0.8997   -1.6951 S   0  0  0  0  0  0  0  0  0  0  0  0
    4.0615   -0.9451   -0.2728 C   0  0  0  0  0  0  0  0  0  0  0  0
    3.4588   -0.8153    0.9841 C   0  0  0  0  0  0  0  0  0  0  0  0
    3.9663   -1.4722    2.1768 N   0  0  0  0  0  0  0  0  0  0  0  0
    4.7072   -2.7087    1.9035 C   0  0  0  0  0  0  0  0  0  0  0  0
    5.8853   -3.0331    2.6454 C   0  0  0  0  0  0  0  0  0  0  0  0
    6.4010   -4.3408    2.5980 C   0  0  0  0  0  0  0  0  0  0  0  0
    5.7890   -5.3553    1.8271 C   0  0  0  0  0  0  0  0  0  0  0  0
    6.5608   -6.9872    1.5522 S   0  0  0  0  0  0  0  0  0  0  0  0
    5.5582   -7.8217    2.8544 C   0  0  0  0  0  0  0  0  0  0  0  0
    4.6691   -4.9804    1.0438 C   0  0  0  0  0  0  0  0  0  0  0  0
    4.1321   -3.7002    1.1018 C   0  0  0  0  0  0  0  0  0  0  0  0
    3.5961   -1.1579    3.5226 C   0  0  0  0  0  0  0  0  0  0  0  0
    3.3902   -2.2252    4.4192 C   0  0  0  0  0  0  0  0  0  0  0  0
    3.0816   -1.9844    5.7429 C   0  0  0  0  0  0  0  0  0  0  0  0
    2.9165   -0.6916    6.2317 C   0  0  0  0  0  0  0  0  0  0  0  0
    2.8083   -0.4479    8.0363 S   0  0  0  0  0  0  0  0  0  0  0  0
    0.9794   -0.6252    8.2326 C   0  0  0  0  0  0  0  0  0  0  0  0
    3.1763    0.4023    5.3539 C   0  0  0  0  0  0  0  0  0  0  0  0
    3.5071    0.1915    3.9947 C   0  0  0  0  0  0  0  0  0  0  0  0
    2.1313   -0.4991    0.6982 C   0  0  0  0  0  0  0  0  0  0  0  0
    0.9172   -0.0450    1.6363 S   0  0  0  0  0  0  0  0  0  0  0  0
    5.5316   -1.0015   -0.3670 C   0  0  0  0  0  0  0  0  0  0  0  0
    6.3991   -0.4812    0.6852 C   0  0  0  0  0  0  0  0  0  0  0  0
    7.8244   -0.5057    0.6696 C   0  0  0  0  0  0  0  0  0  0  0  0
    8.2461    0.0757    1.7300 N   0  0  0  0  0  0  0  0  0  0  0  0
    7.1968    0.4329    2.4322 O   0  0  0  0  0  0  0  0  0  0  0  0
    6.0668    0.1177    1.7792 N   0  0  0  0  0  0  0  0  0  0  0  0
    8.5461   -0.7691   -0.5211 C   0  0  0  0  0  0  0  0  0  0  0  0
    7.7683   -1.5353   -1.4844 C   0  0  0  0  0  0  0  0  0  0  0  0
    8.4311   -2.4439   -2.4337 O   0  0  0  0  0  0  0  0  0  0  0  0
    9.2182   -2.3286   -3.5835 C   0  0  0  0  0  0  0  0  0  0  0  0
    8.5324   -2.2918   -5.0069 C   0  0  0  0  0  0  0  0  0  0  0  0
    6.3704   -1.5760   -1.4339 C   0  0  0  0  0  0  0  0  0  0  0  0
    5.7551   -2.1378   -2.6065 O   0  0  0  0  0  0  0  0  0  0  0  0
    5.5740   -3.5009   -2.9220 C   0  0  0  0  0  0  0  0  0  0  0  0
    6.6092   -4.4822   -2.3287 C   0  0  0  0  0  0  0  0  0  0  0  0
    9.4960    0.2054   -1.0307 C   0  0  0  0  0  0  0  0  0  0  0  0
    8.9563    1.2984   -1.7043 C   0  0  0  0  0  0  0  0  0  0  0  0
    7.8752    1.1614   -2.7539 C   0  0  0  0  0  0  0  0  0  0  0  0
    7.5216    0.1479   -3.4569 O   0  0  0  0  0  0  0  0  0  0  0  0
    7.3250    2.4355   -3.0016 C   0  0  0  0  0  0  0  0  0  0  0  0
    6.2236    2.8299   -3.7861 C   0  0  0  0  0  0  0  0  0  0  0  0
    5.5793    1.8965   -4.5926 O   0  0  0  0  0  0  0  0  0  0  0  0
    4.3210    2.1558   -5.1992 C   0  0  0  0  0  0  0  0  0  0  0  0
    5.8182    4.1978   -3.6750 C   0  0  0  0  0  0  0  0  0  0  0  0
    6.5080    5.1102   -2.9477 C   0  0  0  0  0  0  0  0  0  0  0  0
    7.6195    4.7329   -2.3007 C   0  0  0  0  0  0  0  0  0  0  0  0
    8.0301    3.3958   -2.2504 C   0  0  0  0  0  0  0  0  0  0  0  0
    9.0943    2.7529   -1.4153 C   0  0  0  0  0  0  0  0  0  0  0  0
    9.7614    3.3004   -0.3441 C   0  0  0  0  0  0  0  0  0  0  0  0
   10.6335    2.6419    0.5739 C   0  0  0  0  0  0  0  0  0  0  0  0
   11.2742    2.2172    1.3785 N   0  0  0  0  0  0  0  0  0  0  0  0
    9.4058    4.5991    0.1497 C   0  0  0  0  0  0  0  0  0  0  0  0
    9.0212    5.5846    0.5615 N   0  0  0  0  0  0  0  0  0  0  0  0
   -7.7138    2.8740    2.9514 H   0  0  0  0  0  0  0  0  0  0  0  0
   -6.6315   -3.0152    0.9587 H   0  0  0  0  0  0  0  0  0  0  0  0
  -11.5413   -1.5647    1.9055 H   0  0  0  0  0  0  0  0  0  0  0  0
  -11.2315   -4.2649   -0.4270 H   0  0  0  0  0  0  0  0  0  0  0  0
  -12.2621   -5.0883    2.0122 H   0  0  0  0  0  0  0  0  0  0  0  0
  -11.9660   -7.3098    0.4674 H   0  0  0  0  0  0  0  0  0  0  0  0
   -9.4930   -8.0929    0.8638 H   0  0  0  0  0  0  0  0  0  0  0  0
   -8.0814   -6.1268    1.9509 H   0  0  0  0  0  0  0  0  0  0  0  0
  -10.3462   -6.2117    3.4769 H   0  0  0  0  0  0  0  0  0  0  0  0
   -9.8551   -4.5475    3.2072 H   0  0  0  0  0  0  0  0  0  0  0  0
   -8.9608   -5.1073   -0.5419 H   0  0  0  0  0  0  0  0  0  0  0  0
   -3.5737    4.4433    5.6709 H   0  0  0  0  0  0  0  0  0  0  0  0
   -1.6406    4.5698    6.9135 H   0  0  0  0  0  0  0  0  0  0  0  0
    1.7211    3.3144    5.4158 H   0  0  0  0  0  0  0  0  0  0  0  0
    1.1926    4.8019    6.2847 H   0  0  0  0  0  0  0  0  0  0  0  0
    2.5617    3.8545    6.8727 H   0  0  0  0  0  0  0  0  0  0  0  0
   -0.6115    0.4585    5.9596 H   0  0  0  0  0  0  0  0  0  0  0  0
   -2.7642    0.2239    4.7329 H   0  0  0  0  0  0  0  0  0  0  0  0
   -6.0977    2.3125    6.5290 H   0  0  0  0  0  0  0  0  0  0  0  0
   -7.4682    4.2432    7.3324 H   0  0  0  0  0  0  0  0  0  0  0  0
   -5.9702    8.4231    6.0599 H   0  0  0  0  0  0  0  0  0  0  0  0
   -5.8499    7.3015    7.4774 H   0  0  0  0  0  0  0  0  0  0  0  0
   -6.9174    8.7024    7.4892 H   0  0  0  0  0  0  0  0  0  0  0  0
   -6.4203    6.4762    3.7426 H   0  0  0  0  0  0  0  0  0  0  0  0
   -5.0711    4.6103    2.9860 H   0  0  0  0  0  0  0  0  0  0  0  0
   -0.2083    2.6208   -0.8940 H   0  0  0  0  0  0  0  0  0  0  0  0
    0.4488    4.9812   -0.8302 H   0  0  0  0  0  0  0  0  0  0  0  0
   -3.1338    8.1097   -0.8452 H   0  0  0  0  0  0  0  0  0  0  0  0
   -2.1109    9.4808   -1.3525 H   0  0  0  0  0  0  0  0  0  0  0  0
   -2.7492    8.4264   -2.6041 H   0  0  0  0  0  0  0  0  0  0  0  0
   -3.4522    6.1590   -2.3820 H   0  0  0  0  0  0  0  0  0  0  0  0
   -4.1335    3.8160   -2.3694 H   0  0  0  0  0  0  0  0  0  0  0  0
   -5.1173    0.2485   -1.4349 H   0  0  0  0  0  0  0  0  0  0  0  0
   -6.5377   -0.0988   -3.4270 H   0  0  0  0  0  0  0  0  0  0  0  0
   -7.4173   -1.4575   -6.7926 H   0  0  0  0  0  0  0  0  0  0  0  0
   -5.9951   -1.2483   -7.7943 H   0  0  0  0  0  0  0  0  0  0  0  0
   -5.8078   -1.8728   -6.1134 H   0  0  0  0  0  0  0  0  0  0  0  0
   -3.4891    1.5641   -6.0101 H   0  0  0  0  0  0  0  0  0  0  0  0
   -2.0682    1.9622   -4.0619 H   0  0  0  0  0  0  0  0  0  0  0  0
   -2.4219   -1.8976   -2.9608 H   0  0  0  0  0  0  0  0  0  0  0  0
   -3.0179   -1.9483   -5.1651 H   0  0  0  0  0  0  0  0  0  0  0  0
   -2.5496   -3.1773   -8.0553 H   0  0  0  0  0  0  0  0  0  0  0  0
   -3.7881   -2.1951   -7.1296 H   0  0  0  0  0  0  0  0  0  0  0  0
   -3.5807   -1.9367   -8.8331 H   0  0  0  0  0  0  0  0  0  0  0  0
    0.5073    0.3418   -6.3347 H   0  0  0  0  0  0  0  0  0  0  0  0
    1.1651    0.3948   -3.9224 H   0  0  0  0  0  0  0  0  0  0  0  0
   -1.3134   -2.2333    0.2044 H   0  0  0  0  0  0  0  0  0  0  0  0
   -1.2610   -4.5970    0.6915 H   0  0  0  0  0  0  0  0  0  0  0  0
    0.0702   -7.9909   -2.8947 H   0  0  0  0  0  0  0  0  0  0  0  0
    1.2174   -8.6142   -1.6468 H   0  0  0  0  0  0  0  0  0  0  0  0
    1.6415   -7.1163   -2.4457 H   0  0  0  0  0  0  0  0  0  0  0  0
    0.8095   -5.2499   -3.0893 H   0  0  0  0  0  0  0  0  0  0  0  0
    0.8318   -2.9160   -3.5133 H   0  0  0  0  0  0  0  0  0  0  0  0
    6.3290   -2.3125    3.3711 H   0  0  0  0  0  0  0  0  0  0  0  0
    7.3354   -4.5639    3.1511 H   0  0  0  0  0  0  0  0  0  0  0  0
    4.5693   -7.3499    3.1584 H   0  0  0  0  0  0  0  0  0  0  0  0
    5.3115   -8.8297    2.4886 H   0  0  0  0  0  0  0  0  0  0  0  0
    6.1467   -7.9849    3.7758 H   0  0  0  0  0  0  0  0  0  0  0  0
    4.1881   -5.6539    0.3669 H   0  0  0  0  0  0  0  0  0  0  0  0
    3.1752   -3.4521    0.5755 H   0  0  0  0  0  0  0  0  0  0  0  0
    3.4939   -3.2687    4.0759 H   0  0  0  0  0  0  0  0  0  0  0  0
    2.9960   -2.8643    6.3474 H   0  0  0  0  0  0  0  0  0  0  0  0
    0.5608    0.3158    8.6390 H   0  0  0  0  0  0  0  0  0  0  0  0
    0.7411   -1.3576    9.0332 H   0  0  0  0  0  0  0  0  0  0  0  0
    0.3709   -0.9300    7.3320 H   0  0  0  0  0  0  0  0  0  0  0  0
    3.1650    1.4128    5.7253 H   0  0  0  0  0  0  0  0  0  0  0  0
    3.7318    1.0675    3.3005 H   0  0  0  0  0  0  0  0  0  0  0  0
    9.6321   -3.3871   -3.5378 H   0  0  0  0  0  0  0  0  0  0  0  0
   10.0682   -1.5832   -3.5641 H   0  0  0  0  0  0  0  0  0  0  0  0
    8.0497   -3.2830   -5.2791 H   0  0  0  0  0  0  0  0  0  0  0  0
    9.3306   -2.0621   -5.7651 H   0  0  0  0  0  0  0  0  0  0  0  0
    7.7407   -1.4962   -5.1030 H   0  0  0  0  0  0  0  0  0  0  0  0
    5.5784   -3.6736   -4.0745 H   0  0  0  0  0  0  0  0  0  0  0  0
    4.5659   -3.8036   -2.5420 H   0  0  0  0  0  0  0  0  0  0  0  0
    7.0437   -4.1341   -1.3470 H   0  0  0  0  0  0  0  0  0  0  0  0
    7.4545   -4.6925   -3.0402 H   0  0  0  0  0  0  0  0  0  0  0  0
    6.1315   -5.4673   -2.1361 H   0  0  0  0  0  0  0  0  0  0  0  0
   10.2355    0.3418   -0.2515 H   0  0  0  0  0  0  0  0  0  0  0  0
    4.1830    1.4487   -6.0468 H   0  0  0  0  0  0  0  0  0  0  0  0
    4.2860    3.1145   -5.7581 H   0  0  0  0  0  0  0  0  0  0  0  0
    3.5209    2.1259   -4.4034 H   0  0  0  0  0  0  0  0  0  0  0  0
    4.9588    4.6456   -4.0664 H   0  0  0  0  0  0  0  0  0  0  0  0
    6.1943    6.1782   -2.9344 H   0  0  0  0  0  0  0  0  0  0  0  0
    8.1029    5.6098   -1.9614 H   0  0  0  0  0  0  0  0  0  0  0  0
  1  2  2  3
  2  3  1  0
  3  4  2  0
  3  5  1  0
  5  6  2  0
  6  7  1  0
  7  8  2  0
  8  9  1  0
  9 10  2  0
 10 11  1  0
 11 12  2  3
 12 13  1  0
 13 14  3  0
 12 15  1  0
 15 16  3  0
  8 17  1  0
 17 18  1  0
 18 19  1  0
 19 20  2  0
 20 21  1  0
 21 22  1  0
 21 23  1  0
  1 24  1  0
 24 25  2  0
 25 26  1  0
 26 27  1  0
 27 28  2  0
 28 29  1  0
 29 30  2  0
 30 31  1  0
 31 32  1  0
 30 33  1  0
 33 34  2  0
 26 35  1  0
 35 36  2  0
 36 37  1  0
 37 38  2  0
 38 39  1  0
 39 40  1  0
 38 41  1  0
 41 42  2  0
 25 43  1  0
 43 44  1  0
 44 45  1  0
 45 46  2  0
 46 47  1  0
 47 48  1  0
 48 49  2  0
 49 50  1  0
 50 51  2  0
 51 52  1  0
 52 53  1  0
 51 54  1  0
 54 55  2  0
 47 56  1  0
 56 57  2  0
 57 58  1  0
 58 59  2  0
 59 60  1  0
 60 61  1  0
 59 62  1  0
 62 63  2  0
 46 64  1  0
 64 65  1  0
 45 66  1  0
 66 67  2  0
 67 68  1  0
 68 69  1  0
 69 70  2  0
 70 71  1  0
 71 72  2  0
 72 73  1  0
 73 74  1  0
 72 75  1  0
 75 76  2  0
 68 77  1  0
 77 78  2  0
 78 79  1  0
 79 80  2  0
 80 81  1  0
 81 82  1  0
 80 83  1  0
 83 84  2  0
 67 85  1  0
 85 86  1  0
 86 87  1  0
 87 88  2  0
 88 89  1  0
 89 90  1  0
 90 91  2  0
 91 92  1  0
 92 93  2  0
 93 94  1  0
 94 95  1  0
 93 96  1  0
 96 97  2  0
 89 98  1  0
 98 99  2  0
 99100  1  0
100101  2  0
101102  1  0
102103  1  0
101104  1  0
104105  2  0
 88106  1  0
106107  1  0
 87108  1  0
108109  1  0
109110  1  0
110111  2  0
111112  1  0
112113  1  0
110114  1  0
114115  2  0
115116  1  0
116117  1  0
117118  1  0
115119  1  0
119120  1  0
120121  1  0
121122  1  0
114123  1  0
123124  2  3
124125  1  0
125126  2  0
125127  1  0
127128  2  0
128129  1  0
129130  1  0
128131  1  0
131132  2  0
132133  1  0
133134  2  0
134135  1  0
135136  2  3
136137  1  0
137138  3  0
136139  1  0
139140  3  0
 11  2  1  0
 23 17  1  0
 65 24  1  0
107 66  1  0
119108  2  0
135124  1  0
 10  5  1  0
 22 18  1  0
 34 27  1  0
 42 35  1  0
 64 43  2  0
 76 69  1  0
 84 77  1  0
106 85  2  0
113109  2  0
134127  1  0
 23  7  1  0
 55 48  1  0
 63 56  1  0
 97 90  1  0
105 98  1  0
  1141  1  0
  6142  1  0
  9143  1  0
 17144  1  0
 18145  1  0
 19146  1  0
 20147  1  0
 21148  1  0
 22149  1  0
 22150  1  0
 23151  1  0
 28152  1  0
 29153  1  0
 32154  1  0
 32155  1  0
 32156  1  0
 33157  1  0
 34158  1  0
 36159  1  0
 37160  1  0
 40161  1  0
 40162  1  0
 40163  1  0
 41164  1  0
 42165  1  0
 49166  1  0
 50167  1  0
 53168  1  0
 53169  1  0
 53170  1  0
 54171  1  0
 55172  1  0
 57173  1  0
 58174  1  0
 61175  1  0
 61176  1  0
 61177  1  0
 62178  1  0
 63179  1  0
 70180  1  0
 71181  1  0
 74182  1  0
 74183  1  0
 74184  1  0
 75185  1  0
 76186  1  0
 78187  1  0
 79188  1  0
 82189  1  0
 82190  1  0
 82191  1  0
 83192  1  0
 84193  1  0
 91194  1  0
 92195  1  0
 95196  1  0
 95197  1  0
 95198  1  0
 96199  1  0
 97200  1  0
 99201  1  0
100202  1  0
103203  1  0
103204  1  0
103205  1  0
104206  1  0
105207  1  0
117208  1  0
117209  1  0
118210  1  0
118211  1  0
118212  1  0
121213  1  0
121214  1  0
122215  1  0
122216  1  0
122217  1  0
123218  1  0
130219  1  0
130220  1  0
130221  1  0
131222  1  0
132223  1  0
133224  1  0
M  END

