
     RDKit          3D

234258  0  0  0  0  0  0  0  0999 V2000
    1.2654   -4.6364    7.8114 C   0  0  0  0  0  0  0  0  0  0  0  0
    1.4290   -5.8940    7.3822 C   0  0  0  0  0  0  0  0  0  0  0  0
    1.7263   -6.3126    5.9888 C   0  0  0  0  0  0  0  0  0  0  0  0
    1.6715   -5.6062    4.9301 O   0  0  0  0  0  0  0  0  0  0  0  0
    2.0398   -7.7050    5.9558 C   0  0  0  0  0  0  0  0  0  0  0  0
    2.3961   -8.4440    4.7849 C   0  0  0  0  0  0  0  0  0  0  0  0
    2.6432   -9.7722    5.1086 C   0  0  0  0  0  0  0  0  0  0  0  0
    2.5236  -10.3190    6.4426 C   0  0  0  0  0  0  0  0  0  0  0  0
    2.1827   -9.5829    7.5847 C   0  0  0  0  0  0  0  0  0  0  0  0
    1.8949   -8.2314    7.2881 C   0  0  0  0  0  0  0  0  0  0  0  0
    1.4184   -7.1524    8.1992 C   0  0  0  0  0  0  0  0  0  0  0  0
    0.8837   -7.3307    9.4513 C   0  0  0  0  0  0  0  0  0  0  0  0
    0.3645   -6.2864   10.2381 C   0  0  0  0  0  0  0  0  0  0  0  0
   -0.0486   -5.3631   10.9200 N   0  0  0  0  0  0  0  0  0  0  0  0
    0.5524   -8.6191    9.9463 C   0  0  0  0  0  0  0  0  0  0  0  0
    0.2926   -9.7230   10.2973 N   0  0  0  0  0  0  0  0  0  0  0  0
    3.0335  -11.6431    5.9734 C   0  0  0  0  0  0  0  0  0  0  0  0
    4.5124  -12.0100    6.3455 C   0  0  0  0  0  0  0  0  0  0  0  0
    4.9162  -13.1497    5.4455 C   0  0  0  0  0  0  0  0  0  0  0  0
    5.0115  -12.6487    4.1895 C   0  0  0  0  0  0  0  0  0  0  0  0
    4.6975  -11.1685    4.3196 C   0  0  0  0  0  0  0  0  0  0  0  0
    5.3441  -10.9089    5.6735 C   0  0  0  0  0  0  0  0  0  0  0  0
    3.1651  -11.0789    4.5960 C   0  0  0  0  0  0  0  0  0  0  0  0
    1.1724   -3.5205    6.8469 C   0  0  0  0  0  0  0  0  0  0  0  0
   -0.0802   -3.0240    6.4444 C   0  0  0  0  0  0  0  0  0  0  0  0
   -1.2317   -3.3691    7.0315 N   0  0  0  0  0  0  0  0  0  0  0  0
   -2.3257   -2.7720    6.4821 C   0  0  0  0  0  0  0  0  0  0  0  0
   -3.7680   -3.0567    6.8127 C   0  0  0  0  0  0  0  0  0  0  0  0
   -4.7953   -2.1514    6.1019 C   0  0  0  0  0  0  0  0  0  0  0  0
   -1.7927   -1.8187    5.2383 S   0  0  0  0  0  0  0  0  0  0  0  0
   -0.1653   -2.1693    5.3035 C   0  0  0  0  0  0  0  0  0  0  0  0
    0.9576   -1.8224    4.5426 C   0  0  0  0  0  0  0  0  0  0  0  0
    2.2064   -2.2957    5.0049 C   0  0  0  0  0  0  0  0  0  0  0  0
    2.2832   -3.0922    6.1667 C   0  0  0  0  0  0  0  0  0  0  0  0
    3.8803   -3.5420    6.3938 S   0  0  0  0  0  0  0  0  0  0  0  0
    4.4336   -2.6798    5.0537 C   0  0  0  0  0  0  0  0  0  0  0  0
    5.8532   -2.5861    4.5812 C   0  0  0  0  0  0  0  0  0  0  0  0
    6.2067   -3.6926    3.5976 C   0  0  0  0  0  0  0  0  0  0  0  0
    3.3855   -2.1226    4.4306 N   0  0  0  0  0  0  0  0  0  0  0  0
    0.9821   -1.0027    3.2664 C   0  0  0  0  0  0  0  0  0  0  0  0
    0.0483   -0.9392    2.2291 C   0  0  0  0  0  0  0  0  0  0  0  0
   -1.3911   -1.1683    2.3253 N   0  0  0  0  0  0  0  0  0  0  0  0
   -2.1467    0.0366    2.5764 C   0  0  0  0  0  0  0  0  0  0  0  0
   -3.0978    0.4987    1.6498 C   0  0  0  0  0  0  0  0  0  0  0  0
   -3.7565    1.7311    1.8266 C   0  0  0  0  0  0  0  0  0  0  0  0
   -3.3676    2.6226    2.8469 C   0  0  0  0  0  0  0  0  0  0  0  0
   -4.0348    4.3099    2.7581 S   0  0  0  0  0  0  0  0  0  0  0  0
   -3.8289    4.8551    4.4999 C   0  0  0  0  0  0  0  0  0  0  0  0
   -2.2753    2.2449    3.6912 C   0  0  0  0  0  0  0  0  0  0  0  0
   -1.7252    0.9487    3.5977 C   0  0  0  0  0  0  0  0  0  0  0  0
   -1.8807   -2.4863    2.0806 C   0  0  0  0  0  0  0  0  0  0  0  0
   -3.2418   -2.7131    1.6882 C   0  0  0  0  0  0  0  0  0  0  0  0
   -3.6799   -3.9776    1.3015 C   0  0  0  0  0  0  0  0  0  0  0  0
   -2.8370   -5.0848    1.4047 C   0  0  0  0  0  0  0  0  0  0  0  0
   -3.4805   -6.7078    1.0748 S   0  0  0  0  0  0  0  0  0  0  0  0
   -2.8490   -6.8353   -0.6456 C   0  0  0  0  0  0  0  0  0  0  0  0
   -1.5384   -4.9098    1.9430 C   0  0  0  0  0  0  0  0  0  0  0  0
   -1.0659   -3.6371    2.2647 C   0  0  0  0  0  0  0  0  0  0  0  0
    0.5442   -0.2802    1.1486 C   0  0  0  0  0  0  0  0  0  0  0  0
   -0.2327    0.0799   -0.2635 S   0  0  0  0  0  0  0  0  0  0  0  0
    0.9922    1.1385   -0.8526 C   0  0  0  0  0  0  0  0  0  0  0  0
    2.0788    1.2026    0.1096 C   0  0  0  0  0  0  0  0  0  0  0  0
    2.9997    2.3365    0.2768 N   0  0  0  0  0  0  0  0  0  0  0  0
    2.4110    3.6485    0.4348 C   0  0  0  0  0  0  0  0  0  0  0  0
    2.9268    4.7627   -0.2727 C   0  0  0  0  0  0  0  0  0  0  0  0
    2.3492    6.0360   -0.0908 C   0  0  0  0  0  0  0  0  0  0  0  0
    1.2436    6.2666    0.7788 C   0  0  0  0  0  0  0  0  0  0  0  0
    0.5213    7.8788    1.0649 S   0  0  0  0  0  0  0  0  0  0  0  0
    1.2652    8.8277   -0.3185 C   0  0  0  0  0  0  0  0  0  0  0  0
    0.7902    5.1622    1.5461 C   0  0  0  0  0  0  0  0  0  0  0  0
    1.3767    3.8888    1.3720 C   0  0  0  0  0  0  0  0  0  0  0  0
    4.3646    2.2654    0.7739 C   0  0  0  0  0  0  0  0  0  0  0  0
    5.4364    2.7847    0.0263 C   0  0  0  0  0  0  0  0  0  0  0  0
    6.7118    2.9664    0.6195 C   0  0  0  0  0  0  0  0  0  0  0  0
    6.9512    2.5769    1.9474 C   0  0  0  0  0  0  0  0  0  0  0  0
    8.6185    2.8489    2.6343 S   0  0  0  0  0  0  0  0  0  0  0  0
    8.3048    2.4168    4.3936 C   0  0  0  0  0  0  0  0  0  0  0  0
    5.8950    2.0112    2.6783 C   0  0  0  0  0  0  0  0  0  0  0  0
    4.5956    1.9683    2.1090 C   0  0  0  0  0  0  0  0  0  0  0  0
    1.7740    0.2997    1.1935 C   0  0  0  0  0  0  0  0  0  0  0  0
    2.3335   -0.0903    2.7057 S   0  0  0  0  0  0  0  0  0  0  0  0
    0.5759    2.0298   -1.9452 C   0  0  0  0  0  0  0  0  0  0  0  0
    1.1549    2.7367   -3.0189 C   0  0  0  0  0  0  0  0  0  0  0  0
    2.5378    2.6840   -3.4027 N   0  0  0  0  0  0  0  0  0  0  0  0
    3.0882    1.4248   -3.7355 C   0  0  0  0  0  0  0  0  0  0  0  0
    2.6072    0.6748   -4.7961 C   0  0  0  0  0  0  0  0  0  0  0  0
    3.1370   -0.5813   -5.1480 C   0  0  0  0  0  0  0  0  0  0  0  0
    4.2490   -1.0919   -4.3971 C   0  0  0  0  0  0  0  0  0  0  0  0
    5.0821   -2.5330   -4.9500 S   0  0  0  0  0  0  0  0  0  0  0  0
    4.1138   -3.7637   -3.9888 C   0  0  0  0  0  0  0  0  0  0  0  0
    4.7674   -0.3099   -3.3335 C   0  0  0  0  0  0  0  0  0  0  0  0
    4.2060    0.9358   -2.9891 C   0  0  0  0  0  0  0  0  0  0  0  0
    3.1421    3.9676   -3.7851 C   0  0  0  0  0  0  0  0  0  0  0  0
    2.6162    5.1984   -3.3097 C   0  0  0  0  0  0  0  0  0  0  0  0
    3.2833    6.4109   -3.5176 C   0  0  0  0  0  0  0  0  0  0  0  0
    4.4733    6.4620   -4.2962 C   0  0  0  0  0  0  0  0  0  0  0  0
    5.1351    8.0451   -4.7807 S   0  0  0  0  0  0  0  0  0  0  0  0
    6.4377    8.2128   -3.5179 C   0  0  0  0  0  0  0  0  0  0  0  0
    4.9432    5.2646   -4.8306 C   0  0  0  0  0  0  0  0  0  0  0  0
    4.2803    4.0239   -4.5856 C   0  0  0  0  0  0  0  0  0  0  0  0
    0.1663    3.3851   -3.8758 C   0  0  0  0  0  0  0  0  0  0  0  0
    0.0276    4.6711   -5.0996 S   0  0  0  0  0  0  0  0  0  0  0  0
   -1.6937    4.7276   -4.9773 C   0  0  0  0  0  0  0  0  0  0  0  0
   -2.1062    3.5443   -4.3896 C   0  0  0  0  0  0  0  0  0  0  0  0
   -2.8863    2.5435   -5.2097 N   0  0  0  0  0  0  0  0  0  0  0  0
   -3.2638    2.7517   -6.5839 C   0  0  0  0  0  0  0  0  0  0  0  0
   -4.5866    2.9336   -7.0015 C   0  0  0  0  0  0  0  0  0  0  0  0
   -4.8874    3.3100   -8.4123 C   0  0  0  0  0  0  0  0  0  0  0  0
   -3.7848    3.4576   -9.3291 C   0  0  0  0  0  0  0  0  0  0  0  0
   -4.0090    3.5963  -11.1222 S   0  0  0  0  0  0  0  0  0  0  0  0
   -5.6131    4.4391  -11.2117 C   0  0  0  0  0  0  0  0  0  0  0  0
   -2.4909    3.2011   -8.8782 C   0  0  0  0  0  0  0  0  0  0  0  0
   -2.2081    2.7658   -7.5539 C   0  0  0  0  0  0  0  0  0  0  0  0
   -3.2251    1.2382   -4.7001 C   0  0  0  0  0  0  0  0  0  0  0  0
   -3.0020    0.1403   -5.5763 C   0  0  0  0  0  0  0  0  0  0  0  0
   -3.1601   -1.2141   -5.1277 C   0  0  0  0  0  0  0  0  0  0  0  0
   -3.4574   -1.4813   -3.7760 C   0  0  0  0  0  0  0  0  0  0  0  0
   -3.1400   -3.0957   -3.2208 S   0  0  0  0  0  0  0  0  0  0  0  0
   -4.3765   -3.1829   -1.8811 C   0  0  0  0  0  0  0  0  0  0  0  0
   -3.6646   -0.3952   -2.8925 C   0  0  0  0  0  0  0  0  0  0  0  0
   -3.6428    0.9839   -3.3493 C   0  0  0  0  0  0  0  0  0  0  0  0
   -1.1199    3.0429   -3.6107 C   0  0  0  0  0  0  0  0  0  0  0  0
   -1.1515    2.2713   -2.1867 S   0  0  0  0  0  0  0  0  0  0  0  0
   -2.7363    5.6794   -5.5866 C   0  0  0  0  0  0  0  0  0  0  0  0
   -3.9287    5.8930   -4.9568 C   0  0  0  0  0  0  0  0  0  0  0  0
   -4.5473    5.0979   -3.8262 C   0  0  0  0  0  0  0  0  0  0  0  0
   -4.1319    4.1419   -3.1080 O   0  0  0  0  0  0  0  0  0  0  0  0
   -5.7946    5.6687   -3.4447 C   0  0  0  0  0  0  0  0  0  0  0  0
   -6.5923    5.1657   -2.3827 C   0  0  0  0  0  0  0  0  0  0  0  0
   -7.5290    6.0971   -1.9383 C   0  0  0  0  0  0  0  0  0  0  0  0
   -7.6157    7.4098   -2.4921 C   0  0  0  0  0  0  0  0  0  0  0  0
   -6.8691    7.8923   -3.6293 C   0  0  0  0  0  0  0  0  0  0  0  0
   -5.9788    6.9267   -4.1211 C   0  0  0  0  0  0  0  0  0  0  0  0
   -4.8628    7.0711   -5.1455 C   0  0  0  0  0  0  0  0  0  0  0  0
   -4.6436    8.1647   -5.9380 C   0  0  0  0  0  0  0  0  0  0  0  0
   -5.5138    9.3025   -5.9604 C   0  0  0  0  0  0  0  0  0  0  0  0
   -6.2140   10.2596   -5.9830 N   0  0  0  0  0  0  0  0  0  0  0  0
   -3.3972    8.3995   -6.6312 C   0  0  0  0  0  0  0  0  0  0  0  0
   -2.4010    8.5689   -7.1323 N   0  0  0  0  0  0  0  0  0  0  0  0
   -8.4889    7.8109   -1.3314 C   0  0  0  0  0  0  0  0  0  0  0  0
   -7.8600    8.4683   -0.0381 C   0  0  0  0  0  0  0  0  0  0  0  0
   -6.5166    7.8871    0.3424 C   0  0  0  0  0  0  0  0  0  0  0  0
   -6.7363    6.6454    0.7658 C   0  0  0  0  0  0  0  0  0  0  0  0
   -8.2124    6.4061    0.6037 C   0  0  0  0  0  0  0  0  0  0  0  0
   -8.7054    7.7735    1.0326 C   0  0  0  0  0  0  0  0  0  0  0  0
   -8.5744    6.3813   -0.9193 C   0  0  0  0  0  0  0  0  0  0  0  0
    0.9576   -4.4081    8.7899 H   0  0  0  0  0  0  0  0  0  0  0  0
    2.5488   -8.0009    3.7445 H   0  0  0  0  0  0  0  0  0  0  0  0
    2.2299  -10.0681    8.5754 H   0  0  0  0  0  0  0  0  0  0  0  0
    2.3055  -12.4983    6.0562 H   0  0  0  0  0  0  0  0  0  0  0  0
    4.7355  -12.1836    7.4324 H   0  0  0  0  0  0  0  0  0  0  0  0
    5.2144  -14.1676    5.7158 H   0  0  0  0  0  0  0  0  0  0  0  0
    5.3494  -13.2240    3.3055 H   0  0  0  0  0  0  0  0  0  0  0  0
    5.0659  -10.5404    3.4710 H   0  0  0  0  0  0  0  0  0  0  0  0
    6.4828  -11.0692    5.7102 H   0  0  0  0  0  0  0  0  0  0  0  0
    5.2139   -9.8666    6.0981 H   0  0  0  0  0  0  0  0  0  0  0  0
    2.4881  -11.5525    3.8552 H   0  0  0  0  0  0  0  0  0  0  0  0
   -3.8911   -2.9551    7.8623 H   0  0  0  0  0  0  0  0  0  0  0  0
   -4.0161   -4.1116    6.5645 H   0  0  0  0  0  0  0  0  0  0  0  0
   -5.8009   -2.6480    6.0993 H   0  0  0  0  0  0  0  0  0  0  0  0
   -4.8762   -1.1435    6.6015 H   0  0  0  0  0  0  0  0  0  0  0  0
   -4.5699   -1.9619    5.0236 H   0  0  0  0  0  0  0  0  0  0  0  0
    6.5659   -2.5804    5.4570 H   0  0  0  0  0  0  0  0  0  0  0  0
    5.9796   -1.6196    4.0484 H   0  0  0  0  0  0  0  0  0  0  0  0
    5.8262   -3.4827    2.5781 H   0  0  0  0  0  0  0  0  0  0  0  0
    5.8268   -4.6812    3.9054 H   0  0  0  0  0  0  0  0  0  0  0  0
    7.3033   -3.8132    3.5421 H   0  0  0  0  0  0  0  0  0  0  0  0
   -3.2361   -0.0283    0.7231 H   0  0  0  0  0  0  0  0  0  0  0  0
   -4.5099    1.9825    1.0643 H   0  0  0  0  0  0  0  0  0  0  0  0
   -4.8205    5.2234    4.8902 H   0  0  0  0  0  0  0  0  0  0  0  0
   -3.1136    5.7254    4.4704 H   0  0  0  0  0  0  0  0  0  0  0  0
   -3.4673    4.1023    5.2336 H   0  0  0  0  0  0  0  0  0  0  0  0
   -1.8588    2.9000    4.4248 H   0  0  0  0  0  0  0  0  0  0  0  0
   -0.8628    0.7493    4.2714 H   0  0  0  0  0  0  0  0  0  0  0  0
   -3.9710   -1.9251    1.6479 H   0  0  0  0  0  0  0  0  0  0  0  0
   -4.7189   -4.0943    0.9490 H   0  0  0  0  0  0  0  0  0  0  0  0
   -2.7237   -5.8455   -1.1350 H   0  0  0  0  0  0  0  0  0  0  0  0
   -1.8854   -7.3464   -0.6655 H   0  0  0  0  0  0  0  0  0  0  0  0
   -3.5390   -7.4539   -1.2252 H   0  0  0  0  0  0  0  0  0  0  0  0
   -0.9036   -5.7713    2.1360 H   0  0  0  0  0  0  0  0  0  0  0  0
   -0.0578   -3.5627    2.6934 H   0  0  0  0  0  0  0  0  0  0  0  0
    3.7283    4.6415   -1.0432 H   0  0  0  0  0  0  0  0  0  0  0  0
    2.7851    6.7988   -0.7160 H   0  0  0  0  0  0  0  0  0  0  0  0
    2.3273    9.0789   -0.1075 H   0  0  0  0  0  0  0  0  0  0  0  0
    1.1799    8.3470   -1.3086 H   0  0  0  0  0  0  0  0  0  0  0  0
    0.7376    9.7866   -0.4193 H   0  0  0  0  0  0  0  0  0  0  0  0
   -0.0218    5.2964    2.3151 H   0  0  0  0  0  0  0  0  0  0  0  0
    0.9938    3.1007    2.0156 H   0  0  0  0  0  0  0  0  0  0  0  0
    5.2822    3.1686   -0.9701 H   0  0  0  0  0  0  0  0  0  0  0  0
    7.4824    3.4050    0.0607 H   0  0  0  0  0  0  0  0  0  0  0  0
    8.1998    1.3290    4.5231 H   0  0  0  0  0  0  0  0  0  0  0  0
    9.1453    2.7626    4.9822 H   0  0  0  0  0  0  0  0  0  0  0  0
    7.4280    2.9360    4.8210 H   0  0  0  0  0  0  0  0  0  0  0  0
    5.9602    1.6862    3.7458 H   0  0  0  0  0  0  0  0  0  0  0  0
    3.8137    1.8988    2.8057 H   0  0  0  0  0  0  0  0  0  0  0  0
    1.7865    1.0667   -5.4084 H   0  0  0  0  0  0  0  0  0  0  0  0
    2.7726   -1.1381   -6.0571 H   0  0  0  0  0  0  0  0  0  0  0  0
    4.2756   -3.6666   -2.9099 H   0  0  0  0  0  0  0  0  0  0  0  0
    4.4464   -4.7753   -4.2376 H   0  0  0  0  0  0  0  0  0  0  0  0
    3.0299   -3.7013   -4.2014 H   0  0  0  0  0  0  0  0  0  0  0  0
    5.6335   -0.6254   -2.7717 H   0  0  0  0  0  0  0  0  0  0  0  0
    4.6201    1.5429   -2.1687 H   0  0  0  0  0  0  0  0  0  0  0  0
    1.6955    5.2514   -2.6945 H   0  0  0  0  0  0  0  0  0  0  0  0
    2.8209    7.2965   -3.1195 H   0  0  0  0  0  0  0  0  0  0  0  0
    7.3619    7.6332   -3.7981 H   0  0  0  0  0  0  0  0  0  0  0  0
    6.7487    9.2730   -3.5026 H   0  0  0  0  0  0  0  0  0  0  0  0
    6.1255    7.9356   -2.4981 H   0  0  0  0  0  0  0  0  0  0  0  0
    5.7916    5.2473   -5.5570 H   0  0  0  0  0  0  0  0  0  0  0  0
    4.6704    3.1070   -5.0603 H   0  0  0  0  0  0  0  0  0  0  0  0
   -5.3725    2.9881   -6.2767 H   0  0  0  0  0  0  0  0  0  0  0  0
   -5.9470    3.4985   -8.6761 H   0  0  0  0  0  0  0  0  0  0  0  0
   -5.6405    5.4289  -10.7142 H   0  0  0  0  0  0  0  0  0  0  0  0
   -5.7813    4.6063  -12.2967 H   0  0  0  0  0  0  0  0  0  0  0  0
   -6.4300    3.7851  -10.8576 H   0  0  0  0  0  0  0  0  0  0  0  0
   -1.6528    3.2620   -9.5003 H   0  0  0  0  0  0  0  0  0  0  0  0
   -1.2070    2.6585   -7.2543 H   0  0  0  0  0  0  0  0  0  0  0  0
   -2.6554    0.2112   -6.5973 H   0  0  0  0  0  0  0  0  0  0  0  0
   -2.9025   -1.9550   -5.8471 H   0  0  0  0  0  0  0  0  0  0  0  0
   -5.4152   -2.9267   -2.1732 H   0  0  0  0  0  0  0  0  0  0  0  0
   -4.0448   -2.5563   -1.0491 H   0  0  0  0  0  0  0  0  0  0  0  0
   -4.3779   -4.1933   -1.5355 H   0  0  0  0  0  0  0  0  0  0  0  0
   -3.8112   -0.4569   -1.7996 H   0  0  0  0  0  0  0  0  0  0  0  0
   -3.7868    1.7429   -2.7019 H   0  0  0  0  0  0  0  0  0  0  0  0
   -2.5419    6.0990   -6.5968 H   0  0  0  0  0  0  0  0  0  0  0  0
   -6.3027    4.2586   -1.7597 H   0  0  0  0  0  0  0  0  0  0  0  0
   -7.0713    8.9449   -3.9716 H   0  0  0  0  0  0  0  0  0  0  0  0
   -9.4580    8.2274   -1.6591 H   0  0  0  0  0  0  0  0  0  0  0  0
   -7.8683    9.5767   -0.0245 H   0  0  0  0  0  0  0  0  0  0  0  0
   -5.4971    8.2672    0.1963 H   0  0  0  0  0  0  0  0  0  0  0  0
   -5.9605    5.9187    1.0867 H   0  0  0  0  0  0  0  0  0  0  0  0
   -8.6300    5.5670    1.1736 H   0  0  0  0  0  0  0  0  0  0  0  0
   -9.8158    7.9380    0.9294 H   0  0  0  0  0  0  0  0  0  0  0  0
   -8.4285    8.0755    2.0952 H   0  0  0  0  0  0  0  0  0  0  0  0
   -9.5913    5.9208   -1.2170 H   0  0  0  0  0  0  0  0  0  0  0  0
  1  2  2  3
  2  3  1  0
  3  4  2  0
  3  5  1  0
  5  6  2  0
  6  7  1  0
  7  8  2  0
  8  9  1  0
  9 10  2  0
 10 11  1  0
 11 12  2  3
 12 13  1  0
 13 14  3  0
 12 15  1  0
 15 16  3  0
  8 17  1  0
 17 18  1  0
 18 19  1  0
 19 20  2  0
 20 21  1  0
 21 22  1  0
 21 23  1  0
  1 24  1  0
 24 25  2  0
 25 26  1  0
 26 27  2  0
 27 28  1  0
 28 29  1  0
 27 30  1  0
 30 31  1  0
 31 32  2  0
 32 33  1  0
 33 34  2  0
 34 35  1  0
 35 36  1  0
 36 37  1  0
 37 38  1  0
 36 39  2  0
 32 40  1  0
 40 41  2  0
 41 42  1  0
 42 43  1  0
 43 44  2  0
 44 45  1  0
 45 46  2  0
 46 47  1  0
 47 48  1  0
 46 49  1  0
 49 50  2  0
 42 51  1  0
 51 52  2  0
 52 53  1  0
 53 54  2  0
 54 55  1  0
 55 56  1  0
 54 57  1  0
 57 58  2  0
 41 59  1  0
 59 60  1  0
 60 61  1  0
 61 62  2  0
 62 63  1  0
 63 64  1  0
 64 65  2  0
 65 66  1  0
 66 67  2  0
 67 68  1  0
 68 69  1  0
 67 70  1  0
 70 71  2  0
 63 72  1  0
 72 73  2  0
 73 74  1  0
 74 75  2  0
 75 76  1  0
 76 77  1  0
 75 78  1  0
 78 79  2  0
 62 80  1  0
 80 81  1  0
 61 82  1  0
 82 83  2  0
 83 84  1  0
 84 85  1  0
 85 86  2  0
 86 87  1  0
 87 88  2  0
 88 89  1  0
 89 90  1  0
 88 91  1  0
 91 92  2  0
 84 93  1  0
 93 94  2  0
 94 95  1  0
 95 96  2  0
 96 97  1  0
 97 98  1  0
 96 99  1  0
 99100  2  0
 83101  1  0
101102  1  0
102103  1  0
103104  2  0
104105  1  0
105106  1  0
106107  2  0
107108  1  0
108109  2  0
109110  1  0
110111  1  0
109112  1  0
112113  2  0
105114  1  0
114115  2  0
115116  1  0
116117  2  0
117118  1  0
118119  1  0
117120  1  0
120121  2  0
104122  1  0
122123  1  0
103124  1  0
124125  2  3
125126  1  0
126127  2  0
126128  1  0
128129  2  0
129130  1  0
130131  2  0
131132  1  0
132133  2  0
133134  1  0
134135  2  3
135136  1  0
136137  3  0
135138  1  0
138139  3  0
131140  1  0
140141  1  0
141142  1  0
142143  2  0
143144  1  0
144145  1  0
144146  1  0
 11  2  1  0
 23 17  1  0
 34 24  1  0
 81 40  1  0
123 82  1  0
134125  1  0
146140  1  0
 10  5  1  0
 22 18  1  0
 31 25  1  0
 39 33  1  0
 50 43  1  0
 58 51  1  0
 80 59  2  0
 92 85  1  0
100 93  1  0
122101  2  0
133128  1  0
145141  1  0
 23  7  1  0
 71 64  1  0
 79 72  1  0
113106  1  0
121114  1  0
146130  1  0
  1147  1  0
  6148  1  0
  9149  1  0
 17150  1  0
 18151  1  0
 19152  1  0
 20153  1  0
 21154  1  0
 22155  1  0
 22156  1  0
 23157  1  0
 28158  1  0
 28159  1  0
 29160  1  0
 29161  1  0
 29162  1  0
 37163  1  0
 37164  1  0
 38165  1  0
 38166  1  0
 38167  1  0
 44168  1  0
 45169  1  0
 48170  1  0
 48171  1  0
 48172  1  0
 49173  1  0
 50174  1  0
 52175  1  0
 53176  1  0
 56177  1  0
 56178  1  0
 56179  1  0
 57180  1  0
 58181  1  0
 65182  1  0
 66183  1  0
 69184  1  0
 69185  1  0
 69186  1  0
 70187  1  0
 71188  1  0
 73189  1  0
 74190  1  0
 77191  1  0
 77192  1  0
 77193  1  0
 78194  1  0
 79195  1  0
 86196  1  0
 87197  1  0
 90198  1  0
 90199  1  0
 90200  1  0
 91201  1  0
 92202  1  0
 94203  1  0
 95204  1  0
 98205  1  0
 98206  1  0
 98207  1  0
 99208  1  0
100209  1  0
107210  1  0
108211  1  0
111212  1  0
111213  1  0
111214  1  0
112215  1  0
113216  1  0
115217  1  0
116218  1  0
119219  1  0
119220  1  0
119221  1  0
120222  1  0
121223  1  0
124224  1  0
129225  1  0
132226  1  0
140227  1  0
141228  1  0
142229  1  0
143230  1  0
144231  1  0
145232  1  0
145233  1  0
146234  1  0
M  END

