
     RDKit          3D

265289  0  0  0  0  0  0  0  0999 V2000
    4.0553    3.4212   -6.6252 C   0  0  0  0  0  0  0  0  0  0  0  0
    5.2339    2.7688   -6.7133 C   0  0  0  0  0  0  0  0  0  0  0  0
    5.7078    1.7405   -5.7740 C   0  0  0  0  0  0  0  0  0  0  0  0
    4.9867    0.9870   -5.0569 O   0  0  0  0  0  0  0  0  0  0  0  0
    7.1467    1.7116   -5.7915 C   0  0  0  0  0  0  0  0  0  0  0  0
    7.9951    1.0234   -4.8928 C   0  0  0  0  0  0  0  0  0  0  0  0
    9.3352    1.2996   -5.0687 C   0  0  0  0  0  0  0  0  0  0  0  0
    9.8230    2.2033   -6.0691 C   0  0  0  0  0  0  0  0  0  0  0  0
    8.9961    2.8863   -6.9485 C   0  0  0  0  0  0  0  0  0  0  0  0
    7.6098    2.6039   -6.7923 C   0  0  0  0  0  0  0  0  0  0  0  0
    6.4360    3.1971   -7.4936 C   0  0  0  0  0  0  0  0  0  0  0  0
    6.4307    3.8146   -8.7024 C   0  0  0  0  0  0  0  0  0  0  0  0
    5.2038    4.1358   -9.3837 C   0  0  0  0  0  0  0  0  0  0  0  0
    4.2207    4.3970   -9.9399 N   0  0  0  0  0  0  0  0  0  0  0  0
    7.6320    4.0407   -9.4607 C   0  0  0  0  0  0  0  0  0  0  0  0
    8.5904    4.2172  -10.0881 N   0  0  0  0  0  0  0  0  0  0  0  0
   11.2318    1.9656   -5.6132 C   0  0  0  0  0  0  0  0  0  0  0  0
   12.1477    1.0597   -6.4892 C   0  0  0  0  0  0  0  0  0  0  0  0
   11.3210    0.0163   -7.2047 C   0  0  0  0  0  0  0  0  0  0  0  0
   10.8647   -0.8151   -6.2691 C   0  0  0  0  0  0  0  0  0  0  0  0
   11.3982   -0.3137   -4.9474 C   0  0  0  0  0  0  0  0  0  0  0  0
   12.7560    0.1796   -5.4099 C   0  0  0  0  0  0  0  0  0  0  0  0
   10.7321    1.0499   -4.5850 C   0  0  0  0  0  0  0  0  0  0  0  0
    3.0850    3.0937   -5.5777 C   0  0  0  0  0  0  0  0  0  0  0  0
    3.1902    3.5363   -4.2539 C   0  0  0  0  0  0  0  0  0  0  0  0
    3.7305    4.8097   -3.8644 N   0  0  0  0  0  0  0  0  0  0  0  0
    5.0407    4.8569   -3.2762 C   0  0  0  0  0  0  0  0  0  0  0  0
    6.1823    4.8278   -4.0901 C   0  0  0  0  0  0  0  0  0  0  0  0
    7.4564    4.8603   -3.5172 C   0  0  0  0  0  0  0  0  0  0  0  0
    7.5993    4.9636   -2.1304 C   0  0  0  0  0  0  0  0  0  0  0  0
    9.2325    5.0484   -1.3960 S   0  0  0  0  0  0  0  0  0  0  0  0
    9.3333    3.2548   -1.1114 C   0  0  0  0  0  0  0  0  0  0  0  0
    6.4617    5.0331   -1.3174 C   0  0  0  0  0  0  0  0  0  0  0  0
    5.1864    4.9723   -1.8866 C   0  0  0  0  0  0  0  0  0  0  0  0
    2.8841    5.9866   -3.8670 C   0  0  0  0  0  0  0  0  0  0  0  0
    3.4514    7.2707   -3.9816 C   0  0  0  0  0  0  0  0  0  0  0  0
    2.6381    8.4078   -3.9908 C   0  0  0  0  0  0  0  0  0  0  0  0
    1.2477    8.2847   -3.8692 C   0  0  0  0  0  0  0  0  0  0  0  0
    0.2151    9.7507   -3.8742 S   0  0  0  0  0  0  0  0  0  0  0  0
   -0.0984    9.6735   -5.6652 C   0  0  0  0  0  0  0  0  0  0  0  0
    0.6738    7.0172   -3.7517 C   0  0  0  0  0  0  0  0  0  0  0  0
    1.4816    5.8771   -3.7561 C   0  0  0  0  0  0  0  0  0  0  0  0
    2.5018    2.6971   -3.3879 C   0  0  0  0  0  0  0  0  0  0  0  0
    2.3220    2.6416   -1.7278 S   0  0  0  0  0  0  0  0  0  0  0  0
    1.3240    1.2588   -1.7682 C   0  0  0  0  0  0  0  0  0  0  0  0
    1.0930    0.8757   -3.1082 C   0  0  0  0  0  0  0  0  0  0  0  0
   -0.0304    0.0672   -3.5253 N   0  0  0  0  0  0  0  0  0  0  0  0
   -1.3795    0.5338   -3.2694 C   0  0  0  0  0  0  0  0  0  0  0  0
   -1.6528    1.9067   -3.1187 C   0  0  0  0  0  0  0  0  0  0  0  0
   -2.9549    2.3625   -2.9253 C   0  0  0  0  0  0  0  0  0  0  0  0
   -4.0185    1.4534   -2.8779 C   0  0  0  0  0  0  0  0  0  0  0  0
   -5.6925    2.0586   -2.6292 S   0  0  0  0  0  0  0  0  0  0  0  0
   -6.0120    2.3461   -4.3959 C   0  0  0  0  0  0  0  0  0  0  0  0
   -3.7704    0.0817   -3.0092 C   0  0  0  0  0  0  0  0  0  0  0  0
   -2.4599   -0.3743   -3.2077 C   0  0  0  0  0  0  0  0  0  0  0  0
    0.1731   -1.0101   -4.4584 C   0  0  0  0  0  0  0  0  0  0  0  0
   -0.0183   -0.8049   -5.8317 C   0  0  0  0  0  0  0  0  0  0  0  0
    0.1799   -1.8529   -6.7381 C   0  0  0  0  0  0  0  0  0  0  0  0
    0.5504   -3.1216   -6.2749 C   0  0  0  0  0  0  0  0  0  0  0  0
    0.8478   -4.4533   -7.4386 S   0  0  0  0  0  0  0  0  0  0  0  0
    2.6380   -4.1207   -7.5361 C   0  0  0  0  0  0  0  0  0  0  0  0
    0.6875   -3.3452   -4.9040 C   0  0  0  0  0  0  0  0  0  0  0  0
    0.5053   -2.2954   -4.0019 C   0  0  0  0  0  0  0  0  0  0  0  0
    1.8143    1.6891   -3.9753 C   0  0  0  0  0  0  0  0  0  0  0  0
    2.0655    1.7304   -5.6287 S   0  0  0  0  0  0  0  0  0  0  0  0
    0.9680    0.4291   -0.6047 C   0  0  0  0  0  0  0  0  0  0  0  0
    0.4786    0.8280    0.6551 C   0  0  0  0  0  0  0  0  0  0  0  0
    0.7131    2.1127    1.2585 N   0  0  0  0  0  0  0  0  0  0  0  0
    2.0815    2.5226    1.5093 C   0  0  0  0  0  0  0  0  0  0  0  0
    2.4018    3.8859    1.6373 C   0  0  0  0  0  0  0  0  0  0  0  0
    3.7246    4.2859    1.8744 C   0  0  0  0  0  0  0  0  0  0  0  0
    4.7394    3.3300    1.9939 C   0  0  0  0  0  0  0  0  0  0  0  0
    6.4286    3.8373    2.3285 S   0  0  0  0  0  0  0  0  0  0  0  0
    6.2458    3.6901    4.1335 C   0  0  0  0  0  0  0  0  0  0  0  0
    4.4364    1.9734    1.8480 C   0  0  0  0  0  0  0  0  0  0  0  0
    3.1192    1.5698    1.6207 C   0  0  0  0  0  0  0  0  0  0  0  0
   -0.3696    2.7312    1.9848 C   0  0  0  0  0  0  0  0  0  0  0  0
   -0.2369    3.0160    3.3565 C   0  0  0  0  0  0  0  0  0  0  0  0
   -1.3161    3.5243    4.0827 C   0  0  0  0  0  0  0  0  0  0  0  0
   -2.5392    3.7680    3.4435 C   0  0  0  0  0  0  0  0  0  0  0  0
   -3.9284    4.3986    4.3874 S   0  0  0  0  0  0  0  0  0  0  0  0
   -3.5341    6.1449    4.0394 C   0  0  0  0  0  0  0  0  0  0  0  0
   -2.6809    3.4857    2.0757 C   0  0  0  0  0  0  0  0  0  0  0  0
   -1.6052    2.9610    1.3532 C   0  0  0  0  0  0  0  0  0  0  0  0
    0.0816   -0.2881    1.3958 C   0  0  0  0  0  0  0  0  0  0  0  0
   -0.7976   -0.5406    2.8012 S   0  0  0  0  0  0  0  0  0  0  0  0
   -0.8584   -2.2424    2.6475 C   0  0  0  0  0  0  0  0  0  0  0  0
   -0.1113   -2.5995    1.5126 C   0  0  0  0  0  0  0  0  0  0  0  0
    0.4027   -3.9229    1.2807 N   0  0  0  0  0  0  0  0  0  0  0  0
   -0.1551   -4.8040    0.2740 C   0  0  0  0  0  0  0  0  0  0  0  0
   -1.1348   -4.3454   -0.6323 C   0  0  0  0  0  0  0  0  0  0  0  0
   -1.6857   -5.2075   -1.5825 C   0  0  0  0  0  0  0  0  0  0  0  0
   -1.2385   -6.5295   -1.6724 C   0  0  0  0  0  0  0  0  0  0  0  0
   -1.9196   -7.6349   -2.9055 S   0  0  0  0  0  0  0  0  0  0  0  0
   -0.8298   -7.0122   -4.2225 C   0  0  0  0  0  0  0  0  0  0  0  0
   -0.2462   -6.9899   -0.8054 C   0  0  0  0  0  0  0  0  0  0  0  0
    0.2885   -6.1377    0.1611 C   0  0  0  0  0  0  0  0  0  0  0  0
    1.6395   -4.2414    1.9461 C   0  0  0  0  0  0  0  0  0  0  0  0
    1.6457   -5.0567    3.0868 C   0  0  0  0  0  0  0  0  0  0  0  0
    2.8453   -5.3014    3.7691 C   0  0  0  0  0  0  0  0  0  0  0  0
    4.0366   -4.7109    3.3336 C   0  0  0  0  0  0  0  0  0  0  0  0
    5.5615   -4.9662    4.2449 S   0  0  0  0  0  0  0  0  0  0  0  0
    5.2729   -3.5666    5.3754 C   0  0  0  0  0  0  0  0  0  0  0  0
    4.0366   -3.9102    2.1884 C   0  0  0  0  0  0  0  0  0  0  0  0
    2.8474   -3.6857    1.4911 C   0  0  0  0  0  0  0  0  0  0  0  0
    0.3438   -1.4863    0.8285 C   0  0  0  0  0  0  0  0  0  0  0  0
    1.0138   -1.2658   -0.6754 S   0  0  0  0  0  0  0  0  0  0  0  0
   -2.1208   -2.9321    2.9267 C   0  0  0  0  0  0  0  0  0  0  0  0
   -2.7956   -2.9691    4.1560 C   0  0  0  0  0  0  0  0  0  0  0  0
   -2.1770   -2.6698    5.4145 N   0  0  0  0  0  0  0  0  0  0  0  0
   -1.2880   -3.6528    5.9635 C   0  0  0  0  0  0  0  0  0  0  0  0
   -1.7996   -4.7584    6.6595 C   0  0  0  0  0  0  0  0  0  0  0  0
   -0.9308   -5.6963    7.2289 C   0  0  0  0  0  0  0  0  0  0  0  0
    0.4536   -5.5456    7.0815 C   0  0  0  0  0  0  0  0  0  0  0  0
    1.5836   -6.7395    7.8064 S   0  0  0  0  0  0  0  0  0  0  0  0
    1.3796   -7.9743    6.4815 C   0  0  0  0  0  0  0  0  0  0  0  0
    0.9649   -4.4372    6.3912 C   0  0  0  0  0  0  0  0  0  0  0  0
    0.0989   -3.4962    5.8328 C   0  0  0  0  0  0  0  0  0  0  0  0
   -2.4839   -1.4538    6.1408 C   0  0  0  0  0  0  0  0  0  0  0  0
   -2.1884   -1.3480    7.5157 C   0  0  0  0  0  0  0  0  0  0  0  0
   -2.5157   -0.1923    8.2281 C   0  0  0  0  0  0  0  0  0  0  0  0
   -3.1384    0.8805    7.5824 C   0  0  0  0  0  0  0  0  0  0  0  0
   -3.5819    2.3528    8.5150 S   0  0  0  0  0  0  0  0  0  0  0  0
   -5.2279    1.7137    8.9672 C   0  0  0  0  0  0  0  0  0  0  0  0
   -3.3946    0.8094    6.2082 C   0  0  0  0  0  0  0  0  0  0  0  0
   -3.0788   -0.3524    5.4934 C   0  0  0  0  0  0  0  0  0  0  0  0
   -4.1596   -3.2375    3.9916 C   0  0  0  0  0  0  0  0  0  0  0  0
   -5.5054   -3.1728    5.0059 S   0  0  0  0  0  0  0  0  0  0  0  0
   -6.6169   -3.2847    3.7017 C   0  0  0  0  0  0  0  0  0  0  0  0
   -5.9268   -3.4405    2.4802 C   0  0  0  0  0  0  0  0  0  0  0  0
   -6.5423   -3.2838    1.1831 N   0  0  0  0  0  0  0  0  0  0  0  0
   -6.3798   -4.2438    0.1013 C   0  0  0  0  0  0  0  0  0  0  0  0
   -5.5454   -5.3742    0.2345 C   0  0  0  0  0  0  0  0  0  0  0  0
   -5.3565   -6.2604   -0.8331 C   0  0  0  0  0  0  0  0  0  0  0  0
   -6.0348   -6.0625   -2.0401 C   0  0  0  0  0  0  0  0  0  0  0  0
   -5.8514   -7.2424   -3.3836 S   0  0  0  0  0  0  0  0  0  0  0  0
   -4.7843   -6.1654   -4.3925 C   0  0  0  0  0  0  0  0  0  0  0  0
   -6.9048   -4.9784   -2.1762 C   0  0  0  0  0  0  0  0  0  0  0  0
   -7.0644   -4.0700   -1.1258 C   0  0  0  0  0  0  0  0  0  0  0  0
   -7.1148   -1.9953    0.9066 C   0  0  0  0  0  0  0  0  0  0  0  0
   -8.4922   -1.7802    1.0658 C   0  0  0  0  0  0  0  0  0  0  0  0
   -9.0366   -0.5128    0.8346 C   0  0  0  0  0  0  0  0  0  0  0  0
   -8.2127    0.5338    0.4091 C   0  0  0  0  0  0  0  0  0  0  0  0
   -8.9161    2.1571    0.1107 S   0  0  0  0  0  0  0  0  0  0  0  0
   -9.5642    1.7033   -1.5271 C   0  0  0  0  0  0  0  0  0  0  0  0
   -6.8391    0.3195    0.2401 C   0  0  0  0  0  0  0  0  0  0  0  0
   -6.2965   -0.9493    0.4567 C   0  0  0  0  0  0  0  0  0  0  0  0
   -4.5562   -3.3904    2.6984 C   0  0  0  0  0  0  0  0  0  0  0  0
   -3.2527   -3.1777    1.6788 S   0  0  0  0  0  0  0  0  0  0  0  0
   -8.0753   -3.3345    3.8065 C   0  0  0  0  0  0  0  0  0  0  0  0
   -8.8764   -2.5189    4.5172 C   0  0  0  0  0  0  0  0  0  0  0  0
  -10.3065   -2.7978    4.6598 C   0  0  0  0  0  0  0  0  0  0  0  0
  -10.9551   -3.6583    4.0039 O   0  0  0  0  0  0  0  0  0  0  0  0
  -10.8384   -1.9845    5.7377 C   0  0  0  0  0  0  0  0  0  0  0  0
  -12.1044   -2.0268    6.3284 C   0  0  0  0  0  0  0  0  0  0  0  0
  -13.3729   -3.0459    5.6539 Cl  0  0  0  0  0  0  0  0  0  0  0  0
  -12.3343   -1.2501    7.4833 C   0  0  0  0  0  0  0  0  0  0  0  0
  -13.9225   -1.2645    8.2454 Cl  0  0  0  0  0  0  0  0  0  0  0  0
  -11.2690   -0.5124    8.0580 C   0  0  0  0  0  0  0  0  0  0  0  0
  -11.5326    0.3988    9.5486 Cl  0  0  0  0  0  0  0  0  0  0  0  0
   -9.9874   -0.5196    7.4600 C   0  0  0  0  0  0  0  0  0  0  0  0
   -8.5962    0.0882    8.3632 Cl  0  0  0  0  0  0  0  0  0  0  0  0
   -9.8180   -1.1927    6.2337 C   0  0  0  0  0  0  0  0  0  0  0  0
   -8.6050   -1.3177    5.3747 C   0  0  0  0  0  0  0  0  0  0  0  0
   -7.8134   -0.2571    5.0488 C   0  0  0  0  0  0  0  0  0  0  0  0
   -6.7540   -0.2983    4.0785 C   0  0  0  0  0  0  0  0  0  0  0  0
   -5.8889   -0.2837    3.3158 N   0  0  0  0  0  0  0  0  0  0  0  0
   -8.1031    1.0739    5.5220 C   0  0  0  0  0  0  0  0  0  0  0  0
   -8.3427    2.1503    5.8802 N   0  0  0  0  0  0  0  0  0  0  0  0
    3.8733    4.3182   -7.1996 H   0  0  0  0  0  0  0  0  0  0  0  0
    7.6292    0.3613   -4.1164 H   0  0  0  0  0  0  0  0  0  0  0  0
    9.4064    3.6000   -7.6446 H   0  0  0  0  0  0  0  0  0  0  0  0
   11.7268    2.8723   -5.1993 H   0  0  0  0  0  0  0  0  0  0  0  0
   12.8834    1.5999   -7.1280 H   0  0  0  0  0  0  0  0  0  0  0  0
   11.1934   -0.0963   -8.2782 H   0  0  0  0  0  0  0  0  0  0  0  0
   10.2980   -1.7215   -6.4464 H   0  0  0  0  0  0  0  0  0  0  0  0
   11.4147   -1.0633   -4.1277 H   0  0  0  0  0  0  0  0  0  0  0  0
   13.3071    0.7556   -4.6292 H   0  0  0  0  0  0  0  0  0  0  0  0
   13.4102   -0.6314   -5.8163 H   0  0  0  0  0  0  0  0  0  0  0  0
   10.9116    1.4056   -3.5445 H   0  0  0  0  0  0  0  0  0  0  0  0
    6.0864    4.8093   -5.1635 H   0  0  0  0  0  0  0  0  0  0  0  0
    8.3283    4.8175   -4.1556 H   0  0  0  0  0  0  0  0  0  0  0  0
    8.5689    2.9476   -0.3678 H   0  0  0  0  0  0  0  0  0  0  0  0
    9.1749    2.7048   -2.0636 H   0  0  0  0  0  0  0  0  0  0  0  0
   10.3373    3.0079   -0.7149 H   0  0  0  0  0  0  0  0  0  0  0  0
    6.5670    5.1331   -0.2477 H   0  0  0  0  0  0  0  0  0  0  0  0
    4.3079    5.0251   -1.2532 H   0  0  0  0  0  0  0  0  0  0  0  0
    4.5227    7.3913   -4.0930 H   0  0  0  0  0  0  0  0  0  0  0  0
    3.0833    9.3906   -4.0866 H   0  0  0  0  0  0  0  0  0  0  0  0
   -0.7372    8.7938   -5.8979 H   0  0  0  0  0  0  0  0  0  0  0  0
   -0.6206   10.5988   -5.9824 H   0  0  0  0  0  0  0  0  0  0  0  0
    0.8573    9.5936   -6.2259 H   0  0  0  0  0  0  0  0  0  0  0  0
   -0.4005    6.9111   -3.6594 H   0  0  0  0  0  0  0  0  0  0  0  0
    1.0017    4.9141   -3.6592 H   0  0  0  0  0  0  0  0  0  0  0  0
   -0.8636    2.6416   -3.1988 H   0  0  0  0  0  0  0  0  0  0  0  0
   -3.1399    3.4244   -2.8375 H   0  0  0  0  0  0  0  0  0  0  0  0
   -7.0665    2.6561   -4.5211 H   0  0  0  0  0  0  0  0  0  0  0  0
   -5.8385    1.4208   -4.9807 H   0  0  0  0  0  0  0  0  0  0  0  0
   -5.3549    3.1553   -4.7745 H   0  0  0  0  0  0  0  0  0  0  0  0
   -4.5890   -0.6273   -2.9664 H   0  0  0  0  0  0  0  0  0  0  0  0
   -2.2920   -1.4367   -3.3077 H   0  0  0  0  0  0  0  0  0  0  0  0
   -0.3501    0.1600   -6.2040 H   0  0  0  0  0  0  0  0  0  0  0  0
    0.0540   -1.6746   -7.7983 H   0  0  0  0  0  0  0  0  0  0  0  0
    2.8116   -3.0539   -7.7871 H   0  0  0  0  0  0  0  0  0  0  0  0
    3.1197   -4.3511   -6.5567 H   0  0  0  0  0  0  0  0  0  0  0  0
    3.0933   -4.7623   -8.3183 H   0  0  0  0  0  0  0  0  0  0  0  0
    0.9690   -4.3246   -4.5298 H   0  0  0  0  0  0  0  0  0  0  0  0
    0.5811   -2.5088   -2.9481 H   0  0  0  0  0  0  0  0  0  0  0  0
    1.6303    4.6403    1.5424 H   0  0  0  0  0  0  0  0  0  0  0  0
    3.9553    5.3387    1.9815 H   0  0  0  0  0  0  0  0  0  0  0  0
    6.1192    2.6224    4.4105 H   0  0  0  0  0  0  0  0  0  0  0  0
    7.1647    4.0818    4.6195 H   0  0  0  0  0  0  0  0  0  0  0  0
    5.3728    4.2781    4.4902 H   0  0  0  0  0  0  0  0  0  0  0  0
    5.2130    1.2271    1.9322 H   0  0  0  0  0  0  0  0  0  0  0  0
    2.9198    0.5096    1.5347 H   0  0  0  0  0  0  0  0  0  0  0  0
    0.6940    2.8143    3.8739 H   0  0  0  0  0  0  0  0  0  0  0  0
   -1.2030    3.7206    5.1413 H   0  0  0  0  0  0  0  0  0  0  0  0
   -4.2571    6.7942    4.5752 H   0  0  0  0  0  0  0  0  0  0  0  0
   -2.5084    6.3940    4.3919 H   0  0  0  0  0  0  0  0  0  0  0  0
   -3.6090    6.3481    2.9483 H   0  0  0  0  0  0  0  0  0  0  0  0
   -3.6245    3.6701    1.5768 H   0  0  0  0  0  0  0  0  0  0  0  0
   -1.7305    2.7364    0.3006 H   0  0  0  0  0  0  0  0  0  0  0  0
   -1.4743   -3.3172   -0.6160 H   0  0  0  0  0  0  0  0  0  0  0  0
   -2.4480   -4.8420   -2.2540 H   0  0  0  0  0  0  0  0  0  0  0  0
   -1.0760   -7.5221   -5.1746 H   0  0  0  0  0  0  0  0  0  0  0  0
   -0.9875   -5.9214   -4.3553 H   0  0  0  0  0  0  0  0  0  0  0  0
    0.2338   -7.2064   -3.9667 H   0  0  0  0  0  0  0  0  0  0  0  0
    0.1060   -8.0110   -0.8780 H   0  0  0  0  0  0  0  0  0  0  0  0
    1.0566   -6.5321    0.8166 H   0  0  0  0  0  0  0  0  0  0  0  0
    0.7211   -5.4861    3.4538 H   0  0  0  0  0  0  0  0  0  0  0  0
    2.8494   -5.9295    4.6480 H   0  0  0  0  0  0  0  0  0  0  0  0
    4.4846   -3.8350    6.1078 H   0  0  0  0  0  0  0  0  0  0  0  0
    6.2101   -3.3370    5.9210 H   0  0  0  0  0  0  0  0  0  0  0  0
    4.9654   -2.6585    4.8106 H   0  0  0  0  0  0  0  0  0  0  0  0
    4.9565   -3.4547    1.8417 H   0  0  0  0  0  0  0  0  0  0  0  0
    2.8731   -3.0726    0.6013 H   0  0  0  0  0  0  0  0  0  0  0  0
   -2.8681   -4.8789    6.7760 H   0  0  0  0  0  0  0  0  0  0  0  0
   -1.3320   -6.5455    7.7673 H   0  0  0  0  0  0  0  0  0  0  0  0
    2.2463   -8.6648    6.4899 H   0  0  0  0  0  0  0  0  0  0  0  0
    0.4573   -8.5594    6.6637 H   0  0  0  0  0  0  0  0  0  0  0  0
    1.3148   -7.4952    5.4838 H   0  0  0  0  0  0  0  0  0  0  0  0
    2.0326   -4.2895    6.2897 H   0  0  0  0  0  0  0  0  0  0  0  0
    0.5081   -2.6464    5.2964 H   0  0  0  0  0  0  0  0  0  0  0  0
   -1.7230   -2.1646    8.0488 H   0  0  0  0  0  0  0  0  0  0  0  0
   -2.3082   -0.1387    9.2878 H   0  0  0  0  0  0  0  0  0  0  0  0
   -5.7882    2.5030    9.5126 H   0  0  0  0  0  0  0  0  0  0  0  0
   -5.1244    0.8221    9.6252 H   0  0  0  0  0  0  0  0  0  0  0  0
   -5.7936    1.4445    8.0500 H   0  0  0  0  0  0  0  0  0  0  0  0
   -3.8406    1.6528    5.6990 H   0  0  0  0  0  0  0  0  0  0  0  0
   -3.2926   -0.3744    4.4330 H   0  0  0  0  0  0  0  0  0  0  0  0
   -5.0216   -5.5741    1.1550 H   0  0  0  0  0  0  0  0  0  0  0  0
   -4.6977   -7.1118   -0.7177 H   0  0  0  0  0  0  0  0  0  0  0  0
   -3.9755   -5.7229   -3.7815 H   0  0  0  0  0  0  0  0  0  0  0  0
   -4.3307   -6.7637   -5.2074 H   0  0  0  0  0  0  0  0  0  0  0  0
   -5.3908   -5.3538   -4.8389 H   0  0  0  0  0  0  0  0  0  0  0  0
   -7.4469   -4.8261   -3.1011 H   0  0  0  0  0  0  0  0  0  0  0  0
   -7.7346   -3.2342   -1.2800 H   0  0  0  0  0  0  0  0  0  0  0  0
   -9.1415   -2.5933    1.3661 H   0  0  0  0  0  0  0  0  0  0  0  0
  -10.0971   -0.3521    0.9726 H   0  0  0  0  0  0  0  0  0  0  0  0
  -10.0387    2.5929   -1.9869 H   0  0  0  0  0  0  0  0  0  0  0  0
   -8.7437    1.3452   -2.1869 H   0  0  0  0  0  0  0  0  0  0  0  0
  -10.3338    0.9093   -1.4219 H   0  0  0  0  0  0  0  0  0  0  0  0
   -6.1848    1.1300   -0.0404 H   0  0  0  0  0  0  0  0  0  0  0  0
   -5.2340   -1.1151    0.3086 H   0  0  0  0  0  0  0  0  0  0  0  0
   -8.5377   -4.1290    3.2279 H   0  0  0  0  0  0  0  0  0  0  0  0
  1  2  2  3
  2  3  1  0
  3  4  2  0
  3  5  1  0
  5  6  2  0
  6  7  1  0
  7  8  2  0
  8  9  1  0
  9 10  2  0
 10 11  1  0
 11 12  2  3
 12 13  1  0
 13 14  3  0
 12 15  1  0
 15 16  3  0
  8 17  1  0
 17 18  1  0
 18 19  1  0
 19 20  2  0
 20 21  1  0
 21 22  1  0
 21 23  1  0
  1 24  1  0
 24 25  2  0
 25 26  1  0
 26 27  1  0
 27 28  2  0
 28 29  1  0
 29 30  2  0
 30 31  1  0
 31 32  1  0
 30 33  1  0
 33 34  2  0
 26 35  1  0
 35 36  2  0
 36 37  1  0
 37 38  2  0
 38 39  1  0
 39 40  1  0
 38 41  1  0
 41 42  2  0
 25 43  1  0
 43 44  1  0
 44 45  1  0
 45 46  2  0
 46 47  1  0
 47 48  1  0
 48 49  2  0
 49 50  1  0
 50 51  2  0
 51 52  1  0
 52 53  1  0
 51 54  1  0
 54 55  2  0
 47 56  1  0
 56 57  2  0
 57 58  1  0
 58 59  2  0
 59 60  1  0
 60 61  1  0
 59 62  1  0
 62 63  2  0
 46 64  1  0
 64 65  1  0
 45 66  1  0
 66 67  2  0
 67 68  1  0
 68 69  1  0
 69 70  2  0
 70 71  1  0
 71 72  2  0
 72 73  1  0
 73 74  1  0
 72 75  1  0
 75 76  2  0
 68 77  1  0
 77 78  2  0
 78 79  1  0
 79 80  2  0
 80 81  1  0
 81 82  1  0
 80 83  1  0
 83 84  2  0
 67 85  1  0
 85 86  1  0
 86 87  1  0
 87 88  2  0
 88 89  1  0
 89 90  1  0
 90 91  2  0
 91 92  1  0
 92 93  2  0
 93 94  1  0
 94 95  1  0
 93 96  1  0
 96 97  2  0
 89 98  1  0
 98 99  2  0
 99100  1  0
100101  2  0
101102  1  0
102103  1  0
101104  1  0
104105  2  0
 88106  1  0
106107  1  0
 87108  1  0
108109  2  0
109110  1  0
110111  1  0
111112  2  0
112113  1  0
113114  2  0
114115  1  0
115116  1  0
114117  1  0
117118  2  0
110119  1  0
119120  2  0
120121  1  0
121122  2  0
122123  1  0
123124  1  0
122125  1  0
125126  2  0
109127  1  0
127128  1  0
128129  1  0
129130  2  0
130131  1  0
131132  1  0
132133  2  0
133134  1  0
134135  2  0
135136  1  0
136137  1  0
135138  1  0
138139  2  0
131140  1  0
140141  2  0
141142  1  0
142143  2  0
143144  1  0
144145  1  0
143146  1  0
146147  2  0
130148  1  0
148149  1  0
129150  1  0
150151  2  3
151152  1  0
152153  2  0
152154  1  0
154155  2  0
155156  1  0
155157  1  0
157158  1  0
157159  2  0
159160  1  0
159161  1  0
161162  1  0
161163  2  0
163164  1  0
164165  2  3
165166  1  0
166167  3  0
165168  1  0
168169  3  0
 11  2  1  0
 23 17  1  0
 65 24  1  0
107 66  1  0
149108  1  0
164151  1  0
 10  5  1  0
 22 18  1  0
 34 27  1  0
 42 35  1  0
 64 43  2  0
 76 69  1  0
 84 77  1  0
106 85  2  0
118111  1  0
126119  1  0
148127  2  0
163154  1  0
 23  7  1  0
 55 48  1  0
 63 56  1  0
 97 90  1  0
105 98  1  0
139132  1  0
147140  1  0
  1170  1  0
  6171  1  0
  9172  1  0
 17173  1  0
 18174  1  0
 19175  1  0
 20176  1  0
 21177  1  0
 22178  1  0
 22179  1  0
 23180  1  0
 28181  1  0
 29182  1  0
 32183  1  0
 32184  1  0
 32185  1  0
 33186  1  0
 34187  1  0
 36188  1  0
 37189  1  0
 40190  1  0
 40191  1  0
 40192  1  0
 41193  1  0
 42194  1  0
 49195  1  0
 50196  1  0
 53197  1  0
 53198  1  0
 53199  1  0
 54200  1  0
 55201  1  0
 57202  1  0
 58203  1  0
 61204  1  0
 61205  1  0
 61206  1  0
 62207  1  0
 63208  1  0
 70209  1  0
 71210  1  0
 74211  1  0
 74212  1  0
 74213  1  0
 75214  1  0
 76215  1  0
 78216  1  0
 79217  1  0
 82218  1  0
 82219  1  0
 82220  1  0
 83221  1  0
 84222  1  0
 91223  1  0
 92224  1  0
 95225  1  0
 95226  1  0
 95227  1  0
 96228  1  0
 97229  1  0
 99230  1  0
100231  1  0
103232  1  0
103233  1  0
103234  1  0
104235  1  0
105236  1  0
112237  1  0
113238  1  0
116239  1  0
116240  1  0
116241  1  0
117242  1  0
118243  1  0
120244  1  0
121245  1  0
124246  1  0
124247  1  0
124248  1  0
125249  1  0
126250  1  0
133251  1  0
134252  1  0
137253  1  0
137254  1  0
137255  1  0
138256  1  0
139257  1  0
141258  1  0
142259  1  0
145260  1  0
145261  1  0
145262  1  0
146263  1  0
147264  1  0
150265  1  0
M  END

