
     RDKit          3D

214236  0  0  0  0  0  0  0  0999 V2000
    3.9363   -5.8237   -1.3507 C   0  0  0  0  0  0  0  0  0  0  0  0
    3.7688   -5.7607   -2.6840 C   0  0  0  0  0  0  0  0  0  0  0  0
    4.4744   -4.8131   -3.5381 C   0  0  0  0  0  0  0  0  0  0  0  0
    5.5856   -4.2834   -3.2783 O   0  0  0  0  0  0  0  0  0  0  0  0
    3.7095   -4.5906   -4.7419 C   0  0  0  0  0  0  0  0  0  0  0  0
    4.0079   -3.6773   -5.7791 C   0  0  0  0  0  0  0  0  0  0  0  0
    3.0098   -3.5613   -6.7212 C   0  0  0  0  0  0  0  0  0  0  0  0
    1.7907   -4.3088   -6.6663 C   0  0  0  0  0  0  0  0  0  0  0  0
    1.5136   -5.2362   -5.6783 C   0  0  0  0  0  0  0  0  0  0  0  0
    2.5289   -5.3808   -4.6908 C   0  0  0  0  0  0  0  0  0  0  0  0
    2.5733   -6.2328   -3.4630 C   0  0  0  0  0  0  0  0  0  0  0  0
    1.6982   -7.2257   -3.1174 C   0  0  0  0  0  0  0  0  0  0  0  0
    1.8467   -8.0487   -1.9487 C   0  0  0  0  0  0  0  0  0  0  0  0
    1.9514   -8.7183   -1.0136 N   0  0  0  0  0  0  0  0  0  0  0  0
    0.5284   -7.5394   -3.8957 C   0  0  0  0  0  0  0  0  0  0  0  0
   -0.4248   -7.7996   -4.5039 N   0  0  0  0  0  0  0  0  0  0  0  0
    1.2931   -3.6227   -7.8978 C   0  0  0  0  0  0  0  0  0  0  0  0
    1.3010   -4.4625   -9.2077 C   0  0  0  0  0  0  0  0  0  0  0  0
    1.1484   -3.4744  -10.3411 C   0  0  0  0  0  0  0  0  0  0  0  0
    2.2935   -2.7835  -10.3985 C   0  0  0  0  0  0  0  0  0  0  0  0
    3.1822   -3.3334   -9.3097 C   0  0  0  0  0  0  0  0  0  0  0  0
    2.7697   -4.7979   -9.3956 C   0  0  0  0  0  0  0  0  0  0  0  0
    2.5491   -2.8672   -7.9652 C   0  0  0  0  0  0  0  0  0  0  0  0
    4.1255   -4.5840   -0.5884 C   0  0  0  0  0  0  0  0  0  0  0  0
    2.8059   -3.7144   -0.0375 S   0  0  0  0  0  0  0  0  0  0  0  0
    3.6660   -2.6274    0.9058 C   0  0  0  0  0  0  0  0  0  0  0  0
    5.0237   -2.9521    0.8319 C   0  0  0  0  0  0  0  0  0  0  0  0
    6.1060   -2.2706    1.5779 C   0  0  0  0  0  0  0  0  0  0  0  0
    5.8470   -1.2903    2.3216 O   0  0  0  0  0  0  0  0  0  0  0  0
    7.4865   -2.7816    1.4230 C   0  0  0  0  0  0  0  0  0  0  0  0
    8.6286   -2.2653    2.0505 C   0  0  0  0  0  0  0  0  0  0  0  0
    8.7257   -1.1179    3.0163 C   0  0  0  0  0  0  0  0  0  0  0  0
    8.3452   -1.5610    4.4225 C   0  0  0  0  0  0  0  0  0  0  0  0
    9.9434   -3.2025    1.5840 S   0  0  0  0  0  0  0  0  0  0  0  0
    9.1097   -4.2532    0.5688 C   0  0  0  0  0  0  0  0  0  0  0  0
    9.7586   -5.3925   -0.1642 C   0  0  0  0  0  0  0  0  0  0  0  0
    9.5572   -6.7062    0.5839 C   0  0  0  0  0  0  0  0  0  0  0  0
    7.7549   -3.8946    0.5859 C   0  0  0  0  0  0  0  0  0  0  0  0
    6.6571   -4.5748   -0.1569 C   0  0  0  0  0  0  0  0  0  0  0  0
    6.8869   -5.5655   -0.9037 O   0  0  0  0  0  0  0  0  0  0  0  0
    5.2832   -4.0567   -0.0074 C   0  0  0  0  0  0  0  0  0  0  0  0
    2.9888   -1.6756    1.7874 C   0  0  0  0  0  0  0  0  0  0  0  0
    2.3560   -0.4988    1.3256 C   0  0  0  0  0  0  0  0  0  0  0  0
    2.9323    0.4363    0.3821 N   0  0  0  0  0  0  0  0  0  0  0  0
    2.9197    1.8579    0.6631 C   0  0  0  0  0  0  0  0  0  0  0  0
    2.8521    2.7848   -0.3948 C   0  0  0  0  0  0  0  0  0  0  0  0
    2.9680    4.1546   -0.1363 C   0  0  0  0  0  0  0  0  0  0  0  0
    3.1261    4.6181    1.1717 C   0  0  0  0  0  0  0  0  0  0  0  0
    3.3092    6.3787    1.4866 S   0  0  0  0  0  0  0  0  0  0  0  0
    5.1232    6.2946    1.5784 C   0  0  0  0  0  0  0  0  0  0  0  0
    3.1657    3.7055    2.2320 C   0  0  0  0  0  0  0  0  0  0  0  0
    3.0859    2.3334    1.9770 C   0  0  0  0  0  0  0  0  0  0  0  0
    3.7982   -0.0245   -0.6670 C   0  0  0  0  0  0  0  0  0  0  0  0
    3.3030   -0.8254   -1.7043 C   0  0  0  0  0  0  0  0  0  0  0  0
    4.1504   -1.2533   -2.7320 C   0  0  0  0  0  0  0  0  0  0  0  0
    5.4986   -0.8615   -2.7418 C   0  0  0  0  0  0  0  0  0  0  0  0
    6.6059   -1.4020   -4.0441 S   0  0  0  0  0  0  0  0  0  0  0  0
    5.9474   -0.2538   -5.2908 C   0  0  0  0  0  0  0  0  0  0  0  0
    5.9911   -0.0514   -1.7140 C   0  0  0  0  0  0  0  0  0  0  0  0
    5.1501    0.3625   -0.6811 C   0  0  0  0  0  0  0  0  0  0  0  0
    1.2110   -0.2298    2.0774 C   0  0  0  0  0  0  0  0  0  0  0  0
   -0.0438    0.8642    1.9628 S   0  0  0  0  0  0  0  0  0  0  0  0
   -0.9317    0.2227    3.2822 C   0  0  0  0  0  0  0  0  0  0  0  0
   -0.1841   -0.8286    3.8507 C   0  0  0  0  0  0  0  0  0  0  0  0
   -0.3053   -1.2836    5.2147 N   0  0  0  0  0  0  0  0  0  0  0  0
    0.7552   -0.9063    6.1263 C   0  0  0  0  0  0  0  0  0  0  0  0
    1.2644    0.4099    6.0981 C   0  0  0  0  0  0  0  0  0  0  0  0
    2.3997    0.7424    6.8425 C   0  0  0  0  0  0  0  0  0  0  0  0
    3.0395   -0.2191    7.6233 C   0  0  0  0  0  0  0  0  0  0  0  0
    4.5442    0.1934    8.5007 S   0  0  0  0  0  0  0  0  0  0  0  0
    5.6364   -0.3400    7.1373 C   0  0  0  0  0  0  0  0  0  0  0  0
    2.5141   -1.5168    7.6976 C   0  0  0  0  0  0  0  0  0  0  0  0
    1.3796   -1.8556    6.9549 C   0  0  0  0  0  0  0  0  0  0  0  0
   -1.2378   -2.3158    5.5703 C   0  0  0  0  0  0  0  0  0  0  0  0
   -1.3833   -3.4595    4.7587 C   0  0  0  0  0  0  0  0  0  0  0  0
   -2.1686   -4.5298    5.1922 C   0  0  0  0  0  0  0  0  0  0  0  0
   -2.8283   -4.4677    6.4212 C   0  0  0  0  0  0  0  0  0  0  0  0
   -3.8070   -5.8620    6.9881 S   0  0  0  0  0  0  0  0  0  0  0  0
   -5.3587   -5.2244    6.2895 C   0  0  0  0  0  0  0  0  0  0  0  0
   -2.7017   -3.3300    7.2277 C   0  0  0  0  0  0  0  0  0  0  0  0
   -1.9100   -2.2620    6.8021 C   0  0  0  0  0  0  0  0  0  0  0  0
    0.9731   -1.0619    3.1162 C   0  0  0  0  0  0  0  0  0  0  0  0
    2.1433   -2.2571    3.1531 S   0  0  0  0  0  0  0  0  0  0  0  0
   -2.3085    0.6768    3.6112 C   0  0  0  0  0  0  0  0  0  0  0  0
   -3.2396    0.8574    2.5642 C   0  0  0  0  0  0  0  0  0  0  0  0
   -2.9802    0.3969    1.3082 N   0  0  0  0  0  0  0  0  0  0  0  0
   -3.7839    0.6790    0.2473 C   0  0  0  0  0  0  0  0  0  0  0  0
   -3.4643    0.1128   -1.0798 C   0  0  0  0  0  0  0  0  0  0  0  0
   -4.4602   -0.5286   -1.8373 C   0  0  0  0  0  0  0  0  0  0  0  0
   -4.1700   -1.0319   -3.1064 C   0  0  0  0  0  0  0  0  0  0  0  0
   -2.8702   -0.9325   -3.6260 C   0  0  0  0  0  0  0  0  0  0  0  0
   -2.6053   -1.4864   -4.8814 O   0  0  0  0  0  0  0  0  0  0  0  0
   -1.6211   -2.4985   -5.0823 C   0  0  0  0  0  0  0  0  0  0  0  0
   -2.0602   -3.7978   -4.4216 C   0  0  0  0  0  0  0  0  0  0  0  0
   -1.8681   -0.3004   -2.8724 C   0  0  0  0  0  0  0  0  0  0  0  0
   -2.1647    0.2136   -1.6051 C   0  0  0  0  0  0  0  0  0  0  0  0
   -1.1866    0.8514   -0.9124 F   0  0  0  0  0  0  0  0  0  0  0  0
   -0.6167   -0.1499   -3.3700 F   0  0  0  0  0  0  0  0  0  0  0  0
   -5.1413   -1.6637   -3.8196 F   0  0  0  0  0  0  0  0  0  0  0  0
   -5.7004   -0.7231   -1.3271 F   0  0  0  0  0  0  0  0  0  0  0  0
   -4.8767    1.5408    0.4424 C   0  0  0  0  0  0  0  0  0  0  0  0
   -5.5032    2.2533   -0.6962 C   0  0  0  0  0  0  0  0  0  0  0  0
   -4.7218    3.1413   -1.4569 C   0  0  0  0  0  0  0  0  0  0  0  0
   -3.4446    3.4231   -1.0857 F   0  0  0  0  0  0  0  0  0  0  0  0
   -5.2474    3.7286   -2.6108 C   0  0  0  0  0  0  0  0  0  0  0  0
   -4.4608    4.5938   -3.3010 F   0  0  0  0  0  0  0  0  0  0  0  0
   -6.5652    3.4256   -3.0204 C   0  0  0  0  0  0  0  0  0  0  0  0
   -7.1007    3.8664   -4.2476 O   0  0  0  0  0  0  0  0  0  0  0  0
   -6.3604    4.5065   -5.2874 C   0  0  0  0  0  0  0  0  0  0  0  0
   -7.1355    4.4289   -6.5920 C   0  0  0  0  0  0  0  0  0  0  0  0
   -7.3725    2.6369   -2.1888 C   0  0  0  0  0  0  0  0  0  0  0  0
   -8.6637    2.3961   -2.5322 F   0  0  0  0  0  0  0  0  0  0  0  0
   -6.8482    2.0547   -1.0258 C   0  0  0  0  0  0  0  0  0  0  0  0
   -7.6326    1.2532   -0.2586 F   0  0  0  0  0  0  0  0  0  0  0  0
   -5.1888    1.9192    1.7117 N   0  0  0  0  0  0  0  0  0  0  0  0
   -4.4247    1.5773    2.7852 C   0  0  0  0  0  0  0  0  0  0  0  0
   -4.7433    2.0514    4.0701 C   0  0  0  0  0  0  0  0  0  0  0  0
   -3.8777    1.7503    5.1337 C   0  0  0  0  0  0  0  0  0  0  0  0
   -2.6566    1.1003    4.9093 C   0  0  0  0  0  0  0  0  0  0  0  0
   -1.7831    0.9672    5.9380 F   0  0  0  0  0  0  0  0  0  0  0  0
   -4.1644    2.1892    6.3813 F   0  0  0  0  0  0  0  0  0  0  0  0
   -5.9695    2.8437    4.2969 C   0  0  0  0  0  0  0  0  0  0  0  0
   -6.2286    3.9950    3.6446 C   0  0  0  0  0  0  0  0  0  0  0  0
   -5.2572    4.7040    2.7965 C   0  0  0  0  0  0  0  0  0  0  0  0
   -4.0248    4.4677    2.7136 O   0  0  0  0  0  0  0  0  0  0  0  0
   -5.9204    5.7850    2.1222 C   0  0  0  0  0  0  0  0  0  0  0  0
   -5.3520    6.6448    1.1512 C   0  0  0  0  0  0  0  0  0  0  0  0
   -6.2327    7.5699    0.6451 C   0  0  0  0  0  0  0  0  0  0  0  0
   -7.5984    7.6559    1.0533 C   0  0  0  0  0  0  0  0  0  0  0  0
   -8.1643    6.8098    1.9879 C   0  0  0  0  0  0  0  0  0  0  0  0
   -7.2680    5.8543    2.5535 C   0  0  0  0  0  0  0  0  0  0  0  0
   -7.5191    4.7642    3.5557 C   0  0  0  0  0  0  0  0  0  0  0  0
   -8.6744    4.5429    4.2447 C   0  0  0  0  0  0  0  0  0  0  0  0
   -9.8276    5.4031    4.1339 C   0  0  0  0  0  0  0  0  0  0  0  0
  -10.7644    6.0819    4.0679 N   0  0  0  0  0  0  0  0  0  0  0  0
   -8.8604    3.4601    5.1689 C   0  0  0  0  0  0  0  0  0  0  0  0
   -9.0328    2.5932    5.9242 N   0  0  0  0  0  0  0  0  0  0  0  0
   -7.8153    8.8165    0.1274 C   0  0  0  0  0  0  0  0  0  0  0  0
   -7.8893   10.2281    0.7847 C   0  0  0  0  0  0  0  0  0  0  0  0
   -7.7066   11.2171   -0.3451 C   0  0  0  0  0  0  0  0  0  0  0  0
   -6.4259   11.1212   -0.7255 C   0  0  0  0  0  0  0  0  0  0  0  0
   -5.7940   10.0693    0.1488 C   0  0  0  0  0  0  0  0  0  0  0  0
   -6.5268   10.3793    1.4421 C   0  0  0  0  0  0  0  0  0  0  0  0
   -6.4221    8.7139   -0.2961 C   0  0  0  0  0  0  0  0  0  0  0  0
    3.4078   -6.5589   -0.7771 H   0  0  0  0  0  0  0  0  0  0  0  0
    4.9057   -3.0837   -5.8019 H   0  0  0  0  0  0  0  0  0  0  0  0
    0.5696   -5.7474   -5.6759 H   0  0  0  0  0  0  0  0  0  0  0  0
    0.3857   -2.9941   -7.7311 H   0  0  0  0  0  0  0  0  0  0  0  0
    0.5982   -5.3240   -9.2301 H   0  0  0  0  0  0  0  0  0  0  0  0
    0.3235   -3.3937  -11.0393 H   0  0  0  0  0  0  0  0  0  0  0  0
    2.5479   -2.0438  -11.1516 H   0  0  0  0  0  0  0  0  0  0  0  0
    4.2670   -3.1295   -9.4219 H   0  0  0  0  0  0  0  0  0  0  0  0
    3.1970   -5.4439   -8.5929 H   0  0  0  0  0  0  0  0  0  0  0  0
    3.0008   -5.2598  -10.3843 H   0  0  0  0  0  0  0  0  0  0  0  0
    2.4353   -1.7661   -7.8407 H   0  0  0  0  0  0  0  0  0  0  0  0
    9.7711   -0.7469    3.0322 H   0  0  0  0  0  0  0  0  0  0  0  0
    8.0804   -0.2774    2.6910 H   0  0  0  0  0  0  0  0  0  0  0  0
    7.3257   -2.0100    4.4331 H   0  0  0  0  0  0  0  0  0  0  0  0
    8.3588   -0.6827    5.1081 H   0  0  0  0  0  0  0  0  0  0  0  0
    9.0775   -2.3161    4.7986 H   0  0  0  0  0  0  0  0  0  0  0  0
   10.8472   -5.1919   -0.2565 H   0  0  0  0  0  0  0  0  0  0  0  0
    9.3502   -5.4594   -1.1941 H   0  0  0  0  0  0  0  0  0  0  0  0
   10.0932   -6.6760    1.5552 H   0  0  0  0  0  0  0  0  0  0  0  0
    9.9656   -7.5346   -0.0337 H   0  0  0  0  0  0  0  0  0  0  0  0
    8.4772   -6.8946    0.7741 H   0  0  0  0  0  0  0  0  0  0  0  0
    2.7328    2.4416   -1.4138 H   0  0  0  0  0  0  0  0  0  0  0  0
    2.9465    4.8533   -0.9604 H   0  0  0  0  0  0  0  0  0  0  0  0
    5.5343    5.7894    0.6799 H   0  0  0  0  0  0  0  0  0  0  0  0
    5.5318    7.3259    1.6343 H   0  0  0  0  0  0  0  0  0  0  0  0
    5.4254    5.7348    2.4883 H   0  0  0  0  0  0  0  0  0  0  0  0
    3.2870    4.0539    3.2476 H   0  0  0  0  0  0  0  0  0  0  0  0
    3.1894    1.6385    2.8137 H   0  0  0  0  0  0  0  0  0  0  0  0
    2.2642   -1.1270   -1.7083 H   0  0  0  0  0  0  0  0  0  0  0  0
    3.7576   -1.8791   -3.5195 H   0  0  0  0  0  0  0  0  0  0  0  0
    6.5704   -0.3180   -6.2104 H   0  0  0  0  0  0  0  0  0  0  0  0
    5.9751    0.7892   -4.9056 H   0  0  0  0  0  0  0  0  0  0  0  0
    4.9019   -0.5316   -5.5480 H   0  0  0  0  0  0  0  0  0  0  0  0
    7.0317    0.2520   -1.7105 H   0  0  0  0  0  0  0  0  0  0  0  0
    5.5598    0.9828    0.1108 H   0  0  0  0  0  0  0  0  0  0  0  0
    0.8100    1.1590    5.4645 H   0  0  0  0  0  0  0  0  0  0  0  0
    2.7878    1.7521    6.7901 H   0  0  0  0  0  0  0  0  0  0  0  0
    5.6722   -1.4543    7.1073 H   0  0  0  0  0  0  0  0  0  0  0  0
    5.2715    0.0508    6.1585 H   0  0  0  0  0  0  0  0  0  0  0  0
    6.6632    0.0555    7.3133 H   0  0  0  0  0  0  0  0  0  0  0  0
    3.0032   -2.2699    8.3004 H   0  0  0  0  0  0  0  0  0  0  0  0
    1.0234   -2.8817    6.9781 H   0  0  0  0  0  0  0  0  0  0  0  0
   -0.8438   -3.5386    3.8220 H   0  0  0  0  0  0  0  0  0  0  0  0
   -2.2482   -5.4176    4.5740 H   0  0  0  0  0  0  0  0  0  0  0  0
   -5.2198   -4.9337    5.2282 H   0  0  0  0  0  0  0  0  0  0  0  0
   -6.1326   -6.0165    6.3445 H   0  0  0  0  0  0  0  0  0  0  0  0
   -5.6987   -4.3467    6.8754 H   0  0  0  0  0  0  0  0  0  0  0  0
   -3.2044   -3.2761    8.1844 H   0  0  0  0  0  0  0  0  0  0  0  0
   -1.7952   -1.3977    7.4445 H   0  0  0  0  0  0  0  0  0  0  0  0
   -1.5139   -2.6776   -6.1726 H   0  0  0  0  0  0  0  0  0  0  0  0
   -0.6336   -2.1829   -4.6815 H   0  0  0  0  0  0  0  0  0  0  0  0
   -1.3500   -4.6098   -4.6709 H   0  0  0  0  0  0  0  0  0  0  0  0
   -2.1016   -3.6688   -3.3168 H   0  0  0  0  0  0  0  0  0  0  0  0
   -3.0685   -4.0866   -4.7943 H   0  0  0  0  0  0  0  0  0  0  0  0
   -6.2190    5.5771   -5.0325 H   0  0  0  0  0  0  0  0  0  0  0  0
   -5.3822    4.0046   -5.4349 H   0  0  0  0  0  0  0  0  0  0  0  0
   -8.0971    4.9882   -6.5034 H   0  0  0  0  0  0  0  0  0  0  0  0
   -6.5358    4.8755   -7.4206 H   0  0  0  0  0  0  0  0  0  0  0  0
   -7.3703    3.3702   -6.8514 H   0  0  0  0  0  0  0  0  0  0  0  0
   -6.6544    2.4288    4.9983 H   0  0  0  0  0  0  0  0  0  0  0  0
   -4.3232    6.5859    0.8272 H   0  0  0  0  0  0  0  0  0  0  0  0
   -9.2149    6.8927    2.2155 H   0  0  0  0  0  0  0  0  0  0  0  0
   -8.5554    8.6118   -0.6745 H   0  0  0  0  0  0  0  0  0  0  0  0
   -8.7652   10.4104    1.4444 H   0  0  0  0  0  0  0  0  0  0  0  0
   -8.4219   11.9544   -0.6964 H   0  0  0  0  0  0  0  0  0  0  0  0
   -5.9262   11.7818   -1.4342 H   0  0  0  0  0  0  0  0  0  0  0  0
   -4.6844   10.0930    0.2007 H   0  0  0  0  0  0  0  0  0  0  0  0
   -6.3324    9.6474    2.2574 H   0  0  0  0  0  0  0  0  0  0  0  0
   -6.3282   11.4090    1.8320 H   0  0  0  0  0  0  0  0  0  0  0  0
   -6.2734    8.4348   -1.3613 H   0  0  0  0  0  0  0  0  0  0  0  0
  1  2  2  3
  2  3  1  0
  3  4  2  0
  3  5  1  0
  5  6  2  0
  6  7  1  0
  7  8  2  0
  8  9  1  0
  9 10  2  0
 10 11  1  0
 11 12  2  3
 12 13  1  0
 13 14  3  0
 12 15  1  0
 15 16  3  0
  8 17  1  0
 17 18  1  0
 18 19  1  0
 19 20  2  0
 20 21  1  0
 21 22  1  0
 21 23  1  0
  1 24  1  0
 24 25  1  0
 25 26  1  0
 26 27  2  0
 27 28  1  0
 28 29  2  0
 28 30  1  0
 30 31  2  0
 31 32  1  0
 32 33  1  0
 31 34  1  0
 34 35  1  0
 35 36  1  0
 36 37  1  0
 35 38  2  0
 38 39  1  0
 39 40  2  0
 39 41  1  0
 26 42  1  0
 42 43  2  0
 43 44  1  0
 44 45  1  0
 45 46  2  0
 46 47  1  0
 47 48  2  0
 48 49  1  0
 49 50  1  0
 48 51  1  0
 51 52  2  0
 44 53  1  0
 53 54  2  0
 54 55  1  0
 55 56  2  0
 56 57  1  0
 57 58  1  0
 56 59  1  0
 59 60  2  0
 43 61  1  0
 61 62  1  0
 62 63  1  0
 63 64  2  0
 64 65  1  0
 65 66  1  0
 66 67  2  0
 67 68  1  0
 68 69  2  0
 69 70  1  0
 70 71  1  0
 69 72  1  0
 72 73  2  0
 65 74  1  0
 74 75  2  0
 75 76  1  0
 76 77  2  0
 77 78  1  0
 78 79  1  0
 77 80  1  0
 80 81  2  0
 64 82  1  0
 82 83  1  0
 63 84  1  0
 84 85  1  0
 85 86  2  0
 86 87  1  0
 87 88  1  0
 88 89  2  0
 89 90  1  0
 90 91  2  0
 91 92  1  0
 92 93  1  0
 93 94  1  0
 91 95  1  0
 95 96  2  0
 96 97  1  0
 95 98  1  0
 90 99  1  0
 89100  1  0
 87101  2  0
101102  1  0
102103  2  0
103104  1  0
103105  1  0
105106  1  0
105107  2  0
107108  1  0
108109  1  0
109110  1  0
107111  1  0
111112  1  0
111113  2  0
113114  1  0
101115  1  0
115116  2  0
116117  1  0
117118  2  0
118119  1  0
119120  1  0
118121  1  0
117122  1  0
122123  2  3
123124  1  0
124125  2  0
124126  1  0
126127  2  0
127128  1  0
128129  2  0
129130  1  0
130131  2  0
131132  1  0
132133  2  3
133134  1  0
134135  3  0
133136  1  0
136137  3  0
129138  1  0
138139  1  0
139140  1  0
140141  2  0
141142  1  0
142143  1  0
142144  1  0
 11  2  1  0
 23 17  1  0
 41 24  2  0
 83 42  1  0
119 84  2  0
132123  1  0
144138  1  0
 10  5  1  0
 22 18  1  0
 41 27  1  0
 52 45  1  0
 60 53  1  0
 82 61  2  0
116 85  1  0
131126  1  0
143139  1  0
 23  7  1  0
 38 30  1  0
 73 66  1  0
 81 74  1  0
 96 88  1  0
113102  1  0
144128  1  0
  1145  1  0
  6146  1  0
  9147  1  0
 17148  1  0
 18149  1  0
 19150  1  0
 20151  1  0
 21152  1  0
 22153  1  0
 22154  1  0
 23155  1  0
 32156  1  0
 32157  1  0
 33158  1  0
 33159  1  0
 33160  1  0
 36161  1  0
 36162  1  0
 37163  1  0
 37164  1  0
 37165  1  0
 46166  1  0
 47167  1  0
 50168  1  0
 50169  1  0
 50170  1  0
 51171  1  0
 52172  1  0
 54173  1  0
 55174  1  0
 58175  1  0
 58176  1  0
 58177  1  0
 59178  1  0
 60179  1  0
 67180  1  0
 68181  1  0
 71182  1  0
 71183  1  0
 71184  1  0
 72185  1  0
 73186  1  0
 75187  1  0
 76188  1  0
 79189  1  0
 79190  1  0
 79191  1  0
 80192  1  0
 81193  1  0
 93194  1  0
 93195  1  0
 94196  1  0
 94197  1  0
 94198  1  0
109199  1  0
109200  1  0
110201  1  0
110202  1  0
110203  1  0
122204  1  0
127205  1  0
130206  1  0
138207  1  0
139208  1  0
140209  1  0
141210  1  0
142211  1  0
143212  1  0
143213  1  0
144214  1  0
M  END

