
     RDKit          3D

227248  0  0  0  0  0  0  0  0999 V2000
    4.3424   -1.1999    6.4357 C   0  0  0  0  0  0  0  0  0  0  0  0
    5.6402   -1.4684    6.1099 C   0  0  0  0  0  0  0  0  0  0  0  0
    6.1340   -2.3032    5.0212 C   0  0  0  0  0  0  0  0  0  0  0  0
    5.5326   -2.7383    4.0204 O   0  0  0  0  0  0  0  0  0  0  0  0
    7.5434   -2.4598    5.1563 C   0  0  0  0  0  0  0  0  0  0  0  0
    8.2511   -3.2492    4.2262 C   0  0  0  0  0  0  0  0  0  0  0  0
    9.5828   -3.2770    4.5601 C   0  0  0  0  0  0  0  0  0  0  0  0
   10.1864   -2.5985    5.6988 C   0  0  0  0  0  0  0  0  0  0  0  0
    9.4737   -1.7594    6.5821 C   0  0  0  0  0  0  0  0  0  0  0  0
    8.0751   -1.7272    6.2595 C   0  0  0  0  0  0  0  0  0  0  0  0
    6.8849   -0.9792    6.8842 C   0  0  0  0  0  0  0  0  0  0  0  0
    6.9224    0.1916    7.6172 C   0  0  0  0  0  0  0  0  0  0  0  0
    7.9626    0.3910    8.6375 C   0  0  0  0  0  0  0  0  0  0  0  0
    8.6960    0.7453    9.5362 N   0  0  0  0  0  0  0  0  0  0  0  0
    5.9262    1.2155    7.4683 C   0  0  0  0  0  0  0  0  0  0  0  0
    5.0970    2.0470    7.3289 N   0  0  0  0  0  0  0  0  0  0  0  0
   11.4858   -3.3097    5.3655 C   0  0  0  0  0  0  0  0  0  0  0  0
   11.8984   -4.5390    6.2520 C   0  0  0  0  0  0  0  0  0  0  0  0
   12.9429   -5.3085    5.4441 C   0  0  0  0  0  0  0  0  0  0  0  0
   12.2768   -5.9571    4.4845 C   0  0  0  0  0  0  0  0  0  0  0  0
   10.8458   -5.5197    4.6205 C   0  0  0  0  0  0  0  0  0  0  0  0
   10.7240   -5.5222    6.1355 C   0  0  0  0  0  0  0  0  0  0  0  0
   10.8189   -3.9640    4.2513 C   0  0  0  0  0  0  0  0  0  0  0  0
    3.2664   -1.3639    5.4549 C   0  0  0  0  0  0  0  0  0  0  0  0
    2.9164   -2.4933    4.7158 C   0  0  0  0  0  0  0  0  0  0  0  0
    2.0047   -3.3816    5.3311 N   0  0  0  0  0  0  0  0  0  0  0  0
    1.1279   -2.9773    6.3914 C   0  0  0  0  0  0  0  0  0  0  0  0
    0.1205   -1.9865    6.3277 C   0  0  0  0  0  0  0  0  0  0  0  0
   -0.8440   -1.7851    7.3460 C   0  0  0  0  0  0  0  0  0  0  0  0
   -0.9408   -2.6116    8.4809 C   0  0  0  0  0  0  0  0  0  0  0  0
   -2.0492   -2.2970    9.8957 S   0  0  0  0  0  0  0  0  0  0  0  0
   -3.1936   -1.0401    9.2210 C   0  0  0  0  0  0  0  0  0  0  0  0
   -0.0313   -3.6994    8.5488 C   0  0  0  0  0  0  0  0  0  0  0  0
    0.9350   -3.8791    7.5098 C   0  0  0  0  0  0  0  0  0  0  0  0
    1.8479   -4.5907    4.6119 C   0  0  0  0  0  0  0  0  0  0  0  0
    0.6328   -5.2780    4.6407 C   0  0  0  0  0  0  0  0  0  0  0  0
    0.4469   -6.4290    3.8395 C   0  0  0  0  0  0  0  0  0  0  0  0
    1.5192   -6.8768    2.9927 C   0  0  0  0  0  0  0  0  0  0  0  0
    1.2865   -8.2490    1.7702 S   0  0  0  0  0  0  0  0  0  0  0  0
   -0.3043   -8.9777    2.2873 C   0  0  0  0  0  0  0  0  0  0  0  0
    2.7074   -6.2117    2.9960 C   0  0  0  0  0  0  0  0  0  0  0  0
    2.9348   -5.1129    3.8079 C   0  0  0  0  0  0  0  0  0  0  0  0
    2.4103   -2.0887    3.4344 C   0  0  0  0  0  0  0  0  0  0  0  0
    2.9347   -2.3035    1.8188 S   0  0  0  0  0  0  0  0  0  0  0  0
    2.2294   -0.8997    1.0834 C   0  0  0  0  0  0  0  0  0  0  0  0
    1.5362   -0.3075    2.1102 C   0  0  0  0  0  0  0  0  0  0  0  0
    0.3122    0.5069    1.9397 N   0  0  0  0  0  0  0  0  0  0  0  0
    0.3734    1.9313    2.2803 C   0  0  0  0  0  0  0  0  0  0  0  0
    0.0518    2.9492    1.4418 C   0  0  0  0  0  0  0  0  0  0  0  0
    0.3384    4.2651    1.7876 C   0  0  0  0  0  0  0  0  0  0  0  0
    0.9951    4.5844    3.0100 C   0  0  0  0  0  0  0  0  0  0  0  0
    1.2212    6.2403    3.5569 S   0  0  0  0  0  0  0  0  0  0  0  0
    2.7896    6.4808    2.6922 C   0  0  0  0  0  0  0  0  0  0  0  0
    1.3200    3.5605    3.8654 C   0  0  0  0  0  0  0  0  0  0  0  0
    0.9124    2.2990    3.5438 C   0  0  0  0  0  0  0  0  0  0  0  0
   -0.9472   -0.0787    1.4341 C   0  0  0  0  0  0  0  0  0  0  0  0
   -0.9951   -1.2929    0.6863 C   0  0  0  0  0  0  0  0  0  0  0  0
   -2.1923   -1.7893    0.1949 C   0  0  0  0  0  0  0  0  0  0  0  0
   -3.4298   -1.1472    0.4938 C   0  0  0  0  0  0  0  0  0  0  0  0
   -4.9344   -1.7127   -0.2952 S   0  0  0  0  0  0  0  0  0  0  0  0
   -5.4682   -2.8868    1.0042 C   0  0  0  0  0  0  0  0  0  0  0  0
   -3.3890   -0.0357    1.3438 C   0  0  0  0  0  0  0  0  0  0  0  0
   -2.1975    0.4938    1.7815 C   0  0  0  0  0  0  0  0  0  0  0  0
    1.9425   -0.8272    3.3970 C   0  0  0  0  0  0  0  0  0  0  0  0
    2.5793   -0.0658    4.7518 S   0  0  0  0  0  0  0  0  0  0  0  0
    2.1999   -0.4290   -0.2949 C   0  0  0  0  0  0  0  0  0  0  0  0
    2.2344    0.9346   -0.5510 C   0  0  0  0  0  0  0  0  0  0  0  0
    2.7638    1.8645    0.3015 F   0  0  0  0  0  0  0  0  0  0  0  0
    1.4489    1.4505   -1.5740 C   0  0  0  0  0  0  0  0  0  0  0  0
    1.2294    2.7870   -1.5878 F   0  0  0  0  0  0  0  0  0  0  0  0
    0.5834    0.5679   -2.2705 C   0  0  0  0  0  0  0  0  0  0  0  0
    0.8099   -0.8341   -2.2349 C   0  0  0  0  0  0  0  0  0  0  0  0
    0.1463   -1.7204   -3.0037 N   0  0  0  0  0  0  0  0  0  0  0  0
    0.3048   -3.0916   -2.8627 C   0  0  0  0  0  0  0  0  0  0  0  0
   -0.4020   -4.0322   -3.8003 C   0  0  0  0  0  0  0  0  0  0  0  0
    0.5680   -4.6576   -4.8175 C   0  0  0  0  0  0  0  0  0  0  0  0
    1.1938   -3.5386   -1.8569 C   0  0  0  0  0  0  0  0  0  0  0  0
    1.8750   -2.6330   -1.1029 N   0  0  0  0  0  0  0  0  0  0  0  0
    1.6956   -1.3060   -1.2530 C   0  0  0  0  0  0  0  0  0  0  0  0
    1.5276   -4.9865   -1.5860 C   0  0  0  0  0  0  0  0  0  0  0  0
    2.8014   -5.3950   -2.3567 C   0  0  0  0  0  0  0  0  0  0  0  0
   -0.6977    1.1357   -2.7639 C   0  0  0  0  0  0  0  0  0  0  0  0
   -0.8502    1.7438   -4.0794 C   0  0  0  0  0  0  0  0  0  0  0  0
   -0.5801    1.0192   -5.3064 N   0  0  0  0  0  0  0  0  0  0  0  0
    0.4165    1.4040   -6.3337 C   0  0  0  0  0  0  0  0  0  0  0  0
    0.0372    1.4629   -7.7012 C   0  0  0  0  0  0  0  0  0  0  0  0
    0.9878    1.5609   -8.7383 C   0  0  0  0  0  0  0  0  0  0  0  0
    2.3462    1.5746   -8.4299 C   0  0  0  0  0  0  0  0  0  0  0  0
    3.5639    1.8552   -9.7470 S   0  0  0  0  0  0  0  0  0  0  0  0
    3.3867    0.2774  -10.6276 C   0  0  0  0  0  0  0  0  0  0  0  0
    2.7757    1.5161   -7.0869 C   0  0  0  0  0  0  0  0  0  0  0  0
    1.8239    1.4311   -6.0461 C   0  0  0  0  0  0  0  0  0  0  0  0
   -1.5183   -0.0194   -5.6532 C   0  0  0  0  0  0  0  0  0  0  0  0
   -2.8976    0.0911   -5.4838 C   0  0  0  0  0  0  0  0  0  0  0  0
   -3.7826   -0.9228   -5.8537 C   0  0  0  0  0  0  0  0  0  0  0  0
   -3.3126   -2.1134   -6.4569 C   0  0  0  0  0  0  0  0  0  0  0  0
   -4.5484   -3.2387   -7.2296 S   0  0  0  0  0  0  0  0  0  0  0  0
   -3.6309   -4.8373   -7.0004 C   0  0  0  0  0  0  0  0  0  0  0  0
   -1.9266   -2.2463   -6.6613 C   0  0  0  0  0  0  0  0  0  0  0  0
   -1.0240   -1.2424   -6.2416 C   0  0  0  0  0  0  0  0  0  0  0  0
   -1.7190    2.8385   -3.9734 C   0  0  0  0  0  0  0  0  0  0  0  0
   -2.5532    3.7469   -5.1165 S   0  0  0  0  0  0  0  0  0  0  0  0
   -3.3337    4.7963   -3.9987 C   0  0  0  0  0  0  0  0  0  0  0  0
   -3.2281    4.1382   -2.7193 C   0  0  0  0  0  0  0  0  0  0  0  0
   -4.4007    4.0900   -1.8535 N   0  0  0  0  0  0  0  0  0  0  0  0
   -5.6248    3.5643   -2.4319 C   0  0  0  0  0  0  0  0  0  0  0  0
   -5.6016    2.3797   -3.2051 C   0  0  0  0  0  0  0  0  0  0  0  0
   -6.7772    1.7832   -3.6392 C   0  0  0  0  0  0  0  0  0  0  0  0
   -8.0250    2.3425   -3.3546 C   0  0  0  0  0  0  0  0  0  0  0  0
   -9.4898    1.7542   -4.2578 S   0  0  0  0  0  0  0  0  0  0  0  0
   -9.7595    0.2318   -3.2947 C   0  0  0  0  0  0  0  0  0  0  0  0
   -8.1065    3.5159   -2.5633 C   0  0  0  0  0  0  0  0  0  0  0  0
   -6.9136    4.1263   -2.1325 C   0  0  0  0  0  0  0  0  0  0  0  0
   -4.3218    4.3030   -0.4167 C   0  0  0  0  0  0  0  0  0  0  0  0
   -3.5949    5.3837    0.1664 C   0  0  0  0  0  0  0  0  0  0  0  0
   -3.6680    5.6375    1.5468 C   0  0  0  0  0  0  0  0  0  0  0  0
   -4.4455    4.7675    2.3735 C   0  0  0  0  0  0  0  0  0  0  0  0
   -4.8307    5.0508    4.1348 S   0  0  0  0  0  0  0  0  0  0  0  0
   -3.4098    6.0490    4.6907 C   0  0  0  0  0  0  0  0  0  0  0  0
   -5.1255    3.6954    1.7916 C   0  0  0  0  0  0  0  0  0  0  0  0
   -5.0569    3.4726    0.4445 C   0  0  0  0  0  0  0  0  0  0  0  0
   -2.2359    3.1234   -2.7475 C   0  0  0  0  0  0  0  0  0  0  0  0
   -1.7768    1.9029   -1.6879 S   0  0  0  0  0  0  0  0  0  0  0  0
   -3.7174    6.2688   -4.1895 C   0  0  0  0  0  0  0  0  0  0  0  0
   -4.5663    6.8715   -3.1898 C   0  0  0  0  0  0  0  0  0  0  0  0
   -4.5637    8.2525   -2.9931 C   0  0  0  0  0  0  0  0  0  0  0  0
   -3.7590    9.1067   -3.7469 C   0  0  0  0  0  0  0  0  0  0  0  0
   -3.6469   10.5620   -3.4853 C   0  0  0  0  0  0  0  0  0  0  0  0
   -4.2989   11.0970   -2.4922 O   0  0  0  0  0  0  0  0  0  0  0  0
   -2.8260   11.4164   -4.2701 N   0  0  0  0  0  0  0  0  0  0  0  0
   -2.4019   12.7471   -3.8422 C   0  0  0  0  0  0  0  0  0  0  0  0
   -1.1873   12.6380   -2.9286 C   0  0  0  0  0  0  0  0  0  0  0  0
   -2.0791   10.8247   -5.4011 C   0  0  0  0  0  0  0  0  0  0  0  0
   -1.3351   11.5468   -6.0683 O   0  0  0  0  0  0  0  0  0  0  0  0
   -2.1861    9.3978   -5.6355 C   0  0  0  0  0  0  0  0  0  0  0  0
   -1.3762    8.8501   -6.6895 C   0  0  0  0  0  0  0  0  0  0  0  0
   -1.4600    7.5100   -6.9629 C   0  0  0  0  0  0  0  0  0  0  0  0
   -2.3623    6.7029   -6.3137 C   0  0  0  0  0  0  0  0  0  0  0  0
   -3.0252    7.1226   -5.0888 C   0  0  0  0  0  0  0  0  0  0  0  0
   -2.9701    8.5234   -4.8327 C   0  0  0  0  0  0  0  0  0  0  0  0
    4.1932   -0.6671    7.3819 H   0  0  0  0  0  0  0  0  0  0  0  0
    7.7707   -3.8978    3.4785 H   0  0  0  0  0  0  0  0  0  0  0  0
    9.9727   -1.2558    7.4394 H   0  0  0  0  0  0  0  0  0  0  0  0
   12.3180   -2.6230    5.0440 H   0  0  0  0  0  0  0  0  0  0  0  0
   12.2199   -4.2911    7.2853 H   0  0  0  0  0  0  0  0  0  0  0  0
   14.0137   -5.3996    5.5988 H   0  0  0  0  0  0  0  0  0  0  0  0
   12.6754   -6.6848    3.7586 H   0  0  0  0  0  0  0  0  0  0  0  0
   10.0662   -6.1409    4.0663 H   0  0  0  0  0  0  0  0  0  0  0  0
   10.9155   -6.5345    6.6042 H   0  0  0  0  0  0  0  0  0  0  0  0
    9.7525   -5.1590    6.5602 H   0  0  0  0  0  0  0  0  0  0  0  0
   11.2245   -3.7128    3.2147 H   0  0  0  0  0  0  0  0  0  0  0  0
    0.0471   -1.3517    5.4531 H   0  0  0  0  0  0  0  0  0  0  0  0
   -1.4964   -0.9272    7.1724 H   0  0  0  0  0  0  0  0  0  0  0  0
   -3.8655   -1.4563    8.4603 H   0  0  0  0  0  0  0  0  0  0  0  0
   -3.8141   -0.6623   10.0544 H   0  0  0  0  0  0  0  0  0  0  0  0
   -2.6808   -0.1493    8.8448 H   0  0  0  0  0  0  0  0  0  0  0  0
   -0.0684   -4.3782    9.4435 H   0  0  0  0  0  0  0  0  0  0  0  0
    1.5428   -4.7596    7.6291 H   0  0  0  0  0  0  0  0  0  0  0  0
   -0.2678   -5.0234    5.2354 H   0  0  0  0  0  0  0  0  0  0  0  0
   -0.4994   -6.9246    3.8953 H   0  0  0  0  0  0  0  0  0  0  0  0
   -0.6558   -9.6390    1.4896 H   0  0  0  0  0  0  0  0  0  0  0  0
   -1.1243   -8.2485    2.3856 H   0  0  0  0  0  0  0  0  0  0  0  0
   -0.2082   -9.5655    3.2129 H   0  0  0  0  0  0  0  0  0  0  0  0
    3.5795   -6.5398    2.3982 H   0  0  0  0  0  0  0  0  0  0  0  0
    3.8110   -4.6028    3.8267 H   0  0  0  0  0  0  0  0  0  0  0  0
   -0.4075    2.6976    0.4771 H   0  0  0  0  0  0  0  0  0  0  0  0
    0.0094    5.0474    1.1347 H   0  0  0  0  0  0  0  0  0  0  0  0
    2.6624    6.3160    1.6106 H   0  0  0  0  0  0  0  0  0  0  0  0
    3.6128    5.8519    3.0735 H   0  0  0  0  0  0  0  0  0  0  0  0
    3.0720    7.5330    2.8397 H   0  0  0  0  0  0  0  0  0  0  0  0
    1.7641    3.6901    4.8847 H   0  0  0  0  0  0  0  0  0  0  0  0
    0.8783    1.6502    4.3098 H   0  0  0  0  0  0  0  0  0  0  0  0
   -0.1028   -1.8751    0.4488 H   0  0  0  0  0  0  0  0  0  0  0  0
   -2.2128   -2.6102   -0.5320 H   0  0  0  0  0  0  0  0  0  0  0  0
   -4.6443   -3.3218    1.5895 H   0  0  0  0  0  0  0  0  0  0  0  0
   -6.1751   -2.4162    1.7010 H   0  0  0  0  0  0  0  0  0  0  0  0
   -5.9988   -3.7298    0.5322 H   0  0  0  0  0  0  0  0  0  0  0  0
   -4.3312    0.4712    1.5810 H   0  0  0  0  0  0  0  0  0  0  0  0
   -2.2259    1.3581    2.4326 H   0  0  0  0  0  0  0  0  0  0  0  0
   -1.2076   -3.4886   -4.3195 H   0  0  0  0  0  0  0  0  0  0  0  0
   -0.8943   -4.8369   -3.2301 H   0  0  0  0  0  0  0  0  0  0  0  0
    1.5686   -4.1689   -4.7952 H   0  0  0  0  0  0  0  0  0  0  0  0
    0.1722   -4.5375   -5.8432 H   0  0  0  0  0  0  0  0  0  0  0  0
    0.7098   -5.7353   -4.6073 H   0  0  0  0  0  0  0  0  0  0  0  0
    0.6950   -5.7068   -1.7992 H   0  0  0  0  0  0  0  0  0  0  0  0
    1.7283   -5.1321   -0.4957 H   0  0  0  0  0  0  0  0  0  0  0  0
    3.5062   -5.9331   -1.7074 H   0  0  0  0  0  0  0  0  0  0  0  0
    3.3537   -4.5318   -2.8107 H   0  0  0  0  0  0  0  0  0  0  0  0
    2.5274   -6.0961   -3.1708 H   0  0  0  0  0  0  0  0  0  0  0  0
   -0.9969    1.4103   -8.0056 H   0  0  0  0  0  0  0  0  0  0  0  0
    0.6278    1.6364   -9.7733 H   0  0  0  0  0  0  0  0  0  0  0  0
    2.3436   -0.0038  -10.8360 H   0  0  0  0  0  0  0  0  0  0  0  0
    3.8874    0.3644  -11.6050 H   0  0  0  0  0  0  0  0  0  0  0  0
    3.9090   -0.5236  -10.0938 H   0  0  0  0  0  0  0  0  0  0  0  0
    3.8326    1.5910   -6.8300 H   0  0  0  0  0  0  0  0  0  0  0  0
    2.1371    1.3502   -5.0323 H   0  0  0  0  0  0  0  0  0  0  0  0
   -3.3584    1.0092   -5.1542 H   0  0  0  0  0  0  0  0  0  0  0  0
   -4.8421   -0.6985   -5.7325 H   0  0  0  0  0  0  0  0  0  0  0  0
   -2.6803   -4.8695   -7.5913 H   0  0  0  0  0  0  0  0  0  0  0  0
   -3.5029   -5.1191   -5.9074 H   0  0  0  0  0  0  0  0  0  0  0  0
   -4.2206   -5.6215   -7.5147 H   0  0  0  0  0  0  0  0  0  0  0  0
   -1.4649   -3.1309   -7.1242 H   0  0  0  0  0  0  0  0  0  0  0  0
    0.0230   -1.3545   -6.4039 H   0  0  0  0  0  0  0  0  0  0  0  0
   -4.6772    1.8788   -3.3856 H   0  0  0  0  0  0  0  0  0  0  0  0
   -6.6623    0.8975   -4.2885 H   0  0  0  0  0  0  0  0  0  0  0  0
  -10.6040   -0.2855   -3.7618 H   0  0  0  0  0  0  0  0  0  0  0  0
  -10.0371    0.4405   -2.2490 H   0  0  0  0  0  0  0  0  0  0  0  0
   -8.8874   -0.4495   -3.3054 H   0  0  0  0  0  0  0  0  0  0  0  0
   -9.0681    3.9779   -2.3347 H   0  0  0  0  0  0  0  0  0  0  0  0
   -6.9723    4.9972   -1.5201 H   0  0  0  0  0  0  0  0  0  0  0  0
   -3.0446    6.0534   -0.4916 H   0  0  0  0  0  0  0  0  0  0  0  0
   -3.1638    6.5164    1.9240 H   0  0  0  0  0  0  0  0  0  0  0  0
   -3.7757    7.0625    4.9002 H   0  0  0  0  0  0  0  0  0  0  0  0
   -2.5428    6.0506    4.0166 H   0  0  0  0  0  0  0  0  0  0  0  0
   -3.0585    5.6170    5.6426 H   0  0  0  0  0  0  0  0  0  0  0  0
   -5.7988    3.0405    2.3380 H   0  0  0  0  0  0  0  0  0  0  0  0
   -5.6414    2.6449    0.0436 H   0  0  0  0  0  0  0  0  0  0  0  0
   -5.1821    6.3051   -2.5271 H   0  0  0  0  0  0  0  0  0  0  0  0
   -5.1401    8.6672   -2.1530 H   0  0  0  0  0  0  0  0  0  0  0  0
   -3.2674   13.2402   -3.3497 H   0  0  0  0  0  0  0  0  0  0  0  0
   -2.1801   13.4159   -4.7015 H   0  0  0  0  0  0  0  0  0  0  0  0
   -0.9873   13.6295   -2.4769 H   0  0  0  0  0  0  0  0  0  0  0  0
   -1.3551   11.8974   -2.1181 H   0  0  0  0  0  0  0  0  0  0  0  0
   -0.2901   12.3599   -3.5313 H   0  0  0  0  0  0  0  0  0  0  0  0
   -0.7406    9.4962   -7.3160 H   0  0  0  0  0  0  0  0  0  0  0  0
   -0.9141    7.0964   -7.8174 H   0  0  0  0  0  0  0  0  0  0  0  0
   -2.6629    5.8877   -6.9770 H   0  0  0  0  0  0  0  0  0  0  0  0
  1  2  2  3
  2  3  1  0
  3  4  2  0
  3  5  1  0
  5  6  2  0
  6  7  1  0
  7  8  2  0
  8  9  1  0
  9 10  2  0
 10 11  1  0
 11 12  2  3
 12 13  1  0
 13 14  3  0
 12 15  1  0
 15 16  3  0
  8 17  1  0
 17 18  1  0
 18 19  1  0
 19 20  2  0
 20 21  1  0
 21 22  1  0
 21 23  1  0
  1 24  1  0
 24 25  2  0
 25 26  1  0
 26 27  1  0
 27 28  2  0
 28 29  1  0
 29 30  2  0
 30 31  1  0
 31 32  1  0
 30 33  1  0
 33 34  2  0
 26 35  1  0
 35 36  2  0
 36 37  1  0
 37 38  2  0
 38 39  1  0
 39 40  1  0
 38 41  1  0
 41 42  2  0
 25 43  1  0
 43 44  1  0
 44 45  1  0
 45 46  2  0
 46 47  1  0
 47 48  1  0
 48 49  2  0
 49 50  1  0
 50 51  2  0
 51 52  1  0
 52 53  1  0
 51 54  1  0
 54 55  2  0
 47 56  1  0
 56 57  2  0
 57 58  1  0
 58 59  2  0
 59 60  1  0
 60 61  1  0
 59 62  1  0
 62 63  2  0
 46 64  1  0
 64 65  1  0
 45 66  1  0
 66 67  2  0
 67 68  1  0
 67 69  1  0
 69 70  1  0
 69 71  2  0
 71 72  1  0
 72 73  2  0
 73 74  1  0
 74 75  1  0
 75 76  1  0
 74 77  2  0
 77 78  1  0
 78 79  2  0
 77 80  1  0
 80 81  1  0
 71 82  1  0
 82 83  2  0
 83 84  1  0
 84 85  1  0
 85 86  2  0
 86 87  1  0
 87 88  2  0
 88 89  1  0
 89 90  1  0
 88 91  1  0
 91 92  2  0
 84 93  1  0
 93 94  2  0
 94 95  1  0
 95 96  2  0
 96 97  1  0
 97 98  1  0
 96 99  1  0
 99100  2  0
 83101  1  0
101102  1  0
102103  1  0
103104  2  0
104105  1  0
105106  1  0
106107  2  0
107108  1  0
108109  2  0
109110  1  0
110111  1  0
109112  1  0
112113  2  0
105114  1  0
114115  2  0
115116  1  0
116117  2  0
117118  1  0
118119  1  0
117120  1  0
120121  2  0
104122  1  0
122123  1  0
103124  1  0
124125  2  0
125126  1  0
126127  2  0
127128  1  0
128129  2  0
128130  1  0
130131  1  0
131132  1  0
130133  1  0
133134  2  0
133135  1  0
135136  1  0
136137  2  0
137138  1  0
138139  2  0
139140  1  0
 11  2  1  0
 23 17  1  0
 65 24  1  0
 79 66  1  0
123 82  1  0
139124  1  0
 10  5  1  0
 22 18  1  0
 34 27  1  0
 42 35  1  0
 64 43  2  0
 79 72  1  0
 92 85  1  0
100 93  1  0
122101  2  0
140127  1  0
 23  7  1  0
 55 48  1  0
 63 56  1  0
113106  1  0
121114  1  0
140135  2  0
  1141  1  0
  6142  1  0
  9143  1  0
 17144  1  0
 18145  1  0
 19146  1  0
 20147  1  0
 21148  1  0
 22149  1  0
 22150  1  0
 23151  1  0
 28152  1  0
 29153  1  0
 32154  1  0
 32155  1  0
 32156  1  0
 33157  1  0
 34158  1  0
 36159  1  0
 37160  1  0
 40161  1  0
 40162  1  0
 40163  1  0
 41164  1  0
 42165  1  0
 49166  1  0
 50167  1  0
 53168  1  0
 53169  1  0
 53170  1  0
 54171  1  0
 55172  1  0
 57173  1  0
 58174  1  0
 61175  1  0
 61176  1  0
 61177  1  0
 62178  1  0
 63179  1  0
 75180  1  0
 75181  1  0
 76182  1  0
 76183  1  0
 76184  1  0
 80185  1  0
 80186  1  0
 81187  1  0
 81188  1  0
 81189  1  0
 86190  1  0
 87191  1  0
 90192  1  0
 90193  1  0
 90194  1  0
 91195  1  0
 92196  1  0
 94197  1  0
 95198  1  0
 98199  1  0
 98200  1  0
 98201  1  0
 99202  1  0
100203  1  0
107204  1  0
108205  1  0
111206  1  0
111207  1  0
111208  1  0
112209  1  0
113210  1  0
115211  1  0
116212  1  0
119213  1  0
119214  1  0
119215  1  0
120216  1  0
121217  1  0
125218  1  0
126219  1  0
131220  1  0
131221  1  0
132222  1  0
132223  1  0
132224  1  0
136225  1  0
137226  1  0
138227  1  0
M  END

