
     RDKit          3D

121137  0  0  0  0  0  0  0  0999 V2000
    0.3898   -6.0051   -3.4450 C   0  0  0  0  0  0  0  0  0  0  0  0
    1.1577   -6.5014   -4.4308 C   0  0  0  0  0  0  0  0  0  0  0  0
    2.6230   -6.5648   -4.4198 C   0  0  0  0  0  0  0  0  0  0  0  0
    3.3563   -6.6650   -3.3995 O   0  0  0  0  0  0  0  0  0  0  0  0
    3.0958   -6.4893   -5.7820 C   0  0  0  0  0  0  0  0  0  0  0  0
    4.4216   -6.2493   -6.2077 C   0  0  0  0  0  0  0  0  0  0  0  0
    4.5346   -5.9913   -7.5608 C   0  0  0  0  0  0  0  0  0  0  0  0
    3.4116   -5.9643   -8.4508 C   0  0  0  0  0  0  0  0  0  0  0  0
    2.1106   -6.2077   -8.0405 C   0  0  0  0  0  0  0  0  0  0  0  0
    1.9789   -6.5023   -6.6533 C   0  0  0  0  0  0  0  0  0  0  0  0
    0.7403   -6.6831   -5.8518 C   0  0  0  0  0  0  0  0  0  0  0  0
   -0.4475   -7.1535   -6.3022 C   0  0  0  0  0  0  0  0  0  0  0  0
   -1.5207   -7.4942   -5.4016 C   0  0  0  0  0  0  0  0  0  0  0  0
   -2.3859   -7.7708   -4.6835 N   0  0  0  0  0  0  0  0  0  0  0  0
   -0.6420   -7.5394   -7.6747 C   0  0  0  0  0  0  0  0  0  0  0  0
   -0.8080   -7.8735   -8.7690 N   0  0  0  0  0  0  0  0  0  0  0  0
    4.3082   -5.6015   -9.5978 C   0  0  0  0  0  0  0  0  0  0  0  0
    4.6221   -6.7341  -10.6208 C   0  0  0  0  0  0  0  0  0  0  0  0
    5.8194   -6.2590  -11.4107 C   0  0  0  0  0  0  0  0  0  0  0  0
    6.8666   -6.2974  -10.5729 C   0  0  0  0  0  0  0  0  0  0  0  0
    6.3351   -6.7917   -9.2468 C   0  0  0  0  0  0  0  0  0  0  0  0
    5.3078   -7.7888   -9.7624 C   0  0  0  0  0  0  0  0  0  0  0  0
    5.4571   -5.6348   -8.6847 C   0  0  0  0  0  0  0  0  0  0  0  0
    0.9346   -5.3665   -2.2286 C   0  0  0  0  0  0  0  0  0  0  0  0
    1.8448   -4.3011   -2.3148 C   0  0  0  0  0  0  0  0  0  0  0  0
    2.3122   -3.6295   -1.1602 C   0  0  0  0  0  0  0  0  0  0  0  0
    3.2260   -2.5574   -1.4275 N   0  0  0  0  0  0  0  0  0  0  0  0
    3.2701   -2.5905   -3.0225 S   0  0  0  0  0  4  0  0  0  0  0  0
    2.3304   -3.7604   -3.5522 N   0  0  0  0  0  0  0  0  0  0  0  0
    1.8437   -3.9622    0.1217 C   0  0  0  0  0  0  0  0  0  0  0  0
    0.9059   -5.0136    0.2178 C   0  0  0  0  0  0  0  0  0  0  0  0
    0.3316   -5.3828    1.3909 N   0  0  0  0  0  0  0  0  0  0  0  0
   -0.6948   -6.5676    0.8734 S   0  0  0  0  0  0  0  0  0  0  0  0
   -0.4900   -6.6657   -0.7625 N   0  0  0  0  0  0  0  0  0  0  0  0
    0.4509   -5.7067   -0.9540 C   0  0  0  0  0  0  0  0  0  0  0  0
    2.1822   -3.1018    1.2762 C   0  0  0  0  0  0  0  0  0  0  0  0
    2.1190   -1.4089    1.2057 S   0  0  0  0  0  0  0  0  0  0  0  0
    2.3345   -1.1768    2.8450 C   0  0  0  0  0  0  0  0  0  0  0  0
    1.8807   -0.0729    3.6719 C   0  0  0  0  0  0  0  0  0  0  0  0
    1.6048   -0.4034    4.9821 C   0  0  0  0  0  0  0  0  0  0  0  0
    2.0033   -2.2478    5.3500 Ge  0  0  0  0  0  4  0  0  0  0  0  0
    3.5667   -2.5040    6.4854 C   0  0  0  0  0  0  0  0  0  0  0  0
    3.9734   -3.9692    6.5029 C   0  0  0  0  0  0  0  0  0  0  0  0
    0.4266   -3.2745    5.8554 C   0  0  0  0  0  0  0  0  0  0  0  0
    0.1093   -3.0705    7.3289 C   0  0  0  0  0  0  0  0  0  0  0  0
    2.3941   -2.3896    3.4756 C   0  0  0  0  0  0  0  0  0  0  0  0
    2.3024   -3.4914    2.6177 C   0  0  0  0  0  0  0  0  0  0  0  0
    0.6781    0.4403    5.6007 C   0  0  0  0  0  0  0  0  0  0  0  0
    0.2325    1.4353    4.7295 C   0  0  0  0  0  0  0  0  0  0  0  0
    0.9487    1.2353    3.2118 S   0  0  0  0  0  0  0  0  0  0  0  0
   -0.8798    2.3527    4.9663 C   0  0  0  0  0  0  0  0  0  0  0  0
   -1.8735    2.6441    4.0345 C   0  0  0  0  0  0  0  0  0  0  0  0
   -2.6977    3.7006    4.4330 C   0  0  0  0  0  0  0  0  0  0  0  0
   -4.0092    4.3568    3.3973 S   0  0  0  0  0  0  0  0  0  0  0  0
   -5.3351    3.3425    4.1334 C   0  0  0  0  0  0  0  0  0  0  0  0
   -5.6678    2.1736    3.2152 C   0  0  0  0  0  0  0  0  0  0  0  0
   -2.3454    4.2338    5.6710 C   0  0  0  0  0  0  0  0  0  0  0  0
   -1.0124    3.4061    6.2781 S   0  0  0  0  0  0  0  0  0  0  0  0
   -2.9060    5.4633    6.2352 C   0  0  0  0  0  0  0  0  0  0  0  0
   -2.5897    6.6663    5.7337 C   0  0  0  0  0  0  0  0  0  0  0  0
   -1.5841    6.9014    4.6883 C   0  0  0  0  0  0  0  0  0  0  0  0
   -0.5696    6.1919    4.4579 O   0  0  0  0  0  0  0  0  0  0  0  0
   -1.9792    8.0573    3.9148 C   0  0  0  0  0  0  0  0  0  0  0  0
   -1.4124    8.4977    2.6953 C   0  0  0  0  0  0  0  0  0  0  0  0
   -2.1699    9.4549    2.0457 C   0  0  0  0  0  0  0  0  0  0  0  0
   -3.4205    9.9391    2.5508 C   0  0  0  0  0  0  0  0  0  0  0  0
   -3.9639    9.5334    3.7592 C   0  0  0  0  0  0  0  0  0  0  0  0
   -3.1754    8.5829    4.4665 C   0  0  0  0  0  0  0  0  0  0  0  0
   -3.4913    7.8486    5.7189 C   0  0  0  0  0  0  0  0  0  0  0  0
   -4.2845    8.2738    6.7332 C   0  0  0  0  0  0  0  0  0  0  0  0
   -5.0204    9.5090    6.6616 C   0  0  0  0  0  0  0  0  0  0  0  0
   -5.6237   10.4981    6.6162 N   0  0  0  0  0  0  0  0  0  0  0  0
   -4.3092    7.5982    8.0054 C   0  0  0  0  0  0  0  0  0  0  0  0
   -4.3253    7.0623    9.0322 N   0  0  0  0  0  0  0  0  0  0  0  0
   -3.6320   10.7427    1.3023 C   0  0  0  0  0  0  0  0  0  0  0  0
   -4.6358   10.1898    0.2440 C   0  0  0  0  0  0  0  0  0  0  0  0
   -4.6371    8.6732    0.2646 C   0  0  0  0  0  0  0  0  0  0  0  0
   -3.4549    8.2814   -0.2110 C   0  0  0  0  0  0  0  0  0  0  0  0
   -2.6823    9.5423   -0.5215 C   0  0  0  0  0  0  0  0  0  0  0  0
   -3.8252   10.4109   -1.0192 C   0  0  0  0  0  0  0  0  0  0  0  0
   -2.3304   10.2839    0.8036 C   0  0  0  0  0  0  0  0  0  0  0  0
   -0.6790   -5.9186   -3.5749 H   0  0  0  0  0  0  0  0  0  0  0  0
    5.2646   -6.2137   -5.5306 H   0  0  0  0  0  0  0  0  0  0  0  0
    1.2776   -6.1082   -8.7215 H   0  0  0  0  0  0  0  0  0  0  0  0
    4.0997   -4.5982  -10.0378 H   0  0  0  0  0  0  0  0  0  0  0  0
    3.7638   -7.0916  -11.2264 H   0  0  0  0  0  0  0  0  0  0  0  0
    5.8583   -6.0209  -12.4688 H   0  0  0  0  0  0  0  0  0  0  0  0
    7.8985   -6.0957  -10.8354 H   0  0  0  0  0  0  0  0  0  0  0  0
    7.1029   -7.1979   -8.5537 H   0  0  0  0  0  0  0  0  0  0  0  0
    4.6633   -8.2292   -8.9705 H   0  0  0  0  0  0  0  0  0  0  0  0
    5.7611   -8.6197  -10.3555 H   0  0  0  0  0  0  0  0  0  0  0  0
    5.9740   -4.6575   -8.5465 H   0  0  0  0  0  0  0  0  0  0  0  0
    3.3193   -2.1705    7.5157 H   0  0  0  0  0  0  0  0  0  0  0  0
    4.4010   -1.8901    6.0927 H   0  0  0  0  0  0  0  0  0  0  0  0
    4.2258   -4.3126    5.4787 H   0  0  0  0  0  0  0  0  0  0  0  0
    3.1470   -4.5937    6.9076 H   0  0  0  0  0  0  0  0  0  0  0  0
    4.8656   -4.0978    7.1540 H   0  0  0  0  0  0  0  0  0  0  0  0
   -0.4317   -2.9472    5.2346 H   0  0  0  0  0  0  0  0  0  0  0  0
    0.6170   -4.3509    5.6591 H   0  0  0  0  0  0  0  0  0  0  0  0
    0.9390   -3.4600    7.9546 H   0  0  0  0  0  0  0  0  0  0  0  0
   -0.8230   -3.6174    7.5833 H   0  0  0  0  0  0  0  0  0  0  0  0
   -0.0380   -1.9904    7.5484 H   0  0  0  0  0  0  0  0  0  0  0  0
    2.2381   -4.5123    2.9690 H   0  0  0  0  0  0  0  0  0  0  0  0
    0.2475    0.2559    6.5743 H   0  0  0  0  0  0  0  0  0  0  0  0
   -1.9810    2.1365    3.0812 H   0  0  0  0  0  0  0  0  0  0  0  0
   -5.0541    2.9594    5.1421 H   0  0  0  0  0  0  0  0  0  0  0  0
   -6.2385    3.9832    4.2451 H   0  0  0  0  0  0  0  0  0  0  0  0
   -6.4615    1.5525    3.6806 H   0  0  0  0  0  0  0  0  0  0  0  0
   -6.0411    2.5608    2.2415 H   0  0  0  0  0  0  0  0  0  0  0  0
   -4.7586    1.5568    3.0445 H   0  0  0  0  0  0  0  0  0  0  0  0
   -3.7833    5.3434    6.8598 H   0  0  0  0  0  0  0  0  0  0  0  0
   -0.5148    8.0662    2.2639 H   0  0  0  0  0  0  0  0  0  0  0  0
   -4.9396    9.8692    4.0755 H   0  0  0  0  0  0  0  0  0  0  0  0
   -3.6927   11.8428    1.4747 H   0  0  0  0  0  0  0  0  0  0  0  0
   -5.6427   10.6595    0.2576 H   0  0  0  0  0  0  0  0  0  0  0  0
   -5.4632    8.0158    0.5139 H   0  0  0  0  0  0  0  0  0  0  0  0
   -3.1486    7.2587   -0.4049 H   0  0  0  0  0  0  0  0  0  0  0  0
   -1.8353    9.4120   -1.2319 H   0  0  0  0  0  0  0  0  0  0  0  0
   -3.5324   11.4748   -1.1831 H   0  0  0  0  0  0  0  0  0  0  0  0
   -4.3149   10.0069   -1.9366 H   0  0  0  0  0  0  0  0  0  0  0  0
   -1.5833   11.1024    0.7011 H   0  0  0  0  0  0  0  0  0  0  0  0
  1  2  2  3
  2  3  1  0
  3  4  2  0
  3  5  1  0
  5  6  2  0
  6  7  1  0
  7  8  2  0
  8  9  1  0
  9 10  2  0
 10 11  1  0
 11 12  2  3
 12 13  1  0
 13 14  3  0
 12 15  1  0
 15 16  3  0
  8 17  1  0
 17 18  1  0
 18 19  1  0
 19 20  2  0
 20 21  1  0
 21 22  1  0
 21 23  1  0
  1 24  1  0
 24 25  2  0
 25 26  1  0
 26 27  1  0
 27 28  2  0
 28 29  2  0
 26 30  2  0
 30 31  1  0
 31 32  2  0
 32 33  1  0
 33 34  1  0
 34 35  2  0
 30 36  1  0
 36 37  1  0
 37 38  1  0
 38 39  1  0
 39 40  2  0
 40 41  1  0
 41 42  1  0
 42 43  1  0
 41 44  1  0
 44 45  1  0
 41 46  1  0
 46 47  1  0
 40 48  1  0
 48 49  2  0
 49 50  1  0
 49 51  1  0
 51 52  2  0
 52 53  1  0
 53 54  1  0
 54 55  1  0
 55 56  1  0
 53 57  2  0
 57 58  1  0
 57 59  1  0
 59 60  2  3
 60 61  1  0
 61 62  2  0
 61 63  1  0
 63 64  2  0
 64 65  1  0
 65 66  2  0
 66 67  1  0
 67 68  2  0
 68 69  1  0
 69 70  2  3
 70 71  1  0
 71 72  3  0
 70 73  1  0
 73 74  3  0
 66 75  1  0
 75 76  1  0
 76 77  1  0
 77 78  2  0
 78 79  1  0
 79 80  1  0
 79 81  1  0
 11  2  1  0
 23 17  1  0
 35 24  1  0
 47 36  2  0
 58 51  1  0
 69 60  1  0
 81 75  1  0
 10  5  1  0
 22 18  1  0
 29 25  1  0
 35 31  1  0
 46 38  2  0
 68 63  1  0
 80 76  1  0
 23  7  1  0
 50 39  1  0
 81 65  1  0
  1 82  1  0
  6 83  1  0
  9 84  1  0
 17 85  1  0
 18 86  1  0
 19 87  1  0
 20 88  1  0
 21 89  1  0
 22 90  1  0
 22 91  1  0
 23 92  1  0
 42 93  1  0
 42 94  1  0
 43 95  1  0
 43 96  1  0
 43 97  1  0
 44 98  1  0
 44 99  1  0
 45100  1  0
 45101  1  0
 45102  1  0
 47103  1  0
 48104  1  0
 52105  1  0
 55106  1  0
 55107  1  0
 56108  1  0
 56109  1  0
 56110  1  0
 59111  1  0
 64112  1  0
 67113  1  0
 75114  1  0
 76115  1  0
 77116  1  0
 78117  1  0
 79118  1  0
 80119  1  0
 80120  1  0
 81121  1  0
M  END

