
     RDKit          3D

180200  0  0  0  0  0  0  0  0999 V2000
   -2.3694    1.2110    5.3897 C   0  0  0  0  0  0  0  0  0  0  0  0
   -1.2328    1.2141    6.1900 C   0  0  0  0  0  0  0  0  0  0  0  0
   -1.0019    2.2119    7.2347 C   0  0  0  0  0  0  0  0  0  0  0  0
   -1.7805    3.0972    7.6128 O   0  0  0  0  0  0  0  0  0  0  0  0
    0.4396    2.1107    7.5672 C   0  0  0  0  0  0  0  0  0  0  0  0
    1.1489    2.7706    8.5896 C   0  0  0  0  0  0  0  0  0  0  0  0
    2.4545    2.3553    8.6973 C   0  0  0  0  0  0  0  0  0  0  0  0
    3.0234    1.3206    7.9288 C   0  0  0  0  0  0  0  0  0  0  0  0
    2.3748    0.7229    6.8528 C   0  0  0  0  0  0  0  0  0  0  0  0
    1.0401    1.1205    6.7303 C   0  0  0  0  0  0  0  0  0  0  0  0
    0.0271    0.4458    5.9193 C   0  0  0  0  0  0  0  0  0  0  0  0
    0.1654   -0.7961    5.4384 C   0  0  0  0  0  0  0  0  0  0  0  0
   -0.8997   -1.7441    5.4162 C   0  0  0  0  0  0  0  0  0  0  0  0
   -1.7769   -2.5475    5.4060 N   0  0  0  0  0  0  0  0  0  0  0  0
    1.3719   -1.2158    4.8102 C   0  0  0  0  0  0  0  0  0  0  0  0
    2.3281   -1.5013    4.2785 N   0  0  0  0  0  0  0  0  0  0  0  0
    4.3579    1.4876    8.5824 C   0  0  0  0  0  0  0  0  0  0  0  0
    5.5066    2.0733    7.6911 C   0  0  0  0  0  0  0  0  0  0  0  0
    4.9041    2.9038    6.5738 C   0  0  0  0  0  0  0  0  0  0  0  0
    4.3265    3.9602    7.1490 C   0  0  0  0  0  0  0  0  0  0  0  0
    4.6146    3.8431    8.6515 C   0  0  0  0  0  0  0  0  0  0  0  0
    5.9682    3.2006    8.5621 C   0  0  0  0  0  0  0  0  0  0  0  0
    3.8304    2.6500    9.2763 C   0  0  0  0  0  0  0  0  0  0  0  0
   -2.3977    0.4615    4.1019 C   0  0  0  0  0  0  0  0  0  0  0  0
   -1.3421    0.4881    3.2717 C   0  0  0  0  0  0  0  0  0  0  0  0
   -0.8147    1.7218    2.7668 N   0  0  0  0  0  0  0  0  0  0  0  0
    0.3528    2.4069    3.2752 C   0  0  0  0  0  0  0  0  0  0  0  0
    0.2551    3.7514    3.6919 C   0  0  0  0  0  0  0  0  0  0  0  0
    1.3726    4.5093    3.8344 C   0  0  0  0  0  0  0  0  0  0  0  0
    2.6466    4.0026    3.6468 C   0  0  0  0  0  0  0  0  0  0  0  0
    4.0561    5.1331    3.8670 S   0  0  0  0  0  0  0  0  0  0  0  0
    5.4287    4.2617    3.0237 C   0  0  0  0  0  0  0  0  0  0  0  0
    2.7684    2.6199    3.3412 C   0  0  0  0  0  0  0  0  0  0  0  0
    1.6411    1.8374    3.1221 C   0  0  0  0  0  0  0  0  0  0  0  0
   -1.6005    2.3781    1.7771 C   0  0  0  0  0  0  0  0  0  0  0  0
   -2.9683    2.5770    2.0139 C   0  0  0  0  0  0  0  0  0  0  0  0
   -3.8007    3.2270    1.0751 C   0  0  0  0  0  0  0  0  0  0  0  0
   -3.2173    3.6099   -0.1597 C   0  0  0  0  0  0  0  0  0  0  0  0
   -4.2071    4.5910   -1.2716 S   0  0  0  0  0  0  0  0  0  0  0  0
   -5.2118    3.2398   -1.9671 C   0  0  0  0  0  0  0  0  0  0  0  0
   -1.8723    3.4507   -0.3684 C   0  0  0  0  0  0  0  0  0  0  0  0
   -1.0584    2.8581    0.6036 C   0  0  0  0  0  0  0  0  0  0  0  0
   -1.4143   -0.6303    2.3785 C   0  0  0  0  0  0  0  0  0  0  0  0
   -0.2060   -1.1084    1.4201 S   0  0  0  0  0  0  0  0  0  0  0  0
   -1.0709   -2.4932    0.7715 C   0  0  0  0  0  0  0  0  0  0  0  0
   -2.4811   -2.4736    1.3233 C   0  0  0  0  0  0  0  0  0  0  0  0
   -3.6627   -3.1309    0.7946 N   0  0  0  0  0  0  0  0  0  0  0  0
   -4.6713   -3.8471    1.6959 C   0  0  0  0  0  0  0  0  0  0  0  0
   -5.1655   -5.1358    1.3688 C   0  0  0  0  0  0  0  0  0  0  0  0
   -6.3773   -5.6318    2.0281 C   0  0  0  0  0  0  0  0  0  0  0  0
   -7.1758   -4.8508    2.7976 C   0  0  0  0  0  0  0  0  0  0  0  0
   -8.9067   -5.2786    2.9574 S   0  0  0  0  0  0  0  0  0  0  0  0
   -9.0766   -5.2810    4.7909 C   0  0  0  0  0  0  0  0  0  0  0  0
   -6.7272   -3.6240    3.1289 C   0  0  0  0  0  0  0  0  0  0  0  0
   -5.5214   -3.1175    2.5561 C   0  0  0  0  0  0  0  0  0  0  0  0
   -4.1156   -3.0615   -0.5635 C   0  0  0  0  0  0  0  0  0  0  0  0
   -3.6010   -3.8273   -1.7170 C   0  0  0  0  0  0  0  0  0  0  0  0
   -4.0643   -3.4856   -2.9474 C   0  0  0  0  0  0  0  0  0  0  0  0
   -5.3710   -3.3140   -3.1822 C   0  0  0  0  0  0  0  0  0  0  0  0
   -5.7156   -2.6823   -4.7940 S   0  0  0  0  0  0  0  0  0  0  0  0
   -5.5183   -4.3793   -5.5119 C   0  0  0  0  0  0  0  0  0  0  0  0
   -5.9867   -2.5510   -2.0433 C   0  0  0  0  0  0  0  0  0  0  0  0
   -5.3997   -2.6350   -0.7280 C   0  0  0  0  0  0  0  0  0  0  0  0
   -2.5693   -1.4008    2.3551 C   0  0  0  0  0  0  0  0  0  0  0  0
   -3.5179   -0.7218    3.5348 S   0  0  0  0  0  0  0  0  0  0  0  0
   -0.6008   -3.0198   -0.4721 C   0  0  0  0  0  0  0  0  0  0  0  0
   -0.5382   -2.1107   -1.5041 C   0  0  0  0  0  0  0  0  0  0  0  0
    0.3047   -2.2670   -2.6401 C   0  0  0  0  0  0  0  0  0  0  0  0
    0.9385   -3.4813   -2.8358 C   0  0  0  0  0  0  0  0  0  0  0  0
    0.7907   -4.5164   -1.9106 C   0  0  0  0  0  0  0  0  0  0  0  0
    1.3835   -5.7021   -2.0146 N   0  0  0  0  0  0  0  0  0  0  0  0
    1.1308   -6.7204   -1.1772 C   0  0  0  0  0  0  0  0  0  0  0  0
    0.3713   -6.4953   -0.0091 C   0  0  0  0  0  0  0  0  0  0  0  0
   -0.1246   -5.2553    0.1970 N   0  0  0  0  0  0  0  0  0  0  0  0
    0.0444   -4.2648   -0.6864 C   0  0  0  0  0  0  0  0  0  0  0  0
    1.8157   -3.5473   -4.0298 C   0  0  0  0  0  0  0  0  0  0  0  0
    1.2583   -2.8436   -5.4318 S   0  0  0  0  0  0  0  0  0  0  0  0
    2.5036   -1.8685   -5.8224 C   0  0  0  0  0  0  0  0  0  0  0  0
    3.6300   -2.2841   -5.0466 C   0  0  0  0  0  0  0  0  0  0  0  0
    5.0204   -2.1446   -5.3970 C   0  0  0  0  0  0  0  0  0  0  0  0
    5.3289   -1.4492   -6.3745 O   0  0  0  0  0  0  0  0  0  0  0  0
    6.0468   -2.8403   -4.5909 C   0  0  0  0  0  0  0  0  0  0  0  0
    7.4400   -2.6899   -4.7267 C   0  0  0  0  0  0  0  0  0  0  0  0
    8.2085   -1.6713   -5.5277 C   0  0  0  0  0  0  0  0  0  0  0  0
    8.1891   -1.8867   -7.0450 C   0  0  0  0  0  0  0  0  0  0  0  0
    8.1473   -3.6796   -3.5789 S   0  0  0  0  0  0  0  0  0  0  0  0
    6.7836   -4.2962   -2.9046 C   0  0  0  0  0  0  0  0  0  0  0  0
    6.7956   -5.3626   -1.8217 C   0  0  0  0  0  0  0  0  0  0  0  0
    6.7968   -4.7732   -0.3950 C   0  0  0  0  0  0  0  0  0  0  0  0
    5.6695   -3.6913   -3.5459 C   0  0  0  0  0  0  0  0  0  0  0  0
    4.2480   -3.8807   -3.2110 C   0  0  0  0  0  0  0  0  0  0  0  0
    3.9063   -4.6568   -2.2868 O   0  0  0  0  0  0  0  0  0  0  0  0
    3.1875   -3.2368   -4.0033 C   0  0  0  0  0  0  0  0  0  0  0  0
    2.3957   -0.9454   -6.9989 C   0  0  0  0  0  0  0  0  0  0  0  0
    1.7911    0.2820   -6.8973 C   0  0  0  0  0  0  0  0  0  0  0  0
    1.1188    0.9762   -7.9668 C   0  0  0  0  0  0  0  0  0  0  0  0
    1.1610    0.6611   -9.1995 O   0  0  0  0  0  0  0  0  0  0  0  0
    0.3114    2.0987   -7.4388 C   0  0  0  0  0  0  0  0  0  0  0  0
   -0.3801    3.1348   -8.1691 C   0  0  0  0  0  0  0  0  0  0  0  0
   -0.9019    4.1261   -7.2850 C   0  0  0  0  0  0  0  0  0  0  0  0
   -0.7279    4.1085   -5.8633 C   0  0  0  0  0  0  0  0  0  0  0  0
   -0.1018    3.0958   -5.2141 C   0  0  0  0  0  0  0  0  0  0  0  0
    0.4593    2.0804   -6.0114 C   0  0  0  0  0  0  0  0  0  0  0  0
    1.4555    1.1010   -5.6443 C   0  0  0  0  0  0  0  0  0  0  0  0
    2.2776    1.1897   -4.6064 C   0  0  0  0  0  0  0  0  0  0  0  0
    1.9576    1.8822   -3.3789 C   0  0  0  0  0  0  0  0  0  0  0  0
    1.7778    2.4274   -2.3757 N   0  0  0  0  0  0  0  0  0  0  0  0
    3.6811    0.8783   -4.6624 C   0  0  0  0  0  0  0  0  0  0  0  0
    4.7545    0.5807   -4.5779 N   0  0  0  0  0  0  0  0  0  0  0  0
   -1.4709    5.3737   -5.7271 C   0  0  0  0  0  0  0  0  0  0  0  0
   -2.8863    5.2841   -5.1075 C   0  0  0  0  0  0  0  0  0  0  0  0
   -3.4992    3.9477   -5.4340 C   0  0  0  0  0  0  0  0  0  0  0  0
   -3.7041    3.9354   -6.7518 C   0  0  0  0  0  0  0  0  0  0  0  0
   -3.2624    5.2969   -7.2499 C   0  0  0  0  0  0  0  0  0  0  0  0
   -3.6320    6.1492   -6.0647 C   0  0  0  0  0  0  0  0  0  0  0  0
   -1.7125    5.4008   -7.1639 C   0  0  0  0  0  0  0  0  0  0  0  0
   -3.2520    1.7782    5.6465 H   0  0  0  0  0  0  0  0  0  0  0  0
    0.6962    3.5326    9.1951 H   0  0  0  0  0  0  0  0  0  0  0  0
    2.8990    0.0836    6.2488 H   0  0  0  0  0  0  0  0  0  0  0  0
    4.6583    0.6316    9.2332 H   0  0  0  0  0  0  0  0  0  0  0  0
    6.2701    1.3556    7.3683 H   0  0  0  0  0  0  0  0  0  0  0  0
    4.8563    2.6237    5.5235 H   0  0  0  0  0  0  0  0  0  0  0  0
    3.6484    4.6337    6.6734 H   0  0  0  0  0  0  0  0  0  0  0  0
    4.5479    4.7978    9.1910 H   0  0  0  0  0  0  0  0  0  0  0  0
    6.3673    2.8536    9.5486 H   0  0  0  0  0  0  0  0  0  0  0  0
    6.7374    3.8480    8.0746 H   0  0  0  0  0  0  0  0  0  0  0  0
    3.8807    2.5860   10.3990 H   0  0  0  0  0  0  0  0  0  0  0  0
   -0.7311    4.1408    3.8085 H   0  0  0  0  0  0  0  0  0  0  0  0
    1.2572    5.5591    4.0897 H   0  0  0  0  0  0  0  0  0  0  0  0
    5.9797    3.6334    3.7655 H   0  0  0  0  0  0  0  0  0  0  0  0
    6.1573    5.0266    2.6572 H   0  0  0  0  0  0  0  0  0  0  0  0
    5.1020    3.6671    2.1620 H   0  0  0  0  0  0  0  0  0  0  0  0
    3.7690    2.1844    3.2017 H   0  0  0  0  0  0  0  0  0  0  0  0
    1.7767    0.8355    2.7695 H   0  0  0  0  0  0  0  0  0  0  0  0
   -3.4369    2.3833    3.0093 H   0  0  0  0  0  0  0  0  0  0  0  0
   -4.6746    3.6588    1.4009 H   0  0  0  0  0  0  0  0  0  0  0  0
   -4.5628    2.5028   -2.4625 H   0  0  0  0  0  0  0  0  0  0  0  0
   -5.9180    3.6896   -2.7269 H   0  0  0  0  0  0  0  0  0  0  0  0
   -5.7988    2.7744   -1.1677 H   0  0  0  0  0  0  0  0  0  0  0  0
   -1.4070    3.8466   -1.2581 H   0  0  0  0  0  0  0  0  0  0  0  0
    0.0345    2.7899    0.4563 H   0  0  0  0  0  0  0  0  0  0  0  0
   -4.6834   -5.6218    0.5681 H   0  0  0  0  0  0  0  0  0  0  0  0
   -6.7395   -6.5220    1.5698 H   0  0  0  0  0  0  0  0  0  0  0  0
   -8.7370   -6.2401    5.2262 H   0  0  0  0  0  0  0  0  0  0  0  0
  -10.1718   -5.1474    5.0481 H   0  0  0  0  0  0  0  0  0  0  0  0
   -8.5277   -4.4334    5.2241 H   0  0  0  0  0  0  0  0  0  0  0  0
   -7.4062   -2.9151    3.6212 H   0  0  0  0  0  0  0  0  0  0  0  0
   -5.4969   -2.0775    2.6324 H   0  0  0  0  0  0  0  0  0  0  0  0
   -2.6100   -4.0518   -1.7726 H   0  0  0  0  0  0  0  0  0  0  0  0
   -3.4294   -3.7818   -3.7126 H   0  0  0  0  0  0  0  0  0  0  0  0
   -4.4501   -4.7214   -5.5053 H   0  0  0  0  0  0  0  0  0  0  0  0
   -5.7892   -4.3478   -6.5805 H   0  0  0  0  0  0  0  0  0  0  0  0
   -6.1432   -5.1469   -4.9861 H   0  0  0  0  0  0  0  0  0  0  0  0
   -5.8303   -1.5113   -2.2651 H   0  0  0  0  0  0  0  0  0  0  0  0
   -5.8078   -2.0122   -0.0253 H   0  0  0  0  0  0  0  0  0  0  0  0
   -1.1574   -1.1944   -1.4924 H   0  0  0  0  0  0  0  0  0  0  0  0
    0.3060   -1.4445   -3.3634 H   0  0  0  0  0  0  0  0  0  0  0  0
    1.6284   -7.6911   -1.3756 H   0  0  0  0  0  0  0  0  0  0  0  0
    0.2085   -7.3533    0.6355 H   0  0  0  0  0  0  0  0  0  0  0  0
    7.7785   -0.6642   -5.2952 H   0  0  0  0  0  0  0  0  0  0  0  0
    9.2874   -1.6449   -5.1982 H   0  0  0  0  0  0  0  0  0  0  0  0
    9.2052   -2.0635   -7.4329 H   0  0  0  0  0  0  0  0  0  0  0  0
    7.7892   -0.9841   -7.5522 H   0  0  0  0  0  0  0  0  0  0  0  0
    7.5427   -2.7579   -7.3478 H   0  0  0  0  0  0  0  0  0  0  0  0
    7.7193   -5.9767   -1.9043 H   0  0  0  0  0  0  0  0  0  0  0  0
    5.9492   -6.0555   -1.9180 H   0  0  0  0  0  0  0  0  0  0  0  0
    7.6584   -4.1084   -0.2483 H   0  0  0  0  0  0  0  0  0  0  0  0
    5.8567   -4.2042   -0.1996 H   0  0  0  0  0  0  0  0  0  0  0  0
    6.8619   -5.5985    0.3450 H   0  0  0  0  0  0  0  0  0  0  0  0
    2.6453   -1.3095   -7.9684 H   0  0  0  0  0  0  0  0  0  0  0  0
   -0.4929    3.1775   -9.2035 H   0  0  0  0  0  0  0  0  0  0  0  0
   -0.0338    3.0804   -4.1402 H   0  0  0  0  0  0  0  0  0  0  0  0
   -0.8291    6.2285   -5.3466 H   0  0  0  0  0  0  0  0  0  0  0  0
   -2.9489    5.5809   -4.0265 H   0  0  0  0  0  0  0  0  0  0  0  0
   -3.6844    3.1181   -4.7491 H   0  0  0  0  0  0  0  0  0  0  0  0
   -4.0160    3.0884   -7.3369 H   0  0  0  0  0  0  0  0  0  0  0  0
   -3.6937    5.5892   -8.2184 H   0  0  0  0  0  0  0  0  0  0  0  0
   -3.2472    7.1869   -6.1195 H   0  0  0  0  0  0  0  0  0  0  0  0
   -4.7236    6.1743   -5.8744 H   0  0  0  0  0  0  0  0  0  0  0  0
   -1.2507    6.2793   -7.6872 H   0  0  0  0  0  0  0  0  0  0  0  0
  1  2  2  3
  2  3  1  0
  3  4  2  0
  3  5  1  0
  5  6  2  0
  6  7  1  0
  7  8  2  0
  8  9  1  0
  9 10  2  0
 10 11  1  0
 11 12  2  3
 12 13  1  0
 13 14  3  0
 12 15  1  0
 15 16  3  0
  8 17  1  0
 17 18  1  0
 18 19  1  0
 19 20  2  0
 20 21  1  0
 21 22  1  0
 21 23  1  0
  1 24  1  0
 24 25  2  0
 25 26  1  0
 26 27  1  0
 27 28  2  0
 28 29  1  0
 29 30  2  0
 30 31  1  0
 31 32  1  0
 30 33  1  0
 33 34  2  0
 26 35  1  0
 35 36  2  0
 36 37  1  0
 37 38  2  0
 38 39  1  0
 39 40  1  0
 38 41  1  0
 41 42  2  0
 25 43  1  0
 43 44  1  0
 44 45  1  0
 45 46  2  0
 46 47  1  0
 47 48  1  0
 48 49  2  0
 49 50  1  0
 50 51  2  0
 51 52  1  0
 52 53  1  0
 51 54  1  0
 54 55  2  0
 47 56  1  0
 56 57  2  0
 57 58  1  0
 58 59  2  0
 59 60  1  0
 60 61  1  0
 59 62  1  0
 62 63  2  0
 46 64  1  0
 64 65  1  0
 45 66  1  0
 66 67  2  0
 67 68  1  0
 68 69  2  0
 69 70  1  0
 70 71  2  0
 71 72  1  0
 72 73  2  0
 73 74  1  0
 74 75  2  0
 69 76  1  0
 76 77  1  0
 77 78  1  0
 78 79  2  0
 79 80  1  0
 80 81  2  0
 80 82  1  0
 82 83  2  0
 83 84  1  0
 84 85  1  0
 83 86  1  0
 86 87  1  0
 87 88  1  0
 88 89  1  0
 87 90  2  0
 90 91  1  0
 91 92  2  0
 91 93  1  0
 78 94  1  0
 94 95  2  3
 95 96  1  0
 96 97  2  0
 96 98  1  0
 98 99  2  0
 99100  1  0
100101  2  0
101102  1  0
102103  2  0
103104  1  0
104105  2  3
105106  1  0
106107  3  0
105108  1  0
108109  3  0
101110  1  0
110111  1  0
111112  1  0
112113  2  0
113114  1  0
114115  1  0
114116  1  0
 11  2  1  0
 23 17  1  0
 65 24  1  0
 75 66  1  0
 93 76  2  0
104 95  1  0
116110  1  0
 10  5  1  0
 22 18  1  0
 34 27  1  0
 42 35  1  0
 64 43  2  0
 75 70  1  0
 93 79  1  0
103 98  1  0
115111  1  0
 23  7  1  0
 55 48  1  0
 63 56  1  0
 90 82  1  0
116100  1  0
  1117  1  0
  6118  1  0
  9119  1  0
 17120  1  0
 18121  1  0
 19122  1  0
 20123  1  0
 21124  1  0
 22125  1  0
 22126  1  0
 23127  1  0
 28128  1  0
 29129  1  0
 32130  1  0
 32131  1  0
 32132  1  0
 33133  1  0
 34134  1  0
 36135  1  0
 37136  1  0
 40137  1  0
 40138  1  0
 40139  1  0
 41140  1  0
 42141  1  0
 49142  1  0
 50143  1  0
 53144  1  0
 53145  1  0
 53146  1  0
 54147  1  0
 55148  1  0
 57149  1  0
 58150  1  0
 61151  1  0
 61152  1  0
 61153  1  0
 62154  1  0
 63155  1  0
 67156  1  0
 68157  1  0
 72158  1  0
 73159  1  0
 84160  1  0
 84161  1  0
 85162  1  0
 85163  1  0
 85164  1  0
 88165  1  0
 88166  1  0
 89167  1  0
 89168  1  0
 89169  1  0
 94170  1  0
 99171  1  0
102172  1  0
110173  1  0
111174  1  0
112175  1  0
113176  1  0
114177  1  0
115178  1  0
115179  1  0
116180  1  0
M  END

