
     RDKit          3D

206226  0  0  0  0  0  0  0  0999 V2000
   -5.8919    1.7229   -1.5157 C   0  0  0  0  0  0  0  0  0  0  0  0
   -5.8893    2.9902   -1.9750 C   0  0  0  0  0  0  0  0  0  0  0  0
   -5.5421    3.4099   -3.3407 C   0  0  0  0  0  0  0  0  0  0  0  0
   -5.4582    2.6627   -4.3547 O   0  0  0  0  0  0  0  0  0  0  0  0
   -5.4697    4.8538   -3.3820 C   0  0  0  0  0  0  0  0  0  0  0  0
   -4.8958    5.6387   -4.4076 C   0  0  0  0  0  0  0  0  0  0  0  0
   -4.7056    6.9654   -4.0622 C   0  0  0  0  0  0  0  0  0  0  0  0
   -5.0642    7.4982   -2.7847 C   0  0  0  0  0  0  0  0  0  0  0  0
   -5.6414    6.7425   -1.7841 C   0  0  0  0  0  0  0  0  0  0  0  0
   -5.8702    5.3738   -2.1238 C   0  0  0  0  0  0  0  0  0  0  0  0
   -6.2257    4.2384   -1.2224 C   0  0  0  0  0  0  0  0  0  0  0  0
   -6.5795    4.3585    0.0816 C   0  0  0  0  0  0  0  0  0  0  0  0
   -7.1639    5.5628    0.6037 C   0  0  0  0  0  0  0  0  0  0  0  0
   -7.6436    6.5324    1.0176 N   0  0  0  0  0  0  0  0  0  0  0  0
   -6.2608    3.3536    1.0611 C   0  0  0  0  0  0  0  0  0  0  0  0
   -5.9641    2.5688    1.8617 N   0  0  0  0  0  0  0  0  0  0  0  0
   -4.4876    8.8286   -3.1551 C   0  0  0  0  0  0  0  0  0  0  0  0
   -3.1102    9.1859   -2.5184 C   0  0  0  0  0  0  0  0  0  0  0  0
   -2.5723   10.3410   -3.3229 C   0  0  0  0  0  0  0  0  0  0  0  0
   -2.2446    9.8508   -4.5258 C   0  0  0  0  0  0  0  0  0  0  0  0
   -2.5685    8.3787   -4.4872 C   0  0  0  0  0  0  0  0  0  0  0  0
   -2.1914    8.0933   -3.0439 C   0  0  0  0  0  0  0  0  0  0  0  0
   -4.1240    8.2848   -4.4711 C   0  0  0  0  0  0  0  0  0  0  0  0
   -4.9503    0.6792   -1.9947 C   0  0  0  0  0  0  0  0  0  0  0  0
   -4.7953   -0.5928   -1.3993 C   0  0  0  0  0  0  0  0  0  0  0  0
   -5.7271   -1.1785   -0.4783 N   0  0  0  0  0  0  0  0  0  0  0  0
   -5.7301   -0.7897    0.9126 C   0  0  0  0  0  0  0  0  0  0  0  0
   -6.9468   -0.6697    1.6108 C   0  0  0  0  0  0  0  0  0  0  0  0
   -6.9613   -0.3193    2.9658 C   0  0  0  0  0  0  0  0  0  0  0  0
   -5.7591   -0.1063    3.6483 C   0  0  0  0  0  0  0  0  0  0  0  0
   -5.7822    0.4044    5.3677 S   0  0  0  0  0  0  0  0  0  0  0  0
   -5.8827   -1.2963    6.0106 C   0  0  0  0  0  0  0  0  0  0  0  0
   -4.5425   -0.2260    2.9663 C   0  0  0  0  0  0  0  0  0  0  0  0
   -4.5266   -0.5564    1.6043 C   0  0  0  0  0  0  0  0  0  0  0  0
   -6.6090   -2.2162   -0.9614 C   0  0  0  0  0  0  0  0  0  0  0  0
   -7.2666   -2.0799   -2.1976 C   0  0  0  0  0  0  0  0  0  0  0  0
   -8.1284   -3.0815   -2.6562 C   0  0  0  0  0  0  0  0  0  0  0  0
   -8.3368   -4.2330   -1.8922 C   0  0  0  0  0  0  0  0  0  0  0  0
   -9.4996   -5.4808   -2.4547 S   0  0  0  0  0  0  0  0  0  0  0  0
   -8.2381   -6.4836   -3.3003 C   0  0  0  0  0  0  0  0  0  0  0  0
   -7.6761   -4.3842   -0.6672 C   0  0  0  0  0  0  0  0  0  0  0  0
   -6.8180   -3.3844   -0.2049 C   0  0  0  0  0  0  0  0  0  0  0  0
   -3.5674   -1.1710   -1.7231 C   0  0  0  0  0  0  0  0  0  0  0  0
   -2.6246   -2.3194   -0.9442 S   0  0  0  0  0  0  0  0  0  0  0  0
   -1.1625   -1.8586   -1.6902 C   0  0  0  0  0  0  0  0  0  0  0  0
   -1.4269   -0.7663   -2.5242 C   0  0  0  0  0  0  0  0  0  0  0  0
   -0.4249   -0.0133   -3.2240 N   0  0  0  0  0  0  0  0  0  0  0  0
   -0.4521   -0.0985   -4.6595 C   0  0  0  0  0  0  0  0  0  0  0  0
   -0.4262   -1.3526   -5.2914 C   0  0  0  0  0  0  0  0  0  0  0  0
   -0.5901   -1.4468   -6.6793 C   0  0  0  0  0  0  0  0  0  0  0  0
   -0.7918   -0.2913   -7.4419 C   0  0  0  0  0  0  0  0  0  0  0  0
   -1.0911   -0.4132   -9.2006 S   0  0  0  0  0  0  0  0  0  0  0  0
   -2.8966   -0.5126   -8.9884 C   0  0  0  0  0  0  0  0  0  0  0  0
   -0.7882    0.9642   -6.8225 C   0  0  0  0  0  0  0  0  0  0  0  0
   -0.6293    1.0600   -5.4369 C   0  0  0  0  0  0  0  0  0  0  0  0
    0.2851    1.0675   -2.5765 C   0  0  0  0  0  0  0  0  0  0  0  0
   -0.3158    1.8201   -1.5476 C   0  0  0  0  0  0  0  0  0  0  0  0
    0.3144    2.9585   -1.0408 C   0  0  0  0  0  0  0  0  0  0  0  0
    1.5658    3.3475   -1.5321 C   0  0  0  0  0  0  0  0  0  0  0  0
    2.3176    4.8644   -0.9463 S   0  0  0  0  0  0  0  0  0  0  0  0
    1.8010    5.8194   -2.4083 C   0  0  0  0  0  0  0  0  0  0  0  0
    2.2107    2.5606   -2.4900 C   0  0  0  0  0  0  0  0  0  0  0  0
    1.5682    1.4364   -3.0234 C   0  0  0  0  0  0  0  0  0  0  0  0
   -2.7763   -0.4264   -2.5328 C   0  0  0  0  0  0  0  0  0  0  0  0
   -3.5311    1.0149   -2.8852 S   0  0  0  0  0  0  0  0  0  0  0  0
    0.1451   -2.1035   -1.0825 C   0  0  0  0  0  0  0  0  0  0  0  0
    0.9775   -3.2274   -1.2349 C   0  0  0  0  0  0  0  0  0  0  0  0
    0.6411   -4.3989   -2.0010 N   0  0  0  0  0  0  0  0  0  0  0  0
    1.6489   -5.0645   -2.7768 C   0  0  0  0  0  0  0  0  0  0  0  0
    1.9471   -6.4205   -2.5428 C   0  0  0  0  0  0  0  0  0  0  0  0
    2.9428   -7.0593   -3.2926 C   0  0  0  0  0  0  0  0  0  0  0  0
    3.6289   -6.3563   -4.2922 C   0  0  0  0  0  0  0  0  0  0  0  0
    4.8979   -7.1814   -5.2591 S   0  0  0  0  0  0  0  0  0  0  0  0
    6.2602   -6.5917   -4.1986 C   0  0  0  0  0  0  0  0  0  0  0  0
    3.3245   -5.0112   -4.5344 C   0  0  0  0  0  0  0  0  0  0  0  0
    2.3514   -4.3627   -3.7682 C   0  0  0  0  0  0  0  0  0  0  0  0
   -0.6639   -4.9877   -1.9059 C   0  0  0  0  0  0  0  0  0  0  0  0
   -1.1914   -5.3303   -0.6514 C   0  0  0  0  0  0  0  0  0  0  0  0
   -2.4789   -5.8657   -0.5556 C   0  0  0  0  0  0  0  0  0  0  0  0
   -3.2431   -6.0666   -1.7137 C   0  0  0  0  0  0  0  0  0  0  0  0
   -4.8994   -6.7340   -1.5833 S   0  0  0  0  0  0  0  0  0  0  0  0
   -4.3409   -8.4638   -1.6778 C   0  0  0  0  0  0  0  0  0  0  0  0
   -2.7123   -5.7335   -2.9659 C   0  0  0  0  0  0  0  0  0  0  0  0
   -1.4226   -5.1993   -3.0646 C   0  0  0  0  0  0  0  0  0  0  0  0
    2.1397   -3.0870   -0.4703 C   0  0  0  0  0  0  0  0  0  0  0  0
    3.4454   -4.0727   -0.0792 S   0  0  0  0  0  0  0  0  0  0  0  0
    4.1030   -2.9821    1.0634 C   0  0  0  0  0  0  0  0  0  0  0  0
    3.2845   -1.8356    1.1243 C   0  0  0  0  0  0  0  0  0  0  0  0
    3.4471   -0.7242    2.0252 N   0  0  0  0  0  0  0  0  0  0  0  0
    4.1695    0.4460    1.5800 C   0  0  0  0  0  0  0  0  0  0  0  0
    3.7276    1.7338    1.9394 C   0  0  0  0  0  0  0  0  0  0  0  0
    4.5061    2.8579    1.6421 C   0  0  0  0  0  0  0  0  0  0  0  0
    5.7309    2.7090    0.9866 C   0  0  0  0  0  0  0  0  0  0  0  0
    6.8068    4.1258    0.7475 S   0  0  0  0  0  0  0  0  0  0  0  0
    6.1648    4.5102   -0.9103 C   0  0  0  0  0  0  0  0  0  0  0  0
    6.1506    1.4413    0.5779 C   0  0  0  0  0  0  0  0  0  0  0  0
    5.3679    0.3155    0.8557 C   0  0  0  0  0  0  0  0  0  0  0  0
    2.9171   -0.8104    3.3710 C   0  0  0  0  0  0  0  0  0  0  0  0
    1.7503   -1.5499    3.6420 C   0  0  0  0  0  0  0  0  0  0  0  0
    1.2728   -1.6707    4.9510 C   0  0  0  0  0  0  0  0  0  0  0  0
    1.9635   -1.0740    6.0095 C   0  0  0  0  0  0  0  0  0  0  0  0
    1.3800   -1.2815    7.6924 S   0  0  0  0  0  0  0  0  0  0  0  0
    2.3760   -2.7810    7.9720 C   0  0  0  0  0  0  0  0  0  0  0  0
    3.1162   -0.3271    5.7556 C   0  0  0  0  0  0  0  0  0  0  0  0
    3.5911   -0.1926    4.4475 C   0  0  0  0  0  0  0  0  0  0  0  0
    2.2099   -1.9423    0.2592 C   0  0  0  0  0  0  0  0  0  0  0  0
    0.8576   -1.0017    0.0018 S   0  0  0  0  0  0  0  0  0  0  0  0
    5.3274   -3.2256    1.8473 C   0  0  0  0  0  0  0  0  0  0  0  0
    6.2569   -4.1647    1.5482 N   0  0  0  0  0  0  0  0  0  0  0  0
    7.3344   -4.1217    2.3390 N   0  0  0  0  0  0  0  0  0  0  0  0
    7.2836   -3.1260    3.2529 C   0  0  0  0  0  0  0  0  0  0  0  0
    5.8196   -2.3088    3.1546 S   0  0  0  0  0  0  0  0  0  0  0  0
    8.3015   -2.8706    4.2914 C   0  0  0  0  0  0  0  0  0  0  0  0
    8.5856   -1.6169    4.7138 C   0  0  0  0  0  0  0  0  0  0  0  0
    8.1387   -0.3872    4.0546 C   0  0  0  0  0  0  0  0  0  0  0  0
    7.9808   -0.2189    2.8167 O   0  0  0  0  0  0  0  0  0  0  0  0
    7.9578    0.6297    5.0622 C   0  0  0  0  0  0  0  0  0  0  0  0
    7.2689    1.8320    4.9375 C   0  0  0  0  0  0  0  0  0  0  0  0
    7.0208    2.5831    6.0964 C   0  0  0  0  0  0  0  0  0  0  0  0
    6.2824    3.7756    6.0242 C   0  0  0  0  0  0  0  0  0  0  0  0
    6.0064    4.5010    7.1852 C   0  0  0  0  0  0  0  0  0  0  0  0
    6.4700    4.0511    8.4241 C   0  0  0  0  0  0  0  0  0  0  0  0
    7.2081    2.8638    8.5131 C   0  0  0  0  0  0  0  0  0  0  0  0
    7.4832    2.1140    7.3583 C   0  0  0  0  0  0  0  0  0  0  0  0
    8.1774    0.8889    7.4474 C   0  0  0  0  0  0  0  0  0  0  0  0
    8.4195    0.1552    6.2777 C   0  0  0  0  0  0  0  0  0  0  0  0
    8.9781   -1.2189    6.0973 C   0  0  0  0  0  0  0  0  0  0  0  0
    9.8044   -1.8901    6.9380 C   0  0  0  0  0  0  0  0  0  0  0  0
   10.2162   -1.3475    8.2059 C   0  0  0  0  0  0  0  0  0  0  0  0
   10.5516   -0.9206    9.2283 N   0  0  0  0  0  0  0  0  0  0  0  0
   10.4315   -3.1304    6.5597 C   0  0  0  0  0  0  0  0  0  0  0  0
   10.9417   -4.1255    6.2634 N   0  0  0  0  0  0  0  0  0  0  0  0
   -6.4214    1.4929   -0.6088 H   0  0  0  0  0  0  0  0  0  0  0  0
   -4.5364    5.2205   -5.3371 H   0  0  0  0  0  0  0  0  0  0  0  0
   -5.8016    7.1618   -0.8098 H   0  0  0  0  0  0  0  0  0  0  0  0
   -5.2362    9.6546   -3.1834 H   0  0  0  0  0  0  0  0  0  0  0  0
   -3.1101    9.3313   -1.4178 H   0  0  0  0  0  0  0  0  0  0  0  0
   -2.3915   11.3545   -2.9780 H   0  0  0  0  0  0  0  0  0  0  0  0
   -1.7461   10.3942   -5.3205 H   0  0  0  0  0  0  0  0  0  0  0  0
   -2.0596    7.7605   -5.2553 H   0  0  0  0  0  0  0  0  0  0  0  0
   -1.1106    8.2753   -2.8278 H   0  0  0  0  0  0  0  0  0  0  0  0
   -2.4515    7.0686   -2.6996 H   0  0  0  0  0  0  0  0  0  0  0  0
   -4.6518    8.7594   -5.3277 H   0  0  0  0  0  0  0  0  0  0  0  0
   -7.8871   -0.8281    1.0959 H   0  0  0  0  0  0  0  0  0  0  0  0
   -7.9070   -0.2154    3.4780 H   0  0  0  0  0  0  0  0  0  0  0  0
   -5.0293   -1.9022    5.6402 H   0  0  0  0  0  0  0  0  0  0  0  0
   -5.8454   -1.2647    7.1196 H   0  0  0  0  0  0  0  0  0  0  0  0
   -6.8420   -1.7610    5.6989 H   0  0  0  0  0  0  0  0  0  0  0  0
   -3.6103   -0.0557    3.4890 H   0  0  0  0  0  0  0  0  0  0  0  0
   -3.5734   -0.6288    1.1028 H   0  0  0  0  0  0  0  0  0  0  0  0
   -7.1256   -1.1862   -2.7945 H   0  0  0  0  0  0  0  0  0  0  0  0
   -8.6427   -2.9510   -3.5984 H   0  0  0  0  0  0  0  0  0  0  0  0
   -8.7427   -7.2180   -3.9599 H   0  0  0  0  0  0  0  0  0  0  0  0
   -7.6410   -7.0353   -2.5463 H   0  0  0  0  0  0  0  0  0  0  0  0
   -7.5736   -5.8431   -3.9170 H   0  0  0  0  0  0  0  0  0  0  0  0
   -7.8311   -5.2747   -0.0702 H   0  0  0  0  0  0  0  0  0  0  0  0
   -6.3039   -3.5176    0.7414 H   0  0  0  0  0  0  0  0  0  0  0  0
   -0.2942   -2.2516   -4.7065 H   0  0  0  0  0  0  0  0  0  0  0  0
   -0.5900   -2.4186   -7.1544 H   0  0  0  0  0  0  0  0  0  0  0  0
   -3.1596   -1.4110   -8.3914 H   0  0  0  0  0  0  0  0  0  0  0  0
   -3.2774    0.3963   -8.4754 H   0  0  0  0  0  0  0  0  0  0  0  0
   -3.3788   -0.5886   -9.9839 H   0  0  0  0  0  0  0  0  0  0  0  0
   -0.9524    1.8591   -7.4103 H   0  0  0  0  0  0  0  0  0  0  0  0
   -0.6909    2.0363   -4.9702 H   0  0  0  0  0  0  0  0  0  0  0  0
   -1.2852    1.5475   -1.1502 H   0  0  0  0  0  0  0  0  0  0  0  0
   -0.1766    3.5478   -0.2749 H   0  0  0  0  0  0  0  0  0  0  0  0
    0.7109    5.7075   -2.5970 H   0  0  0  0  0  0  0  0  0  0  0  0
    2.0222    6.8935   -2.2444 H   0  0  0  0  0  0  0  0  0  0  0  0
    2.3719    5.4712   -3.2939 H   0  0  0  0  0  0  0  0  0  0  0  0
    3.1861    2.8507   -2.8631 H   0  0  0  0  0  0  0  0  0  0  0  0
    2.0588    0.8633   -3.7997 H   0  0  0  0  0  0  0  0  0  0  0  0
    1.4099   -6.9750   -1.7845 H   0  0  0  0  0  0  0  0  0  0  0  0
    3.1598   -8.1028   -3.1060 H   0  0  0  0  0  0  0  0  0  0  0  0
    6.1330   -6.9657   -3.1585 H   0  0  0  0  0  0  0  0  0  0  0  0
    6.2935   -5.4800   -4.1951 H   0  0  0  0  0  0  0  0  0  0  0  0
    7.2204   -6.9760   -4.6028 H   0  0  0  0  0  0  0  0  0  0  0  0
    3.8497   -4.4603   -5.3012 H   0  0  0  0  0  0  0  0  0  0  0  0
    2.1378   -3.3157   -3.9375 H   0  0  0  0  0  0  0  0  0  0  0  0
   -0.6076   -5.1758    0.2491 H   0  0  0  0  0  0  0  0  0  0  0  0
   -2.8879   -6.1172    0.4156 H   0  0  0  0  0  0  0  0  0  0  0  0
   -5.2097   -9.1352   -1.5597 H   0  0  0  0  0  0  0  0  0  0  0  0
   -3.8738   -8.6593   -2.6648 H   0  0  0  0  0  0  0  0  0  0  0  0
   -3.6126   -8.6836   -0.8690 H   0  0  0  0  0  0  0  0  0  0  0  0
   -3.2963   -5.8920   -3.8632 H   0  0  0  0  0  0  0  0  0  0  0  0
   -1.0204   -4.9350   -4.0346 H   0  0  0  0  0  0  0  0  0  0  0  0
    2.7975    1.8582    2.4764 H   0  0  0  0  0  0  0  0  0  0  0  0
    4.1751    3.8382    1.9570 H   0  0  0  0  0  0  0  0  0  0  0  0
    6.8013    5.2923   -1.3753 H   0  0  0  0  0  0  0  0  0  0  0  0
    5.1342    4.9024   -0.8225 H   0  0  0  0  0  0  0  0  0  0  0  0
    6.1724    3.6069   -1.5562 H   0  0  0  0  0  0  0  0  0  0  0  0
    7.1013    1.3196    0.0706 H   0  0  0  0  0  0  0  0  0  0  0  0
    5.7311   -0.6582    0.5557 H   0  0  0  0  0  0  0  0  0  0  0  0
    1.2039   -2.0383    2.8500 H   0  0  0  0  0  0  0  0  0  0  0  0
    0.3738   -2.2453    5.1447 H   0  0  0  0  0  0  0  0  0  0  0  0
    3.4556   -2.5309    7.9054 H   0  0  0  0  0  0  0  0  0  0  0  0
    2.1246   -3.5566    7.2159 H   0  0  0  0  0  0  0  0  0  0  0  0
    2.1577   -3.1812    8.9836 H   0  0  0  0  0  0  0  0  0  0  0  0
    3.6600    0.1379    6.5702 H   0  0  0  0  0  0  0  0  0  0  0  0
    4.5043    0.3617    4.2750 H   0  0  0  0  0  0  0  0  0  0  0  0
    8.6321   -3.7322    4.8492 H   0  0  0  0  0  0  0  0  0  0  0  0
    6.8854    2.1426    3.9736 H   0  0  0  0  0  0  0  0  0  0  0  0
    5.9054    4.1369    5.0744 H   0  0  0  0  0  0  0  0  0  0  0  0
    5.4283    5.4155    7.1275 H   0  0  0  0  0  0  0  0  0  0  0  0
    6.2520    4.6212    9.3162 H   0  0  0  0  0  0  0  0  0  0  0  0
    7.5490    2.5287    9.4820 H   0  0  0  0  0  0  0  0  0  0  0  0
    8.4529    0.5051    8.4146 H   0  0  0  0  0  0  0  0  0  0  0  0
  1  2  2  3
  2  3  1  0
  3  4  2  0
  3  5  1  0
  5  6  2  0
  6  7  1  0
  7  8  2  0
  8  9  1  0
  9 10  2  0
 10 11  1  0
 11 12  2  3
 12 13  1  0
 13 14  3  0
 12 15  1  0
 15 16  3  0
  8 17  1  0
 17 18  1  0
 18 19  1  0
 19 20  2  0
 20 21  1  0
 21 22  1  0
 21 23  1  0
  1 24  1  0
 24 25  2  0
 25 26  1  0
 26 27  1  0
 27 28  2  0
 28 29  1  0
 29 30  2  0
 30 31  1  0
 31 32  1  0
 30 33  1  0
 33 34  2  0
 26 35  1  0
 35 36  2  0
 36 37  1  0
 37 38  2  0
 38 39  1  0
 39 40  1  0
 38 41  1  0
 41 42  2  0
 25 43  1  0
 43 44  1  0
 44 45  1  0
 45 46  2  0
 46 47  1  0
 47 48  1  0
 48 49  2  0
 49 50  1  0
 50 51  2  0
 51 52  1  0
 52 53  1  0
 51 54  1  0
 54 55  2  0
 47 56  1  0
 56 57  2  0
 57 58  1  0
 58 59  2  0
 59 60  1  0
 60 61  1  0
 59 62  1  0
 62 63  2  0
 46 64  1  0
 64 65  1  0
 45 66  1  0
 66 67  2  0
 67 68  1  0
 68 69  1  0
 69 70  2  0
 70 71  1  0
 71 72  2  0
 72 73  1  0
 73 74  1  0
 72 75  1  0
 75 76  2  0
 68 77  1  0
 77 78  2  0
 78 79  1  0
 79 80  2  0
 80 81  1  0
 81 82  1  0
 80 83  1  0
 83 84  2  0
 67 85  1  0
 85 86  1  0
 86 87  1  0
 87 88  2  0
 88 89  1  0
 89 90  1  0
 90 91  2  0
 91 92  1  0
 92 93  2  0
 93 94  1  0
 94 95  1  0
 93 96  1  0
 96 97  2  0
 89 98  1  0
 98 99  2  0
 99100  1  0
100101  2  0
101102  1  0
102103  1  0
101104  1  0
104105  2  0
 88106  1  0
106107  1  0
 87108  1  0
108109  2  0
109110  1  0
110111  2  0
111112  1  0
111113  1  0
113114  2  3
114115  1  0
115116  2  0
115117  1  0
117118  2  0
118119  1  0
119120  2  0
120121  1  0
121122  2  0
122123  1  0
123124  2  0
124125  1  0
125126  2  0
126127  1  0
127128  2  3
128129  1  0
129130  3  0
128131  1  0
131132  3  0
 11  2  1  0
 23 17  1  0
 65 24  1  0
107 66  1  0
112108  1  0
127114  1  0
 10  5  1  0
 22 18  1  0
 34 27  1  0
 42 35  1  0
 64 43  2  0
 76 69  1  0
 84 77  1  0
106 85  2  0
126117  1  0
 23  7  1  0
 55 48  1  0
 63 56  1  0
 97 90  1  0
105 98  1  0
124119  1  0
  1133  1  0
  6134  1  0
  9135  1  0
 17136  1  0
 18137  1  0
 19138  1  0
 20139  1  0
 21140  1  0
 22141  1  0
 22142  1  0
 23143  1  0
 28144  1  0
 29145  1  0
 32146  1  0
 32147  1  0
 32148  1  0
 33149  1  0
 34150  1  0
 36151  1  0
 37152  1  0
 40153  1  0
 40154  1  0
 40155  1  0
 41156  1  0
 42157  1  0
 49158  1  0
 50159  1  0
 53160  1  0
 53161  1  0
 53162  1  0
 54163  1  0
 55164  1  0
 57165  1  0
 58166  1  0
 61167  1  0
 61168  1  0
 61169  1  0
 62170  1  0
 63171  1  0
 70172  1  0
 71173  1  0
 74174  1  0
 74175  1  0
 74176  1  0
 75177  1  0
 76178  1  0
 78179  1  0
 79180  1  0
 82181  1  0
 82182  1  0
 82183  1  0
 83184  1  0
 84185  1  0
 91186  1  0
 92187  1  0
 95188  1  0
 95189  1  0
 95190  1  0
 96191  1  0
 97192  1  0
 99193  1  0
100194  1  0
103195  1  0
103196  1  0
103197  1  0
104198  1  0
105199  1  0
113200  1  0
118201  1  0
120202  1  0
121203  1  0
122204  1  0
123205  1  0
125206  1  0
M  END

