
     RDKit          3D

134154  0  0  0  0  0  0  0  0999 V2000
   -8.3420   -0.9243    3.8571 C   0  0  0  0  0  0  0  0  0  0  0  0
   -8.5355   -0.9438    2.5201 C   0  0  0  0  0  0  0  0  0  0  0  0
   -7.4608   -1.0482    1.5184 C   0  0  0  0  0  0  0  0  0  0  0  0
   -6.2201   -0.9818    1.7315 O   0  0  0  0  0  0  0  0  0  0  0  0
   -8.0408   -1.3371    0.2353 C   0  0  0  0  0  0  0  0  0  0  0  0
   -7.3407   -1.6104   -0.9612 C   0  0  0  0  0  0  0  0  0  0  0  0
   -8.1558   -1.9585   -2.0187 C   0  0  0  0  0  0  0  0  0  0  0  0
   -9.5804   -2.0498   -1.9115 C   0  0  0  0  0  0  0  0  0  0  0  0
  -10.2706   -1.7927   -0.7378 C   0  0  0  0  0  0  0  0  0  0  0  0
   -9.4522   -1.4038    0.3626 C   0  0  0  0  0  0  0  0  0  0  0  0
   -9.8310   -1.0783    1.7732 C   0  0  0  0  0  0  0  0  0  0  0  0
  -11.0765   -0.7808    2.2348 C   0  0  0  0  0  0  0  0  0  0  0  0
  -11.3174   -0.2758    3.5611 C   0  0  0  0  0  0  0  0  0  0  0  0
  -11.5221    0.1340    4.6256 N   0  0  0  0  0  0  0  0  0  0  0  0
  -12.2480   -0.8339    1.3969 C   0  0  0  0  0  0  0  0  0  0  0  0
  -13.2029   -0.8674    0.7392 N   0  0  0  0  0  0  0  0  0  0  0  0
   -9.6704   -2.5022   -3.3378 C   0  0  0  0  0  0  0  0  0  0  0  0
   -9.9479   -4.0168   -3.5726 C   0  0  0  0  0  0  0  0  0  0  0  0
   -9.6007   -4.2847   -5.0190 C   0  0  0  0  0  0  0  0  0  0  0  0
   -8.2685   -4.1935   -5.1118 C   0  0  0  0  0  0  0  0  0  0  0  0
   -7.7636   -3.8675   -3.7265 C   0  0  0  0  0  0  0  0  0  0  0  0
   -8.7541   -4.6910   -2.9183 C   0  0  0  0  0  0  0  0  0  0  0  0
   -8.2106   -2.4038   -3.4460 C   0  0  0  0  0  0  0  0  0  0  0  0
   -6.9910   -0.8325    4.4383 C   0  0  0  0  0  0  0  0  0  0  0  0
   -6.2430    0.3441    4.3132 C   0  0  0  0  0  0  0  0  0  0  0  0
   -4.8428    0.3524    4.5320 C   0  0  0  0  0  0  0  0  0  0  0  0
   -4.2043    1.5916    4.2010 N   0  0  0  0  0  0  0  0  0  0  0  0
   -5.4540    2.4541    3.7197 S   0  0  0  0  0  4  0  0  0  0  0  0
   -6.7803    1.5772    3.8177 N   0  0  0  0  0  0  0  0  0  0  0  0
   -4.1554   -0.8247    4.8894 C   0  0  0  0  0  0  0  0  0  0  0  0
   -4.9268   -1.9755    5.1407 C   0  0  0  0  0  0  0  0  0  0  0  0
   -4.3849   -3.1528    5.5476 N   0  0  0  0  0  0  0  0  0  0  0  0
   -5.7232   -4.1166    5.5801 S   0  0  0  0  0  0  0  0  0  0  0  0
   -6.9830   -3.1600    5.1092 N   0  0  0  0  0  0  0  0  0  0  0  0
   -6.3419   -1.9798    4.9150 C   0  0  0  0  0  0  0  0  0  0  0  0
   -2.6783   -0.9048    4.7998 C   0  0  0  0  0  0  0  0  0  0  0  0
   -1.9874   -1.9213    4.1372 C   0  0  0  0  0  0  0  0  0  0  0  0
   -0.6233   -1.6479    3.9698 C   0  0  0  0  0  0  0  0  0  0  0  0
    0.2879   -2.4248    3.2309 C   0  0  0  0  0  0  0  0  0  0  0  0
   -0.1168   -3.6707    2.5584 C   0  0  0  0  0  0  0  0  0  0  0  0
    0.3514   -5.2153    3.0320 S   0  0  0  0  0  0  0  0  0  0  0  0
   -0.5172   -6.0316    1.8407 C   0  0  0  0  0  0  0  0  0  0  0  0
   -0.4917   -7.5194    1.6332 C   0  0  0  0  0  0  0  0  0  0  0  0
    0.6518   -7.9170    0.7039 C   0  0  0  0  0  0  0  0  0  0  0  0
   -1.1743   -5.0938    1.0438 C   0  0  0  0  0  0  0  0  0  0  0  0
   -2.1538   -5.5158   -0.3514 Cl  0  0  0  0  0  0  0  0  0  0  0  0
   -0.9498   -3.7697    1.4492 C   0  0  0  0  0  0  0  0  0  0  0  0
   -1.6351   -2.3795    0.6193 Cl  0  0  0  0  0  0  0  0  0  0  0  0
    1.5847   -1.9128    3.0785 C   0  0  0  0  0  0  0  0  0  0  0  0
    1.9786   -0.6902    3.6369 C   0  0  0  0  0  0  0  0  0  0  0  0
    1.0671    0.0883    4.3846 C   0  0  0  0  0  0  0  0  0  0  0  0
    1.4134    1.4298    4.8916 C   0  0  0  0  0  0  0  0  0  0  0  0
    1.8597    2.4987    4.1206 C   0  0  0  0  0  0  0  0  0  0  0  0
    2.0664    3.6633    4.8640 C   0  0  0  0  0  0  0  0  0  0  0  0
    1.7954    3.5131    6.2239 C   0  0  0  0  0  0  0  0  0  0  0  0
    1.8127    4.5836    7.2764 C   0  0  0  0  0  0  0  0  0  0  0  0
    2.9103    5.6234    7.0445 C   0  0  0  0  0  0  0  0  0  0  0  0
    1.2565    1.9406    6.4876 S   0  0  0  0  0  0  0  0  0  0  0  0
   -0.2319   -0.4279    4.5311 C   0  0  0  0  0  0  0  0  0  0  0  0
   -1.5832    0.3231    5.1954 S   0  0  0  0  0  0  0  0  0  0  0  0
    3.2908   -0.3295    3.2923 C   0  0  0  0  0  0  0  0  0  0  0  0
    3.8933   -1.2372    2.4262 C   0  0  0  0  0  0  0  0  0  0  0  0
    2.8258   -2.5063    2.1069 S   0  0  0  0  0  0  0  0  0  0  0  0
    5.1472   -0.9666    1.7038 C   0  0  0  0  0  0  0  0  0  0  0  0
    5.1568   -0.8668    0.3047 C   0  0  0  0  0  0  0  0  0  0  0  0
    6.2961   -0.3914   -0.3909 C   0  0  0  0  0  0  0  0  0  0  0  0
    6.1443   -0.3299   -1.8138 N   0  0  0  0  0  0  0  0  0  0  0  0
    4.6378   -0.8355   -1.9703 S   0  0  0  0  0  4  0  0  0  0  0  0
    4.0320   -1.1691   -0.5330 N   0  0  0  0  0  0  0  0  0  0  0  0
    7.4593    0.0065    0.2959 C   0  0  0  0  0  0  0  0  0  0  0  0
    7.4871   -0.1789    1.6877 C   0  0  0  0  0  0  0  0  0  0  0  0
    8.5721    0.1276    2.4444 N   0  0  0  0  0  0  0  0  0  0  0  0
    8.0006   -0.2166    3.9541 S   0  0  0  0  0  0  0  0  0  0  0  0
    6.4457   -0.7423    3.7413 N   0  0  0  0  0  0  0  0  0  0  0  0
    6.3314   -0.6468    2.3927 C   0  0  0  0  0  0  0  0  0  0  0  0
    8.6347    0.5628   -0.4052 C   0  0  0  0  0  0  0  0  0  0  0  0
    8.6032    1.5576   -1.3121 C   0  0  0  0  0  0  0  0  0  0  0  0
    9.7032    1.7939   -2.2455 C   0  0  0  0  0  0  0  0  0  0  0  0
   10.8777    1.3492   -2.1335 O   0  0  0  0  0  0  0  0  0  0  0  0
    9.2043    2.5627   -3.3646 C   0  0  0  0  0  0  0  0  0  0  0  0
    9.9057    2.9095   -4.5422 C   0  0  0  0  0  0  0  0  0  0  0  0
    9.1316    3.5701   -5.4782 C   0  0  0  0  0  0  0  0  0  0  0  0
    7.7454    3.8682   -5.2806 C   0  0  0  0  0  0  0  0  0  0  0  0
    7.0510    3.5224   -4.1335 C   0  0  0  0  0  0  0  0  0  0  0  0
    7.8339    2.8592   -3.1444 C   0  0  0  0  0  0  0  0  0  0  0  0
    7.4466    2.3814   -1.7857 C   0  0  0  0  0  0  0  0  0  0  0  0
    6.4640    2.9078   -1.0105 C   0  0  0  0  0  0  0  0  0  0  0  0
    6.5001    2.8274    0.4245 C   0  0  0  0  0  0  0  0  0  0  0  0
    6.5259    2.7827    1.5814 N   0  0  0  0  0  0  0  0  0  0  0  0
    5.4110    3.7329   -1.5451 C   0  0  0  0  0  0  0  0  0  0  0  0
    4.5570    4.4004   -1.9520 N   0  0  0  0  0  0  0  0  0  0  0  0
    7.6650    4.4916   -6.6410 C   0  0  0  0  0  0  0  0  0  0  0  0
    6.9646    3.6565   -7.7566 C   0  0  0  0  0  0  0  0  0  0  0  0
    7.3571    4.3007   -9.0646 C   0  0  0  0  0  0  0  0  0  0  0  0
    8.6557    4.0301   -9.2441 C   0  0  0  0  0  0  0  0  0  0  0  0
    9.0952    3.2156   -8.0493 C   0  0  0  0  0  0  0  0  0  0  0  0
    7.8245    2.4063   -7.8435 C   0  0  0  0  0  0  0  0  0  0  0  0
    9.0889    4.1962   -6.8395 C   0  0  0  0  0  0  0  0  0  0  0  0
   -9.1584   -1.0819    4.5443 H   0  0  0  0  0  0  0  0  0  0  0  0
   -6.2606   -1.5857   -1.0354 H   0  0  0  0  0  0  0  0  0  0  0  0
  -11.3330   -1.9380   -0.6941 H   0  0  0  0  0  0  0  0  0  0  0  0
  -10.2300   -1.8004   -3.9974 H   0  0  0  0  0  0  0  0  0  0  0  0
  -10.9479   -4.3803   -3.2516 H   0  0  0  0  0  0  0  0  0  0  0  0
  -10.2732   -4.5926   -5.8119 H   0  0  0  0  0  0  0  0  0  0  0  0
   -7.6727   -4.4090   -5.9938 H   0  0  0  0  0  0  0  0  0  0  0  0
   -6.6894   -4.0884   -3.5495 H   0  0  0  0  0  0  0  0  0  0  0  0
   -8.6950   -5.7870   -3.1288 H   0  0  0  0  0  0  0  0  0  0  0  0
   -8.6856   -4.5362   -1.8195 H   0  0  0  0  0  0  0  0  0  0  0  0
   -7.8413   -1.6355   -4.1657 H   0  0  0  0  0  0  0  0  0  0  0  0
   -2.4748   -2.7925    3.7150 H   0  0  0  0  0  0  0  0  0  0  0  0
   -0.3580   -8.0233    2.6135 H   0  0  0  0  0  0  0  0  0  0  0  0
   -1.4617   -7.8570    1.2037 H   0  0  0  0  0  0  0  0  0  0  0  0
    0.6115   -9.0096    0.5105 H   0  0  0  0  0  0  0  0  0  0  0  0
    1.6254   -7.6804    1.1798 H   0  0  0  0  0  0  0  0  0  0  0  0
    0.5729   -7.3844   -0.2675 H   0  0  0  0  0  0  0  0  0  0  0  0
    2.0160    2.4423    3.0501 H   0  0  0  0  0  0  0  0  0  0  0  0
    2.3917    4.5889    4.4098 H   0  0  0  0  0  0  0  0  0  0  0  0
    0.8206    5.0879    7.2986 H   0  0  0  0  0  0  0  0  0  0  0  0
    1.9785    4.1067    8.2659 H   0  0  0  0  0  0  0  0  0  0  0  0
    2.6817    6.2353    6.1458 H   0  0  0  0  0  0  0  0  0  0  0  0
    2.9716    6.2982    7.9226 H   0  0  0  0  0  0  0  0  0  0  0  0
    3.8952    5.1246    6.9116 H   0  0  0  0  0  0  0  0  0  0  0  0
    3.7635    0.5968    3.5935 H   0  0  0  0  0  0  0  0  0  0  0  0
    9.5854    0.0891   -0.1896 H   0  0  0  0  0  0  0  0  0  0  0  0
   10.9437    2.6616   -4.7156 H   0  0  0  0  0  0  0  0  0  0  0  0
    5.9960    3.7271   -4.0461 H   0  0  0  0  0  0  0  0  0  0  0  0
    7.4164    5.5785   -6.6227 H   0  0  0  0  0  0  0  0  0  0  0  0
    5.8770    3.4842   -7.6206 H   0  0  0  0  0  0  0  0  0  0  0  0
    6.7045    4.7946   -9.7752 H   0  0  0  0  0  0  0  0  0  0  0  0
    9.2417    4.2631  -10.1281 H   0  0  0  0  0  0  0  0  0  0  0  0
   10.0259    2.6266   -8.1904 H   0  0  0  0  0  0  0  0  0  0  0  0
    7.5764    1.7560   -8.7185 H   0  0  0  0  0  0  0  0  0  0  0  0
    7.8239    1.7834   -6.9239 H   0  0  0  0  0  0  0  0  0  0  0  0
    9.7407    5.0928   -6.9418 H   0  0  0  0  0  0  0  0  0  0  0  0
  1  2  2  3
  2  3  1  0
  3  4  2  0
  3  5  1  0
  5  6  2  0
  6  7  1  0
  7  8  2  0
  8  9  1  0
  9 10  2  0
 10 11  1  0
 11 12  2  3
 12 13  1  0
 13 14  3  0
 12 15  1  0
 15 16  3  0
  8 17  1  0
 17 18  1  0
 18 19  1  0
 19 20  2  0
 20 21  1  0
 21 22  1  0
 21 23  1  0
  1 24  1  0
 24 25  2  0
 25 26  1  0
 26 27  1  0
 27 28  2  0
 28 29  2  0
 26 30  2  0
 30 31  1  0
 31 32  2  0
 32 33  1  0
 33 34  1  0
 34 35  2  0
 30 36  1  0
 36 37  2  0
 37 38  1  0
 38 39  2  0
 39 40  1  0
 40 41  1  0
 41 42  1  0
 42 43  1  0
 43 44  1  0
 42 45  2  0
 45 46  1  0
 45 47  1  0
 47 48  1  0
 39 49  1  0
 49 50  2  0
 50 51  1  0
 51 52  1  0
 52 53  2  0
 53 54  1  0
 54 55  2  0
 55 56  1  0
 56 57  1  0
 55 58  1  0
 51 59  2  0
 59 60  1  0
 50 61  1  0
 61 62  2  0
 62 63  1  0
 62 64  1  0
 64 65  2  0
 65 66  1  0
 66 67  1  0
 67 68  2  0
 68 69  2  0
 66 70  2  0
 70 71  1  0
 71 72  2  0
 72 73  1  0
 73 74  1  0
 74 75  2  0
 70 76  1  0
 76 77  2  3
 77 78  1  0
 78 79  2  0
 78 80  1  0
 80 81  2  0
 81 82  1  0
 82 83  2  0
 83 84  1  0
 84 85  2  0
 85 86  1  0
 86 87  2  3
 87 88  1  0
 88 89  3  0
 87 90  1  0
 90 91  3  0
 83 92  1  0
 92 93  1  0
 93 94  1  0
 94 95  2  0
 95 96  1  0
 96 97  1  0
 96 98  1  0
 11  2  1  0
 23 17  1  0
 35 24  1  0
 60 36  1  0
 75 64  1  0
 86 77  1  0
 98 92  1  0
 10  5  1  0
 22 18  1  0
 29 25  1  0
 35 31  1  0
 59 38  1  0
 69 65  1  0
 75 71  1  0
 85 80  1  0
 97 93  1  0
 23  7  1  0
 47 40  2  0
 63 49  1  0
 98 82  1  0
 58 52  1  0
  1 99  1  0
  6100  1  0
  9101  1  0
 17102  1  0
 18103  1  0
 19104  1  0
 20105  1  0
 21106  1  0
 22107  1  0
 22108  1  0
 23109  1  0
 37110  1  0
 43111  1  0
 43112  1  0
 44113  1  0
 44114  1  0
 44115  1  0
 53116  1  0
 54117  1  0
 56118  1  0
 56119  1  0
 57120  1  0
 57121  1  0
 57122  1  0
 61123  1  0
 76124  1  0
 81125  1  0
 84126  1  0
 92127  1  0
 93128  1  0
 94129  1  0
 95130  1  0
 96131  1  0
 97132  1  0
 97133  1  0
 98134  1  0
M  END

