
     RDKit          3D

265289  0  0  0  0  0  0  0  0999 V2000
    5.2023   -1.1545    6.5012 C   0  0  0  0  0  0  0  0  0  0  0  0
    6.5466   -1.2618    6.5294 C   0  0  0  0  0  0  0  0  0  0  0  0
    7.2647   -2.2074    7.3832 C   0  0  0  0  0  0  0  0  0  0  0  0
    6.8148   -2.7587    8.4237 O   0  0  0  0  0  0  0  0  0  0  0  0
    8.5611   -2.4708    6.7822 C   0  0  0  0  0  0  0  0  0  0  0  0
    9.5457   -3.3916    7.2190 C   0  0  0  0  0  0  0  0  0  0  0  0
   10.6703   -3.4339    6.4142 C   0  0  0  0  0  0  0  0  0  0  0  0
   10.8236   -2.6260    5.2412 C   0  0  0  0  0  0  0  0  0  0  0  0
    9.8604   -1.7352    4.7979 C   0  0  0  0  0  0  0  0  0  0  0  0
    8.7039   -1.6652    5.6206 C   0  0  0  0  0  0  0  0  0  0  0  0
    7.5151   -0.7894    5.4984 C   0  0  0  0  0  0  0  0  0  0  0  0
    7.4966    0.4427    4.9322 C   0  0  0  0  0  0  0  0  0  0  0  0
    8.4411    0.8567    3.9293 C   0  0  0  0  0  0  0  0  0  0  0  0
    9.1843    1.2035    3.1130 N   0  0  0  0  0  0  0  0  0  0  0  0
    6.6276    1.4687    5.4427 C   0  0  0  0  0  0  0  0  0  0  0  0
    5.9547    2.3042    5.8736 N   0  0  0  0  0  0  0  0  0  0  0  0
   12.1723   -3.2304    4.9807 C   0  0  0  0  0  0  0  0  0  0  0  0
   12.2987   -4.2613    3.8186 C   0  0  0  0  0  0  0  0  0  0  0  0
   10.9902   -4.9938    3.6333 C   0  0  0  0  0  0  0  0  0  0  0  0
   10.8262   -5.7538    4.7154 C   0  0  0  0  0  0  0  0  0  0  0  0
   12.0305   -5.5195    5.5986 C   0  0  0  0  0  0  0  0  0  0  0  0
   13.0863   -5.3509    4.5208 C   0  0  0  0  0  0  0  0  0  0  0  0
   12.0064   -4.0693    6.1723 C   0  0  0  0  0  0  0  0  0  0  0  0
    4.4801   -0.7972    5.2666 C   0  0  0  0  0  0  0  0  0  0  0  0
    3.3846    0.0841    5.1288 C   0  0  0  0  0  0  0  0  0  0  0  0
    2.6306    0.6512    6.2223 N   0  0  0  0  0  0  0  0  0  0  0  0
    2.2055   -0.2227    7.2886 C   0  0  0  0  0  0  0  0  0  0  0  0
    2.2341    0.2150    8.6246 C   0  0  0  0  0  0  0  0  0  0  0  0
    1.6668   -0.5668    9.6360 C   0  0  0  0  0  0  0  0  0  0  0  0
    1.0865   -1.8021    9.3230 C   0  0  0  0  0  0  0  0  0  0  0  0
    0.2657   -2.7543   10.6026 S   0  0  0  0  0  0  0  0  0  0  0  0
   -1.3625   -2.0107   10.2593 C   0  0  0  0  0  0  0  0  0  0  0  0
    1.1068   -2.2710    8.0075 C   0  0  0  0  0  0  0  0  0  0  0  0
    1.6604   -1.4869    6.9936 C   0  0  0  0  0  0  0  0  0  0  0  0
    2.0714    1.9901    6.1293 C   0  0  0  0  0  0  0  0  0  0  0  0
    0.8218    2.2939    6.7128 C   0  0  0  0  0  0  0  0  0  0  0  0
    0.3411    3.6038    6.7309 C   0  0  0  0  0  0  0  0  0  0  0  0
    1.0956    4.6360    6.1662 C   0  0  0  0  0  0  0  0  0  0  0  0
    0.5373    6.3355    6.3074 S   0  0  0  0  0  0  0  0  0  0  0  0
    1.3049    6.5720    7.9409 C   0  0  0  0  0  0  0  0  0  0  0  0
    2.2915    4.3399    5.5077 C   0  0  0  0  0  0  0  0  0  0  0  0
    2.7664    3.0240    5.4711 C   0  0  0  0  0  0  0  0  0  0  0  0
    2.9556    0.1258    3.8007 C   0  0  0  0  0  0  0  0  0  0  0  0
    1.6653    0.8368    3.0157 S   0  0  0  0  0  0  0  0  0  0  0  0
    1.9393    0.0413    1.5320 C   0  0  0  0  0  0  0  0  0  0  0  0
    3.0204   -0.8447    1.6821 C   0  0  0  0  0  0  0  0  0  0  0  0
    3.2222   -2.0094    0.8633 N   0  0  0  0  0  0  0  0  0  0  0  0
    4.4400   -2.1925    0.0937 C   0  0  0  0  0  0  0  0  0  0  0  0
    4.5892   -3.3193   -0.7426 C   0  0  0  0  0  0  0  0  0  0  0  0
    5.7831   -3.5438   -1.4312 C   0  0  0  0  0  0  0  0  0  0  0  0
    6.8399   -2.6389   -1.3174 C   0  0  0  0  0  0  0  0  0  0  0  0
    8.3779   -2.9398   -2.1903 S   0  0  0  0  0  0  0  0  0  0  0  0
    9.1183   -3.8852   -0.8212 C   0  0  0  0  0  0  0  0  0  0  0  0
    6.6936   -1.4952   -0.5259 C   0  0  0  0  0  0  0  0  0  0  0  0
    5.4995   -1.2664    0.1658 C   0  0  0  0  0  0  0  0  0  0  0  0
    2.3976   -3.1484    1.1745 C   0  0  0  0  0  0  0  0  0  0  0  0
    2.9081   -4.1843    1.9690 C   0  0  0  0  0  0  0  0  0  0  0  0
    2.1230   -5.3005    2.2632 C   0  0  0  0  0  0  0  0  0  0  0  0
    0.8247   -5.4002    1.7494 C   0  0  0  0  0  0  0  0  0  0  0  0
   -0.1674   -6.8476    2.1065 S   0  0  0  0  0  0  0  0  0  0  0  0
    0.4681   -7.7721    0.6730 C   0  0  0  0  0  0  0  0  0  0  0  0
    0.3092   -4.3692    0.9568 C   0  0  0  0  0  0  0  0  0  0  0  0
    1.0906   -3.2470    0.6675 C   0  0  0  0  0  0  0  0  0  0  0  0
    3.5834   -0.7240    2.9518 C   0  0  0  0  0  0  0  0  0  0  0  0
    4.7781   -1.5599    3.7750 S   0  0  0  0  0  0  0  0  0  0  0  0
    1.1869    0.2978    0.2881 C   0  0  0  0  0  0  0  0  0  0  0  0
   -0.0071    1.0362    0.1705 C   0  0  0  0  0  0  0  0  0  0  0  0
   -0.7204    1.6707    1.2405 N   0  0  0  0  0  0  0  0  0  0  0  0
   -0.3764    3.0233    1.6482 C   0  0  0  0  0  0  0  0  0  0  0  0
   -0.9768    3.6030    2.7843 C   0  0  0  0  0  0  0  0  0  0  0  0
   -0.6963    4.9228    3.1439 C   0  0  0  0  0  0  0  0  0  0  0  0
    0.2150    5.6768    2.3977 C   0  0  0  0  0  0  0  0  0  0  0  0
    0.5436    7.3826    2.8357 S   0  0  0  0  0  0  0  0  0  0  0  0
   -0.7252    8.0347    1.7048 C   0  0  0  0  0  0  0  0  0  0  0  0
    0.8558    5.1005    1.2983 C   0  0  0  0  0  0  0  0  0  0  0  0
    0.5659    3.7877    0.9247 C   0  0  0  0  0  0  0  0  0  0  0  0
   -1.9981    1.0958    1.5811 C   0  0  0  0  0  0  0  0  0  0  0  0
   -3.1782    1.8210    1.3625 C   0  0  0  0  0  0  0  0  0  0  0  0
   -4.4222    1.2491    1.6306 C   0  0  0  0  0  0  0  0  0  0  0  0
   -4.4993   -0.0593    2.1206 C   0  0  0  0  0  0  0  0  0  0  0  0
   -6.1030   -0.7859    2.4696 S   0  0  0  0  0  0  0  0  0  0  0  0
   -6.2011   -0.0691    4.1413 C   0  0  0  0  0  0  0  0  0  0  0  0
   -3.3274   -0.8012    2.3190 C   0  0  0  0  0  0  0  0  0  0  0  0
   -2.0797   -0.2298    2.0448 C   0  0  0  0  0  0  0  0  0  0  0  0
   -0.4223    1.1161   -1.1470 C   0  0  0  0  0  0  0  0  0  0  0  0
   -1.7344    1.8074   -1.8945 S   0  0  0  0  0  0  0  0  0  0  0  0
   -1.2816    1.3371   -3.4636 C   0  0  0  0  0  0  0  0  0  0  0  0
   -0.0985    0.5742   -3.3775 C   0  0  0  0  0  0  0  0  0  0  0  0
    0.5833   -0.0142   -4.4918 N   0  0  0  0  0  0  0  0  0  0  0  0
    1.5594    0.8154   -5.1395 C   0  0  0  0  0  0  0  0  0  0  0  0
    1.1601    1.7684   -6.0835 C   0  0  0  0  0  0  0  0  0  0  0  0
    2.1109    2.5975   -6.6874 C   0  0  0  0  0  0  0  0  0  0  0  0
    3.4666    2.4635   -6.3621 C   0  0  0  0  0  0  0  0  0  0  0  0
    4.6893    3.5246   -7.1321 S   0  0  0  0  0  0  0  0  0  0  0  0
    4.6457    4.7443   -5.7815 C   0  0  0  0  0  0  0  0  0  0  0  0
    3.8681    1.4994   -5.4309 C   0  0  0  0  0  0  0  0  0  0  0  0
    2.9170    0.6848   -4.8138 C   0  0  0  0  0  0  0  0  0  0  0  0
    0.5406   -1.4441   -4.7420 C   0  0  0  0  0  0  0  0  0  0  0  0
    1.1953   -1.9935   -5.8645 C   0  0  0  0  0  0  0  0  0  0  0  0
    1.1762   -3.3693   -6.1005 C   0  0  0  0  0  0  0  0  0  0  0  0
    0.4992   -4.2223   -5.2292 C   0  0  0  0  0  0  0  0  0  0  0  0
    0.4803   -5.9867   -5.5436 S   0  0  0  0  0  0  0  0  0  0  0  0
   -0.9564   -5.8862   -6.6558 C   0  0  0  0  0  0  0  0  0  0  0  0
   -0.1694   -3.6968   -4.1209 C   0  0  0  0  0  0  0  0  0  0  0  0
   -0.1577   -2.3189   -3.8805 C   0  0  0  0  0  0  0  0  0  0  0  0
    0.3633    0.5044   -2.0615 C   0  0  0  0  0  0  0  0  0  0  0  0
    1.6742   -0.1961   -1.2814 S   0  0  0  0  0  0  0  0  0  0  0  0
   -2.2140    1.4041   -4.5959 C   0  0  0  0  0  0  0  0  0  0  0  0
   -3.0283    2.5091   -4.9226 C   0  0  0  0  0  0  0  0  0  0  0  0
   -2.8102    3.8758   -4.5164 N   0  0  0  0  0  0  0  0  0  0  0  0
   -3.1224    4.3191   -3.1788 C   0  0  0  0  0  0  0  0  0  0  0  0
   -2.2918    5.2604   -2.5443 C   0  0  0  0  0  0  0  0  0  0  0  0
   -2.5652    5.6769   -1.2387 C   0  0  0  0  0  0  0  0  0  0  0  0
   -3.6803    5.1751   -0.5608 C   0  0  0  0  0  0  0  0  0  0  0  0
   -4.0178    5.6986    1.1219 S   0  0  0  0  0  0  0  0  0  0  0  0
   -5.1521    7.0258    0.6140 C   0  0  0  0  0  0  0  0  0  0  0  0
   -4.5223    4.2522   -1.1894 C   0  0  0  0  0  0  0  0  0  0  0  0
   -4.2439    3.8256   -2.4905 C   0  0  0  0  0  0  0  0  0  0  0  0
   -2.6378    4.8624   -5.5527 C   0  0  0  0  0  0  0  0  0  0  0  0
   -1.5913    4.7417   -6.4777 C   0  0  0  0  0  0  0  0  0  0  0  0
   -1.4426    5.6778   -7.5058 C   0  0  0  0  0  0  0  0  0  0  0  0
   -2.3459    6.7416   -7.6235 C   0  0  0  0  0  0  0  0  0  0  0  0
   -2.1684    7.9326   -8.9529 S   0  0  0  0  0  0  0  0  0  0  0  0
   -1.1178    9.0536   -7.9764 C   0  0  0  0  0  0  0  0  0  0  0  0
   -3.3961    6.8633   -6.7080 C   0  0  0  0  0  0  0  0  0  0  0  0
   -3.5363    5.9363   -5.6727 C   0  0  0  0  0  0  0  0  0  0  0  0
   -4.1554    2.1147   -5.6357 C   0  0  0  0  0  0  0  0  0  0  0  0
   -5.6318    2.8753   -5.8331 S   0  0  0  0  0  0  0  0  0  0  0  0
   -6.4760    1.4412   -6.1806 C   0  0  0  0  0  0  0  0  0  0  0  0
   -5.5823    0.3525   -6.1744 C   0  0  0  0  0  0  0  0  0  0  0  0
   -5.9862   -1.0124   -6.4177 N   0  0  0  0  0  0  0  0  0  0  0  0
   -5.3956   -2.1225   -5.7095 C   0  0  0  0  0  0  0  0  0  0  0  0
   -5.3084   -2.1162   -4.3069 C   0  0  0  0  0  0  0  0  0  0  0  0
   -4.7793   -3.2177   -3.6258 C   0  0  0  0  0  0  0  0  0  0  0  0
   -4.3550   -4.3454   -4.3378 C   0  0  0  0  0  0  0  0  0  0  0  0
   -3.7144   -5.7741   -3.4616 S   0  0  0  0  0  0  0  0  0  0  0  0
   -5.3612   -6.5114   -3.2148 C   0  0  0  0  0  0  0  0  0  0  0  0
   -4.4537   -4.3658   -5.7342 C   0  0  0  0  0  0  0  0  0  0  0  0
   -4.9548   -3.2547   -6.4174 C   0  0  0  0  0  0  0  0  0  0  0  0
   -6.9571   -1.2848   -7.4518 C   0  0  0  0  0  0  0  0  0  0  0  0
   -7.9852   -2.2193   -7.2340 C   0  0  0  0  0  0  0  0  0  0  0  0
   -8.9191   -2.4904   -8.2381 C   0  0  0  0  0  0  0  0  0  0  0  0
   -8.8363   -1.8319   -9.4712 C   0  0  0  0  0  0  0  0  0  0  0  0
  -10.0591   -2.1526  -10.7440 S   0  0  0  0  0  0  0  0  0  0  0  0
   -9.1028   -3.4990  -11.5080 C   0  0  0  0  0  0  0  0  0  0  0  0
   -7.8143   -0.9027   -9.6971 C   0  0  0  0  0  0  0  0  0  0  0  0
   -6.8760   -0.6344   -8.6964 C   0  0  0  0  0  0  0  0  0  0  0  0
   -4.2855    0.7757   -5.8514 C   0  0  0  0  0  0  0  0  0  0  0  0
   -2.9455   -0.0056   -5.2099 S   0  0  0  0  0  0  0  0  0  0  0  0
   -7.9149    1.3338   -5.9114 C   0  0  0  0  0  0  0  0  0  0  0  0
   -8.3939    1.1771   -4.6549 C   0  0  0  0  0  0  0  0  0  0  0  0
   -7.5810    1.1636   -3.4280 C   0  0  0  0  0  0  0  0  0  0  0  0
   -6.3311    1.0641   -3.3513 O   0  0  0  0  0  0  0  0  0  0  0  0
   -8.4486    1.3231   -2.2884 C   0  0  0  0  0  0  0  0  0  0  0  0
   -8.0805    1.4529   -0.9486 C   0  0  0  0  0  0  0  0  0  0  0  0
   -9.0871    1.6693    0.0006 C   0  0  0  0  0  0  0  0  0  0  0  0
   -8.6619    1.8324    1.7002 Cl  0  0  0  0  0  0  0  0  0  0  0  0
  -10.4299    1.7755   -0.4104 C   0  0  0  0  0  0  0  0  0  0  0  0
  -11.4020    2.0248    0.5037 F   0  0  0  0  0  0  0  0  0  0  0  0
  -10.7735    1.6461   -1.7680 C   0  0  0  0  0  0  0  0  0  0  0  0
   -9.7626    1.3974   -2.7115 C   0  0  0  0  0  0  0  0  0  0  0  0
   -9.8222    1.2247   -4.1975 C   0  0  0  0  0  0  0  0  0  0  0  0
  -10.9275    0.9878   -4.9489 C   0  0  0  0  0  0  0  0  0  0  0  0
  -10.8570    0.6019   -6.3332 C   0  0  0  0  0  0  0  0  0  0  0  0
  -10.8057    0.2842   -7.4447 N   0  0  0  0  0  0  0  0  0  0  0  0
  -12.2597    0.9968   -4.3996 C   0  0  0  0  0  0  0  0  0  0  0  0
  -13.3362    1.0001   -3.9722 N   0  0  0  0  0  0  0  0  0  0  0  0
    4.6262   -1.5829    7.3086 H   0  0  0  0  0  0  0  0  0  0  0  0
    9.4276   -4.0167    8.0959 H   0  0  0  0  0  0  0  0  0  0  0  0
   10.0010   -1.1826    3.8820 H   0  0  0  0  0  0  0  0  0  0  0  0
   13.0124   -2.5042    5.0586 H   0  0  0  0  0  0  0  0  0  0  0  0
   12.7552   -3.8719    2.8856 H   0  0  0  0  0  0  0  0  0  0  0  0
   10.3423   -4.9704    2.7635 H   0  0  0  0  0  0  0  0  0  0  0  0
   10.0197   -6.4641    4.8772 H   0  0  0  0  0  0  0  0  0  0  0  0
   12.2308   -6.3183    6.3454 H   0  0  0  0  0  0  0  0  0  0  0  0
   13.2346   -6.2661    3.8987 H   0  0  0  0  0  0  0  0  0  0  0  0
   14.0745   -5.0077    4.9085 H   0  0  0  0  0  0  0  0  0  0  0  0
   12.7580   -3.8674    6.9695 H   0  0  0  0  0  0  0  0  0  0  0  0
    2.6531    1.1815    8.8722 H   0  0  0  0  0  0  0  0  0  0  0  0
    1.6540   -0.1998   10.6542 H   0  0  0  0  0  0  0  0  0  0  0  0
   -1.6660   -2.2220    9.2112 H   0  0  0  0  0  0  0  0  0  0  0  0
   -2.1155   -2.4511   10.9449 H   0  0  0  0  0  0  0  0  0  0  0  0
   -1.3256   -0.9114   10.4217 H   0  0  0  0  0  0  0  0  0  0  0  0
    0.6626   -3.2257    7.7617 H   0  0  0  0  0  0  0  0  0  0  0  0
    1.6212   -1.8400    5.9700 H   0  0  0  0  0  0  0  0  0  0  0  0
    0.2195    1.5195    7.1680 H   0  0  0  0  0  0  0  0  0  0  0  0
   -0.6034    3.8214    7.2103 H   0  0  0  0  0  0  0  0  0  0  0  0
    2.3919    6.3583    7.8853 H   0  0  0  0  0  0  0  0  0  0  0  0
    1.1598    7.6236    8.2669 H   0  0  0  0  0  0  0  0  0  0  0  0
    0.8246    5.8981    8.6852 H   0  0  0  0  0  0  0  0  0  0  0  0
    2.8658    5.1326    5.0406 H   0  0  0  0  0  0  0  0  0  0  0  0
    3.6839    2.8179    4.9396 H   0  0  0  0  0  0  0  0  0  0  0  0
    3.7949   -4.0430   -0.8471 H   0  0  0  0  0  0  0  0  0  0  0  0
    5.8846   -4.4279   -2.0497 H   0  0  0  0  0  0  0  0  0  0  0  0
    9.2439   -3.2370    0.0702 H   0  0  0  0  0  0  0  0  0  0  0  0
   10.1155   -4.2524   -1.1381 H   0  0  0  0  0  0  0  0  0  0  0  0
    8.4825   -4.7580   -0.5655 H   0  0  0  0  0  0  0  0  0  0  0  0
    7.5091   -0.7879   -0.4352 H   0  0  0  0  0  0  0  0  0  0  0  0
    5.4261   -0.3771    0.7770 H   0  0  0  0  0  0  0  0  0  0  0  0
    3.9181   -4.1249    2.3576 H   0  0  0  0  0  0  0  0  0  0  0  0
    2.5317   -6.0983    2.8706 H   0  0  0  0  0  0  0  0  0  0  0  0
    0.0207   -8.7880    0.6660 H   0  0  0  0  0  0  0  0  0  0  0  0
    1.5724   -7.8696    0.7383 H   0  0  0  0  0  0  0  0  0  0  0  0
    0.1916   -7.2526   -0.2672 H   0  0  0  0  0  0  0  0  0  0  0  0
   -0.6911   -4.4432    0.5483 H   0  0  0  0  0  0  0  0  0  0  0  0
    0.6725   -2.4690    0.0507 H   0  0  0  0  0  0  0  0  0  0  0  0
   -1.6687    3.0390    3.3925 H   0  0  0  0  0  0  0  0  0  0  0  0
   -1.1880    5.3587    4.0043 H   0  0  0  0  0  0  0  0  0  0  0  0
   -0.4519    7.8103    0.6533 H   0  0  0  0  0  0  0  0  0  0  0  0
   -0.7945    9.1342    1.8279 H   0  0  0  0  0  0  0  0  0  0  0  0
   -1.7146    7.5845    1.9324 H   0  0  0  0  0  0  0  0  0  0  0  0
    1.5662    5.6770    0.7205 H   0  0  0  0  0  0  0  0  0  0  0  0
    1.0760    3.3828    0.0631 H   0  0  0  0  0  0  0  0  0  0  0  0
   -3.1313    2.8215    0.9634 H   0  0  0  0  0  0  0  0  0  0  0  0
   -5.3242    1.8223    1.4553 H   0  0  0  0  0  0  0  0  0  0  0  0
   -6.1340    1.0386    4.0869 H   0  0  0  0  0  0  0  0  0  0  0  0
   -5.3837   -0.4668    4.7783 H   0  0  0  0  0  0  0  0  0  0  0  0
   -7.1774   -0.3373    4.5932 H   0  0  0  0  0  0  0  0  0  0  0  0
   -3.3823   -1.8213    2.6755 H   0  0  0  0  0  0  0  0  0  0  0  0
   -1.1785   -0.8110    2.1941 H   0  0  0  0  0  0  0  0  0  0  0  0
    0.1180    1.8543   -6.3554 H   0  0  0  0  0  0  0  0  0  0  0  0
    1.7923    3.3426   -7.4057 H   0  0  0  0  0  0  0  0  0  0  0  0
    4.8833    4.2541   -4.8143 H   0  0  0  0  0  0  0  0  0  0  0  0
    5.4018    5.5322   -5.9761 H   0  0  0  0  0  0  0  0  0  0  0  0
    3.6420    5.2137   -5.7268 H   0  0  0  0  0  0  0  0  0  0  0  0
    4.9141    1.3893   -5.1762 H   0  0  0  0  0  0  0  0  0  0  0  0
    3.2328   -0.0472   -4.0819 H   0  0  0  0  0  0  0  0  0  0  0  0
    1.7255   -1.3629   -6.5662 H   0  0  0  0  0  0  0  0  0  0  0  0
    1.6901   -3.7686   -6.9642 H   0  0  0  0  0  0  0  0  0  0  0  0
   -0.7276   -5.2248   -7.5169 H   0  0  0  0  0  0  0  0  0  0  0  0
   -1.8236   -5.4853   -6.0987 H   0  0  0  0  0  0  0  0  0  0  0  0
   -1.2018   -6.9013   -7.0307 H   0  0  0  0  0  0  0  0  0  0  0  0
   -0.6955   -4.3522   -3.4372 H   0  0  0  0  0  0  0  0  0  0  0  0
   -0.6931   -1.9473   -3.0176 H   0  0  0  0  0  0  0  0  0  0  0  0
   -1.4221    5.6520   -3.0559 H   0  0  0  0  0  0  0  0  0  0  0  0
   -1.9046    6.3835   -0.7528 H   0  0  0  0  0  0  0  0  0  0  0  0
   -6.0511    6.5912    0.1276 H   0  0  0  0  0  0  0  0  0  0  0  0
   -4.6435    7.7207   -0.0855 H   0  0  0  0  0  0  0  0  0  0  0  0
   -5.4654    7.5927    1.5149 H   0  0  0  0  0  0  0  0  0  0  0  0
   -5.3879    3.8619   -0.6692 H   0  0  0  0  0  0  0  0  0  0  0  0
   -4.9007    3.1095   -2.9546 H   0  0  0  0  0  0  0  0  0  0  0  0
   -0.8850    3.9301   -6.3938 H   0  0  0  0  0  0  0  0  0  0  0  0
   -0.6212    5.5785   -8.2086 H   0  0  0  0  0  0  0  0  0  0  0  0
   -0.8998    9.9638   -8.5749 H   0  0  0  0  0  0  0  0  0  0  0  0
   -1.6403    9.3560   -7.0445 H   0  0  0  0  0  0  0  0  0  0  0  0
   -0.1606    8.5532   -7.7235 H   0  0  0  0  0  0  0  0  0  0  0  0
   -4.1049    7.6765   -6.8001 H   0  0  0  0  0  0  0  0  0  0  0  0
   -4.3584    6.0441   -4.9802 H   0  0  0  0  0  0  0  0  0  0  0  0
   -5.6698   -1.2753   -3.7416 H   0  0  0  0  0  0  0  0  0  0  0  0
   -4.7253   -3.2016   -2.5459 H   0  0  0  0  0  0  0  0  0  0  0  0
   -5.9905   -5.8377   -2.5966 H   0  0  0  0  0  0  0  0  0  0  0  0
   -5.8496   -6.6902   -4.1946 H   0  0  0  0  0  0  0  0  0  0  0  0
   -5.2502   -7.4798   -2.6866 H   0  0  0  0  0  0  0  0  0  0  0  0
   -4.1574   -5.2441   -6.2886 H   0  0  0  0  0  0  0  0  0  0  0  0
   -5.0174   -3.2840   -7.4964 H   0  0  0  0  0  0  0  0  0  0  0  0
   -8.0696   -2.7262   -6.2816 H   0  0  0  0  0  0  0  0  0  0  0  0
   -9.7096   -3.2061   -8.0543 H   0  0  0  0  0  0  0  0  0  0  0  0
   -8.9311   -4.3131  -10.7736 H   0  0  0  0  0  0  0  0  0  0  0  0
   -9.6734   -3.9082  -12.3663 H   0  0  0  0  0  0  0  0  0  0  0  0
   -8.1254   -3.1181  -11.8720 H   0  0  0  0  0  0  0  0  0  0  0  0
   -7.7447   -0.3875  -10.6476 H   0  0  0  0  0  0  0  0  0  0  0  0
   -6.0831    0.0741   -8.8914 H   0  0  0  0  0  0  0  0  0  0  0  0
   -8.5674    1.5223   -6.7439 H   0  0  0  0  0  0  0  0  0  0  0  0
   -7.0412    1.3985   -0.6534 H   0  0  0  0  0  0  0  0  0  0  0  0
  -11.8073    1.7723   -2.0453 H   0  0  0  0  0  0  0  0  0  0  0  0
  1  2  2  3
  2  3  1  0
  3  4  2  0
  3  5  1  0
  5  6  2  0
  6  7  1  0
  7  8  2  0
  8  9  1  0
  9 10  2  0
 10 11  1  0
 11 12  2  3
 12 13  1  0
 13 14  3  0
 12 15  1  0
 15 16  3  0
  8 17  1  0
 17 18  1  0
 18 19  1  0
 19 20  2  0
 20 21  1  0
 21 22  1  0
 21 23  1  0
  1 24  1  0
 24 25  2  0
 25 26  1  0
 26 27  1  0
 27 28  2  0
 28 29  1  0
 29 30  2  0
 30 31  1  0
 31 32  1  0
 30 33  1  0
 33 34  2  0
 26 35  1  0
 35 36  2  0
 36 37  1  0
 37 38  2  0
 38 39  1  0
 39 40  1  0
 38 41  1  0
 41 42  2  0
 25 43  1  0
 43 44  1  0
 44 45  1  0
 45 46  2  0
 46 47  1  0
 47 48  1  0
 48 49  2  0
 49 50  1  0
 50 51  2  0
 51 52  1  0
 52 53  1  0
 51 54  1  0
 54 55  2  0
 47 56  1  0
 56 57  2  0
 57 58  1  0
 58 59  2  0
 59 60  1  0
 60 61  1  0
 59 62  1  0
 62 63  2  0
 46 64  1  0
 64 65  1  0
 45 66  1  0
 66 67  2  0
 67 68  1  0
 68 69  1  0
 69 70  2  0
 70 71  1  0
 71 72  2  0
 72 73  1  0
 73 74  1  0
 72 75  1  0
 75 76  2  0
 68 77  1  0
 77 78  2  0
 78 79  1  0
 79 80  2  0
 80 81  1  0
 81 82  1  0
 80 83  1  0
 83 84  2  0
 67 85  1  0
 85 86  1  0
 86 87  1  0
 87 88  2  0
 88 89  1  0
 89 90  1  0
 90 91  2  0
 91 92  1  0
 92 93  2  0
 93 94  1  0
 94 95  1  0
 93 96  1  0
 96 97  2  0
 89 98  1  0
 98 99  2  0
 99100  1  0
100101  2  0
101102  1  0
102103  1  0
101104  1  0
104105  2  0
 88106  1  0
106107  1  0
 87108  1  0
108109  2  0
109110  1  0
110111  1  0
111112  2  0
112113  1  0
113114  2  0
114115  1  0
115116  1  0
114117  1  0
117118  2  0
110119  1  0
119120  2  0
120121  1  0
121122  2  0
122123  1  0
123124  1  0
122125  1  0
125126  2  0
109127  1  0
127128  1  0
128129  1  0
129130  2  0
130131  1  0
131132  1  0
132133  2  0
133134  1  0
134135  2  0
135136  1  0
136137  1  0
135138  1  0
138139  2  0
131140  1  0
140141  2  0
141142  1  0
142143  2  0
143144  1  0
144145  1  0
143146  1  0
146147  2  0
130148  1  0
148149  1  0
129150  1  0
150151  2  3
151152  1  0
152153  2  0
152154  1  0
154155  2  0
155156  1  0
156157  1  0
156158  2  0
158159  1  0
158160  1  0
160161  2  0
161162  1  0
162163  2  3
163164  1  0
164165  3  0
163166  1  0
166167  3  0
 11  2  1  0
 23 17  1  0
 65 24  1  0
107 66  1  0
149108  1  0
162151  1  0
 10  5  1  0
 22 18  1  0
 34 27  1  0
 42 35  1  0
 64 43  2  0
 76 69  1  0
 84 77  1  0
106 85  2  0
118111  1  0
126119  1  0
148127  2  0
161154  1  0
 23  7  1  0
 55 48  1  0
 63 56  1  0
 97 90  1  0
105 98  1  0
139132  1  0
147140  1  0
  1168  1  0
  6169  1  0
  9170  1  0
 17171  1  0
 18172  1  0
 19173  1  0
 20174  1  0
 21175  1  0
 22176  1  0
 22177  1  0
 23178  1  0
 28179  1  0
 29180  1  0
 32181  1  0
 32182  1  0
 32183  1  0
 33184  1  0
 34185  1  0
 36186  1  0
 37187  1  0
 40188  1  0
 40189  1  0
 40190  1  0
 41191  1  0
 42192  1  0
 49193  1  0
 50194  1  0
 53195  1  0
 53196  1  0
 53197  1  0
 54198  1  0
 55199  1  0
 57200  1  0
 58201  1  0
 61202  1  0
 61203  1  0
 61204  1  0
 62205  1  0
 63206  1  0
 70207  1  0
 71208  1  0
 74209  1  0
 74210  1  0
 74211  1  0
 75212  1  0
 76213  1  0
 78214  1  0
 79215  1  0
 82216  1  0
 82217  1  0
 82218  1  0
 83219  1  0
 84220  1  0
 91221  1  0
 92222  1  0
 95223  1  0
 95224  1  0
 95225  1  0
 96226  1  0
 97227  1  0
 99228  1  0
100229  1  0
103230  1  0
103231  1  0
103232  1  0
104233  1  0
105234  1  0
112235  1  0
113236  1  0
116237  1  0
116238  1  0
116239  1  0
117240  1  0
118241  1  0
120242  1  0
121243  1  0
124244  1  0
124245  1  0
124246  1  0
125247  1  0
126248  1  0
133249  1  0
134250  1  0
137251  1  0
137252  1  0
137253  1  0
138254  1  0
139255  1  0
141256  1  0
142257  1  0
145258  1  0
145259  1  0
145260  1  0
146261  1  0
147262  1  0
150263  1  0
155264  1  0
160265  1  0
M  END

