
     RDKit          3D

219238  0  0  0  0  0  0  0  0999 V2000
   -0.6451   -2.4452   -6.5709 C   0  0  0  0  0  0  0  0  0  0  0  0
    0.1186   -3.5632   -6.3402 C   0  0  0  0  0  0  0  0  0  0  0  0
    0.4668   -4.1776   -5.0361 C   0  0  0  0  0  0  0  0  0  0  0  0
    0.1123   -3.7772   -3.9086 O   0  0  0  0  0  0  0  0  0  0  0  0
    1.5369   -5.1149   -5.1977 C   0  0  0  0  0  0  0  0  0  0  0  0
    2.2968   -5.6691   -4.1339 C   0  0  0  0  0  0  0  0  0  0  0  0
    3.5441   -6.1164   -4.5076 C   0  0  0  0  0  0  0  0  0  0  0  0
    4.0334   -6.0477   -5.8443 C   0  0  0  0  0  0  0  0  0  0  0  0
    3.2808   -5.5561   -6.9011 C   0  0  0  0  0  0  0  0  0  0  0  0
    1.9726   -5.0929   -6.5434 C   0  0  0  0  0  0  0  0  0  0  0  0
    1.0210   -4.2600   -7.3370 C   0  0  0  0  0  0  0  0  0  0  0  0
    0.9321   -4.2778   -8.7050 C   0  0  0  0  0  0  0  0  0  0  0  0
   -0.0256   -3.5217   -9.4593 C   0  0  0  0  0  0  0  0  0  0  0  0
   -0.7795   -2.9273  -10.1004 N   0  0  0  0  0  0  0  0  0  0  0  0
    1.7662   -5.1422   -9.5062 C   0  0  0  0  0  0  0  0  0  0  0  0
    2.4368   -5.8277  -10.1590 N   0  0  0  0  0  0  0  0  0  0  0  0
    5.3980   -6.4579   -5.3874 C   0  0  0  0  0  0  0  0  0  0  0  0
    5.8551   -7.9130   -5.6888 C   0  0  0  0  0  0  0  0  0  0  0  0
    7.0488   -8.1520   -4.7939 C   0  0  0  0  0  0  0  0  0  0  0  0
    6.5766   -8.2329   -3.5438 C   0  0  0  0  0  0  0  0  0  0  0  0
    5.0828   -8.0358   -3.6355 C   0  0  0  0  0  0  0  0  0  0  0  0
    4.8296   -8.7555   -4.9420 C   0  0  0  0  0  0  0  0  0  0  0  0
    4.8879   -6.5369   -4.0103 C   0  0  0  0  0  0  0  0  0  0  0  0
   -1.3805   -1.5783   -5.5813 C   0  0  0  0  0  0  0  0  0  0  0  0
   -1.6216   -0.1934   -5.7631 C   0  0  0  0  0  0  0  0  0  0  0  0
   -2.3669    0.2420   -6.9349 N   0  0  0  0  0  0  0  0  0  0  0  0
   -3.3638   -0.6662   -7.4378 C   0  0  0  0  0  0  0  0  0  0  0  0
   -4.5195   -0.9284   -6.6746 C   0  0  0  0  0  0  0  0  0  0  0  0
   -5.3944   -1.9511   -7.0536 C   0  0  0  0  0  0  0  0  0  0  0  0
   -5.1147   -2.7291   -8.1812 C   0  0  0  0  0  0  0  0  0  0  0  0
   -6.1263   -4.1545   -8.5617 S   0  0  0  0  0  0  0  0  0  0  0  0
   -5.3208   -5.1873   -7.2887 C   0  0  0  0  0  0  0  0  0  0  0  0
   -4.0165   -2.4103   -8.9896 C   0  0  0  0  0  0  0  0  0  0  0  0
   -3.1628   -1.3594   -8.6326 C   0  0  0  0  0  0  0  0  0  0  0  0
   -2.3892    1.6207   -7.4014 C   0  0  0  0  0  0  0  0  0  0  0  0
   -3.4910    2.1108   -8.1455 C   0  0  0  0  0  0  0  0  0  0  0  0
   -3.5242    3.4179   -8.6221 C   0  0  0  0  0  0  0  0  0  0  0  0
   -2.4783    4.2984   -8.3107 C   0  0  0  0  0  0  0  0  0  0  0  0
   -2.5386    5.9856   -8.9081 S   0  0  0  0  0  0  0  0  0  0  0  0
   -3.8199    6.5303   -7.7307 C   0  0  0  0  0  0  0  0  0  0  0  0
   -1.3760    3.8382   -7.5733 C   0  0  0  0  0  0  0  0  0  0  0  0
   -1.3174    2.5032   -7.1507 C   0  0  0  0  0  0  0  0  0  0  0  0
   -1.8716    0.4190   -4.5097 C   0  0  0  0  0  0  0  0  0  0  0  0
   -1.2410    1.8519   -3.8669 S   0  0  0  0  0  0  0  0  0  0  0  0
   -1.1699    1.3047   -2.2541 C   0  0  0  0  0  0  0  0  0  0  0  0
   -1.6911    0.0091   -2.2120 C   0  0  0  0  0  0  0  0  0  0  0  0
   -2.0448   -0.6816   -1.0007 N   0  0  0  0  0  0  0  0  0  0  0  0
   -3.3953   -0.5259   -0.4949 C   0  0  0  0  0  0  0  0  0  0  0  0
   -4.0902    0.6849   -0.6496 C   0  0  0  0  0  0  0  0  0  0  0  0
   -5.3241    0.8849   -0.0355 C   0  0  0  0  0  0  0  0  0  0  0  0
   -5.9396   -0.1614    0.6509 C   0  0  0  0  0  0  0  0  0  0  0  0
   -7.5350    0.0987    1.4373 S   0  0  0  0  0  0  0  0  0  0  0  0
   -8.4788    0.3460   -0.1114 C   0  0  0  0  0  0  0  0  0  0  0  0
   -5.3057   -1.4127    0.7343 C   0  0  0  0  0  0  0  0  0  0  0  0
   -4.0368   -1.5894    0.1729 C   0  0  0  0  0  0  0  0  0  0  0  0
   -1.0587   -1.4342   -0.2517 C   0  0  0  0  0  0  0  0  0  0  0  0
   -1.0493   -1.3845    1.1546 C   0  0  0  0  0  0  0  0  0  0  0  0
   -0.1784   -2.1913    1.8941 C   0  0  0  0  0  0  0  0  0  0  0  0
    0.6938   -3.0669    1.2341 C   0  0  0  0  0  0  0  0  0  0  0  0
    1.6697   -4.2362    2.1887 S   0  0  0  0  0  0  0  0  0  0  0  0
    3.2968   -3.4717    1.8603 C   0  0  0  0  0  0  0  0  0  0  0  0
    0.7310   -3.0841   -0.1627 C   0  0  0  0  0  0  0  0  0  0  0  0
   -0.1204   -2.2520   -0.8983 C   0  0  0  0  0  0  0  0  0  0  0  0
   -2.0496   -0.4502   -3.4713 C   0  0  0  0  0  0  0  0  0  0  0  0
   -1.8985   -2.0013   -4.0262 S   0  0  0  0  0  0  0  0  0  0  0  0
   -0.5504    1.9801   -1.0866 C   0  0  0  0  0  0  0  0  0  0  0  0
    0.5191    1.4008   -0.3460 C   0  0  0  0  0  0  0  0  0  0  0  0
    1.7654    0.8910   -0.8938 N   0  0  0  0  0  0  0  0  0  0  0  0
    1.9064    0.3357   -2.2111 C   0  0  0  0  0  0  0  0  0  0  0  0
    2.5134   -0.9232   -2.3524 C   0  0  0  0  0  0  0  0  0  0  0  0
    2.9341   -1.3670   -3.6152 C   0  0  0  0  0  0  0  0  0  0  0  0
    2.7643   -0.5506   -4.7382 C   0  0  0  0  0  0  0  0  0  0  0  0
    3.4250   -1.0478   -6.3314 S   0  0  0  0  0  0  0  0  0  0  0  0
    4.9082   -0.0012   -6.1752 C   0  0  0  0  0  0  0  0  0  0  0  0
    2.1449    0.6976   -4.5985 C   0  0  0  0  0  0  0  0  0  0  0  0
    1.7675    1.1578   -3.3398 C   0  0  0  0  0  0  0  0  0  0  0  0
    2.9901    1.3840   -0.3304 C   0  0  0  0  0  0  0  0  0  0  0  0
    3.5462    2.5761   -0.8236 C   0  0  0  0  0  0  0  0  0  0  0  0
    4.7345    3.0739   -0.2894 C   0  0  0  0  0  0  0  0  0  0  0  0
    5.3442    2.4208    0.7895 C   0  0  0  0  0  0  0  0  0  0  0  0
    6.8155    3.1214    1.5410 S   0  0  0  0  0  0  0  0  0  0  0  0
    5.9231    4.5043    2.3328 C   0  0  0  0  0  0  0  0  0  0  0  0
    4.8294    1.2060    1.2534 C   0  0  0  0  0  0  0  0  0  0  0  0
    3.6611    0.6767    0.6838 C   0  0  0  0  0  0  0  0  0  0  0  0
    0.3141    1.5703    1.0354 C   0  0  0  0  0  0  0  0  0  0  0  0
    1.0436    0.9342    2.3974 S   0  0  0  0  0  0  0  0  0  0  0  0
   -0.0454    1.6490    3.4822 C   0  0  0  0  0  0  0  0  0  0  0  0
   -0.9842    2.4173    2.7769 C   0  0  0  0  0  0  0  0  0  0  0  0
   -1.5950    3.5815    3.3572 N   0  0  0  0  0  0  0  0  0  0  0  0
   -3.0067    3.8646    3.2247 C   0  0  0  0  0  0  0  0  0  0  0  0
   -3.5087    5.1659    3.4432 C   0  0  0  0  0  0  0  0  0  0  0  0
   -4.8783    5.4294    3.3487 C   0  0  0  0  0  0  0  0  0  0  0  0
   -5.7708    4.3890    3.0736 C   0  0  0  0  0  0  0  0  0  0  0  0
   -7.5298    4.7264    2.9719 S   0  0  0  0  0  0  0  0  0  0  0  0
   -7.8822    4.3665    4.7277 C   0  0  0  0  0  0  0  0  0  0  0  0
   -5.2911    3.1009    2.8439 C   0  0  0  0  0  0  0  0  0  0  0  0
   -3.9213    2.8333    2.9136 C   0  0  0  0  0  0  0  0  0  0  0  0
   -0.6622    4.5740    3.8199 C   0  0  0  0  0  0  0  0  0  0  0  0
    0.0759    5.3081    2.8805 C   0  0  0  0  0  0  0  0  0  0  0  0
    1.2554    5.9634    3.2557 C   0  0  0  0  0  0  0  0  0  0  0  0
    1.7119    5.8733    4.5745 C   0  0  0  0  0  0  0  0  0  0  0  0
    3.3530    6.4738    4.9896 S   0  0  0  0  0  0  0  0  0  0  0  0
    2.7717    7.8516    6.0325 C   0  0  0  0  0  0  0  0  0  0  0  0
    0.9417    5.1966    5.5310 C   0  0  0  0  0  0  0  0  0  0  0  0
   -0.2561    4.5724    5.1597 C   0  0  0  0  0  0  0  0  0  0  0  0
   -0.7622    2.3031    1.4046 C   0  0  0  0  0  0  0  0  0  0  0  0
   -1.5704    2.7996    0.0293 S   0  0  0  0  0  0  0  0  0  0  0  0
   -0.0275    1.3681    4.9385 C   0  0  0  0  0  0  0  0  0  0  0  0
   -1.1348    1.0430    5.7285 C   0  0  0  0  0  0  0  0  0  0  0  0
   -2.4367    1.2383    5.2625 O   0  0  0  0  0  0  0  0  0  0  0  0
   -3.4843    0.2628    5.3336 C   0  0  0  0  0  0  0  0  0  0  0  0
   -3.1029   -0.9893    4.5540 C   0  0  0  0  0  0  0  0  0  0  0  0
   -0.8031    0.4650    6.9741 C   0  0  0  0  0  0  0  0  0  0  0  0
   -1.7894   -0.0011    7.8469 O   0  0  0  0  0  0  0  0  0  0  0  0
   -1.5535   -0.7574    9.0234 C   0  0  0  0  0  0  0  0  0  0  0  0
   -2.8678   -1.1924    9.6505 C   0  0  0  0  0  0  0  0  0  0  0  0
    0.5930    0.3533    7.1610 C   0  0  0  0  0  0  0  0  0  0  0  0
    1.3678    0.9589    5.7950 S   0  0  0  0  0  0  0  0  0  0  0  0
    1.3108   -0.1031    8.3611 C   0  0  0  0  0  0  0  0  0  0  0  0
    2.1982   -1.1172    8.3759 C   0  0  0  0  0  0  0  0  0  0  0  0
    3.0396   -1.5914    9.7524 S   0  0  0  0  0  0  0  0  0  0  0  0
    3.9040   -2.8303    8.9954 C   0  0  0  0  0  0  0  0  0  0  0  0
    4.7958   -3.6237    9.6433 C   0  0  0  0  0  0  0  0  0  0  0  0
    5.6017   -4.6230    8.9823 C   0  0  0  0  0  0  0  0  0  0  0  0
    6.2612   -5.4174    8.4478 N   0  0  0  0  0  0  0  0  0  0  0  0
    4.9748   -3.5213   11.0673 C   0  0  0  0  0  0  0  0  0  0  0  0
    5.1095   -3.4580   12.2199 N   0  0  0  0  0  0  0  0  0  0  0  0
    3.5490   -2.8928    7.6725 N   0  0  0  0  0  0  0  0  0  0  0  0
    4.0780   -3.8019    6.6972 C   0  0  0  0  0  0  0  0  0  0  0  0
    5.1629   -3.4221    5.8984 C   0  0  0  0  0  0  0  0  0  0  0  0
    5.6849   -4.3146    4.9504 C   0  0  0  0  0  0  0  0  0  0  0  0
    5.1090   -5.5773    4.7908 C   0  0  0  0  0  0  0  0  0  0  0  0
    4.0078   -5.9481    5.5690 C   0  0  0  0  0  0  0  0  0  0  0  0
    3.4848   -5.0564    6.5194 C   0  0  0  0  0  0  0  0  0  0  0  0
    2.6017   -1.9695    7.3352 C   0  0  0  0  0  0  0  0  0  0  0  0
    2.1012   -1.9255    6.1782 O   0  0  0  0  0  0  0  0  0  0  0  0
   -0.6129   -2.0168   -7.5584 H   0  0  0  0  0  0  0  0  0  0  0  0
    1.9930   -5.6117   -3.0978 H   0  0  0  0  0  0  0  0  0  0  0  0
    3.7288   -5.4053   -7.8745 H   0  0  0  0  0  0  0  0  0  0  0  0
    6.1606   -5.6593   -5.5480 H   0  0  0  0  0  0  0  0  0  0  0  0
    6.0046   -8.1581   -6.7641 H   0  0  0  0  0  0  0  0  0  0  0  0
    8.0872   -8.2647   -5.0825 H   0  0  0  0  0  0  0  0  0  0  0  0
    7.1637   -8.4562   -2.6578 H   0  0  0  0  0  0  0  0  0  0  0  0
    4.5054   -8.3847   -2.7463 H   0  0  0  0  0  0  0  0  0  0  0  0
    3.7900   -8.6497   -5.3191 H   0  0  0  0  0  0  0  0  0  0  0  0
    5.0812   -9.8469   -4.8998 H   0  0  0  0  0  0  0  0  0  0  0  0
    5.3535   -5.7963   -3.3200 H   0  0  0  0  0  0  0  0  0  0  0  0
   -4.7107   -0.3710   -5.7632 H   0  0  0  0  0  0  0  0  0  0  0  0
   -6.2605   -2.1761   -6.4397 H   0  0  0  0  0  0  0  0  0  0  0  0
   -4.2198   -5.2160   -7.4407 H   0  0  0  0  0  0  0  0  0  0  0  0
   -5.5401   -4.7816   -6.2733 H   0  0  0  0  0  0  0  0  0  0  0  0
   -5.7182   -6.2214   -7.3526 H   0  0  0  0  0  0  0  0  0  0  0  0
   -3.8084   -2.9976   -9.8761 H   0  0  0  0  0  0  0  0  0  0  0  0
   -2.3132   -1.1176   -9.2530 H   0  0  0  0  0  0  0  0  0  0  0  0
   -4.3440    1.4919   -8.3721 H   0  0  0  0  0  0  0  0  0  0  0  0
   -4.3737    3.7509   -9.2040 H   0  0  0  0  0  0  0  0  0  0  0  0
   -3.8109    7.6351   -7.6659 H   0  0  0  0  0  0  0  0  0  0  0  0
   -3.6344    6.1072   -6.7166 H   0  0  0  0  0  0  0  0  0  0  0  0
   -4.8213    6.2007   -8.0836 H   0  0  0  0  0  0  0  0  0  0  0  0
   -0.5553    4.5079   -7.3563 H   0  0  0  0  0  0  0  0  0  0  0  0
   -0.4433    2.1612   -6.6260 H   0  0  0  0  0  0  0  0  0  0  0  0
   -3.6713    1.5043   -1.2180 H   0  0  0  0  0  0  0  0  0  0  0  0
   -5.8128    1.8409   -0.1182 H   0  0  0  0  0  0  0  0  0  0  0  0
   -8.9419    1.3559   -0.0944 H   0  0  0  0  0  0  0  0  0  0  0  0
   -7.8451    0.2639   -1.0155 H   0  0  0  0  0  0  0  0  0  0  0  0
   -9.2721   -0.4225   -0.1721 H   0  0  0  0  0  0  0  0  0  0  0  0
   -5.7766   -2.2306    1.2653 H   0  0  0  0  0  0  0  0  0  0  0  0
   -3.5472   -2.5525    0.2683 H   0  0  0  0  0  0  0  0  0  0  0  0
   -1.7115   -0.7111    1.6621 H   0  0  0  0  0  0  0  0  0  0  0  0
   -0.2037   -2.1466    2.9772 H   0  0  0  0  0  0  0  0  0  0  0  0
    3.2088   -2.4880    1.3657 H   0  0  0  0  0  0  0  0  0  0  0  0
    3.8452   -3.3544    2.8191 H   0  0  0  0  0  0  0  0  0  0  0  0
    3.8765   -4.1559    1.2037 H   0  0  0  0  0  0  0  0  0  0  0  0
    1.4072   -3.7486   -0.6859 H   0  0  0  0  0  0  0  0  0  0  0  0
   -0.0666   -2.2675   -1.9721 H   0  0  0  0  0  0  0  0  0  0  0  0
    2.7334   -1.5248   -1.4810 H   0  0  0  0  0  0  0  0  0  0  0  0
    3.4307   -2.3249   -3.7110 H   0  0  0  0  0  0  0  0  0  0  0  0
    5.5836   -0.2118   -7.0279 H   0  0  0  0  0  0  0  0  0  0  0  0
    4.6066    1.0737   -6.2317 H   0  0  0  0  0  0  0  0  0  0  0  0
    5.4466   -0.2017   -5.2261 H   0  0  0  0  0  0  0  0  0  0  0  0
    2.0240    1.3435   -5.4525 H   0  0  0  0  0  0  0  0  0  0  0  0
    1.4253    2.1782   -3.2303 H   0  0  0  0  0  0  0  0  0  0  0  0
    3.0631    3.1131   -1.6256 H   0  0  0  0  0  0  0  0  0  0  0  0
    5.1523    3.9888   -0.6901 H   0  0  0  0  0  0  0  0  0  0  0  0
    6.6372    5.0955    2.9309 H   0  0  0  0  0  0  0  0  0  0  0  0
    5.4842    5.1734    1.5576 H   0  0  0  0  0  0  0  0  0  0  0  0
    5.1174    4.1237    2.9949 H   0  0  0  0  0  0  0  0  0  0  0  0
    5.3161    0.6653    2.0614 H   0  0  0  0  0  0  0  0  0  0  0  0
    3.2706   -0.2622    1.0321 H   0  0  0  0  0  0  0  0  0  0  0  0
   -2.8443    5.9860    3.6780 H   0  0  0  0  0  0  0  0  0  0  0  0
   -5.2417    6.4290    3.5232 H   0  0  0  0  0  0  0  0  0  0  0  0
   -6.9753    4.4531    5.3686 H   0  0  0  0  0  0  0  0  0  0  0  0
   -8.6449    5.0849    5.0986 H   0  0  0  0  0  0  0  0  0  0  0  0
   -8.2933    3.3373    4.8147 H   0  0  0  0  0  0  0  0  0  0  0  0
   -5.9779    2.2946    2.6398 H   0  0  0  0  0  0  0  0  0  0  0  0
   -3.5788    1.8235    2.7458 H   0  0  0  0  0  0  0  0  0  0  0  0
   -0.2124    5.2980    1.8368 H   0  0  0  0  0  0  0  0  0  0  0  0
    1.8508    6.4592    2.4976 H   0  0  0  0  0  0  0  0  0  0  0  0
    3.5836    8.5982    6.1168 H   0  0  0  0  0  0  0  0  0  0  0  0
    2.5374    7.4633    7.0474 H   0  0  0  0  0  0  0  0  0  0  0  0
    1.8707    8.3398    5.6020 H   0  0  0  0  0  0  0  0  0  0  0  0
    1.2837    5.1186    6.5565 H   0  0  0  0  0  0  0  0  0  0  0  0
   -0.8103    4.0056    5.8963 H   0  0  0  0  0  0  0  0  0  0  0  0
   -4.3985    0.7018    4.8754 H   0  0  0  0  0  0  0  0  0  0  0  0
   -3.7376    0.0217    6.3823 H   0  0  0  0  0  0  0  0  0  0  0  0
   -2.4781   -0.7022    3.6886 H   0  0  0  0  0  0  0  0  0  0  0  0
   -4.0134   -1.4978    4.1588 H   0  0  0  0  0  0  0  0  0  0  0  0
   -2.5283   -1.6873    5.1974 H   0  0  0  0  0  0  0  0  0  0  0  0
   -0.9879   -1.6823    8.7485 H   0  0  0  0  0  0  0  0  0  0  0  0
   -0.9675   -0.1833    9.7759 H   0  0  0  0  0  0  0  0  0  0  0  0
   -2.6620   -1.9922   10.3950 H   0  0  0  0  0  0  0  0  0  0  0  0
   -3.5648   -1.5810    8.8709 H   0  0  0  0  0  0  0  0  0  0  0  0
   -3.3252   -0.3202   10.1778 H   0  0  0  0  0  0  0  0  0  0  0  0
    1.1381    0.4308    9.2868 H   0  0  0  0  0  0  0  0  0  0  0  0
    5.6156   -2.4449    6.0147 H   0  0  0  0  0  0  0  0  0  0  0  0
    6.5388   -4.0234    4.3443 H   0  0  0  0  0  0  0  0  0  0  0  0
    5.5122   -6.2726    4.0545 H   0  0  0  0  0  0  0  0  0  0  0  0
    3.5573   -6.9306    5.4423 H   0  0  0  0  0  0  0  0  0  0  0  0
    2.6308   -5.3552    7.1220 H   0  0  0  0  0  0  0  0  0  0  0  0
  1  2  2  3
  2  3  1  0
  3  4  2  0
  3  5  1  0
  5  6  2  0
  6  7  1  0
  7  8  2  0
  8  9  1  0
  9 10  2  0
 10 11  1  0
 11 12  2  3
 12 13  1  0
 13 14  3  0
 12 15  1  0
 15 16  3  0
  8 17  1  0
 17 18  1  0
 18 19  1  0
 19 20  2  0
 20 21  1  0
 21 22  1  0
 21 23  1  0
  1 24  1  0
 24 25  2  0
 25 26  1  0
 26 27  1  0
 27 28  2  0
 28 29  1  0
 29 30  2  0
 30 31  1  0
 31 32  1  0
 30 33  1  0
 33 34  2  0
 26 35  1  0
 35 36  2  0
 36 37  1  0
 37 38  2  0
 38 39  1  0
 39 40  1  0
 38 41  1  0
 41 42  2  0
 25 43  1  0
 43 44  1  0
 44 45  1  0
 45 46  2  0
 46 47  1  0
 47 48  1  0
 48 49  2  0
 49 50  1  0
 50 51  2  0
 51 52  1  0
 52 53  1  0
 51 54  1  0
 54 55  2  0
 47 56  1  0
 56 57  2  0
 57 58  1  0
 58 59  2  0
 59 60  1  0
 60 61  1  0
 59 62  1  0
 62 63  2  0
 46 64  1  0
 64 65  1  0
 45 66  1  0
 66 67  2  0
 67 68  1  0
 68 69  1  0
 69 70  2  0
 70 71  1  0
 71 72  2  0
 72 73  1  0
 73 74  1  0
 72 75  1  0
 75 76  2  0
 68 77  1  0
 77 78  2  0
 78 79  1  0
 79 80  2  0
 80 81  1  0
 81 82  1  0
 80 83  1  0
 83 84  2  0
 67 85  1  0
 85 86  1  0
 86 87  1  0
 87 88  2  0
 88 89  1  0
 89 90  1  0
 90 91  2  0
 91 92  1  0
 92 93  2  0
 93 94  1  0
 94 95  1  0
 93 96  1  0
 96 97  2  0
 89 98  1  0
 98 99  2  0
 99100  1  0
100101  2  0
101102  1  0
102103  1  0
101104  1  0
104105  2  0
 88106  1  0
106107  1  0
 87108  1  0
108109  2  0
109110  1  0
110111  1  0
111112  1  0
109113  1  0
113114  1  0
114115  1  0
115116  1  0
113117  2  0
117118  1  0
117119  1  0
119120  2  3
120121  1  0
121122  1  0
122123  2  3
123124  1  0
124125  3  0
123126  1  0
126127  3  0
122128  1  0
128129  1  0
129130  2  0
130131  1  0
131132  2  0
132133  1  0
133134  2  0
128135  1  0
135136  2  0
 11  2  1  0
 23 17  1  0
 65 24  1  0
107 66  1  0
118108  1  0
135120  1  0
 10  5  1  0
 22 18  1  0
 34 27  1  0
 42 35  1  0
 64 43  2  0
 76 69  1  0
 84 77  1  0
106 85  2  0
134129  1  0
 23  7  1  0
 55 48  1  0
 63 56  1  0
 97 90  1  0
105 98  1  0
  1137  1  0
  6138  1  0
  9139  1  0
 17140  1  0
 18141  1  0
 19142  1  0
 20143  1  0
 21144  1  0
 22145  1  0
 22146  1  0
 23147  1  0
 28148  1  0
 29149  1  0
 32150  1  0
 32151  1  0
 32152  1  0
 33153  1  0
 34154  1  0
 36155  1  0
 37156  1  0
 40157  1  0
 40158  1  0
 40159  1  0
 41160  1  0
 42161  1  0
 49162  1  0
 50163  1  0
 53164  1  0
 53165  1  0
 53166  1  0
 54167  1  0
 55168  1  0
 57169  1  0
 58170  1  0
 61171  1  0
 61172  1  0
 61173  1  0
 62174  1  0
 63175  1  0
 70176  1  0
 71177  1  0
 74178  1  0
 74179  1  0
 74180  1  0
 75181  1  0
 76182  1  0
 78183  1  0
 79184  1  0
 82185  1  0
 82186  1  0
 82187  1  0
 83188  1  0
 84189  1  0
 91190  1  0
 92191  1  0
 95192  1  0
 95193  1  0
 95194  1  0
 96195  1  0
 97196  1  0
 99197  1  0
100198  1  0
103199  1  0
103200  1  0
103201  1  0
104202  1  0
105203  1  0
111204  1  0
111205  1  0
112206  1  0
112207  1  0
112208  1  0
115209  1  0
115210  1  0
116211  1  0
116212  1  0
116213  1  0
119214  1  0
130215  1  0
131216  1  0
132217  1  0
133218  1  0
134219  1  0
M  END

