
     RDKit          3D

222244  0  0  0  0  0  0  0  0999 V2000
    3.8006   -1.8473   -4.8120 C   0  0  0  0  0  0  0  0  0  0  0  0
    2.5943   -1.4184   -5.2421 C   0  0  0  0  0  0  0  0  0  0  0  0
    1.6980   -0.4886   -4.5284 C   0  0  0  0  0  0  0  0  0  0  0  0
    1.7617   -0.1634   -3.3151 O   0  0  0  0  0  0  0  0  0  0  0  0
    0.7234    0.0265   -5.4613 C   0  0  0  0  0  0  0  0  0  0  0  0
   -0.2395    1.0300   -5.2137 C   0  0  0  0  0  0  0  0  0  0  0  0
   -0.9485    1.4149   -6.3329 C   0  0  0  0  0  0  0  0  0  0  0  0
   -0.7288    0.8472   -7.6316 C   0  0  0  0  0  0  0  0  0  0  0  0
    0.2106   -0.1439   -7.8800 C   0  0  0  0  0  0  0  0  0  0  0  0
    0.9318   -0.5724   -6.7282 C   0  0  0  0  0  0  0  0  0  0  0  0
    2.0024   -1.6027   -6.6057 C   0  0  0  0  0  0  0  0  0  0  0  0
    2.1793   -2.6714   -7.4231 C   0  0  0  0  0  0  0  0  0  0  0  0
    3.0176   -3.7858   -7.0535 C   0  0  0  0  0  0  0  0  0  0  0  0
    3.6802   -4.6886   -6.7584 N   0  0  0  0  0  0  0  0  0  0  0  0
    1.3651   -2.8840   -8.5929 C   0  0  0  0  0  0  0  0  0  0  0  0
    0.6996   -3.0834   -9.5199 N   0  0  0  0  0  0  0  0  0  0  0  0
   -1.7501    1.7729   -8.2233 C   0  0  0  0  0  0  0  0  0  0  0  0
   -1.2037    2.9714   -9.0569 C   0  0  0  0  0  0  0  0  0  0  0  0
   -2.3497    3.9455   -9.1896 C   0  0  0  0  0  0  0  0  0  0  0  0
   -2.5475    4.4689   -7.9743 C   0  0  0  0  0  0  0  0  0  0  0  0
   -1.5269    3.8349   -7.0623 C   0  0  0  0  0  0  0  0  0  0  0  0
   -0.3712    3.7389   -8.0437 C   0  0  0  0  0  0  0  0  0  0  0  0
   -1.9727    2.3534   -6.8948 C   0  0  0  0  0  0  0  0  0  0  0  0
    4.3319   -1.5001   -3.4882 C   0  0  0  0  0  0  0  0  0  0  0  0
    4.1299   -2.2594   -2.3284 C   0  0  0  0  0  0  0  0  0  0  0  0
    3.6803   -3.6210   -2.3222 N   0  0  0  0  0  0  0  0  0  0  0  0
    4.7246   -4.6012   -2.2191 C   0  0  0  0  0  0  0  0  0  0  0  0
    5.5527   -4.8641   -3.3187 C   0  0  0  0  0  0  0  0  0  0  0  0
    6.6306   -5.7476   -3.1923 C   0  0  0  0  0  0  0  0  0  0  0  0
    6.8920   -6.3637   -1.9616 C   0  0  0  0  0  0  0  0  0  0  0  0
    8.2989   -7.4579   -1.7882 S   0  0  0  0  0  0  0  0  0  0  0  0
    7.3491   -8.9407   -2.2423 C   0  0  0  0  0  0  0  0  0  0  0  0
    6.0683   -6.1015   -0.8605 C   0  0  0  0  0  0  0  0  0  0  0  0
    4.9870   -5.2239   -0.9898 C   0  0  0  0  0  0  0  0  0  0  0  0
    2.3024   -3.9833   -2.0509 C   0  0  0  0  0  0  0  0  0  0  0  0
    1.8822   -5.3249   -2.1573 C   0  0  0  0  0  0  0  0  0  0  0  0
    0.5846   -5.7002   -1.8081 C   0  0  0  0  0  0  0  0  0  0  0  0
   -0.3276   -4.7413   -1.3604 C   0  0  0  0  0  0  0  0  0  0  0  0
   -1.9609   -5.2466   -0.8251 S   0  0  0  0  0  0  0  0  0  0  0  0
   -2.7457   -4.8778   -2.4238 C   0  0  0  0  0  0  0  0  0  0  0  0
    0.0556   -3.3984   -1.2946 C   0  0  0  0  0  0  0  0  0  0  0  0
    1.3482   -3.0188   -1.6608 C   0  0  0  0  0  0  0  0  0  0  0  0
    4.3236   -1.5015   -1.1745 C   0  0  0  0  0  0  0  0  0  0  0  0
    3.6736   -1.6717    0.3562 S   0  0  0  0  0  0  0  0  0  0  0  0
    3.6812   -0.0094    0.7399 C   0  0  0  0  0  0  0  0  0  0  0  0
    4.3068    0.6644   -0.3260 C   0  0  0  0  0  0  0  0  0  0  0  0
    4.5071    2.0916   -0.3791 N   0  0  0  0  0  0  0  0  0  0  0  0
    5.5717    2.6815    0.4128 C   0  0  0  0  0  0  0  0  0  0  0  0
    6.6154    1.8879    0.9382 C   0  0  0  0  0  0  0  0  0  0  0  0
    7.7384    2.4800    1.5210 C   0  0  0  0  0  0  0  0  0  0  0  0
    7.8435    3.8737    1.5867 C   0  0  0  0  0  0  0  0  0  0  0  0
    9.3847    4.6253    2.1175 S   0  0  0  0  0  0  0  0  0  0  0  0
    8.8789    4.8204    3.8499 C   0  0  0  0  0  0  0  0  0  0  0  0
    6.7817    4.6689    1.1495 C   0  0  0  0  0  0  0  0  0  0  0  0
    5.6479    4.0802    0.5800 C   0  0  0  0  0  0  0  0  0  0  0  0
    3.9720    2.8000   -1.5202 C   0  0  0  0  0  0  0  0  0  0  0  0
    2.6170    2.6589   -1.8676 C   0  0  0  0  0  0  0  0  0  0  0  0
    2.1374    3.1934   -3.0693 C   0  0  0  0  0  0  0  0  0  0  0  0
    3.0021    3.8741   -3.9315 C   0  0  0  0  0  0  0  0  0  0  0  0
    2.4146    4.4666   -5.5169 S   0  0  0  0  0  0  0  0  0  0  0  0
    3.1313    3.0684   -6.4407 C   0  0  0  0  0  0  0  0  0  0  0  0
    4.3428    4.0577   -3.5724 C   0  0  0  0  0  0  0  0  0  0  0  0
    4.8283    3.5083   -2.3844 C   0  0  0  0  0  0  0  0  0  0  0  0
    4.6292   -0.1945   -1.3837 C   0  0  0  0  0  0  0  0  0  0  0  0
    4.7530    0.0867   -3.0384 S   0  0  0  0  0  0  0  0  0  0  0  0
    2.4628    0.5378    1.3447 C   0  0  0  0  0  0  0  0  0  0  0  0
    2.3218    1.4130    2.4365 C   0  0  0  0  0  0  0  0  0  0  0  0
    3.3722    1.7417    3.3586 N   0  0  0  0  0  0  0  0  0  0  0  0
    3.6841    0.7475    4.3495 C   0  0  0  0  0  0  0  0  0  0  0  0
    4.5303   -0.3265    4.0382 C   0  0  0  0  0  0  0  0  0  0  0  0
    4.8028   -1.3066    4.9966 C   0  0  0  0  0  0  0  0  0  0  0  0
    4.2259   -1.2202    6.2723 C   0  0  0  0  0  0  0  0  0  0  0  0
    4.5591   -2.4934    7.4941 S   0  0  0  0  0  0  0  0  0  0  0  0
    3.0775   -3.4598    7.0649 C   0  0  0  0  0  0  0  0  0  0  0  0
    3.4084   -0.1337    6.5968 C   0  0  0  0  0  0  0  0  0  0  0  0
    3.1383    0.8491    5.6384 C   0  0  0  0  0  0  0  0  0  0  0  0
    3.8548    3.0991    3.5110 C   0  0  0  0  0  0  0  0  0  0  0  0
    4.9830    3.3665    4.3153 C   0  0  0  0  0  0  0  0  0  0  0  0
    5.4285    4.6727    4.5041 C   0  0  0  0  0  0  0  0  0  0  0  0
    4.7889    5.7362    3.8577 C   0  0  0  0  0  0  0  0  0  0  0  0
    5.4214    7.4028    4.0475 S   0  0  0  0  0  0  0  0  0  0  0  0
    4.4259    7.7491    5.5325 C   0  0  0  0  0  0  0  0  0  0  0  0
    3.6883    5.4852    3.0344 C   0  0  0  0  0  0  0  0  0  0  0  0
    3.2209    4.1804    2.8632 C   0  0  0  0  0  0  0  0  0  0  0  0
    0.9679    1.6973    2.6643 C   0  0  0  0  0  0  0  0  0  0  0  0
    0.0946    2.5161    3.8479 S   0  0  0  0  0  0  0  0  0  0  0  0
   -1.4418    2.0858    3.2183 C   0  0  0  0  0  0  0  0  0  0  0  0
   -1.2514    1.2666    2.0871 C   0  0  0  0  0  0  0  0  0  0  0  0
   -2.2716    0.4638    1.4599 N   0  0  0  0  0  0  0  0  0  0  0  0
   -2.5746   -0.8484    2.0028 C   0  0  0  0  0  0  0  0  0  0  0  0
   -2.9827   -1.9014    1.1579 C   0  0  0  0  0  0  0  0  0  0  0  0
   -3.3656   -3.1348    1.6880 C   0  0  0  0  0  0  0  0  0  0  0  0
   -3.3097   -3.3570    3.0646 C   0  0  0  0  0  0  0  0  0  0  0  0
   -3.8067   -4.9424    3.7394 S   0  0  0  0  0  0  0  0  0  0  0  0
   -2.1224   -5.6342    3.6693 C   0  0  0  0  0  0  0  0  0  0  0  0
   -2.8626   -2.3427    3.9130 C   0  0  0  0  0  0  0  0  0  0  0  0
   -2.4879   -1.1015    3.3897 C   0  0  0  0  0  0  0  0  0  0  0  0
   -2.8959    0.9278    0.2359 C   0  0  0  0  0  0  0  0  0  0  0  0
   -4.2611    0.6771   -0.0045 C   0  0  0  0  0  0  0  0  0  0  0  0
   -4.8375    1.0082   -1.2328 C   0  0  0  0  0  0  0  0  0  0  0  0
   -4.0731    1.6246   -2.2256 C   0  0  0  0  0  0  0  0  0  0  0  0
   -4.7948    1.9598   -3.8337 S   0  0  0  0  0  0  0  0  0  0  0  0
   -5.3797    3.6216   -3.3823 C   0  0  0  0  0  0  0  0  0  0  0  0
   -2.7310    1.9258   -1.9792 C   0  0  0  0  0  0  0  0  0  0  0  0
   -2.1439    1.5831   -0.7588 C   0  0  0  0  0  0  0  0  0  0  0  0
    0.0984    1.0937    1.8166 C   0  0  0  0  0  0  0  0  0  0  0  0
    0.9250    0.1384    0.7312 S   0  0  0  0  0  0  0  0  0  0  0  0
   -2.7287    2.3436    3.8965 C   0  0  0  0  0  0  0  0  0  0  0  0
   -2.8848    2.7171    5.2282 C   0  0  0  0  0  0  0  0  0  0  0  0
   -4.2022    2.6016    5.6977 C   0  0  0  0  0  0  0  0  0  0  0  0
   -4.6013    2.7937    7.4415 S   0  0  0  0  0  0  0  0  0  0  0  0
   -4.5687    4.6223    7.4370 C   0  0  0  0  0  0  0  0  0  0  0  0
   -5.7883    5.1940    6.7336 C   0  0  0  0  0  0  0  0  0  0  0  0
   -5.1162    2.1422    4.7372 C   0  0  0  0  0  0  0  0  0  0  0  0
   -4.2421    1.8899    3.3230 S   0  0  0  0  0  0  0  0  0  0  0  0
   -6.4018    1.4716    5.0432 C   0  0  0  0  0  0  0  0  0  0  0  0
   -7.2327    0.9437    4.1257 C   0  0  0  0  0  0  0  0  0  0  0  0
   -7.9524   -0.3093    4.3551 C   0  0  0  0  0  0  0  0  0  0  0  0
   -8.1614   -0.8436    5.4778 O   0  0  0  0  0  0  0  0  0  0  0  0
   -8.2834   -0.8954    3.0713 C   0  0  0  0  0  0  0  0  0  0  0  0
   -8.8672   -2.1629    2.8299 C   0  0  0  0  0  0  0  0  0  0  0  0
   -9.0313   -2.4547    1.4874 C   0  0  0  0  0  0  0  0  0  0  0  0
   -8.6493   -1.5598    0.4377 C   0  0  0  0  0  0  0  0  0  0  0  0
   -8.0678   -0.3247    0.6674 C   0  0  0  0  0  0  0  0  0  0  0  0
   -7.8832   -0.0048    2.0419 C   0  0  0  0  0  0  0  0  0  0  0  0
   -7.3154    1.2268    2.6647 C   0  0  0  0  0  0  0  0  0  0  0  0
   -7.2894    2.4634    2.1157 C   0  0  0  0  0  0  0  0  0  0  0  0
   -7.5195    2.7021    0.7140 C   0  0  0  0  0  0  0  0  0  0  0  0
   -7.7062    2.9147   -0.4077 N   0  0  0  0  0  0  0  0  0  0  0  0
   -7.2945    3.6426    2.9470 C   0  0  0  0  0  0  0  0  0  0  0  0
   -7.3553    4.5791    3.6193 N   0  0  0  0  0  0  0  0  0  0  0  0
   -9.1253   -2.5343   -0.5952 C   0  0  0  0  0  0  0  0  0  0  0  0
   -8.0487   -3.3231   -1.4047 C   0  0  0  0  0  0  0  0  0  0  0  0
   -6.8073   -3.5200   -0.5676 C   0  0  0  0  0  0  0  0  0  0  0  0
   -7.1421   -4.3523    0.4162 C   0  0  0  0  0  0  0  0  0  0  0  0
   -8.5973   -4.7075    0.2098 C   0  0  0  0  0  0  0  0  0  0  0  0
   -8.6283   -4.7219   -1.3072 C   0  0  0  0  0  0  0  0  0  0  0  0
   -9.4973   -3.4635    0.4805 C   0  0  0  0  0  0  0  0  0  0  0  0
    4.4508   -2.4100   -5.4617 H   0  0  0  0  0  0  0  0  0  0  0  0
   -0.3846    1.4824   -4.2416 H   0  0  0  0  0  0  0  0  0  0  0  0
    0.3948   -0.4956   -8.8827 H   0  0  0  0  0  0  0  0  0  0  0  0
   -2.6356    1.2512   -8.6531 H   0  0  0  0  0  0  0  0  0  0  0  0
   -0.6924    2.7048  -10.0048 H   0  0  0  0  0  0  0  0  0  0  0  0
   -2.8506    4.2540  -10.1037 H   0  0  0  0  0  0  0  0  0  0  0  0
   -3.2410    5.2673   -7.7336 H   0  0  0  0  0  0  0  0  0  0  0  0
   -1.3248    4.3915   -6.1198 H   0  0  0  0  0  0  0  0  0  0  0  0
   -0.0208    4.7302   -8.4147 H   0  0  0  0  0  0  0  0  0  0  0  0
    0.5054    3.1748   -7.6551 H   0  0  0  0  0  0  0  0  0  0  0  0
   -2.9932    2.1987   -6.4804 H   0  0  0  0  0  0  0  0  0  0  0  0
    5.3689   -4.3813   -4.2689 H   0  0  0  0  0  0  0  0  0  0  0  0
    7.2658   -5.9386   -4.0466 H   0  0  0  0  0  0  0  0  0  0  0  0
    6.5396   -9.1149   -1.5039 H   0  0  0  0  0  0  0  0  0  0  0  0
    6.9125   -8.8205   -3.2548 H   0  0  0  0  0  0  0  0  0  0  0  0
    8.0288   -9.8163   -2.2467 H   0  0  0  0  0  0  0  0  0  0  0  0
    6.2755   -6.5595    0.0967 H   0  0  0  0  0  0  0  0  0  0  0  0
    4.3703   -5.0075   -0.1280 H   0  0  0  0  0  0  0  0  0  0  0  0
    2.5641   -6.0957   -2.4941 H   0  0  0  0  0  0  0  0  0  0  0  0
    0.2961   -6.7430   -1.8523 H   0  0  0  0  0  0  0  0  0  0  0  0
   -2.3114   -5.5144   -3.2203 H   0  0  0  0  0  0  0  0  0  0  0  0
   -2.6034   -3.8082   -2.6782 H   0  0  0  0  0  0  0  0  0  0  0  0
   -3.8316   -5.0835   -2.3475 H   0  0  0  0  0  0  0  0  0  0  0  0
   -0.6443   -2.6480   -0.9497 H   0  0  0  0  0  0  0  0  0  0  0  0
    1.6051   -1.9752   -1.5956 H   0  0  0  0  0  0  0  0  0  0  0  0
    6.5993    0.8108    0.8436 H   0  0  0  0  0  0  0  0  0  0  0  0
    8.5505    1.8543    1.8678 H   0  0  0  0  0  0  0  0  0  0  0  0
    8.4694    3.8679    4.2454 H   0  0  0  0  0  0  0  0  0  0  0  0
    8.1219    5.6281    3.9205 H   0  0  0  0  0  0  0  0  0  0  0  0
    9.7632    5.1099    4.4519 H   0  0  0  0  0  0  0  0  0  0  0  0
    6.8535    5.7469    1.2068 H   0  0  0  0  0  0  0  0  0  0  0  0
    4.8533    4.7200    0.2246 H   0  0  0  0  0  0  0  0  0  0  0  0
    1.9452    2.1042   -1.2293 H   0  0  0  0  0  0  0  0  0  0  0  0
    1.0984    3.0626   -3.3347 H   0  0  0  0  0  0  0  0  0  0  0  0
    4.2364    3.0803   -6.3464 H   0  0  0  0  0  0  0  0  0  0  0  0
    2.8723    3.1665   -7.5141 H   0  0  0  0  0  0  0  0  0  0  0  0
    2.7368    2.1090   -6.0504 H   0  0  0  0  0  0  0  0  0  0  0  0
    5.0173    4.5812   -4.2354 H   0  0  0  0  0  0  0  0  0  0  0  0
    5.8852    3.5925   -2.1683 H   0  0  0  0  0  0  0  0  0  0  0  0
    4.9857   -0.4018    3.0610 H   0  0  0  0  0  0  0  0  0  0  0  0
    5.4545   -2.1355    4.7467 H   0  0  0  0  0  0  0  0  0  0  0  0
    2.1696   -2.8497    7.2479 H   0  0  0  0  0  0  0  0  0  0  0  0
    3.1145   -3.7642    5.9985 H   0  0  0  0  0  0  0  0  0  0  0  0
    3.0373   -4.3654    7.6994 H   0  0  0  0  0  0  0  0  0  0  0  0
    2.9655   -0.0554    7.5825 H   0  0  0  0  0  0  0  0  0  0  0  0
    2.5060    1.6887    5.8962 H   0  0  0  0  0  0  0  0  0  0  0  0
    5.5208    2.5621    4.8025 H   0  0  0  0  0  0  0  0  0  0  0  0
    6.2746    4.8589    5.1532 H   0  0  0  0  0  0  0  0  0  0  0  0
    4.8096    8.6709    6.0137 H   0  0  0  0  0  0  0  0  0  0  0  0
    4.5033    6.9098    6.2547 H   0  0  0  0  0  0  0  0  0  0  0  0
    3.3647    7.9055    5.2404 H   0  0  0  0  0  0  0  0  0  0  0  0
    3.2038    6.3003    2.5138 H   0  0  0  0  0  0  0  0  0  0  0  0
    2.3681    4.0227    2.2177 H   0  0  0  0  0  0  0  0  0  0  0  0
   -3.0170   -1.7686    0.0821 H   0  0  0  0  0  0  0  0  0  0  0  0
   -3.7142   -3.9164    1.0269 H   0  0  0  0  0  0  0  0  0  0  0  0
   -2.1379   -6.6683    4.0704 H   0  0  0  0  0  0  0  0  0  0  0  0
   -1.7615   -5.6619    2.6184 H   0  0  0  0  0  0  0  0  0  0  0  0
   -1.4285   -5.0256    4.2878 H   0  0  0  0  0  0  0  0  0  0  0  0
   -2.8081   -2.5073    4.9817 H   0  0  0  0  0  0  0  0  0  0  0  0
   -2.1538   -0.3422    4.0790 H   0  0  0  0  0  0  0  0  0  0  0  0
   -4.8707    0.1935    0.7485 H   0  0  0  0  0  0  0  0  0  0  0  0
   -5.8749    0.7697   -1.4204 H   0  0  0  0  0  0  0  0  0  0  0  0
   -6.0898    3.5527   -2.5352 H   0  0  0  0  0  0  0  0  0  0  0  0
   -4.5212    4.2641   -3.1043 H   0  0  0  0  0  0  0  0  0  0  0  0
   -5.9027    4.0674   -4.2501 H   0  0  0  0  0  0  0  0  0  0  0  0
   -2.1354    2.4099   -2.7437 H   0  0  0  0  0  0  0  0  0  0  0  0
   -1.0972    1.8031   -0.6098 H   0  0  0  0  0  0  0  0  0  0  0  0
   -2.0538    2.9801    5.8709 H   0  0  0  0  0  0  0  0  0  0  0  0
   -3.6344    4.9931    6.9594 H   0  0  0  0  0  0  0  0  0  0  0  0
   -4.5698    4.9629    8.4924 H   0  0  0  0  0  0  0  0  0  0  0  0
   -5.7392    4.9746    5.6489 H   0  0  0  0  0  0  0  0  0  0  0  0
   -6.7202    4.7644    7.1596 H   0  0  0  0  0  0  0  0  0  0  0  0
   -5.8094    6.2981    6.8651 H   0  0  0  0  0  0  0  0  0  0  0  0
   -6.5333    1.1630    6.0722 H   0  0  0  0  0  0  0  0  0  0  0  0
   -9.1605   -2.8406    3.6187 H   0  0  0  0  0  0  0  0  0  0  0  0
   -7.7805    0.3032   -0.1544 H   0  0  0  0  0  0  0  0  0  0  0  0
   -9.9977   -2.1812   -1.1863 H   0  0  0  0  0  0  0  0  0  0  0  0
   -7.8685   -2.9501   -2.4339 H   0  0  0  0  0  0  0  0  0  0  0  0
   -5.8096   -3.1308   -0.7576 H   0  0  0  0  0  0  0  0  0  0  0  0
   -6.4639   -4.7514    1.1631 H   0  0  0  0  0  0  0  0  0  0  0  0
   -8.9287   -5.6437    0.6989 H   0  0  0  0  0  0  0  0  0  0  0  0
   -7.9765   -5.5072   -1.7575 H   0  0  0  0  0  0  0  0  0  0  0  0
   -9.6556   -4.8069   -1.7340 H   0  0  0  0  0  0  0  0  0  0  0  0
  -10.5885   -3.6806    0.5334 H   0  0  0  0  0  0  0  0  0  0  0  0
  1  2  2  3
  2  3  1  0
  3  4  2  0
  3  5  1  0
  5  6  2  0
  6  7  1  0
  7  8  2  0
  8  9  1  0
  9 10  2  0
 10 11  1  0
 11 12  2  3
 12 13  1  0
 13 14  3  0
 12 15  1  0
 15 16  3  0
  8 17  1  0
 17 18  1  0
 18 19  1  0
 19 20  2  0
 20 21  1  0
 21 22  1  0
 21 23  1  0
  1 24  1  0
 24 25  2  0
 25 26  1  0
 26 27  1  0
 27 28  2  0
 28 29  1  0
 29 30  2  0
 30 31  1  0
 31 32  1  0
 30 33  1  0
 33 34  2  0
 26 35  1  0
 35 36  2  0
 36 37  1  0
 37 38  2  0
 38 39  1  0
 39 40  1  0
 38 41  1  0
 41 42  2  0
 25 43  1  0
 43 44  1  0
 44 45  1  0
 45 46  2  0
 46 47  1  0
 47 48  1  0
 48 49  2  0
 49 50  1  0
 50 51  2  0
 51 52  1  0
 52 53  1  0
 51 54  1  0
 54 55  2  0
 47 56  1  0
 56 57  2  0
 57 58  1  0
 58 59  2  0
 59 60  1  0
 60 61  1  0
 59 62  1  0
 62 63  2  0
 46 64  1  0
 64 65  1  0
 45 66  1  0
 66 67  2  0
 67 68  1  0
 68 69  1  0
 69 70  2  0
 70 71  1  0
 71 72  2  0
 72 73  1  0
 73 74  1  0
 72 75  1  0
 75 76  2  0
 68 77  1  0
 77 78  2  0
 78 79  1  0
 79 80  2  0
 80 81  1  0
 81 82  1  0
 80 83  1  0
 83 84  2  0
 67 85  1  0
 85 86  1  0
 86 87  1  0
 87 88  2  0
 88 89  1  0
 89 90  1  0
 90 91  2  0
 91 92  1  0
 92 93  2  0
 93 94  1  0
 94 95  1  0
 93 96  1  0
 96 97  2  0
 89 98  1  0
 98 99  2  0
 99100  1  0
100101  2  0
101102  1  0
102103  1  0
101104  1  0
104105  2  0
 88106  1  0
106107  1  0
 87108  1  0
108109  2  0
109110  1  0
110111  1  0
111112  1  0
112113  1  0
110114  2  0
114115  1  0
114116  1  0
116117  2  3
117118  1  0
118119  2  0
118120  1  0
120121  2  0
121122  1  0
122123  2  0
123124  1  0
124125  2  0
125126  1  0
126127  2  3
127128  1  0
128129  3  0
127130  1  0
130131  3  0
123132  1  0
132133  1  0
133134  1  0
134135  2  0
135136  1  0
136137  1  0
136138  1  0
 11  2  1  0
 23 17  1  0
 65 24  1  0
107 66  1  0
115108  1  0
126117  1  0
138132  1  0
 10  5  1  0
 22 18  1  0
 34 27  1  0
 42 35  1  0
 64 43  2  0
 76 69  1  0
 84 77  1  0
106 85  2  0
125120  1  0
137133  1  0
 23  7  1  0
 55 48  1  0
 63 56  1  0
 97 90  1  0
105 98  1  0
138122  1  0
  1139  1  0
  6140  1  0
  9141  1  0
 17142  1  0
 18143  1  0
 19144  1  0
 20145  1  0
 21146  1  0
 22147  1  0
 22148  1  0
 23149  1  0
 28150  1  0
 29151  1  0
 32152  1  0
 32153  1  0
 32154  1  0
 33155  1  0
 34156  1  0
 36157  1  0
 37158  1  0
 40159  1  0
 40160  1  0
 40161  1  0
 41162  1  0
 42163  1  0
 49164  1  0
 50165  1  0
 53166  1  0
 53167  1  0
 53168  1  0
 54169  1  0
 55170  1  0
 57171  1  0
 58172  1  0
 61173  1  0
 61174  1  0
 61175  1  0
 62176  1  0
 63177  1  0
 70178  1  0
 71179  1  0
 74180  1  0
 74181  1  0
 74182  1  0
 75183  1  0
 76184  1  0
 78185  1  0
 79186  1  0
 82187  1  0
 82188  1  0
 82189  1  0
 83190  1  0
 84191  1  0
 91192  1  0
 92193  1  0
 95194  1  0
 95195  1  0
 95196  1  0
 96197  1  0
 97198  1  0
 99199  1  0
100200  1  0
103201  1  0
103202  1  0
103203  1  0
104204  1  0
105205  1  0
109206  1  0
112207  1  0
112208  1  0
113209  1  0
113210  1  0
113211  1  0
116212  1  0
121213  1  0
124214  1  0
132215  1  0
133216  1  0
134217  1  0
135218  1  0
136219  1  0
137220  1  0
137221  1  0
138222  1  0
M  END

