
     RDKit          3D

183201  0  0  0  0  0  0  0  0999 V2000
    4.5592   -0.2968   -3.2265 C   0  0  0  0  0  0  0  0  0  0  0  0
    5.3119   -0.7820   -4.2339 C   0  0  0  0  0  0  0  0  0  0  0  0
    6.5550   -0.1224   -4.6331 C   0  0  0  0  0  0  0  0  0  0  0  0
    7.1684    0.7588   -3.9712 O   0  0  0  0  0  0  0  0  0  0  0  0
    6.9416   -0.6008   -5.9369 C   0  0  0  0  0  0  0  0  0  0  0  0
    8.0561   -0.1808   -6.6936 C   0  0  0  0  0  0  0  0  0  0  0  0
    8.1614   -0.8077   -7.9186 C   0  0  0  0  0  0  0  0  0  0  0  0
    7.2126   -1.7729   -8.3899 C   0  0  0  0  0  0  0  0  0  0  0  0
    6.1132   -2.1847   -7.6509 C   0  0  0  0  0  0  0  0  0  0  0  0
    6.0019   -1.5737   -6.3680 C   0  0  0  0  0  0  0  0  0  0  0  0
    5.0229   -1.8294   -5.2625 C   0  0  0  0  0  0  0  0  0  0  0  0
    4.3384   -2.9847   -5.0730 C   0  0  0  0  0  0  0  0  0  0  0  0
    4.1141   -3.9404   -6.1258 C   0  0  0  0  0  0  0  0  0  0  0  0
    3.9193   -4.7239   -6.9567 N   0  0  0  0  0  0  0  0  0  0  0  0
    3.9127   -3.4184   -3.7629 C   0  0  0  0  0  0  0  0  0  0  0  0
    3.5775   -3.7905   -2.7202 N   0  0  0  0  0  0  0  0  0  0  0  0
    7.9685   -1.9049   -9.6769 C   0  0  0  0  0  0  0  0  0  0  0  0
    7.3821   -1.2209  -10.9558 C   0  0  0  0  0  0  0  0  0  0  0  0
    6.6040    0.0159  -10.5654 C   0  0  0  0  0  0  0  0  0  0  0  0
    7.4974    0.9017  -10.1190 C   0  0  0  0  0  0  0  0  0  0  0  0
    8.8481    0.2394  -10.2187 C   0  0  0  0  0  0  0  0  0  0  0  0
    8.6340   -0.5557  -11.4977 C   0  0  0  0  0  0  0  0  0  0  0  0
    8.9476   -0.9314   -9.1882 C   0  0  0  0  0  0  0  0  0  0  0  0
    3.1850   -0.6936   -2.8549 C   0  0  0  0  0  0  0  0  0  0  0  0
    2.1356   -0.7512   -3.7973 C   0  0  0  0  0  0  0  0  0  0  0  0
    2.3758   -0.4985   -5.1051 F   0  0  0  0  0  0  0  0  0  0  0  0
    0.8340   -1.0616   -3.3894 C   0  0  0  0  0  0  0  0  0  0  0  0
   -0.1277   -1.1937   -4.3333 F   0  0  0  0  0  0  0  0  0  0  0  0
    0.5375   -1.2715   -2.0304 C   0  0  0  0  0  0  0  0  0  0  0  0
    1.5928   -1.2320   -1.0915 C   0  0  0  0  0  0  0  0  0  0  0  0
    1.3787   -1.5190    0.2198 N   0  0  0  0  0  0  0  0  0  0  0  0
    2.3768   -1.5450    1.1460 C   0  0  0  0  0  0  0  0  0  0  0  0
    2.0417   -2.0473    2.5354 C   0  0  0  0  0  0  0  0  0  0  0  0
    0.9037   -1.2499    3.1516 C   0  0  0  0  0  0  0  0  0  0  0  0
    3.6900   -1.2349    0.7283 C   0  0  0  0  0  0  0  0  0  0  0  0
    3.8985   -0.9310   -0.5795 N   0  0  0  0  0  0  0  0  0  0  0  0
    2.9012   -0.9305   -1.5053 C   0  0  0  0  0  0  0  0  0  0  0  0
    4.8806   -1.2292    1.6565 C   0  0  0  0  0  0  0  0  0  0  0  0
    4.8805    0.0093    2.5481 C   0  0  0  0  0  0  0  0  0  0  0  0
   -0.8565   -1.4653   -1.5540 C   0  0  0  0  0  0  0  0  0  0  0  0
   -1.7232   -0.3787   -1.3000 C   0  0  0  0  0  0  0  0  0  0  0  0
   -1.8993    0.7486   -2.1889 N   0  0  0  0  0  0  0  0  0  0  0  0
   -2.2663    0.5149   -3.5672 C   0  0  0  0  0  0  0  0  0  0  0  0
   -2.9870   -0.6355   -3.9360 C   0  0  0  0  0  0  0  0  0  0  0  0
   -3.3419   -0.8511   -5.2654 C   0  0  0  0  0  0  0  0  0  0  0  0
   -3.0153    0.0937   -6.2417 C   0  0  0  0  0  0  0  0  0  0  0  0
   -3.5090   -0.1774   -7.9475 S   0  0  0  0  0  0  0  0  0  0  0  0
   -5.1510    0.5771   -7.7141 C   0  0  0  0  0  0  0  0  0  0  0  0
   -2.3095    1.2476   -5.8874 C   0  0  0  0  0  0  0  0  0  0  0  0
   -1.9370    1.4600   -4.5580 C   0  0  0  0  0  0  0  0  0  0  0  0
   -2.1735    2.0408   -1.6152 C   0  0  0  0  0  0  0  0  0  0  0  0
   -1.1941    2.7058   -0.8681 C   0  0  0  0  0  0  0  0  0  0  0  0
   -1.5050    3.9024   -0.2136 C   0  0  0  0  0  0  0  0  0  0  0  0
   -2.7932    4.4402   -0.3030 C   0  0  0  0  0  0  0  0  0  0  0  0
   -3.2144    5.9330    0.5977 S   0  0  0  0  0  0  0  0  0  0  0  0
   -2.8878    7.0384   -0.8153 C   0  0  0  0  0  0  0  0  0  0  0  0
   -3.7697    3.7999   -1.0740 C   0  0  0  0  0  0  0  0  0  0  0  0
   -3.4550    2.6124   -1.7387 C   0  0  0  0  0  0  0  0  0  0  0  0
   -2.5424   -0.6145   -0.1900 C   0  0  0  0  0  0  0  0  0  0  0  0
   -3.3069    0.4213    0.8719 S   0  0  0  0  0  0  0  0  0  0  0  0
   -3.5238   -0.7268    2.0975 C   0  0  0  0  0  0  0  0  0  0  0  0
   -2.9874   -1.9632    1.6667 C   0  0  0  0  0  0  0  0  0  0  0  0
   -2.9985   -3.1662    2.4713 N   0  0  0  0  0  0  0  0  0  0  0  0
   -2.1842   -4.2947    2.1274 C   0  0  0  0  0  0  0  0  0  0  0  0
   -0.9089   -4.4440    2.6889 C   0  0  0  0  0  0  0  0  0  0  0  0
   -0.1030   -5.5243    2.3188 C   0  0  0  0  0  0  0  0  0  0  0  0
   -0.5579   -6.4455    1.3679 C   0  0  0  0  0  0  0  0  0  0  0  0
    0.5066   -7.7938    0.8453 S   0  0  0  0  0  0  0  0  0  0  0  0
    1.1039   -6.8944   -0.6243 C   0  0  0  0  0  0  0  0  0  0  0  0
   -1.8403   -6.3116    0.8232 C   0  0  0  0  0  0  0  0  0  0  0  0
   -2.6535   -5.2420    1.2060 C   0  0  0  0  0  0  0  0  0  0  0  0
   -4.0046   -3.3475    3.4843 C   0  0  0  0  0  0  0  0  0  0  0  0
   -5.3539   -3.0630    3.2128 C   0  0  0  0  0  0  0  0  0  0  0  0
   -6.3167   -3.1946    4.2132 C   0  0  0  0  0  0  0  0  0  0  0  0
   -5.9484   -3.6236    5.4918 C   0  0  0  0  0  0  0  0  0  0  0  0
   -7.1898   -3.8273    6.7660 S   0  0  0  0  0  0  0  0  0  0  0  0
   -7.5868   -5.5304    6.2612 C   0  0  0  0  0  0  0  0  0  0  0  0
   -4.6076   -3.9162    5.7697 C   0  0  0  0  0  0  0  0  0  0  0  0
   -3.6389   -3.7845    4.7655 C   0  0  0  0  0  0  0  0  0  0  0  0
   -2.4239   -1.8402    0.3866 C   0  0  0  0  0  0  0  0  0  0  0  0
   -1.2418   -2.7041   -0.4407 S   0  0  0  0  0  0  0  0  0  0  0  0
   -3.5582   -0.3026    3.5052 C   0  0  0  0  0  0  0  0  0  0  0  0
   -2.1262   -0.2463    4.4282 S   0  0  0  0  0  0  0  0  0  0  0  0
   -2.5847    0.9459    5.5297 C   0  0  0  0  0  0  0  0  0  0  0  0
   -3.8886    1.2634    5.2005 C   0  0  0  0  0  0  0  0  0  0  0  0
   -4.8400    2.5691    5.6368 S   0  0  0  0  0  0  0  0  0  0  0  0
   -5.9873    2.3073    4.4192 C   0  0  0  0  0  0  0  0  0  0  0  0
   -6.9805    3.3220    4.0548 C   0  0  0  0  0  0  0  0  0  0  0  0
   -8.3321    3.1451    3.7564 C   0  0  0  0  0  0  0  0  0  0  0  0
   -8.9861    4.3348    3.3920 C   0  0  0  0  0  0  0  0  0  0  0  0
   -8.1458    5.4456    3.4262 C   0  0  0  0  0  0  0  0  0  0  0  0
   -8.5179    6.8285    3.1325 C   0  0  0  0  0  0  0  0  0  0  0  0
   -9.6464    7.0851    2.6201 O   0  0  0  0  0  0  0  0  0  0  0  0
   -7.6074    7.8552    3.4040 O   0  0  0  0  0  0  0  0  0  0  0  0
   -7.9653    9.2325    3.3915 C   0  0  0  0  0  0  0  0  0  0  0  0
   -6.7081   10.0885    3.2753 C   0  0  0  0  0  0  0  0  0  0  0  0
   -6.6093    4.9540    3.8958 S   0  0  0  0  0  0  0  0  0  0  0  0
   -9.1786    1.6133    3.9215 Cl  0  0  0  0  0  0  0  0  0  0  0  0
   -5.6140    1.2029    3.6334 C   0  0  0  0  0  0  0  0  0  0  0  0
   -4.4183    0.6310    4.0851 C   0  0  0  0  0  0  0  0  0  0  0  0
   -6.4546    0.7097    2.1739 Cl  0  0  0  0  0  0  0  0  0  0  0  0
   -1.7254    1.7170    6.4393 C   0  0  0  0  0  0  0  0  0  0  0  0
   -0.5160    2.2160    6.1343 C   0  0  0  0  0  0  0  0  0  0  0  0
    0.4259    2.6809    7.1598 C   0  0  0  0  0  0  0  0  0  0  0  0
    0.1316    2.9084    8.3663 O   0  0  0  0  0  0  0  0  0  0  0  0
    1.7669    2.7470    6.5713 C   0  0  0  0  0  0  0  0  0  0  0  0
    1.6680    2.3722    5.2381 C   0  0  0  0  0  0  0  0  0  0  0  0
    2.8238    2.2681    4.4567 C   0  0  0  0  0  0  0  0  0  0  0  0
    4.0649    2.5951    5.0110 C   0  0  0  0  0  0  0  0  0  0  0  0
    4.1688    3.0188    6.3474 C   0  0  0  0  0  0  0  0  0  0  0  0
    5.4201    3.3730    6.8832 C   0  0  0  0  0  0  0  0  0  0  0  0
    5.5156    3.8177    8.2021 C   0  0  0  0  0  0  0  0  0  0  0  0
    4.3743    3.9043    8.9976 C   0  0  0  0  0  0  0  0  0  0  0  0
    3.1214    3.5489    8.4855 C   0  0  0  0  0  0  0  0  0  0  0  0
    3.0021    3.1045    7.1527 C   0  0  0  0  0  0  0  0  0  0  0  0
    0.2439    2.1805    4.8543 C   0  0  0  0  0  0  0  0  0  0  0  0
   -0.2587    2.4133    3.6116 C   0  0  0  0  0  0  0  0  0  0  0  0
   -1.5932    2.9129    3.4007 C   0  0  0  0  0  0  0  0  0  0  0  0
   -2.6567    3.3254    3.1969 N   0  0  0  0  0  0  0  0  0  0  0  0
    0.5461    2.3053    2.4244 C   0  0  0  0  0  0  0  0  0  0  0  0
    1.1998    2.1964    1.4689 N   0  0  0  0  0  0  0  0  0  0  0  0
    4.9957    0.4717   -2.6027 H   0  0  0  0  0  0  0  0  0  0  0  0
    8.7604    0.5599   -6.3486 H   0  0  0  0  0  0  0  0  0  0  0  0
    5.4099   -2.8886   -8.0590 H   0  0  0  0  0  0  0  0  0  0  0  0
    8.3918   -2.9230   -9.8450 H   0  0  0  0  0  0  0  0  0  0  0  0
    6.8586   -1.9047  -11.6586 H   0  0  0  0  0  0  0  0  0  0  0  0
    5.5424    0.1931  -10.7019 H   0  0  0  0  0  0  0  0  0  0  0  0
    7.2853    1.9212   -9.8347 H   0  0  0  0  0  0  0  0  0  0  0  0
    9.7151    0.9323  -10.2317 H   0  0  0  0  0  0  0  0  0  0  0  0
    8.4383    0.0887  -12.3845 H   0  0  0  0  0  0  0  0  0  0  0  0
    9.4600   -1.2691  -11.7227 H   0  0  0  0  0  0  0  0  0  0  0  0
    9.9710   -1.3550   -9.0553 H   0  0  0  0  0  0  0  0  0  0  0  0
    2.8990   -2.0119    3.2262 H   0  0  0  0  0  0  0  0  0  0  0  0
    1.7359   -3.1081    2.4508 H   0  0  0  0  0  0  0  0  0  0  0  0
    0.6517   -1.6650    4.1561 H   0  0  0  0  0  0  0  0  0  0  0  0
    1.2184   -0.1961    3.2878 H   0  0  0  0  0  0  0  0  0  0  0  0
   -0.0063   -1.2853    2.5104 H   0  0  0  0  0  0  0  0  0  0  0  0
    4.9097   -2.1488    2.2705 H   0  0  0  0  0  0  0  0  0  0  0  0
    5.8171   -1.2195    1.0532 H   0  0  0  0  0  0  0  0  0  0  0  0
    5.8039    0.0339    3.1623 H   0  0  0  0  0  0  0  0  0  0  0  0
    4.0182   -0.0164    3.2376 H   0  0  0  0  0  0  0  0  0  0  0  0
    4.8329    0.9343    1.9399 H   0  0  0  0  0  0  0  0  0  0  0  0
   -3.2739   -1.3703   -3.1961 H   0  0  0  0  0  0  0  0  0  0  0  0
   -3.8946   -1.7462   -5.5342 H   0  0  0  0  0  0  0  0  0  0  0  0
   -5.7046    0.5511   -8.6770 H   0  0  0  0  0  0  0  0  0  0  0  0
   -5.7298    0.0019   -6.9561 H   0  0  0  0  0  0  0  0  0  0  0  0
   -5.0463    1.6232   -7.3761 H   0  0  0  0  0  0  0  0  0  0  0  0
   -2.0563    1.9843   -6.6402 H   0  0  0  0  0  0  0  0  0  0  0  0
   -1.3912    2.3553   -4.2981 H   0  0  0  0  0  0  0  0  0  0  0  0
   -0.1980    2.2903   -0.7928 H   0  0  0  0  0  0  0  0  0  0  0  0
   -0.7438    4.4010    0.3828 H   0  0  0  0  0  0  0  0  0  0  0  0
   -3.3673    6.6573   -1.7439 H   0  0  0  0  0  0  0  0  0  0  0  0
   -1.7926    7.1225   -0.9361 H   0  0  0  0  0  0  0  0  0  0  0  0
   -3.2964    8.0473   -0.5857 H   0  0  0  0  0  0  0  0  0  0  0  0
   -4.7623    4.2196   -1.1542 H   0  0  0  0  0  0  0  0  0  0  0  0
   -4.2225    2.1083   -2.3037 H   0  0  0  0  0  0  0  0  0  0  0  0
   -0.5517   -3.7319    3.4194 H   0  0  0  0  0  0  0  0  0  0  0  0
    0.8740   -5.6390    2.7650 H   0  0  0  0  0  0  0  0  0  0  0  0
    0.2530   -6.6576   -1.2947 H   0  0  0  0  0  0  0  0  0  0  0  0
    1.6100   -5.9562   -0.3144 H   0  0  0  0  0  0  0  0  0  0  0  0
    1.8278   -7.5365   -1.1697 H   0  0  0  0  0  0  0  0  0  0  0  0
   -2.1853   -7.0220    0.0835 H   0  0  0  0  0  0  0  0  0  0  0  0
   -3.6314   -5.1214    0.7522 H   0  0  0  0  0  0  0  0  0  0  0  0
   -5.6510   -2.7300    2.2275 H   0  0  0  0  0  0  0  0  0  0  0  0
   -7.3574   -2.9724    3.9927 H   0  0  0  0  0  0  0  0  0  0  0  0
   -8.3455   -5.9435    6.9556 H   0  0  0  0  0  0  0  0  0  0  0  0
   -8.0013   -5.5254    5.2305 H   0  0  0  0  0  0  0  0  0  0  0  0
   -6.6730   -6.1587    6.2978 H   0  0  0  0  0  0  0  0  0  0  0  0
   -4.3092   -4.2425    6.7561 H   0  0  0  0  0  0  0  0  0  0  0  0
   -2.6076   -4.0099    4.9995 H   0  0  0  0  0  0  0  0  0  0  0  0
  -10.0386    4.3830    3.1605 H   0  0  0  0  0  0  0  0  0  0  0  0
   -8.4896    9.4792    4.3370 H   0  0  0  0  0  0  0  0  0  0  0  0
   -8.6323    9.4553    2.5323 H   0  0  0  0  0  0  0  0  0  0  0  0
   -5.9701    9.8097    4.0443 H   0  0  0  0  0  0  0  0  0  0  0  0
   -6.2616    9.9323    2.2723 H   0  0  0  0  0  0  0  0  0  0  0  0
   -6.9699   11.1636    3.3840 H   0  0  0  0  0  0  0  0  0  0  0  0
   -2.1091    1.8711    7.4403 H   0  0  0  0  0  0  0  0  0  0  0  0
    2.8005    1.9443    3.4330 H   0  0  0  0  0  0  0  0  0  0  0  0
    4.9582    2.5279    4.3864 H   0  0  0  0  0  0  0  0  0  0  0  0
    6.3183    3.3101    6.2778 H   0  0  0  0  0  0  0  0  0  0  0  0
    6.4863    4.0857    8.6051 H   0  0  0  0  0  0  0  0  0  0  0  0
    4.4689    4.2491   10.0248 H   0  0  0  0  0  0  0  0  0  0  0  0
    2.2670    3.6427    9.1368 H   0  0  0  0  0  0  0  0  0  0  0  0
  1  2  2  3
  2  3  1  0
  3  4  2  0
  3  5  1  0
  5  6  2  0
  6  7  1  0
  7  8  2  0
  8  9  1  0
  9 10  2  0
 10 11  1  0
 11 12  2  3
 12 13  1  0
 13 14  3  0
 12 15  1  0
 15 16  3  0
  8 17  1  0
 17 18  1  0
 18 19  1  0
 19 20  2  0
 20 21  1  0
 21 22  1  0
 21 23  1  0
  1 24  1  0
 24 25  2  0
 25 26  1  0
 25 27  1  0
 27 28  1  0
 27 29  2  0
 29 30  1  0
 30 31  2  0
 31 32  1  0
 32 33  1  0
 33 34  1  0
 32 35  2  0
 35 36  1  0
 36 37  2  0
 35 38  1  0
 38 39  1  0
 29 40  1  0
 40 41  2  0
 41 42  1  0
 42 43  1  0
 43 44  2  0
 44 45  1  0
 45 46  2  0
 46 47  1  0
 47 48  1  0
 46 49  1  0
 49 50  2  0
 42 51  1  0
 51 52  2  0
 52 53  1  0
 53 54  2  0
 54 55  1  0
 55 56  1  0
 54 57  1  0
 57 58  2  0
 41 59  1  0
 59 60  1  0
 60 61  1  0
 61 62  2  0
 62 63  1  0
 63 64  1  0
 64 65  2  0
 65 66  1  0
 66 67  2  0
 67 68  1  0
 68 69  1  0
 67 70  1  0
 70 71  2  0
 63 72  1  0
 72 73  2  0
 73 74  1  0
 74 75  2  0
 75 76  1  0
 76 77  1  0
 75 78  1  0
 78 79  2  0
 62 80  1  0
 80 81  1  0
 61 82  1  0
 82 83  1  0
 83 84  1  0
 84 85  2  0
 85 86  1  0
 86 87  1  0
 87 88  1  0
 88 89  2  0
 89 90  1  0
 90 91  2  0
 91 92  1  0
 92 93  2  0
 92 94  1  0
 94 95  1  0
 95 96  1  0
 91 97  1  0
 89 98  1  0
 87 99  2  0
 99100  1  0
 99101  1  0
 84102  1  0
102103  2  3
103104  1  0
104105  2  0
104106  1  0
106107  2  0
107108  1  0
108109  2  0
109110  1  0
110111  2  0
111112  1  0
112113  2  0
113114  1  0
114115  2  0
107116  1  0
116117  2  3
117118  1  0
118119  3  0
117120  1  0
120121  3  0
 11  2  1  0
 23 17  1  0
 37 24  1  0
 81 40  1  0
100 82  2  0
116103  1  0
 10  5  1  0
 22 18  1  0
 37 30  1  0
 50 43  1  0
 58 51  1  0
 80 59  2  0
100 85  1  0
115106  1  0
 23  7  1  0
 71 64  1  0
 79 72  1  0
 97 88  1  0
115110  1  0
  1122  1  0
  6123  1  0
  9124  1  0
 17125  1  0
 18126  1  0
 19127  1  0
 20128  1  0
 21129  1  0
 22130  1  0
 22131  1  0
 23132  1  0
 33133  1  0
 33134  1  0
 34135  1  0
 34136  1  0
 34137  1  0
 38138  1  0
 38139  1  0
 39140  1  0
 39141  1  0
 39142  1  0
 44143  1  0
 45144  1  0
 48145  1  0
 48146  1  0
 48147  1  0
 49148  1  0
 50149  1  0
 52150  1  0
 53151  1  0
 56152  1  0
 56153  1  0
 56154  1  0
 57155  1  0
 58156  1  0
 65157  1  0
 66158  1  0
 69159  1  0
 69160  1  0
 69161  1  0
 70162  1  0
 71163  1  0
 73164  1  0
 74165  1  0
 77166  1  0
 77167  1  0
 77168  1  0
 78169  1  0
 79170  1  0
 90171  1  0
 95172  1  0
 95173  1  0
 96174  1  0
 96175  1  0
 96176  1  0
102177  1  0
108178  1  0
109179  1  0
111180  1  0
112181  1  0
113182  1  0
114183  1  0
M  END

