
     RDKit          3D

176196  0  0  0  0  0  0  0  0999 V2000
   -1.0239    7.3586   -4.3461 C   0  0  0  0  0  0  0  0  0  0  0  0
   -0.8279    7.2429   -5.6744 C   0  0  0  0  0  0  0  0  0  0  0  0
   -0.0810    6.1844   -6.3625 C   0  0  0  0  0  0  0  0  0  0  0  0
    0.8948    5.5353   -5.8991 O   0  0  0  0  0  0  0  0  0  0  0  0
   -0.6640    5.9929   -7.6773 C   0  0  0  0  0  0  0  0  0  0  0  0
   -0.5092    4.8650   -8.5183 C   0  0  0  0  0  0  0  0  0  0  0  0
   -1.4371    4.8090   -9.5464 C   0  0  0  0  0  0  0  0  0  0  0  0
   -2.4534    5.8022   -9.7462 C   0  0  0  0  0  0  0  0  0  0  0  0
   -2.5924    6.9181   -8.9405 C   0  0  0  0  0  0  0  0  0  0  0  0
   -1.6446    6.9983   -7.8858 C   0  0  0  0  0  0  0  0  0  0  0  0
   -1.6439    7.9162   -6.7205 C   0  0  0  0  0  0  0  0  0  0  0  0
   -2.0802    9.2012   -6.7117 C   0  0  0  0  0  0  0  0  0  0  0  0
   -1.8289   10.0795   -5.5979 C   0  0  0  0  0  0  0  0  0  0  0  0
   -1.6141   10.7850   -4.7010 N   0  0  0  0  0  0  0  0  0  0  0  0
   -2.6624    9.8151   -7.8745 C   0  0  0  0  0  0  0  0  0  0  0  0
   -3.1252   10.3230   -8.8104 N   0  0  0  0  0  0  0  0  0  0  0  0
   -3.0620    4.9800  -10.8436 C   0  0  0  0  0  0  0  0  0  0  0  0
   -4.3745    4.2037  -10.5189 C   0  0  0  0  0  0  0  0  0  0  0  0
   -4.4072    3.8234   -9.0542 C   0  0  0  0  0  0  0  0  0  0  0  0
   -3.4552    2.9056   -8.8799 C   0  0  0  0  0  0  0  0  0  0  0  0
   -2.8071    2.6939  -10.2292 C   0  0  0  0  0  0  0  0  0  0  0  0
   -4.0323    2.8482  -11.1101 C   0  0  0  0  0  0  0  0  0  0  0  0
   -2.0148    3.9695  -10.6473 C   0  0  0  0  0  0  0  0  0  0  0  0
   -0.4772    6.4434   -3.3128 C   0  0  0  0  0  0  0  0  0  0  0  0
   -0.6417    5.0471   -3.3850 C   0  0  0  0  0  0  0  0  0  0  0  0
   -0.1945    4.1977   -2.3430 C   0  0  0  0  0  0  0  0  0  0  0  0
   -0.3963    2.8005   -2.5927 N   0  0  0  0  0  0  0  0  0  0  0  0
   -1.1541    2.8486   -3.9918 S   0  0  0  0  0  4  0  0  0  0  0  0
   -1.3073    4.3661   -4.4600 N   0  0  0  0  0  0  0  0  0  0  0  0
    0.3063    4.7177   -1.1308 C   0  0  0  0  0  0  0  0  0  0  0  0
    0.4409    6.1154   -1.0339 C   0  0  0  0  0  0  0  0  0  0  0  0
    0.8992    6.7376    0.0833 N   0  0  0  0  0  0  0  0  0  0  0  0
    0.8161    8.3212   -0.3877 S   0  0  0  0  0  0  0  0  0  0  0  0
    0.2171    8.3090   -1.9262 N   0  0  0  0  0  0  0  0  0  0  0  0
    0.0631    6.9714   -2.1243 C   0  0  0  0  0  0  0  0  0  0  0  0
    0.5703    3.8262    0.0338 C   0  0  0  0  0  0  0  0  0  0  0  0
    1.8337    3.8121    0.6506 C   0  0  0  0  0  0  0  0  0  0  0  0
    2.8156    4.6400    0.2165 F   0  0  0  0  0  0  0  0  0  0  0  0
    2.1218    2.8921    1.6660 C   0  0  0  0  0  0  0  0  0  0  0  0
    3.3644    2.8748    2.2070 F   0  0  0  0  0  0  0  0  0  0  0  0
    1.1633    1.9520    2.0770 C   0  0  0  0  0  0  0  0  0  0  0  0
   -0.1267    1.9842    1.4880 C   0  0  0  0  0  0  0  0  0  0  0  0
   -1.0728    1.0529    1.7970 N   0  0  0  0  0  0  0  0  0  0  0  0
   -2.2953    1.0090    1.1929 C   0  0  0  0  0  0  0  0  0  0  0  0
   -3.2308   -0.1170    1.5628 C   0  0  0  0  0  0  0  0  0  0  0  0
   -4.5513    0.3653    2.1722 C   0  0  0  0  0  0  0  0  0  0  0  0
   -2.5803    1.9628    0.1879 C   0  0  0  0  0  0  0  0  0  0  0  0
   -1.6421    2.8984   -0.1080 N   0  0  0  0  0  0  0  0  0  0  0  0
   -0.4168    2.9261    0.4822 C   0  0  0  0  0  0  0  0  0  0  0  0
   -3.8481    1.9747   -0.6266 C   0  0  0  0  0  0  0  0  0  0  0  0
   -4.7935    3.0734   -0.1540 C   0  0  0  0  0  0  0  0  0  0  0  0
    1.5804    0.8119    2.9285 C   0  0  0  0  0  0  0  0  0  0  0  0
    0.7585    0.1649    3.8721 C   0  0  0  0  0  0  0  0  0  0  0  0
   -0.1169    0.8919    4.7584 N   0  0  0  0  0  0  0  0  0  0  0  0
   -1.2605    0.2904    5.3779 C   0  0  0  0  0  0  0  0  0  0  0  0
   -1.1133   -0.5306    6.5065 C   0  0  0  0  0  0  0  0  0  0  0  0
   -2.2412   -1.0170    7.1750 C   0  0  0  0  0  0  0  0  0  0  0  0
   -3.5206   -0.6545    6.7440 C   0  0  0  0  0  0  0  0  0  0  0  0
   -4.9721   -1.2510    7.6141 S   0  0  0  0  0  0  0  0  0  0  0  0
   -5.1275   -2.7309    6.5683 C   0  0  0  0  0  0  0  0  0  0  0  0
   -3.6703    0.2069    5.6490 C   0  0  0  0  0  0  0  0  0  0  0  0
   -2.5429    0.6818    4.9735 C   0  0  0  0  0  0  0  0  0  0  0  0
    0.3639    2.1159    5.3354 C   0  0  0  0  0  0  0  0  0  0  0  0
    1.5118    2.1034    6.1459 C   0  0  0  0  0  0  0  0  0  0  0  0
    1.9549    3.2783    6.7573 C   0  0  0  0  0  0  0  0  0  0  0  0
    1.2589    4.4767    6.5557 C   0  0  0  0  0  0  0  0  0  0  0  0
    1.8110    5.9779    7.3701 S   0  0  0  0  0  0  0  0  0  0  0  0
    0.8260    5.6704    8.8709 C   0  0  0  0  0  0  0  0  0  0  0  0
    0.1298    4.4979    5.7277 C   0  0  0  0  0  0  0  0  0  0  0  0
   -0.3183    3.3217    5.1198 C   0  0  0  0  0  0  0  0  0  0  0  0
    1.1764   -1.1571    4.0698 C   0  0  0  0  0  0  0  0  0  0  0  0
    0.3745   -2.5707    4.5046 S   0  0  0  0  0  0  0  0  0  0  0  0
    1.5786   -3.6260    3.9192 C   0  0  0  0  0  0  0  0  0  0  0  0
    2.6335   -2.8583    3.3841 C   0  0  0  0  0  0  0  0  0  0  0  0
    3.9349   -3.3470    2.9946 N   0  0  0  0  0  0  0  0  0  0  0  0
    5.1007   -2.6256    3.4412 C   0  0  0  0  0  0  0  0  0  0  0  0
    6.1615   -2.3713    2.5586 C   0  0  0  0  0  0  0  0  0  0  0  0
    7.2595   -1.6122    2.9768 C   0  0  0  0  0  0  0  0  0  0  0  0
    7.3087   -1.1068    4.2834 C   0  0  0  0  0  0  0  0  0  0  0  0
    8.7137   -0.1302    4.8180 S   0  0  0  0  0  0  0  0  0  0  0  0
    7.8878    1.4597    4.4956 C   0  0  0  0  0  0  0  0  0  0  0  0
    6.2701   -1.3843    5.1772 C   0  0  0  0  0  0  0  0  0  0  0  0
    5.1707   -2.1371    4.7590 C   0  0  0  0  0  0  0  0  0  0  0  0
    4.1137   -4.6325    2.3810 C   0  0  0  0  0  0  0  0  0  0  0  0
    4.5479   -5.7230    3.1507 C   0  0  0  0  0  0  0  0  0  0  0  0
    4.7877   -6.9585    2.5424 C   0  0  0  0  0  0  0  0  0  0  0  0
    4.6075   -7.1093    1.1624 C   0  0  0  0  0  0  0  0  0  0  0  0
    4.9818   -8.6749    0.3710 S   0  0  0  0  0  0  0  0  0  0  0  0
    3.3023   -9.3273    0.5858 C   0  0  0  0  0  0  0  0  0  0  0  0
    4.1716   -6.0197    0.3931 C   0  0  0  0  0  0  0  0  0  0  0  0
    3.9328   -4.7842    0.9998 C   0  0  0  0  0  0  0  0  0  0  0  0
    2.3286   -1.4984    3.4313 C   0  0  0  0  0  0  0  0  0  0  0  0
    2.8530   -0.2247    2.4799 S   0  0  0  0  0  0  0  0  0  0  0  0
    1.2833   -5.0283    3.5795 C   0  0  0  0  0  0  0  0  0  0  0  0
    0.9382   -5.4055    2.3251 C   0  0  0  0  0  0  0  0  0  0  0  0
    0.7172   -4.4729    1.2036 C   0  0  0  0  0  0  0  0  0  0  0  0
    0.7837   -3.2149    1.2434 O   0  0  0  0  0  0  0  0  0  0  0  0
    0.3408   -5.2182    0.0363 C   0  0  0  0  0  0  0  0  0  0  0  0
    0.1349   -4.6887   -1.2575 C   0  0  0  0  0  0  0  0  0  0  0  0
   -0.1819   -5.6388   -2.2012 C   0  0  0  0  0  0  0  0  0  0  0  0
   -0.3015   -7.0305   -1.9019 C   0  0  0  0  0  0  0  0  0  0  0  0
   -0.0891   -7.5572   -0.6348 C   0  0  0  0  0  0  0  0  0  0  0  0
    0.2378   -6.5927    0.3634 C   0  0  0  0  0  0  0  0  0  0  0  0
    0.6028   -6.7776    1.8059 C   0  0  0  0  0  0  0  0  0  0  0  0
    0.6435   -7.9525    2.4889 C   0  0  0  0  0  0  0  0  0  0  0  0
    0.1040   -9.1793    1.9610 C   0  0  0  0  0  0  0  0  0  0  0  0
   -0.3273  -10.1736    1.5554 N   0  0  0  0  0  0  0  0  0  0  0  0
    1.2751   -8.0917    3.7758 C   0  0  0  0  0  0  0  0  0  0  0  0
    1.7931   -8.2304    4.8036 N   0  0  0  0  0  0  0  0  0  0  0  0
   -0.6729   -7.3222   -3.3262 C   0  0  0  0  0  0  0  0  0  0  0  0
   -2.1712   -7.6165   -3.6430 C   0  0  0  0  0  0  0  0  0  0  0  0
   -3.0631   -6.8690   -2.6746 C   0  0  0  0  0  0  0  0  0  0  0  0
   -2.9345   -5.5744   -2.9614 C   0  0  0  0  0  0  0  0  0  0  0  0
   -1.9609   -5.4848   -4.1122 C   0  0  0  0  0  0  0  0  0  0  0  0
   -2.3572   -6.7385   -4.8649 C   0  0  0  0  0  0  0  0  0  0  0  0
   -0.5341   -5.8951   -3.6345 C   0  0  0  0  0  0  0  0  0  0  0  0
   -1.6861    8.1287   -3.9743 H   0  0  0  0  0  0  0  0  0  0  0  0
    0.1828    4.0582   -8.3134 H   0  0  0  0  0  0  0  0  0  0  0  0
   -3.4293    7.5920   -9.0534 H   0  0  0  0  0  0  0  0  0  0  0  0
   -3.0410    5.4692  -11.8424 H   0  0  0  0  0  0  0  0  0  0  0  0
   -5.3054    4.6684  -10.9031 H   0  0  0  0  0  0  0  0  0  0  0  0
   -5.0981    4.1800   -8.2973 H   0  0  0  0  0  0  0  0  0  0  0  0
   -3.2296    2.3906   -7.9558 H   0  0  0  0  0  0  0  0  0  0  0  0
   -2.2532    1.7382  -10.3409 H   0  0  0  0  0  0  0  0  0  0  0  0
   -4.8145    2.0756  -10.9233 H   0  0  0  0  0  0  0  0  0  0  0  0
   -3.7996    2.8834  -12.1994 H   0  0  0  0  0  0  0  0  0  0  0  0
   -1.3446    3.8446  -11.5227 H   0  0  0  0  0  0  0  0  0  0  0  0
   -3.4311   -0.7529    0.6750 H   0  0  0  0  0  0  0  0  0  0  0  0
   -2.7252   -0.7735    2.3124 H   0  0  0  0  0  0  0  0  0  0  0  0
   -4.9310   -0.3958    2.8846 H   0  0  0  0  0  0  0  0  0  0  0  0
   -5.3256    0.4935    1.3914 H   0  0  0  0  0  0  0  0  0  0  0  0
   -4.4275    1.3243    2.7148 H   0  0  0  0  0  0  0  0  0  0  0  0
   -3.5837    2.1834   -1.6870 H   0  0  0  0  0  0  0  0  0  0  0  0
   -4.3620    0.9955   -0.6259 H   0  0  0  0  0  0  0  0  0  0  0  0
   -5.1006    2.9119    0.9012 H   0  0  0  0  0  0  0  0  0  0  0  0
   -4.2986    4.0696   -0.2358 H   0  0  0  0  0  0  0  0  0  0  0  0
   -5.7047    3.0855   -0.7906 H   0  0  0  0  0  0  0  0  0  0  0  0
   -0.1258   -0.7754    6.8731 H   0  0  0  0  0  0  0  0  0  0  0  0
   -2.1179   -1.6588    8.0418 H   0  0  0  0  0  0  0  0  0  0  0  0
   -5.9974   -3.3320    6.9118 H   0  0  0  0  0  0  0  0  0  0  0  0
   -4.2046   -3.3442    6.6484 H   0  0  0  0  0  0  0  0  0  0  0  0
   -5.2847   -2.4386    5.5086 H   0  0  0  0  0  0  0  0  0  0  0  0
   -4.6582    0.5273    5.3355 H   0  0  0  0  0  0  0  0  0  0  0  0
   -2.6587    1.3831    4.1639 H   0  0  0  0  0  0  0  0  0  0  0  0
    2.0421    1.1756    6.3185 H   0  0  0  0  0  0  0  0  0  0  0  0
    2.8260    3.2531    7.3981 H   0  0  0  0  0  0  0  0  0  0  0  0
    1.1730    4.7421    9.3699 H   0  0  0  0  0  0  0  0  0  0  0  0
   -0.2508    5.5783    8.6099 H   0  0  0  0  0  0  0  0  0  0  0  0
    0.9547    6.5208    9.5690 H   0  0  0  0  0  0  0  0  0  0  0  0
   -0.4044    5.4272    5.5590 H   0  0  0  0  0  0  0  0  0  0  0  0
   -1.1972    3.3471    4.4867 H   0  0  0  0  0  0  0  0  0  0  0  0
    6.1247   -2.7404    1.5418 H   0  0  0  0  0  0  0  0  0  0  0  0
    8.0695   -1.4128    2.2852 H   0  0  0  0  0  0  0  0  0  0  0  0
    6.9223    1.5154    5.0435 H   0  0  0  0  0  0  0  0  0  0  0  0
    7.7029    1.5845    3.4089 H   0  0  0  0  0  0  0  0  0  0  0  0
    8.5440    2.2789    4.8491 H   0  0  0  0  0  0  0  0  0  0  0  0
    6.3057   -0.9998    6.1924 H   0  0  0  0  0  0  0  0  0  0  0  0
    4.3726   -2.3363    5.4632 H   0  0  0  0  0  0  0  0  0  0  0  0
    4.7006   -5.6116    4.2162 H   0  0  0  0  0  0  0  0  0  0  0  0
    5.1240   -7.7956    3.1426 H   0  0  0  0  0  0  0  0  0  0  0  0
    3.0491   -9.3808    1.6670 H   0  0  0  0  0  0  0  0  0  0  0  0
    2.5701   -8.6852    0.0579 H   0  0  0  0  0  0  0  0  0  0  0  0
    3.2605  -10.3545    0.1640 H   0  0  0  0  0  0  0  0  0  0  0  0
    4.0336   -6.1301   -0.6760 H   0  0  0  0  0  0  0  0  0  0  0  0
    3.6202   -3.9393    0.3981 H   0  0  0  0  0  0  0  0  0  0  0  0
    1.2668   -5.7124    4.4075 H   0  0  0  0  0  0  0  0  0  0  0  0
    0.2180   -3.6352   -1.4889 H   0  0  0  0  0  0  0  0  0  0  0  0
   -0.1581   -8.6188   -0.4778 H   0  0  0  0  0  0  0  0  0  0  0  0
    0.0558   -7.9681   -3.8583 H   0  0  0  0  0  0  0  0  0  0  0  0
   -2.4220   -8.6893   -3.7813 H   0  0  0  0  0  0  0  0  0  0  0  0
   -3.7413   -7.2946   -1.9454 H   0  0  0  0  0  0  0  0  0  0  0  0
   -3.4870   -4.7646   -2.5006 H   0  0  0  0  0  0  0  0  0  0  0  0
   -2.0093   -4.5389   -4.6947 H   0  0  0  0  0  0  0  0  0  0  0  0
   -3.4083   -6.7121   -5.2352 H   0  0  0  0  0  0  0  0  0  0  0  0
   -1.6720   -6.9909   -5.7058 H   0  0  0  0  0  0  0  0  0  0  0  0
    0.2872   -5.6683   -4.3510 H   0  0  0  0  0  0  0  0  0  0  0  0
  1  2  2  3
  2  3  1  0
  3  4  2  0
  3  5  1  0
  5  6  2  0
  6  7  1  0
  7  8  2  0
  8  9  1  0
  9 10  2  0
 10 11  1  0
 11 12  2  3
 12 13  1  0
 13 14  3  0
 12 15  1  0
 15 16  3  0
  8 17  1  0
 17 18  1  0
 18 19  1  0
 19 20  2  0
 20 21  1  0
 21 22  1  0
 21 23  1  0
  1 24  1  0
 24 25  2  0
 25 26  1  0
 26 27  1  0
 27 28  2  0
 28 29  2  0
 26 30  2  0
 30 31  1  0
 31 32  2  0
 32 33  1  0
 33 34  1  0
 34 35  2  0
 30 36  1  0
 36 37  2  0
 37 38  1  0
 37 39  1  0
 39 40  1  0
 39 41  2  0
 41 42  1  0
 42 43  2  0
 43 44  1  0
 44 45  1  0
 45 46  1  0
 44 47  2  0
 47 48  1  0
 48 49  2  0
 47 50  1  0
 50 51  1  0
 41 52  1  0
 52 53  2  0
 53 54  1  0
 54 55  1  0
 55 56  2  0
 56 57  1  0
 57 58  2  0
 58 59  1  0
 59 60  1  0
 58 61  1  0
 61 62  2  0
 54 63  1  0
 63 64  2  0
 64 65  1  0
 65 66  2  0
 66 67  1  0
 67 68  1  0
 66 69  1  0
 69 70  2  0
 53 71  1  0
 71 72  1  0
 72 73  1  0
 73 74  2  0
 74 75  1  0
 75 76  1  0
 76 77  2  0
 77 78  1  0
 78 79  2  0
 79 80  1  0
 80 81  1  0
 79 82  1  0
 82 83  2  0
 75 84  1  0
 84 85  2  0
 85 86  1  0
 86 87  2  0
 87 88  1  0
 88 89  1  0
 87 90  1  0
 90 91  2  0
 74 92  1  0
 92 93  1  0
 73 94  1  0
 94 95  2  3
 95 96  1  0
 96 97  2  0
 96 98  1  0
 98 99  2  0
 99100  1  0
100101  2  0
101102  1  0
102103  2  0
103104  1  0
104105  2  3
105106  1  0
106107  3  0
105108  1  0
108109  3  0
101110  1  0
110111  1  0
111112  1  0
112113  2  0
113114  1  0
114115  1  0
114116  1  0
 11  2  1  0
 23 17  1  0
 35 24  1  0
 49 36  1  0
 93 52  1  0
104 95  1  0
116110  1  0
 10  5  1  0
 22 18  1  0
 29 25  1  0
 35 31  1  0
 49 42  1  0
 62 55  1  0
 70 63  1  0
 92 71  2  0
103 98  1  0
115111  1  0
 23  7  1  0
 83 76  1  0
 91 84  1  0
116100  1  0
  1117  1  0
  6118  1  0
  9119  1  0
 17120  1  0
 18121  1  0
 19122  1  0
 20123  1  0
 21124  1  0
 22125  1  0
 22126  1  0
 23127  1  0
 45128  1  0
 45129  1  0
 46130  1  0
 46131  1  0
 46132  1  0
 50133  1  0
 50134  1  0
 51135  1  0
 51136  1  0
 51137  1  0
 56138  1  0
 57139  1  0
 60140  1  0
 60141  1  0
 60142  1  0
 61143  1  0
 62144  1  0
 64145  1  0
 65146  1  0
 68147  1  0
 68148  1  0
 68149  1  0
 69150  1  0
 70151  1  0
 77152  1  0
 78153  1  0
 81154  1  0
 81155  1  0
 81156  1  0
 82157  1  0
 83158  1  0
 85159  1  0
 86160  1  0
 89161  1  0
 89162  1  0
 89163  1  0
 90164  1  0
 91165  1  0
 94166  1  0
 99167  1  0
102168  1  0
110169  1  0
111170  1  0
112171  1  0
113172  1  0
114173  1  0
115174  1  0
115175  1  0
116176  1  0
M  END

