
     RDKit          3D

233256  0  0  0  0  0  0  0  0999 V2000
   -5.8302    0.8675   -4.3303 C   0  0  0  0  0  0  0  0  0  0  0  0
   -5.0914    0.0271   -5.0921 C   0  0  0  0  0  0  0  0  0  0  0  0
   -3.6425   -0.1412   -4.9417 C   0  0  0  0  0  0  0  0  0  0  0  0
   -2.8418    0.7254   -4.4996 O   0  0  0  0  0  0  0  0  0  0  0  0
   -3.2563   -1.4133   -5.4933 C   0  0  0  0  0  0  0  0  0  0  0  0
   -1.9766   -2.0044   -5.4332 C   0  0  0  0  0  0  0  0  0  0  0  0
   -1.8697   -3.1793   -6.1445 C   0  0  0  0  0  0  0  0  0  0  0  0
   -2.9554   -3.7448   -6.8851 C   0  0  0  0  0  0  0  0  0  0  0  0
   -4.2263   -3.1892   -6.9135 C   0  0  0  0  0  0  0  0  0  0  0  0
   -4.3719   -1.9944   -6.1487 C   0  0  0  0  0  0  0  0  0  0  0  0
   -5.5672   -1.1138   -5.9438 C   0  0  0  0  0  0  0  0  0  0  0  0
   -6.8302   -1.3352   -6.3923 C   0  0  0  0  0  0  0  0  0  0  0  0
   -7.8625   -0.3378   -6.3217 C   0  0  0  0  0  0  0  0  0  0  0  0
   -8.7056    0.4554   -6.2775 N   0  0  0  0  0  0  0  0  0  0  0  0
   -7.2364   -2.5860   -6.9693 C   0  0  0  0  0  0  0  0  0  0  0  0
   -7.5781   -3.6021   -7.4134 N   0  0  0  0  0  0  0  0  0  0  0  0
   -2.0602   -4.8337   -7.3935 C   0  0  0  0  0  0  0  0  0  0  0  0
   -1.5476   -4.6963   -8.8595 C   0  0  0  0  0  0  0  0  0  0  0  0
   -0.4069   -5.6759   -8.9904 C   0  0  0  0  0  0  0  0  0  0  0  0
    0.5976   -5.1930   -8.2518 C   0  0  0  0  0  0  0  0  0  0  0  0
    0.1074   -3.8925   -7.6628 C   0  0  0  0  0  0  0  0  0  0  0  0
   -0.7388   -3.4115   -8.8281 C   0  0  0  0  0  0  0  0  0  0  0  0
   -0.9592   -4.2792   -6.5983 C   0  0  0  0  0  0  0  0  0  0  0  0
   -5.2301    1.5629   -3.1787 C   0  0  0  0  0  0  0  0  0  0  0  0
   -4.6537    0.9044   -2.0749 C   0  0  0  0  0  0  0  0  0  0  0  0
   -5.0062   -0.4402   -1.6808 N   0  0  0  0  0  0  0  0  0  0  0  0
   -6.3854   -0.8352   -1.8426 C   0  0  0  0  0  0  0  0  0  0  0  0
   -6.7141   -1.9640   -2.6143 C   0  0  0  0  0  0  0  0  0  0  0  0
   -8.0523   -2.2909   -2.8499 C   0  0  0  0  0  0  0  0  0  0  0  0
   -9.0722   -1.4948   -2.3168 C   0  0  0  0  0  0  0  0  0  0  0  0
  -10.7842   -1.9126   -2.6352 S   0  0  0  0  0  0  0  0  0  0  0  0
  -10.9507   -2.9099   -1.1200 C   0  0  0  0  0  0  0  0  0  0  0  0
   -8.7526   -0.3727   -1.5464 C   0  0  0  0  0  0  0  0  0  0  0  0
   -7.4164   -0.0441   -1.3083 C   0  0  0  0  0  0  0  0  0  0  0  0
   -4.0228   -1.4316   -1.3049 C   0  0  0  0  0  0  0  0  0  0  0  0
   -4.4030   -2.5305   -0.5078 C   0  0  0  0  0  0  0  0  0  0  0  0
   -3.5400   -3.6111   -0.3235 C   0  0  0  0  0  0  0  0  0  0  0  0
   -2.2683   -3.5946   -0.9008 C   0  0  0  0  0  0  0  0  0  0  0  0
   -1.2096   -5.0335   -0.7548 S   0  0  0  0  0  0  0  0  0  0  0  0
   -0.5842   -4.5467    0.8787 C   0  0  0  0  0  0  0  0  0  0  0  0
   -1.8418   -2.4723   -1.6204 C   0  0  0  0  0  0  0  0  0  0  0  0
   -2.7117   -1.3950   -1.8176 C   0  0  0  0  0  0  0  0  0  0  0  0
   -3.8273    1.7698   -1.3609 C   0  0  0  0  0  0  0  0  0  0  0  0
   -2.7772    1.6112   -0.0688 S   0  0  0  0  0  0  0  0  0  0  0  0
   -2.2636    3.2408   -0.1036 C   0  0  0  0  0  0  0  0  0  0  0  0
   -2.9460    3.9151   -1.1307 C   0  0  0  0  0  0  0  0  0  0  0  0
   -3.0960    5.3450   -1.1765 N   0  0  0  0  0  0  0  0  0  0  0  0
   -3.5537    5.9798    0.0341 C   0  0  0  0  0  0  0  0  0  0  0  0
   -4.7001    5.4964    0.6856 C   0  0  0  0  0  0  0  0  0  0  0  0
   -5.0976    6.0350    1.9089 C   0  0  0  0  0  0  0  0  0  0  0  0
   -4.3394    7.0470    2.5066 C   0  0  0  0  0  0  0  0  0  0  0  0
   -4.7985    7.6675    4.1258 S   0  0  0  0  0  0  0  0  0  0  0  0
   -3.9587    6.3124    5.0052 C   0  0  0  0  0  0  0  0  0  0  0  0
   -3.2142    7.5568    1.8479 C   0  0  0  0  0  0  0  0  0  0  0  0
   -2.8307    7.0365    0.6077 C   0  0  0  0  0  0  0  0  0  0  0  0
   -3.1793    6.0296   -2.4493 C   0  0  0  0  0  0  0  0  0  0  0  0
   -2.3875    5.6048   -3.5316 C   0  0  0  0  0  0  0  0  0  0  0  0
   -2.5078    6.2100   -4.7840 C   0  0  0  0  0  0  0  0  0  0  0  0
   -3.4201    7.2522   -4.9733 C   0  0  0  0  0  0  0  0  0  0  0  0
   -3.5922    8.0046   -6.5921 S   0  0  0  0  0  0  0  0  0  0  0  0
   -2.3974    9.3328   -6.2428 C   0  0  0  0  0  0  0  0  0  0  0  0
   -4.2039    7.6949   -3.9048 C   0  0  0  0  0  0  0  0  0  0  0  0
   -4.0849    7.0931   -2.6473 C   0  0  0  0  0  0  0  0  0  0  0  0
   -3.7882    3.0454   -1.8260 C   0  0  0  0  0  0  0  0  0  0  0  0
   -4.7665    3.1980   -3.1856 S   0  0  0  0  0  0  0  0  0  0  0  0
   -0.9836    3.6553    0.4950 C   0  0  0  0  0  0  0  0  0  0  0  0
    0.2191    3.4568   -0.2036 C   0  0  0  0  0  0  0  0  0  0  0  0
    0.4622    3.9059   -1.5466 N   0  0  0  0  0  0  0  0  0  0  0  0
    1.1118    5.1903   -1.6203 C   0  0  0  0  0  0  0  0  0  0  0  0
    2.5130    5.2811   -1.7131 C   0  0  0  0  0  0  0  0  0  0  0  0
    3.1460    6.5269   -1.6135 C   0  0  0  0  0  0  0  0  0  0  0  0
    2.3873    7.6872   -1.4167 C   0  0  0  0  0  0  0  0  0  0  0  0
    3.2046    9.2671   -1.1699 S   0  0  0  0  0  0  0  0  0  0  0  0
    3.0723    9.7702   -2.9123 C   0  0  0  0  0  0  0  0  0  0  0  0
    0.9927    7.6036   -1.3499 C   0  0  0  0  0  0  0  0  0  0  0  0
    0.3635    6.3601   -1.4504 C   0  0  0  0  0  0  0  0  0  0  0  0
    0.5502    2.9700   -2.6530 C   0  0  0  0  0  0  0  0  0  0  0  0
    0.2225    1.6099   -2.4857 C   0  0  0  0  0  0  0  0  0  0  0  0
    0.4094    0.6968   -3.5280 C   0  0  0  0  0  0  0  0  0  0  0  0
    0.9234    1.1225   -4.7558 C   0  0  0  0  0  0  0  0  0  0  0  0
    1.2929   -0.0698   -6.0483 S   0  0  0  0  0  0  0  0  0  0  0  0
   -0.1450    0.3655   -7.0722 C   0  0  0  0  0  0  0  0  0  0  0  0
    1.2029    2.4773   -4.9540 C   0  0  0  0  0  0  0  0  0  0  0  0
    1.0045    3.3955   -3.9209 C   0  0  0  0  0  0  0  0  0  0  0  0
    1.2603    3.0941    0.6397 C   0  0  0  0  0  0  0  0  0  0  0  0
    2.5772    2.1093    0.3483 S   0  0  0  0  0  0  0  0  0  0  0  0
    2.8534    1.7481    1.9869 C   0  0  0  0  0  0  0  0  0  0  0  0
    1.9415    2.4785    2.7863 C   0  0  0  0  0  0  0  0  0  0  0  0
    2.2062    2.8739    4.1647 N   0  0  0  0  0  0  0  0  0  0  0  0
    3.5287    2.7051    4.7294 C   0  0  0  0  0  0  0  0  0  0  0  0
    4.6783    3.0383    3.9855 C   0  0  0  0  0  0  0  0  0  0  0  0
    5.9532    2.7688    4.4902 C   0  0  0  0  0  0  0  0  0  0  0  0
    6.0961    2.2216    5.7684 C   0  0  0  0  0  0  0  0  0  0  0  0
    7.7243    1.7834    6.3767 S   0  0  0  0  0  0  0  0  0  0  0  0
    7.5895    0.0529    5.8196 C   0  0  0  0  0  0  0  0  0  0  0  0
    4.9668    1.9999    6.5621 C   0  0  0  0  0  0  0  0  0  0  0  0
    3.6891    2.2505    6.0504 C   0  0  0  0  0  0  0  0  0  0  0  0
    1.4015    3.9048    4.7666 C   0  0  0  0  0  0  0  0  0  0  0  0
    1.4374    5.2104    4.2508 C   0  0  0  0  0  0  0  0  0  0  0  0
    0.6949    6.2289    4.8523 C   0  0  0  0  0  0  0  0  0  0  0  0
   -0.0544    5.9598    6.0016 C   0  0  0  0  0  0  0  0  0  0  0  0
   -0.9441    7.2878    6.8206 S   0  0  0  0  0  0  0  0  0  0  0  0
    0.5056    7.8294    7.7790 C   0  0  0  0  0  0  0  0  0  0  0  0
   -0.1001    4.6607    6.5173 C   0  0  0  0  0  0  0  0  0  0  0  0
    0.6199    3.6320    5.8976 C   0  0  0  0  0  0  0  0  0  0  0  0
    0.9974    3.1195    1.9679 C   0  0  0  0  0  0  0  0  0  0  0  0
   -0.6477    3.4253    2.1555 S   0  0  0  0  0  0  0  0  0  0  0  0
    3.5724    0.5122    2.3847 C   0  0  0  0  0  0  0  0  0  0  0  0
    4.7863    0.1809    1.7784 C   0  0  0  0  0  0  0  0  0  0  0  0
    5.2745   -1.0850    1.7653 C   0  0  0  0  0  0  0  0  0  0  0  0
    6.3389   -1.1215    0.9483 N   0  0  0  0  0  0  0  0  0  0  0  0
    6.4682    0.1089    0.5214 O   0  0  0  0  0  0  0  0  0  0  0  0
    5.5546    0.9330    0.9747 N   0  0  0  0  0  0  0  0  0  0  0  0
    4.6141   -2.1485    2.3706 C   0  0  0  0  0  0  0  0  0  0  0  0
    3.4553   -1.8418    3.1225 C   0  0  0  0  0  0  0  0  0  0  0  0
    2.8029   -2.8807    3.7940 O   0  0  0  0  0  0  0  0  0  0  0  0
    1.6271   -3.4914    3.2808 C   0  0  0  0  0  0  0  0  0  0  0  0
    1.0778   -4.4779    4.3015 C   0  0  0  0  0  0  0  0  0  0  0  0
    2.9147   -0.5163    3.1165 C   0  0  0  0  0  0  0  0  0  0  0  0
    1.6674   -0.2536    3.6975 O   0  0  0  0  0  0  0  0  0  0  0  0
    1.3584   -0.4797    5.0735 C   0  0  0  0  0  0  0  0  0  0  0  0
   -0.1311   -0.2731    5.2936 C   0  0  0  0  0  0  0  0  0  0  0  0
    4.7902   -3.5149    1.8441 C   0  0  0  0  0  0  0  0  0  0  0  0
    5.3936   -4.5224    2.4890 C   0  0  0  0  0  0  0  0  0  0  0  0
    6.3368   -4.3636    3.5999 C   0  0  0  0  0  0  0  0  0  0  0  0
    6.5210   -3.3162    4.2790 O   0  0  0  0  0  0  0  0  0  0  0  0
    7.0891   -5.5952    3.7413 C   0  0  0  0  0  0  0  0  0  0  0  0
    8.2515   -5.8014    4.5258 C   0  0  0  0  0  0  0  0  0  0  0  0
    8.8546   -7.0315    4.3197 C   0  0  0  0  0  0  0  0  0  0  0  0
    8.3346   -8.0133    3.4179 C   0  0  0  0  0  0  0  0  0  0  0  0
    7.2140   -7.8135    2.6377 C   0  0  0  0  0  0  0  0  0  0  0  0
    6.5823   -6.5536    2.8223 C   0  0  0  0  0  0  0  0  0  0  0  0
    5.4587   -5.9551    2.0556 C   0  0  0  0  0  0  0  0  0  0  0  0
    4.5523   -6.6256    1.2874 C   0  0  0  0  0  0  0  0  0  0  0  0
    3.4357   -5.9835    0.6432 C   0  0  0  0  0  0  0  0  0  0  0  0
    2.5406   -5.4860    0.1036 N   0  0  0  0  0  0  0  0  0  0  0  0
    4.5696   -8.0578    1.1462 C   0  0  0  0  0  0  0  0  0  0  0  0
    4.5635   -9.2088    1.0299 N   0  0  0  0  0  0  0  0  0  0  0  0
    9.4828   -8.9292    3.7208 C   0  0  0  0  0  0  0  0  0  0  0  0
   10.5780   -9.0974    2.6227 C   0  0  0  0  0  0  0  0  0  0  0  0
   10.6659   -7.8415    1.7912 C   0  0  0  0  0  0  0  0  0  0  0  0
   11.1584   -6.8944    2.5911 C   0  0  0  0  0  0  0  0  0  0  0  0
   11.3950   -7.5419    3.9359 C   0  0  0  0  0  0  0  0  0  0  0  0
   11.8283   -8.9169    3.4640 C   0  0  0  0  0  0  0  0  0  0  0  0
   10.0371   -7.9068    4.6126 C   0  0  0  0  0  0  0  0  0  0  0  0
   -6.9039    0.8871   -4.3797 H   0  0  0  0  0  0  0  0  0  0  0  0
   -1.1416   -1.5602   -4.9130 H   0  0  0  0  0  0  0  0  0  0  0  0
   -4.9985   -3.6381   -7.5097 H   0  0  0  0  0  0  0  0  0  0  0  0
   -2.3815   -5.8542   -7.0883 H   0  0  0  0  0  0  0  0  0  0  0  0
   -2.3227   -4.7620   -9.6519 H   0  0  0  0  0  0  0  0  0  0  0  0
   -0.3715   -6.5580   -9.6165 H   0  0  0  0  0  0  0  0  0  0  0  0
    1.5887   -5.6216   -8.1690 H   0  0  0  0  0  0  0  0  0  0  0  0
    0.9008   -3.1951   -7.3167 H   0  0  0  0  0  0  0  0  0  0  0  0
   -0.1468   -3.2316   -9.7544 H   0  0  0  0  0  0  0  0  0  0  0  0
   -1.3409   -2.5033   -8.6140 H   0  0  0  0  0  0  0  0  0  0  0  0
   -0.6043   -4.9319   -5.7681 H   0  0  0  0  0  0  0  0  0  0  0  0
   -5.9345   -2.5729   -3.0571 H   0  0  0  0  0  0  0  0  0  0  0  0
   -8.2947   -3.1585   -3.4529 H   0  0  0  0  0  0  0  0  0  0  0  0
  -11.9296   -3.4312   -1.1356 H   0  0  0  0  0  0  0  0  0  0  0  0
  -10.9070   -2.2509   -0.2277 H   0  0  0  0  0  0  0  0  0  0  0  0
  -10.1431   -3.6701   -1.0653 H   0  0  0  0  0  0  0  0  0  0  0  0
   -9.5375    0.2462   -1.1341 H   0  0  0  0  0  0  0  0  0  0  0  0
   -7.1836    0.8342   -0.7214 H   0  0  0  0  0  0  0  0  0  0  0  0
   -5.3917   -2.5761   -0.0694 H   0  0  0  0  0  0  0  0  0  0  0  0
   -3.8688   -4.4686    0.2511 H   0  0  0  0  0  0  0  0  0  0  0  0
   -0.0258   -3.5916    0.7921 H   0  0  0  0  0  0  0  0  0  0  0  0
   -1.4190   -4.4333    1.6005 H   0  0  0  0  0  0  0  0  0  0  0  0
    0.0911   -5.3414    1.2463 H   0  0  0  0  0  0  0  0  0  0  0  0
   -0.8526   -2.4476   -2.0591 H   0  0  0  0  0  0  0  0  0  0  0  0
   -2.3735   -0.5592   -2.4068 H   0  0  0  0  0  0  0  0  0  0  0  0
   -5.2772    4.6914    0.2493 H   0  0  0  0  0  0  0  0  0  0  0  0
   -5.9743    5.6432    2.4093 H   0  0  0  0  0  0  0  0  0  0  0  0
   -2.8857    6.2840    4.7283 H   0  0  0  0  0  0  0  0  0  0  0  0
   -4.4302    5.3423    4.7475 H   0  0  0  0  0  0  0  0  0  0  0  0
   -4.0518    6.4750    6.0967 H   0  0  0  0  0  0  0  0  0  0  0  0
   -2.6282    8.3497    2.2992 H   0  0  0  0  0  0  0  0  0  0  0  0
   -1.9577    7.4410    0.1176 H   0  0  0  0  0  0  0  0  0  0  0  0
   -1.6823    4.7928   -3.4093 H   0  0  0  0  0  0  0  0  0  0  0  0
   -1.8951    5.8641   -5.6062 H   0  0  0  0  0  0  0  0  0  0  0  0
   -2.8374   10.0514   -5.5205 H   0  0  0  0  0  0  0  0  0  0  0  0
   -2.1675    9.8710   -7.1861 H   0  0  0  0  0  0  0  0  0  0  0  0
   -1.4576    8.9138   -5.8277 H   0  0  0  0  0  0  0  0  0  0  0  0
   -4.9075    8.5039   -4.0480 H   0  0  0  0  0  0  0  0  0  0  0  0
   -4.7183    7.4385   -1.8427 H   0  0  0  0  0  0  0  0  0  0  0  0
    3.1131    4.3874   -1.8170 H   0  0  0  0  0  0  0  0  0  0  0  0
    4.2264    6.5865   -1.6523 H   0  0  0  0  0  0  0  0  0  0  0  0
    3.6420   10.7118   -3.0567 H   0  0  0  0  0  0  0  0  0  0  0  0
    2.0081    9.9519   -3.1711 H   0  0  0  0  0  0  0  0  0  0  0  0
    3.4911    8.9863   -3.5771 H   0  0  0  0  0  0  0  0  0  0  0  0
    0.3997    8.4965   -1.1989 H   0  0  0  0  0  0  0  0  0  0  0  0
   -0.7025    6.2974   -1.3729 H   0  0  0  0  0  0  0  0  0  0  0  0
   -0.1469    1.2383   -1.5403 H   0  0  0  0  0  0  0  0  0  0  0  0
    0.1969   -0.3494   -3.3574 H   0  0  0  0  0  0  0  0  0  0  0  0
   -0.2989   -0.4228   -7.8376 H   0  0  0  0  0  0  0  0  0  0  0  0
   -1.0599    0.4531   -6.4576 H   0  0  0  0  0  0  0  0  0  0  0  0
    0.0430    1.3302   -7.5875 H   0  0  0  0  0  0  0  0  0  0  0  0
    1.5873    2.8198   -5.9056 H   0  0  0  0  0  0  0  0  0  0  0  0
    1.2360    4.4330   -4.1091 H   0  0  0  0  0  0  0  0  0  0  0  0
    4.5919    3.4831    3.0010 H   0  0  0  0  0  0  0  0  0  0  0  0
    6.8246    2.9692    3.8821 H   0  0  0  0  0  0  0  0  0  0  0  0
    8.5874   -0.4256    5.8674 H   0  0  0  0  0  0  0  0  0  0  0  0
    7.2205   -0.0021    4.7725 H   0  0  0  0  0  0  0  0  0  0  0  0
    6.8940   -0.4966    6.4875 H   0  0  0  0  0  0  0  0  0  0  0  0
    5.0737    1.6091    7.5661 H   0  0  0  0  0  0  0  0  0  0  0  0
    2.8334    2.0694    6.6803 H   0  0  0  0  0  0  0  0  0  0  0  0
    2.0468    5.4376    3.3851 H   0  0  0  0  0  0  0  0  0  0  0  0
    0.7257    7.2304    4.4445 H   0  0  0  0  0  0  0  0  0  0  0  0
    0.9098    6.9877    8.3792 H   0  0  0  0  0  0  0  0  0  0  0  0
    1.2901    8.2102    7.0918 H   0  0  0  0  0  0  0  0  0  0  0  0
    0.2025    8.6482    8.4652 H   0  0  0  0  0  0  0  0  0  0  0  0
   -0.6846    4.4453    7.4040 H   0  0  0  0  0  0  0  0  0  0  0  0
    0.5798    2.6333    6.3104 H   0  0  0  0  0  0  0  0  0  0  0  0
    1.8785   -4.0296    2.3453 H   0  0  0  0  0  0  0  0  0  0  0  0
    0.8546   -2.7263    3.0564 H   0  0  0  0  0  0  0  0  0  0  0  0
    0.2254   -5.0382    3.8627 H   0  0  0  0  0  0  0  0  0  0  0  0
    1.8673   -5.1995    4.5945 H   0  0  0  0  0  0  0  0  0  0  0  0
    0.7293   -3.9356    5.2037 H   0  0  0  0  0  0  0  0  0  0  0  0
    1.9179    0.2336    5.7050 H   0  0  0  0  0  0  0  0  0  0  0  0
    1.6330   -1.5049    5.3868 H   0  0  0  0  0  0  0  0  0  0  0  0
   -0.3801   -0.4846    6.3558 H   0  0  0  0  0  0  0  0  0  0  0  0
   -0.4100    0.7758    5.0630 H   0  0  0  0  0  0  0  0  0  0  0  0
   -0.7127   -0.9601    4.6447 H   0  0  0  0  0  0  0  0  0  0  0  0
    4.3345   -3.6813    0.8824 H   0  0  0  0  0  0  0  0  0  0  0  0
    8.6710   -5.0479    5.1778 H   0  0  0  0  0  0  0  0  0  0  0  0
    6.9314   -8.5395    1.8931 H   0  0  0  0  0  0  0  0  0  0  0  0
    9.1880   -9.8672    4.2409 H   0  0  0  0  0  0  0  0  0  0  0  0
   10.5213  -10.0433    2.0426 H   0  0  0  0  0  0  0  0  0  0  0  0
   10.4293   -7.7326    0.7407 H   0  0  0  0  0  0  0  0  0  0  0  0
   11.3966   -5.8790    2.2961 H   0  0  0  0  0  0  0  0  0  0  0  0
   12.1228   -7.0152    4.5856 H   0  0  0  0  0  0  0  0  0  0  0  0
   11.9238   -9.6635    4.2853 H   0  0  0  0  0  0  0  0  0  0  0  0
   12.7668   -8.9059    2.8594 H   0  0  0  0  0  0  0  0  0  0  0  0
   10.1114   -8.2310    5.6753 H   0  0  0  0  0  0  0  0  0  0  0  0
  1  2  2  3
  2  3  1  0
  3  4  2  0
  3  5  1  0
  5  6  2  0
  6  7  1  0
  7  8  2  0
  8  9  1  0
  9 10  2  0
 10 11  1  0
 11 12  2  3
 12 13  1  0
 13 14  3  0
 12 15  1  0
 15 16  3  0
  8 17  1  0
 17 18  1  0
 18 19  1  0
 19 20  2  0
 20 21  1  0
 21 22  1  0
 21 23  1  0
  1 24  1  0
 24 25  2  0
 25 26  1  0
 26 27  1  0
 27 28  2  0
 28 29  1  0
 29 30  2  0
 30 31  1  0
 31 32  1  0
 30 33  1  0
 33 34  2  0
 26 35  1  0
 35 36  2  0
 36 37  1  0
 37 38  2  0
 38 39  1  0
 39 40  1  0
 38 41  1  0
 41 42  2  0
 25 43  1  0
 43 44  1  0
 44 45  1  0
 45 46  2  0
 46 47  1  0
 47 48  1  0
 48 49  2  0
 49 50  1  0
 50 51  2  0
 51 52  1  0
 52 53  1  0
 51 54  1  0
 54 55  2  0
 47 56  1  0
 56 57  2  0
 57 58  1  0
 58 59  2  0
 59 60  1  0
 60 61  1  0
 59 62  1  0
 62 63  2  0
 46 64  1  0
 64 65  1  0
 45 66  1  0
 66 67  2  0
 67 68  1  0
 68 69  1  0
 69 70  2  0
 70 71  1  0
 71 72  2  0
 72 73  1  0
 73 74  1  0
 72 75  1  0
 75 76  2  0
 68 77  1  0
 77 78  2  0
 78 79  1  0
 79 80  2  0
 80 81  1  0
 81 82  1  0
 80 83  1  0
 83 84  2  0
 67 85  1  0
 85 86  1  0
 86 87  1  0
 87 88  2  0
 88 89  1  0
 89 90  1  0
 90 91  2  0
 91 92  1  0
 92 93  2  0
 93 94  1  0
 94 95  1  0
 93 96  1  0
 96 97  2  0
 89 98  1  0
 98 99  2  0
 99100  1  0
100101  2  0
101102  1  0
102103  1  0
101104  1  0
104105  2  0
 88106  1  0
106107  1  0
 87108  1  0
108109  1  0
109110  1  0
110111  2  0
111112  1  0
112113  1  0
110114  1  0
114115  2  0
115116  1  0
116117  1  0
117118  1  0
115119  1  0
119120  1  0
120121  1  0
121122  1  0
114123  1  0
123124  2  3
124125  1  0
125126  2  0
125127  1  0
127128  2  0
128129  1  0
129130  2  0
130131  1  0
131132  2  0
132133  1  0
133134  2  3
134135  1  0
135136  3  0
134137  1  0
137138  3  0
130139  1  0
139140  1  0
140141  1  0
141142  2  0
142143  1  0
143144  1  0
143145  1  0
 11  2  1  0
 23 17  1  0
 65 24  1  0
107 66  1  0
119108  2  0
133124  1  0
145139  1  0
 10  5  1  0
 22 18  1  0
 34 27  1  0
 42 35  1  0
 64 43  2  0
 76 69  1  0
 84 77  1  0
106 85  2  0
113109  2  0
132127  1  0
144140  1  0
 23  7  1  0
 55 48  1  0
 63 56  1  0
 97 90  1  0
105 98  1  0
145129  1  0
  1146  1  0
  6147  1  0
  9148  1  0
 17149  1  0
 18150  1  0
 19151  1  0
 20152  1  0
 21153  1  0
 22154  1  0
 22155  1  0
 23156  1  0
 28157  1  0
 29158  1  0
 32159  1  0
 32160  1  0
 32161  1  0
 33162  1  0
 34163  1  0
 36164  1  0
 37165  1  0
 40166  1  0
 40167  1  0
 40168  1  0
 41169  1  0
 42170  1  0
 49171  1  0
 50172  1  0
 53173  1  0
 53174  1  0
 53175  1  0
 54176  1  0
 55177  1  0
 57178  1  0
 58179  1  0
 61180  1  0
 61181  1  0
 61182  1  0
 62183  1  0
 63184  1  0
 70185  1  0
 71186  1  0
 74187  1  0
 74188  1  0
 74189  1  0
 75190  1  0
 76191  1  0
 78192  1  0
 79193  1  0
 82194  1  0
 82195  1  0
 82196  1  0
 83197  1  0
 84198  1  0
 91199  1  0
 92200  1  0
 95201  1  0
 95202  1  0
 95203  1  0
 96204  1  0
 97205  1  0
 99206  1  0
100207  1  0
103208  1  0
103209  1  0
103210  1  0
104211  1  0
105212  1  0
117213  1  0
117214  1  0
118215  1  0
118216  1  0
118217  1  0
121218  1  0
121219  1  0
122220  1  0
122221  1  0
122222  1  0
123223  1  0
128224  1  0
131225  1  0
139226  1  0
140227  1  0
141228  1  0
142229  1  0
143230  1  0
144231  1  0
144232  1  0
145233  1  0
M  END

