
     RDKit          3D

212237  0  0  0  0  0  0  0  0999 V2000
   -1.0735   -2.9140   11.2391 C   0  0  0  0  0  0  0  0  0  0  0  0
    0.0095   -2.2152   10.8206 C   0  0  0  0  0  0  0  0  0  0  0  0
    0.2091   -1.6879    9.4597 C   0  0  0  0  0  0  0  0  0  0  0  0
   -0.6710   -1.3840    8.6292 O   0  0  0  0  0  0  0  0  0  0  0  0
    1.6302   -1.5416    9.2273 C   0  0  0  0  0  0  0  0  0  0  0  0
    2.2410   -1.1847    8.0007 C   0  0  0  0  0  0  0  0  0  0  0  0
    3.6158   -1.2480    8.0391 C   0  0  0  0  0  0  0  0  0  0  0  0
    4.3530   -1.6846    9.1852 C   0  0  0  0  0  0  0  0  0  0  0  0
    3.7564   -2.0212   10.3989 C   0  0  0  0  0  0  0  0  0  0  0  0
    2.3333   -1.8997   10.3943 C   0  0  0  0  0  0  0  0  0  0  0  0
    1.3510   -2.1710   11.4799 C   0  0  0  0  0  0  0  0  0  0  0  0
    1.5819   -2.0745   12.8126 C   0  0  0  0  0  0  0  0  0  0  0  0
    2.8943   -1.7702   13.3290 C   0  0  0  0  0  0  0  0  0  0  0  0
    3.9222   -1.5033   13.7718 N   0  0  0  0  0  0  0  0  0  0  0  0
    0.4995   -1.9830   13.7739 C   0  0  0  0  0  0  0  0  0  0  0  0
   -0.3645   -1.8663   14.5211 N   0  0  0  0  0  0  0  0  0  0  0  0
    5.6413   -1.5673    8.4028 C   0  0  0  0  0  0  0  0  0  0  0  0
    6.3233   -2.8732    7.8886 C   0  0  0  0  0  0  0  0  0  0  0  0
    5.2777   -3.9333    7.6653 C   0  0  0  0  0  0  0  0  0  0  0  0
    4.5470   -3.5299    6.6300 C   0  0  0  0  0  0  0  0  0  0  0  0
    5.1377   -2.2089    6.1738 C   0  0  0  0  0  0  0  0  0  0  0  0
    6.5971   -2.4812    6.4513 C   0  0  0  0  0  0  0  0  0  0  0  0
    4.8647   -1.1142    7.2490 C   0  0  0  0  0  0  0  0  0  0  0  0
   -2.1068   -3.3333   10.2750 C   0  0  0  0  0  0  0  0  0  0  0  0
   -1.8738   -4.5062    9.5448 C   0  0  0  0  0  0  0  0  0  0  0  0
   -2.3493   -4.6381    8.2061 C   0  0  0  0  0  0  0  0  0  0  0  0
   -1.8416   -5.7844    7.5141 N   0  0  0  0  0  0  0  0  0  0  0  0
   -0.9217   -6.4320    8.6477 S   0  0  0  0  0  4  0  0  0  0  0  0
   -0.9796   -5.5345    9.9612 N   0  0  0  0  0  0  0  0  0  0  0  0
   -3.0303   -3.5776    7.5740 C   0  0  0  0  0  0  0  0  0  0  0  0
   -3.4905   -2.5230    8.3958 C   0  0  0  0  0  0  0  0  0  0  0  0
   -4.2336   -1.4937    7.9354 N   0  0  0  0  0  0  0  0  0  0  0  0
   -4.2854   -0.5164    9.2704 S   0  0  0  0  0  0  0  0  0  0  0  0
   -3.3890   -1.2802   10.4317 N   0  0  0  0  0  0  0  0  0  0  0  0
   -3.0237   -2.4094    9.7541 C   0  0  0  0  0  0  0  0  0  0  0  0
   -2.7575   -3.3181    6.1257 C   0  0  0  0  0  0  0  0  0  0  0  0
   -3.4781   -2.4743    5.2488 C   0  0  0  0  0  0  0  0  0  0  0  0
   -2.6862   -1.9578    4.2067 C   0  0  0  0  0  0  0  0  0  0  0  0
   -3.0907   -1.0782    3.1705 C   0  0  0  0  0  0  0  0  0  0  0  0
   -4.4563   -1.1434    2.6153 C   0  0  0  0  0  0  0  0  0  0  0  0
   -5.4813   -0.2887    3.0437 C   0  0  0  0  0  0  0  0  0  0  0  0
   -6.6892   -0.2295    2.3353 C   0  0  0  0  0  0  0  0  0  0  0  0
   -6.8836   -1.0126    1.1836 C   0  0  0  0  0  0  0  0  0  0  0  0
   -8.0224   -0.8638    0.3822 C   0  0  0  0  0  0  0  0  0  0  0  0
   -8.1837   -1.6316   -0.7801 C   0  0  0  0  0  0  0  0  0  0  0  0
   -9.6222   -1.3623   -1.8282 S   0  0  0  0  0  0  0  0  0  0  0  0
   -8.7421   -0.6931   -3.3079 C   0  0  0  0  0  0  0  0  0  0  0  0
   -7.8989    0.5487   -2.9941 C   0  0  0  0  0  0  0  0  0  0  0  0
   -7.2414   -2.6235   -1.0978 C   0  0  0  0  0  0  0  0  0  0  0  0
   -6.0875   -2.7635   -0.3167 C   0  0  0  0  0  0  0  0  0  0  0  0
   -5.8908   -1.9563    0.8166 C   0  0  0  0  0  0  0  0  0  0  0  0
   -4.6893   -2.0028    1.5300 C   0  0  0  0  0  0  0  0  0  0  0  0
   -2.0482   -0.5761    2.3609 C   0  0  0  0  0  0  0  0  0  0  0  0
   -0.7771   -1.1338    2.3190 C   0  0  0  0  0  0  0  0  0  0  0  0
   -0.4559   -2.1885    3.1999 C   0  0  0  0  0  0  0  0  0  0  0  0
    0.4340   -3.2882    2.7849 C   0  0  0  0  0  0  0  0  0  0  0  0
   -0.1491   -4.5420    2.5770 C   0  0  0  0  0  0  0  0  0  0  0  0
    0.6036   -5.6105    2.1107 C   0  0  0  0  0  0  0  0  0  0  0  0
   -0.0021   -6.8581    1.9101 C   0  0  0  0  0  0  0  0  0  0  0  0
    0.7284   -7.9208    1.3852 C   0  0  0  0  0  0  0  0  0  0  0  0
    2.0630   -7.7332    1.0297 C   0  0  0  0  0  0  0  0  0  0  0  0
    2.9654   -9.0835    0.2532 S   0  0  0  0  0  0  0  0  0  0  0  0
    2.1134   -8.9397   -1.3721 C   0  0  0  0  0  0  0  0  0  0  0  0
    2.4497   -7.6220   -2.0705 C   0  0  0  0  0  0  0  0  0  0  0  0
    2.6997   -6.5094    1.2579 C   0  0  0  0  0  0  0  0  0  0  0  0
    1.9690   -5.4308    1.8090 C   0  0  0  0  0  0  0  0  0  0  0  0
    2.5688   -4.1796    2.0402 C   0  0  0  0  0  0  0  0  0  0  0  0
    1.8046   -3.1057    2.5358 C   0  0  0  0  0  0  0  0  0  0  0  0
   -1.3853   -2.4382    4.2264 C   0  0  0  0  0  0  0  0  0  0  0  0
   -1.1942   -3.4687    5.5159 S   0  0  0  0  0  0  0  0  0  0  0  0
   -0.0026   -0.6758    1.2001 C   0  0  0  0  0  0  0  0  0  0  0  0
   -0.6415    0.2771    0.3798 C   0  0  0  0  0  0  0  0  0  0  0  0
   -2.1725    0.4514    1.0793 S   0  0  0  0  0  0  0  0  0  0  0  0
   -0.2346    0.6394   -1.0088 C   0  0  0  0  0  0  0  0  0  0  0  0
   -0.8653    1.5095   -1.9646 C   0  0  0  0  0  0  0  0  0  0  0  0
   -1.4257    2.8164   -1.7240 N   0  0  0  0  0  0  0  0  0  0  0  0
   -2.7937    3.0466   -1.2463 C   0  0  0  0  0  0  0  0  0  0  0  0
   -3.6245    1.9665   -0.9719 C   0  0  0  0  0  0  0  0  0  0  0  0
   -4.6804    2.0763   -0.0777 C   0  0  0  0  0  0  0  0  0  0  0  0
   -4.9806    3.3175    0.4906 C   0  0  0  0  0  0  0  0  0  0  0  0
   -6.0511    3.4640    1.9343 S   0  0  0  0  0  0  0  0  0  0  0  0
   -4.6552    3.3421    3.1286 C   0  0  0  0  0  0  0  0  0  0  0  0
   -4.3962    4.4548   -0.0321 C   0  0  0  0  0  0  0  0  0  0  0  0
   -3.3192    4.3330   -0.9194 C   0  0  0  0  0  0  0  0  0  0  0  0
   -0.5658    3.9476   -2.0449 C   0  0  0  0  0  0  0  0  0  0  0  0
    0.7860    3.9352   -1.6116 C   0  0  0  0  0  0  0  0  0  0  0  0
    1.6606    4.9370   -2.0353 C   0  0  0  0  0  0  0  0  0  0  0  0
    1.2456    5.9434   -2.8912 C   0  0  0  0  0  0  0  0  0  0  0  0
    2.3855    7.2638   -3.3155 S   0  0  0  0  0  0  0  0  0  0  0  0
    2.3663    6.9758   -5.1141 C   0  0  0  0  0  0  0  0  0  0  0  0
   -0.0995    6.0097   -3.2800 C   0  0  0  0  0  0  0  0  0  0  0  0
   -0.9901    4.9842   -2.8895 C   0  0  0  0  0  0  0  0  0  0  0  0
   -0.3136    1.2910   -3.2198 C   0  0  0  0  0  0  0  0  0  0  0  0
   -0.4921    2.1046   -4.6748 S   0  0  0  0  0  0  0  0  0  0  0  0
    0.8790    1.4031   -5.4469 C   0  0  0  0  0  0  0  0  0  0  0  0
    1.5372    0.5907   -4.4982 C   0  0  0  0  0  0  0  0  0  0  0  0
    2.8956    0.1458   -4.6711 N   0  0  0  0  0  0  0  0  0  0  0  0
    3.1692   -1.1866   -5.2019 C   0  0  0  0  0  0  0  0  0  0  0  0
    4.4623   -1.5373   -5.6597 C   0  0  0  0  0  0  0  0  0  0  0  0
    4.7614   -2.8630   -5.9882 C   0  0  0  0  0  0  0  0  0  0  0  0
    3.7541   -3.8251   -5.9580 C   0  0  0  0  0  0  0  0  0  0  0  0
    4.1596   -5.5396   -6.2780 S   0  0  0  0  0  0  0  0  0  0  0  0
    4.0913   -5.9785   -4.5114 C   0  0  0  0  0  0  0  0  0  0  0  0
    2.4614   -3.4908   -5.5676 C   0  0  0  0  0  0  0  0  0  0  0  0
    2.1730   -2.1796   -5.1690 C   0  0  0  0  0  0  0  0  0  0  0  0
    3.9762    0.9264   -4.1307 C   0  0  0  0  0  0  0  0  0  0  0  0
    4.4024    0.7026   -2.8072 C   0  0  0  0  0  0  0  0  0  0  0  0
    5.4730    1.4327   -2.2657 C   0  0  0  0  0  0  0  0  0  0  0  0
    6.1428    2.3794   -3.0474 C   0  0  0  0  0  0  0  0  0  0  0  0
    7.6031    3.1926   -2.4043 S   0  0  0  0  0  0  0  0  0  0  0  0
    6.6939    4.2459   -1.2272 C   0  0  0  0  0  0  0  0  0  0  0  0
    5.7582    2.5738   -4.3787 C   0  0  0  0  0  0  0  0  0  0  0  0
    4.6932    1.8550   -4.9117 C   0  0  0  0  0  0  0  0  0  0  0  0
    0.8107    0.5152   -3.2964 C   0  0  0  0  0  0  0  0  0  0  0  0
    1.0733   -0.1712   -1.8002 S   0  0  0  0  0  0  0  0  0  0  0  0
    1.4135    1.7730   -6.7602 C   0  0  0  0  0  0  0  0  0  0  0  0
    0.6576    2.3251   -7.7169 C   0  0  0  0  0  0  0  0  0  0  0  0
   -0.8019    2.3182   -7.7352 C   0  0  0  0  0  0  0  0  0  0  0  0
   -1.5360    1.3392   -7.4555 O   0  0  0  0  0  0  0  0  0  0  0  0
   -1.2581    3.5671   -8.2688 C   0  0  0  0  0  0  0  0  0  0  0  0
   -2.5758    4.0826   -8.2244 C   0  0  0  0  0  0  0  0  0  0  0  0
   -2.6881    5.3919   -8.6719 C   0  0  0  0  0  0  0  0  0  0  0  0
   -1.5572    6.1362   -9.1516 C   0  0  0  0  0  0  0  0  0  0  0  0
   -0.2758    5.6457   -9.1941 C   0  0  0  0  0  0  0  0  0  0  0  0
   -0.1382    4.3097   -8.7304 C   0  0  0  0  0  0  0  0  0  0  0  0
    1.0789    3.5130   -8.5121 C   0  0  0  0  0  0  0  0  0  0  0  0
    2.3132    3.7434   -9.0256 C   0  0  0  0  0  0  0  0  0  0  0  0
    2.7398    5.0471   -9.4527 C   0  0  0  0  0  0  0  0  0  0  0  0
    3.1270    6.0874   -9.7348 N   0  0  0  0  0  0  0  0  0  0  0  0
    3.3045    2.7019   -9.0891 C   0  0  0  0  0  0  0  0  0  0  0  0
    4.1037    1.8662   -9.1447 N   0  0  0  0  0  0  0  0  0  0  0  0
   -2.4127    7.3470   -9.3208 C   0  0  0  0  0  0  0  0  0  0  0  0
   -2.2021    8.4420   -8.2360 C   0  0  0  0  0  0  0  0  0  0  0  0
   -3.3630    9.3804   -8.3861 C   0  0  0  0  0  0  0  0  0  0  0  0
   -4.4489    8.7093   -7.9868 C   0  0  0  0  0  0  0  0  0  0  0  0
   -3.9762    7.3395   -7.5493 C   0  0  0  0  0  0  0  0  0  0  0  0
   -2.6324    7.7457   -6.9475 C   0  0  0  0  0  0  0  0  0  0  0  0
   -3.5666    6.5955   -8.8579 C   0  0  0  0  0  0  0  0  0  0  0  0
   -1.0372   -3.4284   12.1809 H   0  0  0  0  0  0  0  0  0  0  0  0
    1.6845   -0.9344    7.1098 H   0  0  0  0  0  0  0  0  0  0  0  0
    4.3254   -2.3830   11.2279 H   0  0  0  0  0  0  0  0  0  0  0  0
    6.3357   -0.7985    8.7964 H   0  0  0  0  0  0  0  0  0  0  0  0
    7.2092   -3.2037    8.4763 H   0  0  0  0  0  0  0  0  0  0  0  0
    5.1803   -4.8868    8.1795 H   0  0  0  0  0  0  0  0  0  0  0  0
    3.7347   -4.0755    6.1709 H   0  0  0  0  0  0  0  0  0  0  0  0
    4.8806   -1.9233    5.1263 H   0  0  0  0  0  0  0  0  0  0  0  0
    7.0136   -3.3131    5.8320 H   0  0  0  0  0  0  0  0  0  0  0  0
    7.2450   -1.5792    6.3480 H   0  0  0  0  0  0  0  0  0  0  0  0
    5.0906   -0.0693    6.9257 H   0  0  0  0  0  0  0  0  0  0  0  0
   -4.5157   -2.1922    5.4164 H   0  0  0  0  0  0  0  0  0  0  0  0
   -5.3334    0.3570    3.9006 H   0  0  0  0  0  0  0  0  0  0  0  0
   -7.4548    0.4685    2.6515 H   0  0  0  0  0  0  0  0  0  0  0  0
   -8.7870   -0.1436    0.6406 H   0  0  0  0  0  0  0  0  0  0  0  0
   -8.0870   -1.4737   -3.7616 H   0  0  0  0  0  0  0  0  0  0  0  0
   -9.5046   -0.3952   -4.0523 H   0  0  0  0  0  0  0  0  0  0  0  0
   -7.4679    0.9507   -3.9350 H   0  0  0  0  0  0  0  0  0  0  0  0
   -8.5336    1.3450   -2.5405 H   0  0  0  0  0  0  0  0  0  0  0  0
   -7.0648    0.3017   -2.3092 H   0  0  0  0  0  0  0  0  0  0  0  0
   -7.3639   -3.2449   -1.9684 H   0  0  0  0  0  0  0  0  0  0  0  0
   -5.3387   -3.4886   -0.6043 H   0  0  0  0  0  0  0  0  0  0  0  0
   -3.9057   -2.6854    1.2083 H   0  0  0  0  0  0  0  0  0  0  0  0
   -1.2087   -4.6779    2.7309 H   0  0  0  0  0  0  0  0  0  0  0  0
   -1.0493   -7.0108    2.1548 H   0  0  0  0  0  0  0  0  0  0  0  0
    0.2375   -8.8809    1.2324 H   0  0  0  0  0  0  0  0  0  0  0  0
    2.4706   -9.7735   -2.0147 H   0  0  0  0  0  0  0  0  0  0  0  0
    1.0251   -9.0360   -1.2535 H   0  0  0  0  0  0  0  0  0  0  0  0
    3.5505   -7.5068   -2.1425 H   0  0  0  0  0  0  0  0  0  0  0  0
    2.0279   -6.7658   -1.5192 H   0  0  0  0  0  0  0  0  0  0  0  0
    2.0037   -7.6230   -3.0851 H   0  0  0  0  0  0  0  0  0  0  0  0
    3.7442   -6.3838    1.0124 H   0  0  0  0  0  0  0  0  0  0  0  0
    3.6103   -4.0220    1.8132 H   0  0  0  0  0  0  0  0  0  0  0  0
    2.2715   -2.1444    2.6959 H   0  0  0  0  0  0  0  0  0  0  0  0
    0.9512   -1.1085    0.9222 H   0  0  0  0  0  0  0  0  0  0  0  0
   -3.3527    0.9978   -1.3765 H   0  0  0  0  0  0  0  0  0  0  0  0
   -5.1978    1.1953    0.2618 H   0  0  0  0  0  0  0  0  0  0  0  0
   -3.9084    4.1327    2.9029 H   0  0  0  0  0  0  0  0  0  0  0  0
   -5.0270    3.5024    4.1622 H   0  0  0  0  0  0  0  0  0  0  0  0
   -4.1893    2.3395    3.0645 H   0  0  0  0  0  0  0  0  0  0  0  0
   -4.8164    5.4174    0.1518 H   0  0  0  0  0  0  0  0  0  0  0  0
   -2.9186    5.2713   -1.2548 H   0  0  0  0  0  0  0  0  0  0  0  0
    1.1813    3.1084   -1.0072 H   0  0  0  0  0  0  0  0  0  0  0  0
    2.7024    4.8542   -1.7153 H   0  0  0  0  0  0  0  0  0  0  0  0
    2.0592    7.9147   -5.6059 H   0  0  0  0  0  0  0  0  0  0  0  0
    3.3859    6.7116   -5.4643 H   0  0  0  0  0  0  0  0  0  0  0  0
    1.6632    6.1723   -5.4211 H   0  0  0  0  0  0  0  0  0  0  0  0
   -0.4493    6.8065   -3.9221 H   0  0  0  0  0  0  0  0  0  0  0  0
   -1.9622    4.9651   -3.3363 H   0  0  0  0  0  0  0  0  0  0  0  0
    5.2821   -0.8282   -5.6276 H   0  0  0  0  0  0  0  0  0  0  0  0
    5.7929   -3.1634   -6.1862 H   0  0  0  0  0  0  0  0  0  0  0  0
    3.9564   -7.0723   -4.4355 H   0  0  0  0  0  0  0  0  0  0  0  0
    5.0394   -5.6953   -4.0105 H   0  0  0  0  0  0  0  0  0  0  0  0
    3.2494   -5.4775   -3.9851 H   0  0  0  0  0  0  0  0  0  0  0  0
    1.6715   -4.2338   -5.5529 H   0  0  0  0  0  0  0  0  0  0  0  0
    1.2031   -1.9847   -4.7419 H   0  0  0  0  0  0  0  0  0  0  0  0
    3.8909   -0.0220   -2.1884 H   0  0  0  0  0  0  0  0  0  0  0  0
    5.7896    1.2384   -1.2487 H   0  0  0  0  0  0  0  0  0  0  0  0
    7.3885    4.9823   -0.7769 H   0  0  0  0  0  0  0  0  0  0  0  0
    6.2959    3.6069   -0.4068 H   0  0  0  0  0  0  0  0  0  0  0  0
    5.8544    4.7842   -1.7241 H   0  0  0  0  0  0  0  0  0  0  0  0
    6.3207    3.2557   -5.0128 H   0  0  0  0  0  0  0  0  0  0  0  0
    4.4595    1.9820   -5.9592 H   0  0  0  0  0  0  0  0  0  0  0  0
    2.4899    1.8721   -6.8371 H   0  0  0  0  0  0  0  0  0  0  0  0
   -3.4236    3.5413   -7.8106 H   0  0  0  0  0  0  0  0  0  0  0  0
    0.5386    6.2671   -9.5242 H   0  0  0  0  0  0  0  0  0  0  0  0
   -2.4676    7.7132  -10.3739 H   0  0  0  0  0  0  0  0  0  0  0  0
   -1.1957    8.9035   -8.2064 H   0  0  0  0  0  0  0  0  0  0  0  0
   -3.3295   10.4186   -8.7107 H   0  0  0  0  0  0  0  0  0  0  0  0
   -5.4563    9.1099   -7.9260 H   0  0  0  0  0  0  0  0  0  0  0  0
   -4.6582    6.7901   -6.8648 H   0  0  0  0  0  0  0  0  0  0  0  0
   -2.7360    8.4271   -6.0809 H   0  0  0  0  0  0  0  0  0  0  0  0
   -1.9942    6.8843   -6.6548 H   0  0  0  0  0  0  0  0  0  0  0  0
   -4.3795    6.4660   -9.6064 H   0  0  0  0  0  0  0  0  0  0  0  0
  1  2  2  3
  2  3  1  0
  3  4  2  0
  3  5  1  0
  5  6  2  0
  6  7  1  0
  7  8  2  0
  8  9  1  0
  9 10  2  0
 10 11  1  0
 11 12  2  3
 12 13  1  0
 13 14  3  0
 12 15  1  0
 15 16  3  0
  8 17  1  0
 17 18  1  0
 18 19  1  0
 19 20  2  0
 20 21  1  0
 21 22  1  0
 21 23  1  0
  1 24  1  0
 24 25  2  0
 25 26  1  0
 26 27  1  0
 27 28  2  0
 28 29  2  0
 26 30  2  0
 30 31  1  0
 31 32  2  0
 32 33  1  0
 33 34  1  0
 34 35  2  0
 30 36  1  0
 36 37  2  0
 37 38  1  0
 38 39  2  0
 39 40  1  0
 40 41  2  0
 41 42  1  0
 42 43  2  0
 43 44  1  0
 44 45  2  0
 45 46  1  0
 46 47  1  0
 47 48  1  0
 45 49  1  0
 49 50  2  0
 50 51  1  0
 51 52  2  0
 39 53  1  0
 53 54  2  0
 54 55  1  0
 55 56  1  0
 56 57  2  0
 57 58  1  0
 58 59  2  0
 59 60  1  0
 60 61  2  0
 61 62  1  0
 62 63  1  0
 63 64  1  0
 61 65  1  0
 65 66  2  0
 66 67  1  0
 67 68  2  0
 55 69  2  0
 69 70  1  0
 54 71  1  0
 71 72  2  0
 72 73  1  0
 72 74  1  0
 74 75  2  0
 75 76  1  0
 76 77  1  0
 77 78  2  0
 78 79  1  0
 79 80  2  0
 80 81  1  0
 81 82  1  0
 80 83  1  0
 83 84  2  0
 76 85  1  0
 85 86  2  0
 86 87  1  0
 87 88  2  0
 88 89  1  0
 89 90  1  0
 88 91  1  0
 91 92  2  0
 75 93  1  0
 93 94  1  0
 94 95  1  0
 95 96  2  0
 96 97  1  0
 97 98  1  0
 98 99  2  0
 99100  1  0
100101  2  0
101102  1  0
102103  1  0
101104  1  0
104105  2  0
 97106  1  0
106107  2  0
107108  1  0
108109  2  0
109110  1  0
110111  1  0
109112  1  0
112113  2  0
 96114  1  0
114115  1  0
 95116  1  0
116117  2  3
117118  1  0
118119  2  0
118120  1  0
120121  2  0
121122  1  0
122123  2  0
123124  1  0
124125  2  0
125126  1  0
126127  2  3
127128  1  0
128129  3  0
127130  1  0
130131  3  0
123132  1  0
132133  1  0
133134  1  0
134135  2  0
135136  1  0
136137  1  0
136138  1  0
 11  2  1  0
 23 17  1  0
 35 24  1  0
 70 36  1  0
115 74  1  0
126117  1  0
138132  1  0
 10  5  1  0
 22 18  1  0
 29 25  1  0
 35 31  1  0
 69 38  1  0
 84 77  1  0
 92 85  1  0
114 93  2  0
125120  1  0
137133  1  0
 23  7  1  0
 52 40  1  0
 73 53  1  0
105 98  1  0
113106  1  0
138122  1  0
 51 43  1  0
 68 56  1  0
 66 58  1  0
  1139  1  0
  6140  1  0
  9141  1  0
 17142  1  0
 18143  1  0
 19144  1  0
 20145  1  0
 21146  1  0
 22147  1  0
 22148  1  0
 23149  1  0
 37150  1  0
 41151  1  0
 42152  1  0
 44153  1  0
 47154  1  0
 47155  1  0
 48156  1  0
 48157  1  0
 48158  1  0
 49159  1  0
 50160  1  0
 52161  1  0
 57162  1  0
 59163  1  0
 60164  1  0
 63165  1  0
 63166  1  0
 64167  1  0
 64168  1  0
 64169  1  0
 65170  1  0
 67171  1  0
 68172  1  0
 71173  1  0
 78174  1  0
 79175  1  0
 82176  1  0
 82177  1  0
 82178  1  0
 83179  1  0
 84180  1  0
 86181  1  0
 87182  1  0
 90183  1  0
 90184  1  0
 90185  1  0
 91186  1  0
 92187  1  0
 99188  1  0
100189  1  0
103190  1  0
103191  1  0
103192  1  0
104193  1  0
105194  1  0
107195  1  0
108196  1  0
111197  1  0
111198  1  0
111199  1  0
112200  1  0
113201  1  0
116202  1  0
121203  1  0
124204  1  0
132205  1  0
133206  1  0
134207  1  0
135208  1  0
136209  1  0
137210  1  0
137211  1  0
138212  1  0
M  END

