
     RDKit          3D

179197  0  0  0  0  0  0  0  0999 V2000
    6.4799   -1.2514    4.0950 C   0  0  0  0  0  0  0  0  0  0  0  0
    6.5543   -2.3228    4.9185 C   0  0  0  0  0  0  0  0  0  0  0  0
    5.9239   -2.3956    6.2409 C   0  0  0  0  0  0  0  0  0  0  0  0
    5.2527   -1.4877    6.8052 O   0  0  0  0  0  0  0  0  0  0  0  0
    6.2695   -3.6518    6.8567 C   0  0  0  0  0  0  0  0  0  0  0  0
    5.9137   -4.0742    8.1589 C   0  0  0  0  0  0  0  0  0  0  0  0
    6.4403   -5.2992    8.5153 C   0  0  0  0  0  0  0  0  0  0  0  0
    7.2585   -6.0786    7.6410 C   0  0  0  0  0  0  0  0  0  0  0  0
    7.6168   -5.6679    6.3688 C   0  0  0  0  0  0  0  0  0  0  0  0
    7.0925   -4.4006    5.9763 C   0  0  0  0  0  0  0  0  0  0  0  0
    7.3188   -3.6082    4.7254 C   0  0  0  0  0  0  0  0  0  0  0  0
    8.0358   -4.0031    3.6310 C   0  0  0  0  0  0  0  0  0  0  0  0
    8.6270   -5.3092    3.5084 C   0  0  0  0  0  0  0  0  0  0  0  0
    9.1083   -6.3541    3.3843 N   0  0  0  0  0  0  0  0  0  0  0  0
    8.2614   -3.1758    2.4756 C   0  0  0  0  0  0  0  0  0  0  0  0
    8.4511   -2.5227    1.5365 N   0  0  0  0  0  0  0  0  0  0  0  0
    7.3816   -7.1485    8.6841 C   0  0  0  0  0  0  0  0  0  0  0  0
    6.5315   -8.4347    8.4685 C   0  0  0  0  0  0  0  0  0  0  0  0
    6.5236   -9.1529    9.7953 C   0  0  0  0  0  0  0  0  0  0  0  0
    5.7770   -8.4163   10.6250 C   0  0  0  0  0  0  0  0  0  0  0  0
    5.2987   -7.2277    9.8242 C   0  0  0  0  0  0  0  0  0  0  0  0
    5.1042   -7.9124    8.4845 C   0  0  0  0  0  0  0  0  0  0  0  0
    6.5558   -6.3421    9.5850 C   0  0  0  0  0  0  0  0  0  0  0  0
    5.6060   -0.0919    4.3257 C   0  0  0  0  0  0  0  0  0  0  0  0
    3.9085   -0.1627    4.4193 S   0  0  0  0  0  0  0  0  0  0  0  0
    3.7045    1.5013    4.3213 C   0  0  0  0  0  0  0  0  0  0  0  0
    2.5548    2.2989    3.9224 C   0  0  0  0  0  0  0  0  0  0  0  0
    2.8641    3.5357    3.4048 C   0  0  0  0  0  0  0  0  0  0  0  0
    4.7488    3.8845    3.4442 Ge  0  0  0  0  0  4  0  0  0  0  0  0
    5.2647    5.2479    4.7330 C   0  0  0  0  0  0  0  0  0  0  0  0
    4.6944    6.6022    4.3372 C   0  0  0  0  0  0  0  0  0  0  0  0
    5.4766    4.1097    1.6522 C   0  0  0  0  0  0  0  0  0  0  0  0
    6.9842    3.9175    1.6490 C   0  0  0  0  0  0  0  0  0  0  0  0
    4.9223    2.1069    4.1311 C   0  0  0  0  0  0  0  0  0  0  0  0
    6.0033    1.2319    4.1161 C   0  0  0  0  0  0  0  0  0  0  0  0
    1.8749    4.0785    2.5819 C   0  0  0  0  0  0  0  0  0  0  0  0
    0.7466    3.2583    2.5123 C   0  0  0  0  0  0  0  0  0  0  0  0
    1.0537    1.8225    3.3630 S   0  0  0  0  0  0  0  0  0  0  0  0
   -0.2956    3.3385    1.4849 C   0  0  0  0  0  0  0  0  0  0  0  0
   -1.6788    3.4521    1.7162 C   0  0  0  0  0  0  0  0  0  0  0  0
   -2.2872    3.9603    2.9175 N   0  0  0  0  0  0  0  0  0  0  0  0
   -1.8420    3.5184    4.2072 C   0  0  0  0  0  0  0  0  0  0  0  0
   -1.1684    4.4051    5.0607 C   0  0  0  0  0  0  0  0  0  0  0  0
   -0.7264    3.9715    6.3122 C   0  0  0  0  0  0  0  0  0  0  0  0
   -0.9686    2.6566    6.7236 C   0  0  0  0  0  0  0  0  0  0  0  0
   -0.3851    2.0984    8.3247 S   0  0  0  0  0  0  0  0  0  0  0  0
   -1.9087    2.5884    9.1940 C   0  0  0  0  0  0  0  0  0  0  0  0
   -1.6502    1.7726    5.8797 C   0  0  0  0  0  0  0  0  0  0  0  0
   -2.0863    2.2027    4.6220 C   0  0  0  0  0  0  0  0  0  0  0  0
   -3.3271    4.9551    2.8295 C   0  0  0  0  0  0  0  0  0  0  0  0
   -3.2505    5.9811    1.8686 C   0  0  0  0  0  0  0  0  0  0  0  0
   -4.2614    6.9418    1.7789 C   0  0  0  0  0  0  0  0  0  0  0  0
   -5.3569    6.8894    2.6476 C   0  0  0  0  0  0  0  0  0  0  0  0
   -6.6460    8.1283    2.5438 S   0  0  0  0  0  0  0  0  0  0  0  0
   -5.8484    9.2213    3.7596 C   0  0  0  0  0  0  0  0  0  0  0  0
   -5.4487    5.8621    3.5924 C   0  0  0  0  0  0  0  0  0  0  0  0
   -4.4359    4.9042    3.6893 C   0  0  0  0  0  0  0  0  0  0  0  0
   -2.4070    3.0566    0.5931 C   0  0  0  0  0  0  0  0  0  0  0  0
   -4.0068    2.5802    0.3711 S   0  0  0  0  0  0  0  0  0  0  0  0
   -3.7181    1.8445   -1.1405 C   0  0  0  0  0  0  0  0  0  0  0  0
   -2.3554    1.9735   -1.4610 C   0  0  0  0  0  0  0  0  0  0  0  0
   -1.7220    1.3781   -2.6056 N   0  0  0  0  0  0  0  0  0  0  0  0
   -1.0924    0.0714   -2.5246 C   0  0  0  0  0  0  0  0  0  0  0  0
   -0.7620   -0.6417   -3.6972 C   0  0  0  0  0  0  0  0  0  0  0  0
   -0.1835   -1.9107   -3.6228 C   0  0  0  0  0  0  0  0  0  0  0  0
    0.0583   -2.5012   -2.3784 C   0  0  0  0  0  0  0  0  0  0  0  0
    0.7824   -4.1409   -2.2842 S   0  0  0  0  0  0  0  0  0  0  0  0
   -0.8244   -4.9855   -2.4186 C   0  0  0  0  0  0  0  0  0  0  0  0
   -0.2749   -1.8166   -1.2078 C   0  0  0  0  0  0  0  0  0  0  0  0
   -0.8480   -0.5439   -1.2771 C   0  0  0  0  0  0  0  0  0  0  0  0
   -1.6162    2.1880   -3.7918 C   0  0  0  0  0  0  0  0  0  0  0  0
   -2.7655    2.7414   -4.3799 C   0  0  0  0  0  0  0  0  0  0  0  0
   -2.6643    3.5218   -5.5351 C   0  0  0  0  0  0  0  0  0  0  0  0
   -1.4103    3.7834   -6.0967 C   0  0  0  0  0  0  0  0  0  0  0  0
   -1.2749    4.7917   -7.5729 S   0  0  0  0  0  0  0  0  0  0  0  0
   -1.2110    6.3558   -6.6441 C   0  0  0  0  0  0  0  0  0  0  0  0
   -0.2573    3.2553   -5.5024 C   0  0  0  0  0  0  0  0  0  0  0  0
   -0.3588    2.4614   -4.3561 C   0  0  0  0  0  0  0  0  0  0  0  0
   -1.6590    2.6578   -0.4687 C   0  0  0  0  0  0  0  0  0  0  0  0
   -0.0313    2.7588   -0.0940 S   0  0  0  0  0  0  0  0  0  0  0  0
   -4.6346    0.8828   -1.7592 C   0  0  0  0  0  0  0  0  0  0  0  0
   -4.2536   -0.7490   -1.9856 S   0  0  0  0  0  0  0  0  0  0  0  0
   -5.5732   -1.0816   -2.9560 C   0  0  0  0  0  0  0  0  0  0  0  0
   -5.6858   -2.0659   -4.0239 C   0  0  0  0  0  0  0  0  0  0  0  0
   -6.5119   -1.6913   -5.0580 C   0  0  0  0  0  0  0  0  0  0  0  0
   -7.4055   -0.0293   -4.7123 Ge  0  0  0  0  0  4  0  0  0  0  0  0
   -9.2970   -0.2738   -4.3119 C   0  0  0  0  0  0  0  0  0  0  0  0
   -9.4921   -1.3445   -3.2468 C   0  0  0  0  0  0  0  0  0  0  0  0
   -7.0324    1.3559   -6.0340 C   0  0  0  0  0  0  0  0  0  0  0  0
   -5.5826    1.2978   -6.4896 C   0  0  0  0  0  0  0  0  0  0  0  0
   -6.2979    0.0733   -3.1465 C   0  0  0  0  0  0  0  0  0  0  0  0
   -5.7881    1.1961   -2.4823 C   0  0  0  0  0  0  0  0  0  0  0  0
   -6.1888   -2.2575   -6.2894 C   0  0  0  0  0  0  0  0  0  0  0  0
   -5.0753   -3.0916   -6.1986 C   0  0  0  0  0  0  0  0  0  0  0  0
   -4.4944   -3.0942   -4.6062 S   0  0  0  0  0  0  0  0  0  0  0  0
   -4.2934   -3.5446   -7.3530 C   0  0  0  0  0  0  0  0  0  0  0  0
   -3.1243   -2.9678   -7.7101 C   0  0  0  0  0  0  0  0  0  0  0  0
   -2.6225   -1.6838   -7.1859 C   0  0  0  0  0  0  0  0  0  0  0  0
   -3.1243   -0.9994   -6.2556 O   0  0  0  0  0  0  0  0  0  0  0  0
   -1.5217   -1.2465   -8.0063 C   0  0  0  0  0  0  0  0  0  0  0  0
   -0.8432   -0.0301   -7.9446 C   0  0  0  0  0  0  0  0  0  0  0  0
    0.1466    0.2322   -8.8988 C   0  0  0  0  0  0  0  0  0  0  0  0
    1.0953    1.8848   -8.8527 Br  0  0  0  0  0  0  0  0  0  0  0  0
    0.4324   -0.7195   -9.8949 C   0  0  0  0  0  0  0  0  0  0  0  0
   -0.2815   -1.9260   -9.9540 C   0  0  0  0  0  0  0  0  0  0  0  0
   -1.2608   -2.1953   -8.9829 C   0  0  0  0  0  0  0  0  0  0  0  0
   -2.2081   -3.3456   -8.8338 C   0  0  0  0  0  0  0  0  0  0  0  0
   -2.1573   -4.5377   -9.4974 C   0  0  0  0  0  0  0  0  0  0  0  0
   -1.1418   -4.8499  -10.4645 C   0  0  0  0  0  0  0  0  0  0  0  0
   -0.3269   -5.1149  -11.2439 N   0  0  0  0  0  0  0  0  0  0  0  0
   -3.0622   -5.6228   -9.2156 C   0  0  0  0  0  0  0  0  0  0  0  0
   -3.8001   -6.4881   -9.0047 N   0  0  0  0  0  0  0  0  0  0  0  0
    7.0781   -1.1773    3.2075 H   0  0  0  0  0  0  0  0  0  0  0  0
    5.2973   -3.4866    8.8276 H   0  0  0  0  0  0  0  0  0  0  0  0
    8.2583   -6.2884    5.7730 H   0  0  0  0  0  0  0  0  0  0  0  0
    8.4246   -7.3119    9.0309 H   0  0  0  0  0  0  0  0  0  0  0  0
    6.8094   -9.0560    7.5912 H   0  0  0  0  0  0  0  0  0  0  0  0
    6.9593  -10.1232   10.0251 H   0  0  0  0  0  0  0  0  0  0  0  0
    5.4960   -8.6867   11.6381 H   0  0  0  0  0  0  0  0  0  0  0  0
    4.4126   -6.7020   10.2386 H   0  0  0  0  0  0  0  0  0  0  0  0
    4.3378   -8.7264    8.5088 H   0  0  0  0  0  0  0  0  0  0  0  0
    4.8555   -7.2171    7.6534 H   0  0  0  0  0  0  0  0  0  0  0  0
    7.0816   -5.9888   10.5021 H   0  0  0  0  0  0  0  0  0  0  0  0
    4.8770    4.9623    5.7330 H   0  0  0  0  0  0  0  0  0  0  0  0
    6.3729    5.3047    4.7783 H   0  0  0  0  0  0  0  0  0  0  0  0
    5.1063    6.9184    3.3546 H   0  0  0  0  0  0  0  0  0  0  0  0
    4.9722    7.3564    5.1052 H   0  0  0  0  0  0  0  0  0  0  0  0
    3.5861    6.5479    4.2751 H   0  0  0  0  0  0  0  0  0  0  0  0
    5.0025    3.3663    0.9729 H   0  0  0  0  0  0  0  0  0  0  0  0
    5.2285    5.1329    1.2912 H   0  0  0  0  0  0  0  0  0  0  0  0
    7.3842    4.1349    0.6375 H   0  0  0  0  0  0  0  0  0  0  0  0
    7.4642    4.5999    2.3828 H   0  0  0  0  0  0  0  0  0  0  0  0
    7.2331    2.8658    1.9057 H   0  0  0  0  0  0  0  0  0  0  0  0
    7.0113    1.5248    3.8667 H   0  0  0  0  0  0  0  0  0  0  0  0
    2.0218    4.9540    1.9679 H   0  0  0  0  0  0  0  0  0  0  0  0
   -0.9762    5.4232    4.7465 H   0  0  0  0  0  0  0  0  0  0  0  0
   -0.1967    4.6595    6.9600 H   0  0  0  0  0  0  0  0  0  0  0  0
   -2.0772    3.6808    9.0879 H   0  0  0  0  0  0  0  0  0  0  0  0
   -2.7769    2.0326    8.7843 H   0  0  0  0  0  0  0  0  0  0  0  0
   -1.8044    2.3455   10.2725 H   0  0  0  0  0  0  0  0  0  0  0  0
   -1.8439    0.7550    6.1949 H   0  0  0  0  0  0  0  0  0  0  0  0
   -2.6169    1.5183    3.9733 H   0  0  0  0  0  0  0  0  0  0  0  0
   -2.3987    6.0502    1.2038 H   0  0  0  0  0  0  0  0  0  0  0  0
   -4.1886    7.7298    1.0425 H   0  0  0  0  0  0  0  0  0  0  0  0
   -4.8493    9.5355    3.3890 H   0  0  0  0  0  0  0  0  0  0  0  0
   -6.4787   10.1244    3.9066 H   0  0  0  0  0  0  0  0  0  0  0  0
   -5.7392    8.6958    4.7330 H   0  0  0  0  0  0  0  0  0  0  0  0
   -6.2998    5.8106    4.2598 H   0  0  0  0  0  0  0  0  0  0  0  0
   -4.5224    4.1178    4.4265 H   0  0  0  0  0  0  0  0  0  0  0  0
   -0.9627   -0.2289   -4.6732 H   0  0  0  0  0  0  0  0  0  0  0  0
    0.0626   -2.4444   -4.5337 H   0  0  0  0  0  0  0  0  0  0  0  0
   -1.4927   -4.6711   -1.5891 H   0  0  0  0  0  0  0  0  0  0  0  0
   -1.2999   -4.7481   -3.3927 H   0  0  0  0  0  0  0  0  0  0  0  0
   -0.6622   -6.0823   -2.3523 H   0  0  0  0  0  0  0  0  0  0  0  0
   -0.0958   -2.2722   -0.2425 H   0  0  0  0  0  0  0  0  0  0  0  0
   -1.1127   -0.0550   -0.3515 H   0  0  0  0  0  0  0  0  0  0  0  0
   -3.7396    2.5632   -3.9530 H   0  0  0  0  0  0  0  0  0  0  0  0
   -3.5585    3.9299   -5.9845 H   0  0  0  0  0  0  0  0  0  0  0  0
   -0.3545    6.3489   -5.9392 H   0  0  0  0  0  0  0  0  0  0  0  0
   -1.0838    7.1974   -7.3564 H   0  0  0  0  0  0  0  0  0  0  0  0
   -2.1569    6.4992   -6.0830 H   0  0  0  0  0  0  0  0  0  0  0  0
    0.7187    3.4594   -5.9253 H   0  0  0  0  0  0  0  0  0  0  0  0
    0.5387    2.0631   -3.9030 H   0  0  0  0  0  0  0  0  0  0  0  0
   -9.8224   -0.5730   -5.2415 H   0  0  0  0  0  0  0  0  0  0  0  0
   -9.7121    0.6890   -3.9552 H   0  0  0  0  0  0  0  0  0  0  0  0
   -9.0144   -1.0246   -2.2975 H   0  0  0  0  0  0  0  0  0  0  0  0
  -10.5781   -1.4918   -3.0712 H   0  0  0  0  0  0  0  0  0  0  0  0
   -9.0516   -2.3071   -3.5806 H   0  0  0  0  0  0  0  0  0  0  0  0
   -7.2442    2.3430   -5.5764 H   0  0  0  0  0  0  0  0  0  0  0  0
   -7.6998    1.2123   -6.9066 H   0  0  0  0  0  0  0  0  0  0  0  0
   -5.3569    2.1807   -7.1211 H   0  0  0  0  0  0  0  0  0  0  0  0
   -4.9043    1.2957   -5.6126 H   0  0  0  0  0  0  0  0  0  0  0  0
   -5.4060    0.3786   -7.0880 H   0  0  0  0  0  0  0  0  0  0  0  0
   -6.1489    2.2029   -2.6355 H   0  0  0  0  0  0  0  0  0  0  0  0
   -6.6222   -1.9403   -7.2246 H   0  0  0  0  0  0  0  0  0  0  0  0
   -4.7370   -4.3244   -7.9409 H   0  0  0  0  0  0  0  0  0  0  0  0
   -1.0817    0.6996   -7.1811 H   0  0  0  0  0  0  0  0  0  0  0  0
    1.2090   -0.5191  -10.6248 H   0  0  0  0  0  0  0  0  0  0  0  0
   -0.0506   -2.6071  -10.7524 H   0  0  0  0  0  0  0  0  0  0  0  0
  1  2  2  3
  2  3  1  0
  3  4  2  0
  3  5  1  0
  5  6  2  0
  6  7  1  0
  7  8  2  0
  8  9  1  0
  9 10  2  0
 10 11  1  0
 11 12  2  3
 12 13  1  0
 13 14  3  0
 12 15  1  0
 15 16  3  0
  8 17  1  0
 17 18  1  0
 18 19  1  0
 19 20  2  0
 20 21  1  0
 21 22  1  0
 21 23  1  0
  1 24  1  0
 24 25  1  0
 25 26  1  0
 26 27  1  0
 27 28  2  0
 28 29  1  0
 29 30  1  0
 30 31  1  0
 29 32  1  0
 32 33  1  0
 29 34  1  0
 34 35  1  0
 28 36  1  0
 36 37  2  0
 37 38  1  0
 37 39  1  0
 39 40  2  0
 40 41  1  0
 41 42  1  0
 42 43  2  0
 43 44  1  0
 44 45  2  0
 45 46  1  0
 46 47  1  0
 45 48  1  0
 48 49  2  0
 41 50  1  0
 50 51  2  0
 51 52  1  0
 52 53  2  0
 53 54  1  0
 54 55  1  0
 53 56  1  0
 56 57  2  0
 40 58  1  0
 58 59  1  0
 59 60  1  0
 60 61  2  0
 61 62  1  0
 62 63  1  0
 63 64  2  0
 64 65  1  0
 65 66  2  0
 66 67  1  0
 67 68  1  0
 66 69  1  0
 69 70  2  0
 62 71  1  0
 71 72  2  0
 72 73  1  0
 73 74  2  0
 74 75  1  0
 75 76  1  0
 74 77  1  0
 77 78  2  0
 61 79  1  0
 79 80  1  0
 60 81  1  0
 81 82  1  0
 82 83  1  0
 83 84  1  0
 84 85  2  0
 85 86  1  0
 86 87  1  0
 87 88  1  0
 86 89  1  0
 89 90  1  0
 86 91  1  0
 91 92  1  0
 85 93  1  0
 93 94  2  0
 94 95  1  0
 94 96  1  0
 96 97  2  3
 97 98  1  0
 98 99  2  0
 98100  1  0
100101  2  0
101102  1  0
102103  1  0
102104  2  0
104105  1  0
105106  2  0
106107  1  0
107108  2  3
108109  1  0
109110  3  0
108111  1  0
111112  3  0
 11  2  1  0
 23 17  1  0
 35 24  2  0
 80 39  1  0
 92 81  2  0
107 97  1  0
 10  5  1  0
 22 18  1  0
 34 26  2  0
 49 42  1  0
 57 50  1  0
 79 58  2  0
 91 83  2  0
106100  1  0
 23  7  1  0
 38 27  1  0
 70 63  1  0
 78 71  1  0
 95 84  1  0
  1113  1  0
  6114  1  0
  9115  1  0
 17116  1  0
 18117  1  0
 19118  1  0
 20119  1  0
 21120  1  0
 22121  1  0
 22122  1  0
 23123  1  0
 30124  1  0
 30125  1  0
 31126  1  0
 31127  1  0
 31128  1  0
 32129  1  0
 32130  1  0
 33131  1  0
 33132  1  0
 33133  1  0
 35134  1  0
 36135  1  0
 43136  1  0
 44137  1  0
 47138  1  0
 47139  1  0
 47140  1  0
 48141  1  0
 49142  1  0
 51143  1  0
 52144  1  0
 55145  1  0
 55146  1  0
 55147  1  0
 56148  1  0
 57149  1  0
 64150  1  0
 65151  1  0
 68152  1  0
 68153  1  0
 68154  1  0
 69155  1  0
 70156  1  0
 72157  1  0
 73158  1  0
 76159  1  0
 76160  1  0
 76161  1  0
 77162  1  0
 78163  1  0
 87164  1  0
 87165  1  0
 88166  1  0
 88167  1  0
 88168  1  0
 89169  1  0
 89170  1  0
 90171  1  0
 90172  1  0
 90173  1  0
 92174  1  0
 93175  1  0
 96176  1  0
101177  1  0
104178  1  0
105179  1  0
M  END

