
     RDKit          3D

174192  0  0  0  0  0  0  0  0999 V2000
   -0.2495    3.3120   -5.8606 C   0  0  0  0  0  0  0  0  0  0  0  0
   -1.4027    3.5797   -6.5049 C   0  0  0  0  0  0  0  0  0  0  0  0
   -2.7198    3.8769   -5.9427 C   0  0  0  0  0  0  0  0  0  0  0  0
   -2.9919    4.8988   -5.2678 O   0  0  0  0  0  0  0  0  0  0  0  0
   -3.7104    3.1374   -6.7023 C   0  0  0  0  0  0  0  0  0  0  0  0
   -5.0695    2.9180   -6.3738 C   0  0  0  0  0  0  0  0  0  0  0  0
   -5.7305    2.0865   -7.2637 C   0  0  0  0  0  0  0  0  0  0  0  0
   -5.0948    1.5103   -8.4117 C   0  0  0  0  0  0  0  0  0  0  0  0
   -3.7725    1.7357   -8.7454 C   0  0  0  0  0  0  0  0  0  0  0  0
   -3.0888    2.6031   -7.8546 C   0  0  0  0  0  0  0  0  0  0  0  0
   -1.6743    3.0317   -7.8655 C   0  0  0  0  0  0  0  0  0  0  0  0
   -0.8720    3.1478   -8.9507 C   0  0  0  0  0  0  0  0  0  0  0  0
   -1.3027    2.7608  -10.2712 C   0  0  0  0  0  0  0  0  0  0  0  0
   -1.6376    2.4579  -11.3363 N   0  0  0  0  0  0  0  0  0  0  0  0
    0.4024    3.8173   -8.8776 C   0  0  0  0  0  0  0  0  0  0  0  0
    1.4266    4.3596   -8.8207 N   0  0  0  0  0  0  0  0  0  0  0  0
   -6.3634    0.8097   -8.7870 C   0  0  0  0  0  0  0  0  0  0  0  0
   -7.1769    1.3775   -9.9888 C   0  0  0  0  0  0  0  0  0  0  0  0
   -6.9806    2.8723  -10.0887 C   0  0  0  0  0  0  0  0  0  0  0  0
   -7.5808    3.4044   -9.0239 C   0  0  0  0  0  0  0  0  0  0  0  0
   -8.1646    2.2562   -8.2340 C   0  0  0  0  0  0  0  0  0  0  0  0
   -8.5703    1.3566   -9.3893 C   0  0  0  0  0  0  0  0  0  0  0  0
   -7.0192    1.3997   -7.6154 C   0  0  0  0  0  0  0  0  0  0  0  0
    0.1161    3.2581   -4.4172 C   0  0  0  0  0  0  0  0  0  0  0  0
   -0.3514    3.8992   -3.2340 C   0  0  0  0  0  0  0  0  0  0  0  0
   -1.6389    4.4927   -3.0343 N   0  0  0  0  0  0  0  0  0  0  0  0
   -2.7760    3.6424   -2.6984 C   0  0  0  0  0  0  0  0  0  0  0  0
   -2.6203    2.2489   -2.5081 C   0  0  0  0  0  0  0  0  0  0  0  0
   -3.7195    1.4354   -2.2224 C   0  0  0  0  0  0  0  0  0  0  0  0
   -4.9980    1.9909   -2.1249 C   0  0  0  0  0  0  0  0  0  0  0  0
   -6.4058    0.9459   -1.7542 S   0  0  0  0  0  0  0  0  0  0  0  0
   -6.1811    1.0807    0.0475 C   0  0  0  0  0  0  0  0  0  0  0  0
   -5.1746    3.3625   -2.3190 C   0  0  0  0  0  0  0  0  0  0  0  0
   -4.0783    4.1793   -2.6118 C   0  0  0  0  0  0  0  0  0  0  0  0
   -1.6346    5.9107   -2.7651 C   0  0  0  0  0  0  0  0  0  0  0  0
   -1.0412    6.7968   -3.6799 C   0  0  0  0  0  0  0  0  0  0  0  0
   -0.9760    8.1646   -3.3991 C   0  0  0  0  0  0  0  0  0  0  0  0
   -1.4913    8.6603   -2.1966 C   0  0  0  0  0  0  0  0  0  0  0  0
   -1.4099   10.4166   -1.8378 S   0  0  0  0  0  0  0  0  0  0  0  0
    0.1949   10.2898   -0.9895 C   0  0  0  0  0  0  0  0  0  0  0  0
   -2.0748    7.7846   -1.2756 C   0  0  0  0  0  0  0  0  0  0  0  0
   -2.1362    6.4151   -1.5512 C   0  0  0  0  0  0  0  0  0  0  0  0
    0.4623    3.6013   -2.1339 C   0  0  0  0  0  0  0  0  0  0  0  0
    0.2989    3.8452   -0.4795 S   0  0  0  0  0  0  0  0  0  0  0  0
    1.5762    2.7899   -0.0702 C   0  0  0  0  0  0  0  0  0  0  0  0
    2.0813    2.1900   -1.2384 C   0  0  0  0  0  0  0  0  0  0  0  0
    2.6920    0.8826   -1.2481 N   0  0  0  0  0  0  0  0  0  0  0  0
    1.9355   -0.2377   -1.7572 C   0  0  0  0  0  0  0  0  0  0  0  0
    2.5639   -1.2237   -2.5421 C   0  0  0  0  0  0  0  0  0  0  0  0
    1.8114   -2.2422   -3.1347 C   0  0  0  0  0  0  0  0  0  0  0  0
    0.4242   -2.2825   -2.9585 C   0  0  0  0  0  0  0  0  0  0  0  0
   -0.5513   -3.5207   -3.8116 S   0  0  0  0  0  0  0  0  0  0  0  0
   -0.7506   -2.4918   -5.2991 C   0  0  0  0  0  0  0  0  0  0  0  0
   -0.2041   -1.3329   -2.1485 C   0  0  0  0  0  0  0  0  0  0  0  0
    0.5443   -0.3198   -1.5475 C   0  0  0  0  0  0  0  0  0  0  0  0
    4.0305    0.6952   -0.7533 C   0  0  0  0  0  0  0  0  0  0  0  0
    4.3234   -0.3820    0.1014 C   0  0  0  0  0  0  0  0  0  0  0  0
    5.6254   -0.5782    0.5677 C   0  0  0  0  0  0  0  0  0  0  0  0
    6.6470    0.2943    0.1808 C   0  0  0  0  0  0  0  0  0  0  0  0
    8.3226    0.0177    0.7568 S   0  0  0  0  0  0  0  0  0  0  0  0
    8.7765   -0.9876   -0.6918 C   0  0  0  0  0  0  0  0  0  0  0  0
    6.3603    1.3746   -0.6603 C   0  0  0  0  0  0  0  0  0  0  0  0
    5.0597    1.5724   -1.1324 C   0  0  0  0  0  0  0  0  0  0  0  0
    1.4628    2.7224   -2.3663 C   0  0  0  0  0  0  0  0  0  0  0  0
    1.4543    2.2965   -3.9757 S   0  0  0  0  0  0  0  0  0  0  0  0
    1.9064    2.3424    1.2928 C   0  0  0  0  0  0  0  0  0  0  0  0
    3.2216    2.4868    1.7598 C   0  0  0  0  0  0  0  0  0  0  0  0
    4.1107    3.2484    1.0754 F   0  0  0  0  0  0  0  0  0  0  0  0
    3.6496    1.7928    2.8922 C   0  0  0  0  0  0  0  0  0  0  0  0
    4.9658    1.8232    3.2265 F   0  0  0  0  0  0  0  0  0  0  0  0
    2.7509    0.9828    3.6086 C   0  0  0  0  0  0  0  0  0  0  0  0
    1.3935    0.9706    3.2388 C   0  0  0  0  0  0  0  0  0  0  0  0
    0.4736    0.3037    3.9862 N   0  0  0  0  0  0  0  0  0  0  0  0
   -0.8483    0.2801    3.6596 C   0  0  0  0  0  0  0  0  0  0  0  0
   -1.8222   -0.4380    4.5690 C   0  0  0  0  0  0  0  0  0  0  0  0
   -1.2948   -0.5986    5.9950 C   0  0  0  0  0  0  0  0  0  0  0  0
   -1.2592    0.8999    2.4555 C   0  0  0  0  0  0  0  0  0  0  0  0
   -0.3363    1.5633    1.7084 N   0  0  0  0  0  0  0  0  0  0  0  0
    0.9707    1.6398    2.0747 C   0  0  0  0  0  0  0  0  0  0  0  0
   -2.6943    0.9274    1.9964 C   0  0  0  0  0  0  0  0  0  0  0  0
   -3.3934    2.1879    2.5024 C   0  0  0  0  0  0  0  0  0  0  0  0
    3.2756   -0.0122    4.5682 C   0  0  0  0  0  0  0  0  0  0  0  0
    3.9909    0.3666    5.7172 C   0  0  0  0  0  0  0  0  0  0  0  0
    4.1195    1.6767    6.0483 F   0  0  0  0  0  0  0  0  0  0  0  0
    4.6065   -0.6097    6.5131 C   0  0  0  0  0  0  0  0  0  0  0  0
    4.5151   -1.9677    6.1735 C   0  0  0  0  0  0  0  0  0  0  0  0
    3.8169   -2.3326    5.0076 C   0  0  0  0  0  0  0  0  0  0  0  0
    3.1859   -1.3684    4.2283 C   0  0  0  0  0  0  0  0  0  0  0  0
    5.3179   -2.9686    6.9134 C   0  0  0  0  0  0  0  0  0  0  0  0
    4.9053   -4.2240    7.1775 C   0  0  0  0  0  0  0  0  0  0  0  0
    3.5584   -4.7463    6.9196 C   0  0  0  0  0  0  0  0  0  0  0  0
    2.4844   -4.0857    6.9433 O   0  0  0  0  0  0  0  0  0  0  0  0
    3.6581   -6.1625    6.6447 C   0  0  0  0  0  0  0  0  0  0  0  0
    2.6635   -6.9835    6.0647 C   0  0  0  0  0  0  0  0  0  0  0  0
    3.1268   -8.2255    5.6735 C   0  0  0  0  0  0  0  0  0  0  0  0
    4.4859   -8.6437    5.8396 C   0  0  0  0  0  0  0  0  0  0  0  0
    5.4631   -7.8468    6.4166 C   0  0  0  0  0  0  0  0  0  0  0  0
    5.0031   -6.5706    6.8437 C   0  0  0  0  0  0  0  0  0  0  0  0
    5.7900   -5.4114    7.3469 C   0  0  0  0  0  0  0  0  0  0  0  0
    6.9768   -5.4589    7.9998 C   0  0  0  0  0  0  0  0  0  0  0  0
    7.6807   -6.6949    8.2224 C   0  0  0  0  0  0  0  0  0  0  0  0
    8.2544   -7.6841    8.4077 N   0  0  0  0  0  0  0  0  0  0  0  0
    7.5404   -4.3014    8.6459 C   0  0  0  0  0  0  0  0  0  0  0  0
    7.9937   -3.3740    9.1702 N   0  0  0  0  0  0  0  0  0  0  0  0
    4.1953   -9.9319    5.1251 C   0  0  0  0  0  0  0  0  0  0  0  0
    4.7052  -10.0806    3.6583 C   0  0  0  0  0  0  0  0  0  0  0  0
    4.7404   -8.7302    2.9788 C   0  0  0  0  0  0  0  0  0  0  0  0
    3.4717   -8.3423    2.8336 C   0  0  0  0  0  0  0  0  0  0  0  0
    2.6172   -9.4440    3.4135 C   0  0  0  0  0  0  0  0  0  0  0  0
    3.4561  -10.6405    3.0030 C   0  0  0  0  0  0  0  0  0  0  0  0
    2.8020   -9.5043    4.9607 C   0  0  0  0  0  0  0  0  0  0  0  0
    0.5304    2.8828   -6.4742 H   0  0  0  0  0  0  0  0  0  0  0  0
   -5.5414    3.3306   -5.4916 H   0  0  0  0  0  0  0  0  0  0  0  0
   -3.3164    1.2536   -9.5956 H   0  0  0  0  0  0  0  0  0  0  0  0
   -6.2933   -0.3005   -8.7480 H   0  0  0  0  0  0  0  0  0  0  0  0
   -7.0584    0.8222  -10.9436 H   0  0  0  0  0  0  0  0  0  0  0  0
   -6.5165    3.4226  -10.8995 H   0  0  0  0  0  0  0  0  0  0  0  0
   -7.6861    4.4651   -8.8165 H   0  0  0  0  0  0  0  0  0  0  0  0
   -8.9825    2.5337   -7.5373 H   0  0  0  0  0  0  0  0  0  0  0  0
   -8.9036    0.3422   -9.0672 H   0  0  0  0  0  0  0  0  0  0  0  0
   -9.3444    1.8094  -10.0561 H   0  0  0  0  0  0  0  0  0  0  0  0
   -7.3487    0.6499   -6.8631 H   0  0  0  0  0  0  0  0  0  0  0  0
   -1.6528    1.7729   -2.5815 H   0  0  0  0  0  0  0  0  0  0  0  0
   -3.5762    0.3721   -2.0716 H   0  0  0  0  0  0  0  0  0  0  0  0
   -6.1572    2.1498    0.3441 H   0  0  0  0  0  0  0  0  0  0  0  0
   -5.2335    0.5851    0.3464 H   0  0  0  0  0  0  0  0  0  0  0  0
   -7.0265    0.5809    0.5635 H   0  0  0  0  0  0  0  0  0  0  0  0
   -6.1675    3.7970   -2.2556 H   0  0  0  0  0  0  0  0  0  0  0  0
   -4.2581    5.2287   -2.7921 H   0  0  0  0  0  0  0  0  0  0  0  0
   -0.6231    6.4228   -4.6064 H   0  0  0  0  0  0  0  0  0  0  0  0
   -0.5167    8.8374   -4.1125 H   0  0  0  0  0  0  0  0  0  0  0  0
    0.1364    9.5508   -0.1601 H   0  0  0  0  0  0  0  0  0  0  0  0
    0.4623   11.2788   -0.5647 H   0  0  0  0  0  0  0  0  0  0  0  0
    0.9804    9.9795   -1.7079 H   0  0  0  0  0  0  0  0  0  0  0  0
   -2.4604    8.1606   -0.3378 H   0  0  0  0  0  0  0  0  0  0  0  0
   -2.5589    5.7487   -0.8105 H   0  0  0  0  0  0  0  0  0  0  0  0
    3.6294   -1.1834   -2.7239 H   0  0  0  0  0  0  0  0  0  0  0  0
    2.3037   -2.9752   -3.7612 H   0  0  0  0  0  0  0  0  0  0  0  0
   -1.3303   -3.0583   -6.0540 H   0  0  0  0  0  0  0  0  0  0  0  0
    0.2409   -2.2372   -5.7209 H   0  0  0  0  0  0  0  0  0  0  0  0
   -1.3000   -1.5590   -5.0469 H   0  0  0  0  0  0  0  0  0  0  0  0
   -1.2766   -1.3652   -2.0014 H   0  0  0  0  0  0  0  0  0  0  0  0
    0.0360    0.4137   -0.9384 H   0  0  0  0  0  0  0  0  0  0  0  0
    3.5428   -1.0647    0.4114 H   0  0  0  0  0  0  0  0  0  0  0  0
    5.8409   -1.4145    1.2207 H   0  0  0  0  0  0  0  0  0  0  0  0
    8.1001   -1.8613   -0.7853 H   0  0  0  0  0  0  0  0  0  0  0  0
    9.8157   -1.3517   -0.5674 H   0  0  0  0  0  0  0  0  0  0  0  0
    8.7208   -0.3713   -1.6115 H   0  0  0  0  0  0  0  0  0  0  0  0
    7.1475    2.0542   -0.9610 H   0  0  0  0  0  0  0  0  0  0  0  0
    4.8522    2.4045   -1.7950 H   0  0  0  0  0  0  0  0  0  0  0  0
   -2.7723    0.1304    4.6340 H   0  0  0  0  0  0  0  0  0  0  0  0
   -2.0429   -1.4430    4.1452 H   0  0  0  0  0  0  0  0  0  0  0  0
   -2.0836   -1.0480    6.6362 H   0  0  0  0  0  0  0  0  0  0  0  0
   -1.0159    0.3897    6.4187 H   0  0  0  0  0  0  0  0  0  0  0  0
   -0.4077   -1.2691    6.0066 H   0  0  0  0  0  0  0  0  0  0  0  0
   -3.2428    0.0255    2.3326 H   0  0  0  0  0  0  0  0  0  0  0  0
   -2.7255    0.9225    0.8854 H   0  0  0  0  0  0  0  0  0  0  0  0
   -3.2999    2.2715    3.6077 H   0  0  0  0  0  0  0  0  0  0  0  0
   -4.4717    2.1464    2.2435 H   0  0  0  0  0  0  0  0  0  0  0  0
   -2.9455    3.0890    2.0317 H   0  0  0  0  0  0  0  0  0  0  0  0
    5.1808   -0.3028    7.3816 H   0  0  0  0  0  0  0  0  0  0  0  0
    3.7996   -3.3588    4.6663 H   0  0  0  0  0  0  0  0  0  0  0  0
    2.6788   -1.6753    3.3225 H   0  0  0  0  0  0  0  0  0  0  0  0
    6.3486   -2.6956    7.0795 H   0  0  0  0  0  0  0  0  0  0  0  0
    1.6576   -6.6449    5.8618 H   0  0  0  0  0  0  0  0  0  0  0  0
    6.4946   -8.1607    6.4390 H   0  0  0  0  0  0  0  0  0  0  0  0
    4.3135  -10.8370    5.7580 H   0  0  0  0  0  0  0  0  0  0  0  0
    5.6237  -10.6916    3.5350 H   0  0  0  0  0  0  0  0  0  0  0  0
    5.6135   -8.2027    2.6090 H   0  0  0  0  0  0  0  0  0  0  0  0
    3.1358   -7.4468    2.3234 H   0  0  0  0  0  0  0  0  0  0  0  0
    1.5634   -9.4564    3.0635 H   0  0  0  0  0  0  0  0  0  0  0  0
    3.5463  -10.7599    1.8968 H   0  0  0  0  0  0  0  0  0  0  0  0
    3.1123  -11.6047    3.4530 H   0  0  0  0  0  0  0  0  0  0  0  0
    2.0685  -10.1448    5.4942 H   0  0  0  0  0  0  0  0  0  0  0  0
  1  2  2  3
  2  3  1  0
  3  4  2  0
  3  5  1  0
  5  6  2  0
  6  7  1  0
  7  8  2  0
  8  9  1  0
  9 10  2  0
 10 11  1  0
 11 12  2  3
 12 13  1  0
 13 14  3  0
 12 15  1  0
 15 16  3  0
  8 17  1  0
 17 18  1  0
 18 19  1  0
 19 20  2  0
 20 21  1  0
 21 22  1  0
 21 23  1  0
  1 24  1  0
 24 25  2  0
 25 26  1  0
 26 27  1  0
 27 28  2  0
 28 29  1  0
 29 30  2  0
 30 31  1  0
 31 32  1  0
 30 33  1  0
 33 34  2  0
 26 35  1  0
 35 36  2  0
 36 37  1  0
 37 38  2  0
 38 39  1  0
 39 40  1  0
 38 41  1  0
 41 42  2  0
 25 43  1  0
 43 44  1  0
 44 45  1  0
 45 46  2  0
 46 47  1  0
 47 48  1  0
 48 49  2  0
 49 50  1  0
 50 51  2  0
 51 52  1  0
 52 53  1  0
 51 54  1  0
 54 55  2  0
 47 56  1  0
 56 57  2  0
 57 58  1  0
 58 59  2  0
 59 60  1  0
 60 61  1  0
 59 62  1  0
 62 63  2  0
 46 64  1  0
 64 65  1  0
 45 66  1  0
 66 67  2  0
 67 68  1  0
 67 69  1  0
 69 70  1  0
 69 71  2  0
 71 72  1  0
 72 73  2  0
 73 74  1  0
 74 75  1  0
 75 76  1  0
 74 77  2  0
 77 78  1  0
 78 79  2  0
 77 80  1  0
 80 81  1  0
 71 82  1  0
 82 83  2  0
 83 84  1  0
 83 85  1  0
 85 86  2  0
 86 87  1  0
 87 88  2  0
 86 89  1  0
 89 90  2  3
 90 91  1  0
 91 92  2  0
 91 93  1  0
 93 94  2  0
 94 95  1  0
 95 96  2  0
 96 97  1  0
 97 98  2  0
 98 99  1  0
 99100  2  3
100101  1  0
101102  3  0
100103  1  0
103104  3  0
 96105  1  0
105106  1  0
106107  1  0
107108  2  0
108109  1  0
109110  1  0
109111  1  0
 11  2  1  0
 23 17  1  0
 65 24  1  0
 79 66  1  0
 88 82  1  0
 99 90  1  0
111105  1  0
 10  5  1  0
 22 18  1  0
 34 27  1  0
 42 35  1  0
 64 43  2  0
 79 72  1  0
 98 93  1  0
110106  1  0
 23  7  1  0
 55 48  1  0
 63 56  1  0
111 95  1  0
  1112  1  0
  6113  1  0
  9114  1  0
 17115  1  0
 18116  1  0
 19117  1  0
 20118  1  0
 21119  1  0
 22120  1  0
 22121  1  0
 23122  1  0
 28123  1  0
 29124  1  0
 32125  1  0
 32126  1  0
 32127  1  0
 33128  1  0
 34129  1  0
 36130  1  0
 37131  1  0
 40132  1  0
 40133  1  0
 40134  1  0
 41135  1  0
 42136  1  0
 49137  1  0
 50138  1  0
 53139  1  0
 53140  1  0
 53141  1  0
 54142  1  0
 55143  1  0
 57144  1  0
 58145  1  0
 61146  1  0
 61147  1  0
 61148  1  0
 62149  1  0
 63150  1  0
 75151  1  0
 75152  1  0
 76153  1  0
 76154  1  0
 76155  1  0
 80156  1  0
 80157  1  0
 81158  1  0
 81159  1  0
 81160  1  0
 85161  1  0
 87162  1  0
 88163  1  0
 89164  1  0
 94165  1  0
 97166  1  0
105167  1  0
106168  1  0
107169  1  0
108170  1  0
109171  1  0
110172  1  0
110173  1  0
111174  1  0
M  END

