
     RDKit          3D

192215  0  0  0  0  0  0  0  0999 V2000
   -1.7914   -0.4196   -8.7472 C   0  0  0  0  0  0  0  0  0  0  0  0
   -2.8709   -0.6884   -7.9803 C   0  0  0  0  0  0  0  0  0  0  0  0
   -4.2394   -0.4399   -8.4331 C   0  0  0  0  0  0  0  0  0  0  0  0
   -4.5726    0.2844   -9.4076 O   0  0  0  0  0  0  0  0  0  0  0  0
   -5.1453   -1.2342   -7.6261 C   0  0  0  0  0  0  0  0  0  0  0  0
   -6.5531   -1.3046   -7.7392 C   0  0  0  0  0  0  0  0  0  0  0  0
   -7.1472   -2.1451   -6.8183 C   0  0  0  0  0  0  0  0  0  0  0  0
   -6.4039   -2.8898   -5.8475 C   0  0  0  0  0  0  0  0  0  0  0  0
   -5.0267   -2.8325   -5.7341 C   0  0  0  0  0  0  0  0  0  0  0  0
   -4.3938   -1.9553   -6.6587 C   0  0  0  0  0  0  0  0  0  0  0  0
   -2.9679   -1.5327   -6.7475 C   0  0  0  0  0  0  0  0  0  0  0  0
   -2.0814   -1.5543   -5.7188 C   0  0  0  0  0  0  0  0  0  0  0  0
   -1.0614   -0.5480   -5.5747 C   0  0  0  0  0  0  0  0  0  0  0  0
   -0.2476    0.2638   -5.4256 N   0  0  0  0  0  0  0  0  0  0  0  0
   -2.1869   -2.4768   -4.6188 C   0  0  0  0  0  0  0  0  0  0  0  0
   -2.2478   -3.2198   -3.7310 N   0  0  0  0  0  0  0  0  0  0  0  0
   -7.6714   -3.4597   -5.2861 C   0  0  0  0  0  0  0  0  0  0  0  0
   -8.1754   -2.9007   -3.9218 C   0  0  0  0  0  0  0  0  0  0  0  0
   -7.7547   -1.4579   -3.7647 C   0  0  0  0  0  0  0  0  0  0  0  0
   -8.4491   -0.7608   -4.6648 C   0  0  0  0  0  0  0  0  0  0  0  0
   -9.3188   -1.7514   -5.4032 C   0  0  0  0  0  0  0  0  0  0  0  0
   -9.6407   -2.6865   -4.2523 C   0  0  0  0  0  0  0  0  0  0  0  0
   -8.4348   -2.6948   -6.2771 C   0  0  0  0  0  0  0  0  0  0  0  0
   -0.4451   -0.9718   -8.4975 C   0  0  0  0  0  0  0  0  0  0  0  0
   -0.2323   -2.3414   -8.3153 C   0  0  0  0  0  0  0  0  0  0  0  0
    0.9817   -2.8259   -7.7714 C   0  0  0  0  0  0  0  0  0  0  0  0
    1.0147   -4.2485   -7.6015 N   0  0  0  0  0  0  0  0  0  0  0  0
   -0.4362   -4.6540   -8.1220 S   0  0  0  0  0  4  0  0  0  0  0  0
   -1.2185   -3.3457   -8.5832 N   0  0  0  0  0  0  0  0  0  0  0  0
    2.0042   -1.9431   -7.3434 C   0  0  0  0  0  0  0  0  0  0  0  0
    1.8823   -0.5963   -7.7731 C   0  0  0  0  0  0  0  0  0  0  0  0
    2.8591    0.3346   -7.6223 N   0  0  0  0  0  0  0  0  0  0  0  0
    2.1094    1.6869   -8.1977 S   0  0  0  0  0  0  0  0  0  0  0  0
    0.5949    1.2052   -8.6415 N   0  0  0  0  0  0  0  0  0  0  0  0
    0.6552   -0.1193   -8.3457 C   0  0  0  0  0  0  0  0  0  0  0  0
    2.9274   -2.3495   -6.2297 C   0  0  0  0  0  0  0  0  0  0  0  0
    3.7672   -1.4979   -5.4872 C   0  0  0  0  0  0  0  0  0  0  0  0
    4.0112   -1.9312   -4.1677 C   0  0  0  0  0  0  0  0  0  0  0  0
    4.5939   -1.1516   -3.1473 C   0  0  0  0  0  0  0  0  0  0  0  0
    5.2279    0.1528   -3.4405 C   0  0  0  0  0  0  0  0  0  0  0  0
    4.7232    1.6382   -2.8372 S   0  0  0  0  0  0  0  0  0  0  0  0
    5.8697    2.5753   -3.6442 C   0  0  0  0  0  0  0  0  0  0  0  0
    6.0280    4.0630   -3.4908 C   0  0  0  0  0  0  0  0  0  0  0  0
    4.7010    4.7882   -3.6949 C   0  0  0  0  0  0  0  0  0  0  0  0
    6.6867    1.7197   -4.3887 C   0  0  0  0  0  0  0  0  0  0  0  0
    8.0491    2.2652   -5.3586 Cl  0  0  0  0  0  0  0  0  0  0  0  0
    6.3164    0.3683   -4.2822 C   0  0  0  0  0  0  0  0  0  0  0  0
    7.1841   -0.9274   -5.0908 Cl  0  0  0  0  0  0  0  0  0  0  0  0
    4.4091   -1.6058   -1.8275 C   0  0  0  0  0  0  0  0  0  0  0  0
    3.7664   -2.8125   -1.5243 C   0  0  0  0  0  0  0  0  0  0  0  0
    3.3094   -3.6599   -2.5548 C   0  0  0  0  0  0  0  0  0  0  0  0
    2.6572   -4.9560   -2.2622 C   0  0  0  0  0  0  0  0  0  0  0  0
    3.1811   -5.9479   -1.4384 C   0  0  0  0  0  0  0  0  0  0  0  0
    2.3881   -7.1019   -1.3828 C   0  0  0  0  0  0  0  0  0  0  0  0
    1.2389   -7.0139   -2.1540 C   0  0  0  0  0  0  0  0  0  0  0  0
    0.2395   -8.1065   -2.3645 C   0  0  0  0  0  0  0  0  0  0  0  0
    0.7201   -9.0830   -3.4267 C   0  0  0  0  0  0  0  0  0  0  0  0
    1.2016   -5.5126   -2.9075 S   0  0  0  0  0  0  0  0  0  0  0  0
    3.4152   -3.1569   -3.8662 C   0  0  0  0  0  0  0  0  0  0  0  0
    2.6119   -3.6814   -5.2326 S   0  0  0  0  0  0  0  0  0  0  0  0
    3.4559   -2.9456   -0.1580 C   0  0  0  0  0  0  0  0  0  0  0  0
    3.8095   -1.8287    0.6039 C   0  0  0  0  0  0  0  0  0  0  0  0
    4.5959   -0.7304   -0.4107 S   0  0  0  0  0  0  0  0  0  0  0  0
    3.2012   -1.4092    1.8835 C   0  0  0  0  0  0  0  0  0  0  0  0
    2.1777   -2.0505    2.6229 C   0  0  0  0  0  0  0  0  0  0  0  0
    1.9278   -3.4631    2.6478 N   0  0  0  0  0  0  0  0  0  0  0  0
    0.8967   -4.0557    1.8200 C   0  0  0  0  0  0  0  0  0  0  0  0
   -0.0875   -3.2626    1.1969 C   0  0  0  0  0  0  0  0  0  0  0  0
   -1.0582   -3.8495    0.3795 C   0  0  0  0  0  0  0  0  0  0  0  0
   -1.0604   -5.2313    0.1699 C   0  0  0  0  0  0  0  0  0  0  0  0
   -2.2788   -5.9736   -0.9145 S   0  0  0  0  0  0  0  0  0  0  0  0
   -3.4133   -6.4187    0.4312 C   0  0  0  0  0  0  0  0  0  0  0  0
   -0.0824   -6.0264    0.7737 C   0  0  0  0  0  0  0  0  0  0  0  0
    0.8957   -5.4443    1.5813 C   0  0  0  0  0  0  0  0  0  0  0  0
    2.4839   -4.1798    3.7718 C   0  0  0  0  0  0  0  0  0  0  0  0
    1.6513   -4.9195    4.6317 C   0  0  0  0  0  0  0  0  0  0  0  0
    2.1683   -5.4868    5.7998 C   0  0  0  0  0  0  0  0  0  0  0  0
    3.5161   -5.3118    6.1286 C   0  0  0  0  0  0  0  0  0  0  0  0
    4.1642   -5.9805    7.6602 S   0  0  0  0  0  0  0  0  0  0  0  0
    3.7375   -4.5004    8.6349 C   0  0  0  0  0  0  0  0  0  0  0  0
    4.3545   -4.5894    5.2713 C   0  0  0  0  0  0  0  0  0  0  0  0
    3.8425   -4.0279    4.0989 C   0  0  0  0  0  0  0  0  0  0  0  0
    1.6386   -1.1978    3.5831 C   0  0  0  0  0  0  0  0  0  0  0  0
    0.4550   -1.3492    4.7683 S   0  0  0  0  0  0  0  0  0  0  0  0
    0.6673    0.2432    5.3377 C   0  0  0  0  0  0  0  0  0  0  0  0
    1.6970    0.8703    4.6256 C   0  0  0  0  0  0  0  0  0  0  0  0
    2.3879    2.0473    5.0718 N   0  0  0  0  0  0  0  0  0  0  0  0
    1.8622    3.3496    4.7670 C   0  0  0  0  0  0  0  0  0  0  0  0
    1.3915    3.6452    3.4767 C   0  0  0  0  0  0  0  0  0  0  0  0
    0.9458    4.9318    3.1686 C   0  0  0  0  0  0  0  0  0  0  0  0
    0.9805    5.9385    4.1419 C   0  0  0  0  0  0  0  0  0  0  0  0
    0.4726    7.6041    3.7186 S   0  0  0  0  0  0  0  0  0  0  0  0
    2.1499    8.1236    3.2337 C   0  0  0  0  0  0  0  0  0  0  0  0
    1.4256    5.6423    5.4350 C   0  0  0  0  0  0  0  0  0  0  0  0
    1.8694    4.3541    5.7466 C   0  0  0  0  0  0  0  0  0  0  0  0
    3.7400    1.8929    5.5535 C   0  0  0  0  0  0  0  0  0  0  0  0
    4.0774    0.7918    6.3629 C   0  0  0  0  0  0  0  0  0  0  0  0
    5.4110    0.5327    6.6848 C   0  0  0  0  0  0  0  0  0  0  0  0
    6.4222    1.3707    6.2052 C   0  0  0  0  0  0  0  0  0  0  0  0
    8.1431    0.9826    6.5282 S   0  0  0  0  0  0  0  0  0  0  0  0
    8.3180   -0.0204    5.0189 C   0  0  0  0  0  0  0  0  0  0  0  0
    6.0924    2.4964    5.4435 C   0  0  0  0  0  0  0  0  0  0  0  0
    4.7591    2.7599    5.1210 C   0  0  0  0  0  0  0  0  0  0  0  0
    2.1978    0.0311    3.6439 C   0  0  0  0  0  0  0  0  0  0  0  0
    3.4059    0.1704    2.5009 S   0  0  0  0  0  0  0  0  0  0  0  0
   -0.0851    0.8532    6.4375 C   0  0  0  0  0  0  0  0  0  0  0  0
   -0.8315    1.9580    6.2587 C   0  0  0  0  0  0  0  0  0  0  0  0
   -1.3153    2.4303    4.9531 C   0  0  0  0  0  0  0  0  0  0  0  0
   -1.0951    1.8941    3.8348 O   0  0  0  0  0  0  0  0  0  0  0  0
   -2.2130    3.5368    5.1618 C   0  0  0  0  0  0  0  0  0  0  0  0
   -2.8791    4.2783    4.1613 C   0  0  0  0  0  0  0  0  0  0  0  0
   -3.6866    5.2817    4.6545 C   0  0  0  0  0  0  0  0  0  0  0  0
   -3.8416    5.5448    6.0507 C   0  0  0  0  0  0  0  0  0  0  0  0
   -3.1976    4.8188    7.0386 C   0  0  0  0  0  0  0  0  0  0  0  0
   -2.3446    3.7833    6.5565 C   0  0  0  0  0  0  0  0  0  0  0  0
   -1.4497    2.8413    7.3009 C   0  0  0  0  0  0  0  0  0  0  0  0
   -1.1071    2.9120    8.6163 C   0  0  0  0  0  0  0  0  0  0  0  0
   -0.0218    2.1473    9.1750 C   0  0  0  0  0  0  0  0  0  0  0  0
    0.8532    1.5376    9.6283 N   0  0  0  0  0  0  0  0  0  0  0  0
   -1.7083    3.8389    9.5376 C   0  0  0  0  0  0  0  0  0  0  0  0
   -2.1749    4.5753   10.2977 N   0  0  0  0  0  0  0  0  0  0  0  0
   -4.7562    6.6941    5.7491 C   0  0  0  0  0  0  0  0  0  0  0  0
   -4.1498    8.1190    5.9157 C   0  0  0  0  0  0  0  0  0  0  0  0
   -5.0880    9.0562    5.1915 C   0  0  0  0  0  0  0  0  0  0  0  0
   -4.9437    8.8041    3.8859 C   0  0  0  0  0  0  0  0  0  0  0  0
   -3.9129    7.7085    3.7729 C   0  0  0  0  0  0  0  0  0  0  0  0
   -3.0042    8.1231    4.9179 C   0  0  0  0  0  0  0  0  0  0  0  0
   -4.5978    6.4212    4.3179 C   0  0  0  0  0  0  0  0  0  0  0  0
   -1.9106    0.2121   -9.6191 H   0  0  0  0  0  0  0  0  0  0  0  0
   -7.1213   -0.7415   -8.4680 H   0  0  0  0  0  0  0  0  0  0  0  0
   -4.5154   -3.4192   -4.9919 H   0  0  0  0  0  0  0  0  0  0  0  0
   -7.7620   -4.5622   -5.4055 H   0  0  0  0  0  0  0  0  0  0  0  0
   -7.9749   -3.5454   -3.0417 H   0  0  0  0  0  0  0  0  0  0  0  0
   -7.0774   -1.0463   -3.0243 H   0  0  0  0  0  0  0  0  0  0  0  0
   -8.4370    0.3172   -4.7797 H   0  0  0  0  0  0  0  0  0  0  0  0
  -10.1985   -1.3128   -5.9202 H   0  0  0  0  0  0  0  0  0  0  0  0
  -10.1664   -3.6189   -4.5676 H   0  0  0  0  0  0  0  0  0  0  0  0
  -10.2163   -2.1963   -3.4294 H   0  0  0  0  0  0  0  0  0  0  0  0
   -8.9959   -3.3299   -6.9994 H   0  0  0  0  0  0  0  0  0  0  0  0
    4.0962   -0.5292   -5.8185 H   0  0  0  0  0  0  0  0  0  0  0  0
    6.7606    4.4550   -4.2285 H   0  0  0  0  0  0  0  0  0  0  0  0
    6.4140    4.2865   -2.4733 H   0  0  0  0  0  0  0  0  0  0  0  0
    3.9799    4.5100   -2.8986 H   0  0  0  0  0  0  0  0  0  0  0  0
    4.2699    4.5321   -4.6851 H   0  0  0  0  0  0  0  0  0  0  0  0
    4.8630    5.8868   -3.6528 H   0  0  0  0  0  0  0  0  0  0  0  0
    4.1236   -5.8550   -0.9174 H   0  0  0  0  0  0  0  0  0  0  0  0
    2.6578   -7.9759   -0.8066 H   0  0  0  0  0  0  0  0  0  0  0  0
   -0.7272   -7.6678   -2.6957 H   0  0  0  0  0  0  0  0  0  0  0  0
    0.0650   -8.6468   -1.4103 H   0  0  0  0  0  0  0  0  0  0  0  0
   -0.0420   -9.8741   -3.5678 H   0  0  0  0  0  0  0  0  0  0  0  0
    1.6736   -9.5555   -3.1145 H   0  0  0  0  0  0  0  0  0  0  0  0
    0.8704   -8.5568   -4.3940 H   0  0  0  0  0  0  0  0  0  0  0  0
    2.8882   -3.7664    0.2292 H   0  0  0  0  0  0  0  0  0  0  0  0
   -0.1120   -2.1908    1.3425 H   0  0  0  0  0  0  0  0  0  0  0  0
   -1.8078   -3.2269   -0.0964 H   0  0  0  0  0  0  0  0  0  0  0  0
   -2.8774   -6.9818    1.2233 H   0  0  0  0  0  0  0  0  0  0  0  0
   -4.2182   -7.0629    0.0221 H   0  0  0  0  0  0  0  0  0  0  0  0
   -3.8637   -5.5007    0.8592 H   0  0  0  0  0  0  0  0  0  0  0  0
   -0.0713   -7.0964    0.6080 H   0  0  0  0  0  0  0  0  0  0  0  0
    1.6633   -6.0778    2.0068 H   0  0  0  0  0  0  0  0  0  0  0  0
    0.5951   -5.0191    4.4221 H   0  0  0  0  0  0  0  0  0  0  0  0
    1.5108   -6.0372    6.4623 H   0  0  0  0  0  0  0  0  0  0  0  0
    4.2429   -4.5578    9.6186 H   0  0  0  0  0  0  0  0  0  0  0  0
    4.0671   -3.5785    8.1135 H   0  0  0  0  0  0  0  0  0  0  0  0
    2.6397   -4.4615    8.7890 H   0  0  0  0  0  0  0  0  0  0  0  0
    5.4001   -4.4497    5.5247 H   0  0  0  0  0  0  0  0  0  0  0  0
    4.5014   -3.4538    3.4597 H   0  0  0  0  0  0  0  0  0  0  0  0
    1.3904    2.8841    2.7085 H   0  0  0  0  0  0  0  0  0  0  0  0
    0.5979    5.1513    2.1676 H   0  0  0  0  0  0  0  0  0  0  0  0
    2.5406    7.4661    2.4297 H   0  0  0  0  0  0  0  0  0  0  0  0
    2.8281    8.0795    4.1114 H   0  0  0  0  0  0  0  0  0  0  0  0
    2.1146    9.1671    2.8603 H   0  0  0  0  0  0  0  0  0  0  0  0
    1.4513    6.4164    6.1929 H   0  0  0  0  0  0  0  0  0  0  0  0
    2.2294    4.1412    6.7452 H   0  0  0  0  0  0  0  0  0  0  0  0
    3.3110    0.1135    6.7152 H   0  0  0  0  0  0  0  0  0  0  0  0
    5.6602   -0.3360    7.2823 H   0  0  0  0  0  0  0  0  0  0  0  0
    7.6184   -0.8838    5.0484 H   0  0  0  0  0  0  0  0  0  0  0  0
    8.1069    0.5981    4.1205 H   0  0  0  0  0  0  0  0  0  0  0  0
    9.3585   -0.4037    4.9546 H   0  0  0  0  0  0  0  0  0  0  0  0
    6.8721    3.1492    5.0675 H   0  0  0  0  0  0  0  0  0  0  0  0
    4.5292    3.6059    4.4856 H   0  0  0  0  0  0  0  0  0  0  0  0
   -0.0052    0.3807    7.4010 H   0  0  0  0  0  0  0  0  0  0  0  0
   -2.7536    4.0973    3.1004 H   0  0  0  0  0  0  0  0  0  0  0  0
   -3.3561    5.0603    8.0738 H   0  0  0  0  0  0  0  0  0  0  0  0
   -5.7903    6.5577    6.1371 H   0  0  0  0  0  0  0  0  0  0  0  0
   -3.8923    8.4186    6.9541 H   0  0  0  0  0  0  0  0  0  0  0  0
   -5.6952    9.8458    5.6229 H   0  0  0  0  0  0  0  0  0  0  0  0
   -5.4108    9.3558    3.0777 H   0  0  0  0  0  0  0  0  0  0  0  0
   -3.4300    7.6114    2.7774 H   0  0  0  0  0  0  0  0  0  0  0  0
   -2.1964    7.3958    5.1527 H   0  0  0  0  0  0  0  0  0  0  0  0
   -2.5441    9.1319    4.7704 H   0  0  0  0  0  0  0  0  0  0  0  0
   -5.5312    6.1104    3.7982 H   0  0  0  0  0  0  0  0  0  0  0  0
  1  2  2  3
  2  3  1  0
  3  4  2  0
  3  5  1  0
  5  6  2  0
  6  7  1  0
  7  8  2  0
  8  9  1  0
  9 10  2  0
 10 11  1  0
 11 12  2  3
 12 13  1  0
 13 14  3  0
 12 15  1  0
 15 16  3  0
  8 17  1  0
 17 18  1  0
 18 19  1  0
 19 20  2  0
 20 21  1  0
 21 22  1  0
 21 23  1  0
  1 24  1  0
 24 25  2  0
 25 26  1  0
 26 27  1  0
 27 28  2  0
 28 29  2  0
 26 30  2  0
 30 31  1  0
 31 32  2  0
 32 33  1  0
 33 34  1  0
 34 35  2  0
 30 36  1  0
 36 37  2  0
 37 38  1  0
 38 39  2  0
 39 40  1  0
 40 41  1  0
 41 42  1  0
 42 43  1  0
 43 44  1  0
 42 45  2  0
 45 46  1  0
 45 47  1  0
 47 48  1  0
 39 49  1  0
 49 50  2  0
 50 51  1  0
 51 52  1  0
 52 53  2  0
 53 54  1  0
 54 55  2  0
 55 56  1  0
 56 57  1  0
 55 58  1  0
 51 59  2  0
 59 60  1  0
 50 61  1  0
 61 62  2  0
 62 63  1  0
 62 64  1  0
 64 65  2  0
 65 66  1  0
 66 67  1  0
 67 68  2  0
 68 69  1  0
 69 70  2  0
 70 71  1  0
 71 72  1  0
 70 73  1  0
 73 74  2  0
 66 75  1  0
 75 76  2  0
 76 77  1  0
 77 78  2  0
 78 79  1  0
 79 80  1  0
 78 81  1  0
 81 82  2  0
 65 83  1  0
 83 84  1  0
 84 85  1  0
 85 86  2  0
 86 87  1  0
 87 88  1  0
 88 89  2  0
 89 90  1  0
 90 91  2  0
 91 92  1  0
 92 93  1  0
 91 94  1  0
 94 95  2  0
 87 96  1  0
 96 97  2  0
 97 98  1  0
 98 99  2  0
 99100  1  0
100101  1  0
 99102  1  0
102103  2  0
 86104  1  0
104105  1  0
 85106  1  0
106107  2  3
107108  1  0
108109  2  0
108110  1  0
110111  2  0
111112  1  0
112113  2  0
113114  1  0
114115  2  0
115116  1  0
116117  2  3
117118  1  0
118119  3  0
117120  1  0
120121  3  0
113122  1  0
122123  1  0
123124  1  0
124125  2  0
125126  1  0
126127  1  0
126128  1  0
 11  2  1  0
 23 17  1  0
 35 24  1  0
 60 36  1  0
105 64  1  0
116107  1  0
128122  1  0
 10  5  1  0
 22 18  1  0
 29 25  1  0
 35 31  1  0
 59 38  1  0
 74 67  1  0
 82 75  1  0
104 83  2  0
115110  1  0
127123  1  0
 23  7  1  0
 47 40  2  0
 63 49  1  0
 95 88  1  0
103 96  1  0
128112  1  0
 58 52  1  0
  1129  1  0
  6130  1  0
  9131  1  0
 17132  1  0
 18133  1  0
 19134  1  0
 20135  1  0
 21136  1  0
 22137  1  0
 22138  1  0
 23139  1  0
 37140  1  0
 43141  1  0
 43142  1  0
 44143  1  0
 44144  1  0
 44145  1  0
 53146  1  0
 54147  1  0
 56148  1  0
 56149  1  0
 57150  1  0
 57151  1  0
 57152  1  0
 61153  1  0
 68154  1  0
 69155  1  0
 72156  1  0
 72157  1  0
 72158  1  0
 73159  1  0
 74160  1  0
 76161  1  0
 77162  1  0
 80163  1  0
 80164  1  0
 80165  1  0
 81166  1  0
 82167  1  0
 89168  1  0
 90169  1  0
 93170  1  0
 93171  1  0
 93172  1  0
 94173  1  0
 95174  1  0
 97175  1  0
 98176  1  0
101177  1  0
101178  1  0
101179  1  0
102180  1  0
103181  1  0
106182  1  0
111183  1  0
114184  1  0
122185  1  0
123186  1  0
124187  1  0
125188  1  0
126189  1  0
127190  1  0
127191  1  0
128192  1  0
M  END

