
     RDKit          3D

213235  0  0  0  0  0  0  0  0999 V2000
    1.8963   -6.4489   -5.9075 C   0  0  0  0  0  0  0  0  0  0  0  0
    2.3258   -5.2702   -6.4072 C   0  0  0  0  0  0  0  0  0  0  0  0
    2.4469   -5.0283   -7.8503 C   0  0  0  0  0  0  0  0  0  0  0  0
    2.6855   -5.9032   -8.7302 O   0  0  0  0  0  0  0  0  0  0  0  0
    2.0881   -3.6404   -8.1099 C   0  0  0  0  0  0  0  0  0  0  0  0
    1.8174   -3.0423   -9.3647 C   0  0  0  0  0  0  0  0  0  0  0  0
    1.2701   -1.7718   -9.2729 C   0  0  0  0  0  0  0  0  0  0  0  0
    1.0064   -1.1202   -8.0274 C   0  0  0  0  0  0  0  0  0  0  0  0
    1.2783   -1.6892   -6.7966 C   0  0  0  0  0  0  0  0  0  0  0  0
    1.8505   -2.9906   -6.8707 C   0  0  0  0  0  0  0  0  0  0  0  0
    2.1551   -3.9307   -5.7706 C   0  0  0  0  0  0  0  0  0  0  0  0
    2.4912   -3.6117   -4.4991 C   0  0  0  0  0  0  0  0  0  0  0  0
    3.1573   -4.5665   -3.6497 C   0  0  0  0  0  0  0  0  0  0  0  0
    3.7065   -5.3264   -2.9719 N   0  0  0  0  0  0  0  0  0  0  0  0
    2.4059   -2.2746   -3.9829 C   0  0  0  0  0  0  0  0  0  0  0  0
    2.3433   -1.1986   -3.5612 N   0  0  0  0  0  0  0  0  0  0  0  0
    0.4067    0.0530   -8.7427 C   0  0  0  0  0  0  0  0  0  0  0  0
    1.2682    1.3500   -8.8116 C   0  0  0  0  0  0  0  0  0  0  0  0
    0.6402    2.2076   -9.8841 C   0  0  0  0  0  0  0  0  0  0  0  0
    0.8898    1.6001  -11.0506 C   0  0  0  0  0  0  0  0  0  0  0  0
    1.6811    0.3540  -10.7232 C   0  0  0  0  0  0  0  0  0  0  0  0
    2.5059    0.8981   -9.5682 C   0  0  0  0  0  0  0  0  0  0  0  0
    0.6810   -0.6094  -10.0213 C   0  0  0  0  0  0  0  0  0  0  0  0
    0.9199   -6.4802   -4.8055 C   0  0  0  0  0  0  0  0  0  0  0  0
    1.0729   -7.1077   -3.5666 C   0  0  0  0  0  0  0  0  0  0  0  0
    0.1452   -6.6434   -2.6084 C   0  0  0  0  0  0  0  0  0  0  0  0
    0.1630   -6.8948   -1.2157 C   0  0  0  0  0  0  0  0  0  0  0  0
    1.1641   -7.7764   -0.5820 C   0  0  0  0  0  0  0  0  0  0  0  0
    0.8839   -8.7536    0.3745 C   0  0  0  0  0  0  0  0  0  0  0  0
    2.0291   -9.3093    0.9530 C   0  0  0  0  0  0  0  0  0  0  0  0
    3.2064   -8.7561    0.4691 C   0  0  0  0  0  0  0  0  0  0  0  0
    4.8639   -9.1862    0.9905 S   0  0  0  0  0  0  0  0  0  0  0  0
    4.9713   -7.9003    2.2837 C   0  0  0  0  0  0  0  0  0  0  0  0
    4.3308   -8.3764    3.5802 C   0  0  0  0  0  0  0  0  0  0  0  0
    2.8354   -7.5827   -0.6738 S   0  0  0  0  0  0  0  0  0  0  0  0
   -0.7163   -6.1338   -0.4174 C   0  0  0  0  0  0  0  0  0  0  0  0
   -1.5760   -5.1716   -0.9561 C   0  0  0  0  0  0  0  0  0  0  0  0
   -1.6074   -4.9324   -2.3402 C   0  0  0  0  0  0  0  0  0  0  0  0
   -2.1752   -3.6899   -2.8904 C   0  0  0  0  0  0  0  0  0  0  0  0
   -1.5516   -2.4501   -2.7681 C   0  0  0  0  0  0  0  0  0  0  0  0
   -2.0609   -1.4877   -3.6417 C   0  0  0  0  0  0  0  0  0  0  0  0
   -3.0629   -1.9778   -4.4646 C   0  0  0  0  0  0  0  0  0  0  0  0
   -3.8938   -1.0499   -5.7539 S   0  0  0  0  0  0  0  0  0  0  0  0
   -5.2089   -0.3961   -4.6643 C   0  0  0  0  0  0  0  0  0  0  0  0
   -5.0669    1.1118   -4.5358 C   0  0  0  0  0  0  0  0  0  0  0  0
   -3.3298   -3.5991   -4.1179 S   0  0  0  0  0  0  0  0  0  0  0  0
   -0.7601   -5.7129   -3.1357 C   0  0  0  0  0  0  0  0  0  0  0  0
   -0.4129   -5.4553   -4.7480 S   0  0  0  0  0  0  0  0  0  0  0  0
   -2.1864   -4.3636    0.0120 C   0  0  0  0  0  0  0  0  0  0  0  0
   -1.7696   -4.6471    1.3072 C   0  0  0  0  0  0  0  0  0  0  0  0
   -0.6656   -5.9190    1.2535 S   0  0  0  0  0  0  0  0  0  0  0  0
   -1.8206   -3.6468    2.3772 C   0  0  0  0  0  0  0  0  0  0  0  0
   -2.9065   -2.7730    2.6271 C   0  0  0  0  0  0  0  0  0  0  0  0
   -4.2611   -2.9992    2.1740 N   0  0  0  0  0  0  0  0  0  0  0  0
   -5.0674   -1.8770    1.7747 C   0  0  0  0  0  0  0  0  0  0  0  0
   -4.7416   -1.1383    0.6236 C   0  0  0  0  0  0  0  0  0  0  0  0
   -5.5191   -0.0413    0.2447 C   0  0  0  0  0  0  0  0  0  0  0  0
   -6.6001    0.3575    1.0401 C   0  0  0  0  0  0  0  0  0  0  0  0
   -7.5673    1.8001    0.5820 S   0  0  0  0  0  0  0  0  0  0  0  0
   -6.5439    2.9520    1.5571 C   0  0  0  0  0  0  0  0  0  0  0  0
   -6.9211   -0.3687    2.1948 C   0  0  0  0  0  0  0  0  0  0  0  0
   -6.1657   -1.4863    2.5584 C   0  0  0  0  0  0  0  0  0  0  0  0
   -4.8379   -4.3270    2.1804 C   0  0  0  0  0  0  0  0  0  0  0  0
   -4.4420   -5.2800    3.1406 C   0  0  0  0  0  0  0  0  0  0  0  0
   -4.9538   -6.5783    3.1028 C   0  0  0  0  0  0  0  0  0  0  0  0
   -5.8912   -6.9374    2.1299 C   0  0  0  0  0  0  0  0  0  0  0  0
   -6.5072   -8.6204    2.0714 S   0  0  0  0  0  0  0  0  0  0  0  0
   -7.8594   -8.3076    3.2488 C   0  0  0  0  0  0  0  0  0  0  0  0
   -6.3164   -5.9918    1.1908 C   0  0  0  0  0  0  0  0  0  0  0  0
   -5.7931   -4.6947    1.2146 C   0  0  0  0  0  0  0  0  0  0  0  0
   -2.4740   -1.6234    3.3040 C   0  0  0  0  0  0  0  0  0  0  0  0
   -3.1529   -0.1197    3.6247 S   0  0  0  0  0  0  0  0  0  0  0  0
   -1.6828    0.5884    4.1034 C   0  0  0  0  0  0  0  0  0  0  0  0
   -0.6497   -0.3518    3.9866 C   0  0  0  0  0  0  0  0  0  0  0  0
    0.7451   -0.0079    3.9379 N   0  0  0  0  0  0  0  0  0  0  0  0
    1.2336    0.6950    2.7759 C   0  0  0  0  0  0  0  0  0  0  0  0
    0.9941    0.1888    1.4823 C   0  0  0  0  0  0  0  0  0  0  0  0
    1.5193    0.8360    0.3593 C   0  0  0  0  0  0  0  0  0  0  0  0
    2.2648    2.0123    0.5114 C   0  0  0  0  0  0  0  0  0  0  0  0
    2.9891    2.8101   -0.9224 S   0  0  0  0  0  0  0  0  0  0  0  0
    1.5255    3.8361   -1.2705 C   0  0  0  0  0  0  0  0  0  0  0  0
    2.4782    2.5408    1.7925 C   0  0  0  0  0  0  0  0  0  0  0  0
    1.9769    1.8783    2.9173 C   0  0  0  0  0  0  0  0  0  0  0  0
    1.6380   -0.4200    5.0025 C   0  0  0  0  0  0  0  0  0  0  0  0
    3.0237   -0.5504    4.7779 C   0  0  0  0  0  0  0  0  0  0  0  0
    3.8824   -0.9217    5.8175 C   0  0  0  0  0  0  0  0  0  0  0  0
    3.3708   -1.1841    7.0909 C   0  0  0  0  0  0  0  0  0  0  0  0
    4.4863   -1.5873    8.4388 S   0  0  0  0  0  0  0  0  0  0  0  0
    4.3590   -3.3832    8.1721 C   0  0  0  0  0  0  0  0  0  0  0  0
    1.9960   -1.0895    7.3214 C   0  0  0  0  0  0  0  0  0  0  0  0
    1.1335   -0.7137    6.2839 C   0  0  0  0  0  0  0  0  0  0  0  0
   -1.1405   -1.5814    3.5723 C   0  0  0  0  0  0  0  0  0  0  0  0
   -0.3893   -2.9595    2.9957 S   0  0  0  0  0  0  0  0  0  0  0  0
   -1.4921    2.0208    4.3549 C   0  0  0  0  0  0  0  0  0  0  0  0
   -2.0007    3.0318    3.5464 C   0  0  0  0  0  0  0  0  0  0  0  0
   -1.3858    4.2712    3.7735 C   0  0  0  0  0  0  0  0  0  0  0  0
   -1.5477    5.4307    2.9938 C   0  0  0  0  0  0  0  0  0  0  0  0
   -2.4638    5.4726    1.8378 C   0  0  0  0  0  0  0  0  0  0  0  0
   -3.4951    6.3884    1.6533 C   0  0  0  0  0  0  0  0  0  0  0  0
   -4.1223    6.2660    0.4108 C   0  0  0  0  0  0  0  0  0  0  0  0
   -3.5721    5.2690   -0.3805 C   0  0  0  0  0  0  0  0  0  0  0  0
   -4.0979    4.8344   -2.0373 S   0  0  0  0  0  0  0  0  0  0  0  0
   -2.8965    5.9271   -2.8742 C   0  0  0  0  0  0  0  0  0  0  0  0
   -3.4657    7.3305   -3.0374 C   0  0  0  0  0  0  0  0  0  0  0  0
   -2.3145    4.5283    0.4505 S   0  0  0  0  0  0  0  0  0  0  0  0
   -0.6852    6.5056    3.2692 C   0  0  0  0  0  0  0  0  0  0  0  0
    0.2809    6.4638    4.2829 C   0  0  0  0  0  0  0  0  0  0  0  0
    0.4002    5.3255    5.1127 C   0  0  0  0  0  0  0  0  0  0  0  0
    1.3829    5.2231    6.2171 C   0  0  0  0  0  0  0  0  0  0  0  0
    1.0967    4.7712    7.5051 C   0  0  0  0  0  0  0  0  0  0  0  0
    2.2155    4.7311    8.3440 C   0  0  0  0  0  0  0  0  0  0  0  0
    3.3816    5.1458    7.7143 C   0  0  0  0  0  0  0  0  0  0  0  0
    5.0042    5.2101    8.4756 S   0  0  0  0  0  0  0  0  0  0  0  0
    4.8310    6.9224    9.1019 C   0  0  0  0  0  0  0  0  0  0  0  0
    5.4232    7.9137    8.1064 C   0  0  0  0  0  0  0  0  0  0  0  0
    3.0392    5.5329    6.1169 S   0  0  0  0  0  0  0  0  0  0  0  0
   -0.4445    4.2384    4.8095 C   0  0  0  0  0  0  0  0  0  0  0  0
   -0.3401    2.6707    5.4019 S   0  0  0  0  0  0  0  0  0  0  0  0
    1.1313    7.5805    4.2646 C   0  0  0  0  0  0  0  0  0  0  0  0
    0.8660    8.4513    3.2130 C   0  0  0  0  0  0  0  0  0  0  0  0
   -0.4500    7.8838    2.3324 S   0  0  0  0  0  0  0  0  0  0  0  0
    1.8332    9.4210    2.6854 C   0  0  0  0  0  0  0  0  0  0  0  0
    2.8461    9.0530    1.8746 C   0  0  0  0  0  0  0  0  0  0  0  0
    3.0194    7.7249    1.2678 C   0  0  0  0  0  0  0  0  0  0  0  0
    2.4499    6.6553    1.6133 O   0  0  0  0  0  0  0  0  0  0  0  0
    3.9415    7.8422    0.1642 C   0  0  0  0  0  0  0  0  0  0  0  0
    4.2998    6.8677   -0.7669 C   0  0  0  0  0  0  0  0  0  0  0  0
    5.1372    7.2363   -1.8300 C   0  0  0  0  0  0  0  0  0  0  0  0
    5.5778    8.5642   -1.9544 C   0  0  0  0  0  0  0  0  0  0  0  0
    6.5768    9.0212   -3.3226 Cl  0  0  0  0  0  0  0  0  0  0  0  0
    5.1993    9.5319   -1.0080 C   0  0  0  0  0  0  0  0  0  0  0  0
    4.3946    9.1462    0.0776 C   0  0  0  0  0  0  0  0  0  0  0  0
    3.8294    9.9533    1.1994 C   0  0  0  0  0  0  0  0  0  0  0  0
    4.3133   11.1270    1.6787 C   0  0  0  0  0  0  0  0  0  0  0  0
    3.9011   11.6647    2.9503 C   0  0  0  0  0  0  0  0  0  0  0  0
    3.5930   12.1006    3.9794 N   0  0  0  0  0  0  0  0  0  0  0  0
    5.3935   11.8303    1.0439 C   0  0  0  0  0  0  0  0  0  0  0  0
    6.2664   12.4087    0.5493 N   0  0  0  0  0  0  0  0  0  0  0  0
    1.9878   -7.3443   -6.5046 H   0  0  0  0  0  0  0  0  0  0  0  0
    1.9618   -3.5495  -10.3069 H   0  0  0  0  0  0  0  0  0  0  0  0
    0.9995   -1.1956   -5.8802 H   0  0  0  0  0  0  0  0  0  0  0  0
   -0.6729    0.2046   -8.5222 H   0  0  0  0  0  0  0  0  0  0  0  0
    1.4518    1.8591   -7.8404 H   0  0  0  0  0  0  0  0  0  0  0  0
    0.1494    3.1641   -9.7584 H   0  0  0  0  0  0  0  0  0  0  0  0
    0.6345    1.9805  -12.0357 H   0  0  0  0  0  0  0  0  0  0  0  0
    2.2542   -0.0761  -11.5737 H   0  0  0  0  0  0  0  0  0  0  0  0
    3.1119    0.1315   -9.0400 H   0  0  0  0  0  0  0  0  0  0  0  0
    3.1745    1.7435   -9.8640 H   0  0  0  0  0  0  0  0  0  0  0  0
   -0.2268   -0.8678  -10.6084 H   0  0  0  0  0  0  0  0  0  0  0  0
    1.8985   -7.7678   -3.3426 H   0  0  0  0  0  0  0  0  0  0  0  0
   -0.1201   -9.0419    0.6561 H   0  0  0  0  0  0  0  0  0  0  0  0
    1.9982  -10.0708    1.7223 H   0  0  0  0  0  0  0  0  0  0  0  0
    4.4929   -6.9561    1.9478 H   0  0  0  0  0  0  0  0  0  0  0  0
    6.0455   -7.6915    2.4717 H   0  0  0  0  0  0  0  0  0  0  0  0
    4.7727   -9.3476    3.8900 H   0  0  0  0  0  0  0  0  0  0  0  0
    3.2362   -8.4943    3.4498 H   0  0  0  0  0  0  0  0  0  0  0  0
    4.5169   -7.6291    4.3806 H   0  0  0  0  0  0  0  0  0  0  0  0
   -0.7240   -2.2594   -2.0975 H   0  0  0  0  0  0  0  0  0  0  0  0
   -1.6993   -0.4649   -3.6825 H   0  0  0  0  0  0  0  0  0  0  0  0
   -6.1902   -0.6372   -5.1229 H   0  0  0  0  0  0  0  0  0  0  0  0
   -5.1858   -0.8533   -3.6521 H   0  0  0  0  0  0  0  0  0  0  0  0
   -5.1692    1.5931   -5.5330 H   0  0  0  0  0  0  0  0  0  0  0  0
   -4.0766    1.3696   -4.1022 H   0  0  0  0  0  0  0  0  0  0  0  0
   -5.8579    1.5035   -3.8615 H   0  0  0  0  0  0  0  0  0  0  0  0
   -2.7989   -3.5060   -0.2391 H   0  0  0  0  0  0  0  0  0  0  0  0
   -3.8884   -1.4170    0.0193 H   0  0  0  0  0  0  0  0  0  0  0  0
   -5.2766    0.5079   -0.6586 H   0  0  0  0  0  0  0  0  0  0  0  0
   -6.6197    2.7073    2.6375 H   0  0  0  0  0  0  0  0  0  0  0  0
   -5.4828    2.8970    1.2395 H   0  0  0  0  0  0  0  0  0  0  0  0
   -6.9139    3.9867    1.3988 H   0  0  0  0  0  0  0  0  0  0  0  0
   -7.7601   -0.0634    2.8059 H   0  0  0  0  0  0  0  0  0  0  0  0
   -6.4198   -2.0368    3.4569 H   0  0  0  0  0  0  0  0  0  0  0  0
   -3.7335   -5.0198    3.9164 H   0  0  0  0  0  0  0  0  0  0  0  0
   -4.6208   -7.3046    3.8380 H   0  0  0  0  0  0  0  0  0  0  0  0
   -8.3481   -9.2678    3.5006 H   0  0  0  0  0  0  0  0  0  0  0  0
   -8.6122   -7.6345    2.7848 H   0  0  0  0  0  0  0  0  0  0  0  0
   -7.4790   -7.8429    4.1843 H   0  0  0  0  0  0  0  0  0  0  0  0
   -7.0394   -6.2715    0.4336 H   0  0  0  0  0  0  0  0  0  0  0  0
   -6.1159   -3.9910    0.4555 H   0  0  0  0  0  0  0  0  0  0  0  0
    0.4238   -0.7180    1.3409 H   0  0  0  0  0  0  0  0  0  0  0  0
    1.3572    0.4147   -0.6275 H   0  0  0  0  0  0  0  0  0  0  0  0
    1.3026    4.4999   -0.4071 H   0  0  0  0  0  0  0  0  0  0  0  0
    1.7326    4.4629   -2.1630 H   0  0  0  0  0  0  0  0  0  0  0  0
    0.6505    3.1846   -1.4824 H   0  0  0  0  0  0  0  0  0  0  0  0
    3.0549    3.4486    1.9202 H   0  0  0  0  0  0  0  0  0  0  0  0
    2.1718    2.2853    3.9027 H   0  0  0  0  0  0  0  0  0  0  0  0
    3.4466   -0.3589    3.7988 H   0  0  0  0  0  0  0  0  0  0  0  0
    4.9445   -0.9954    5.6263 H   0  0  0  0  0  0  0  0  0  0  0  0
    3.3032   -3.7097    8.2964 H   0  0  0  0  0  0  0  0  0  0  0  0
    4.9915   -3.9044    8.9224 H   0  0  0  0  0  0  0  0  0  0  0  0
    4.7106   -3.6466    7.1504 H   0  0  0  0  0  0  0  0  0  0  0  0
    1.5930   -1.3017    8.3039 H   0  0  0  0  0  0  0  0  0  0  0  0
    0.0766   -0.6312    6.5002 H   0  0  0  0  0  0  0  0  0  0  0  0
   -2.7132    2.8440    2.7518 H   0  0  0  0  0  0  0  0  0  0  0  0
   -3.7824    7.1247    2.3913 H   0  0  0  0  0  0  0  0  0  0  0  0
   -4.9463    6.8957    0.0938 H   0  0  0  0  0  0  0  0  0  0  0  0
   -2.6898    5.5061   -3.8814 H   0  0  0  0  0  0  0  0  0  0  0  0
   -1.9341    5.9640   -2.3207 H   0  0  0  0  0  0  0  0  0  0  0  0
   -4.4261    7.2853   -3.5938 H   0  0  0  0  0  0  0  0  0  0  0  0
   -2.7525    7.9546   -3.6137 H   0  0  0  0  0  0  0  0  0  0  0  0
   -3.6291    7.8037   -2.0462 H   0  0  0  0  0  0  0  0  0  0  0  0
    0.1066    4.4810    7.8320 H   0  0  0  0  0  0  0  0  0  0  0  0
    2.1769    4.4028    9.3729 H   0  0  0  0  0  0  0  0  0  0  0  0
    3.7702    7.1810    9.3119 H   0  0  0  0  0  0  0  0  0  0  0  0
    5.3895    7.0043   10.0603 H   0  0  0  0  0  0  0  0  0  0  0  0
    5.3694    8.9429    8.5259 H   0  0  0  0  0  0  0  0  0  0  0  0
    6.4880    7.6606    7.9069 H   0  0  0  0  0  0  0  0  0  0  0  0
    4.8505    7.8879    7.1524 H   0  0  0  0  0  0  0  0  0  0  0  0
    1.9767    7.7205    4.9148 H   0  0  0  0  0  0  0  0  0  0  0  0
    1.6628   10.4589    2.9182 H   0  0  0  0  0  0  0  0  0  0  0  0
    3.9141    5.8578   -0.6889 H   0  0  0  0  0  0  0  0  0  0  0  0
    5.4183    6.4925   -2.5691 H   0  0  0  0  0  0  0  0  0  0  0  0
    5.5049   10.5531   -1.1610 H   0  0  0  0  0  0  0  0  0  0  0  0
  1  2  2  3
  2  3  1  0
  3  4  2  0
  3  5  1  0
  5  6  2  0
  6  7  1  0
  7  8  2  0
  8  9  1  0
  9 10  2  0
 10 11  1  0
 11 12  2  3
 12 13  1  0
 13 14  3  0
 12 15  1  0
 15 16  3  0
  8 17  1  0
 17 18  1  0
 18 19  1  0
 19 20  2  0
 20 21  1  0
 21 22  1  0
 21 23  1  0
  1 24  1  0
 24 25  2  0
 25 26  1  0
 26 27  2  0
 27 28  1  0
 28 29  2  0
 29 30  1  0
 30 31  2  0
 31 32  1  0
 32 33  1  0
 33 34  1  0
 31 35  1  0
 27 36  1  0
 36 37  2  0
 37 38  1  0
 38 39  1  0
 39 40  2  0
 40 41  1  0
 41 42  2  0
 42 43  1  0
 43 44  1  0
 44 45  1  0
 42 46  1  0
 38 47  2  0
 47 48  1  0
 37 49  1  0
 49 50  2  0
 50 51  1  0
 50 52  1  0
 52 53  2  0
 53 54  1  0
 54 55  1  0
 55 56  2  0
 56 57  1  0
 57 58  2  0
 58 59  1  0
 59 60  1  0
 58 61  1  0
 61 62  2  0
 54 63  1  0
 63 64  2  0
 64 65  1  0
 65 66  2  0
 66 67  1  0
 67 68  1  0
 66 69  1  0
 69 70  2  0
 53 71  1  0
 71 72  1  0
 72 73  1  0
 73 74  2  0
 74 75  1  0
 75 76  1  0
 76 77  2  0
 77 78  1  0
 78 79  2  0
 79 80  1  0
 80 81  1  0
 79 82  1  0
 82 83  2  0
 75 84  1  0
 84 85  2  0
 85 86  1  0
 86 87  2  0
 87 88  1  0
 88 89  1  0
 87 90  1  0
 90 91  2  0
 74 92  1  0
 92 93  1  0
 73 94  1  0
 94 95  2  0
 95 96  1  0
 96 97  2  0
 97 98  1  0
 98 99  2  0
 99100  1  0
100101  2  0
101102  1  0
102103  1  0
103104  1  0
101105  1  0
 97106  1  0
106107  2  0
107108  1  0
108109  1  0
109110  2  0
110111  1  0
111112  2  0
112113  1  0
113114  1  0
114115  1  0
112116  1  0
108117  2  0
117118  1  0
107119  1  0
119120  2  0
120121  1  0
120122  1  0
122123  2  3
123124  1  0
124125  2  0
124126  1  0
126127  2  0
127128  1  0
128129  2  0
129130  1  0
129131  1  0
131132  2  0
132133  1  0
133134  2  3
134135  1  0
135136  3  0
134137  1  0
137138  3  0
 11  2  1  0
 23 17  1  0
 48 24  1  0
 93 52  1  0
118 94  1  0
133123  1  0
 10  5  1  0
 22 18  1  0
 47 26  1  0
 62 55  1  0
 70 63  1  0
 92 71  2  0
117 96  1  0
132126  1  0
 23  7  1  0
 35 28  1  0
 51 36  1  0
 83 76  1  0
 91 84  1  0
105 98  1  0
121106  1  0
 46 39  1  0
116109  1  0
  1139  1  0
  6140  1  0
  9141  1  0
 17142  1  0
 18143  1  0
 19144  1  0
 20145  1  0
 21146  1  0
 22147  1  0
 22148  1  0
 23149  1  0
 25150  1  0
 29151  1  0
 30152  1  0
 33153  1  0
 33154  1  0
 34155  1  0
 34156  1  0
 34157  1  0
 40158  1  0
 41159  1  0
 44160  1  0
 44161  1  0
 45162  1  0
 45163  1  0
 45164  1  0
 49165  1  0
 56166  1  0
 57167  1  0
 60168  1  0
 60169  1  0
 60170  1  0
 61171  1  0
 62172  1  0
 64173  1  0
 65174  1  0
 68175  1  0
 68176  1  0
 68177  1  0
 69178  1  0
 70179  1  0
 77180  1  0
 78181  1  0
 81182  1  0
 81183  1  0
 81184  1  0
 82185  1  0
 83186  1  0
 85187  1  0
 86188  1  0
 89189  1  0
 89190  1  0
 89191  1  0
 90192  1  0
 91193  1  0
 95194  1  0
 99195  1  0
100196  1  0
103197  1  0
103198  1  0
104199  1  0
104200  1  0
104201  1  0
110202  1  0
111203  1  0
114204  1  0
114205  1  0
115206  1  0
115207  1  0
115208  1  0
119209  1  0
122210  1  0
127211  1  0
128212  1  0
131213  1  0
M  END

