
     RDKit          3D

262286  0  0  0  0  0  0  0  0999 V2000
    3.7228    2.4236    5.9877 C   0  0  0  0  0  0  0  0  0  0  0  0
    4.1434    1.1676    5.7328 C   0  0  0  0  0  0  0  0  0  0  0  0
    4.9573    0.4101    6.6924 C   0  0  0  0  0  0  0  0  0  0  0  0
    5.6966    0.9045    7.5812 O   0  0  0  0  0  0  0  0  0  0  0  0
    4.6238   -1.0050    6.5612 C   0  0  0  0  0  0  0  0  0  0  0  0
    5.0538   -2.0765    7.3857 C   0  0  0  0  0  0  0  0  0  0  0  0
    4.5139   -3.3046    7.0418 C   0  0  0  0  0  0  0  0  0  0  0  0
    3.5979   -3.4753    5.9534 C   0  0  0  0  0  0  0  0  0  0  0  0
    3.1539   -2.4346    5.1632 C   0  0  0  0  0  0  0  0  0  0  0  0
    3.7068   -1.1656    5.4898 C   0  0  0  0  0  0  0  0  0  0  0  0
    3.4636    0.1598    4.8611 C   0  0  0  0  0  0  0  0  0  0  0  0
    2.9970    0.3904    3.6090 C   0  0  0  0  0  0  0  0  0  0  0  0
    3.3119    1.6012    2.8927 C   0  0  0  0  0  0  0  0  0  0  0  0
    3.5652    2.5605    2.2982 N   0  0  0  0  0  0  0  0  0  0  0  0
    2.2848   -0.6035    2.8511 C   0  0  0  0  0  0  0  0  0  0  0  0
    1.7022   -1.3925    2.2367 N   0  0  0  0  0  0  0  0  0  0  0  0
    3.5011   -4.9426    6.2356 C   0  0  0  0  0  0  0  0  0  0  0  0
    2.1938   -5.4400    6.9217 C   0  0  0  0  0  0  0  0  0  0  0  0
    2.5014   -6.8287    7.4184 C   0  0  0  0  0  0  0  0  0  0  0  0
    3.3583   -6.6876    8.4395 C   0  0  0  0  0  0  0  0  0  0  0  0
    3.5996   -5.2029    8.5930 C   0  0  0  0  0  0  0  0  0  0  0  0
    2.2044   -4.7067    8.2501 C   0  0  0  0  0  0  0  0  0  0  0  0
    4.4386   -4.7768    7.3514 C   0  0  0  0  0  0  0  0  0  0  0  0
    2.3279    2.8178    5.7025 C   0  0  0  0  0  0  0  0  0  0  0  0
    1.2189    2.0499    6.0700 C   0  0  0  0  0  0  0  0  0  0  0  0
    1.1582    1.3661    7.3477 N   0  0  0  0  0  0  0  0  0  0  0  0
    0.3131    0.2250    7.5864 C   0  0  0  0  0  0  0  0  0  0  0  0
    0.2906   -0.8571    6.6898 C   0  0  0  0  0  0  0  0  0  0  0  0
   -0.5347   -1.9602    6.9344 C   0  0  0  0  0  0  0  0  0  0  0  0
   -1.3692   -1.9799    8.0577 C   0  0  0  0  0  0  0  0  0  0  0  0
   -2.4907   -3.3563    8.3279 S   0  0  0  0  0  0  0  0  0  0  0  0
   -1.5534   -4.0329    9.7342 C   0  0  0  0  0  0  0  0  0  0  0  0
   -1.3488   -0.9115    8.9567 C   0  0  0  0  0  0  0  0  0  0  0  0
   -0.4922    0.1690    8.7403 C   0  0  0  0  0  0  0  0  0  0  0  0
    1.8098    1.9968    8.4717 C   0  0  0  0  0  0  0  0  0  0  0  0
    1.5456    3.3429    8.7789 C   0  0  0  0  0  0  0  0  0  0  0  0
    2.2492    3.9827    9.7984 C   0  0  0  0  0  0  0  0  0  0  0  0
    3.2382    3.2932   10.5094 C   0  0  0  0  0  0  0  0  0  0  0  0
    4.2043    4.1511   11.7562 S   0  0  0  0  0  0  0  0  0  0  0  0
    5.4103    4.7759   10.5449 C   0  0  0  0  0  0  0  0  0  0  0  0
    3.4853    1.9430   10.2278 C   0  0  0  0  0  0  0  0  0  0  0  0
    2.7676    1.2958    9.2156 C   0  0  0  0  0  0  0  0  0  0  0  0
    0.0952    2.3847    5.3032 C   0  0  0  0  0  0  0  0  0  0  0  0
   -0.9496    1.3327    4.5374 S   0  0  0  0  0  0  0  0  0  0  0  0
   -1.2966    2.2854    3.1730 C   0  0  0  0  0  0  0  0  0  0  0  0
   -0.5731    3.4931    3.3285 C   0  0  0  0  0  0  0  0  0  0  0  0
   -0.5407    4.5644    2.3450 N   0  0  0  0  0  0  0  0  0  0  0  0
   -1.5110    4.6258    1.2858 C   0  0  0  0  0  0  0  0  0  0  0  0
   -1.0947    4.6553   -0.0508 C   0  0  0  0  0  0  0  0  0  0  0  0
   -2.0018    4.9465   -1.0742 C   0  0  0  0  0  0  0  0  0  0  0  0
   -3.3440    5.2095   -0.7651 C   0  0  0  0  0  0  0  0  0  0  0  0
   -4.4360    5.8628   -2.0344 S   0  0  0  0  0  0  0  0  0  0  0  0
   -5.3080    4.3019   -2.3428 C   0  0  0  0  0  0  0  0  0  0  0  0
   -3.7785    5.1235    0.5632 C   0  0  0  0  0  0  0  0  0  0  0  0
   -2.8699    4.8230    1.5850 C   0  0  0  0  0  0  0  0  0  0  0  0
    0.1066    5.8115    2.6639 C   0  0  0  0  0  0  0  0  0  0  0  0
    1.1012    6.3371    1.8253 C   0  0  0  0  0  0  0  0  0  0  0  0
    1.7284    7.5450    2.1436 C   0  0  0  0  0  0  0  0  0  0  0  0
    1.3672    8.2376    3.3025 C   0  0  0  0  0  0  0  0  0  0  0  0
    2.1843    9.7792    3.7244 S   0  0  0  0  0  0  0  0  0  0  0  0
    0.9569   10.8073    2.8573 C   0  0  0  0  0  0  0  0  0  0  0  0
    0.3706    7.7202    4.1428 C   0  0  0  0  0  0  0  0  0  0  0  0
   -0.2682    6.5256    3.8183 C   0  0  0  0  0  0  0  0  0  0  0  0
    0.2612    3.4543    4.4583 C   0  0  0  0  0  0  0  0  0  0  0  0
    1.8613    3.9788    4.5692 S   0  0  0  0  0  0  0  0  0  0  0  0
   -1.3974    1.6293    1.8606 C   0  0  0  0  0  0  0  0  0  0  0  0
   -2.5160    1.0496    1.1996 C   0  0  0  0  0  0  0  0  0  0  0  0
   -3.8550    0.9246    1.7545 N   0  0  0  0  0  0  0  0  0  0  0  0
   -4.9967    0.6207    0.9299 C   0  0  0  0  0  0  0  0  0  0  0  0
   -5.2817    1.3923   -0.2048 C   0  0  0  0  0  0  0  0  0  0  0  0
   -6.3196    1.0218   -1.0694 C   0  0  0  0  0  0  0  0  0  0  0  0
   -7.1169   -0.0922   -0.7665 C   0  0  0  0  0  0  0  0  0  0  0  0
   -8.3962   -0.6206   -1.9118 S   0  0  0  0  0  0  0  0  0  0  0  0
   -7.4034   -2.0067   -2.5604 C   0  0  0  0  0  0  0  0  0  0  0  0
   -6.9065   -0.7987    0.4179 C   0  0  0  0  0  0  0  0  0  0  0  0
   -5.8404   -0.4576    1.2558 C   0  0  0  0  0  0  0  0  0  0  0  0
   -4.0606    0.8952    3.1750 C   0  0  0  0  0  0  0  0  0  0  0  0
   -3.6242   -0.2068    3.9282 C   0  0  0  0  0  0  0  0  0  0  0  0
   -3.8527   -0.2488    5.3064 C   0  0  0  0  0  0  0  0  0  0  0  0
   -4.5458    0.7952    5.9321 C   0  0  0  0  0  0  0  0  0  0  0  0
   -4.7247    0.8175    7.7140 S   0  0  0  0  0  0  0  0  0  0  0  0
   -3.2678    1.8850    7.9318 C   0  0  0  0  0  0  0  0  0  0  0  0
   -5.0538    1.8530    5.1709 C   0  0  0  0  0  0  0  0  0  0  0  0
   -4.8126    1.9020    3.7959 C   0  0  0  0  0  0  0  0  0  0  0  0
   -2.1185    0.5824   -0.0727 C   0  0  0  0  0  0  0  0  0  0  0  0
   -2.8554   -0.1486   -1.4031 S   0  0  0  0  0  0  0  0  0  0  0  0
   -1.4582   -0.1669   -2.3793 C   0  0  0  0  0  0  0  0  0  0  0  0
   -0.3878    0.3182   -1.6259 C   0  0  0  0  0  0  0  0  0  0  0  0
    0.9806    0.3257   -2.0610 N   0  0  0  0  0  0  0  0  0  0  0  0
    1.9568   -0.4830   -1.3771 C   0  0  0  0  0  0  0  0  0  0  0  0
    3.1625    0.0892   -0.9253 C   0  0  0  0  0  0  0  0  0  0  0  0
    4.1478   -0.7090   -0.3449 C   0  0  0  0  0  0  0  0  0  0  0  0
    3.9508   -2.0885   -0.2211 C   0  0  0  0  0  0  0  0  0  0  0  0
    5.2329   -3.1186    0.4940 S   0  0  0  0  0  0  0  0  0  0  0  0
    6.1037   -3.3644   -1.0867 C   0  0  0  0  0  0  0  0  0  0  0  0
    2.7468   -2.6611   -0.6425 C   0  0  0  0  0  0  0  0  0  0  0  0
    1.7452   -1.8570   -1.1971 C   0  0  0  0  0  0  0  0  0  0  0  0
    1.4258    1.3018   -3.0177 C   0  0  0  0  0  0  0  0  0  0  0  0
    2.3436    0.9355   -4.0142 C   0  0  0  0  0  0  0  0  0  0  0  0
    2.9234    1.9080   -4.8271 C   0  0  0  0  0  0  0  0  0  0  0  0
    2.6079    3.2568   -4.6359 C   0  0  0  0  0  0  0  0  0  0  0  0
    3.4082    4.5138   -5.6347 S   0  0  0  0  0  0  0  0  0  0  0  0
    4.7116    4.8350   -4.4055 C   0  0  0  0  0  0  0  0  0  0  0  0
    1.6662    3.6232   -3.6653 C   0  0  0  0  0  0  0  0  0  0  0  0
    1.0705    2.6505   -2.8648 C   0  0  0  0  0  0  0  0  0  0  0  0
   -0.7993    0.7431   -0.3690 C   0  0  0  0  0  0  0  0  0  0  0  0
   -0.0035    1.4778    0.8884 S   0  0  0  0  0  0  0  0  0  0  0  0
   -1.3450   -0.7645   -3.7121 C   0  0  0  0  0  0  0  0  0  0  0  0
   -1.5171   -0.1153   -4.9504 C   0  0  0  0  0  0  0  0  0  0  0  0
   -2.2795    1.0881   -5.1486 N   0  0  0  0  0  0  0  0  0  0  0  0
   -1.6634    2.3821   -5.2936 C   0  0  0  0  0  0  0  0  0  0  0  0
   -0.5152    2.5652   -6.0831 C   0  0  0  0  0  0  0  0  0  0  0  0
   -0.0890    3.8592   -6.4205 C   0  0  0  0  0  0  0  0  0  0  0  0
   -0.7742    4.9770   -5.9360 C   0  0  0  0  0  0  0  0  0  0  0  0
   -0.3179    6.6304   -6.4806 S   0  0  0  0  0  0  0  0  0  0  0  0
    0.5734    7.0714   -4.9573 C   0  0  0  0  0  0  0  0  0  0  0  0
   -1.8875    4.8035   -5.1085 C   0  0  0  0  0  0  0  0  0  0  0  0
   -2.3283    3.5169   -4.7977 C   0  0  0  0  0  0  0  0  0  0  0  0
   -3.6411    0.9480   -5.5865 C   0  0  0  0  0  0  0  0  0  0  0  0
   -3.9848    1.2199   -6.9223 C   0  0  0  0  0  0  0  0  0  0  0  0
   -5.3102    1.0997   -7.3481 C   0  0  0  0  0  0  0  0  0  0  0  0
   -6.3063    0.7138   -6.4403 C   0  0  0  0  0  0  0  0  0  0  0  0
   -8.0044    0.5237   -6.9855 S   0  0  0  0  0  0  0  0  0  0  0  0
   -8.4732    2.2224   -6.5350 C   0  0  0  0  0  0  0  0  0  0  0  0
   -5.9698    0.4664   -5.1066 C   0  0  0  0  0  0  0  0  0  0  0  0
   -4.6423    0.5746   -4.6821 C   0  0  0  0  0  0  0  0  0  0  0  0
   -1.0492   -0.9154   -5.9975 C   0  0  0  0  0  0  0  0  0  0  0  0
   -0.8617   -0.7044   -7.6578 S   0  0  0  0  0  0  0  0  0  0  0  0
   -0.0797   -2.2078   -7.8772 C   0  0  0  0  0  0  0  0  0  0  0  0
    0.0224   -2.8693   -6.6473 C   0  0  0  0  0  0  0  0  0  0  0  0
    0.4983   -4.2175   -6.4904 N   0  0  0  0  0  0  0  0  0  0  0  0
   -0.4112   -5.3374   -6.6471 C   0  0  0  0  0  0  0  0  0  0  0  0
   -1.7762   -5.1282   -6.9507 C   0  0  0  0  0  0  0  0  0  0  0  0
   -2.6517   -6.2062   -7.0816 C   0  0  0  0  0  0  0  0  0  0  0  0
   -2.1871   -7.5120   -6.9069 C   0  0  0  0  0  0  0  0  0  0  0  0
   -3.3215   -8.8924   -7.0706 S   0  0  0  0  0  0  0  0  0  0  0  0
   -3.7303   -8.9128   -5.3001 C   0  0  0  0  0  0  0  0  0  0  0  0
   -0.8399   -7.7383   -6.6122 C   0  0  0  0  0  0  0  0  0  0  0  0
    0.0398   -6.6625   -6.4791 C   0  0  0  0  0  0  0  0  0  0  0  0
    1.8850   -4.4115   -6.1775 C   0  0  0  0  0  0  0  0  0  0  0  0
    2.7949   -4.7705   -7.1816 C   0  0  0  0  0  0  0  0  0  0  0  0
    4.1471   -4.9542   -6.8769 C   0  0  0  0  0  0  0  0  0  0  0  0
    4.5800   -4.8428   -5.5504 C   0  0  0  0  0  0  0  0  0  0  0  0
    6.3016   -5.1324   -5.1365 S   0  0  0  0  0  0  0  0  0  0  0  0
    6.1032   -6.9376   -5.0118 C   0  0  0  0  0  0  0  0  0  0  0  0
    3.6693   -4.5159   -4.5409 C   0  0  0  0  0  0  0  0  0  0  0  0
    2.3278   -4.2972   -4.8553 C   0  0  0  0  0  0  0  0  0  0  0  0
   -0.5258   -2.1102   -5.6268 C   0  0  0  0  0  0  0  0  0  0  0  0
   -0.6146   -2.2805   -3.9652 S   0  0  0  0  0  0  0  0  0  0  0  0
    0.5678   -2.6373   -9.1174 C   0  0  0  0  0  0  0  0  0  0  0  0
    1.8744   -2.3980   -9.3524 C   0  0  0  0  0  0  0  0  0  0  0  0
    2.7976   -1.7190   -8.4139 C   0  0  0  0  0  0  0  0  0  0  0  0
    2.4979   -1.1003   -7.3561 O   0  0  0  0  0  0  0  0  0  0  0  0
    4.1366   -1.9746   -8.8753 C   0  0  0  0  0  0  0  0  0  0  0  0
    5.6751   -1.8077   -8.2399 S   0  0  0  0  0  0  0  0  0  0  0  0
    6.3789   -2.6844   -9.5171 C   0  0  0  0  0  0  0  0  0  0  0  0
    8.2376   -3.0873   -9.6484 Br  0  0  0  0  0  0  0  0  0  0  0  0
    5.3989   -3.1390  -10.4034 C   0  0  0  0  0  0  0  0  0  0  0  0
    4.1264   -2.7059  -10.0154 C   0  0  0  0  0  0  0  0  0  0  0  0
    2.7354   -2.9687  -10.4498 C   0  0  0  0  0  0  0  0  0  0  0  0
    2.3574   -3.5200  -11.6289 C   0  0  0  0  0  0  0  0  0  0  0  0
    0.9799   -3.5912  -12.0469 C   0  0  0  0  0  0  0  0  0  0  0  0
   -0.1216   -3.6418  -12.4015 N   0  0  0  0  0  0  0  0  0  0  0  0
    3.3215   -3.9564  -12.6080 C   0  0  0  0  0  0  0  0  0  0  0  0
    4.0910   -4.3085  -13.4006 N   0  0  0  0  0  0  0  0  0  0  0  0
    4.2587    3.0315    6.7080 H   0  0  0  0  0  0  0  0  0  0  0  0
    5.7332   -1.9545    8.2186 H   0  0  0  0  0  0  0  0  0  0  0  0
    2.4180   -2.6115    4.4007 H   0  0  0  0  0  0  0  0  0  0  0  0
    3.8769   -5.5806    5.4081 H   0  0  0  0  0  0  0  0  0  0  0  0
    1.2677   -5.3535    6.3214 H   0  0  0  0  0  0  0  0  0  0  0  0
    2.0353   -7.7538    7.1003 H   0  0  0  0  0  0  0  0  0  0  0  0
    3.7085   -7.4802    9.0891 H   0  0  0  0  0  0  0  0  0  0  0  0
    3.9924   -4.8909    9.5831 H   0  0  0  0  0  0  0  0  0  0  0  0
    1.4257   -5.0795    8.9570 H   0  0  0  0  0  0  0  0  0  0  0  0
    2.1192   -3.6039    8.1578 H   0  0  0  0  0  0  0  0  0  0  0  0
    5.4095   -5.3068    7.2205 H   0  0  0  0  0  0  0  0  0  0  0  0
    0.9030   -0.8433    5.7996 H   0  0  0  0  0  0  0  0  0  0  0  0
   -0.5411   -2.7887    6.2372 H   0  0  0  0  0  0  0  0  0  0  0  0
   -1.8809   -3.5287   10.6658 H   0  0  0  0  0  0  0  0  0  0  0  0
   -1.7648   -5.1174    9.8236 H   0  0  0  0  0  0  0  0  0  0  0  0
   -0.4634   -3.8849    9.6055 H   0  0  0  0  0  0  0  0  0  0  0  0
   -1.9889   -0.9247    9.8302 H   0  0  0  0  0  0  0  0  0  0  0  0
   -0.4922    0.9897    9.4478 H   0  0  0  0  0  0  0  0  0  0  0  0
    0.8060    3.8970    8.2161 H   0  0  0  0  0  0  0  0  0  0  0  0
    2.0520    5.0259   10.0123 H   0  0  0  0  0  0  0  0  0  0  0  0
    4.8970    5.4135    9.7912 H   0  0  0  0  0  0  0  0  0  0  0  0
    6.1740    5.3850   11.0724 H   0  0  0  0  0  0  0  0  0  0  0  0
    5.9108    3.9231   10.0377 H   0  0  0  0  0  0  0  0  0  0  0  0
    4.2485    1.4041   10.7765 H   0  0  0  0  0  0  0  0  0  0  0  0
    2.9872    0.2594    8.9840 H   0  0  0  0  0  0  0  0  0  0  0  0
   -0.0526    4.5042   -0.3014 H   0  0  0  0  0  0  0  0  0  0  0  0
   -1.6540    5.0255   -2.0972 H   0  0  0  0  0  0  0  0  0  0  0  0
   -5.8900    4.3944   -3.2831 H   0  0  0  0  0  0  0  0  0  0  0  0
   -6.0099    4.1051   -1.5093 H   0  0  0  0  0  0  0  0  0  0  0  0
   -4.5958    3.4608   -2.4407 H   0  0  0  0  0  0  0  0  0  0  0  0
   -4.8116    5.3249    0.8143 H   0  0  0  0  0  0  0  0  0  0  0  0
   -3.1997    4.8127    2.6128 H   0  0  0  0  0  0  0  0  0  0  0  0
    1.4053    5.8056    0.9330 H   0  0  0  0  0  0  0  0  0  0  0  0
    2.4974    7.9414    1.4894 H   0  0  0  0  0  0  0  0  0  0  0  0
    1.1664   11.8779    3.0597 H   0  0  0  0  0  0  0  0  0  0  0  0
    1.0177   10.6300    1.7638 H   0  0  0  0  0  0  0  0  0  0  0  0
   -0.0680   10.5741    3.2170 H   0  0  0  0  0  0  0  0  0  0  0  0
    0.0895    8.2535    5.0401 H   0  0  0  0  0  0  0  0  0  0  0  0
   -1.0457    6.1449    4.4687 H   0  0  0  0  0  0  0  0  0  0  0  0
   -4.6541    2.2387   -0.4454 H   0  0  0  0  0  0  0  0  0  0  0  0
   -6.4956    1.5813   -1.9761 H   0  0  0  0  0  0  0  0  0  0  0  0
   -7.9630   -2.5207   -3.3678 H   0  0  0  0  0  0  0  0  0  0  0  0
   -6.4364   -1.6469   -2.9649 H   0  0  0  0  0  0  0  0  0  0  0  0
   -7.2050   -2.7443   -1.7547 H   0  0  0  0  0  0  0  0  0  0  0  0
   -7.5331   -1.6439    0.6737 H   0  0  0  0  0  0  0  0  0  0  0  0
   -5.6558   -1.0561    2.1359 H   0  0  0  0  0  0  0  0  0  0  0  0
   -3.0734   -1.0093    3.4523 H   0  0  0  0  0  0  0  0  0  0  0  0
   -3.4672   -1.0750    5.8936 H   0  0  0  0  0  0  0  0  0  0  0  0
   -3.0218    1.9612    9.0111 H   0  0  0  0  0  0  0  0  0  0  0  0
   -3.4753    2.8971    7.5305 H   0  0  0  0  0  0  0  0  0  0  0  0
   -2.4025    1.4603    7.3872 H   0  0  0  0  0  0  0  0  0  0  0  0
   -5.6128    2.6500    5.6457 H   0  0  0  0  0  0  0  0  0  0  0  0
   -5.2000    2.7273    3.2095 H   0  0  0  0  0  0  0  0  0  0  0  0
    3.3405    1.1501   -1.0331 H   0  0  0  0  0  0  0  0  0  0  0  0
    5.0722   -0.2608   -0.0024 H   0  0  0  0  0  0  0  0  0  0  0  0
    6.3854   -2.3850   -1.5307 H   0  0  0  0  0  0  0  0  0  0  0  0
    7.0252   -3.9552   -0.9024 H   0  0  0  0  0  0  0  0  0  0  0  0
    5.4562   -3.9226   -1.7904 H   0  0  0  0  0  0  0  0  0  0  0  0
    2.5786   -3.7250   -0.5374 H   0  0  0  0  0  0  0  0  0  0  0  0
    0.8187   -2.3123   -1.5141 H   0  0  0  0  0  0  0  0  0  0  0  0
    2.6218   -0.1027   -4.1470 H   0  0  0  0  0  0  0  0  0  0  0  0
    3.6371    1.6194   -5.5877 H   0  0  0  0  0  0  0  0  0  0  0  0
    5.2917    5.7276   -4.7178 H   0  0  0  0  0  0  0  0  0  0  0  0
    4.2683    5.0286   -3.4049 H   0  0  0  0  0  0  0  0  0  0  0  0
    5.3997    3.9658   -4.3510 H   0  0  0  0  0  0  0  0  0  0  0  0
    1.4146    4.6645   -3.5089 H   0  0  0  0  0  0  0  0  0  0  0  0
    0.3657    2.9504   -2.1015 H   0  0  0  0  0  0  0  0  0  0  0  0
    0.0203    1.7184   -6.4844 H   0  0  0  0  0  0  0  0  0  0  0  0
    0.7608    3.9908   -7.0806 H   0  0  0  0  0  0  0  0  0  0  0  0
    0.6731    8.1753   -4.9092 H   0  0  0  0  0  0  0  0  0  0  0  0
    1.5880    6.6285   -4.9752 H   0  0  0  0  0  0  0  0  0  0  0  0
    0.0230    6.7226   -4.0574 H   0  0  0  0  0  0  0  0  0  0  0  0
   -2.4336    5.6618   -4.7439 H   0  0  0  0  0  0  0  0  0  0  0  0
   -3.2256    3.3989   -4.2145 H   0  0  0  0  0  0  0  0  0  0  0  0
   -3.2219    1.5272   -7.6278 H   0  0  0  0  0  0  0  0  0  0  0  0
   -5.5627    1.3126   -8.3792 H   0  0  0  0  0  0  0  0  0  0  0  0
   -8.3537    2.3750   -5.4431 H   0  0  0  0  0  0  0  0  0  0  0  0
   -7.8467    2.9512   -7.0866 H   0  0  0  0  0  0  0  0  0  0  0  0
   -9.5375    2.3888   -6.8025 H   0  0  0  0  0  0  0  0  0  0  0  0
   -6.7415    0.2010   -4.3993 H   0  0  0  0  0  0  0  0  0  0  0  0
   -4.4056    0.3921   -3.6469 H   0  0  0  0  0  0  0  0  0  0  0  0
   -2.1773   -4.1333   -7.0890 H   0  0  0  0  0  0  0  0  0  0  0  0
   -3.6958   -6.0260   -7.3064 H   0  0  0  0  0  0  0  0  0  0  0  0
   -2.8234   -9.1621   -4.7102 H   0  0  0  0  0  0  0  0  0  0  0  0
   -4.1269   -7.9239   -4.9852 H   0  0  0  0  0  0  0  0  0  0  0  0
   -4.5064   -9.6838   -5.1132 H   0  0  0  0  0  0  0  0  0  0  0  0
   -0.4777   -8.7509   -6.4742 H   0  0  0  0  0  0  0  0  0  0  0  0
    1.0724   -6.8790   -6.2360 H   0  0  0  0  0  0  0  0  0  0  0  0
    2.4598   -4.9078   -8.2005 H   0  0  0  0  0  0  0  0  0  0  0  0
    4.8505   -5.2111   -7.6621 H   0  0  0  0  0  0  0  0  0  0  0  0
    5.3198   -7.1949   -4.2679 H   0  0  0  0  0  0  0  0  0  0  0  0
    7.0664   -7.3864   -4.6937 H   0  0  0  0  0  0  0  0  0  0  0  0
    5.8288   -7.3632   -5.9985 H   0  0  0  0  0  0  0  0  0  0  0  0
    3.9909   -4.4399   -3.5133 H   0  0  0  0  0  0  0  0  0  0  0  0
    1.6276   -4.0649   -4.0672 H   0  0  0  0  0  0  0  0  0  0  0  0
   -0.0071   -3.2730   -9.7660 H   0  0  0  0  0  0  0  0  0  0  0  0
    5.6174   -3.7705  -11.2505 H   0  0  0  0  0  0  0  0  0  0  0  0
  1  2  2  3
  2  3  1  0
  3  4  2  0
  3  5  1  0
  5  6  2  0
  6  7  1  0
  7  8  2  0
  8  9  1  0
  9 10  2  0
 10 11  1  0
 11 12  2  3
 12 13  1  0
 13 14  3  0
 12 15  1  0
 15 16  3  0
  8 17  1  0
 17 18  1  0
 18 19  1  0
 19 20  2  0
 20 21  1  0
 21 22  1  0
 21 23  1  0
  1 24  1  0
 24 25  2  0
 25 26  1  0
 26 27  1  0
 27 28  2  0
 28 29  1  0
 29 30  2  0
 30 31  1  0
 31 32  1  0
 30 33  1  0
 33 34  2  0
 26 35  1  0
 35 36  2  0
 36 37  1  0
 37 38  2  0
 38 39  1  0
 39 40  1  0
 38 41  1  0
 41 42  2  0
 25 43  1  0
 43 44  1  0
 44 45  1  0
 45 46  2  0
 46 47  1  0
 47 48  1  0
 48 49  2  0
 49 50  1  0
 50 51  2  0
 51 52  1  0
 52 53  1  0
 51 54  1  0
 54 55  2  0
 47 56  1  0
 56 57  2  0
 57 58  1  0
 58 59  2  0
 59 60  1  0
 60 61  1  0
 59 62  1  0
 62 63  2  0
 46 64  1  0
 64 65  1  0
 45 66  1  0
 66 67  2  0
 67 68  1  0
 68 69  1  0
 69 70  2  0
 70 71  1  0
 71 72  2  0
 72 73  1  0
 73 74  1  0
 72 75  1  0
 75 76  2  0
 68 77  1  0
 77 78  2  0
 78 79  1  0
 79 80  2  0
 80 81  1  0
 81 82  1  0
 80 83  1  0
 83 84  2  0
 67 85  1  0
 85 86  1  0
 86 87  1  0
 87 88  2  0
 88 89  1  0
 89 90  1  0
 90 91  2  0
 91 92  1  0
 92 93  2  0
 93 94  1  0
 94 95  1  0
 93 96  1  0
 96 97  2  0
 89 98  1  0
 98 99  2  0
 99100  1  0
100101  2  0
101102  1  0
102103  1  0
101104  1  0
104105  2  0
 88106  1  0
106107  1  0
 87108  1  0
108109  2  0
109110  1  0
110111  1  0
111112  2  0
112113  1  0
113114  2  0
114115  1  0
115116  1  0
114117  1  0
117118  2  0
110119  1  0
119120  2  0
120121  1  0
121122  2  0
122123  1  0
123124  1  0
122125  1  0
125126  2  0
109127  1  0
127128  1  0
128129  1  0
129130  2  0
130131  1  0
131132  1  0
132133  2  0
133134  1  0
134135  2  0
135136  1  0
136137  1  0
135138  1  0
138139  2  0
131140  1  0
140141  2  0
141142  1  0
142143  2  0
143144  1  0
144145  1  0
143146  1  0
146147  2  0
130148  1  0
148149  1  0
129150  1  0
150151  2  3
151152  1  0
152153  2  0
152154  1  0
154155  1  0
155156  1  0
156157  1  0
156158  2  0
158159  1  0
159160  1  0
160161  2  3
161162  1  0
162163  3  0
161164  1  0
164165  3  0
 11  2  1  0
 23 17  1  0
 65 24  1  0
107 66  1  0
149108  1  0
160151  1  0
 10  5  1  0
 22 18  1  0
 34 27  1  0
 42 35  1  0
 64 43  2  0
 76 69  1  0
 84 77  1  0
106 85  2  0
118111  1  0
126119  1  0
148127  2  0
159154  2  0
 23  7  1  0
 55 48  1  0
 63 56  1  0
 97 90  1  0
105 98  1  0
139132  1  0
147140  1  0
  1166  1  0
  6167  1  0
  9168  1  0
 17169  1  0
 18170  1  0
 19171  1  0
 20172  1  0
 21173  1  0
 22174  1  0
 22175  1  0
 23176  1  0
 28177  1  0
 29178  1  0
 32179  1  0
 32180  1  0
 32181  1  0
 33182  1  0
 34183  1  0
 36184  1  0
 37185  1  0
 40186  1  0
 40187  1  0
 40188  1  0
 41189  1  0
 42190  1  0
 49191  1  0
 50192  1  0
 53193  1  0
 53194  1  0
 53195  1  0
 54196  1  0
 55197  1  0
 57198  1  0
 58199  1  0
 61200  1  0
 61201  1  0
 61202  1  0
 62203  1  0
 63204  1  0
 70205  1  0
 71206  1  0
 74207  1  0
 74208  1  0
 74209  1  0
 75210  1  0
 76211  1  0
 78212  1  0
 79213  1  0
 82214  1  0
 82215  1  0
 82216  1  0
 83217  1  0
 84218  1  0
 91219  1  0
 92220  1  0
 95221  1  0
 95222  1  0
 95223  1  0
 96224  1  0
 97225  1  0
 99226  1  0
100227  1  0
103228  1  0
103229  1  0
103230  1  0
104231  1  0
105232  1  0
112233  1  0
113234  1  0
116235  1  0
116236  1  0
116237  1  0
117238  1  0
118239  1  0
120240  1  0
121241  1  0
124242  1  0
124243  1  0
124244  1  0
125245  1  0
126246  1  0
133247  1  0
134248  1  0
137249  1  0
137250  1  0
137251  1  0
138252  1  0
139253  1  0
141254  1  0
142255  1  0
145256  1  0
145257  1  0
145258  1  0
146259  1  0
147260  1  0
150261  1  0
158262  1  0
M  END

