
     RDKit          3D

191209  0  0  0  0  0  0  0  0999 V2000
    7.6351   -4.2658    1.0319 C   0  0  0  0  0  0  0  0  0  0  0  0
    7.1337   -4.3096    2.2849 C   0  0  0  0  0  0  0  0  0  0  0  0
    5.7872   -3.8666    2.6747 C   0  0  0  0  0  0  0  0  0  0  0  0
    5.0037   -3.1502    1.9948 O   0  0  0  0  0  0  0  0  0  0  0  0
    5.5015   -4.3604    4.0032 C   0  0  0  0  0  0  0  0  0  0  0  0
    4.2649   -4.2851    4.6901 C   0  0  0  0  0  0  0  0  0  0  0  0
    4.2664   -4.9164    5.9178 C   0  0  0  0  0  0  0  0  0  0  0  0
    5.4122   -5.5936    6.4426 C   0  0  0  0  0  0  0  0  0  0  0  0
    6.6202   -5.6855    5.7695 C   0  0  0  0  0  0  0  0  0  0  0  0
    6.6487   -5.0209    4.5108 C   0  0  0  0  0  0  0  0  0  0  0  0
    7.7496   -4.9294    3.5045 C   0  0  0  0  0  0  0  0  0  0  0  0
    9.0692   -5.1849    3.7239 C   0  0  0  0  0  0  0  0  0  0  0  0
    9.5739   -5.6412    4.9918 C   0  0  0  0  0  0  0  0  0  0  0  0
    9.9997   -6.0057    6.0020 N   0  0  0  0  0  0  0  0  0  0  0  0
   10.0916   -4.9331    2.7403 C   0  0  0  0  0  0  0  0  0  0  0  0
   10.9231   -4.7516    1.9523 N   0  0  0  0  0  0  0  0  0  0  0  0
    4.6428   -5.9840    7.6678 C   0  0  0  0  0  0  0  0  0  0  0  0
    4.1945   -7.4729    7.7564 C   0  0  0  0  0  0  0  0  0  0  0  0
    3.1383   -7.5218    8.8353 C   0  0  0  0  0  0  0  0  0  0  0  0
    2.0623   -6.8971    8.3396 C   0  0  0  0  0  0  0  0  0  0  0  0
    2.4291   -6.4497    6.9456 C   0  0  0  0  0  0  0  0  0  0  0  0
    3.2936   -7.6339    6.5428 C   0  0  0  0  0  0  0  0  0  0  0  0
    3.4648   -5.2993    7.1268 C   0  0  0  0  0  0  0  0  0  0  0  0
    6.9082   -3.6668   -0.0946 C   0  0  0  0  0  0  0  0  0  0  0  0
    7.1853   -2.4103   -0.6638 C   0  0  0  0  0  0  0  0  0  0  0  0
    8.4007   -1.5912   -0.3180 C   0  0  0  0  0  0  0  0  0  0  0  0
    9.6000   -2.0324   -1.1467 C   0  0  0  0  0  0  0  0  0  0  0  0
    6.2048   -2.0591   -1.6108 C   0  0  0  0  0  0  0  0  0  0  0  0
    5.2835   -3.0447   -1.8177 C   0  0  0  0  0  0  0  0  0  0  0  0
    5.5035   -4.3355   -0.7779 S   0  0  0  0  0  0  0  0  0  0  0  0
    4.1539   -2.5200   -2.5234 C   0  0  0  0  0  0  0  0  0  0  0  0
    4.3701   -1.1824   -2.7247 C   0  0  0  0  0  0  0  0  0  0  0  0
    5.7457   -0.7401   -2.2340 C   0  0  0  0  0  0  0  0  0  0  0  0
    6.6734   -0.3880   -3.4233 C   0  0  0  0  0  0  0  0  0  0  0  0
    6.1926    0.7979   -4.2633 C   0  0  0  0  0  0  0  0  0  0  0  0
    5.6241    0.4280   -1.2061 C   0  0  0  0  0  0  0  0  0  0  0  0
    4.9079    0.0613    0.1002 C   0  0  0  0  0  0  0  0  0  0  0  0
    3.1898   -0.4412   -2.8309 C   0  0  0  0  0  0  0  0  0  0  0  0
    2.0587   -1.2418   -2.6743 C   0  0  0  0  0  0  0  0  0  0  0  0
    2.5198   -2.8414   -2.3554 S   0  0  0  0  0  0  0  0  0  0  0  0
    0.7314   -0.7191   -2.3634 C   0  0  0  0  0  0  0  0  0  0  0  0
   -0.4825   -1.1362   -2.9310 C   0  0  0  0  0  0  0  0  0  0  0  0
   -0.5985   -2.0675   -4.0225 N   0  0  0  0  0  0  0  0  0  0  0  0
    0.2876   -1.9550   -5.1568 C   0  0  0  0  0  0  0  0  0  0  0  0
    0.6415   -0.6888   -5.6612 C   0  0  0  0  0  0  0  0  0  0  0  0
    1.5488   -0.5772   -6.7180 C   0  0  0  0  0  0  0  0  0  0  0  0
    2.1129   -1.7256   -7.2843 C   0  0  0  0  0  0  0  0  0  0  0  0
    3.2937   -1.5761   -8.6262 S   0  0  0  0  0  0  0  0  0  0  0  0
    2.0139   -1.6202   -9.9198 C   0  0  0  0  0  0  0  0  0  0  0  0
    1.7645   -2.9879   -6.7907 C   0  0  0  0  0  0  0  0  0  0  0  0
    0.8598   -3.1022   -5.7332 C   0  0  0  0  0  0  0  0  0  0  0  0
   -1.5616   -3.1386   -3.9392 C   0  0  0  0  0  0  0  0  0  0  0  0
   -1.7496   -3.8310   -2.7311 C   0  0  0  0  0  0  0  0  0  0  0  0
   -2.6877   -4.8629   -2.6474 C   0  0  0  0  0  0  0  0  0  0  0  0
   -3.4528   -5.2101   -3.7664 C   0  0  0  0  0  0  0  0  0  0  0  0
   -4.6664   -6.5286   -3.6550 S   0  0  0  0  0  0  0  0  0  0  0  0
   -3.4911   -7.8208   -4.1656 C   0  0  0  0  0  0  0  0  0  0  0  0
   -3.2728   -4.5219   -4.9718 C   0  0  0  0  0  0  0  0  0  0  0  0
   -2.3321   -3.4928   -5.0599 C   0  0  0  0  0  0  0  0  0  0  0  0
   -1.5600   -0.5266   -2.2900 C   0  0  0  0  0  0  0  0  0  0  0  0
   -3.2276   -0.5116   -2.4947 S   0  0  0  0  0  0  0  0  0  0  0  0
   -3.5197    0.5702   -1.2038 C   0  0  0  0  0  0  0  0  0  0  0  0
   -2.2872    0.9038   -0.6126 C   0  0  0  0  0  0  0  0  0  0  0  0
   -2.1147    1.7675    0.5208 N   0  0  0  0  0  0  0  0  0  0  0  0
   -1.6401    3.0962    0.2395 C   0  0  0  0  0  0  0  0  0  0  0  0
   -2.4342    3.9893   -0.4942 C   0  0  0  0  0  0  0  0  0  0  0  0
   -1.9332    5.2447   -0.8547 C   0  0  0  0  0  0  0  0  0  0  0  0
   -0.6285    5.6050   -0.5026 C   0  0  0  0  0  0  0  0  0  0  0  0
    0.0467    7.1768   -1.0337 S   0  0  0  0  0  0  0  0  0  0  0  0
    0.7441    6.4792   -2.5668 C   0  0  0  0  0  0  0  0  0  0  0  0
    0.1640    4.7224    0.2423 C   0  0  0  0  0  0  0  0  0  0  0  0
   -0.3390    3.4716    0.6096 C   0  0  0  0  0  0  0  0  0  0  0  0
   -2.0897    1.2131    1.8656 C   0  0  0  0  0  0  0  0  0  0  0  0
   -2.2051   -0.1792    2.0785 C   0  0  0  0  0  0  0  0  0  0  0  0
   -2.1586   -0.7143    3.3650 C   0  0  0  0  0  0  0  0  0  0  0  0
   -1.9869    0.1250    4.4669 C   0  0  0  0  0  0  0  0  0  0  0  0
   -1.8735   -0.5752    6.1131 S   0  0  0  0  0  0  0  0  0  0  0  0
   -0.0818   -0.8745    5.9941 C   0  0  0  0  0  0  0  0  0  0  0  0
   -1.9009    1.5080    4.2812 C   0  0  0  0  0  0  0  0  0  0  0  0
   -1.9700    2.0516    2.9953 C   0  0  0  0  0  0  0  0  0  0  0  0
   -1.2258    0.2962   -1.2652 C   0  0  0  0  0  0  0  0  0  0  0  0
    0.4370    0.3593   -1.0774 S   0  0  0  0  0  0  0  0  0  0  0  0
   -4.8204    1.1574   -0.8343 C   0  0  0  0  0  0  0  0  0  0  0  0
   -5.6963    1.8475   -1.7022 C   0  0  0  0  0  0  0  0  0  0  0  0
   -5.7241    1.6689   -3.2008 C   0  0  0  0  0  0  0  0  0  0  0  0
   -6.4779    0.3946   -3.5736 C   0  0  0  0  0  0  0  0  0  0  0  0
   -6.6098    2.6427   -0.9758 C   0  0  0  0  0  0  0  0  0  0  0  0
   -6.5455    2.4437    0.3686 C   0  0  0  0  0  0  0  0  0  0  0  0
   -5.2423    1.4897    0.7759 S   0  0  0  0  0  0  0  0  0  0  0  0
   -7.2127    3.5061    1.0464 C   0  0  0  0  0  0  0  0  0  0  0  0
   -7.6675    4.3979    0.1109 C   0  0  0  0  0  0  0  0  0  0  0  0
   -7.4076    3.9094   -1.3209 C   0  0  0  0  0  0  0  0  0  0  0  0
   -6.4898    4.9193   -2.0956 C   0  0  0  0  0  0  0  0  0  0  0  0
   -7.2083    6.0473   -2.8342 C   0  0  0  0  0  0  0  0  0  0  0  0
   -8.7101    3.4620   -2.0491 C   0  0  0  0  0  0  0  0  0  0  0  0
   -9.8574    4.4828   -2.0802 C   0  0  0  0  0  0  0  0  0  0  0  0
   -7.7798    5.6998    0.6221 C   0  0  0  0  0  0  0  0  0  0  0  0
   -7.3747    5.7734    1.9588 C   0  0  0  0  0  0  0  0  0  0  0  0
   -6.8563    4.2604    2.4957 S   0  0  0  0  0  0  0  0  0  0  0  0
   -7.1957    7.0028    2.7404 C   0  0  0  0  0  0  0  0  0  0  0  0
   -6.3307    7.9822    2.4052 C   0  0  0  0  0  0  0  0  0  0  0  0
   -5.2816    7.8673    1.3823 C   0  0  0  0  0  0  0  0  0  0  0  0
   -5.1649    6.9567    0.5204 O   0  0  0  0  0  0  0  0  0  0  0  0
   -4.3253    8.9299    1.5823 C   0  0  0  0  0  0  0  0  0  0  0  0
   -3.1713    9.1898    0.8420 C   0  0  0  0  0  0  0  0  0  0  0  0
   -2.3936   10.3061    1.1795 C   0  0  0  0  0  0  0  0  0  0  0  0
   -0.8176   10.6673    0.1459 Br  0  0  0  0  0  0  0  0  0  0  0  0
   -2.7888   11.1460    2.2452 C   0  0  0  0  0  0  0  0  0  0  0  0
   -1.7792   12.7049    2.7105 Br  0  0  0  0  0  0  0  0  0  0  0  0
   -3.9597   10.8588    2.9732 C   0  0  0  0  0  0  0  0  0  0  0  0
   -4.7169    9.7238    2.6442 C   0  0  0  0  0  0  0  0  0  0  0  0
   -6.0003    9.2041    3.2052 C   0  0  0  0  0  0  0  0  0  0  0  0
   -6.7516    9.7623    4.1889 C   0  0  0  0  0  0  0  0  0  0  0  0
   -8.1183    9.3666    4.4148 C   0  0  0  0  0  0  0  0  0  0  0  0
   -9.2110    9.0214    4.5768 N   0  0  0  0  0  0  0  0  0  0  0  0
   -6.2341   10.7504    5.0960 C   0  0  0  0  0  0  0  0  0  0  0  0
   -5.8166   11.5302    5.8464 N   0  0  0  0  0  0  0  0  0  0  0  0
    8.5903   -4.6966    0.7870 H   0  0  0  0  0  0  0  0  0  0  0  0
    3.3874   -3.7973    4.2820 H   0  0  0  0  0  0  0  0  0  0  0  0
    7.4296   -6.2543    6.1886 H   0  0  0  0  0  0  0  0  0  0  0  0
    5.0410   -5.5412    8.6074 H   0  0  0  0  0  0  0  0  0  0  0  0
    5.0115   -8.2174    7.8566 H   0  0  0  0  0  0  0  0  0  0  0  0
    3.1930   -8.0415    9.7875 H   0  0  0  0  0  0  0  0  0  0  0  0
    1.0951   -6.8269    8.8214 H   0  0  0  0  0  0  0  0  0  0  0  0
    1.5688   -6.2255    6.2809 H   0  0  0  0  0  0  0  0  0  0  0  0
    3.8106   -7.5043    5.5675 H   0  0  0  0  0  0  0  0  0  0  0  0
    2.7374   -8.6015    6.5310 H   0  0  0  0  0  0  0  0  0  0  0  0
    3.1217   -4.4273    7.7266 H   0  0  0  0  0  0  0  0  0  0  0  0
    8.2235   -0.5170   -0.4952 H   0  0  0  0  0  0  0  0  0  0  0  0
    8.6408   -1.7058    0.7587 H   0  0  0  0  0  0  0  0  0  0  0  0
   10.4622   -1.3593   -0.9334 H   0  0  0  0  0  0  0  0  0  0  0  0
    9.3662   -1.9666   -2.2325 H   0  0  0  0  0  0  0  0  0  0  0  0
    9.8786   -3.0761   -0.8923 H   0  0  0  0  0  0  0  0  0  0  0  0
    6.7645   -1.2695   -4.0955 H   0  0  0  0  0  0  0  0  0  0  0  0
    7.6921   -0.1581   -3.0420 H   0  0  0  0  0  0  0  0  0  0  0  0
    5.1624    0.6270   -4.6395 H   0  0  0  0  0  0  0  0  0  0  0  0
    6.2224    1.7357   -3.6702 H   0  0  0  0  0  0  0  0  0  0  0  0
    6.8649    0.9207   -5.1413 H   0  0  0  0  0  0  0  0  0  0  0  0
    6.6202    0.8452   -0.9614 H   0  0  0  0  0  0  0  0  0  0  0  0
    5.0696    1.2716   -1.6675 H   0  0  0  0  0  0  0  0  0  0  0  0
    5.5052   -0.6669    0.6902 H   0  0  0  0  0  0  0  0  0  0  0  0
    4.7763    0.9736    0.7151 H   0  0  0  0  0  0  0  0  0  0  0  0
    3.9041   -0.3694   -0.0997 H   0  0  0  0  0  0  0  0  0  0  0  0
    3.1556    0.6423   -2.8556 H   0  0  0  0  0  0  0  0  0  0  0  0
    0.2210    0.2112   -5.2306 H   0  0  0  0  0  0  0  0  0  0  0  0
    1.8171    0.4035   -7.0924 H   0  0  0  0  0  0  0  0  0  0  0  0
    1.4481   -2.5728   -9.8619 H   0  0  0  0  0  0  0  0  0  0  0  0
    1.3182   -0.7653   -9.7958 H   0  0  0  0  0  0  0  0  0  0  0  0
    2.4984   -1.5451  -10.9149 H   0  0  0  0  0  0  0  0  0  0  0  0
    2.2058   -3.8798   -7.2173 H   0  0  0  0  0  0  0  0  0  0  0  0
    0.6211   -4.0834   -5.3462 H   0  0  0  0  0  0  0  0  0  0  0  0
   -1.1588   -3.5806   -1.8596 H   0  0  0  0  0  0  0  0  0  0  0  0
   -2.8174   -5.3915   -1.7117 H   0  0  0  0  0  0  0  0  0  0  0  0
   -3.0927   -7.5922   -5.1758 H   0  0  0  0  0  0  0  0  0  0  0  0
   -2.6559   -7.8850   -3.4361 H   0  0  0  0  0  0  0  0  0  0  0  0
   -4.0162   -8.7965   -4.2010 H   0  0  0  0  0  0  0  0  0  0  0  0
   -3.8624   -4.7858   -5.8414 H   0  0  0  0  0  0  0  0  0  0  0  0
   -2.2082   -2.9675   -5.9986 H   0  0  0  0  0  0  0  0  0  0  0  0
   -3.4362    3.7122   -0.7944 H   0  0  0  0  0  0  0  0  0  0  0  0
   -2.5502    5.9218   -1.4320 H   0  0  0  0  0  0  0  0  0  0  0  0
    1.4712    5.6714   -2.3282 H   0  0  0  0  0  0  0  0  0  0  0  0
   -0.0757    6.0746   -3.1993 H   0  0  0  0  0  0  0  0  0  0  0  0
    1.2695    7.2819   -3.1305 H   0  0  0  0  0  0  0  0  0  0  0  0
    1.1769    4.9902    0.5095 H   0  0  0  0  0  0  0  0  0  0  0  0
    0.2944    2.7792    1.1483 H   0  0  0  0  0  0  0  0  0  0  0  0
   -2.3273   -0.8616    1.2491 H   0  0  0  0  0  0  0  0  0  0  0  0
   -2.2447   -1.7853    3.5034 H   0  0  0  0  0  0  0  0  0  0  0  0
    0.4583    0.0882    5.8816 H   0  0  0  0  0  0  0  0  0  0  0  0
    0.2674   -1.3764    6.9196 H   0  0  0  0  0  0  0  0  0  0  0  0
    0.1422   -1.5334    5.1285 H   0  0  0  0  0  0  0  0  0  0  0  0
   -1.7881    2.1637    5.1369 H   0  0  0  0  0  0  0  0  0  0  0  0
   -1.9217    3.1276    2.8874 H   0  0  0  0  0  0  0  0  0  0  0  0
   -4.6906    1.6402   -3.6045 H   0  0  0  0  0  0  0  0  0  0  0  0
   -6.2422    2.5061   -3.7023 H   0  0  0  0  0  0  0  0  0  0  0  0
   -7.5322    0.4648   -3.2242 H   0  0  0  0  0  0  0  0  0  0  0  0
   -6.0079   -0.4988   -3.1132 H   0  0  0  0  0  0  0  0  0  0  0  0
   -6.4786    0.2763   -4.6756 H   0  0  0  0  0  0  0  0  0  0  0  0
   -5.7610    5.3644   -1.3934 H   0  0  0  0  0  0  0  0  0  0  0  0
   -5.8616    4.4088   -2.8443 H   0  0  0  0  0  0  0  0  0  0  0  0
   -6.4616    6.7984   -3.1798 H   0  0  0  0  0  0  0  0  0  0  0  0
   -7.7168    5.6474   -3.7368 H   0  0  0  0  0  0  0  0  0  0  0  0
   -7.9438    6.5686   -2.1911 H   0  0  0  0  0  0  0  0  0  0  0  0
   -8.4743    3.1581   -3.0914 H   0  0  0  0  0  0  0  0  0  0  0  0
   -9.1029    2.5536   -1.5405 H   0  0  0  0  0  0  0  0  0  0  0  0
   -9.8407    5.0628   -3.0255 H   0  0  0  0  0  0  0  0  0  0  0  0
   -9.8315    5.1862   -1.2215 H   0  0  0  0  0  0  0  0  0  0  0  0
  -10.8304    3.9466   -2.0507 H   0  0  0  0  0  0  0  0  0  0  0  0
   -8.0222    6.5743    0.0359 H   0  0  0  0  0  0  0  0  0  0  0  0
   -7.6817    7.0117    3.7001 H   0  0  0  0  0  0  0  0  0  0  0  0
   -2.8848    8.5418    0.0216 H   0  0  0  0  0  0  0  0  0  0  0  0
   -4.2510   11.5334    3.7566 H   0  0  0  0  0  0  0  0  0  0  0  0
  1  2  2  3
  2  3  1  0
  3  4  2  0
  3  5  1  0
  5  6  2  0
  6  7  1  0
  7  8  2  0
  8  9  1  0
  9 10  2  0
 10 11  1  0
 11 12  2  3
 12 13  1  0
 13 14  3  0
 12 15  1  0
 15 16  3  0
  8 17  1  0
 17 18  1  0
 18 19  1  0
 19 20  2  0
 20 21  1  0
 21 22  1  0
 21 23  1  0
  1 24  1  0
 24 25  2  0
 25 26  1  0
 26 27  1  0
 25 28  1  0
 28 29  2  0
 29 30  1  0
 29 31  1  0
 31 32  2  0
 32 33  1  0
 33 34  1  0
 34 35  1  0
 33 36  1  0
 36 37  1  0
 32 38  1  0
 38 39  2  0
 39 40  1  0
 39 41  1  0
 41 42  2  0
 42 43  1  0
 43 44  1  0
 44 45  2  0
 45 46  1  0
 46 47  2  0
 47 48  1  0
 48 49  1  0
 47 50  1  0
 50 51  2  0
 43 52  1  0
 52 53  2  0
 53 54  1  0
 54 55  2  0
 55 56  1  0
 56 57  1  0
 55 58  1  0
 58 59  2  0
 42 60  1  0
 60 61  1  0
 61 62  1  0
 62 63  2  0
 63 64  1  0
 64 65  1  0
 65 66  2  0
 66 67  1  0
 67 68  2  0
 68 69  1  0
 69 70  1  0
 68 71  1  0
 71 72  2  0
 64 73  1  0
 73 74  2  0
 74 75  1  0
 75 76  2  0
 76 77  1  0
 77 78  1  0
 76 79  1  0
 79 80  2  0
 63 81  1  0
 81 82  1  0
 62 83  1  0
 83 84  2  0
 84 85  1  0
 85 86  1  0
 84 87  1  0
 87 88  2  0
 88 89  1  0
 88 90  1  0
 90 91  2  0
 91 92  1  0
 92 93  1  0
 93 94  1  0
 92 95  1  0
 95 96  1  0
 91 97  1  0
 97 98  2  0
 98 99  1  0
 98100  1  0
100101  2  3
101102  1  0
102103  2  0
102104  1  0
104105  2  0
105106  1  0
106107  1  0
106108  2  0
108109  1  0
108110  1  0
110111  2  0
111112  1  0
112113  2  3
113114  1  0
114115  3  0
113116  1  0
116117  3  0
 11  2  1  0
 23 17  1  0
 30 24  1  0
 40 31  1  0
 82 41  1  0
 89 83  1  0
 99 90  1  0
112101  1  0
 10  5  1  0
 22 18  1  0
 33 28  1  0
 51 44  1  0
 59 52  1  0
 81 60  2  0
 92 87  1  0
111104  1  0
 23  7  1  0
 72 65  1  0
 80 73  1  0
  1118  1  0
  6119  1  0
  9120  1  0
 17121  1  0
 18122  1  0
 19123  1  0
 20124  1  0
 21125  1  0
 22126  1  0
 22127  1  0
 23128  1  0
 26129  1  0
 26130  1  0
 27131  1  0
 27132  1  0
 27133  1  0
 34134  1  0
 34135  1  0
 35136  1  0
 35137  1  0
 35138  1  0
 36139  1  0
 36140  1  0
 37141  1  0
 37142  1  0
 37143  1  0
 38144  1  0
 45145  1  0
 46146  1  0
 49147  1  0
 49148  1  0
 49149  1  0
 50150  1  0
 51151  1  0
 53152  1  0
 54153  1  0
 57154  1  0
 57155  1  0
 57156  1  0
 58157  1  0
 59158  1  0
 66159  1  0
 67160  1  0
 70161  1  0
 70162  1  0
 70163  1  0
 71164  1  0
 72165  1  0
 74166  1  0
 75167  1  0
 78168  1  0
 78169  1  0
 78170  1  0
 79171  1  0
 80172  1  0
 85173  1  0
 85174  1  0
 86175  1  0
 86176  1  0
 86177  1  0
 93178  1  0
 93179  1  0
 94180  1  0
 94181  1  0
 94182  1  0
 95183  1  0
 95184  1  0
 96185  1  0
 96186  1  0
 96187  1  0
 97188  1  0
100189  1  0
105190  1  0
110191  1  0
M  END

