
     RDKit          3D

157176  0  0  0  0  0  0  0  0999 V2000
    4.7975    0.1284    8.5120 C   0  0  0  0  0  0  0  0  0  0  0  0
    4.5752   -0.9090    7.6786 C   0  0  0  0  0  0  0  0  0  0  0  0
    3.6027   -0.9060    6.5722 C   0  0  0  0  0  0  0  0  0  0  0  0
    2.9757    0.0907    6.1206 O   0  0  0  0  0  0  0  0  0  0  0  0
    3.4159   -2.2557    6.1050 C   0  0  0  0  0  0  0  0  0  0  0  0
    2.4944   -2.6911    5.1261 C   0  0  0  0  0  0  0  0  0  0  0  0
    2.4718   -4.0609    4.9501 C   0  0  0  0  0  0  0  0  0  0  0  0
    3.3059   -4.9570    5.6926 C   0  0  0  0  0  0  0  0  0  0  0  0
    4.2034   -4.5343    6.6636 C   0  0  0  0  0  0  0  0  0  0  0  0
    4.2616   -3.1219    6.8409 C   0  0  0  0  0  0  0  0  0  0  0  0
    5.0915   -2.3099    7.7844 C   0  0  0  0  0  0  0  0  0  0  0  0
    6.2369   -2.7114    8.3980 C   0  0  0  0  0  0  0  0  0  0  0  0
    7.0844   -1.8025    9.1281 C   0  0  0  0  0  0  0  0  0  0  0  0
    7.7675   -1.0801    9.7201 N   0  0  0  0  0  0  0  0  0  0  0  0
    6.7804   -4.0324    8.2291 C   0  0  0  0  0  0  0  0  0  0  0  0
    7.2326   -5.0883    8.0926 N   0  0  0  0  0  0  0  0  0  0  0  0
    2.7268   -6.1296    4.9563 C   0  0  0  0  0  0  0  0  0  0  0  0
    3.6001   -6.7968    3.8508 C   0  0  0  0  0  0  0  0  0  0  0  0
    4.5082   -5.7675    3.2139 C   0  0  0  0  0  0  0  0  0  0  0  0
    3.7216   -4.9373    2.5264 C   0  0  0  0  0  0  0  0  0  0  0  0
    2.3055   -5.4289    2.7216 C   0  0  0  0  0  0  0  0  0  0  0  0
    2.5726   -6.9220    2.7439 C   0  0  0  0  0  0  0  0  0  0  0  0
    1.8672   -5.2112    4.2033 C   0  0  0  0  0  0  0  0  0  0  0  0
    4.2227    1.4584    8.2443 C   0  0  0  0  0  0  0  0  0  0  0  0
    3.0014    1.8135    8.8364 C   0  0  0  0  0  0  0  0  0  0  0  0
    2.2138    2.8357    8.2841 C   0  0  0  0  0  0  0  0  0  0  0  0
    1.0013    3.0854    8.8405 F   0  0  0  0  0  0  0  0  0  0  0  0
    2.6130    3.4994    7.1045 C   0  0  0  0  0  0  0  0  0  0  0  0
    3.9224    3.2728    6.6269 C   0  0  0  0  0  0  0  0  0  0  0  0
    4.7196    2.2402    7.1943 C   0  0  0  0  0  0  0  0  0  0  0  0
    5.9130    1.9884    6.5938 N   0  0  0  0  0  0  0  0  0  0  0  0
    5.8816    3.1066    5.3833 S   0  0  0  0  0  0  0  0  0  0  0  0
    4.4452    3.8984    5.5405 N   0  0  0  0  0  0  0  0  0  0  0  0
    1.5984    4.1433    6.2351 C   0  0  0  0  0  0  0  0  0  0  0  0
    0.0266    3.4951    6.0719 S   0  0  0  0  0  0  0  0  0  0  0  0
   -0.2179    4.2653    4.6120 C   0  0  0  0  0  0  0  0  0  0  0  0
   -0.9787    3.8412    3.5802 N   0  0  0  0  0  0  0  0  0  0  0  0
   -0.4977    4.3394    2.4136 C   0  0  0  0  0  0  0  0  0  0  0  0
    0.9459    5.2207    2.6418 S   0  0  0  0  0  0  0  0  0  0  0  0
    0.8865    4.9954    4.2992 C   0  0  0  0  0  0  0  0  0  0  0  0
    1.9284    4.9123    5.1585 N   0  0  0  0  0  0  0  0  0  0  0  0
   -0.9203    3.7858    1.1229 C   0  0  0  0  0  0  0  0  0  0  0  0
   -0.9052    4.4167   -0.1315 C   0  0  0  0  0  0  0  0  0  0  0  0
   -0.3265    5.7043   -0.3755 N   0  0  0  0  0  0  0  0  0  0  0  0
    1.0792    5.8382   -0.7139 C   0  0  0  0  0  0  0  0  0  0  0  0
    1.9183    4.7016   -0.7742 C   0  0  0  0  0  0  0  0  0  0  0  0
    3.2743    4.8282   -1.0786 C   0  0  0  0  0  0  0  0  0  0  0  0
    3.8219    6.0878   -1.3321 C   0  0  0  0  0  0  0  0  0  0  0  0
    5.5727    6.2426   -1.6949 S   0  0  0  0  0  0  0  0  0  0  0  0
    5.3492    6.0065   -3.4890 C   0  0  0  0  0  0  0  0  0  0  0  0
    3.0131    7.2253   -1.2695 C   0  0  0  0  0  0  0  0  0  0  0  0
    1.6536    7.1039   -0.9609 C   0  0  0  0  0  0  0  0  0  0  0  0
   -1.2227    6.8177   -0.4578 C   0  0  0  0  0  0  0  0  0  0  0  0
   -1.7609    7.1925   -1.6959 C   0  0  0  0  0  0  0  0  0  0  0  0
   -2.6028    8.3016   -1.7877 C   0  0  0  0  0  0  0  0  0  0  0  0
   -2.9031    9.0476   -0.6427 C   0  0  0  0  0  0  0  0  0  0  0  0
   -3.9315   10.5087   -0.7743 S   0  0  0  0  0  0  0  0  0  0  0  0
   -2.5224   11.6073   -1.1183 C   0  0  0  0  0  0  0  0  0  0  0  0
   -2.3841    8.6639    0.6006 C   0  0  0  0  0  0  0  0  0  0  0  0
   -1.5488    7.5474    0.6934 C   0  0  0  0  0  0  0  0  0  0  0  0
   -1.1938    3.5104   -1.1546 C   0  0  0  0  0  0  0  0  0  0  0  0
   -1.0414    3.5747   -2.8213 S   0  0  0  0  0  0  0  0  0  0  0  0
   -1.2183    1.8960   -3.0309 C   0  0  0  0  0  0  0  0  0  0  0  0
   -1.3139    1.2691   -1.7737 C   0  0  0  0  0  0  0  0  0  0  0  0
   -0.9245   -0.0983   -1.5428 N   0  0  0  0  0  0  0  0  0  0  0  0
   -1.9515   -1.0928   -1.3483 C   0  0  0  0  0  0  0  0  0  0  0  0
   -2.9033   -0.9465   -0.3244 C   0  0  0  0  0  0  0  0  0  0  0  0
   -3.8080   -1.9771   -0.0476 C   0  0  0  0  0  0  0  0  0  0  0  0
   -3.7854   -3.1545   -0.8055 C   0  0  0  0  0  0  0  0  0  0  0  0
   -4.8778   -4.5157   -0.3794 S   0  0  0  0  0  0  0  0  0  0  0  0
   -6.2793   -3.8893   -1.3529 C   0  0  0  0  0  0  0  0  0  0  0  0
   -2.8680   -3.2887   -1.8548 C   0  0  0  0  0  0  0  0  0  0  0  0
   -1.9521   -2.2653   -2.1203 C   0  0  0  0  0  0  0  0  0  0  0  0
    0.4829   -0.4453   -1.3925 C   0  0  0  0  0  0  0  0  0  0  0  0
    1.5033    0.4286   -1.8286 C   0  0  0  0  0  0  0  0  0  0  0  0
    2.8501    0.0784   -1.7022 C   0  0  0  0  0  0  0  0  0  0  0  0
    3.2087   -1.1475   -1.1387 C   0  0  0  0  0  0  0  0  0  0  0  0
    4.9359   -1.6130   -1.0057 S   0  0  0  0  0  0  0  0  0  0  0  0
    4.9598   -2.4384   -2.6257 C   0  0  0  0  0  0  0  0  0  0  0  0
    2.2166   -2.0098   -0.6686 C   0  0  0  0  0  0  0  0  0  0  0  0
    0.8670   -1.6617   -0.7850 C   0  0  0  0  0  0  0  0  0  0  0  0
   -1.3466    2.2189   -0.7567 C   0  0  0  0  0  0  0  0  0  0  0  0
   -1.1919    2.1175    0.9060 S   0  0  0  0  0  0  0  0  0  0  0  0
   -0.9540    1.2136   -4.3026 C   0  0  0  0  0  0  0  0  0  0  0  0
   -1.8217    0.3582   -4.8654 C   0  0  0  0  0  0  0  0  0  0  0  0
   -3.1194   -0.0340   -4.3051 C   0  0  0  0  0  0  0  0  0  0  0  0
   -3.7807    0.5960   -3.4384 O   0  0  0  0  0  0  0  0  0  0  0  0
   -3.5217   -1.2836   -4.9083 C   0  0  0  0  0  0  0  0  0  0  0  0
   -4.5725   -2.1284   -4.4909 C   0  0  0  0  0  0  0  0  0  0  0  0
   -4.5635   -3.3714   -5.0962 C   0  0  0  0  0  0  0  0  0  0  0  0
   -3.5849   -3.7628   -6.0653 C   0  0  0  0  0  0  0  0  0  0  0  0
   -2.5572   -2.9349   -6.4883 C   0  0  0  0  0  0  0  0  0  0  0  0
   -2.5607   -1.6461   -5.8879 C   0  0  0  0  0  0  0  0  0  0  0  0
   -1.5550   -0.5603   -6.0108 C   0  0  0  0  0  0  0  0  0  0  0  0
   -0.7553   -0.3196   -7.0825 C   0  0  0  0  0  0  0  0  0  0  0  0
    0.0188    0.8875   -7.2066 C   0  0  0  0  0  0  0  0  0  0  0  0
    0.6362    1.8605   -7.3179 N   0  0  0  0  0  0  0  0  0  0  0  0
   -0.7688   -1.1639   -8.2483 C   0  0  0  0  0  0  0  0  0  0  0  0
   -0.7859   -1.8273   -9.1947 N   0  0  0  0  0  0  0  0  0  0  0  0
   -4.2091   -5.1239   -6.1706 C   0  0  0  0  0  0  0  0  0  0  0  0
   -5.0701   -5.4405   -7.4333 C   0  0  0  0  0  0  0  0  0  0  0  0
   -5.7224   -4.1773   -7.9464 C   0  0  0  0  0  0  0  0  0  0  0  0
   -6.6282   -3.8196   -7.0344 C   0  0  0  0  0  0  0  0  0  0  0  0
   -6.5597   -4.8491   -5.9316 C   0  0  0  0  0  0  0  0  0  0  0  0
   -6.2754   -6.0803   -6.7724 C   0  0  0  0  0  0  0  0  0  0  0  0
   -5.2061   -4.7264   -5.1700 C   0  0  0  0  0  0  0  0  0  0  0  0
    5.3579    0.0103    9.4253 H   0  0  0  0  0  0  0  0  0  0  0  0
    1.8472   -2.0203    4.5786 H   0  0  0  0  0  0  0  0  0  0  0  0
    4.7666   -5.2471    7.2394 H   0  0  0  0  0  0  0  0  0  0  0  0
    2.1634   -6.8368    5.6041 H   0  0  0  0  0  0  0  0  0  0  0  0
    4.1000   -7.7420    4.1507 H   0  0  0  0  0  0  0  0  0  0  0  0
    5.5929   -5.7506    3.2286 H   0  0  0  0  0  0  0  0  0  0  0  0
    4.0512   -4.1240    1.8904 H   0  0  0  0  0  0  0  0  0  0  0  0
    1.5798   -5.0836    1.9569 H   0  0  0  0  0  0  0  0  0  0  0  0
    1.6809   -7.5302    3.0266 H   0  0  0  0  0  0  0  0  0  0  0  0
    2.9956   -7.3094    1.7858 H   0  0  0  0  0  0  0  0  0  0  0  0
    0.7809   -5.3559    4.3934 H   0  0  0  0  0  0  0  0  0  0  0  0
    2.6118    1.2272    9.6573 H   0  0  0  0  0  0  0  0  0  0  0  0
    1.5364    3.7082   -0.5780 H   0  0  0  0  0  0  0  0  0  0  0  0
    3.8949    3.9419   -1.1182 H   0  0  0  0  0  0  0  0  0  0  0  0
    4.7866    6.8666   -3.9098 H   0  0  0  0  0  0  0  0  0  0  0  0
    4.8005    5.0659   -3.6965 H   0  0  0  0  0  0  0  0  0  0  0  0
    6.3432    5.9537   -3.9755 H   0  0  0  0  0  0  0  0  0  0  0  0
    3.4367    8.2049   -1.4428 H   0  0  0  0  0  0  0  0  0  0  0  0
    1.0583    8.0046   -0.9100 H   0  0  0  0  0  0  0  0  0  0  0  0
   -1.5154    6.6301   -2.5871 H   0  0  0  0  0  0  0  0  0  0  0  0
   -3.0056    8.5908   -2.7500 H   0  0  0  0  0  0  0  0  0  0  0  0
   -1.9929   11.2703   -2.0348 H   0  0  0  0  0  0  0  0  0  0  0  0
   -2.8961   12.6404   -1.2792 H   0  0  0  0  0  0  0  0  0  0  0  0
   -1.8206   11.6039   -0.2576 H   0  0  0  0  0  0  0  0  0  0  0  0
   -2.6218    9.2339    1.4897 H   0  0  0  0  0  0  0  0  0  0  0  0
   -1.1433    7.2596    1.6543 H   0  0  0  0  0  0  0  0  0  0  0  0
   -2.9223   -0.0558    0.2885 H   0  0  0  0  0  0  0  0  0  0  0  0
   -4.5090   -1.8690    0.7714 H   0  0  0  0  0  0  0  0  0  0  0  0
   -6.0060   -3.8428   -2.4245 H   0  0  0  0  0  0  0  0  0  0  0  0
   -7.1376   -4.5819   -1.2343 H   0  0  0  0  0  0  0  0  0  0  0  0
   -6.5734   -2.8787   -0.9933 H   0  0  0  0  0  0  0  0  0  0  0  0
   -2.8471   -4.1954   -2.4425 H   0  0  0  0  0  0  0  0  0  0  0  0
   -1.2253   -2.3933   -2.9155 H   0  0  0  0  0  0  0  0  0  0  0  0
    1.2749    1.3847   -2.2741 H   0  0  0  0  0  0  0  0  0  0  0  0
    3.6163    0.7574   -2.0554 H   0  0  0  0  0  0  0  0  0  0  0  0
    5.9694   -2.8653   -2.8019 H   0  0  0  0  0  0  0  0  0  0  0  0
    4.2122   -3.2595   -2.6412 H   0  0  0  0  0  0  0  0  0  0  0  0
    4.7320   -1.7087   -3.4304 H   0  0  0  0  0  0  0  0  0  0  0  0
    2.4859   -2.9575   -0.2165 H   0  0  0  0  0  0  0  0  0  0  0  0
    0.1327   -2.3520   -0.3908 H   0  0  0  0  0  0  0  0  0  0  0  0
    0.0200    1.3752   -4.7338 H   0  0  0  0  0  0  0  0  0  0  0  0
   -5.2778   -1.8592   -3.7176 H   0  0  0  0  0  0  0  0  0  0  0  0
   -1.7977   -3.2915   -7.1633 H   0  0  0  0  0  0  0  0  0  0  0  0
   -3.5437   -5.9505   -5.8328 H   0  0  0  0  0  0  0  0  0  0  0  0
   -4.5636   -6.0544   -8.2074 H   0  0  0  0  0  0  0  0  0  0  0  0
   -5.5527   -3.6924   -8.9018 H   0  0  0  0  0  0  0  0  0  0  0  0
   -7.3229   -2.9938   -7.1220 H   0  0  0  0  0  0  0  0  0  0  0  0
   -7.4650   -4.9113   -5.2902 H   0  0  0  0  0  0  0  0  0  0  0  0
   -7.0927   -6.3285   -7.4905 H   0  0  0  0  0  0  0  0  0  0  0  0
   -6.0233   -6.9854   -6.1655 H   0  0  0  0  0  0  0  0  0  0  0  0
   -5.1432   -5.3099   -4.2261 H   0  0  0  0  0  0  0  0  0  0  0  0
  1  2  2  3
  2  3  1  0
  3  4  2  0
  3  5  1  0
  5  6  2  0
  6  7  1  0
  7  8  2  0
  8  9  1  0
  9 10  2  0
 10 11  1  0
 11 12  2  3
 12 13  1  0
 13 14  3  0
 12 15  1  0
 15 16  3  0
  8 17  1  0
 17 18  1  0
 18 19  1  0
 19 20  2  0
 20 21  1  0
 21 22  1  0
 21 23  1  0
  1 24  1  0
 24 25  2  0
 25 26  1  0
 26 27  1  0
 26 28  2  0
 28 29  1  0
 29 30  1  0
 30 31  2  0
 31 32  1  0
 32 33  1  0
 28 34  1  0
 34 35  1  0
 35 36  1  0
 36 37  1  0
 37 38  2  0
 38 39  1  0
 39 40  1  0
 40 41  1  0
 38 42  1  0
 42 43  2  0
 43 44  1  0
 44 45  1  0
 45 46  2  0
 46 47  1  0
 47 48  2  0
 48 49  1  0
 49 50  1  0
 48 51  1  0
 51 52  2  0
 44 53  1  0
 53 54  2  0
 54 55  1  0
 55 56  2  0
 56 57  1  0
 57 58  1  0
 56 59  1  0
 59 60  2  0
 43 61  1  0
 61 62  1  0
 62 63  1  0
 63 64  2  0
 64 65  1  0
 65 66  1  0
 66 67  2  0
 67 68  1  0
 68 69  2  0
 69 70  1  0
 70 71  1  0
 69 72  1  0
 72 73  2  0
 65 74  1  0
 74 75  2  0
 75 76  1  0
 76 77  2  0
 77 78  1  0
 78 79  1  0
 77 80  1  0
 80 81  2  0
 64 82  1  0
 82 83  1  0
 63 84  1  0
 84 85  2  3
 85 86  1  0
 86 87  2  0
 86 88  1  0
 88 89  2  0
 89 90  1  0
 90 91  2  0
 91 92  1  0
 92 93  2  0
 93 94  1  0
 94 95  2  3
 95 96  1  0
 96 97  3  0
 95 98  1  0
 98 99  3  0
 91100  1  0
100101  1  0
101102  1  0
102103  2  0
103104  1  0
104105  1  0
104106  1  0
 11  2  1  0
 23 17  1  0
 30 24  1  0
 41 34  2  0
 83 42  1  0
 94 85  1  0
106100  1  0
 10  5  1  0
 22 18  1  0
 33 29  2  0
 40 36  2  0
 52 45  1  0
 60 53  1  0
 82 61  2  0
 93 88  1  0
105101  1  0
 23  7  1  0
 73 66  1  0
 81 74  1  0
106 90  1  0
  1107  1  0
  6108  1  0
  9109  1  0
 17110  1  0
 18111  1  0
 19112  1  0
 20113  1  0
 21114  1  0
 22115  1  0
 22116  1  0
 23117  1  0
 25118  1  0
 46119  1  0
 47120  1  0
 50121  1  0
 50122  1  0
 50123  1  0
 51124  1  0
 52125  1  0
 54126  1  0
 55127  1  0
 58128  1  0
 58129  1  0
 58130  1  0
 59131  1  0
 60132  1  0
 67133  1  0
 68134  1  0
 71135  1  0
 71136  1  0
 71137  1  0
 72138  1  0
 73139  1  0
 75140  1  0
 76141  1  0
 79142  1  0
 79143  1  0
 79144  1  0
 80145  1  0
 81146  1  0
 84147  1  0
 89148  1  0
 92149  1  0
100150  1  0
101151  1  0
102152  1  0
103153  1  0
104154  1  0
105155  1  0
105156  1  0
106157  1  0
M  END

