
     RDKit          3D

174192  0  0  0  0  0  0  0  0999 V2000
    2.1327   -4.6545    6.0493 C   0  0  0  0  0  0  0  0  0  0  0  0
    2.8408   -4.5117    7.1970 C   0  0  0  0  0  0  0  0  0  0  0  0
    3.8992   -3.5407    7.4690 C   0  0  0  0  0  0  0  0  0  0  0  0
    4.7670   -3.1373    6.6527 O   0  0  0  0  0  0  0  0  0  0  0  0
    3.7690   -3.0935    8.8452 C   0  0  0  0  0  0  0  0  0  0  0  0
    4.2277   -1.8645    9.3801 C   0  0  0  0  0  0  0  0  0  0  0  0
    3.6464   -1.5343   10.5942 C   0  0  0  0  0  0  0  0  0  0  0  0
    2.6802   -2.3676   11.2518 C   0  0  0  0  0  0  0  0  0  0  0  0
    2.2356   -3.5721   10.7364 C   0  0  0  0  0  0  0  0  0  0  0  0
    2.8144   -3.9254    9.4916 C   0  0  0  0  0  0  0  0  0  0  0  0
    2.3463   -4.9537    8.5323 C   0  0  0  0  0  0  0  0  0  0  0  0
    1.7449   -6.1336    8.8295 C   0  0  0  0  0  0  0  0  0  0  0  0
    1.5071   -7.1384    7.8247 C   0  0  0  0  0  0  0  0  0  0  0  0
    1.3100   -7.9408    7.0184 N   0  0  0  0  0  0  0  0  0  0  0  0
    1.5067   -6.5277   10.1897 C   0  0  0  0  0  0  0  0  0  0  0  0
    1.3196   -6.8548   11.2814 N   0  0  0  0  0  0  0  0  0  0  0  0
    2.4813   -1.3343   12.3154 C   0  0  0  0  0  0  0  0  0  0  0  0
    1.1495   -0.5296   12.2257 C   0  0  0  0  0  0  0  0  0  0  0  0
    1.3341    0.6723   13.1187 C   0  0  0  0  0  0  0  0  0  0  0  0
    2.2234    1.4668   12.5046 C   0  0  0  0  0  0  0  0  0  0  0  0
    2.6092    0.7743   11.2192 C   0  0  0  0  0  0  0  0  0  0  0  0
    1.2587    0.1649   10.8725 C   0  0  0  0  0  0  0  0  0  0  0  0
    3.4605   -0.4703   11.6369 C   0  0  0  0  0  0  0  0  0  0  0  0
    2.2392   -3.8194    4.8185 C   0  0  0  0  0  0  0  0  0  0  0  0
    2.5356   -2.4364    4.8606 C   0  0  0  0  0  0  0  0  0  0  0  0
    2.5543   -1.7618    6.0304 F   0  0  0  0  0  0  0  0  0  0  0  0
    2.5204   -1.6776    3.6967 C   0  0  0  0  0  0  0  0  0  0  0  0
    3.0857   -0.4540    3.7132 F   0  0  0  0  0  0  0  0  0  0  0  0
    1.9009   -2.1609    2.5331 C   0  0  0  0  0  0  0  0  0  0  0  0
    1.6192   -3.5497    2.4612 C   0  0  0  0  0  0  0  0  0  0  0  0
    1.1243   -4.1083    1.3226 N   0  0  0  0  0  0  0  0  0  0  0  0
    0.8622   -5.4359    1.2113 C   0  0  0  0  0  0  0  0  0  0  0  0
    0.3243   -5.9560   -0.1016 C   0  0  0  0  0  0  0  0  0  0  0  0
   -1.1978   -5.9152   -0.1131 C   0  0  0  0  0  0  0  0  0  0  0  0
    1.0771   -6.2669    2.3391 C   0  0  0  0  0  0  0  0  0  0  0  0
    1.5464   -5.7071    3.4882 N   0  0  0  0  0  0  0  0  0  0  0  0
    1.8282   -4.3789    3.5888 C   0  0  0  0  0  0  0  0  0  0  0  0
    0.8702   -7.7629    2.3152 C   0  0  0  0  0  0  0  0  0  0  0  0
    2.1534   -8.4802    1.8965 C   0  0  0  0  0  0  0  0  0  0  0  0
    1.4310   -1.1939    1.4931 C   0  0  0  0  0  0  0  0  0  0  0  0
    0.8791    0.0916    1.7351 C   0  0  0  0  0  0  0  0  0  0  0  0
    0.5294    0.6097    3.0304 N   0  0  0  0  0  0  0  0  0  0  0  0
    1.3682    1.6182    3.6553 C   0  0  0  0  0  0  0  0  0  0  0  0
    1.5290    1.6345    5.0560 C   0  0  0  0  0  0  0  0  0  0  0  0
    2.4024    2.5397    5.6619 C   0  0  0  0  0  0  0  0  0  0  0  0
    3.1126    3.4613    4.8890 C   0  0  0  0  0  0  0  0  0  0  0  0
    4.2605    4.5974    5.6706 S   0  0  0  0  0  0  0  0  0  0  0  0
    2.9642    5.8086    6.1074 C   0  0  0  0  0  0  0  0  0  0  0  0
    2.9656    3.4590    3.4950 C   0  0  0  0  0  0  0  0  0  0  0  0
    2.1152    2.5371    2.8830 C   0  0  0  0  0  0  0  0  0  0  0  0
   -0.7342    0.2042    3.6258 C   0  0  0  0  0  0  0  0  0  0  0  0
   -1.4755    1.1079    4.4175 C   0  0  0  0  0  0  0  0  0  0  0  0
   -2.6843    0.7110    5.0050 C   0  0  0  0  0  0  0  0  0  0  0  0
   -3.1817   -0.5755    4.7912 C   0  0  0  0  0  0  0  0  0  0  0  0
   -4.7486   -1.0685    5.5060 S   0  0  0  0  0  0  0  0  0  0  0  0
   -5.7096   -0.5324    4.0568 C   0  0  0  0  0  0  0  0  0  0  0  0
   -2.4673   -1.4716    3.9910 C   0  0  0  0  0  0  0  0  0  0  0  0
   -1.2591   -1.0859    3.4160 C   0  0  0  0  0  0  0  0  0  0  0  0
    0.4354    0.6870    0.5580 C   0  0  0  0  0  0  0  0  0  0  0  0
   -0.2358    2.1832    0.1941 S   0  0  0  0  0  0  0  0  0  0  0  0
   -0.3828    1.8329   -1.4693 C   0  0  0  0  0  0  0  0  0  0  0  0
    0.0303    0.5058   -1.7172 C   0  0  0  0  0  0  0  0  0  0  0  0
   -0.2690   -0.2142   -2.9342 N   0  0  0  0  0  0  0  0  0  0  0  0
    0.4968   -1.3706   -3.3126 C   0  0  0  0  0  0  0  0  0  0  0  0
    1.8594   -1.2507   -3.6185 C   0  0  0  0  0  0  0  0  0  0  0  0
    2.5752   -2.3574   -4.0974 C   0  0  0  0  0  0  0  0  0  0  0  0
    1.9339   -3.5909   -4.2497 C   0  0  0  0  0  0  0  0  0  0  0  0
    2.8285   -4.9809   -4.9394 S   0  0  0  0  0  0  0  0  0  0  0  0
    2.2534   -4.6393   -6.6388 C   0  0  0  0  0  0  0  0  0  0  0  0
    0.5869   -3.7318   -3.8869 C   0  0  0  0  0  0  0  0  0  0  0  0
   -0.1326   -2.6208   -3.4426 C   0  0  0  0  0  0  0  0  0  0  0  0
   -1.4724    0.0791   -3.6806 C   0  0  0  0  0  0  0  0  0  0  0  0
   -1.4596    0.0568   -5.0852 C   0  0  0  0  0  0  0  0  0  0  0  0
   -2.6270    0.3163   -5.8092 C   0  0  0  0  0  0  0  0  0  0  0  0
   -3.8187    0.5951   -5.1366 C   0  0  0  0  0  0  0  0  0  0  0  0
   -5.3170    0.9332   -6.0657 S   0  0  0  0  0  0  0  0  0  0  0  0
   -5.8474   -0.8053   -6.0891 C   0  0  0  0  0  0  0  0  0  0  0  0
   -3.8459    0.6226   -3.7391 C   0  0  0  0  0  0  0  0  0  0  0  0
   -2.6830    0.3517   -3.0139 C   0  0  0  0  0  0  0  0  0  0  0  0
    0.5418   -0.0733   -0.5566 C   0  0  0  0  0  0  0  0  0  0  0  0
    1.2517   -1.5424   -0.1737 S   0  0  0  0  0  0  0  0  0  0  0  0
   -0.5301    2.8700   -2.5064 C   0  0  0  0  0  0  0  0  0  0  0  0
    0.4727    2.9947   -3.4848 C   0  0  0  0  0  0  0  0  0  0  0  0
    1.5592    2.1817   -3.4805 F   0  0  0  0  0  0  0  0  0  0  0  0
    0.3787    3.9796   -4.4578 C   0  0  0  0  0  0  0  0  0  0  0  0
   -0.7167    4.8626   -4.4807 C   0  0  0  0  0  0  0  0  0  0  0  0
   -1.6852    4.7845   -3.4704 C   0  0  0  0  0  0  0  0  0  0  0  0
   -1.6012    3.7819   -2.4925 C   0  0  0  0  0  0  0  0  0  0  0  0
   -0.7876    5.8883   -5.5344 C   0  0  0  0  0  0  0  0  0  0  0  0
   -0.5852    5.5619   -6.8288 C   0  0  0  0  0  0  0  0  0  0  0  0
   -0.8909    4.2345   -7.3789 C   0  0  0  0  0  0  0  0  0  0  0  0
   -1.3924    3.2619   -6.7484 O   0  0  0  0  0  0  0  0  0  0  0  0
   -0.6765    4.2559   -8.7972 C   0  0  0  0  0  0  0  0  0  0  0  0
   -0.8548    3.1752   -9.6894 C   0  0  0  0  0  0  0  0  0  0  0  0
   -0.5364    3.4722  -11.0003 C   0  0  0  0  0  0  0  0  0  0  0  0
   -0.0579    4.7568  -11.4154 C   0  0  0  0  0  0  0  0  0  0  0  0
    0.1121    5.8254  -10.5475 C   0  0  0  0  0  0  0  0  0  0  0  0
   -0.2303    5.5489   -9.1872 C   0  0  0  0  0  0  0  0  0  0  0  0
   -0.1849    6.4367   -7.9776 C   0  0  0  0  0  0  0  0  0  0  0  0
    0.2800    7.7175   -7.9137 C   0  0  0  0  0  0  0  0  0  0  0  0
    0.6553    8.4805   -9.0760 C   0  0  0  0  0  0  0  0  0  0  0  0
    0.9649    9.1109   -9.9993 N   0  0  0  0  0  0  0  0  0  0  0  0
    0.5009    8.4064   -6.6663 C   0  0  0  0  0  0  0  0  0  0  0  0
    0.6817    8.9679   -5.6734 N   0  0  0  0  0  0  0  0  0  0  0  0
    0.0060    4.2881  -12.8391 C   0  0  0  0  0  0  0  0  0  0  0  0
   -1.1110    4.8112  -13.7914 C   0  0  0  0  0  0  0  0  0  0  0  0
   -1.0702    3.9144  -15.0022 C   0  0  0  0  0  0  0  0  0  0  0  0
   -1.5288    2.7189  -14.6076 C   0  0  0  0  0  0  0  0  0  0  0  0
   -1.8562    2.8452  -13.1434 C   0  0  0  0  0  0  0  0  0  0  0  0
   -2.3811    4.2744  -13.1422 C   0  0  0  0  0  0  0  0  0  0  0  0
   -0.4846    2.9735  -12.4078 C   0  0  0  0  0  0  0  0  0  0  0  0
    1.2912   -5.3311    6.0583 H   0  0  0  0  0  0  0  0  0  0  0  0
    4.8826   -1.1883    8.8390 H   0  0  0  0  0  0  0  0  0  0  0  0
    1.4199   -4.1048   11.1945 H   0  0  0  0  0  0  0  0  0  0  0  0
    2.7781   -1.6484   13.3380 H   0  0  0  0  0  0  0  0  0  0  0  0
    0.2234   -1.1070   12.4057 H   0  0  0  0  0  0  0  0  0  0  0  0
    0.7885    0.9135   14.0313 H   0  0  0  0  0  0  0  0  0  0  0  0
    2.4997    2.4635   12.8218 H   0  0  0  0  0  0  0  0  0  0  0  0
    3.0525    1.4350   10.4434 H   0  0  0  0  0  0  0  0  0  0  0  0
    0.4601    0.9270   10.7089 H   0  0  0  0  0  0  0  0  0  0  0  0
    1.2739   -0.5273   10.0020 H   0  0  0  0  0  0  0  0  0  0  0  0
    4.3841   -0.2494   12.2243 H   0  0  0  0  0  0  0  0  0  0  0  0
    0.7059   -5.3345   -0.9364 H   0  0  0  0  0  0  0  0  0  0  0  0
    0.6767   -6.9892   -0.2872 H   0  0  0  0  0  0  0  0  0  0  0  0
   -1.5607   -4.8717   -0.2176 H   0  0  0  0  0  0  0  0  0  0  0  0
   -1.5740   -6.5174   -0.9657 H   0  0  0  0  0  0  0  0  0  0  0  0
   -1.6060   -6.3528    0.8262 H   0  0  0  0  0  0  0  0  0  0  0  0
    0.0432   -8.0458    1.6386 H   0  0  0  0  0  0  0  0  0  0  0  0
    0.5851   -8.1084    3.3336 H   0  0  0  0  0  0  0  0  0  0  0  0
    2.5275   -8.0976    0.9220 H   0  0  0  0  0  0  0  0  0  0  0  0
    2.9370   -8.3280    2.6721 H   0  0  0  0  0  0  0  0  0  0  0  0
    1.9646   -9.5618    1.8132 H   0  0  0  0  0  0  0  0  0  0  0  0
    1.0083    0.9152    5.6763 H   0  0  0  0  0  0  0  0  0  0  0  0
    2.5392    2.5205    6.7365 H   0  0  0  0  0  0  0  0  0  0  0  0
    2.5000    6.2260    5.1880 H   0  0  0  0  0  0  0  0  0  0  0  0
    3.4257    6.6276    6.6937 H   0  0  0  0  0  0  0  0  0  0  0  0
    2.1831    5.3292    6.7272 H   0  0  0  0  0  0  0  0  0  0  0  0
    3.5334    4.1530    2.8845 H   0  0  0  0  0  0  0  0  0  0  0  0
    2.0518    2.5373    1.8029 H   0  0  0  0  0  0  0  0  0  0  0  0
   -1.1341    2.1229    4.5797 H   0  0  0  0  0  0  0  0  0  0  0  0
   -3.2320    1.4134    5.6272 H   0  0  0  0  0  0  0  0  0  0  0  0
   -6.7800   -0.7699    4.2234 H   0  0  0  0  0  0  0  0  0  0  0  0
   -5.3610   -1.0641    3.1466 H   0  0  0  0  0  0  0  0  0  0  0  0
   -5.5999    0.5623    3.9149 H   0  0  0  0  0  0  0  0  0  0  0  0
   -2.8439   -2.4683    3.8172 H   0  0  0  0  0  0  0  0  0  0  0  0
   -0.7489   -1.8048    2.7969 H   0  0  0  0  0  0  0  0  0  0  0  0
    2.3641   -0.2999   -3.5121 H   0  0  0  0  0  0  0  0  0  0  0  0
    3.6196   -2.2473   -4.3594 H   0  0  0  0  0  0  0  0  0  0  0  0
    2.7209   -5.3634   -7.3301 H   0  0  0  0  0  0  0  0  0  0  0  0
    1.1510   -4.7485   -6.6936 H   0  0  0  0  0  0  0  0  0  0  0  0
    2.5470   -3.6121   -6.9441 H   0  0  0  0  0  0  0  0  0  0  0  0
    0.0870   -4.6876   -4.0055 H   0  0  0  0  0  0  0  0  0  0  0  0
   -1.1848   -2.7317   -3.1988 H   0  0  0  0  0  0  0  0  0  0  0  0
   -0.5399   -0.1429   -5.6198 H   0  0  0  0  0  0  0  0  0  0  0  0
   -2.6044    0.2988   -6.8930 H   0  0  0  0  0  0  0  0  0  0  0  0
   -5.1750   -1.4026   -6.7396 H   0  0  0  0  0  0  0  0  0  0  0  0
   -5.8469   -1.2268   -5.0598 H   0  0  0  0  0  0  0  0  0  0  0  0
   -6.8813   -0.8645   -6.4931 H   0  0  0  0  0  0  0  0  0  0  0  0
   -4.7633    0.8491   -3.2117 H   0  0  0  0  0  0  0  0  0  0  0  0
   -2.7295    0.3440   -1.9307 H   0  0  0  0  0  0  0  0  0  0  0  0
    1.1661    4.0534   -5.2010 H   0  0  0  0  0  0  0  0  0  0  0  0
   -2.5249    5.4672   -3.4702 H   0  0  0  0  0  0  0  0  0  0  0  0
   -2.3698    3.7083   -1.7308 H   0  0  0  0  0  0  0  0  0  0  0  0
   -0.8754    6.9099   -5.2164 H   0  0  0  0  0  0  0  0  0  0  0  0
   -1.1918    2.1984   -9.3710 H   0  0  0  0  0  0  0  0  0  0  0  0
    0.4517    6.7700  -10.9274 H   0  0  0  0  0  0  0  0  0  0  0  0
    1.0351    4.2821  -13.2617 H   0  0  0  0  0  0  0  0  0  0  0  0
   -1.0913    5.9003  -14.0096 H   0  0  0  0  0  0  0  0  0  0  0  0
   -0.8474    4.1973  -16.0247 H   0  0  0  0  0  0  0  0  0  0  0  0
   -1.7249    1.8740  -15.2592 H   0  0  0  0  0  0  0  0  0  0  0  0
   -2.5497    2.0762  -12.7441 H   0  0  0  0  0  0  0  0  0  0  0  0
   -2.5829    4.6925  -12.1310 H   0  0  0  0  0  0  0  0  0  0  0  0
   -3.2969    4.3955  -13.7657 H   0  0  0  0  0  0  0  0  0  0  0  0
    0.2239    2.1293  -12.5621 H   0  0  0  0  0  0  0  0  0  0  0  0
  1  2  2  3
  2  3  1  0
  3  4  2  0
  3  5  1  0
  5  6  2  0
  6  7  1  0
  7  8  2  0
  8  9  1  0
  9 10  2  0
 10 11  1  0
 11 12  2  3
 12 13  1  0
 13 14  3  0
 12 15  1  0
 15 16  3  0
  8 17  1  0
 17 18  1  0
 18 19  1  0
 19 20  2  0
 20 21  1  0
 21 22  1  0
 21 23  1  0
  1 24  1  0
 24 25  2  0
 25 26  1  0
 25 27  1  0
 27 28  1  0
 27 29  2  0
 29 30  1  0
 30 31  2  0
 31 32  1  0
 32 33  1  0
 33 34  1  0
 32 35  2  0
 35 36  1  0
 36 37  2  0
 35 38  1  0
 38 39  1  0
 29 40  1  0
 40 41  2  0
 41 42  1  0
 42 43  1  0
 43 44  2  0
 44 45  1  0
 45 46  2  0
 46 47  1  0
 47 48  1  0
 46 49  1  0
 49 50  2  0
 42 51  1  0
 51 52  2  0
 52 53  1  0
 53 54  2  0
 54 55  1  0
 55 56  1  0
 54 57  1  0
 57 58  2  0
 41 59  1  0
 59 60  1  0
 60 61  1  0
 61 62  2  0
 62 63  1  0
 63 64  1  0
 64 65  2  0
 65 66  1  0
 66 67  2  0
 67 68  1  0
 68 69  1  0
 67 70  1  0
 70 71  2  0
 63 72  1  0
 72 73  2  0
 73 74  1  0
 74 75  2  0
 75 76  1  0
 76 77  1  0
 75 78  1  0
 78 79  2  0
 62 80  1  0
 80 81  1  0
 61 82  1  0
 82 83  2  0
 83 84  1  0
 83 85  1  0
 85 86  2  0
 86 87  1  0
 87 88  2  0
 86 89  1  0
 89 90  2  3
 90 91  1  0
 91 92  2  0
 91 93  1  0
 93 94  2  0
 94 95  1  0
 95 96  2  0
 96 97  1  0
 97 98  2  0
 98 99  1  0
 99100  2  3
100101  1  0
101102  3  0
100103  1  0
103104  3  0
 96105  1  0
105106  1  0
106107  1  0
107108  2  0
108109  1  0
109110  1  0
109111  1  0
 11  2  1  0
 23 17  1  0
 37 24  1  0
 81 40  1  0
 88 82  1  0
 99 90  1  0
111105  1  0
 10  5  1  0
 22 18  1  0
 37 30  1  0
 50 43  1  0
 58 51  1  0
 80 59  2  0
 98 93  1  0
110106  1  0
 23  7  1  0
 71 64  1  0
 79 72  1  0
111 95  1  0
  1112  1  0
  6113  1  0
  9114  1  0
 17115  1  0
 18116  1  0
 19117  1  0
 20118  1  0
 21119  1  0
 22120  1  0
 22121  1  0
 23122  1  0
 33123  1  0
 33124  1  0
 34125  1  0
 34126  1  0
 34127  1  0
 38128  1  0
 38129  1  0
 39130  1  0
 39131  1  0
 39132  1  0
 44133  1  0
 45134  1  0
 48135  1  0
 48136  1  0
 48137  1  0
 49138  1  0
 50139  1  0
 52140  1  0
 53141  1  0
 56142  1  0
 56143  1  0
 56144  1  0
 57145  1  0
 58146  1  0
 65147  1  0
 66148  1  0
 69149  1  0
 69150  1  0
 69151  1  0
 70152  1  0
 71153  1  0
 73154  1  0
 74155  1  0
 77156  1  0
 77157  1  0
 77158  1  0
 78159  1  0
 79160  1  0
 85161  1  0
 87162  1  0
 88163  1  0
 89164  1  0
 94165  1  0
 97166  1  0
105167  1  0
106168  1  0
107169  1  0
108170  1  0
109171  1  0
110172  1  0
110173  1  0
111174  1  0
M  END

