
     RDKit          3D

225247  0  0  0  0  0  0  0  0999 V2000
    2.7334    6.8394   -0.4298 C   0  0  0  0  0  0  0  0  0  0  0  0
    4.0274    6.5438   -0.1972 C   0  0  0  0  0  0  0  0  0  0  0  0
    4.7015    6.9079    1.0516 C   0  0  0  0  0  0  0  0  0  0  0  0
    4.3026    7.7722    1.8766 O   0  0  0  0  0  0  0  0  0  0  0  0
    5.8478    6.0397    1.2343 C   0  0  0  0  0  0  0  0  0  0  0  0
    6.6788    5.9299    2.3744 C   0  0  0  0  0  0  0  0  0  0  0  0
    7.6365    4.9344    2.2727 C   0  0  0  0  0  0  0  0  0  0  0  0
    7.7548    4.0775    1.1283 C   0  0  0  0  0  0  0  0  0  0  0  0
    6.9267    4.1600    0.0240 C   0  0  0  0  0  0  0  0  0  0  0  0
    5.9679    5.2057    0.0923 C   0  0  0  0  0  0  0  0  0  0  0  0
    4.9293    5.5838   -0.9014 C   0  0  0  0  0  0  0  0  0  0  0  0
    5.0571    5.4592   -2.2470 C   0  0  0  0  0  0  0  0  0  0  0  0
    4.2083    6.1636   -3.1705 C   0  0  0  0  0  0  0  0  0  0  0  0
    3.5365    6.7205   -3.9308 N   0  0  0  0  0  0  0  0  0  0  0  0
    6.1735    4.7742   -2.8508 C   0  0  0  0  0  0  0  0  0  0  0  0
    7.0702    4.2400   -3.3519 N   0  0  0  0  0  0  0  0  0  0  0  0
    8.8845    3.3340    1.7759 C   0  0  0  0  0  0  0  0  0  0  0  0
    8.5871    1.9168    2.3478 C   0  0  0  0  0  0  0  0  0  0  0  0
    7.1494    1.8342    2.8110 C   0  0  0  0  0  0  0  0  0  0  0  0
    7.0531    2.6254    3.8806 C   0  0  0  0  0  0  0  0  0  0  0  0
    8.4203    3.2246    4.1049 C   0  0  0  0  0  0  0  0  0  0  0  0
    9.2683    2.0328    3.7004 C   0  0  0  0  0  0  0  0  0  0  0  0
    8.7647    4.2112    2.9476 C   0  0  0  0  0  0  0  0  0  0  0  0
    1.8366    6.0452   -1.2941 C   0  0  0  0  0  0  0  0  0  0  0  0
    0.7236    6.5437   -2.0105 C   0  0  0  0  0  0  0  0  0  0  0  0
    0.3332    7.9960   -2.0677 C   0  0  0  0  0  0  0  0  0  0  0  0
    1.3259    8.8126   -2.8884 C   0  0  0  0  0  0  0  0  0  0  0  0
    0.0369    5.5039   -2.6620 C   0  0  0  0  0  0  0  0  0  0  0  0
    0.5619    4.2811   -2.3928 C   0  0  0  0  0  0  0  0  0  0  0  0
    1.9037    4.3455   -1.4142 S   0  0  0  0  0  0  0  0  0  0  0  0
   -0.1464    3.2880   -3.1195 C   0  0  0  0  0  0  0  0  0  0  0  0
   -1.1232    3.8803   -3.8518 C   0  0  0  0  0  0  0  0  0  0  0  0
   -1.1333    5.3932   -3.6524 C   0  0  0  0  0  0  0  0  0  0  0  0
   -2.4884    5.8601   -3.0471 C   0  0  0  0  0  0  0  0  0  0  0  0
   -2.7674    5.3184   -1.6391 C   0  0  0  0  0  0  0  0  0  0  0  0
   -0.7708    6.1446   -4.9607 C   0  0  0  0  0  0  0  0  0  0  0  0
   -1.7255    5.8935   -6.1293 C   0  0  0  0  0  0  0  0  0  0  0  0
   -1.9886    2.9655   -4.4613 C   0  0  0  0  0  0  0  0  0  0  0  0
   -1.6050    1.6499   -4.1721 C   0  0  0  0  0  0  0  0  0  0  0  0
   -0.2957    1.6345   -3.0792 S   0  0  0  0  0  0  0  0  0  0  0  0
   -2.3011    0.4277   -4.5718 C   0  0  0  0  0  0  0  0  0  0  0  0
   -1.6318   -0.6753   -5.1392 C   0  0  0  0  0  0  0  0  0  0  0  0
   -0.5790   -0.6058   -6.1199 N   0  0  0  0  0  0  0  0  0  0  0  0
    0.5518    0.2464   -5.9102 C   0  0  0  0  0  0  0  0  0  0  0  0
    0.6090    1.5008   -6.5322 C   0  0  0  0  0  0  0  0  0  0  0  0
    1.6535    2.3782   -6.2427 C   0  0  0  0  0  0  0  0  0  0  0  0
    2.6613    1.9960   -5.3488 C   0  0  0  0  0  0  0  0  0  0  0  0
    3.9440    3.1551   -4.8995 S   0  0  0  0  0  0  0  0  0  0  0  0
    5.0406    2.6823   -6.2677 C   0  0  0  0  0  0  0  0  0  0  0  0
    2.6370    0.7215   -4.7694 C   0  0  0  0  0  0  0  0  0  0  0  0
    1.5857   -0.1547   -5.0530 C   0  0  0  0  0  0  0  0  0  0  0  0
   -0.6695   -1.4011   -7.3224 C   0  0  0  0  0  0  0  0  0  0  0  0
    0.4797   -1.9824   -7.8856 C   0  0  0  0  0  0  0  0  0  0  0  0
    0.3782   -2.7891   -9.0207 C   0  0  0  0  0  0  0  0  0  0  0  0
   -0.8656   -3.0237   -9.6109 C   0  0  0  0  0  0  0  0  0  0  0  0
   -0.9907   -4.0826  -11.0529 S   0  0  0  0  0  0  0  0  0  0  0  0
   -1.2956   -5.5806  -10.0642 C   0  0  0  0  0  0  0  0  0  0  0  0
   -2.0151   -2.4256   -9.0769 C   0  0  0  0  0  0  0  0  0  0  0  0
   -1.9177   -1.6233   -7.9391 C   0  0  0  0  0  0  0  0  0  0  0  0
   -2.1459   -1.8871   -4.6871 C   0  0  0  0  0  0  0  0  0  0  0  0
   -1.3161   -3.2971   -4.3271 S   0  0  0  0  0  0  0  0  0  0  0  0
   -2.3676   -3.8255   -3.0986 C   0  0  0  0  0  0  0  0  0  0  0  0
   -3.4046   -2.8811   -3.0123 C   0  0  0  0  0  0  0  0  0  0  0  0
   -4.5384   -3.0312   -2.1417 N   0  0  0  0  0  0  0  0  0  0  0  0
   -4.7354   -2.1654   -0.9904 C   0  0  0  0  0  0  0  0  0  0  0  0
   -3.6648   -1.4286   -0.4427 C   0  0  0  0  0  0  0  0  0  0  0  0
   -3.8555   -0.6147    0.6759 C   0  0  0  0  0  0  0  0  0  0  0  0
   -5.1218   -0.5066    1.2582 C   0  0  0  0  0  0  0  0  0  0  0  0
   -5.3625    0.5285    2.7029 S   0  0  0  0  0  0  0  0  0  0  0  0
   -5.6849    2.0344    1.7300 C   0  0  0  0  0  0  0  0  0  0  0  0
   -6.1982   -1.2036    0.7086 C   0  0  0  0  0  0  0  0  0  0  0  0
   -6.0113   -2.0202   -0.4097 C   0  0  0  0  0  0  0  0  0  0  0  0
   -5.5033   -4.0328   -2.5271 C   0  0  0  0  0  0  0  0  0  0  0  0
   -5.9349   -4.1164   -3.8654 C   0  0  0  0  0  0  0  0  0  0  0  0
   -6.8101   -5.1238   -4.2684 C   0  0  0  0  0  0  0  0  0  0  0  0
   -7.2638   -6.0713   -3.3447 C   0  0  0  0  0  0  0  0  0  0  0  0
   -8.3751   -7.3727   -3.8821 S   0  0  0  0  0  0  0  0  0  0  0  0
   -7.0347   -8.4851   -4.4188 C   0  0  0  0  0  0  0  0  0  0  0  0
   -6.8500   -5.9940   -2.0085 C   0  0  0  0  0  0  0  0  0  0  0  0
   -5.9665   -4.9861   -1.6028 C   0  0  0  0  0  0  0  0  0  0  0  0
   -3.2236   -1.7930   -3.8630 C   0  0  0  0  0  0  0  0  0  0  0  0
   -3.5607   -0.1707   -3.5977 S   0  0  0  0  0  0  0  0  0  0  0  0
   -1.7996   -4.3396   -1.8483 C   0  0  0  0  0  0  0  0  0  0  0  0
   -1.0007   -3.5180   -1.0588 C   0  0  0  0  0  0  0  0  0  0  0  0
   -0.9944   -3.8687    0.2936 C   0  0  0  0  0  0  0  0  0  0  0  0
   -0.4451   -3.0953    1.3368 C   0  0  0  0  0  0  0  0  0  0  0  0
    0.2602   -1.8232    1.0804 C   0  0  0  0  0  0  0  0  0  0  0  0
   -0.0701   -0.5870    1.6302 C   0  0  0  0  0  0  0  0  0  0  0  0
    0.7633    0.4499    1.1999 C   0  0  0  0  0  0  0  0  0  0  0  0
    1.7697    0.0260    0.3372 C   0  0  0  0  0  0  0  0  0  0  0  0
    2.8031    0.8664   -0.2911 C   0  0  0  0  0  0  0  0  0  0  0  0
    3.4605    1.8568    0.3298 C   0  0  0  0  0  0  0  0  0  0  0  0
    3.3842    2.1459    1.7740 C   0  0  0  0  0  0  0  0  0  0  0  0
    3.3140    1.2167    2.8116 C   0  0  0  0  0  0  0  0  0  0  0  0
    3.3252    1.8043    4.0824 C   0  0  0  0  0  0  0  0  0  0  0  0
    3.4265    3.1894    4.0449 C   0  0  0  0  0  0  0  0  0  0  0  0
    3.4806    4.0961    5.2336 C   0  0  0  0  0  0  0  0  0  0  0  0
    2.1175    4.1917    5.9123 C   0  0  0  0  0  0  0  0  0  0  0  0
    3.5022    3.6854    2.4393 S   0  0  0  0  0  0  0  0  0  0  0  0
    1.5907   -1.6224    0.0652 S   0  0  0  0  0  0  0  0  0  0  0  0
   -0.6794   -3.5494    2.6451 C   0  0  0  0  0  0  0  0  0  0  0  0
   -1.3757   -4.7318    2.9206 C   0  0  0  0  0  0  0  0  0  0  0  0
   -1.9056   -5.5165    1.8722 C   0  0  0  0  0  0  0  0  0  0  0  0
   -2.4616   -6.8585    2.1280 C   0  0  0  0  0  0  0  0  0  0  0  0
   -3.6332   -7.4066    1.6152 C   0  0  0  0  0  0  0  0  0  0  0  0
   -3.8244   -8.7479    1.9891 C   0  0  0  0  0  0  0  0  0  0  0  0
   -2.8042   -9.2614    2.7880 C   0  0  0  0  0  0  0  0  0  0  0  0
   -2.7161  -10.6732    3.2266 C   0  0  0  0  0  0  0  0  0  0  0  0
   -1.8156  -11.1716    4.0897 C   0  0  0  0  0  0  0  0  0  0  0  0
   -0.8381  -10.3689    4.8317 C   0  0  0  0  0  0  0  0  0  0  0  0
   -1.1158   -9.5354    5.9114 C   0  0  0  0  0  0  0  0  0  0  0  0
    0.0154   -8.8677    6.3938 C   0  0  0  0  0  0  0  0  0  0  0  0
    1.1710   -9.1690    5.6822 C   0  0  0  0  0  0  0  0  0  0  0  0
    2.5344   -8.6273    5.9707 C   0  0  0  0  0  0  0  0  0  0  0  0
    3.2390   -9.4744    7.0224 C   0  0  0  0  0  0  0  0  0  0  0  0
    0.8060  -10.2958    4.4836 S   0  0  0  0  0  0  0  0  0  0  0  0
   -1.6624   -8.0429    3.0040 S   0  0  0  0  0  0  0  0  0  0  0  0
   -1.7419   -5.0193    0.5649 C   0  0  0  0  0  0  0  0  0  0  0  0
   -2.4610   -5.5479   -0.8710 S   0  0  0  0  0  0  0  0  0  0  0  0
   -1.5191   -4.9725    4.3010 C   0  0  0  0  0  0  0  0  0  0  0  0
   -0.9571   -3.9712    5.0881 C   0  0  0  0  0  0  0  0  0  0  0  0
   -0.2179   -2.8263    4.0916 S   0  0  0  0  0  0  0  0  0  0  0  0
   -0.9319   -3.9719    6.5575 C   0  0  0  0  0  0  0  0  0  0  0  0
   -1.2836   -2.9176    7.3181 C   0  0  0  0  0  0  0  0  0  0  0  0
   -2.0488   -1.7453    6.8607 C   0  0  0  0  0  0  0  0  0  0  0  0
   -2.3398   -1.4538    5.6708 O   0  0  0  0  0  0  0  0  0  0  0  0
   -2.5536   -1.0435    8.0217 C   0  0  0  0  0  0  0  0  0  0  0  0
   -3.4105    0.0573    8.0512 C   0  0  0  0  0  0  0  0  0  0  0  0
   -3.8735    0.5177    9.2964 C   0  0  0  0  0  0  0  0  0  0  0  0
   -4.7866    1.7059    9.3594 C   0  0  0  0  0  0  0  0  0  0  0  0
   -3.4644   -0.1384   10.4771 C   0  0  0  0  0  0  0  0  0  0  0  0
   -2.6107   -1.2514   10.4208 C   0  0  0  0  0  0  0  0  0  0  0  0
   -2.1365   -1.6871    9.1728 C   0  0  0  0  0  0  0  0  0  0  0  0
   -1.2483   -2.8313    8.8135 C   0  0  0  0  0  0  0  0  0  0  0  0
   -0.4070   -3.5026    9.6471 C   0  0  0  0  0  0  0  0  0  0  0  0
   -0.3312   -3.2289   11.0579 C   0  0  0  0  0  0  0  0  0  0  0  0
   -0.2548   -3.0200   12.1940 N   0  0  0  0  0  0  0  0  0  0  0  0
    0.5679   -4.4475    9.1630 C   0  0  0  0  0  0  0  0  0  0  0  0
    1.3533   -5.2063    8.7792 N   0  0  0  0  0  0  0  0  0  0  0  0
    2.2691    7.6115    0.1681 H   0  0  0  0  0  0  0  0  0  0  0  0
    6.5674    6.5414    3.2611 H   0  0  0  0  0  0  0  0  0  0  0  0
    7.0019    3.4480   -0.7864 H   0  0  0  0  0  0  0  0  0  0  0  0
    9.8544    3.4343    1.2390 H   0  0  0  0  0  0  0  0  0  0  0  0
    8.9288    1.0720    1.7155 H   0  0  0  0  0  0  0  0  0  0  0  0
    6.3636    1.1989    2.4172 H   0  0  0  0  0  0  0  0  0  0  0  0
    6.1838    2.7300    4.5192 H   0  0  0  0  0  0  0  0  0  0  0  0
    8.6013    3.6107    5.1320 H   0  0  0  0  0  0  0  0  0  0  0  0
    9.1135    1.1403    4.3515 H   0  0  0  0  0  0  0  0  0  0  0  0
   10.3578    2.2625    3.6344 H   0  0  0  0  0  0  0  0  0  0  0  0
    9.6634    4.8427    3.1235 H   0  0  0  0  0  0  0  0  0  0  0  0
   -0.6716    8.1181   -2.5115 H   0  0  0  0  0  0  0  0  0  0  0  0
    0.2792    8.4084   -1.0395 H   0  0  0  0  0  0  0  0  0  0  0  0
    2.3389    8.7634   -2.4382 H   0  0  0  0  0  0  0  0  0  0  0  0
    1.0068    9.8745   -2.9102 H   0  0  0  0  0  0  0  0  0  0  0  0
    1.3659    8.4267   -3.9287 H   0  0  0  0  0  0  0  0  0  0  0  0
   -2.5332    6.9681   -3.0096 H   0  0  0  0  0  0  0  0  0  0  0  0
   -3.3233    5.5244   -3.7014 H   0  0  0  0  0  0  0  0  0  0  0  0
   -2.7124    4.2105   -1.6258 H   0  0  0  0  0  0  0  0  0  0  0  0
   -2.0433    5.7316   -0.9046 H   0  0  0  0  0  0  0  0  0  0  0  0
   -3.7857    5.6197   -1.3215 H   0  0  0  0  0  0  0  0  0  0  0  0
   -0.7488    7.2353   -4.7599 H   0  0  0  0  0  0  0  0  0  0  0  0
    0.2512    5.8563   -5.2882 H   0  0  0  0  0  0  0  0  0  0  0  0
   -2.7703    6.1518   -5.8567 H   0  0  0  0  0  0  0  0  0  0  0  0
   -1.6707    4.8326   -6.4550 H   0  0  0  0  0  0  0  0  0  0  0  0
   -1.4251    6.5280   -6.9887 H   0  0  0  0  0  0  0  0  0  0  0  0
   -2.8623    3.2382   -5.0381 H   0  0  0  0  0  0  0  0  0  0  0  0
   -0.1863    1.8103   -7.1986 H   0  0  0  0  0  0  0  0  0  0  0  0
    1.6698    3.3595   -6.6942 H   0  0  0  0  0  0  0  0  0  0  0  0
    5.2586    1.5960   -6.2313 H   0  0  0  0  0  0  0  0  0  0  0  0
    4.5669    2.9362   -7.2382 H   0  0  0  0  0  0  0  0  0  0  0  0
    5.9907    3.2427   -6.1741 H   0  0  0  0  0  0  0  0  0  0  0  0
    3.4110    0.4216   -4.0747 H   0  0  0  0  0  0  0  0  0  0  0  0
    1.5531   -1.1278   -4.5799 H   0  0  0  0  0  0  0  0  0  0  0  0
    1.4517   -1.8312   -7.4365 H   0  0  0  0  0  0  0  0  0  0  0  0
    1.2695   -3.2424   -9.4354 H   0  0  0  0  0  0  0  0  0  0  0  0
   -0.4749   -5.7365   -9.3349 H   0  0  0  0  0  0  0  0  0  0  0  0
   -2.2582   -5.4871   -9.5214 H   0  0  0  0  0  0  0  0  0  0  0  0
   -1.3489   -6.4605  -10.7354 H   0  0  0  0  0  0  0  0  0  0  0  0
   -2.9835   -2.5979   -9.5319 H   0  0  0  0  0  0  0  0  0  0  0  0
   -2.8169   -1.1742   -7.5330 H   0  0  0  0  0  0  0  0  0  0  0  0
   -2.6788   -1.4686   -0.8808 H   0  0  0  0  0  0  0  0  0  0  0  0
   -3.0232   -0.0582    1.0826 H   0  0  0  0  0  0  0  0  0  0  0  0
   -4.7794    2.3049    1.1458 H   0  0  0  0  0  0  0  0  0  0  0  0
   -6.5426    1.8735    1.0455 H   0  0  0  0  0  0  0  0  0  0  0  0
   -5.9257    2.8672    2.4203 H   0  0  0  0  0  0  0  0  0  0  0  0
   -7.1864   -1.1088    1.1418 H   0  0  0  0  0  0  0  0  0  0  0  0
   -6.8735   -2.5274   -0.8231 H   0  0  0  0  0  0  0  0  0  0  0  0
   -5.5908   -3.3989   -4.5983 H   0  0  0  0  0  0  0  0  0  0  0  0
   -7.1236   -5.1774   -5.3037 H   0  0  0  0  0  0  0  0  0  0  0  0
   -7.4580   -9.2726   -5.0733 H   0  0  0  0  0  0  0  0  0  0  0  0
   -6.2648   -7.9304   -4.9959 H   0  0  0  0  0  0  0  0  0  0  0  0
   -6.5664   -8.9631   -3.5341 H   0  0  0  0  0  0  0  0  0  0  0  0
   -7.2032   -6.7222   -1.2892 H   0  0  0  0  0  0  0  0  0  0  0  0
   -5.6352   -4.9518   -0.5740 H   0  0  0  0  0  0  0  0  0  0  0  0
   -0.5736   -2.6000   -1.4385 H   0  0  0  0  0  0  0  0  0  0  0  0
   -0.8981   -0.4353    2.3111 H   0  0  0  0  0  0  0  0  0  0  0  0
    0.6268    1.4776    1.5093 H   0  0  0  0  0  0  0  0  0  0  0  0
    3.0267    0.6787   -1.3338 H   0  0  0  0  0  0  0  0  0  0  0  0
    4.1170    2.4822   -0.2609 H   0  0  0  0  0  0  0  0  0  0  0  0
    3.2814    0.1463    2.6631 H   0  0  0  0  0  0  0  0  0  0  0  0
    3.2760    1.2321    4.9978 H   0  0  0  0  0  0  0  0  0  0  0  0
    3.8045    5.1096    4.9148 H   0  0  0  0  0  0  0  0  0  0  0  0
    4.2274    3.7081    5.9599 H   0  0  0  0  0  0  0  0  0  0  0  0
    2.1854    4.8663    6.7925 H   0  0  0  0  0  0  0  0  0  0  0  0
    1.7891    3.1900    6.2630 H   0  0  0  0  0  0  0  0  0  0  0  0
    1.3640    4.5988    5.2059 H   0  0  0  0  0  0  0  0  0  0  0  0
   -4.3317   -6.8626    0.9949 H   0  0  0  0  0  0  0  0  0  0  0  0
   -4.6751   -9.3326    1.6565 H   0  0  0  0  0  0  0  0  0  0  0  0
   -3.4173  -11.3693    2.7820 H   0  0  0  0  0  0  0  0  0  0  0  0
   -1.8013  -12.2408    4.2589 H   0  0  0  0  0  0  0  0  0  0  0  0
   -2.1060   -9.4059    6.3288 H   0  0  0  0  0  0  0  0  0  0  0  0
   -0.0049   -8.1948    7.2417 H   0  0  0  0  0  0  0  0  0  0  0  0
    2.4505   -7.5783    6.3313 H   0  0  0  0  0  0  0  0  0  0  0  0
    3.1335   -8.6213    5.0333 H   0  0  0  0  0  0  0  0  0  0  0  0
    4.2459   -9.0514    7.2242 H   0  0  0  0  0  0  0  0  0  0  0  0
    3.3589  -10.5183    6.6640 H   0  0  0  0  0  0  0  0  0  0  0  0
    2.6580   -9.4748    7.9684 H   0  0  0  0  0  0  0  0  0  0  0  0
   -2.0477   -5.8171    4.7220 H   0  0  0  0  0  0  0  0  0  0  0  0
   -0.6842   -4.9134    7.0222 H   0  0  0  0  0  0  0  0  0  0  0  0
   -3.7245    0.5350    7.1305 H   0  0  0  0  0  0  0  0  0  0  0  0
   -5.2640    1.7973   10.3586 H   0  0  0  0  0  0  0  0  0  0  0  0
   -5.5899    1.6037    8.5985 H   0  0  0  0  0  0  0  0  0  0  0  0
   -4.2061    2.6301    9.1534 H   0  0  0  0  0  0  0  0  0  0  0  0
   -3.8203    0.2031   11.4406 H   0  0  0  0  0  0  0  0  0  0  0  0
   -2.3736   -1.7628   11.3360 H   0  0  0  0  0  0  0  0  0  0  0  0
  1  2  2  3
  2  3  1  0
  3  4  2  0
  3  5  1  0
  5  6  2  0
  6  7  1  0
  7  8  2  0
  8  9  1  0
  9 10  2  0
 10 11  1  0
 11 12  2  3
 12 13  1  0
 13 14  3  0
 12 15  1  0
 15 16  3  0
  8 17  1  0
 17 18  1  0
 18 19  1  0
 19 20  2  0
 20 21  1  0
 21 22  1  0
 21 23  1  0
  1 24  1  0
 24 25  2  0
 25 26  1  0
 26 27  1  0
 25 28  1  0
 28 29  2  0
 29 30  1  0
 29 31  1  0
 31 32  2  0
 32 33  1  0
 33 34  1  0
 34 35  1  0
 33 36  1  0
 36 37  1  0
 32 38  1  0
 38 39  2  0
 39 40  1  0
 39 41  1  0
 41 42  2  0
 42 43  1  0
 43 44  1  0
 44 45  2  0
 45 46  1  0
 46 47  2  0
 47 48  1  0
 48 49  1  0
 47 50  1  0
 50 51  2  0
 43 52  1  0
 52 53  2  0
 53 54  1  0
 54 55  2  0
 55 56  1  0
 56 57  1  0
 55 58  1  0
 58 59  2  0
 42 60  1  0
 60 61  1  0
 61 62  1  0
 62 63  2  0
 63 64  1  0
 64 65  1  0
 65 66  2  0
 66 67  1  0
 67 68  2  0
 68 69  1  0
 69 70  1  0
 68 71  1  0
 71 72  2  0
 64 73  1  0
 73 74  2  0
 74 75  1  0
 75 76  2  0
 76 77  1  0
 77 78  1  0
 76 79  1  0
 79 80  2  0
 63 81  1  0
 81 82  1  0
 62 83  1  0
 83 84  2  0
 84 85  1  0
 85 86  2  0
 86 87  1  0
 87 88  2  0
 88 89  1  0
 89 90  2  0
 90 91  1  0
 91 92  2  3
 92 93  1  0
 93 94  2  0
 94 95  1  0
 95 96  2  0
 96 97  1  0
 97 98  1  0
 96 99  1  0
 90100  1  0
 86101  1  0
101102  2  0
102103  1  0
103104  1  0
104105  2  0
105106  1  0
106107  2  0
107108  1  0
108109  2  3
109110  1  0
110111  2  0
111112  1  0
112113  2  0
113114  1  0
114115  1  0
113116  1  0
107117  1  0
103118  2  0
118119  1  0
102120  1  0
120121  2  0
121122  1  0
121123  1  0
123124  2  3
124125  1  0
125126  2  0
125127  1  0
127128  2  0
128129  1  0
129130  1  0
129131  2  0
131132  1  0
132133  2  0
133134  1  0
134135  2  3
135136  1  0
136137  3  0
135138  1  0
138139  3  0
 11  2  1  0
 23 17  1  0
 30 24  1  0
 40 31  1  0
 82 41  1  0
119 83  1  0
134124  1  0
 10  5  1  0
 22 18  1  0
 33 28  1  0
 51 44  1  0
 59 52  1  0
 81 60  2  0
118 85  1  0
133127  1  0
 23  7  1  0
 72 65  1  0
 80 73  1  0
100 87  1  0
122101  1  0
 99 93  1  0
117104  1  0
116110  1  0
  1140  1  0
  6141  1  0
  9142  1  0
 17143  1  0
 18144  1  0
 19145  1  0
 20146  1  0
 21147  1  0
 22148  1  0
 22149  1  0
 23150  1  0
 26151  1  0
 26152  1  0
 27153  1  0
 27154  1  0
 27155  1  0
 34156  1  0
 34157  1  0
 35158  1  0
 35159  1  0
 35160  1  0
 36161  1  0
 36162  1  0
 37163  1  0
 37164  1  0
 37165  1  0
 38166  1  0
 45167  1  0
 46168  1  0
 49169  1  0
 49170  1  0
 49171  1  0
 50172  1  0
 51173  1  0
 53174  1  0
 54175  1  0
 57176  1  0
 57177  1  0
 57178  1  0
 58179  1  0
 59180  1  0
 66181  1  0
 67182  1  0
 70183  1  0
 70184  1  0
 70185  1  0
 71186  1  0
 72187  1  0
 74188  1  0
 75189  1  0
 78190  1  0
 78191  1  0
 78192  1  0
 79193  1  0
 80194  1  0
 84195  1  0
 88196  1  0
 89197  1  0
 91198  1  0
 92199  1  0
 94200  1  0
 95201  1  0
 97202  1  0
 97203  1  0
 98204  1  0
 98205  1  0
 98206  1  0
105207  1  0
106208  1  0
108209  1  0
109210  1  0
111211  1  0
112212  1  0
114213  1  0
114214  1  0
115215  1  0
115216  1  0
115217  1  0
120218  1  0
123219  1  0
128220  1  0
130221  1  0
130222  1  0
130223  1  0
131224  1  0
132225  1  0
M  END

