
     RDKit          3D

176196  0  0  0  0  0  0  0  0999 V2000
   -8.2649    1.4496   -2.1403 C   0  0  0  0  0  0  0  0  0  0  0  0
   -8.9401    1.2668   -3.2908 C   0  0  0  0  0  0  0  0  0  0  0  0
  -10.3029    0.7332   -3.2810 C   0  0  0  0  0  0  0  0  0  0  0  0
  -11.0248    0.5622   -2.2595 O   0  0  0  0  0  0  0  0  0  0  0  0
  -10.6616    0.3300   -4.6201 C   0  0  0  0  0  0  0  0  0  0  0  0
  -11.8675   -0.2901   -5.0286 C   0  0  0  0  0  0  0  0  0  0  0  0
  -11.9153   -0.5676   -6.3791 C   0  0  0  0  0  0  0  0  0  0  0  0
  -10.8421   -0.2769   -7.2849 C   0  0  0  0  0  0  0  0  0  0  0  0
   -9.6431    0.2926   -6.8806 C   0  0  0  0  0  0  0  0  0  0  0  0
   -9.5854    0.6305   -5.4974 C   0  0  0  0  0  0  0  0  0  0  0  0
   -8.5136    1.3364   -4.7292 C   0  0  0  0  0  0  0  0  0  0  0  0
   -7.5918    2.1767   -5.2675 C   0  0  0  0  0  0  0  0  0  0  0  0
   -6.8158    3.1119   -4.4911 C   0  0  0  0  0  0  0  0  0  0  0  0
   -6.1742    3.8622   -3.8891 N   0  0  0  0  0  0  0  0  0  0  0  0
   -7.4379    2.3591   -6.6876 C   0  0  0  0  0  0  0  0  0  0  0  0
   -7.3045    2.5558   -7.8177 N   0  0  0  0  0  0  0  0  0  0  0  0
  -11.6563   -0.7887   -8.4423 C   0  0  0  0  0  0  0  0  0  0  0  0
  -11.2833   -2.1726   -9.0584 C   0  0  0  0  0  0  0  0  0  0  0  0
  -10.6710   -3.0439   -7.9905 C   0  0  0  0  0  0  0  0  0  0  0  0
  -11.6484   -3.3398   -7.1303 C   0  0  0  0  0  0  0  0  0  0  0  0
  -12.8955   -2.6495   -7.6405 C   0  0  0  0  0  0  0  0  0  0  0  0
  -12.6605   -2.8028   -9.1340 C   0  0  0  0  0  0  0  0  0  0  0  0
  -12.7461   -1.1038   -7.5083 C   0  0  0  0  0  0  0  0  0  0  0  0
   -6.8115    1.5531   -1.9689 C   0  0  0  0  0  0  0  0  0  0  0  0
   -5.9526    0.5169   -2.3639 C   0  0  0  0  0  0  0  0  0  0  0  0
   -4.6045    0.4793   -1.9254 C   0  0  0  0  0  0  0  0  0  0  0  0
   -3.8908   -0.6931   -2.3247 N   0  0  0  0  0  0  0  0  0  0  0  0
   -5.0201   -1.4719   -3.1315 S   0  0  0  0  0  4  0  0  0  0  0  0
   -6.3738   -0.6242   -3.1184 N   0  0  0  0  0  0  0  0  0  0  0  0
   -4.0671    1.4832   -1.0981 C   0  0  0  0  0  0  0  0  0  0  0  0
   -4.9068    2.5678   -0.7627 C   0  0  0  0  0  0  0  0  0  0  0  0
   -4.5086    3.6022    0.0186 N   0  0  0  0  0  0  0  0  0  0  0  0
   -5.9007    4.4884    0.1038 S   0  0  0  0  0  0  0  0  0  0  0  0
   -7.0235    3.6451   -0.7661 N   0  0  0  0  0  0  0  0  0  0  0  0
   -6.2765    2.5900   -1.1790 C   0  0  0  0  0  0  0  0  0  0  0  0
   -2.7503    1.3077   -0.4431 C   0  0  0  0  0  0  0  0  0  0  0  0
   -1.7978    2.3104   -0.1659 C   0  0  0  0  0  0  0  0  0  0  0  0
   -1.6968    3.5531   -0.8912 N   0  0  0  0  0  0  0  0  0  0  0  0
   -1.1636    4.7300   -0.2496 C   0  0  0  0  0  0  0  0  0  0  0  0
   -0.1004    5.4420   -0.8366 C   0  0  0  0  0  0  0  0  0  0  0  0
    0.4769    6.5242   -0.1722 C   0  0  0  0  0  0  0  0  0  0  0  0
   -0.0221    6.9343    1.0702 C   0  0  0  0  0  0  0  0  0  0  0  0
    0.7282    8.3123    1.9352 S   0  0  0  0  0  0  0  0  0  0  0  0
   -0.2741    9.5609    1.0651 C   0  0  0  0  0  0  0  0  0  0  0  0
   -1.0907    6.2420    1.6566 C   0  0  0  0  0  0  0  0  0  0  0  0
   -1.6495    5.1366    1.0064 C   0  0  0  0  0  0  0  0  0  0  0  0
   -1.8575    3.5252   -2.3213 C   0  0  0  0  0  0  0  0  0  0  0  0
   -2.6895    4.4598   -2.9542 C   0  0  0  0  0  0  0  0  0  0  0  0
   -2.8542    4.4259   -4.3439 C   0  0  0  0  0  0  0  0  0  0  0  0
   -2.1718    3.4692   -5.1065 C   0  0  0  0  0  0  0  0  0  0  0  0
   -2.3709    3.4347   -6.8865 S   0  0  0  0  0  0  0  0  0  0  0  0
   -3.6445    2.1355   -6.8352 C   0  0  0  0  0  0  0  0  0  0  0  0
   -1.3165    2.5553   -4.4788 C   0  0  0  0  0  0  0  0  0  0  0  0
   -1.1664    2.5783   -3.0921 C   0  0  0  0  0  0  0  0  0  0  0  0
   -0.7854    1.8196    0.6636 C   0  0  0  0  0  0  0  0  0  0  0  0
    0.6596    2.4447    1.2344 S   0  0  0  0  0  0  0  0  0  0  0  0
    1.1698    0.9810    1.9446 C   0  0  0  0  0  0  0  0  0  0  0  0
    0.2084   -0.0202    1.6918 C   0  0  0  0  0  0  0  0  0  0  0  0
    0.4580   -1.4356    1.8382 N   0  0  0  0  0  0  0  0  0  0  0  0
    1.7473   -1.9523    1.4404 C   0  0  0  0  0  0  0  0  0  0  0  0
    2.3045   -1.5762    0.2067 C   0  0  0  0  0  0  0  0  0  0  0  0
    3.5409   -2.0908   -0.1946 C   0  0  0  0  0  0  0  0  0  0  0  0
    4.2236   -2.9914    0.6237 C   0  0  0  0  0  0  0  0  0  0  0  0
    5.7644   -3.7139    0.0656 S   0  0  0  0  0  0  0  0  0  0  0  0
    4.9361   -5.0837   -0.8006 C   0  0  0  0  0  0  0  0  0  0  0  0
    3.6858   -3.3533    1.8651 C   0  0  0  0  0  0  0  0  0  0  0  0
    2.4509   -2.8445    2.2704 C   0  0  0  0  0  0  0  0  0  0  0  0
   -0.6050   -2.3480    2.1991 C   0  0  0  0  0  0  0  0  0  0  0  0
   -1.6158   -1.9595    3.0978 C   0  0  0  0  0  0  0  0  0  0  0  0
   -2.6058   -2.8639    3.4895 C   0  0  0  0  0  0  0  0  0  0  0  0
   -2.6176   -4.1623    2.9624 C   0  0  0  0  0  0  0  0  0  0  0  0
   -3.8613   -5.3446    3.4748 S   0  0  0  0  0  0  0  0  0  0  0  0
   -2.8190   -6.0655    4.7870 C   0  0  0  0  0  0  0  0  0  0  0  0
   -1.6543   -4.5378    2.0222 C   0  0  0  0  0  0  0  0  0  0  0  0
   -0.6570   -3.6368    1.6425 C   0  0  0  0  0  0  0  0  0  0  0  0
   -0.8836    0.5081    0.9973 C   0  0  0  0  0  0  0  0  0  0  0  0
   -2.2643   -0.1465    0.3053 S   0  0  0  0  0  0  0  0  0  0  0  0
    2.4579    0.8143    2.6577 C   0  0  0  0  0  0  0  0  0  0  0  0
    3.6323    1.3508    2.1021 C   0  0  0  0  0  0  0  0  0  0  0  0
    3.6122    1.9539    0.8835 F   0  0  0  0  0  0  0  0  0  0  0  0
    4.8473    1.2545    2.7828 C   0  0  0  0  0  0  0  0  0  0  0  0
    5.9602    1.7913    2.2229 F   0  0  0  0  0  0  0  0  0  0  0  0
    4.9149    0.6303    4.0348 C   0  0  0  0  0  0  0  0  0  0  0  0
    3.7527    0.0897    4.5999 C   0  0  0  0  0  0  0  0  0  0  0  0
    3.7944   -0.5090    5.8188 N   0  0  0  0  0  0  0  0  0  0  0  0
    2.6937   -1.0589    6.3928 C   0  0  0  0  0  0  0  0  0  0  0  0
    2.8500   -1.6522    7.7688 C   0  0  0  0  0  0  0  0  0  0  0  0
    2.7746   -0.5609    8.8285 C   0  0  0  0  0  0  0  0  0  0  0  0
    1.4534   -0.9700    5.7170 C   0  0  0  0  0  0  0  0  0  0  0  0
    1.4178   -0.3623    4.4975 N   0  0  0  0  0  0  0  0  0  0  0  0
    2.5265    0.1682    3.9159 C   0  0  0  0  0  0  0  0  0  0  0  0
    0.1787   -1.5624    6.2604 C   0  0  0  0  0  0  0  0  0  0  0  0
    0.0707   -3.0468    5.9161 C   0  0  0  0  0  0  0  0  0  0  0  0
    6.1854    0.6248    4.7853 C   0  0  0  0  0  0  0  0  0  0  0  0
    7.2381   -0.1355    4.4404 C   0  0  0  0  0  0  0  0  0  0  0  0
    7.3020   -1.0132    3.2639 C   0  0  0  0  0  0  0  0  0  0  0  0
    6.3238   -1.4265    2.5890 O   0  0  0  0  0  0  0  0  0  0  0  0
    8.6911   -1.3073    2.9793 C   0  0  0  0  0  0  0  0  0  0  0  0
    9.2041   -1.9944    1.8521 C   0  0  0  0  0  0  0  0  0  0  0  0
   10.5843   -1.9772    1.7688 C   0  0  0  0  0  0  0  0  0  0  0  0
   11.4195   -1.3170    2.7259 C   0  0  0  0  0  0  0  0  0  0  0  0
   10.9213   -0.6591    3.8425 C   0  0  0  0  0  0  0  0  0  0  0  0
    9.5047   -0.6915    3.9669 C   0  0  0  0  0  0  0  0  0  0  0  0
    8.6265   -0.0557    4.9916 C   0  0  0  0  0  0  0  0  0  0  0  0
    8.9798    0.3046    6.2515 C   0  0  0  0  0  0  0  0  0  0  0  0
   10.3304    0.1929    6.7355 C   0  0  0  0  0  0  0  0  0  0  0  0
   11.4131    0.0991    7.1394 N   0  0  0  0  0  0  0  0  0  0  0  0
    8.0101    0.6880    7.2485 C   0  0  0  0  0  0  0  0  0  0  0  0
    7.2311    1.0069    8.0400 N   0  0  0  0  0  0  0  0  0  0  0  0
   12.6409   -1.6918    1.9441 C   0  0  0  0  0  0  0  0  0  0  0  0
   13.5126   -2.8339    2.5402 C   0  0  0  0  0  0  0  0  0  0  0  0
   14.4169   -3.2846    1.4178 C   0  0  0  0  0  0  0  0  0  0  0  0
   13.6363   -3.9196    0.5318 C   0  0  0  0  0  0  0  0  0  0  0  0
   12.2342   -3.8679    1.0882 C   0  0  0  0  0  0  0  0  0  0  0  0
   12.5606   -4.0216    2.5677 C   0  0  0  0  0  0  0  0  0  0  0  0
   11.7893   -2.3778    0.9700 C   0  0  0  0  0  0  0  0  0  0  0  0
   -8.8275    1.3849   -1.2184 H   0  0  0  0  0  0  0  0  0  0  0  0
  -12.6811   -0.5155   -4.3493 H   0  0  0  0  0  0  0  0  0  0  0  0
   -8.8484    0.4542   -7.5924 H   0  0  0  0  0  0  0  0  0  0  0  0
  -11.9295   -0.0009   -9.1838 H   0  0  0  0  0  0  0  0  0  0  0  0
  -10.7108   -2.1319  -10.0095 H   0  0  0  0  0  0  0  0  0  0  0  0
   -9.6653   -3.4476   -7.9671 H   0  0  0  0  0  0  0  0  0  0  0  0
  -11.5713   -4.0158   -6.2826 H   0  0  0  0  0  0  0  0  0  0  0  0
  -13.8541   -3.0624   -7.2672 H   0  0  0  0  0  0  0  0  0  0  0  0
  -12.6464   -3.8689   -9.4800 H   0  0  0  0  0  0  0  0  0  0  0  0
  -13.3798   -2.2194   -9.7604 H   0  0  0  0  0  0  0  0  0  0  0  0
  -13.6775   -0.5250   -7.6985 H   0  0  0  0  0  0  0  0  0  0  0  0
    0.3031    5.1416   -1.7986 H   0  0  0  0  0  0  0  0  0  0  0  0
    1.3103    7.0503   -0.6248 H   0  0  0  0  0  0  0  0  0  0  0  0
   -0.0107   10.5708    1.4435 H   0  0  0  0  0  0  0  0  0  0  0  0
   -1.3548    9.3817    1.2513 H   0  0  0  0  0  0  0  0  0  0  0  0
   -0.0648    9.5237   -0.0255 H   0  0  0  0  0  0  0  0  0  0  0  0
   -1.4743    6.5446    2.6207 H   0  0  0  0  0  0  0  0  0  0  0  0
   -2.4450    4.5873    1.4917 H   0  0  0  0  0  0  0  0  0  0  0  0
   -3.2094    5.2082   -2.3722 H   0  0  0  0  0  0  0  0  0  0  0  0
   -3.5066    5.1424   -4.8253 H   0  0  0  0  0  0  0  0  0  0  0  0
   -4.5059    2.4722   -6.2224 H   0  0  0  0  0  0  0  0  0  0  0  0
   -3.9856    1.9182   -7.8677 H   0  0  0  0  0  0  0  0  0  0  0  0
   -3.2205    1.2033   -6.4031 H   0  0  0  0  0  0  0  0  0  0  0  0
   -0.7674    1.8263   -5.0626 H   0  0  0  0  0  0  0  0  0  0  0  0
   -0.4968    1.8734   -2.6180 H   0  0  0  0  0  0  0  0  0  0  0  0
    1.7788   -0.8960   -0.4517 H   0  0  0  0  0  0  0  0  0  0  0  0
    3.9567   -1.8020   -1.1517 H   0  0  0  0  0  0  0  0  0  0  0  0
    4.2718   -4.6787   -1.5963 H   0  0  0  0  0  0  0  0  0  0  0  0
    4.3389   -5.6893   -0.0837 H   0  0  0  0  0  0  0  0  0  0  0  0
    5.7050   -5.7318   -1.2767 H   0  0  0  0  0  0  0  0  0  0  0  0
    4.2133   -4.0459    2.5050 H   0  0  0  0  0  0  0  0  0  0  0  0
    2.0433   -3.1355    3.2293 H   0  0  0  0  0  0  0  0  0  0  0  0
   -1.6166   -0.9680    3.5279 H   0  0  0  0  0  0  0  0  0  0  0  0
   -3.3666   -2.5590    4.2024 H   0  0  0  0  0  0  0  0  0  0  0  0
   -1.8656   -6.4447    4.3616 H   0  0  0  0  0  0  0  0  0  0  0  0
   -2.6069   -5.3024    5.5664 H   0  0  0  0  0  0  0  0  0  0  0  0
   -3.3562   -6.9205    5.2436 H   0  0  0  0  0  0  0  0  0  0  0  0
   -1.6612   -5.5346    1.5981 H   0  0  0  0  0  0  0  0  0  0  0  0
    0.0757   -3.9548    0.9127 H   0  0  0  0  0  0  0  0  0  0  0  0
    3.8436   -2.1471    7.8362 H   0  0  0  0  0  0  0  0  0  0  0  0
    2.0929   -2.4333    7.9815 H   0  0  0  0  0  0  0  0  0  0  0  0
    1.7864   -0.0595    8.7884 H   0  0  0  0  0  0  0  0  0  0  0  0
    2.9185   -1.0045    9.8345 H   0  0  0  0  0  0  0  0  0  0  0  0
    3.5682    0.2013    8.6575 H   0  0  0  0  0  0  0  0  0  0  0  0
    0.0998   -1.4159    7.3564 H   0  0  0  0  0  0  0  0  0  0  0  0
   -0.6845   -1.0321    5.8088 H   0  0  0  0  0  0  0  0  0  0  0  0
   -0.9501   -3.4125    6.1637 H   0  0  0  0  0  0  0  0  0  0  0  0
    0.8030   -3.6485    6.4914 H   0  0  0  0  0  0  0  0  0  0  0  0
    0.2517   -3.2103    4.8358 H   0  0  0  0  0  0  0  0  0  0  0  0
    6.2531    1.3364    5.5902 H   0  0  0  0  0  0  0  0  0  0  0  0
    8.5766   -2.4375    1.0956 H   0  0  0  0  0  0  0  0  0  0  0  0
   11.5773   -0.1312    4.5120 H   0  0  0  0  0  0  0  0  0  0  0  0
   13.1955   -0.8138    1.5441 H   0  0  0  0  0  0  0  0  0  0  0  0
   14.0364   -2.5853    3.4893 H   0  0  0  0  0  0  0  0  0  0  0  0
   15.4952   -3.1999    1.3619 H   0  0  0  0  0  0  0  0  0  0  0  0
   13.9669   -4.4400   -0.3599 H   0  0  0  0  0  0  0  0  0  0  0  0
   11.5334   -4.6176    0.6690 H   0  0  0  0  0  0  0  0  0  0  0  0
   13.0682   -4.9851    2.8166 H   0  0  0  0  0  0  0  0  0  0  0  0
   11.6909   -3.8905    3.2484 H   0  0  0  0  0  0  0  0  0  0  0  0
   11.8135   -1.9451   -0.0589 H   0  0  0  0  0  0  0  0  0  0  0  0
  1  2  2  3
  2  3  1  0
  3  4  2  0
  3  5  1  0
  5  6  2  0
  6  7  1  0
  7  8  2  0
  8  9  1  0
  9 10  2  0
 10 11  1  0
 11 12  2  3
 12 13  1  0
 13 14  3  0
 12 15  1  0
 15 16  3  0
  8 17  1  0
 17 18  1  0
 18 19  1  0
 19 20  2  0
 20 21  1  0
 21 22  1  0
 21 23  1  0
  1 24  1  0
 24 25  2  0
 25 26  1  0
 26 27  1  0
 27 28  2  0
 28 29  2  0
 26 30  2  0
 30 31  1  0
 31 32  2  0
 32 33  1  0
 33 34  1  0
 34 35  2  0
 30 36  1  0
 36 37  2  0
 37 38  1  0
 38 39  1  0
 39 40  2  0
 40 41  1  0
 41 42  2  0
 42 43  1  0
 43 44  1  0
 42 45  1  0
 45 46  2  0
 38 47  1  0
 47 48  2  0
 48 49  1  0
 49 50  2  0
 50 51  1  0
 51 52  1  0
 50 53  1  0
 53 54  2  0
 37 55  1  0
 55 56  1  0
 56 57  1  0
 57 58  2  0
 58 59  1  0
 59 60  1  0
 60 61  2  0
 61 62  1  0
 62 63  2  0
 63 64  1  0
 64 65  1  0
 63 66  1  0
 66 67  2  0
 59 68  1  0
 68 69  2  0
 69 70  1  0
 70 71  2  0
 71 72  1  0
 72 73  1  0
 71 74  1  0
 74 75  2  0
 58 76  1  0
 76 77  1  0
 57 78  1  0
 78 79  2  0
 79 80  1  0
 79 81  1  0
 81 82  1  0
 81 83  2  0
 83 84  1  0
 84 85  2  0
 85 86  1  0
 86 87  1  0
 87 88  1  0
 86 89  2  0
 89 90  1  0
 90 91  2  0
 89 92  1  0
 92 93  1  0
 83 94  1  0
 94 95  2  3
 95 96  1  0
 96 97  2  0
 96 98  1  0
 98 99  2  0
 99100  1  0
100101  2  0
101102  1  0
102103  2  0
103104  1  0
104105  2  3
105106  1  0
106107  3  0
105108  1  0
108109  3  0
101110  1  0
110111  1  0
111112  1  0
112113  2  0
113114  1  0
114115  1  0
114116  1  0
 11  2  1  0
 23 17  1  0
 35 24  1  0
 77 36  1  0
 91 78  1  0
104 95  1  0
116110  1  0
 10  5  1  0
 22 18  1  0
 29 25  1  0
 35 31  1  0
 46 39  1  0
 54 47  1  0
 76 55  2  0
 91 84  1  0
103 98  1  0
115111  1  0
 23  7  1  0
 67 60  1  0
 75 68  1  0
116100  1  0
  1117  1  0
  6118  1  0
  9119  1  0
 17120  1  0
 18121  1  0
 19122  1  0
 20123  1  0
 21124  1  0
 22125  1  0
 22126  1  0
 23127  1  0
 40128  1  0
 41129  1  0
 44130  1  0
 44131  1  0
 44132  1  0
 45133  1  0
 46134  1  0
 48135  1  0
 49136  1  0
 52137  1  0
 52138  1  0
 52139  1  0
 53140  1  0
 54141  1  0
 61142  1  0
 62143  1  0
 65144  1  0
 65145  1  0
 65146  1  0
 66147  1  0
 67148  1  0
 69149  1  0
 70150  1  0
 73151  1  0
 73152  1  0
 73153  1  0
 74154  1  0
 75155  1  0
 87156  1  0
 87157  1  0
 88158  1  0
 88159  1  0
 88160  1  0
 92161  1  0
 92162  1  0
 93163  1  0
 93164  1  0
 93165  1  0
 94166  1  0
 99167  1  0
102168  1  0
110169  1  0
111170  1  0
112171  1  0
113172  1  0
114173  1  0
115174  1  0
115175  1  0
116176  1  0
M  END

