
     RDKit          3D

172189  0  0  0  0  0  0  0  0999 V2000
    4.1972   -2.8936   -1.3774 C   0  0  0  0  0  0  0  0  0  0  0  0
    5.1084   -2.1630   -0.6896 C   0  0  0  0  0  0  0  0  0  0  0  0
    4.7825   -1.0511    0.2173 C   0  0  0  0  0  0  0  0  0  0  0  0
    3.6303   -0.6599    0.5426 O   0  0  0  0  0  0  0  0  0  0  0  0
    5.9980   -0.5356    0.7908 C   0  0  0  0  0  0  0  0  0  0  0  0
    6.1230    0.5931    1.6326 C   0  0  0  0  0  0  0  0  0  0  0  0
    7.4190    0.8727    2.0088 C   0  0  0  0  0  0  0  0  0  0  0  0
    8.5443    0.1118    1.5609 C   0  0  0  0  0  0  0  0  0  0  0  0
    8.4344   -0.9762    0.7133 C   0  0  0  0  0  0  0  0  0  0  0  0
    7.0953   -1.3128    0.3401 C   0  0  0  0  0  0  0  0  0  0  0  0
    6.5947   -2.3720   -0.5932 C   0  0  0  0  0  0  0  0  0  0  0  0
    7.3522   -3.2824   -1.2665 C   0  0  0  0  0  0  0  0  0  0  0  0
    6.8371   -4.1125   -2.3288 C   0  0  0  0  0  0  0  0  0  0  0  0
    6.4465   -4.7913   -3.1864 N   0  0  0  0  0  0  0  0  0  0  0  0
    8.7435   -3.5066   -0.9797 C   0  0  0  0  0  0  0  0  0  0  0  0
    9.8646   -3.7042   -0.7646 N   0  0  0  0  0  0  0  0  0  0  0  0
    9.4783    1.0179    2.3128 C   0  0  0  0  0  0  0  0  0  0  0  0
   10.3109    2.0501    1.4982 C   0  0  0  0  0  0  0  0  0  0  0  0
    9.5510    2.4743    0.2626 C   0  0  0  0  0  0  0  0  0  0  0  0
    8.5021    3.1801    0.6838 C   0  0  0  0  0  0  0  0  0  0  0  0
    8.5888    3.2174    2.1941 C   0  0  0  0  0  0  0  0  0  0  0  0
   10.0932    3.2909    2.3450 C   0  0  0  0  0  0  0  0  0  0  0  0
    8.3230    1.7959    2.7747 C   0  0  0  0  0  0  0  0  0  0  0  0
    2.7693   -2.5097   -1.5323 C   0  0  0  0  0  0  0  0  0  0  0  0
    1.7651   -3.4524   -1.2493 C   0  0  0  0  0  0  0  0  0  0  0  0
    2.0977   -4.7083   -0.8540 F   0  0  0  0  0  0  0  0  0  0  0  0
    0.4130   -3.1048   -1.3506 C   0  0  0  0  0  0  0  0  0  0  0  0
   -0.5398   -4.0317   -1.0673 F   0  0  0  0  0  0  0  0  0  0  0  0
    0.0444   -1.8072   -1.7398 C   0  0  0  0  0  0  0  0  0  0  0  0
    1.0470   -0.8520   -2.0150 C   0  0  0  0  0  0  0  0  0  0  0  0
    0.7305    0.4471   -2.2891 N   0  0  0  0  0  0  0  0  0  0  0  0
    1.6757    1.3868   -2.5691 C   0  0  0  0  0  0  0  0  0  0  0  0
    1.2240    2.8182   -2.7359 C   0  0  0  0  0  0  0  0  0  0  0  0
    1.2651    3.2854   -4.1886 C   0  0  0  0  0  0  0  0  0  0  0  0
    3.0337    0.9847   -2.6100 C   0  0  0  0  0  0  0  0  0  0  0  0
    3.3413   -0.3044   -2.3049 N   0  0  0  0  0  0  0  0  0  0  0  0
    2.3997   -1.2227   -1.9712 C   0  0  0  0  0  0  0  0  0  0  0  0
    4.1742    1.9058   -2.9503 C   0  0  0  0  0  0  0  0  0  0  0  0
    4.7421    1.5627   -4.3230 C   0  0  0  0  0  0  0  0  0  0  0  0
   -1.3802   -1.4378   -1.8294 C   0  0  0  0  0  0  0  0  0  0  0  0
   -1.9427   -0.6798   -2.8762 C   0  0  0  0  0  0  0  0  0  0  0  0
   -1.7500   -0.9670   -4.2782 N   0  0  0  0  0  0  0  0  0  0  0  0
   -2.8836   -1.3962   -5.0494 C   0  0  0  0  0  0  0  0  0  0  0  0
   -3.6784   -2.4600   -4.5921 C   0  0  0  0  0  0  0  0  0  0  0  0
   -4.8060   -2.8563   -5.3120 C   0  0  0  0  0  0  0  0  0  0  0  0
   -5.1687   -2.1785   -6.4793 C   0  0  0  0  0  0  0  0  0  0  0  0
   -6.6574   -2.6461   -7.3618 S   0  0  0  0  0  0  0  0  0  0  0  0
   -7.7176   -1.5351   -6.3795 C   0  0  0  0  0  0  0  0  0  0  0  0
   -4.3704   -1.1264   -6.9502 C   0  0  0  0  0  0  0  0  0  0  0  0
   -3.2268   -0.7366   -6.2420 C   0  0  0  0  0  0  0  0  0  0  0  0
   -0.4500   -1.1599   -4.8496 C   0  0  0  0  0  0  0  0  0  0  0  0
    0.1529   -0.1255   -5.5768 C   0  0  0  0  0  0  0  0  0  0  0  0
    1.4165   -0.3094   -6.1484 C   0  0  0  0  0  0  0  0  0  0  0  0
    2.0712   -1.5369   -6.0230 C   0  0  0  0  0  0  0  0  0  0  0  0
    3.6808   -1.7891   -6.7800 S   0  0  0  0  0  0  0  0  0  0  0  0
    2.9808   -2.4393   -8.3239 C   0  0  0  0  0  0  0  0  0  0  0  0
    1.4544   -2.5875   -5.3295 C   0  0  0  0  0  0  0  0  0  0  0  0
    0.1833   -2.4086   -4.7698 C   0  0  0  0  0  0  0  0  0  0  0  0
   -3.0540    0.0240   -2.4221 C   0  0  0  0  0  0  0  0  0  0  0  0
   -3.6617    1.5131   -2.8973 S   0  0  0  0  0  0  0  0  0  0  0  0
   -4.5433    1.7547   -1.4617 C   0  0  0  0  0  0  0  0  0  0  0  0
   -4.3629    0.6571   -0.6087 C   0  0  0  0  0  0  0  0  0  0  0  0
   -5.3681    0.2753    0.3438 N   0  0  0  0  0  0  0  0  0  0  0  0
   -6.7506    0.2757   -0.0601 C   0  0  0  0  0  0  0  0  0  0  0  0
   -7.7443    0.7935    0.7918 C   0  0  0  0  0  0  0  0  0  0  0  0
   -9.0752    0.8450    0.3727 C   0  0  0  0  0  0  0  0  0  0  0  0
   -9.4320    0.3713   -0.8970 C   0  0  0  0  0  0  0  0  0  0  0  0
  -11.1318    0.4723   -1.4546 S   0  0  0  0  0  0  0  0  0  0  0  0
  -10.9015    2.1079   -2.2188 C   0  0  0  0  0  0  0  0  0  0  0  0
   -8.4569   -0.1830   -1.7347 C   0  0  0  0  0  0  0  0  0  0  0  0
   -7.1229   -0.2273   -1.3190 C   0  0  0  0  0  0  0  0  0  0  0  0
   -5.0435   -0.1602    1.6687 C   0  0  0  0  0  0  0  0  0  0  0  0
   -5.3866   -1.4625    2.0733 C   0  0  0  0  0  0  0  0  0  0  0  0
   -5.3973   -1.7979    3.4340 C   0  0  0  0  0  0  0  0  0  0  0  0
   -5.0975   -0.8219    4.3877 C   0  0  0  0  0  0  0  0  0  0  0  0
   -5.2982   -1.1609    6.1299 S   0  0  0  0  0  0  0  0  0  0  0  0
   -7.0927   -0.8675    6.1369 C   0  0  0  0  0  0  0  0  0  0  0  0
   -4.6976    0.4559    3.9864 C   0  0  0  0  0  0  0  0  0  0  0  0
   -4.6445    0.7783    2.6271 C   0  0  0  0  0  0  0  0  0  0  0  0
   -3.4657   -0.2516   -1.1568 C   0  0  0  0  0  0  0  0  0  0  0  0
   -2.3618   -1.2934   -0.4413 S   0  0  0  0  0  0  0  0  0  0  0  0
   -4.8602    3.0914   -0.9336 C   0  0  0  0  0  0  0  0  0  0  0  0
   -4.0545    3.7071   -0.0529 C   0  0  0  0  0  0  0  0  0  0  0  0
   -2.7257    3.1663    0.3230 C   0  0  0  0  0  0  0  0  0  0  0  0
   -2.1762    3.3875    1.5177 C   0  0  0  0  0  0  0  0  0  0  0  0
   -0.9128    2.7131    1.8748 C   0  0  0  0  0  0  0  0  0  0  0  0
   -0.6299    2.2199    3.0968 C   0  0  0  0  0  0  0  0  0  0  0  0
   -1.5553    2.1458    4.2396 C   0  0  0  0  0  0  0  0  0  0  0  0
   -2.5217    2.9200    4.4700 O   0  0  0  0  0  0  0  0  0  0  0  0
   -1.1521    1.0349    5.0947 C   0  0  0  0  0  0  0  0  0  0  0  0
   -1.8517    0.4798    6.1995 C   0  0  0  0  0  0  0  0  0  0  0  0
   -1.2848   -0.6807    6.7027 C   0  0  0  0  0  0  0  0  0  0  0  0
   -0.1054   -1.2697    6.1395 C   0  0  0  0  0  0  0  0  0  0  0  0
    0.5826   -0.7374    5.0675 C   0  0  0  0  0  0  0  0  0  0  0  0
    0.0389    0.4749    4.5658 C   0  0  0  0  0  0  0  0  0  0  0  0
    0.4937    1.2868    3.4098 C   0  0  0  0  0  0  0  0  0  0  0  0
    1.7554    1.3489    2.9156 C   0  0  0  0  0  0  0  0  0  0  0  0
    2.1524    2.3312    1.9405 C   0  0  0  0  0  0  0  0  0  0  0  0
    2.4822    3.1286    1.1673 N   0  0  0  0  0  0  0  0  0  0  0  0
    2.8238    0.5473    3.4535 C   0  0  0  0  0  0  0  0  0  0  0  0
    3.6846   -0.1001    3.8812 N   0  0  0  0  0  0  0  0  0  0  0  0
   -0.1951   -2.4175    7.0919 C   0  0  0  0  0  0  0  0  0  0  0  0
   -0.7299   -3.7540    6.5004 C   0  0  0  0  0  0  0  0  0  0  0  0
   -1.0385   -4.6283    7.6888 C   0  0  0  0  0  0  0  0  0  0  0  0
   -2.1048   -4.0870    8.2869 C   0  0  0  0  0  0  0  0  0  0  0  0
   -2.4906   -2.8724    7.4694 C   0  0  0  0  0  0  0  0  0  0  0  0
   -2.1561   -3.4124    6.0875 C   0  0  0  0  0  0  0  0  0  0  0  0
   -1.3806   -1.8039    7.7036 C   0  0  0  0  0  0  0  0  0  0  0  0
    4.4624   -3.8381   -1.8188 H   0  0  0  0  0  0  0  0  0  0  0  0
    5.2844    1.2008    1.9403 H   0  0  0  0  0  0  0  0  0  0  0  0
    9.3234   -1.4813    0.3771 H   0  0  0  0  0  0  0  0  0  0  0  0
   10.0325    0.5106    3.1295 H   0  0  0  0  0  0  0  0  0  0  0  0
   11.3708    1.7726    1.3215 H   0  0  0  0  0  0  0  0  0  0  0  0
    9.8287    2.3054   -0.7726 H   0  0  0  0  0  0  0  0  0  0  0  0
    7.7789    3.6862    0.0548 H   0  0  0  0  0  0  0  0  0  0  0  0
    8.0189    4.0391    2.6758 H   0  0  0  0  0  0  0  0  0  0  0  0
   10.5426    4.2119    1.9069 H   0  0  0  0  0  0  0  0  0  0  0  0
   10.4431    3.1773    3.3988 H   0  0  0  0  0  0  0  0  0  0  0  0
    8.1766    1.7583    3.8772 H   0  0  0  0  0  0  0  0  0  0  0  0
    1.8324    3.4884   -2.1014 H   0  0  0  0  0  0  0  0  0  0  0  0
    0.1759    2.9137   -2.3773 H   0  0  0  0  0  0  0  0  0  0  0  0
    2.3052    3.3449   -4.5674 H   0  0  0  0  0  0  0  0  0  0  0  0
    0.8130    4.2955   -4.2627 H   0  0  0  0  0  0  0  0  0  0  0  0
    0.6897    2.6007   -4.8374 H   0  0  0  0  0  0  0  0  0  0  0  0
    3.8838    2.9751   -2.9274 H   0  0  0  0  0  0  0  0  0  0  0  0
    4.9755    1.7840   -2.1876 H   0  0  0  0  0  0  0  0  0  0  0  0
    5.2098    0.5571   -4.3012 H   0  0  0  0  0  0  0  0  0  0  0  0
    3.9446    1.5716   -5.0933 H   0  0  0  0  0  0  0  0  0  0  0  0
    5.5224    2.2977   -4.5997 H   0  0  0  0  0  0  0  0  0  0  0  0
   -3.4162   -2.9862   -3.6832 H   0  0  0  0  0  0  0  0  0  0  0  0
   -5.4180   -3.6700   -4.9473 H   0  0  0  0  0  0  0  0  0  0  0  0
   -7.6133   -1.7545   -5.2948 H   0  0  0  0  0  0  0  0  0  0  0  0
   -7.4392   -0.4763   -6.5699 H   0  0  0  0  0  0  0  0  0  0  0  0
   -8.7761   -1.6904   -6.6722 H   0  0  0  0  0  0  0  0  0  0  0  0
   -4.6415   -0.6012   -7.8548 H   0  0  0  0  0  0  0  0  0  0  0  0
   -2.6309    0.0908   -6.6046 H   0  0  0  0  0  0  0  0  0  0  0  0
   -0.3677    0.8107   -5.7135 H   0  0  0  0  0  0  0  0  0  0  0  0
    1.8750    0.4984   -6.7071 H   0  0  0  0  0  0  0  0  0  0  0  0
    2.2758   -1.7055   -8.7697 H   0  0  0  0  0  0  0  0  0  0  0  0
    2.4509   -3.4050   -8.1324 H   0  0  0  0  0  0  0  0  0  0  0  0
    3.8029   -2.6217   -9.0520 H   0  0  0  0  0  0  0  0  0  0  0  0
    1.9423   -3.5525   -5.2456 H   0  0  0  0  0  0  0  0  0  0  0  0
   -0.2896   -3.2283   -4.2527 H   0  0  0  0  0  0  0  0  0  0  0  0
   -7.4805    1.1800    1.7656 H   0  0  0  0  0  0  0  0  0  0  0  0
   -9.8292    1.2705    1.0262 H   0  0  0  0  0  0  0  0  0  0  0  0
  -10.7007    2.8713   -1.4384 H   0  0  0  0  0  0  0  0  0  0  0  0
  -11.8235    2.3878   -2.7672 H   0  0  0  0  0  0  0  0  0  0  0  0
  -10.0531    2.0876   -2.9374 H   0  0  0  0  0  0  0  0  0  0  0  0
   -8.7250   -0.5600   -2.7120 H   0  0  0  0  0  0  0  0  0  0  0  0
   -6.3828   -0.6530   -1.9794 H   0  0  0  0  0  0  0  0  0  0  0  0
   -5.7227   -2.1837    1.3455 H   0  0  0  0  0  0  0  0  0  0  0  0
   -5.7044   -2.7919    3.7393 H   0  0  0  0  0  0  0  0  0  0  0  0
   -7.6099   -1.7414    5.6883 H   0  0  0  0  0  0  0  0  0  0  0  0
   -7.3537    0.0529    5.5728 H   0  0  0  0  0  0  0  0  0  0  0  0
   -7.4304   -0.7494    7.1873 H   0  0  0  0  0  0  0  0  0  0  0  0
   -4.4649    1.2036    4.7267 H   0  0  0  0  0  0  0  0  0  0  0  0
   -4.4078    1.7901    2.3341 H   0  0  0  0  0  0  0  0  0  0  0  0
   -5.8014    3.5492   -1.2061 H   0  0  0  0  0  0  0  0  0  0  0  0
   -4.3868    4.6341    0.4008 H   0  0  0  0  0  0  0  0  0  0  0  0
   -2.2198    2.5030   -0.3698 H   0  0  0  0  0  0  0  0  0  0  0  0
   -2.6940    4.0000    2.2446 H   0  0  0  0  0  0  0  0  0  0  0  0
   -0.2528    2.4710    1.0532 H   0  0  0  0  0  0  0  0  0  0  0  0
   -2.7649    0.9043    6.5829 H   0  0  0  0  0  0  0  0  0  0  0  0
    1.4230   -1.2545    4.6381 H   0  0  0  0  0  0  0  0  0  0  0  0
    0.6831   -2.5023    7.7726 H   0  0  0  0  0  0  0  0  0  0  0  0
   -0.0979   -4.2254    5.7189 H   0  0  0  0  0  0  0  0  0  0  0  0
   -0.5687   -5.5668    7.9547 H   0  0  0  0  0  0  0  0  0  0  0  0
   -2.6573   -4.5224    9.1123 H   0  0  0  0  0  0  0  0  0  0  0  0
   -3.5280   -2.5370    7.6432 H   0  0  0  0  0  0  0  0  0  0  0  0
   -2.2256   -2.6549    5.2755 H   0  0  0  0  0  0  0  0  0  0  0  0
   -2.7656   -4.3034    5.7992 H   0  0  0  0  0  0  0  0  0  0  0  0
   -1.2429   -1.4813    8.7587 H   0  0  0  0  0  0  0  0  0  0  0  0
  1  2  2  3
  2  3  1  0
  3  4  2  0
  3  5  1  0
  5  6  2  0
  6  7  1  0
  7  8  2  0
  8  9  1  0
  9 10  2  0
 10 11  1  0
 11 12  2  3
 12 13  1  0
 13 14  3  0
 12 15  1  0
 15 16  3  0
  8 17  1  0
 17 18  1  0
 18 19  1  0
 19 20  2  0
 20 21  1  0
 21 22  1  0
 21 23  1  0
  1 24  1  0
 24 25  2  0
 25 26  1  0
 25 27  1  0
 27 28  1  0
 27 29  2  0
 29 30  1  0
 30 31  2  0
 31 32  1  0
 32 33  1  0
 33 34  1  0
 32 35  2  0
 35 36  1  0
 36 37  2  0
 35 38  1  0
 38 39  1  0
 29 40  1  0
 40 41  2  0
 41 42  1  0
 42 43  1  0
 43 44  2  0
 44 45  1  0
 45 46  2  0
 46 47  1  0
 47 48  1  0
 46 49  1  0
 49 50  2  0
 42 51  1  0
 51 52  2  0
 52 53  1  0
 53 54  2  0
 54 55  1  0
 55 56  1  0
 54 57  1  0
 57 58  2  0
 41 59  1  0
 59 60  1  0
 60 61  1  0
 61 62  2  0
 62 63  1  0
 63 64  1  0
 64 65  2  0
 65 66  1  0
 66 67  2  0
 67 68  1  0
 68 69  1  0
 67 70  1  0
 70 71  2  0
 63 72  1  0
 72 73  2  0
 73 74  1  0
 74 75  2  0
 75 76  1  0
 76 77  1  0
 75 78  1  0
 78 79  2  0
 62 80  1  0
 80 81  1  0
 61 82  1  0
 82 83  2  3
 83 84  1  0
 84 85  2  3
 85 86  1  0
 86 87  2  3
 87 88  1  0
 88 89  2  0
 88 90  1  0
 90 91  2  0
 91 92  1  0
 92 93  2  0
 93 94  1  0
 94 95  2  0
 95 96  1  0
 96 97  2  3
 97 98  1  0
 98 99  3  0
 97100  1  0
100101  3  0
 93102  1  0
102103  1  0
103104  1  0
104105  2  0
105106  1  0
106107  1  0
106108  1  0
 11  2  1  0
 23 17  1  0
 37 24  1  0
 81 40  1  0
 96 87  1  0
108102  1  0
 10  5  1  0
 22 18  1  0
 37 30  1  0
 50 43  1  0
 58 51  1  0
 80 59  2  0
 95 90  1  0
107103  1  0
 23  7  1  0
 71 64  1  0
 79 72  1  0
108 92  1  0
  1109  1  0
  6110  1  0
  9111  1  0
 17112  1  0
 18113  1  0
 19114  1  0
 20115  1  0
 21116  1  0
 22117  1  0
 22118  1  0
 23119  1  0
 33120  1  0
 33121  1  0
 34122  1  0
 34123  1  0
 34124  1  0
 38125  1  0
 38126  1  0
 39127  1  0
 39128  1  0
 39129  1  0
 44130  1  0
 45131  1  0
 48132  1  0
 48133  1  0
 48134  1  0
 49135  1  0
 50136  1  0
 52137  1  0
 53138  1  0
 56139  1  0
 56140  1  0
 56141  1  0
 57142  1  0
 58143  1  0
 65144  1  0
 66145  1  0
 69146  1  0
 69147  1  0
 69148  1  0
 70149  1  0
 71150  1  0
 73151  1  0
 74152  1  0
 77153  1  0
 77154  1  0
 77155  1  0
 78156  1  0
 79157  1  0
 82158  1  0
 83159  1  0
 84160  1  0
 85161  1  0
 86162  1  0
 91163  1  0
 94164  1  0
102165  1  0
103166  1  0
104167  1  0
105168  1  0
106169  1  0
107170  1  0
107171  1  0
108172  1  0
M  END

