
     RDKit          3D

255278  0  0  0  0  0  0  0  0999 V2000
    7.4884    1.7041    3.9785 C   0  0  0  0  0  0  0  0  0  0  0  0
    8.4576    2.5945    3.6760 C   0  0  0  0  0  0  0  0  0  0  0  0
    8.4498    3.5121    2.5357 C   0  0  0  0  0  0  0  0  0  0  0  0
    7.4526    4.1503    2.1060 O   0  0  0  0  0  0  0  0  0  0  0  0
    9.8028    3.6510    2.0432 C   0  0  0  0  0  0  0  0  0  0  0  0
   10.2099    4.2172    0.8147 C   0  0  0  0  0  0  0  0  0  0  0  0
   11.5367    3.9872    0.5014 C   0  0  0  0  0  0  0  0  0  0  0  0
   12.4218    3.2451    1.3503 C   0  0  0  0  0  0  0  0  0  0  0  0
   12.0347    2.7050    2.5662 C   0  0  0  0  0  0  0  0  0  0  0  0
   10.6752    2.9467    2.9111 C   0  0  0  0  0  0  0  0  0  0  0  0
    9.8886    2.4196    4.0591 C   0  0  0  0  0  0  0  0  0  0  0  0
   10.3582    2.0208    5.2670 C   0  0  0  0  0  0  0  0  0  0  0  0
   11.7644    1.9002    5.5450 C   0  0  0  0  0  0  0  0  0  0  0  0
   12.8982    1.7778    5.7690 N   0  0  0  0  0  0  0  0  0  0  0  0
    9.4774    1.7886    6.3847 C   0  0  0  0  0  0  0  0  0  0  0  0
    8.7710    1.6031    7.2819 N   0  0  0  0  0  0  0  0  0  0  0  0
   13.5163    3.3607    0.3367 C   0  0  0  0  0  0  0  0  0  0  0  0
   13.8197    2.0793   -0.4930 C   0  0  0  0  0  0  0  0  0  0  0  0
   14.6460    2.5393   -1.6692 C   0  0  0  0  0  0  0  0  0  0  0  0
   13.8254    3.2409   -2.4623 C   0  0  0  0  0  0  0  0  0  0  0  0
   12.4724    3.2258   -1.7938 C   0  0  0  0  0  0  0  0  0  0  0  0
   12.5079    1.8189   -1.2199 C   0  0  0  0  0  0  0  0  0  0  0  0
   12.6149    4.1253   -0.5316 C   0  0  0  0  0  0  0  0  0  0  0  0
    6.3981    1.2869    3.0690 C   0  0  0  0  0  0  0  0  0  0  0  0
    5.3867    0.3791    3.4218 C   0  0  0  0  0  0  0  0  0  0  0  0
    4.8497    0.2627    4.7527 N   0  0  0  0  0  0  0  0  0  0  0  0
    4.4749    1.4679    5.4600 C   0  0  0  0  0  0  0  0  0  0  0  0
    3.8549    2.5290    4.7741 C   0  0  0  0  0  0  0  0  0  0  0  0
    3.4644    3.6821    5.4591 C   0  0  0  0  0  0  0  0  0  0  0  0
    3.6918    3.7897    6.8327 C   0  0  0  0  0  0  0  0  0  0  0  0
    3.2005    5.2786    7.7037 S   0  0  0  0  0  0  0  0  0  0  0  0
    1.5209    4.6694    8.0610 C   0  0  0  0  0  0  0  0  0  0  0  0
    4.3107    2.7390    7.5253 C   0  0  0  0  0  0  0  0  0  0  0  0
    4.6950    1.5797    6.8434 C   0  0  0  0  0  0  0  0  0  0  0  0
    4.3604   -1.0178    5.2003 C   0  0  0  0  0  0  0  0  0  0  0  0
    5.1507   -2.1683    5.0495 C   0  0  0  0  0  0  0  0  0  0  0  0
    4.6443   -3.4232    5.4013 C   0  0  0  0  0  0  0  0  0  0  0  0
    3.3402   -3.5397    5.9029 C   0  0  0  0  0  0  0  0  0  0  0  0
    2.6666   -5.1486    6.3258 S   0  0  0  0  0  0  0  0  0  0  0  0
    2.0042   -5.4486    4.6553 C   0  0  0  0  0  0  0  0  0  0  0  0
    2.5532   -2.3970    6.0667 C   0  0  0  0  0  0  0  0  0  0  0  0
    3.0608   -1.1415    5.7284 C   0  0  0  0  0  0  0  0  0  0  0  0
    4.7261   -0.1030    2.2932 C   0  0  0  0  0  0  0  0  0  0  0  0
    3.3486   -1.0028    2.0536 S   0  0  0  0  0  0  0  0  0  0  0  0
    3.2120   -0.6883    0.3740 C   0  0  0  0  0  0  0  0  0  0  0  0
    4.2844    0.1719    0.0185 C   0  0  0  0  0  0  0  0  0  0  0  0
    4.3819    0.9906   -1.1550 N   0  0  0  0  0  0  0  0  0  0  0  0
    3.7921    2.3111   -1.0268 C   0  0  0  0  0  0  0  0  0  0  0  0
    2.4518    2.4619   -0.6171 C   0  0  0  0  0  0  0  0  0  0  0  0
    1.8819    3.7280   -0.4831 C   0  0  0  0  0  0  0  0  0  0  0  0
    2.6485    4.8696   -0.7192 C   0  0  0  0  0  0  0  0  0  0  0  0
    1.8964    6.4927   -0.6205 S   0  0  0  0  0  0  0  0  0  0  0  0
    1.3537    6.4663   -2.3593 C   0  0  0  0  0  0  0  0  0  0  0  0
    4.0041    4.7433   -1.0363 C   0  0  0  0  0  0  0  0  0  0  0  0
    4.5751    3.4749   -1.1796 C   0  0  0  0  0  0  0  0  0  0  0  0
    5.5120    0.7751   -2.0532 C   0  0  0  0  0  0  0  0  0  0  0  0
    6.5690   -0.1021   -1.7105 C   0  0  0  0  0  0  0  0  0  0  0  0
    7.7311   -0.1634   -2.4824 C   0  0  0  0  0  0  0  0  0  0  0  0
    7.8491    0.6053   -3.6383 C   0  0  0  0  0  0  0  0  0  0  0  0
    9.3817    0.5747   -4.5743 S   0  0  0  0  0  0  0  0  0  0  0  0
    8.8762   -0.8475   -5.5881 C   0  0  0  0  0  0  0  0  0  0  0  0
    6.7827    1.4165   -4.0416 C   0  0  0  0  0  0  0  0  0  0  0  0
    5.6191    1.4915   -3.2643 C   0  0  0  0  0  0  0  0  0  0  0  0
    5.1076    0.4335    1.1177 C   0  0  0  0  0  0  0  0  0  0  0  0
    6.3832    1.4820    1.3709 S   0  0  0  0  0  0  0  0  0  0  0  0
    1.9422   -1.0270   -0.3268 C   0  0  0  0  0  0  0  0  0  0  0  0
    1.5313   -0.9005   -1.6862 C   0  0  0  0  0  0  0  0  0  0  0  0
    2.3994   -0.8262   -2.8421 N   0  0  0  0  0  0  0  0  0  0  0  0
    1.9349   -0.0656   -3.9893 C   0  0  0  0  0  0  0  0  0  0  0  0
    1.8246   -0.6659   -5.2601 C   0  0  0  0  0  0  0  0  0  0  0  0
    1.3084    0.0511   -6.3430 C   0  0  0  0  0  0  0  0  0  0  0  0
    0.8681    1.3655   -6.1690 C   0  0  0  0  0  0  0  0  0  0  0  0
    0.1901    2.2775   -7.5535 S   0  0  0  0  0  0  0  0  0  0  0  0
   -1.5303    1.7910   -7.1887 C   0  0  0  0  0  0  0  0  0  0  0  0
    0.9531    1.9657   -4.9104 C   0  0  0  0  0  0  0  0  0  0  0  0
    1.4705    1.2525   -3.8273 C   0  0  0  0  0  0  0  0  0  0  0  0
    3.4721   -1.7939   -3.0110 C   0  0  0  0  0  0  0  0  0  0  0  0
    4.5068   -1.5654   -3.9444 C   0  0  0  0  0  0  0  0  0  0  0  0
    5.5272   -2.5009   -4.1259 C   0  0  0  0  0  0  0  0  0  0  0  0
    5.5370   -3.6840   -3.3839 C   0  0  0  0  0  0  0  0  0  0  0  0
    6.8531   -4.8813   -3.5982 S   0  0  0  0  0  0  0  0  0  0  0  0
    7.8329   -4.2311   -2.2120 C   0  0  0  0  0  0  0  0  0  0  0  0
    4.5051   -3.9434   -2.4803 C   0  0  0  0  0  0  0  0  0  0  0  0
    3.4797   -3.0133   -2.2960 C   0  0  0  0  0  0  0  0  0  0  0  0
    0.1484   -1.1484   -1.8039 C   0  0  0  0  0  0  0  0  0  0  0  0
   -1.0100   -1.0485   -3.0303 S   0  0  0  0  0  0  0  0  0  0  0  0
   -2.3172   -1.4559   -2.0131 C   0  0  0  0  0  0  0  0  0  0  0  0
   -1.8407   -1.7084   -0.7218 C   0  0  0  0  0  0  0  0  0  0  0  0
   -2.6351   -2.1313    0.3994 N   0  0  0  0  0  0  0  0  0  0  0  0
   -2.6244   -3.5387    0.7134 C   0  0  0  0  0  0  0  0  0  0  0  0
   -1.8644   -4.0091    1.7976 C   0  0  0  0  0  0  0  0  0  0  0  0
   -1.9227   -5.3549    2.1697 C   0  0  0  0  0  0  0  0  0  0  0  0
   -2.7266   -6.2472    1.4481 C   0  0  0  0  0  0  0  0  0  0  0  0
   -2.8408   -7.9652    1.9627 S   0  0  0  0  0  0  0  0  0  0  0  0
   -1.4420   -8.4979    0.9296 C   0  0  0  0  0  0  0  0  0  0  0  0
   -3.4715   -5.7885    0.3539 C   0  0  0  0  0  0  0  0  0  0  0  0
   -3.4242   -4.4412   -0.0047 C   0  0  0  0  0  0  0  0  0  0  0  0
   -3.0199   -1.1952    1.4367 C   0  0  0  0  0  0  0  0  0  0  0  0
   -3.9257   -1.5927    2.4428 C   0  0  0  0  0  0  0  0  0  0  0  0
   -4.1393   -0.7913    3.5659 C   0  0  0  0  0  0  0  0  0  0  0  0
   -3.4737    0.4288    3.6944 C   0  0  0  0  0  0  0  0  0  0  0  0
   -3.6434    1.3826    5.2076 S   0  0  0  0  0  0  0  0  0  0  0  0
   -5.0564    2.3382    4.5757 C   0  0  0  0  0  0  0  0  0  0  0  0
   -2.6464    0.8798    2.6627 C   0  0  0  0  0  0  0  0  0  0  0  0
   -2.4275    0.0802    1.5346 C   0  0  0  0  0  0  0  0  0  0  0  0
   -0.4761   -1.5141   -0.6537 C   0  0  0  0  0  0  0  0  0  0  0  0
    0.5960   -1.5148    0.6035 S   0  0  0  0  0  0  0  0  0  0  0  0
   -3.7358   -1.3789   -2.3660 C   0  0  0  0  0  0  0  0  0  0  0  0
   -4.6228   -0.5665   -1.6592 C   0  0  0  0  0  0  0  0  0  0  0  0
   -5.9246   -1.0740   -1.6278 C   0  0  0  0  0  0  0  0  0  0  0  0
   -6.9891   -0.5635   -0.8619 C   0  0  0  0  0  0  0  0  0  0  0  0
   -6.9918    0.8269   -0.3655 C   0  0  0  0  0  0  0  0  0  0  0  0
   -7.0222    1.1137    1.0051 C   0  0  0  0  0  0  0  0  0  0  0  0
   -7.1527    2.4398    1.4423 C   0  0  0  0  0  0  0  0  0  0  0  0
   -7.2775    3.4903    0.5075 C   0  0  0  0  0  0  0  0  0  0  0  0
   -7.4832    4.8320    0.8800 O   0  0  0  0  0  0  0  0  0  0  0  0
   -7.3360    5.3563    2.2004 C   0  0  0  0  0  0  0  0  0  0  0  0
   -5.8601    5.5589    2.5275 C   0  0  0  0  0  0  0  0  0  0  0  0
   -7.2153    3.1938   -0.8584 C   0  0  0  0  0  0  0  0  0  0  0  0
   -7.0624    1.8780   -1.2930 C   0  0  0  0  0  0  0  0  0  0  0  0
   -8.1234   -1.3807   -0.7362 C   0  0  0  0  0  0  0  0  0  0  0  0
   -8.2438   -2.6062   -1.3947 C   0  0  0  0  0  0  0  0  0  0  0  0
   -7.2096   -3.0690   -2.2327 C   0  0  0  0  0  0  0  0  0  0  0  0
   -7.2764   -4.3791   -2.9021 C   0  0  0  0  0  0  0  0  0  0  0  0
   -7.6332   -4.4557   -4.2532 C   0  0  0  0  0  0  0  0  0  0  0  0
   -7.6436   -5.6889   -4.9065 C   0  0  0  0  0  0  0  0  0  0  0  0
   -7.2778   -6.8622   -4.2150 C   0  0  0  0  0  0  0  0  0  0  0  0
   -7.2425   -8.1224   -4.8308 O   0  0  0  0  0  0  0  0  0  0  0  0
   -7.5439   -8.3547   -6.2059 C   0  0  0  0  0  0  0  0  0  0  0  0
   -7.3382   -9.8232   -6.5314 C   0  0  0  0  0  0  0  0  0  0  0  0
   -6.9277   -6.7783   -2.8584 C   0  0  0  0  0  0  0  0  0  0  0  0
   -6.9239   -5.5430   -2.2029 C   0  0  0  0  0  0  0  0  0  0  0  0
   -6.0585   -2.2773   -2.3232 C   0  0  0  0  0  0  0  0  0  0  0  0
   -4.5775   -2.6884   -3.0114 S   0  0  0  0  0  0  0  0  0  0  0  0
   -9.4671   -3.2532   -1.1383 C   0  0  0  0  0  0  0  0  0  0  0  0
  -10.3067   -2.5233   -0.2924 C   0  0  0  0  0  0  0  0  0  0  0  0
   -9.5233   -1.0821    0.1324 S   0  0  0  0  0  0  0  0  0  0  0  0
  -11.7472   -2.8836   -0.0105 C   0  0  0  0  0  0  0  0  0  0  0  0
  -12.5448   -2.7497   -1.2783 C   0  0  0  0  0  0  0  0  0  0  0  0
  -12.9278   -1.5453   -1.6971 C   0  0  0  0  0  0  0  0  0  0  0  0
  -12.6467   -0.3621   -0.8488 C   0  0  0  0  0  0  0  0  0  0  0  0
  -12.2136    0.8085   -1.3746 C   0  0  0  0  0  0  0  0  0  0  0  0
  -11.9408    2.2249   -0.5107 S   0  0  0  0  0  0  0  0  0  0  0  0
  -11.2751    3.0992   -1.7960 C   0  0  0  0  0  0  0  0  0  0  0  0
  -10.7944    4.3594   -1.6435 C   0  0  0  0  0  0  0  0  0  0  0  0
  -10.0595    5.0836   -2.6463 C   0  0  0  0  0  0  0  0  0  0  0  0
   -9.4647    5.6770   -3.4487 N   0  0  0  0  0  0  0  0  0  0  0  0
  -10.9811    5.0621   -0.3941 C   0  0  0  0  0  0  0  0  0  0  0  0
  -11.1398    5.6378    0.6028 N   0  0  0  0  0  0  0  0  0  0  0  0
  -11.2706    2.3123   -2.9268 N   0  0  0  0  0  0  0  0  0  0  0  0
  -10.7640    2.6730   -4.2592 C   0  0  0  0  0  0  0  0  0  0  0  0
   -9.2764    2.3637   -4.3717 C   0  0  0  0  0  0  0  0  0  0  0  0
  -11.7781    1.0579   -2.6850 C   0  0  0  0  0  0  0  0  0  0  0  0
  -11.7920    0.1752   -3.5826 O   0  0  0  0  0  0  0  0  0  0  0  0
  -12.7189   -0.5667    0.6601 C   0  0  0  0  0  0  0  0  0  0  0  0
  -12.3995   -2.0244    1.0995 C   0  0  0  0  0  0  0  0  0  0  0  0
    7.6300    1.0458    4.8184 H   0  0  0  0  0  0  0  0  0  0  0  0
    9.5209    4.7043    0.1338 H   0  0  0  0  0  0  0  0  0  0  0  0
   12.7100    2.0933    3.1421 H   0  0  0  0  0  0  0  0  0  0  0  0
   14.4018    3.9252    0.6990 H   0  0  0  0  0  0  0  0  0  0  0  0
   14.2359    1.2236    0.0776 H   0  0  0  0  0  0  0  0  0  0  0  0
   15.6721    2.2605   -1.8979 H   0  0  0  0  0  0  0  0  0  0  0  0
   14.0676    3.6377   -3.4439 H   0  0  0  0  0  0  0  0  0  0  0  0
   11.6094    3.4625   -2.4562 H   0  0  0  0  0  0  0  0  0  0  0  0
   12.5889    1.0266   -2.0048 H   0  0  0  0  0  0  0  0  0  0  0  0
   11.6492    1.5780   -0.5471 H   0  0  0  0  0  0  0  0  0  0  0  0
   12.9334    5.1799   -0.7115 H   0  0  0  0  0  0  0  0  0  0  0  0
    3.6529    2.4531    3.7129 H   0  0  0  0  0  0  0  0  0  0  0  0
    2.9786    4.4810    4.9181 H   0  0  0  0  0  0  0  0  0  0  0  0
    0.9378    5.4778    8.5459 H   0  0  0  0  0  0  0  0  0  0  0  0
    1.5774    3.7979    8.7508 H   0  0  0  0  0  0  0  0  0  0  0  0
    1.0069    4.3669    7.1232 H   0  0  0  0  0  0  0  0  0  0  0  0
    4.4875    2.8217    8.5830 H   0  0  0  0  0  0  0  0  0  0  0  0
    5.1638    0.7688    7.3863 H   0  0  0  0  0  0  0  0  0  0  0  0
    6.1574   -2.0916    4.6484 H   0  0  0  0  0  0  0  0  0  0  0  0
    5.2606   -4.3032    5.2769 H   0  0  0  0  0  0  0  0  0  0  0  0
    1.3615   -4.6022    4.3293 H   0  0  0  0  0  0  0  0  0  0  0  0
    1.3905   -6.3745    4.6709 H   0  0  0  0  0  0  0  0  0  0  0  0
    2.8416   -5.5823    3.9407 H   0  0  0  0  0  0  0  0  0  0  0  0
    1.5413   -2.4795    6.4416 H   0  0  0  0  0  0  0  0  0  0  0  0
    2.4255   -0.2729    5.8310 H   0  0  0  0  0  0  0  0  0  0  0  0
    1.8278    1.6036   -0.4320 H   0  0  0  0  0  0  0  0  0  0  0  0
    0.8376    3.8193   -0.2154 H   0  0  0  0  0  0  0  0  0  0  0  0
    0.6628    5.6132   -2.5346 H   0  0  0  0  0  0  0  0  0  0  0  0
    2.2323    6.3746   -3.0344 H   0  0  0  0  0  0  0  0  0  0  0  0
    0.8217    7.4105   -2.5894 H   0  0  0  0  0  0  0  0  0  0  0  0
    4.6155    5.6262   -1.1774 H   0  0  0  0  0  0  0  0  0  0  0  0
    5.6350    3.4041   -1.3861 H   0  0  0  0  0  0  0  0  0  0  0  0
    6.5375   -0.7135   -0.8227 H   0  0  0  0  0  0  0  0  0  0  0  0
    8.5507   -0.7949   -2.1602 H   0  0  0  0  0  0  0  0  0  0  0  0
    9.7011   -1.1153   -6.2763 H   0  0  0  0  0  0  0  0  0  0  0  0
    7.9800   -0.5858   -6.1838 H   0  0  0  0  0  0  0  0  0  0  0  0
    8.6576   -1.7235   -4.9376 H   0  0  0  0  0  0  0  0  0  0  0  0
    6.8632    2.0065   -4.9479 H   0  0  0  0  0  0  0  0  0  0  0  0
    4.8137    2.1340   -3.6004 H   0  0  0  0  0  0  0  0  0  0  0  0
    2.1282   -1.6956   -5.4103 H   0  0  0  0  0  0  0  0  0  0  0  0
    1.2321   -0.4263   -7.3115 H   0  0  0  0  0  0  0  0  0  0  0  0
   -2.1926    2.1358   -8.0114 H   0  0  0  0  0  0  0  0  0  0  0  0
   -1.6185    0.6842   -7.1064 H   0  0  0  0  0  0  0  0  0  0  0  0
   -1.8652    2.2623   -6.2390 H   0  0  0  0  0  0  0  0  0  0  0  0
    0.5953    2.9775   -4.7607 H   0  0  0  0  0  0  0  0  0  0  0  0
    1.4795    1.7185   -2.8579 H   0  0  0  0  0  0  0  0  0  0  0  0
    4.5231   -0.6627   -4.5357 H   0  0  0  0  0  0  0  0  0  0  0  0
    6.3063   -2.3062   -4.8505 H   0  0  0  0  0  0  0  0  0  0  0  0
    8.1944   -3.2136   -2.4505 H   0  0  0  0  0  0  0  0  0  0  0  0
    8.7013   -4.8938   -2.0366 H   0  0  0  0  0  0  0  0  0  0  0  0
    7.2181   -4.2007   -1.2889 H   0  0  0  0  0  0  0  0  0  0  0  0
    4.4878   -4.8679   -1.9159 H   0  0  0  0  0  0  0  0  0  0  0  0
    2.6821   -3.2666   -1.6110 H   0  0  0  0  0  0  0  0  0  0  0  0
   -1.2520   -3.3303    2.3749 H   0  0  0  0  0  0  0  0  0  0  0  0
   -1.3532   -5.7029    3.0228 H   0  0  0  0  0  0  0  0  0  0  0  0
   -1.6555   -8.2791   -0.1363 H   0  0  0  0  0  0  0  0  0  0  0  0
   -1.2968   -9.5925    1.0505 H   0  0  0  0  0  0  0  0  0  0  0  0
   -0.5123   -7.9772    1.2448 H   0  0  0  0  0  0  0  0  0  0  0  0
   -4.0913   -6.4701   -0.2071 H   0  0  0  0  0  0  0  0  0  0  0  0
   -4.0411   -4.0926   -0.8129 H   0  0  0  0  0  0  0  0  0  0  0  0
   -4.4382   -2.5447    2.3810 H   0  0  0  0  0  0  0  0  0  0  0  0
   -4.8042   -1.1386    4.3524 H   0  0  0  0  0  0  0  0  0  0  0  0
   -4.7695    2.8369    3.6245 H   0  0  0  0  0  0  0  0  0  0  0  0
   -5.3317    3.1128    5.3216 H   0  0  0  0  0  0  0  0  0  0  0  0
   -5.9247    1.6631    4.4030 H   0  0  0  0  0  0  0  0  0  0  0  0
   -2.1451    1.8354    2.7507 H   0  0  0  0  0  0  0  0  0  0  0  0
   -1.7587    0.4555    0.7745 H   0  0  0  0  0  0  0  0  0  0  0  0
   -4.2970    0.2717   -1.0540 H   0  0  0  0  0  0  0  0  0  0  0  0
   -6.9670    0.3137    1.7308 H   0  0  0  0  0  0  0  0  0  0  0  0
   -7.1911    2.6243    2.5034 H   0  0  0  0  0  0  0  0  0  0  0  0
   -7.8219    4.7035    2.9498 H   0  0  0  0  0  0  0  0  0  0  0  0
   -7.8406    6.3417    2.2473 H   0  0  0  0  0  0  0  0  0  0  0  0
   -5.2825    4.6363    2.3166 H   0  0  0  0  0  0  0  0  0  0  0  0
   -5.4411    6.3794    1.9009 H   0  0  0  0  0  0  0  0  0  0  0  0
   -5.7424    5.8275    3.6020 H   0  0  0  0  0  0  0  0  0  0  0  0
   -7.3018    3.9908   -1.5853 H   0  0  0  0  0  0  0  0  0  0  0  0
   -7.0351    1.6731   -2.3554 H   0  0  0  0  0  0  0  0  0  0  0  0
   -7.8875   -3.5619   -4.8047 H   0  0  0  0  0  0  0  0  0  0  0  0
   -7.9128   -5.7172   -5.9522 H   0  0  0  0  0  0  0  0  0  0  0  0
   -6.8704   -7.7439   -6.8490 H   0  0  0  0  0  0  0  0  0  0  0  0
   -8.6018   -8.0800   -6.4085 H   0  0  0  0  0  0  0  0  0  0  0  0
   -7.5883  -10.0081   -7.5958 H   0  0  0  0  0  0  0  0  0  0  0  0
   -6.2772  -10.1084   -6.3563 H   0  0  0  0  0  0  0  0  0  0  0  0
   -7.9936  -10.4529   -5.8930 H   0  0  0  0  0  0  0  0  0  0  0  0
   -6.6483   -7.6698   -2.3174 H   0  0  0  0  0  0  0  0  0  0  0  0
   -6.6401   -5.4927   -1.1622 H   0  0  0  0  0  0  0  0  0  0  0  0
   -9.7518   -4.1908   -1.5889 H   0  0  0  0  0  0  0  0  0  0  0  0
  -11.7720   -3.9465    0.3143 H   0  0  0  0  0  0  0  0  0  0  0  0
  -12.7586   -3.6268   -1.8807 H   0  0  0  0  0  0  0  0  0  0  0  0
  -13.4285   -1.4335   -2.6498 H   0  0  0  0  0  0  0  0  0  0  0  0
  -10.9826    3.7279   -4.5096 H   0  0  0  0  0  0  0  0  0  0  0  0
  -11.2967    2.0908   -5.0408 H   0  0  0  0  0  0  0  0  0  0  0  0
   -8.6912    2.9809   -3.6607 H   0  0  0  0  0  0  0  0  0  0  0  0
   -9.0927    1.2921   -4.1453 H   0  0  0  0  0  0  0  0  0  0  0  0
   -8.9296    2.5773   -5.4067 H   0  0  0  0  0  0  0  0  0  0  0  0
  -13.7423   -0.2895    1.0043 H   0  0  0  0  0  0  0  0  0  0  0  0
  -12.0078    0.1038    1.1896 H   0  0  0  0  0  0  0  0  0  0  0  0
  -13.3494   -2.5225    1.4015 H   0  0  0  0  0  0  0  0  0  0  0  0
  -11.7489   -2.0164    2.0036 H   0  0  0  0  0  0  0  0  0  0  0  0
  1  2  2  3
  2  3  1  0
  3  4  2  0
  3  5  1  0
  5  6  2  0
  6  7  1  0
  7  8  2  0
  8  9  1  0
  9 10  2  0
 10 11  1  0
 11 12  2  3
 12 13  1  0
 13 14  3  0
 12 15  1  0
 15 16  3  0
  8 17  1  0
 17 18  1  0
 18 19  1  0
 19 20  2  0
 20 21  1  0
 21 22  1  0
 21 23  1  0
  1 24  1  0
 24 25  2  0
 25 26  1  0
 26 27  1  0
 27 28  2  0
 28 29  1  0
 29 30  2  0
 30 31  1  0
 31 32  1  0
 30 33  1  0
 33 34  2  0
 26 35  1  0
 35 36  2  0
 36 37  1  0
 37 38  2  0
 38 39  1  0
 39 40  1  0
 38 41  1  0
 41 42  2  0
 25 43  1  0
 43 44  1  0
 44 45  1  0
 45 46  2  0
 46 47  1  0
 47 48  1  0
 48 49  2  0
 49 50  1  0
 50 51  2  0
 51 52  1  0
 52 53  1  0
 51 54  1  0
 54 55  2  0
 47 56  1  0
 56 57  2  0
 57 58  1  0
 58 59  2  0
 59 60  1  0
 60 61  1  0
 59 62  1  0
 62 63  2  0
 46 64  1  0
 64 65  1  0
 45 66  1  0
 66 67  2  0
 67 68  1  0
 68 69  1  0
 69 70  2  0
 70 71  1  0
 71 72  2  0
 72 73  1  0
 73 74  1  0
 72 75  1  0
 75 76  2  0
 68 77  1  0
 77 78  2  0
 78 79  1  0
 79 80  2  0
 80 81  1  0
 81 82  1  0
 80 83  1  0
 83 84  2  0
 67 85  1  0
 85 86  1  0
 86 87  1  0
 87 88  2  0
 88 89  1  0
 89 90  1  0
 90 91  2  0
 91 92  1  0
 92 93  2  0
 93 94  1  0
 94 95  1  0
 93 96  1  0
 96 97  2  0
 89 98  1  0
 98 99  2  0
 99100  1  0
100101  2  0
101102  1  0
102103  1  0
101104  1  0
104105  2  0
 88106  1  0
106107  1  0
 87108  1  0
108109  2  0
109110  1  0
110111  2  0
111112  1  0
112113  2  0
113114  1  0
114115  2  0
115116  1  0
116117  1  0
117118  1  0
115119  1  0
119120  2  0
111121  1  0
121122  2  0
122123  1  0
123124  1  0
124125  2  0
125126  1  0
126127  2  0
127128  1  0
128129  1  0
129130  1  0
127131  1  0
131132  2  0
123133  2  0
133134  1  0
122135  1  0
135136  2  0
136137  1  0
136138  1  0
138139  1  0
139140  2  0
140141  1  0
141142  2  3
142143  1  0
143144  1  0
144145  2  3
145146  1  0
146147  3  0
145148  1  0
148149  3  0
144150  1  0
150151  1  0
151152  1  0
150153  1  0
153154  2  0
141155  1  0
155156  1  0
 11  2  1  0
 23 17  1  0
 65 24  1  0
107 66  1  0
134108  1  0
156138  1  0
 10  5  1  0
 22 18  1  0
 34 27  1  0
 42 35  1  0
 64 43  2  0
 76 69  1  0
 84 77  1  0
106 85  2  0
133110  1  0
153142  1  0
 23  7  1  0
 55 48  1  0
 63 56  1  0
 97 90  1  0
105 98  1  0
120112  1  0
137121  1  0
132124  1  0
  1157  1  0
  6158  1  0
  9159  1  0
 17160  1  0
 18161  1  0
 19162  1  0
 20163  1  0
 21164  1  0
 22165  1  0
 22166  1  0
 23167  1  0
 28168  1  0
 29169  1  0
 32170  1  0
 32171  1  0
 32172  1  0
 33173  1  0
 34174  1  0
 36175  1  0
 37176  1  0
 40177  1  0
 40178  1  0
 40179  1  0
 41180  1  0
 42181  1  0
 49182  1  0
 50183  1  0
 53184  1  0
 53185  1  0
 53186  1  0
 54187  1  0
 55188  1  0
 57189  1  0
 58190  1  0
 61191  1  0
 61192  1  0
 61193  1  0
 62194  1  0
 63195  1  0
 70196  1  0
 71197  1  0
 74198  1  0
 74199  1  0
 74200  1  0
 75201  1  0
 76202  1  0
 78203  1  0
 79204  1  0
 82205  1  0
 82206  1  0
 82207  1  0
 83208  1  0
 84209  1  0
 91210  1  0
 92211  1  0
 95212  1  0
 95213  1  0
 95214  1  0
 96215  1  0
 97216  1  0
 99217  1  0
100218  1  0
103219  1  0
103220  1  0
103221  1  0
104222  1  0
105223  1  0
109224  1  0
113225  1  0
114226  1  0
117227  1  0
117228  1  0
118229  1  0
118230  1  0
118231  1  0
119232  1  0
120233  1  0
125234  1  0
126235  1  0
129236  1  0
129237  1  0
130238  1  0
130239  1  0
130240  1  0
131241  1  0
132242  1  0
135243  1  0
138244  1  0
139245  1  0
140246  1  0
151247  1  0
151248  1  0
152249  1  0
152250  1  0
152251  1  0
155252  1  0
155253  1  0
156254  1  0
156255  1  0
M  END

