
     RDKit          3D

225245  0  0  0  0  0  0  0  0999 V2000
   -5.0666    6.5745    1.9545 C   0  0  0  0  0  0  0  0  0  0  0  0
   -5.9522    7.1895    1.1426 C   0  0  0  0  0  0  0  0  0  0  0  0
   -6.6720    6.5881    0.0162 C   0  0  0  0  0  0  0  0  0  0  0  0
   -7.3083    5.5008    0.0343 O   0  0  0  0  0  0  0  0  0  0  0  0
   -6.7552    7.5603   -1.0459 C   0  0  0  0  0  0  0  0  0  0  0  0
   -7.1126    7.3146   -2.3904 C   0  0  0  0  0  0  0  0  0  0  0  0
   -6.9015    8.3941   -3.2273 C   0  0  0  0  0  0  0  0  0  0  0  0
   -6.3888    9.6526   -2.7714 C   0  0  0  0  0  0  0  0  0  0  0  0
   -6.0536    9.9021   -1.4497 C   0  0  0  0  0  0  0  0  0  0  0  0
   -6.2688    8.8025   -0.5736 C   0  0  0  0  0  0  0  0  0  0  0  0
   -5.9145    8.6552    0.8620 C   0  0  0  0  0  0  0  0  0  0  0  0
   -5.7950    9.6489    1.7729 C   0  0  0  0  0  0  0  0  0  0  0  0
   -5.7006    9.3727    3.1837 C   0  0  0  0  0  0  0  0  0  0  0  0
   -5.6261    9.1515    4.3179 N   0  0  0  0  0  0  0  0  0  0  0  0
   -5.9094   11.0385    1.4160 C   0  0  0  0  0  0  0  0  0  0  0  0
   -6.0051   12.1596    1.1372 N   0  0  0  0  0  0  0  0  0  0  0  0
   -6.3865   10.1799   -4.1767 C   0  0  0  0  0  0  0  0  0  0  0  0
   -5.0132   10.3044   -4.9075 C   0  0  0  0  0  0  0  0  0  0  0  0
   -4.0555    9.2535   -4.3929 C   0  0  0  0  0  0  0  0  0  0  0  0
   -4.5245    8.0749   -4.8032 C   0  0  0  0  0  0  0  0  0  0  0  0
   -5.7856    8.3640   -5.5926 C   0  0  0  0  0  0  0  0  0  0  0  0
   -5.3651    9.6719   -6.2398 C   0  0  0  0  0  0  0  0  0  0  0  0
   -6.9047    8.8868   -4.6407 C   0  0  0  0  0  0  0  0  0  0  0  0
   -4.4920    5.2187    1.7702 C   0  0  0  0  0  0  0  0  0  0  0  0
   -3.2716    4.8055    2.3415 C   0  0  0  0  0  0  0  0  0  0  0  0
   -2.3543    5.6834    3.0136 N   0  0  0  0  0  0  0  0  0  0  0  0
   -2.1790    5.6029    4.4502 C   0  0  0  0  0  0  0  0  0  0  0  0
   -1.5761    6.6653    5.1553 C   0  0  0  0  0  0  0  0  0  0  0  0
   -1.3267    6.5629    6.5267 C   0  0  0  0  0  0  0  0  0  0  0  0
   -1.6775    5.3993    7.2169 C   0  0  0  0  0  0  0  0  0  0  0  0
   -1.3185    5.2518    8.9683 S   0  0  0  0  0  0  0  0  0  0  0  0
    0.3040    4.4694    8.6970 C   0  0  0  0  0  0  0  0  0  0  0  0
   -2.3111    4.3546    6.5422 C   0  0  0  0  0  0  0  0  0  0  0  0
   -2.5691    4.4569    5.1704 C   0  0  0  0  0  0  0  0  0  0  0  0
   -1.3712    6.3569    2.1957 C   0  0  0  0  0  0  0  0  0  0  0  0
   -1.7640    7.2073    1.1458 C   0  0  0  0  0  0  0  0  0  0  0  0
   -0.8064    7.8480    0.3545 C   0  0  0  0  0  0  0  0  0  0  0  0
    0.5555    7.6518    0.6032 C   0  0  0  0  0  0  0  0  0  0  0  0
    1.7791    8.4955   -0.3967 S   0  0  0  0  0  0  0  0  0  0  0  0
    1.7524    9.9934    0.6392 C   0  0  0  0  0  0  0  0  0  0  0  0
    0.9558    6.7921    1.6307 C   0  0  0  0  0  0  0  0  0  0  0  0
    0.0009    6.1433    2.4179 C   0  0  0  0  0  0  0  0  0  0  0  0
   -2.8882    3.5488    1.8865 C   0  0  0  0  0  0  0  0  0  0  0  0
   -1.5003    2.6495    2.0667 S   0  0  0  0  0  0  0  0  0  0  0  0
   -1.9187    1.4822    0.8892 C   0  0  0  0  0  0  0  0  0  0  0  0
   -3.1886    1.8244    0.3447 C   0  0  0  0  0  0  0  0  0  0  0  0
   -3.8395    1.1937   -0.7845 N   0  0  0  0  0  0  0  0  0  0  0  0
   -3.0804    0.6591   -1.8891 C   0  0  0  0  0  0  0  0  0  0  0  0
   -3.4712   -0.5554   -2.4805 C   0  0  0  0  0  0  0  0  0  0  0  0
   -2.6863   -1.1420   -3.4695 C   0  0  0  0  0  0  0  0  0  0  0  0
   -1.5094   -0.5171   -3.8934 C   0  0  0  0  0  0  0  0  0  0  0  0
   -0.4492   -1.3325   -5.0805 S   0  0  0  0  0  0  0  0  0  0  0  0
    0.4714   -2.2122   -3.7835 C   0  0  0  0  0  0  0  0  0  0  0  0
   -1.1366    0.7174   -3.3482 C   0  0  0  0  0  0  0  0  0  0  0  0
   -1.9225    1.3090   -2.3559 C   0  0  0  0  0  0  0  0  0  0  0  0
   -5.2813    1.1729   -0.8549 C   0  0  0  0  0  0  0  0  0  0  0  0
   -6.0444    0.7650    0.2526 C   0  0  0  0  0  0  0  0  0  0  0  0
   -7.4398    0.8084    0.2057 C   0  0  0  0  0  0  0  0  0  0  0  0
   -8.0902    1.2660   -0.9461 C   0  0  0  0  0  0  0  0  0  0  0  0
   -9.8837    1.3876   -0.9815 S   0  0  0  0  0  0  0  0  0  0  0  0
  -10.1046   -0.2794   -1.6685 C   0  0  0  0  0  0  0  0  0  0  0  0
   -7.3367    1.6694   -2.0565 C   0  0  0  0  0  0  0  0  0  0  0  0
   -5.9431    1.6195   -2.0137 C   0  0  0  0  0  0  0  0  0  0  0  0
   -3.6888    2.9779    0.9609 C   0  0  0  0  0  0  0  0  0  0  0  0
   -4.9707    4.0118    0.6628 S   0  0  0  0  0  0  0  0  0  0  0  0
   -1.0125    0.3678    0.5051 C   0  0  0  0  0  0  0  0  0  0  0  0
   -1.5217   -0.9252    0.2615 C   0  0  0  0  0  0  0  0  0  0  0  0
   -2.8422   -1.1882    0.4197 F   0  0  0  0  0  0  0  0  0  0  0  0
   -0.6637   -1.9787   -0.0800 C   0  0  0  0  0  0  0  0  0  0  0  0
   -1.1871   -3.2012   -0.3509 F   0  0  0  0  0  0  0  0  0  0  0  0
    0.7226   -1.7845   -0.0842 C   0  0  0  0  0  0  0  0  0  0  0  0
    1.2445   -0.5057    0.1480 C   0  0  0  0  0  0  0  0  0  0  0  0
    2.5876   -0.2985    0.1461 N   0  0  0  0  0  0  0  0  0  0  0  0
    3.1416    0.9115    0.4105 C   0  0  0  0  0  0  0  0  0  0  0  0
    4.6445    0.9949    0.4493 C   0  0  0  0  0  0  0  0  0  0  0  0
    5.1763    0.3976    1.7464 C   0  0  0  0  0  0  0  0  0  0  0  0
    2.2870    1.9954    0.7158 C   0  0  0  0  0  0  0  0  0  0  0  0
    0.9423    1.7864    0.6934 N   0  0  0  0  0  0  0  0  0  0  0  0
    0.3885    0.5697    0.4371 C   0  0  0  0  0  0  0  0  0  0  0  0
    2.7850    3.3668    1.0882 C   0  0  0  0  0  0  0  0  0  0  0  0
    3.0526    4.2120   -0.1525 C   0  0  0  0  0  0  0  0  0  0  0  0
    1.6360   -2.9299   -0.2187 C   0  0  0  0  0  0  0  0  0  0  0  0
    1.9788   -3.8428    0.8047 C   0  0  0  0  0  0  0  0  0  0  0  0
    1.4777   -3.8245    2.1664 N   0  0  0  0  0  0  0  0  0  0  0  0
    0.1584   -3.3923    2.5207 C   0  0  0  0  0  0  0  0  0  0  0  0
   -0.9248   -4.2768    2.4099 C   0  0  0  0  0  0  0  0  0  0  0  0
   -2.1652   -3.9395    2.9629 C   0  0  0  0  0  0  0  0  0  0  0  0
   -2.3280   -2.7229    3.6352 C   0  0  0  0  0  0  0  0  0  0  0  0
   -3.8669   -2.3681    4.4850 S   0  0  0  0  0  0  0  0  0  0  0  0
   -4.6186   -1.5210    3.0668 C   0  0  0  0  0  0  0  0  0  0  0  0
   -1.2583   -1.8236    3.7176 C   0  0  0  0  0  0  0  0  0  0  0  0
   -0.0170   -2.1592    3.1655 C   0  0  0  0  0  0  0  0  0  0  0  0
    2.2891   -4.3174    3.2430 C   0  0  0  0  0  0  0  0  0  0  0  0
    2.0033   -5.5621    3.8291 C   0  0  0  0  0  0  0  0  0  0  0  0
    2.8457   -6.0901    4.8053 C   0  0  0  0  0  0  0  0  0  0  0  0
    3.9664   -5.3627    5.2361 C   0  0  0  0  0  0  0  0  0  0  0  0
    5.0661   -6.0529    6.4721 S   0  0  0  0  0  0  0  0  0  0  0  0
    4.0882   -5.4095    7.8654 C   0  0  0  0  0  0  0  0  0  0  0  0
    4.2352   -4.1074    4.6788 C   0  0  0  0  0  0  0  0  0  0  0  0
    3.4060   -3.5862    3.6820 C   0  0  0  0  0  0  0  0  0  0  0  0
    3.0382   -4.6522    0.3839 C   0  0  0  0  0  0  0  0  0  0  0  0
    3.9113   -5.8814    1.1059 S   0  0  0  0  0  0  0  0  0  0  0  0
    4.9839   -6.0764   -0.1955 C   0  0  0  0  0  0  0  0  0  0  0  0
    4.6747   -5.1617   -1.2126 C   0  0  0  0  0  0  0  0  0  0  0  0
    5.4792   -4.9604   -2.3948 N   0  0  0  0  0  0  0  0  0  0  0  0
    4.8828   -4.6732   -3.6805 C   0  0  0  0  0  0  0  0  0  0  0  0
    5.5556   -3.8601   -4.6148 C   0  0  0  0  0  0  0  0  0  0  0  0
    4.9995   -3.6069   -5.8702 C   0  0  0  0  0  0  0  0  0  0  0  0
    3.7469   -4.1279   -6.2003 C   0  0  0  0  0  0  0  0  0  0  0  0
    3.0196   -3.7697   -7.8011 S   0  0  0  0  0  0  0  0  0  0  0  0
    2.5099   -2.0824   -7.3384 C   0  0  0  0  0  0  0  0  0  0  0  0
    3.0671   -4.9400   -5.2831 C   0  0  0  0  0  0  0  0  0  0  0  0
    3.6361   -5.2217   -4.0362 C   0  0  0  0  0  0  0  0  0  0  0  0
    6.9127   -4.9560   -2.2602 C   0  0  0  0  0  0  0  0  0  0  0  0
    7.5298   -4.0894   -1.3448 C   0  0  0  0  0  0  0  0  0  0  0  0
    8.9236   -4.0164   -1.2771 C   0  0  0  0  0  0  0  0  0  0  0  0
    9.7105   -4.8188   -2.1129 C   0  0  0  0  0  0  0  0  0  0  0  0
   11.4952   -4.6782   -2.0621 S   0  0  0  0  0  0  0  0  0  0  0  0
   11.5443   -3.3267   -3.2869 C   0  0  0  0  0  0  0  0  0  0  0  0
    9.1002   -5.7091   -3.0036 C   0  0  0  0  0  0  0  0  0  0  0  0
    7.7056   -5.7766   -3.0792 C   0  0  0  0  0  0  0  0  0  0  0  0
    3.5588   -4.3930   -0.8475 C   0  0  0  0  0  0  0  0  0  0  0  0
    2.7285   -3.1098   -1.5227 S   0  0  0  0  0  0  0  0  0  0  0  0
    5.9481   -7.1817   -0.2386 C   0  0  0  0  0  0  0  0  0  0  0  0
    5.5003   -8.4458   -0.1303 C   0  0  0  0  0  0  0  0  0  0  0  0
    4.0928   -8.8281   -0.3085 C   0  0  0  0  0  0  0  0  0  0  0  0
    3.2868   -8.3163   -1.1315 O   0  0  0  0  0  0  0  0  0  0  0  0
    3.7670   -9.8495    0.6575 C   0  0  0  0  0  0  0  0  0  0  0  0
    2.4981  -10.2865    1.0359 C   0  0  0  0  0  0  0  0  0  0  0  0
    2.3811  -11.0955    2.1712 C   0  0  0  0  0  0  0  0  0  0  0  0
    3.5306  -11.4386    2.9258 C   0  0  0  0  0  0  0  0  0  0  0  0
    3.4436  -12.1904    4.1072 O   0  0  0  0  0  0  0  0  0  0  0  0
    2.2169  -12.5921    4.7176 C   0  0  0  0  0  0  0  0  0  0  0  0
    4.7986  -10.9929    2.5074 C   0  0  0  0  0  0  0  0  0  0  0  0
    4.9082  -10.2091    1.3480 C   0  0  0  0  0  0  0  0  0  0  0  0
    6.0754   -9.4687    0.7886 C   0  0  0  0  0  0  0  0  0  0  0  0
    7.3882   -9.7514    0.9602 C   0  0  0  0  0  0  0  0  0  0  0  0
    7.8370  -10.8260    1.8084 C   0  0  0  0  0  0  0  0  0  0  0  0
    8.2033  -11.6908    2.4860 N   0  0  0  0  0  0  0  0  0  0  0  0
    8.4139   -9.0709    0.2128 C   0  0  0  0  0  0  0  0  0  0  0  0
    9.2458   -8.5310   -0.3858 N   0  0  0  0  0  0  0  0  0  0  0  0
   -4.5191    7.1879    2.6537 H   0  0  0  0  0  0  0  0  0  0  0  0
   -7.4342    6.3465   -2.7497 H   0  0  0  0  0  0  0  0  0  0  0  0
   -5.5984   10.8346   -1.1551 H   0  0  0  0  0  0  0  0  0  0  0  0
   -7.0855   11.0309   -4.3422 H   0  0  0  0  0  0  0  0  0  0  0  0
   -4.5957   11.3308   -4.9601 H   0  0  0  0  0  0  0  0  0  0  0  0
   -3.1268    9.4114   -3.8579 H   0  0  0  0  0  0  0  0  0  0  0  0
   -4.0403    7.1137   -4.6510 H   0  0  0  0  0  0  0  0  0  0  0  0
   -6.0959    7.5571   -6.2869 H   0  0  0  0  0  0  0  0  0  0  0  0
   -4.4882    9.5679   -6.9244 H   0  0  0  0  0  0  0  0  0  0  0  0
   -6.1880   10.1990   -6.7782 H   0  0  0  0  0  0  0  0  0  0  0  0
   -7.9186    8.9430   -5.0971 H   0  0  0  0  0  0  0  0  0  0  0  0
   -1.2813    7.5714    4.6377 H   0  0  0  0  0  0  0  0  0  0  0  0
   -0.8543    7.3862    7.0495 H   0  0  0  0  0  0  0  0  0  0  0  0
    0.7992    4.3025    9.6779 H   0  0  0  0  0  0  0  0  0  0  0  0
    0.9471    5.1262    8.0721 H   0  0  0  0  0  0  0  0  0  0  0  0
    0.1737    3.4838    8.1968 H   0  0  0  0  0  0  0  0  0  0  0  0
   -2.5929    3.4536    7.0759 H   0  0  0  0  0  0  0  0  0  0  0  0
   -3.0463    3.6210    4.6800 H   0  0  0  0  0  0  0  0  0  0  0  0
   -2.8049    7.3950    0.9366 H   0  0  0  0  0  0  0  0  0  0  0  0
   -1.1235    8.5128   -0.4418 H   0  0  0  0  0  0  0  0  0  0  0  0
    2.0445    9.7426    1.6800 H   0  0  0  0  0  0  0  0  0  0  0  0
    2.4737   10.7304    0.2299 H   0  0  0  0  0  0  0  0  0  0  0  0
    0.7381   10.4479    0.6338 H   0  0  0  0  0  0  0  0  0  0  0  0
    2.0075    6.6277    1.8265 H   0  0  0  0  0  0  0  0  0  0  0  0
    0.3301    5.4625    3.1950 H   0  0  0  0  0  0  0  0  0  0  0  0
   -4.3536   -1.0745   -2.1375 H   0  0  0  0  0  0  0  0  0  0  0  0
   -2.9716   -2.1013   -3.8873 H   0  0  0  0  0  0  0  0  0  0  0  0
    1.2239   -2.8798   -4.2508 H   0  0  0  0  0  0  0  0  0  0  0  0
    0.9888   -1.4731   -3.1352 H   0  0  0  0  0  0  0  0  0  0  0  0
   -0.2149   -2.8318   -3.1673 H   0  0  0  0  0  0  0  0  0  0  0  0
   -0.2232    1.2041   -3.6751 H   0  0  0  0  0  0  0  0  0  0  0  0
   -1.6125    2.2525   -1.9263 H   0  0  0  0  0  0  0  0  0  0  0  0
   -5.5534    0.4320    1.1569 H   0  0  0  0  0  0  0  0  0  0  0  0
   -8.0161    0.4969    1.0692 H   0  0  0  0  0  0  0  0  0  0  0  0
   -9.6794   -1.0365   -0.9763 H   0  0  0  0  0  0  0  0  0  0  0  0
  -11.1879   -0.4787   -1.7968 H   0  0  0  0  0  0  0  0  0  0  0  0
   -9.6065   -0.3532   -2.6594 H   0  0  0  0  0  0  0  0  0  0  0  0
   -7.8345    2.0331   -2.9466 H   0  0  0  0  0  0  0  0  0  0  0  0
   -5.3757    1.9546   -2.8718 H   0  0  0  0  0  0  0  0  0  0  0  0
    5.0135    2.0328    0.3389 H   0  0  0  0  0  0  0  0  0  0  0  0
    5.0595    0.4137   -0.4018 H   0  0  0  0  0  0  0  0  0  0  0  0
    4.7827    0.9661    2.6159 H   0  0  0  0  0  0  0  0  0  0  0  0
    4.8723   -0.6688    1.8317 H   0  0  0  0  0  0  0  0  0  0  0  0
    6.2853    0.4509    1.7521 H   0  0  0  0  0  0  0  0  0  0  0  0
    3.6962    3.2998    1.7165 H   0  0  0  0  0  0  0  0  0  0  0  0
    2.0153    3.8807    1.7040 H   0  0  0  0  0  0  0  0  0  0  0  0
    2.1190    4.3257   -0.7420 H   0  0  0  0  0  0  0  0  0  0  0  0
    3.4011    5.2209    0.1520 H   0  0  0  0  0  0  0  0  0  0  0  0
    3.8320    3.7411   -0.7874 H   0  0  0  0  0  0  0  0  0  0  0  0
   -0.7950   -5.2416    1.9359 H   0  0  0  0  0  0  0  0  0  0  0  0
   -2.9859   -4.6444    2.9071 H   0  0  0  0  0  0  0  0  0  0  0  0
   -4.6875   -2.2103    2.1993 H   0  0  0  0  0  0  0  0  0  0  0  0
   -4.0167   -0.6283    2.8012 H   0  0  0  0  0  0  0  0  0  0  0  0
   -5.6413   -1.1925    3.3422 H   0  0  0  0  0  0  0  0  0  0  0  0
   -1.3768   -0.8816    4.2429 H   0  0  0  0  0  0  0  0  0  0  0  0
    0.8189   -1.4790    3.2722 H   0  0  0  0  0  0  0  0  0  0  0  0
    1.1527   -6.1394    3.4866 H   0  0  0  0  0  0  0  0  0  0  0  0
    2.6342   -7.0635    5.2269 H   0  0  0  0  0  0  0  0  0  0  0  0
    4.0101   -4.3033    7.8001 H   0  0  0  0  0  0  0  0  0  0  0  0
    3.0716   -5.8594    7.8498 H   0  0  0  0  0  0  0  0  0  0  0  0
    4.5881   -5.6783    8.8204 H   0  0  0  0  0  0  0  0  0  0  0  0
    5.0916   -3.5359    5.0176 H   0  0  0  0  0  0  0  0  0  0  0  0
    3.6320   -2.6224    3.2412 H   0  0  0  0  0  0  0  0  0  0  0  0
    6.5121   -3.4119   -4.3779 H   0  0  0  0  0  0  0  0  0  0  0  0
    5.5382   -2.9885   -6.5784 H   0  0  0  0  0  0  0  0  0  0  0  0
    2.1413   -2.0490   -6.2935 H   0  0  0  0  0  0  0  0  0  0  0  0
    1.6962   -1.7438   -8.0150 H   0  0  0  0  0  0  0  0  0  0  0  0
    3.3752   -1.3937   -7.4405 H   0  0  0  0  0  0  0  0  0  0  0  0
    2.1011   -5.3559   -5.5379 H   0  0  0  0  0  0  0  0  0  0  0  0
    3.1087   -5.8714   -3.3506 H   0  0  0  0  0  0  0  0  0  0  0  0
    6.9309   -3.4440   -0.7142 H   0  0  0  0  0  0  0  0  0  0  0  0
    9.3902   -3.3243   -0.5876 H   0  0  0  0  0  0  0  0  0  0  0  0
   10.8903   -2.4922   -2.9635 H   0  0  0  0  0  0  0  0  0  0  0  0
   12.5828   -2.9580   -3.3707 H   0  0  0  0  0  0  0  0  0  0  0  0
   11.2214   -3.7001   -4.2785 H   0  0  0  0  0  0  0  0  0  0  0  0
    9.7044   -6.3406   -3.6459 H   0  0  0  0  0  0  0  0  0  0  0  0
    7.2410   -6.4563   -3.7829 H   0  0  0  0  0  0  0  0  0  0  0  0
    6.9599   -6.9330    0.0470 H   0  0  0  0  0  0  0  0  0  0  0  0
    1.6136   -9.9637    0.5012 H   0  0  0  0  0  0  0  0  0  0  0  0
    1.3940  -11.4129    2.4765 H   0  0  0  0  0  0  0  0  0  0  0  0
    2.4389  -13.1277    5.6645 H   0  0  0  0  0  0  0  0  0  0  0  0
    1.6574  -13.2737    4.0456 H   0  0  0  0  0  0  0  0  0  0  0  0
    1.6018  -11.6979    4.9573 H   0  0  0  0  0  0  0  0  0  0  0  0
    5.6571  -11.1973    3.1304 H   0  0  0  0  0  0  0  0  0  0  0  0
  1  2  2  3
  2  3  1  0
  3  4  2  0
  3  5  1  0
  5  6  2  0
  6  7  1  0
  7  8  2  0
  8  9  1  0
  9 10  2  0
 10 11  1  0
 11 12  2  3
 12 13  1  0
 13 14  3  0
 12 15  1  0
 15 16  3  0
  8 17  1  0
 17 18  1  0
 18 19  1  0
 19 20  2  0
 20 21  1  0
 21 22  1  0
 21 23  1  0
  1 24  1  0
 24 25  2  0
 25 26  1  0
 26 27  1  0
 27 28  2  0
 28 29  1  0
 29 30  2  0
 30 31  1  0
 31 32  1  0
 30 33  1  0
 33 34  2  0
 26 35  1  0
 35 36  2  0
 36 37  1  0
 37 38  2  0
 38 39  1  0
 39 40  1  0
 38 41  1  0
 41 42  2  0
 25 43  1  0
 43 44  1  0
 44 45  1  0
 45 46  2  0
 46 47  1  0
 47 48  1  0
 48 49  2  0
 49 50  1  0
 50 51  2  0
 51 52  1  0
 52 53  1  0
 51 54  1  0
 54 55  2  0
 47 56  1  0
 56 57  2  0
 57 58  1  0
 58 59  2  0
 59 60  1  0
 60 61  1  0
 59 62  1  0
 62 63  2  0
 46 64  1  0
 64 65  1  0
 45 66  1  0
 66 67  2  0
 67 68  1  0
 67 69  1  0
 69 70  1  0
 69 71  2  0
 71 72  1  0
 72 73  2  0
 73 74  1  0
 74 75  1  0
 75 76  1  0
 74 77  2  0
 77 78  1  0
 78 79  2  0
 77 80  1  0
 80 81  1  0
 71 82  1  0
 82 83  2  0
 83 84  1  0
 84 85  1  0
 85 86  2  0
 86 87  1  0
 87 88  2  0
 88 89  1  0
 89 90  1  0
 88 91  1  0
 91 92  2  0
 84 93  1  0
 93 94  2  0
 94 95  1  0
 95 96  2  0
 96 97  1  0
 97 98  1  0
 96 99  1  0
 99100  2  0
 83101  1  0
101102  1  0
102103  1  0
103104  2  0
104105  1  0
105106  1  0
106107  2  0
107108  1  0
108109  2  0
109110  1  0
110111  1  0
109112  1  0
112113  2  0
105114  1  0
114115  2  0
115116  1  0
116117  2  0
117118  1  0
118119  1  0
117120  1  0
120121  2  0
104122  1  0
122123  1  0
103124  1  0
124125  2  3
125126  1  0
126127  2  0
126128  1  0
128129  2  0
129130  1  0
130131  2  0
131132  1  0
132133  1  0
131134  1  0
134135  2  0
135136  1  0
136137  2  3
137138  1  0
138139  3  0
137140  1  0
140141  3  0
 11  2  1  0
 23 17  1  0
 65 24  1  0
 79 66  1  0
123 82  1  0
136125  1  0
 10  5  1  0
 22 18  1  0
 34 27  1  0
 42 35  1  0
 64 43  2  0
 79 72  1  0
 92 85  1  0
100 93  1  0
122101  2  0
135128  1  0
 23  7  1  0
 55 48  1  0
 63 56  1  0
113106  1  0
121114  1  0
  1142  1  0
  6143  1  0
  9144  1  0
 17145  1  0
 18146  1  0
 19147  1  0
 20148  1  0
 21149  1  0
 22150  1  0
 22151  1  0
 23152  1  0
 28153  1  0
 29154  1  0
 32155  1  0
 32156  1  0
 32157  1  0
 33158  1  0
 34159  1  0
 36160  1  0
 37161  1  0
 40162  1  0
 40163  1  0
 40164  1  0
 41165  1  0
 42166  1  0
 49167  1  0
 50168  1  0
 53169  1  0
 53170  1  0
 53171  1  0
 54172  1  0
 55173  1  0
 57174  1  0
 58175  1  0
 61176  1  0
 61177  1  0
 61178  1  0
 62179  1  0
 63180  1  0
 75181  1  0
 75182  1  0
 76183  1  0
 76184  1  0
 76185  1  0
 80186  1  0
 80187  1  0
 81188  1  0
 81189  1  0
 81190  1  0
 86191  1  0
 87192  1  0
 90193  1  0
 90194  1  0
 90195  1  0
 91196  1  0
 92197  1  0
 94198  1  0
 95199  1  0
 98200  1  0
 98201  1  0
 98202  1  0
 99203  1  0
100204  1  0
107205  1  0
108206  1  0
111207  1  0
111208  1  0
111209  1  0
112210  1  0
113211  1  0
115212  1  0
116213  1  0
119214  1  0
119215  1  0
119216  1  0
120217  1  0
121218  1  0
124219  1  0
129220  1  0
130221  1  0
133222  1  0
133223  1  0
133224  1  0
134225  1  0
M  END

