
     RDKit          3D

193213  0  0  0  0  0  0  0  0999 V2000
    4.5822   -2.3982   -5.1599 C   0  0  0  0  0  0  0  0  0  0  0  0
    4.4051   -1.5323   -6.1732 C   0  0  0  0  0  0  0  0  0  0  0  0
    4.5926   -0.0747   -6.1085 C   0  0  0  0  0  0  0  0  0  0  0  0
    4.6690    0.6294   -5.0648 O   0  0  0  0  0  0  0  0  0  0  0  0
    4.7107    0.4338   -7.4603 C   0  0  0  0  0  0  0  0  0  0  0  0
    5.0665    1.7446   -7.8485 C   0  0  0  0  0  0  0  0  0  0  0  0
    5.1971    1.9082   -9.2145 C   0  0  0  0  0  0  0  0  0  0  0  0
    4.9914    0.8455  -10.1533 C   0  0  0  0  0  0  0  0  0  0  0  0
    4.6549   -0.4464   -9.7770 C   0  0  0  0  0  0  0  0  0  0  0  0
    4.5015   -0.6306   -8.3749 C   0  0  0  0  0  0  0  0  0  0  0  0
    4.1800   -1.8704   -7.6130 C   0  0  0  0  0  0  0  0  0  0  0  0
    3.5168   -2.9573   -8.0887 C   0  0  0  0  0  0  0  0  0  0  0  0
    2.9729   -3.9684   -7.2179 C   0  0  0  0  0  0  0  0  0  0  0  0
    2.5129   -4.7757   -6.5282 N   0  0  0  0  0  0  0  0  0  0  0  0
    3.1333   -3.0938   -9.4654 C   0  0  0  0  0  0  0  0  0  0  0  0
    2.8136   -3.2129  -10.5735 N   0  0  0  0  0  0  0  0  0  0  0  0
    5.3307    1.7615  -11.2887 C   0  0  0  0  0  0  0  0  0  0  0  0
    6.7279    1.5586  -11.9440 C   0  0  0  0  0  0  0  0  0  0  0  0
    6.9964    2.8058  -12.7510 C   0  0  0  0  0  0  0  0  0  0  0  0
    7.2035    3.7923  -11.8697 C   0  0  0  0  0  0  0  0  0  0  0  0
    7.0677    3.1757  -10.4978 C   0  0  0  0  0  0  0  0  0  0  0  0
    7.6867    1.8179  -10.7912 C   0  0  0  0  0  0  0  0  0  0  0  0
    5.5543    2.8465  -10.3265 C   0  0  0  0  0  0  0  0  0  0  0  0
    4.5616   -1.9858   -3.7432 C   0  0  0  0  0  0  0  0  0  0  0  0
    5.6340   -1.3155   -3.1272 C   0  0  0  0  0  0  0  0  0  0  0  0
    5.5263   -0.8129   -1.8031 C   0  0  0  0  0  0  0  0  0  0  0  0
    6.6770   -0.0969   -1.3363 N   0  0  0  0  0  0  0  0  0  0  0  0
    7.6249   -0.2140   -2.6174 S   0  0  0  0  0  4  0  0  0  0  0  0
    6.8816   -1.0331   -3.7712 N   0  0  0  0  0  0  0  0  0  0  0  0
    4.3589   -1.0011   -1.0530 C   0  0  0  0  0  0  0  0  0  0  0  0
    3.3126   -1.7385   -1.6355 C   0  0  0  0  0  0  0  0  0  0  0  0
    2.1354   -1.9733   -1.0011 N   0  0  0  0  0  0  0  0  0  0  0  0
    1.3066   -2.7982   -2.1644 S   0  0  0  0  0  0  0  0  0  0  0  0
    2.3272   -2.8903   -3.4602 N   0  0  0  0  0  0  0  0  0  0  0  0
    3.4142   -2.2344   -2.9733 C   0  0  0  0  0  0  0  0  0  0  0  0
    4.1233   -0.3022    0.2165 C   0  0  0  0  0  0  0  0  0  0  0  0
    4.1090   -0.9600    1.4598 C   0  0  0  0  0  0  0  0  0  0  0  0
    5.0469   -1.9780    1.8323 N   0  0  0  0  0  0  0  0  0  0  0  0
    4.6131   -3.2671    2.3251 C   0  0  0  0  0  0  0  0  0  0  0  0
    5.3966   -3.9857    3.2526 C   0  0  0  0  0  0  0  0  0  0  0  0
    4.9751   -5.2321    3.7244 C   0  0  0  0  0  0  0  0  0  0  0  0
    3.7696   -5.7809    3.2822 C   0  0  0  0  0  0  0  0  0  0  0  0
    3.2378   -7.3863    3.8823 S   0  0  0  0  0  0  0  0  0  0  0  0
    2.3479   -6.6893    5.3087 C   0  0  0  0  0  0  0  0  0  0  0  0
    2.9837   -5.0793    2.3618 C   0  0  0  0  0  0  0  0  0  0  0  0
    3.3997   -3.8298    1.8860 C   0  0  0  0  0  0  0  0  0  0  0  0
    6.4223   -1.5749    1.9208 C   0  0  0  0  0  0  0  0  0  0  0  0
    7.4057   -2.2362    1.1706 C   0  0  0  0  0  0  0  0  0  0  0  0
    8.7412   -1.8144    1.2370 C   0  0  0  0  0  0  0  0  0  0  0  0
    9.0982   -0.7390    2.0588 C   0  0  0  0  0  0  0  0  0  0  0  0
   10.7993   -0.1708    2.1081 S   0  0  0  0  0  0  0  0  0  0  0  0
   10.6034    0.9283    0.6736 C   0  0  0  0  0  0  0  0  0  0  0  0
    8.1244   -0.0967    2.8304 C   0  0  0  0  0  0  0  0  0  0  0  0
    6.7909   -0.5148    2.7616 C   0  0  0  0  0  0  0  0  0  0  0  0
    3.1944   -0.3808    2.3372 C   0  0  0  0  0  0  0  0  0  0  0  0
    2.4597   -0.8820    3.7582 S   0  0  0  0  0  0  0  0  0  0  0  0
    1.2624    0.3417    3.7461 C   0  0  0  0  0  0  0  0  0  0  0  0
    1.4458    1.1245    2.5866 C   0  0  0  0  0  0  0  0  0  0  0  0
    0.5786    2.1816    2.1340 N   0  0  0  0  0  0  0  0  0  0  0  0
    0.7524    3.5124    2.6882 C   0  0  0  0  0  0  0  0  0  0  0  0
    1.9593    3.8825    3.3188 C   0  0  0  0  0  0  0  0  0  0  0  0
    2.1560    5.1896    3.7656 C   0  0  0  0  0  0  0  0  0  0  0  0
    1.1589    6.1514    3.5873 C   0  0  0  0  0  0  0  0  0  0  0  0
    1.4290    7.8308    4.1589 S   0  0  0  0  0  0  0  0  0  0  0  0
    2.2099    8.3621    2.6060 C   0  0  0  0  0  0  0  0  0  0  0  0
   -0.0541    5.7935    2.9916 C   0  0  0  0  0  0  0  0  0  0  0  0
   -0.2616    4.4817    2.5604 C   0  0  0  0  0  0  0  0  0  0  0  0
   -0.1629    1.9819    0.9033 C   0  0  0  0  0  0  0  0  0  0  0  0
   -0.1245    2.9361   -0.1334 C   0  0  0  0  0  0  0  0  0  0  0  0
   -0.8627    2.7392   -1.3079 C   0  0  0  0  0  0  0  0  0  0  0  0
   -1.6277    1.5842   -1.4720 C   0  0  0  0  0  0  0  0  0  0  0  0
   -2.6131    1.3561   -2.9512 S   0  0  0  0  0  0  0  0  0  0  0  0
   -4.1142    2.0611   -2.2003 C   0  0  0  0  0  0  0  0  0  0  0  0
   -1.6213    0.6033   -0.4757 C   0  0  0  0  0  0  0  0  0  0  0  0
   -0.9006    0.8034    0.7040 C   0  0  0  0  0  0  0  0  0  0  0  0
    2.5286    0.6849    1.8387 C   0  0  0  0  0  0  0  0  0  0  0  0
    3.0080    0.9847    0.2645 S   0  0  0  0  0  0  0  0  0  0  0  0
   -0.0542    0.1390    4.3674 C   0  0  0  0  0  0  0  0  0  0  0  0
   -0.8854    1.1775    4.7955 C   0  0  0  0  0  0  0  0  0  0  0  0
   -2.2568    0.9120    4.5975 C   0  0  0  0  0  0  0  0  0  0  0  0
   -3.3389    1.8178    4.7445 C   0  0  0  0  0  0  0  0  0  0  0  0
   -3.3323    2.9676    5.6894 C   0  0  0  0  0  0  0  0  0  0  0  0
   -4.3357    3.0376    6.6678 C   0  0  0  0  0  0  0  0  0  0  0  0
   -4.4142    4.1239    7.5323 C   0  0  0  0  0  0  0  0  0  0  0  0
   -3.4651    5.1569    7.4694 C   0  0  0  0  0  0  0  0  0  0  0  0
   -3.5676    6.3019    8.2803 O   0  0  0  0  0  0  0  0  0  0  0  0
   -4.7037    6.6778    9.0589 C   0  0  0  0  0  0  0  0  0  0  0  0
   -5.8623    7.1065    8.1619 C   0  0  0  0  0  0  0  0  0  0  0  0
   -2.3769    5.0381    6.5728 C   0  0  0  0  0  0  0  0  0  0  0  0
   -1.2702    6.0655    6.5410 C   0  0  0  0  0  0  0  0  0  0  0  0
   -0.0801    5.4657    6.1679 F   0  0  0  0  0  0  0  0  0  0  0  0
   -1.0712    6.6319    7.7895 F   0  0  0  0  0  0  0  0  0  0  0  0
   -1.5889    7.0613    5.6346 F   0  0  0  0  0  0  0  0  0  0  0  0
   -2.3681    3.9848    5.6356 C   0  0  0  0  0  0  0  0  0  0  0  0
   -4.5282    1.4776    4.0666 C   0  0  0  0  0  0  0  0  0  0  0  0
   -4.6994    0.2676    3.3949 C   0  0  0  0  0  0  0  0  0  0  0  0
   -3.6910   -0.7145    3.4349 C   0  0  0  0  0  0  0  0  0  0  0  0
   -3.8341   -2.0308    2.7726 C   0  0  0  0  0  0  0  0  0  0  0  0
   -3.8376   -3.1986    3.5435 C   0  0  0  0  0  0  0  0  0  0  0  0
   -3.9367   -4.4466    2.9273 C   0  0  0  0  0  0  0  0  0  0  0  0
   -4.0214   -4.5503    1.5249 C   0  0  0  0  0  0  0  0  0  0  0  0
   -4.1251   -5.7954    0.8760 O   0  0  0  0  0  0  0  0  0  0  0  0
   -4.0570   -7.0754    1.5056 C   0  0  0  0  0  0  0  0  0  0  0  0
   -2.6192   -7.4313    1.8609 C   0  0  0  0  0  0  0  0  0  0  0  0
   -4.0163   -3.3727    0.7446 C   0  0  0  0  0  0  0  0  0  0  0  0
   -3.9263   -2.1208    1.3790 C   0  0  0  0  0  0  0  0  0  0  0  0
   -4.0940   -3.4691   -0.7647 C   0  0  0  0  0  0  0  0  0  0  0  0
   -5.2649   -4.1098   -1.1270 F   0  0  0  0  0  0  0  0  0  0  0  0
   -4.0753   -2.2215   -1.3630 F   0  0  0  0  0  0  0  0  0  0  0  0
   -3.0138   -4.1953   -1.2370 F   0  0  0  0  0  0  0  0  0  0  0  0
   -2.4765   -0.3493    4.0318 C   0  0  0  0  0  0  0  0  0  0  0  0
   -1.0139   -1.1462    3.8585 S   0  0  0  0  0  0  0  0  0  0  0  0
   -5.8895    0.2036    2.6504 C   0  0  0  0  0  0  0  0  0  0  0  0
   -6.6559    1.3650    2.7435 C   0  0  0  0  0  0  0  0  0  0  0  0
   -5.8460    2.4698    3.7312 S   0  0  0  0  0  0  0  0  0  0  0  0
   -7.7327    1.7669    1.8196 C   0  0  0  0  0  0  0  0  0  0  0  0
   -8.6128    0.9358    1.2278 C   0  0  0  0  0  0  0  0  0  0  0  0
   -9.0120   -0.4011    1.6825 C   0  0  0  0  0  0  0  0  0  0  0  0
   -8.4897   -1.0535    2.6219 O   0  0  0  0  0  0  0  0  0  0  0  0
  -10.2381   -0.7697    0.9865 C   0  0  0  0  0  0  0  0  0  0  0  0
  -11.0460   -1.8989    1.1665 C   0  0  0  0  0  0  0  0  0  0  0  0
  -10.5204   -3.2272    2.2034 Cl  0  0  0  0  0  0  0  0  0  0  0  0
  -12.2918   -1.9451    0.5083 C   0  0  0  0  0  0  0  0  0  0  0  0
  -13.3166   -3.3748    0.6647 Cl  0  0  0  0  0  0  0  0  0  0  0  0
  -12.7458   -0.8255   -0.2271 C   0  0  0  0  0  0  0  0  0  0  0  0
  -14.3565   -0.8391   -0.9489 Cl  0  0  0  0  0  0  0  0  0  0  0  0
  -11.9296    0.3169   -0.3570 C   0  0  0  0  0  0  0  0  0  0  0  0
  -12.6345    1.8272   -0.9440 Cl  0  0  0  0  0  0  0  0  0  0  0  0
  -10.6189    0.2752    0.1622 C   0  0  0  0  0  0  0  0  0  0  0  0
   -9.5425    1.2998    0.1255 C   0  0  0  0  0  0  0  0  0  0  0  0
   -9.1923    2.0269   -0.9684 C   0  0  0  0  0  0  0  0  0  0  0  0
   -7.9795    2.8086   -1.0183 C   0  0  0  0  0  0  0  0  0  0  0  0
   -7.0046    3.4315   -1.0710 N   0  0  0  0  0  0  0  0  0  0  0  0
   -9.8749    1.8897   -2.2295 C   0  0  0  0  0  0  0  0  0  0  0  0
  -10.4176    1.7744   -3.2453 N   0  0  0  0  0  0  0  0  0  0  0  0
    4.5719   -3.4602   -5.3445 H   0  0  0  0  0  0  0  0  0  0  0  0
    5.2561    2.5412   -7.1396 H   0  0  0  0  0  0  0  0  0  0  0  0
    4.5677   -1.2340  -10.5099 H   0  0  0  0  0  0  0  0  0  0  0  0
    4.4877    1.9336  -11.9935 H   0  0  0  0  0  0  0  0  0  0  0  0
    6.8656    0.5986  -12.4841 H   0  0  0  0  0  0  0  0  0  0  0  0
    7.1167    2.8844  -13.8253 H   0  0  0  0  0  0  0  0  0  0  0  0
    7.5140    4.8053  -12.1082 H   0  0  0  0  0  0  0  0  0  0  0  0
    7.5293    3.7535   -9.6692 H   0  0  0  0  0  0  0  0  0  0  0  0
    7.6055    1.0908   -9.9524 H   0  0  0  0  0  0  0  0  0  0  0  0
    8.7546    1.8764  -11.1047 H   0  0  0  0  0  0  0  0  0  0  0  0
    4.8592    3.7095  -10.4312 H   0  0  0  0  0  0  0  0  0  0  0  0
    6.3309   -3.5809    3.6176 H   0  0  0  0  0  0  0  0  0  0  0  0
    5.5881   -5.7691    4.4317 H   0  0  0  0  0  0  0  0  0  0  0  0
    1.8832   -7.5143    5.8826 H   0  0  0  0  0  0  0  0  0  0  0  0
    3.0505   -6.1406    5.9725 H   0  0  0  0  0  0  0  0  0  0  0  0
    1.5468   -6.0001    4.9650 H   0  0  0  0  0  0  0  0  0  0  0  0
    2.0509   -5.4965    2.0093 H   0  0  0  0  0  0  0  0  0  0  0  0
    2.7794   -3.3108    1.1710 H   0  0  0  0  0  0  0  0  0  0  0  0
    7.1342   -3.0440    0.5095 H   0  0  0  0  0  0  0  0  0  0  0  0
    9.4938   -2.3126    0.6418 H   0  0  0  0  0  0  0  0  0  0  0  0
   11.5813    1.3944    0.4398 H   0  0  0  0  0  0  0  0  0  0  0  0
   10.2597    0.3509   -0.2088 H   0  0  0  0  0  0  0  0  0  0  0  0
    9.8700    1.7274    0.9042 H   0  0  0  0  0  0  0  0  0  0  0  0
    8.3958    0.7294    3.4748 H   0  0  0  0  0  0  0  0  0  0  0  0
    6.0427   -0.0054    3.3589 H   0  0  0  0  0  0  0  0  0  0  0  0
    2.7648    3.1750    3.4497 H   0  0  0  0  0  0  0  0  0  0  0  0
    3.0910    5.4552    4.2453 H   0  0  0  0  0  0  0  0  0  0  0  0
    1.4754    8.3079    1.7752 H   0  0  0  0  0  0  0  0  0  0  0  0
    3.0840    7.7182    2.3736 H   0  0  0  0  0  0  0  0  0  0  0  0
    2.5534    9.4101    2.7159 H   0  0  0  0  0  0  0  0  0  0  0  0
   -0.8407    6.5307    2.8747 H   0  0  0  0  0  0  0  0  0  0  0  0
   -1.2181    4.2232    2.1224 H   0  0  0  0  0  0  0  0  0  0  0  0
    0.4833    3.8306   -0.0420 H   0  0  0  0  0  0  0  0  0  0  0  0
   -0.8327    3.4836   -2.0924 H   0  0  0  0  0  0  0  0  0  0  0  0
   -3.9273    3.1031   -1.8653 H   0  0  0  0  0  0  0  0  0  0  0  0
   -4.9284    2.0683   -2.9547 H   0  0  0  0  0  0  0  0  0  0  0  0
   -4.4315    1.4409   -1.3357 H   0  0  0  0  0  0  0  0  0  0  0  0
   -2.1883   -0.3066   -0.6098 H   0  0  0  0  0  0  0  0  0  0  0  0
   -0.9157    0.0377    1.4536 H   0  0  0  0  0  0  0  0  0  0  0  0
   -0.4810    2.1299    5.0965 H   0  0  0  0  0  0  0  0  0  0  0  0
   -5.0788    2.2520    6.7477 H   0  0  0  0  0  0  0  0  0  0  0  0
   -5.2237    4.1476    8.2494 H   0  0  0  0  0  0  0  0  0  0  0  0
   -4.4169    7.5445    9.6902 H   0  0  0  0  0  0  0  0  0  0  0  0
   -5.0106    5.8565    9.7359 H   0  0  0  0  0  0  0  0  0  0  0  0
   -6.6892    7.5196    8.7838 H   0  0  0  0  0  0  0  0  0  0  0  0
   -6.2556    6.2440    7.5785 H   0  0  0  0  0  0  0  0  0  0  0  0
   -5.5245    7.8953    7.4528 H   0  0  0  0  0  0  0  0  0  0  0  0
   -1.6232    3.9713    4.8584 H   0  0  0  0  0  0  0  0  0  0  0  0
   -3.7559   -3.1389    4.6218 H   0  0  0  0  0  0  0  0  0  0  0  0
   -3.9459   -5.3206    3.5609 H   0  0  0  0  0  0  0  0  0  0  0  0
   -4.4361   -7.8307    0.7897 H   0  0  0  0  0  0  0  0  0  0  0  0
   -4.7111   -7.1153    2.3993 H   0  0  0  0  0  0  0  0  0  0  0  0
   -2.5898   -8.4290    2.3517 H   0  0  0  0  0  0  0  0  0  0  0  0
   -2.1868   -6.6819    2.5573 H   0  0  0  0  0  0  0  0  0  0  0  0
   -1.9995   -7.4687    0.9418 H   0  0  0  0  0  0  0  0  0  0  0  0
   -3.9128   -1.2074    0.7975 H   0  0  0  0  0  0  0  0  0  0  0  0
   -6.1251   -0.6137    1.9815 H   0  0  0  0  0  0  0  0  0  0  0  0
   -7.7563    2.8176    1.5596 H   0  0  0  0  0  0  0  0  0  0  0  0
  1  2  2  3
  2  3  1  0
  3  4  2  0
  3  5  1  0
  5  6  2  0
  6  7  1  0
  7  8  2  0
  8  9  1  0
  9 10  2  0
 10 11  1  0
 11 12  2  3
 12 13  1  0
 13 14  3  0
 12 15  1  0
 15 16  3  0
  8 17  1  0
 17 18  1  0
 18 19  1  0
 19 20  2  0
 20 21  1  0
 21 22  1  0
 21 23  1  0
  1 24  1  0
 24 25  2  0
 25 26  1  0
 26 27  1  0
 27 28  2  0
 28 29  2  0
 26 30  2  0
 30 31  1  0
 31 32  2  0
 32 33  1  0
 33 34  1  0
 34 35  2  0
 30 36  1  0
 36 37  2  0
 37 38  1  0
 38 39  1  0
 39 40  2  0
 40 41  1  0
 41 42  2  0
 42 43  1  0
 43 44  1  0
 42 45  1  0
 45 46  2  0
 38 47  1  0
 47 48  2  0
 48 49  1  0
 49 50  2  0
 50 51  1  0
 51 52  1  0
 50 53  1  0
 53 54  2  0
 37 55  1  0
 55 56  1  0
 56 57  1  0
 57 58  2  0
 58 59  1  0
 59 60  1  0
 60 61  2  0
 61 62  1  0
 62 63  2  0
 63 64  1  0
 64 65  1  0
 63 66  1  0
 66 67  2  0
 59 68  1  0
 68 69  2  0
 69 70  1  0
 70 71  2  0
 71 72  1  0
 72 73  1  0
 71 74  1  0
 74 75  2  0
 58 76  1  0
 76 77  1  0
 57 78  1  0
 78 79  2  0
 79 80  1  0
 80 81  2  0
 81 82  1  0
 82 83  2  0
 83 84  1  0
 84 85  2  0
 85 86  1  0
 86 87  1  0
 87 88  1  0
 85 89  1  0
 89 90  1  0
 90 91  1  0
 90 92  1  0
 90 93  1  0
 89 94  2  0
 81 95  1  0
 95 96  2  0
 96 97  1  0
 97 98  1  0
 98 99  2  0
 99100  1  0
100101  2  0
101102  1  0
102103  1  0
103104  1  0
101105  1  0
105106  2  0
105107  1  0
107108  1  0
107109  1  0
107110  1  0
 97111  2  0
111112  1  0
 96113  1  0
113114  2  0
114115  1  0
114116  1  0
116117  2  3
117118  1  0
118119  2  0
118120  1  0
120121  2  0
121122  1  0
121123  1  0
123124  1  0
123125  2  0
125126  1  0
125127  1  0
127128  1  0
127129  2  0
129130  1  0
130131  2  3
131132  1  0
132133  3  0
131134  1  0
134135  3  0
 11  2  1  0
 23 17  1  0
 35 24  1  0
 77 36  1  0
112 78  1  0
130117  1  0
 10  5  1  0
 22 18  1  0
 29 25  1  0
 35 31  1  0
 46 39  1  0
 54 47  1  0
 76 55  2  0
111 80  1  0
129120  1  0
 23  7  1  0
 67 60  1  0
 75 68  1  0
 94 82  1  0
115 95  1  0
106 98  1  0
  1136  1  0
  6137  1  0
  9138  1  0
 17139  1  0
 18140  1  0
 19141  1  0
 20142  1  0
 21143  1  0
 22144  1  0
 22145  1  0
 23146  1  0
 40147  1  0
 41148  1  0
 44149  1  0
 44150  1  0
 44151  1  0
 45152  1  0
 46153  1  0
 48154  1  0
 49155  1  0
 52156  1  0
 52157  1  0
 52158  1  0
 53159  1  0
 54160  1  0
 61161  1  0
 62162  1  0
 65163  1  0
 65164  1  0
 65165  1  0
 66166  1  0
 67167  1  0
 69168  1  0
 70169  1  0
 73170  1  0
 73171  1  0
 73172  1  0
 74173  1  0
 75174  1  0
 79175  1  0
 83176  1  0
 84177  1  0
 87178  1  0
 87179  1  0
 88180  1  0
 88181  1  0
 88182  1  0
 94183  1  0
 99184  1  0
100185  1  0
103186  1  0
103187  1  0
104188  1  0
104189  1  0
104190  1  0
106191  1  0
113192  1  0
116193  1  0
M  END

