
     RDKit          3D

206225  0  0  0  0  0  0  0  0999 V2000
   -5.2481   -2.4774    2.8288 C   0  0  0  0  0  0  0  0  0  0  0  0
   -6.4494   -2.0693    2.3714 C   0  0  0  0  0  0  0  0  0  0  0  0
   -6.8539   -0.6740    2.2047 C   0  0  0  0  0  0  0  0  0  0  0  0
   -6.4554    0.3016    2.8958 O   0  0  0  0  0  0  0  0  0  0  0  0
   -7.8541   -0.6034    1.1624 C   0  0  0  0  0  0  0  0  0  0  0  0
   -8.3987    0.5661    0.5875 C   0  0  0  0  0  0  0  0  0  0  0  0
   -9.2309    0.3228   -0.4967 C   0  0  0  0  0  0  0  0  0  0  0  0
   -9.4936   -0.9922   -0.9934 C   0  0  0  0  0  0  0  0  0  0  0  0
   -8.9749   -2.1409   -0.4160 C   0  0  0  0  0  0  0  0  0  0  0  0
   -8.1481   -1.9173    0.7183 C   0  0  0  0  0  0  0  0  0  0  0  0
   -7.3948   -2.8954    1.5524 C   0  0  0  0  0  0  0  0  0  0  0  0
   -7.6263   -4.2271    1.6583 C   0  0  0  0  0  0  0  0  0  0  0  0
   -8.6108   -4.9127    0.8582 C   0  0  0  0  0  0  0  0  0  0  0  0
   -9.3892   -5.4810    0.2132 N   0  0  0  0  0  0  0  0  0  0  0  0
   -6.9746   -5.0465    2.6489 C   0  0  0  0  0  0  0  0  0  0  0  0
   -6.4641   -5.7159    3.4452 N   0  0  0  0  0  0  0  0  0  0  0  0
  -10.3471   -0.4235   -2.0942 C   0  0  0  0  0  0  0  0  0  0  0  0
  -11.8906   -0.5787   -1.9764 C   0  0  0  0  0  0  0  0  0  0  0  0
  -12.2940   -0.6298   -0.5199 C   0  0  0  0  0  0  0  0  0  0  0  0
  -12.0582    0.5833   -0.0180 C   0  0  0  0  0  0  0  0  0  0  0  0
  -11.5152    1.4189   -1.1571 C   0  0  0  0  0  0  0  0  0  0  0  0
  -12.3235    0.8358   -2.2980 C   0  0  0  0  0  0  0  0  0  0  0  0
  -10.0987    0.9200   -1.5632 C   0  0  0  0  0  0  0  0  0  0  0  0
   -4.0681   -1.6001    2.9001 C   0  0  0  0  0  0  0  0  0  0  0  0
   -2.8858   -1.9729    3.5663 C   0  0  0  0  0  0  0  0  0  0  0  0
   -2.9071   -2.2439    4.9752 N   0  0  0  0  0  0  0  0  0  0  0  0
   -3.4812   -1.2500    5.8505 C   0  0  0  0  0  0  0  0  0  0  0  0
   -3.2681    0.1195    5.6057 C   0  0  0  0  0  0  0  0  0  0  0  0
   -3.9545    1.0870    6.3270 C   0  0  0  0  0  0  0  0  0  0  0  0
   -4.8578    0.7063    7.3290 C   0  0  0  0  0  0  0  0  0  0  0  0
   -5.8086    1.9507    8.2035 S   0  0  0  0  0  0  0  0  0  0  0  0
   -4.5010    2.3298    9.4137 C   0  0  0  0  0  0  0  0  0  0  0  0
   -5.0434   -0.6541    7.6097 C   0  0  0  0  0  0  0  0  0  0  0  0
   -4.3687   -1.6314    6.8711 C   0  0  0  0  0  0  0  0  0  0  0  0
   -2.1200   -3.3157    5.5173 C   0  0  0  0  0  0  0  0  0  0  0  0
   -0.9998   -3.0261    6.3029 C   0  0  0  0  0  0  0  0  0  0  0  0
   -0.2129   -4.0671    6.8140 C   0  0  0  0  0  0  0  0  0  0  0  0
   -0.5438   -5.3939    6.5303 C   0  0  0  0  0  0  0  0  0  0  0  0
    0.4607   -6.7282    7.1996 S   0  0  0  0  0  0  0  0  0  0  0  0
   -0.6268   -7.0128    8.6289 C   0  0  0  0  0  0  0  0  0  0  0  0
   -1.6606   -5.6867    5.7406 C   0  0  0  0  0  0  0  0  0  0  0  0
   -2.4363   -4.6454    5.2064 C   0  0  0  0  0  0  0  0  0  0  0  0
   -1.7835   -1.3233    3.0021 C   0  0  0  0  0  0  0  0  0  0  0  0
   -0.1383   -1.3375    3.2789 S   0  0  0  0  0  0  0  0  0  0  0  0
    0.1961   -0.0729    2.1900 C   0  0  0  0  0  0  0  0  0  0  0  0
   -1.0067    0.4274    1.6668 C   0  0  0  0  0  0  0  0  0  0  0  0
   -1.1725    1.8000    1.2235 N   0  0  0  0  0  0  0  0  0  0  0  0
   -2.3615    2.1417    0.4713 C   0  0  0  0  0  0  0  0  0  0  0  0
   -2.7315    1.3771   -0.6459 C   0  0  0  0  0  0  0  0  0  0  0  0
   -3.9464    1.6059   -1.2935 C   0  0  0  0  0  0  0  0  0  0  0  0
   -4.8235    2.5862   -0.8210 C   0  0  0  0  0  0  0  0  0  0  0  0
   -6.4263    2.8027   -1.5976 S   0  0  0  0  0  0  0  0  0  0  0  0
   -5.8026    4.0452   -2.7728 C   0  0  0  0  0  0  0  0  0  0  0  0
   -4.4759    3.3394    0.3091 C   0  0  0  0  0  0  0  0  0  0  0  0
   -3.2423    3.1326    0.9387 C   0  0  0  0  0  0  0  0  0  0  0  0
   -0.4022    2.8607    1.8359 C   0  0  0  0  0  0  0  0  0  0  0  0
    0.0258    2.7759    3.1818 C   0  0  0  0  0  0  0  0  0  0  0  0
    0.7076    3.8365    3.7859 C   0  0  0  0  0  0  0  0  0  0  0  0
    0.9274    5.0300    3.0864 C   0  0  0  0  0  0  0  0  0  0  0  0
    1.7460    6.4094    3.8858 S   0  0  0  0  0  0  0  0  0  0  0  0
    0.3269    6.8151    4.9632 C   0  0  0  0  0  0  0  0  0  0  0  0
    0.4893    5.1416    1.7597 C   0  0  0  0  0  0  0  0  0  0  0  0
   -0.1439    4.0628    1.1337 C   0  0  0  0  0  0  0  0  0  0  0  0
   -2.0781   -0.3679    2.0827 C   0  0  0  0  0  0  0  0  0  0  0  0
   -3.7154   -0.3913    1.7711 S   0  0  0  0  0  0  0  0  0  0  0  0
    1.4749   -0.0142    1.4866 C   0  0  0  0  0  0  0  0  0  0  0  0
    1.7706   -0.8069    0.3652 C   0  0  0  0  0  0  0  0  0  0  0  0
    0.8594   -0.9593   -0.7494 N   0  0  0  0  0  0  0  0  0  0  0  0
    0.5402    0.1910   -1.5939 C   0  0  0  0  0  0  0  0  0  0  0  0
   -0.3456    0.0591   -2.6881 C   0  0  0  0  0  0  0  0  0  0  0  0
   -0.7545    1.1749   -3.4182 C   0  0  0  0  0  0  0  0  0  0  0  0
   -0.2772    2.4535   -3.0860 C   0  0  0  0  0  0  0  0  0  0  0  0
   -0.9248    3.9035   -3.9266 S   0  0  0  0  0  0  0  0  0  0  0  0
    0.4964    4.0612   -5.0564 C   0  0  0  0  0  0  0  0  0  0  0  0
    0.6559    2.5955   -2.0625 C   0  0  0  0  0  0  0  0  0  0  0  0
    1.0718    1.4792   -1.3324 C   0  0  0  0  0  0  0  0  0  0  0  0
    0.6406   -2.2914   -1.2463 C   0  0  0  0  0  0  0  0  0  0  0  0
    1.2774   -2.7056   -2.4331 C   0  0  0  0  0  0  0  0  0  0  0  0
    1.0019   -3.9566   -2.9778 C   0  0  0  0  0  0  0  0  0  0  0  0
    0.0569   -4.7904   -2.3739 C   0  0  0  0  0  0  0  0  0  0  0  0
   -0.3292   -6.3784   -3.1157 S   0  0  0  0  0  0  0  0  0  0  0  0
    0.9650   -7.2655   -2.1948 C   0  0  0  0  0  0  0  0  0  0  0  0
   -0.6297   -4.3595   -1.2353 C   0  0  0  0  0  0  0  0  0  0  0  0
   -0.3342   -3.1100   -0.6680 C   0  0  0  0  0  0  0  0  0  0  0  0
    3.1390   -0.8474    0.1557 C   0  0  0  0  0  0  0  0  0  0  0  0
    4.0105   -1.4269   -1.1412 S   0  0  0  0  0  0  0  0  0  0  0  0
    5.3141   -0.3909   -0.9055 C   0  0  0  0  0  0  0  0  0  0  0  0
    5.0974    0.3878    0.2629 C   0  0  0  0  0  0  0  0  0  0  0  0
    5.9271    1.4742    0.7190 N   0  0  0  0  0  0  0  0  0  0  0  0
    6.4959    1.4116    2.0310 C   0  0  0  0  0  0  0  0  0  0  0  0
    5.9088    2.0941    3.1147 C   0  0  0  0  0  0  0  0  0  0  0  0
    6.4379    1.9556    4.4025 C   0  0  0  0  0  0  0  0  0  0  0  0
    7.5616    1.1505    4.6150 C   0  0  0  0  0  0  0  0  0  0  0  0
    8.1896    0.8985    6.2865 S   0  0  0  0  0  0  0  0  0  0  0  0
    7.1011   -0.5257    6.6078 C   0  0  0  0  0  0  0  0  0  0  0  0
    8.1847    0.5218    3.5311 C   0  0  0  0  0  0  0  0  0  0  0  0
    7.6516    0.6538    2.2464 C   0  0  0  0  0  0  0  0  0  0  0  0
    6.0569    2.6789   -0.0525 C   0  0  0  0  0  0  0  0  0  0  0  0
    5.1564    3.7393    0.1354 C   0  0  0  0  0  0  0  0  0  0  0  0
    5.3300    4.9329   -0.5782 C   0  0  0  0  0  0  0  0  0  0  0  0
    6.3371    5.0393   -1.5333 C   0  0  0  0  0  0  0  0  0  0  0  0
    6.6136    6.6009   -2.3836 S   0  0  0  0  0  0  0  0  0  0  0  0
    7.8720    7.1479   -1.1906 C   0  0  0  0  0  0  0  0  0  0  0  0
    7.2031    3.9620   -1.7560 C   0  0  0  0  0  0  0  0  0  0  0  0
    7.0844    2.8046   -0.9864 C   0  0  0  0  0  0  0  0  0  0  0  0
    3.8808    0.0523    0.8653 C   0  0  0  0  0  0  0  0  0  0  0  0
    2.8971    0.7735    2.0296 S   0  0  0  0  0  0  0  0  0  0  0  0
    6.0745   -0.0133   -2.0944 C   0  0  0  0  0  0  0  0  0  0  0  0
    7.4112   -0.2983   -2.3396 C   0  0  0  0  0  0  0  0  0  0  0  0
    7.7358   -0.2485   -3.7076 C   0  0  0  0  0  0  0  0  0  0  0  0
    9.0209   -0.4715   -4.2249 O   0  0  0  0  0  0  0  0  0  0  0  0
   10.2120   -0.4566   -3.4374 C   0  0  0  0  0  0  0  0  0  0  0  0
    6.6440    0.0093   -4.5522 C   0  0  0  0  0  0  0  0  0  0  0  0
    5.3133    0.2577   -3.5655 S   0  0  0  0  0  0  0  0  0  0  0  0
    6.6982   -0.1060   -6.0304 C   0  0  0  0  0  0  0  0  0  0  0  0
    5.6759   -0.1749   -6.9157 C   0  0  0  0  0  0  0  0  0  0  0  0
    4.2112   -0.0593   -6.7011 C   0  0  0  0  0  0  0  0  0  0  0  0
    3.5725   -0.5790   -5.7513 O   0  0  0  0  0  0  0  0  0  0  0  0
    3.6044    0.3783   -7.9514 C   0  0  0  0  0  0  0  0  0  0  0  0
    4.5858    0.3993   -8.9237 C   0  0  0  0  0  0  0  0  0  0  0  0
    4.3287    0.9396  -10.1794 C   0  0  0  0  0  0  0  0  0  0  0  0
    3.0144    1.3013  -10.5044 C   0  0  0  0  0  0  0  0  0  0  0  0
    1.9794    1.1412   -9.5646 C   0  0  0  0  0  0  0  0  0  0  0  0
    0.2056    1.6405  -10.0798 Br  0  0  0  0  0  0  0  0  0  0  0  0
    2.2725    0.6985   -8.2549 C   0  0  0  0  0  0  0  0  0  0  0  0
    1.0182    0.5661   -7.0313 Cl  0  0  0  0  0  0  0  0  0  0  0  0
    5.8610   -0.1025   -8.3831 C   0  0  0  0  0  0  0  0  0  0  0  0
    6.7336   -0.8684   -9.0950 C   0  0  0  0  0  0  0  0  0  0  0  0
    7.7667   -1.6516   -8.4615 C   0  0  0  0  0  0  0  0  0  0  0  0
    8.5761   -2.2900   -7.9284 N   0  0  0  0  0  0  0  0  0  0  0  0
    6.4512   -1.2294  -10.4681 C   0  0  0  0  0  0  0  0  0  0  0  0
    6.1968   -1.5486  -11.5541 N   0  0  0  0  0  0  0  0  0  0  0  0
   -5.0305   -3.5414    2.9050 H   0  0  0  0  0  0  0  0  0  0  0  0
   -8.1685    1.5659    0.9334 H   0  0  0  0  0  0  0  0  0  0  0  0
   -9.1847   -3.1047   -0.8518 H   0  0  0  0  0  0  0  0  0  0  0  0
   -9.9319   -0.5799   -3.1096 H   0  0  0  0  0  0  0  0  0  0  0  0
  -12.3315   -1.3787   -2.6098 H   0  0  0  0  0  0  0  0  0  0  0  0
  -12.7598   -1.4562    0.0027 H   0  0  0  0  0  0  0  0  0  0  0  0
  -12.3132    0.9142    0.9782 H   0  0  0  0  0  0  0  0  0  0  0  0
  -11.6104    2.5174   -1.0159 H   0  0  0  0  0  0  0  0  0  0  0  0
  -13.4195    0.9918   -2.1915 H   0  0  0  0  0  0  0  0  0  0  0  0
  -11.9991    1.1886   -3.3080 H   0  0  0  0  0  0  0  0  0  0  0  0
   -9.5460    1.5840   -2.2636 H   0  0  0  0  0  0  0  0  0  0  0  0
   -2.5692    0.4477    4.8447 H   0  0  0  0  0  0  0  0  0  0  0  0
   -3.7731    2.1370    6.1171 H   0  0  0  0  0  0  0  0  0  0  0  0
   -4.9655    2.8080   10.2988 H   0  0  0  0  0  0  0  0  0  0  0  0
   -3.7736    3.0360    8.9543 H   0  0  0  0  0  0  0  0  0  0  0  0
   -3.9665    1.4070    9.7412 H   0  0  0  0  0  0  0  0  0  0  0  0
   -5.7458   -0.9533    8.3785 H   0  0  0  0  0  0  0  0  0  0  0  0
   -4.5454   -2.6763    7.0755 H   0  0  0  0  0  0  0  0  0  0  0  0
   -0.7312   -2.0002    6.5265 H   0  0  0  0  0  0  0  0  0  0  0  0
    0.6551   -3.8265    7.4084 H   0  0  0  0  0  0  0  0  0  0  0  0
   -1.5837   -7.4663    8.2877 H   0  0  0  0  0  0  0  0  0  0  0  0
   -0.1262   -7.7168    9.3276 H   0  0  0  0  0  0  0  0  0  0  0  0
   -0.8343   -6.0623    9.1642 H   0  0  0  0  0  0  0  0  0  0  0  0
   -1.9352   -6.7111    5.5362 H   0  0  0  0  0  0  0  0  0  0  0  0
   -3.3088   -4.8759    4.6108 H   0  0  0  0  0  0  0  0  0  0  0  0
   -2.1327    0.5439   -0.9484 H   0  0  0  0  0  0  0  0  0  0  0  0
   -4.2248    0.9832   -2.1372 H   0  0  0  0  0  0  0  0  0  0  0  0
   -5.0176    3.6043   -3.4267 H   0  0  0  0  0  0  0  0  0  0  0  0
   -5.3805    4.9088   -2.2131 H   0  0  0  0  0  0  0  0  0  0  0  0
   -6.6417    4.4084   -3.3993 H   0  0  0  0  0  0  0  0  0  0  0  0
   -5.1572    4.0832    0.6971 H   0  0  0  0  0  0  0  0  0  0  0  0
   -3.0072    3.7017    1.8267 H   0  0  0  0  0  0  0  0  0  0  0  0
   -0.1912    1.9036    3.7797 H   0  0  0  0  0  0  0  0  0  0  0  0
    1.0318    3.7384    4.8130 H   0  0  0  0  0  0  0  0  0  0  0  0
    0.3328    6.1175    5.8324 H   0  0  0  0  0  0  0  0  0  0  0  0
   -0.6387    6.7244    4.4148 H   0  0  0  0  0  0  0  0  0  0  0  0
    0.4354    7.8583    5.3333 H   0  0  0  0  0  0  0  0  0  0  0  0
    0.6726    6.0486    1.2040 H   0  0  0  0  0  0  0  0  0  0  0  0
   -0.4608    4.1686    0.1073 H   0  0  0  0  0  0  0  0  0  0  0  0
   -0.7908   -0.8995   -2.9356 H   0  0  0  0  0  0  0  0  0  0  0  0
   -1.4781    1.0506   -4.2122 H   0  0  0  0  0  0  0  0  0  0  0  0
    0.4085    5.0113   -5.6302 H   0  0  0  0  0  0  0  0  0  0  0  0
    1.4468    4.0896   -4.4815 H   0  0  0  0  0  0  0  0  0  0  0  0
    0.5116    3.2113   -5.7734 H   0  0  0  0  0  0  0  0  0  0  0  0
    1.0456    3.5743   -1.8126 H   0  0  0  0  0  0  0  0  0  0  0  0
    1.8006    1.6445   -0.5579 H   0  0  0  0  0  0  0  0  0  0  0  0
    1.9653   -2.0486   -2.9543 H   0  0  0  0  0  0  0  0  0  0  0  0
    1.5114   -4.2716   -3.8760 H   0  0  0  0  0  0  0  0  0  0  0  0
    0.6943   -7.3054   -1.1207 H   0  0  0  0  0  0  0  0  0  0  0  0
    1.0446   -8.2996   -2.5841 H   0  0  0  0  0  0  0  0  0  0  0  0
    1.9476   -6.7619   -2.3197 H   0  0  0  0  0  0  0  0  0  0  0  0
   -1.3972   -4.9753   -0.8011 H   0  0  0  0  0  0  0  0  0  0  0  0
   -0.9008   -2.7635    0.1821 H   0  0  0  0  0  0  0  0  0  0  0  0
    5.0228    2.6912    2.9699 H   0  0  0  0  0  0  0  0  0  0  0  0
    5.9581    2.4516    5.2408 H   0  0  0  0  0  0  0  0  0  0  0  0
    7.0982   -1.2228    5.7364 H   0  0  0  0  0  0  0  0  0  0  0  0
    7.4692   -1.0663    7.5055 H   0  0  0  0  0  0  0  0  0  0  0  0
    6.0717   -0.1538    6.7960 H   0  0  0  0  0  0  0  0  0  0  0  0
    9.0713   -0.0754    3.6885 H   0  0  0  0  0  0  0  0  0  0  0  0
    8.1318    0.1450    1.4176 H   0  0  0  0  0  0  0  0  0  0  0  0
    4.3391    3.6536    0.8402 H   0  0  0  0  0  0  0  0  0  0  0  0
    4.6653    5.7739   -0.3903 H   0  0  0  0  0  0  0  0  0  0  0  0
    8.2359    8.1538   -1.4831 H   0  0  0  0  0  0  0  0  0  0  0  0
    7.4435    7.2032   -0.1667 H   0  0  0  0  0  0  0  0  0  0  0  0
    8.7291    6.4451   -1.1974 H   0  0  0  0  0  0  0  0  0  0  0  0
    7.9796    4.0358   -2.4995 H   0  0  0  0  0  0  0  0  0  0  0  0
    7.8266    2.0198   -1.0993 H   0  0  0  0  0  0  0  0  0  0  0  0
    8.1020   -0.5695   -1.5497 H   0  0  0  0  0  0  0  0  0  0  0  0
   10.1381   -1.1332   -2.5630 H   0  0  0  0  0  0  0  0  0  0  0  0
   10.4196    0.5832   -3.1027 H   0  0  0  0  0  0  0  0  0  0  0  0
   11.0688   -0.7992   -4.0518 H   0  0  0  0  0  0  0  0  0  0  0  0
    7.7058   -0.0815   -6.4397 H   0  0  0  0  0  0  0  0  0  0  0  0
    5.1079    1.0593  -10.9206 H   0  0  0  0  0  0  0  0  0  0  0  0
    2.7947    1.7014  -11.4797 H   0  0  0  0  0  0  0  0  0  0  0  0
  1  2  2  3
  2  3  1  0
  3  4  2  0
  3  5  1  0
  5  6  2  0
  6  7  1  0
  7  8  2  0
  8  9  1  0
  9 10  2  0
 10 11  1  0
 11 12  2  3
 12 13  1  0
 13 14  3  0
 12 15  1  0
 15 16  3  0
  8 17  1  0
 17 18  1  0
 18 19  1  0
 19 20  2  0
 20 21  1  0
 21 22  1  0
 21 23  1  0
  1 24  1  0
 24 25  2  0
 25 26  1  0
 26 27  1  0
 27 28  2  0
 28 29  1  0
 29 30  2  0
 30 31  1  0
 31 32  1  0
 30 33  1  0
 33 34  2  0
 26 35  1  0
 35 36  2  0
 36 37  1  0
 37 38  2  0
 38 39  1  0
 39 40  1  0
 38 41  1  0
 41 42  2  0
 25 43  1  0
 43 44  1  0
 44 45  1  0
 45 46  2  0
 46 47  1  0
 47 48  1  0
 48 49  2  0
 49 50  1  0
 50 51  2  0
 51 52  1  0
 52 53  1  0
 51 54  1  0
 54 55  2  0
 47 56  1  0
 56 57  2  0
 57 58  1  0
 58 59  2  0
 59 60  1  0
 60 61  1  0
 59 62  1  0
 62 63  2  0
 46 64  1  0
 64 65  1  0
 45 66  1  0
 66 67  2  0
 67 68  1  0
 68 69  1  0
 69 70  2  0
 70 71  1  0
 71 72  2  0
 72 73  1  0
 73 74  1  0
 72 75  1  0
 75 76  2  0
 68 77  1  0
 77 78  2  0
 78 79  1  0
 79 80  2  0
 80 81  1  0
 81 82  1  0
 80 83  1  0
 83 84  2  0
 67 85  1  0
 85 86  1  0
 86 87  1  0
 87 88  2  0
 88 89  1  0
 89 90  1  0
 90 91  2  0
 91 92  1  0
 92 93  2  0
 93 94  1  0
 94 95  1  0
 93 96  1  0
 96 97  2  0
 89 98  1  0
 98 99  2  0
 99100  1  0
100101  2  0
101102  1  0
102103  1  0
101104  1  0
104105  2  0
 88106  1  0
106107  1  0
 87108  1  0
108109  2  0
109110  1  0
110111  1  0
111112  1  0
110113  2  0
113114  1  0
113115  1  0
115116  2  3
116117  1  0
117118  2  0
117119  1  0
119120  2  0
120121  1  0
121122  2  0
122123  1  0
123124  1  0
123125  2  0
125126  1  0
120127  1  0
127128  2  3
128129  1  0
129130  3  0
128131  1  0
131132  3  0
 11  2  1  0
 23 17  1  0
 65 24  1  0
107 66  1  0
114108  1  0
127116  1  0
 10  5  1  0
 22 18  1  0
 34 27  1  0
 42 35  1  0
 64 43  2  0
 76 69  1  0
 84 77  1  0
106 85  2  0
125119  1  0
 23  7  1  0
 55 48  1  0
 63 56  1  0
 97 90  1  0
105 98  1  0
  1133  1  0
  6134  1  0
  9135  1  0
 17136  1  0
 18137  1  0
 19138  1  0
 20139  1  0
 21140  1  0
 22141  1  0
 22142  1  0
 23143  1  0
 28144  1  0
 29145  1  0
 32146  1  0
 32147  1  0
 32148  1  0
 33149  1  0
 34150  1  0
 36151  1  0
 37152  1  0
 40153  1  0
 40154  1  0
 40155  1  0
 41156  1  0
 42157  1  0
 49158  1  0
 50159  1  0
 53160  1  0
 53161  1  0
 53162  1  0
 54163  1  0
 55164  1  0
 57165  1  0
 58166  1  0
 61167  1  0
 61168  1  0
 61169  1  0
 62170  1  0
 63171  1  0
 70172  1  0
 71173  1  0
 74174  1  0
 74175  1  0
 74176  1  0
 75177  1  0
 76178  1  0
 78179  1  0
 79180  1  0
 82181  1  0
 82182  1  0
 82183  1  0
 83184  1  0
 84185  1  0
 91186  1  0
 92187  1  0
 95188  1  0
 95189  1  0
 95190  1  0
 96191  1  0
 97192  1  0
 99193  1  0
100194  1  0
103195  1  0
103196  1  0
103197  1  0
104198  1  0
105199  1  0
109200  1  0
112201  1  0
112202  1  0
112203  1  0
115204  1  0
121205  1  0
122206  1  0
M  END

