
     RDKit          3D

175193  0  0  0  0  0  0  0  0999 V2000
    3.0177   -2.6694    0.2066 C   0  0  0  0  0  0  0  0  0  0  0  0
    4.1357   -3.2201    0.7344 C   0  0  0  0  0  0  0  0  0  0  0  0
    5.1764   -2.4076    1.3811 C   0  0  0  0  0  0  0  0  0  0  0  0
    5.4283   -1.1964    1.1295 O   0  0  0  0  0  0  0  0  0  0  0  0
    5.9246   -3.2276    2.3023 C   0  0  0  0  0  0  0  0  0  0  0  0
    7.0526   -2.8425    3.0618 C   0  0  0  0  0  0  0  0  0  0  0  0
    7.6576   -3.8888    3.7347 C   0  0  0  0  0  0  0  0  0  0  0  0
    7.1769   -5.2344    3.6787 C   0  0  0  0  0  0  0  0  0  0  0  0
    6.0598   -5.6148    2.9490 C   0  0  0  0  0  0  0  0  0  0  0  0
    5.4202   -4.5480    2.2482 C   0  0  0  0  0  0  0  0  0  0  0  0
    4.2655   -4.5976    1.2988 C   0  0  0  0  0  0  0  0  0  0  0  0
    3.3890   -5.6289    1.1560 C   0  0  0  0  0  0  0  0  0  0  0  0
    3.2978   -6.6907    2.1353 C   0  0  0  0  0  0  0  0  0  0  0  0
    3.1962   -7.5324    2.9290 N   0  0  0  0  0  0  0  0  0  0  0  0
    2.3877   -5.6564    0.1310 C   0  0  0  0  0  0  0  0  0  0  0  0
    1.6009   -5.7096   -0.7166 N   0  0  0  0  0  0  0  0  0  0  0  0
    8.3196   -5.6913    4.5370 C   0  0  0  0  0  0  0  0  0  0  0  0
    8.0310   -6.0169    6.0322 C   0  0  0  0  0  0  0  0  0  0  0  0
    6.8979   -5.1575    6.5442 C   0  0  0  0  0  0  0  0  0  0  0  0
    7.3588   -3.9042    6.5847 C   0  0  0  0  0  0  0  0  0  0  0  0
    8.7847   -3.9551    6.0918 C   0  0  0  0  0  0  0  0  0  0  0  0
    9.1943   -5.2914    6.6811 C   0  0  0  0  0  0  0  0  0  0  0  0
    8.8171   -4.3118    4.5812 C   0  0  0  0  0  0  0  0  0  0  0  0
    2.4399   -1.4651    0.8152 C   0  0  0  0  0  0  0  0  0  0  0  0
    1.7807   -0.3957    0.1759 C   0  0  0  0  0  0  0  0  0  0  0  0
    1.4574   -0.3635   -1.2214 N   0  0  0  0  0  0  0  0  0  0  0  0
    2.0888    0.6208   -2.0593 C   0  0  0  0  0  0  0  0  0  0  0  0
    3.4909    0.7408   -2.0737 C   0  0  0  0  0  0  0  0  0  0  0  0
    4.1176    1.5732   -3.0067 C   0  0  0  0  0  0  0  0  0  0  0  0
    3.3491    2.3094   -3.9223 C   0  0  0  0  0  0  0  0  0  0  0  0
    4.1523    3.3990   -5.1033 S   0  0  0  0  0  0  0  0  0  0  0  0
    4.0718    2.1836   -6.4621 C   0  0  0  0  0  0  0  0  0  0  0  0
    1.9566    2.1998   -3.9013 C   0  0  0  0  0  0  0  0  0  0  0  0
    1.3264    1.3630   -2.9749 C   0  0  0  0  0  0  0  0  0  0  0  0
    0.6891   -1.4413   -1.8121 C   0  0  0  0  0  0  0  0  0  0  0  0
   -0.2406   -2.1709   -1.0434 C   0  0  0  0  0  0  0  0  0  0  0  0
   -0.9318   -3.2582   -1.5959 C   0  0  0  0  0  0  0  0  0  0  0  0
   -0.7252   -3.6122   -2.9350 C   0  0  0  0  0  0  0  0  0  0  0  0
   -1.6749   -4.9399   -3.6830 S   0  0  0  0  0  0  0  0  0  0  0  0
   -0.4634   -6.2351   -3.2653 C   0  0  0  0  0  0  0  0  0  0  0  0
    0.1914   -2.8987   -3.7084 C   0  0  0  0  0  0  0  0  0  0  0  0
    0.8999   -1.8288   -3.1537 C   0  0  0  0  0  0  0  0  0  0  0  0
    1.3227    0.5384    1.1259 C   0  0  0  0  0  0  0  0  0  0  0  0
    0.4261    1.9666    1.1168 S   0  0  0  0  0  0  0  0  0  0  0  0
    0.3249    2.0870    2.8278 C   0  0  0  0  0  0  0  0  0  0  0  0
    0.9606    0.9731    3.3874 C   0  0  0  0  0  0  0  0  0  0  0  0
    0.6902    0.4696    4.7120 N   0  0  0  0  0  0  0  0  0  0  0  0
   -0.0404   -0.7711    4.7681 C   0  0  0  0  0  0  0  0  0  0  0  0
   -1.2255   -0.9069    4.0173 C   0  0  0  0  0  0  0  0  0  0  0  0
   -1.7570   -2.1684    3.7501 C   0  0  0  0  0  0  0  0  0  0  0  0
   -1.1276   -3.3127    4.2458 C   0  0  0  0  0  0  0  0  0  0  0  0
   -1.6834   -4.9275    3.7133 S   0  0  0  0  0  0  0  0  0  0  0  0
   -0.5732   -4.9681    2.2668 C   0  0  0  0  0  0  0  0  0  0  0  0
   -0.0031   -3.1841    5.0674 C   0  0  0  0  0  0  0  0  0  0  0  0
    0.5400   -1.9225    5.3352 C   0  0  0  0  0  0  0  0  0  0  0  0
    1.2742    1.0794    5.8861 C   0  0  0  0  0  0  0  0  0  0  0  0
    2.3585    1.9770    5.7618 C   0  0  0  0  0  0  0  0  0  0  0  0
    2.8888    2.6070    6.8890 C   0  0  0  0  0  0  0  0  0  0  0  0
    2.3507    2.3551    8.1518 C   0  0  0  0  0  0  0  0  0  0  0  0
    3.0059    3.2013    9.5871 S   0  0  0  0  0  0  0  0  0  0  0  0
    1.8238    4.5796    9.4392 C   0  0  0  0  0  0  0  0  0  0  0  0
    1.2918    1.4484    8.2916 C   0  0  0  0  0  0  0  0  0  0  0  0
    0.7536    0.8219    7.1670 C   0  0  0  0  0  0  0  0  0  0  0  0
    1.5398    0.1771    2.4119 C   0  0  0  0  0  0  0  0  0  0  0  0
    2.3468   -1.2739    2.4969 S   0  0  0  0  0  0  0  0  0  0  0  0
   -0.2993    3.1469    3.6555 C   0  0  0  0  0  0  0  0  0  0  0  0
   -1.0176    4.1863    3.2318 C   0  0  0  0  0  0  0  0  0  0  0  0
   -1.4340    4.4134    1.8495 C   0  0  0  0  0  0  0  0  0  0  0  0
   -0.8895    5.3792    0.9822 C   0  0  0  0  0  0  0  0  0  0  0  0
    0.3891    6.1345    1.2804 C   0  0  0  0  0  0  0  0  0  0  0  0
    0.1547    7.3039    2.2274 C   0  0  0  0  0  0  0  0  0  0  0  0
   -1.6663    5.4927   -0.1861 C   0  0  0  0  0  0  0  0  0  0  0  0
   -2.7532    4.6698   -0.1720 C   0  0  0  0  0  0  0  0  0  0  0  0
   -2.8522    3.7304    1.2042 S   0  0  0  0  0  0  0  0  0  0  0  0
   -3.4592    4.7770   -1.4004 C   0  0  0  0  0  0  0  0  0  0  0  0
   -2.7861    5.6373   -2.2160 C   0  0  0  0  0  0  0  0  0  0  0  0
   -1.6073    6.2928   -1.4941 C   0  0  0  0  0  0  0  0  0  0  0  0
   -0.2785    6.1088   -2.2716 C   0  0  0  0  0  0  0  0  0  0  0  0
    0.1880    4.6550   -2.3802 C   0  0  0  0  0  0  0  0  0  0  0  0
   -1.8924    7.7848   -1.1757 C   0  0  0  0  0  0  0  0  0  0  0  0
   -2.1481    8.6493   -2.4126 C   0  0  0  0  0  0  0  0  0  0  0  0
   -3.1216    5.4955   -3.5730 C   0  0  0  0  0  0  0  0  0  0  0  0
   -4.0515    4.4576   -3.7587 C   0  0  0  0  0  0  0  0  0  0  0  0
   -4.4428    3.7426   -2.2559 S   0  0  0  0  0  0  0  0  0  0  0  0
   -4.6458    4.0367   -5.0492 C   0  0  0  0  0  0  0  0  0  0  0  0
   -4.9531    2.7557   -5.3233 C   0  0  0  0  0  0  0  0  0  0  0  0
   -6.1459    2.3658   -6.0733 C   0  0  0  0  0  0  0  0  0  0  0  0
   -6.7546    3.0721   -6.9250 O   0  0  0  0  0  0  0  0  0  0  0  0
   -6.5983    1.0766   -5.5753 C   0  0  0  0  0  0  0  0  0  0  0  0
   -7.8274    0.4335   -5.8492 C   0  0  0  0  0  0  0  0  0  0  0  0
   -8.0602   -0.6764   -5.0538 C   0  0  0  0  0  0  0  0  0  0  0  0
   -7.1418   -1.1269   -4.0446 C   0  0  0  0  0  0  0  0  0  0  0  0
   -5.9339   -0.5119   -3.7835 C   0  0  0  0  0  0  0  0  0  0  0  0
   -5.6702    0.6177   -4.6015 C   0  0  0  0  0  0  0  0  0  0  0  0
   -4.5358    1.5619   -4.5497 C   0  0  0  0  0  0  0  0  0  0  0  0
   -3.2631    1.2686   -4.2105 C   0  0  0  0  0  0  0  0  0  0  0  0
   -2.9142    0.0836   -3.4675 C   0  0  0  0  0  0  0  0  0  0  0  0
   -2.6348   -0.8625   -2.8618 N   0  0  0  0  0  0  0  0  0  0  0  0
   -2.1728    2.0801   -4.6840 C   0  0  0  0  0  0  0  0  0  0  0  0
   -1.3068    2.7313   -5.0922 N   0  0  0  0  0  0  0  0  0  0  0  0
   -8.1031   -2.1989   -3.6272 C   0  0  0  0  0  0  0  0  0  0  0  0
   -8.8830   -1.9776   -2.2938 C   0  0  0  0  0  0  0  0  0  0  0  0
   -9.0978   -0.4992   -2.0597 C   0  0  0  0  0  0  0  0  0  0  0  0
   -9.9563   -0.0826   -2.9923 C   0  0  0  0  0  0  0  0  0  0  0  0
  -10.2935   -1.2939   -3.8370 C   0  0  0  0  0  0  0  0  0  0  0  0
  -10.2843   -2.3525   -2.7507 C   0  0  0  0  0  0  0  0  0  0  0  0
   -9.0433   -1.7379   -4.6556 C   0  0  0  0  0  0  0  0  0  0  0  0
    2.3834   -3.2202   -0.4491 H   0  0  0  0  0  0  0  0  0  0  0  0
    7.4433   -1.8303    3.0818 H   0  0  0  0  0  0  0  0  0  0  0  0
    5.7624   -6.6531    2.8701 H   0  0  0  0  0  0  0  0  0  0  0  0
    9.0058   -6.4019    4.0275 H   0  0  0  0  0  0  0  0  0  0  0  0
    7.9505   -7.0964    6.2792 H   0  0  0  0  0  0  0  0  0  0  0  0
    5.9297   -5.4855    6.9015 H   0  0  0  0  0  0  0  0  0  0  0  0
    6.8366   -3.0477    6.9947 H   0  0  0  0  0  0  0  0  0  0  0  0
    9.4198   -3.0910    6.3846 H   0  0  0  0  0  0  0  0  0  0  0  0
    9.1648   -5.3091    7.7996 H   0  0  0  0  0  0  0  0  0  0  0  0
   10.1907   -5.6434    6.3340 H   0  0  0  0  0  0  0  0  0  0  0  0
    9.8073   -4.1909    4.0824 H   0  0  0  0  0  0  0  0  0  0  0  0
    4.0962    0.1517   -1.3984 H   0  0  0  0  0  0  0  0  0  0  0  0
    5.1964    1.6491   -3.0217 H   0  0  0  0  0  0  0  0  0  0  0  0
    4.6313    1.2651   -6.1891 H   0  0  0  0  0  0  0  0  0  0  0  0
    4.5373    2.6286   -7.3678 H   0  0  0  0  0  0  0  0  0  0  0  0
    3.0116    1.9371   -6.6861 H   0  0  0  0  0  0  0  0  0  0  0  0
    1.3618    2.7447   -4.6198 H   0  0  0  0  0  0  0  0  0  0  0  0
    0.2490    1.2613   -2.9844 H   0  0  0  0  0  0  0  0  0  0  0  0
   -0.4310   -1.9056   -0.0112 H   0  0  0  0  0  0  0  0  0  0  0  0
   -1.6477   -3.8005   -0.9906 H   0  0  0  0  0  0  0  0  0  0  0  0
   -0.6646   -7.1322   -3.8867 H   0  0  0  0  0  0  0  0  0  0  0  0
    0.5708   -5.8914   -3.4737 H   0  0  0  0  0  0  0  0  0  0  0  0
   -0.5699   -6.5035   -2.1952 H   0  0  0  0  0  0  0  0  0  0  0  0
    0.3528   -3.1676   -4.7467 H   0  0  0  0  0  0  0  0  0  0  0  0
    1.6131   -1.3159   -3.7804 H   0  0  0  0  0  0  0  0  0  0  0  0
   -1.6821   -0.0327    3.5604 H   0  0  0  0  0  0  0  0  0  0  0  0
   -2.6267   -2.2589    3.1081 H   0  0  0  0  0  0  0  0  0  0  0  0
   -0.6365   -4.0243    1.6876 H   0  0  0  0  0  0  0  0  0  0  0  0
   -0.8587   -5.8204    1.6119 H   0  0  0  0  0  0  0  0  0  0  0  0
    0.4662   -5.1259    2.6243 H   0  0  0  0  0  0  0  0  0  0  0  0
    0.4906   -4.0671    5.4469 H   0  0  0  0  0  0  0  0  0  0  0  0
    1.4653   -1.8493    5.8924 H   0  0  0  0  0  0  0  0  0  0  0  0
    2.7870    2.2036    4.7985 H   0  0  0  0  0  0  0  0  0  0  0  0
    3.7084    3.3046    6.7779 H   0  0  0  0  0  0  0  0  0  0  0  0
    0.7977    4.2108    9.6349 H   0  0  0  0  0  0  0  0  0  0  0  0
    2.0778    5.3596   10.1859 H   0  0  0  0  0  0  0  0  0  0  0  0
    1.8749    5.0282    8.4223 H   0  0  0  0  0  0  0  0  0  0  0  0
    0.8712    1.2466    9.2685 H   0  0  0  0  0  0  0  0  0  0  0  0
   -0.0807    0.1473    7.2941 H   0  0  0  0  0  0  0  0  0  0  0  0
   -0.1108    3.1018    4.7201 H   0  0  0  0  0  0  0  0  0  0  0  0
   -1.3632    4.8993    3.9721 H   0  0  0  0  0  0  0  0  0  0  0  0
    1.1184    5.4300    1.7320 H   0  0  0  0  0  0  0  0  0  0  0  0
    0.8461    6.5202    0.3522 H   0  0  0  0  0  0  0  0  0  0  0  0
    1.1389    7.7213    2.5508 H   0  0  0  0  0  0  0  0  0  0  0  0
   -0.4217    8.1085    1.7206 H   0  0  0  0  0  0  0  0  0  0  0  0
   -0.3949    6.9871    3.1429 H   0  0  0  0  0  0  0  0  0  0  0  0
    0.5292    6.7112   -1.8077 H   0  0  0  0  0  0  0  0  0  0  0  0
   -0.3947    6.4902   -3.3057 H   0  0  0  0  0  0  0  0  0  0  0  0
   -0.5375    4.0613   -2.9710 H   0  0  0  0  0  0  0  0  0  0  0  0
    0.2957    4.1860   -1.3777 H   0  0  0  0  0  0  0  0  0  0  0  0
    1.1804    4.6390   -2.8749 H   0  0  0  0  0  0  0  0  0  0  0  0
   -1.0256    8.2127   -0.6241 H   0  0  0  0  0  0  0  0  0  0  0  0
   -2.7748    7.8724   -0.5057 H   0  0  0  0  0  0  0  0  0  0  0  0
   -3.0288    8.2771   -2.9759 H   0  0  0  0  0  0  0  0  0  0  0  0
   -1.2618    8.6585   -3.0824 H   0  0  0  0  0  0  0  0  0  0  0  0
   -2.3594    9.6936   -2.0928 H   0  0  0  0  0  0  0  0  0  0  0  0
   -2.6491    6.0434   -4.3805 H   0  0  0  0  0  0  0  0  0  0  0  0
   -5.0220    4.8162   -5.6972 H   0  0  0  0  0  0  0  0  0  0  0  0
   -8.5506    0.8064   -6.5640 H   0  0  0  0  0  0  0  0  0  0  0  0
   -5.3011   -0.8370   -2.9734 H   0  0  0  0  0  0  0  0  0  0  0  0
   -7.7334   -3.2370   -3.7884 H   0  0  0  0  0  0  0  0  0  0  0  0
   -8.5001   -2.5391   -1.4183 H   0  0  0  0  0  0  0  0  0  0  0  0
   -8.6848    0.1090   -1.2631 H   0  0  0  0  0  0  0  0  0  0  0  0
  -10.3658    0.9169   -3.0830 H   0  0  0  0  0  0  0  0  0  0  0  0
  -11.2357   -1.2094   -4.4193 H   0  0  0  0  0  0  0  0  0  0  0  0
  -11.0604   -2.1941   -1.9672 H   0  0  0  0  0  0  0  0  0  0  0  0
  -10.3562   -3.3937   -3.1437 H   0  0  0  0  0  0  0  0  0  0  0  0
   -9.2430   -2.4899   -5.4514 H   0  0  0  0  0  0  0  0  0  0  0  0
  1  2  2  3
  2  3  1  0
  3  4  2  0
  3  5  1  0
  5  6  2  0
  6  7  1  0
  7  8  2  0
  8  9  1  0
  9 10  2  0
 10 11  1  0
 11 12  2  3
 12 13  1  0
 13 14  3  0
 12 15  1  0
 15 16  3  0
  8 17  1  0
 17 18  1  0
 18 19  1  0
 19 20  2  0
 20 21  1  0
 21 22  1  0
 21 23  1  0
  1 24  1  0
 24 25  2  0
 25 26  1  0
 26 27  1  0
 27 28  2  0
 28 29  1  0
 29 30  2  0
 30 31  1  0
 31 32  1  0
 30 33  1  0
 33 34  2  0
 26 35  1  0
 35 36  2  0
 36 37  1  0
 37 38  2  0
 38 39  1  0
 39 40  1  0
 38 41  1  0
 41 42  2  0
 25 43  1  0
 43 44  1  0
 44 45  1  0
 45 46  2  0
 46 47  1  0
 47 48  1  0
 48 49  2  0
 49 50  1  0
 50 51  2  0
 51 52  1  0
 52 53  1  0
 51 54  1  0
 54 55  2  0
 47 56  1  0
 56 57  2  0
 57 58  1  0
 58 59  2  0
 59 60  1  0
 60 61  1  0
 59 62  1  0
 62 63  2  0
 46 64  1  0
 64 65  1  0
 45 66  1  0
 66 67  2  3
 67 68  1  0
 68 69  2  0
 69 70  1  0
 70 71  1  0
 69 72  1  0
 72 73  2  0
 73 74  1  0
 73 75  1  0
 75 76  2  0
 76 77  1  0
 77 78  1  0
 78 79  1  0
 77 80  1  0
 80 81  1  0
 76 82  1  0
 82 83  2  0
 83 84  1  0
 83 85  1  0
 85 86  2  3
 86 87  1  0
 87 88  2  0
 87 89  1  0
 89 90  2  0
 90 91  1  0
 91 92  2  0
 92 93  1  0
 93 94  2  0
 94 95  1  0
 95 96  2  3
 96 97  1  0
 97 98  3  0
 96 99  1  0
 99100  3  0
 92101  1  0
101102  1  0
102103  1  0
103104  2  0
104105  1  0
105106  1  0
105107  1  0
 11  2  1  0
 23 17  1  0
 65 24  1  0
 74 68  1  0
 84 75  1  0
 95 86  1  0
107101  1  0
 10  5  1  0
 22 18  1  0
 34 27  1  0
 42 35  1  0
 64 43  2  0
 77 72  1  0
 94 89  1  0
106102  1  0
 23  7  1  0
 55 48  1  0
 63 56  1  0
107 91  1  0
  1108  1  0
  6109  1  0
  9110  1  0
 17111  1  0
 18112  1  0
 19113  1  0
 20114  1  0
 21115  1  0
 22116  1  0
 22117  1  0
 23118  1  0
 28119  1  0
 29120  1  0
 32121  1  0
 32122  1  0
 32123  1  0
 33124  1  0
 34125  1  0
 36126  1  0
 37127  1  0
 40128  1  0
 40129  1  0
 40130  1  0
 41131  1  0
 42132  1  0
 49133  1  0
 50134  1  0
 53135  1  0
 53136  1  0
 53137  1  0
 54138  1  0
 55139  1  0
 57140  1  0
 58141  1  0
 61142  1  0
 61143  1  0
 61144  1  0
 62145  1  0
 63146  1  0
 66147  1  0
 67148  1  0
 70149  1  0
 70150  1  0
 71151  1  0
 71152  1  0
 71153  1  0
 78154  1  0
 78155  1  0
 79156  1  0
 79157  1  0
 79158  1  0
 80159  1  0
 80160  1  0
 81161  1  0
 81162  1  0
 81163  1  0
 82164  1  0
 85165  1  0
 90166  1  0
 93167  1  0
101168  1  0
102169  1  0
103170  1  0
104171  1  0
105172  1  0
106173  1  0
106174  1  0
107175  1  0
M  END

