
     RDKit          3D

157172  0  0  0  0  0  0  0  0999 V2000
    3.7633   -3.5975   -2.7929 C   0  0  0  0  0  0  0  0  0  0  0  0
    2.8974   -3.6699   -3.8235 C   0  0  0  0  0  0  0  0  0  0  0  0
    1.9690   -2.5892   -4.1984 C   0  0  0  0  0  0  0  0  0  0  0  0
    1.7010   -1.5584   -3.5281 O   0  0  0  0  0  0  0  0  0  0  0  0
    1.3945   -2.8879   -5.4832 C   0  0  0  0  0  0  0  0  0  0  0  0
    0.5440   -2.0488   -6.2356 C   0  0  0  0  0  0  0  0  0  0  0  0
    0.1477   -2.5898   -7.4393 C   0  0  0  0  0  0  0  0  0  0  0  0
    0.5353   -3.8954   -7.8788 C   0  0  0  0  0  0  0  0  0  0  0  0
    1.3740   -4.7214   -7.1506 C   0  0  0  0  0  0  0  0  0  0  0  0
    1.8401   -4.1634   -5.9167 C   0  0  0  0  0  0  0  0  0  0  0  0
    2.7893   -4.7260   -4.8940 C   0  0  0  0  0  0  0  0  0  0  0  0
    3.3536   -5.9613   -4.9005 C   0  0  0  0  0  0  0  0  0  0  0  0
    3.2763   -6.8512   -6.0302 C   0  0  0  0  0  0  0  0  0  0  0  0
    3.2405   -7.5797   -6.9264 N   0  0  0  0  0  0  0  0  0  0  0  0
    4.1420   -6.4771   -3.8092 C   0  0  0  0  0  0  0  0  0  0  0  0
    4.7968   -6.9084   -2.9511 N   0  0  0  0  0  0  0  0  0  0  0  0
   -0.2693   -3.7313   -9.1344 C   0  0  0  0  0  0  0  0  0  0  0  0
   -1.6361   -4.4785   -9.2047 C   0  0  0  0  0  0  0  0  0  0  0  0
   -2.3947   -3.8437  -10.3463 C   0  0  0  0  0  0  0  0  0  0  0  0
   -2.7383   -2.6162   -9.9371 C   0  0  0  0  0  0  0  0  0  0  0  0
   -2.1930   -2.4629   -8.5379 C   0  0  0  0  0  0  0  0  0  0  0  0
   -2.4186   -3.8816   -8.0453 C   0  0  0  0  0  0  0  0  0  0  0  0
   -0.6474   -2.3833   -8.6933 C   0  0  0  0  0  0  0  0  0  0  0  0
    3.6842   -2.5100   -1.8033 C   0  0  0  0  0  0  0  0  0  0  0  0
    2.7782   -2.6260   -0.7396 C   0  0  0  0  0  0  0  0  0  0  0  0
    2.1513   -3.8061   -0.5011 F   0  0  0  0  0  0  0  0  0  0  0  0
    2.3951   -1.4952   -0.0184 C   0  0  0  0  0  0  0  0  0  0  0  0
    1.4091   -1.6116    0.9110 F   0  0  0  0  0  0  0  0  0  0  0  0
    2.9235   -0.2336   -0.3436 C   0  0  0  0  0  0  0  0  0  0  0  0
    3.9716   -0.1490   -1.2725 C   0  0  0  0  0  0  0  0  0  0  0  0
    4.6398    1.0159   -1.4716 N   0  0  0  0  0  0  0  0  0  0  0  0
    5.6432    1.1193   -2.3831 C   0  0  0  0  0  0  0  0  0  0  0  0
    6.5094    2.3460   -2.3475 C   0  0  0  0  0  0  0  0  0  0  0  0
    7.6848    2.1080   -1.4002 C   0  0  0  0  0  0  0  0  0  0  0  0
    5.9481    0.0041   -3.1999 C   0  0  0  0  0  0  0  0  0  0  0  0
    5.2830   -1.1609   -2.9891 N   0  0  0  0  0  0  0  0  0  0  0  0
    4.3402   -1.2862   -2.0203 C   0  0  0  0  0  0  0  0  0  0  0  0
    6.9641    0.0504   -4.3124 C   0  0  0  0  0  0  0  0  0  0  0  0
    6.3326    0.6100   -5.5868 C   0  0  0  0  0  0  0  0  0  0  0  0
    2.1040    0.9389   -0.0044 C   0  0  0  0  0  0  0  0  0  0  0  0
    2.1768    1.6479    1.2067 C   0  0  0  0  0  0  0  0  0  0  0  0
    3.3884    1.9280    1.9250 N   0  0  0  0  0  0  0  0  0  0  0  0
    4.2579    2.9786    1.4352 C   0  0  0  0  0  0  0  0  0  0  0  0
    3.7440    4.0336    0.6476 C   0  0  0  0  0  0  0  0  0  0  0  0
    4.5506    5.1177    0.2926 C   0  0  0  0  0  0  0  0  0  0  0  0
    5.8870    5.1611    0.6993 C   0  0  0  0  0  0  0  0  0  0  0  0
    6.8681    6.6281    0.3657 S   0  0  0  0  0  0  0  0  0  0  0  0
    7.3811    6.0932   -1.2940 C   0  0  0  0  0  0  0  0  0  0  0  0
    6.4256    4.1010    1.4413 C   0  0  0  0  0  0  0  0  0  0  0  0
    5.6182    3.0129    1.8017 C   0  0  0  0  0  0  0  0  0  0  0  0
    3.4685    1.5050    3.2971 C   0  0  0  0  0  0  0  0  0  0  0  0
    3.6361    2.4532    4.3264 C   0  0  0  0  0  0  0  0  0  0  0  0
    3.6513    2.0500    5.6635 C   0  0  0  0  0  0  0  0  0  0  0  0
    3.5345    0.6924    5.9844 C   0  0  0  0  0  0  0  0  0  0  0  0
    3.6004    0.1794    7.7003 S   0  0  0  0  0  0  0  0  0  0  0  0
    5.4203    0.0810    7.7308 C   0  0  0  0  0  0  0  0  0  0  0  0
    3.3788   -0.2585    4.9653 C   0  0  0  0  0  0  0  0  0  0  0  0
    3.3362    0.1469    3.6286 C   0  0  0  0  0  0  0  0  0  0  0  0
    0.9282    2.1594    1.5752 C   0  0  0  0  0  0  0  0  0  0  0  0
    0.2798    2.7128    3.0182 S   0  0  0  0  0  0  0  0  0  0  0  0
   -1.3576    2.5784    2.5139 C   0  0  0  0  0  0  0  0  0  0  0  0
   -1.3617    2.1228    1.1790 C   0  0  0  0  0  0  0  0  0  0  0  0
   -2.5177    1.7181    0.4340 N   0  0  0  0  0  0  0  0  0  0  0  0
   -2.7757    2.4007   -0.8132 C   0  0  0  0  0  0  0  0  0  0  0  0
   -2.9778    1.6774   -2.0026 C   0  0  0  0  0  0  0  0  0  0  0  0
   -3.1350    2.3481   -3.2215 C   0  0  0  0  0  0  0  0  0  0  0  0
   -3.1014    3.7483   -3.2630 C   0  0  0  0  0  0  0  0  0  0  0  0
   -3.3039    4.6040   -4.8249 S   0  0  0  0  0  0  0  0  0  0  0  0
   -1.5115    4.7625   -5.1129 C   0  0  0  0  0  0  0  0  0  0  0  0
   -2.9133    4.4761   -2.0811 C   0  0  0  0  0  0  0  0  0  0  0  0
   -2.7405    3.8037   -0.8678 C   0  0  0  0  0  0  0  0  0  0  0  0
   -3.2156    0.5023    0.7810 C   0  0  0  0  0  0  0  0  0  0  0  0
   -2.5251   -0.5941    1.3361 C   0  0  0  0  0  0  0  0  0  0  0  0
   -3.2007   -1.7809    1.6356 C   0  0  0  0  0  0  0  0  0  0  0  0
   -4.5760   -1.8827    1.3938 C   0  0  0  0  0  0  0  0  0  0  0  0
   -5.4418   -3.4115    1.7618 S   0  0  0  0  0  0  0  0  0  0  0  0
   -5.8567   -2.9140    3.4633 C   0  0  0  0  0  0  0  0  0  0  0  0
   -5.2747   -0.7980    0.8479 C   0  0  0  0  0  0  0  0  0  0  0  0
   -4.5963    0.3889    0.5456 C   0  0  0  0  0  0  0  0  0  0  0  0
   -0.0783    1.9096    0.7056 C   0  0  0  0  0  0  0  0  0  0  0  0
    0.4971    1.0169   -0.5791 S   0  0  0  0  0  0  0  0  0  0  0  0
   -2.5492    2.7367    3.4035 C   0  0  0  0  0  0  0  0  0  0  0  0
   -3.8038    3.0818    2.8573 C   0  0  0  0  0  0  0  0  0  0  0  0
   -4.9580    3.1304    3.6522 C   0  0  0  0  0  0  0  0  0  0  0  0
   -4.9007    2.8523    5.0220 C   0  0  0  0  0  0  0  0  0  0  0  0
   -3.6505    2.6002    5.6039 C   0  0  0  0  0  0  0  0  0  0  0  0
   -3.4854    2.4002    6.9409 N   0  0  0  0  0  0  0  0  0  0  0  0
   -1.8594    2.1115    7.0057 S   0  0  0  0  0  0  0  0  0  0  0  0
   -1.3236    2.2299    5.4513 N   0  0  0  0  0  0  0  0  0  0  0  0
   -2.4784    2.5235    4.7969 C   0  0  0  0  0  0  0  0  0  0  0  0
   -6.1455    2.8927    5.8167 C   0  0  0  0  0  0  0  0  0  0  0  0
   -6.5714    1.9004    6.6084 C   0  0  0  0  0  0  0  0  0  0  0  0
   -7.9909    2.1039    7.6885 S   0  0  0  0  0  0  0  0  0  0  0  0
   -7.4595    0.6229    8.5643 C   0  0  0  0  0  0  0  0  0  0  0  0
   -7.8756    0.3889   10.1301 S   0  0  0  0  0  0  0  0  0  0  0  0
   -6.4062   -0.1094    7.9344 N   0  0  0  0  0  0  0  0  0  0  0  0
   -5.9154   -1.4246    8.3578 C   0  0  0  0  0  0  0  0  0  0  0  0
   -6.8342   -2.5279    7.8357 C   0  0  0  0  0  0  0  0  0  0  0  0
   -5.9504    0.5813    6.7781 C   0  0  0  0  0  0  0  0  0  0  0  0
   -5.1310    0.0709    5.9644 O   0  0  0  0  0  0  0  0  0  0  0  0
    4.5297   -4.3376   -2.6268 H   0  0  0  0  0  0  0  0  0  0  0  0
    0.2322   -1.0657   -5.9087 H   0  0  0  0  0  0  0  0  0  0  0  0
    1.6455   -5.6890   -7.5379 H   0  0  0  0  0  0  0  0  0  0  0  0
    0.3478   -3.7584  -10.0606 H   0  0  0  0  0  0  0  0  0  0  0  0
   -1.5820   -5.5876   -9.2295 H   0  0  0  0  0  0  0  0  0  0  0  0
   -2.6883   -4.3016  -11.2844 H   0  0  0  0  0  0  0  0  0  0  0  0
   -3.3753   -1.9244  -10.4820 H   0  0  0  0  0  0  0  0  0  0  0  0
   -2.6600   -1.6569   -7.9318 H   0  0  0  0  0  0  0  0  0  0  0  0
   -1.9843   -4.0930   -7.0449 H   0  0  0  0  0  0  0  0  0  0  0  0
   -3.4943   -4.1787   -8.0378 H   0  0  0  0  0  0  0  0  0  0  0  0
   -0.2645   -1.5544   -9.3294 H   0  0  0  0  0  0  0  0  0  0  0  0
    5.9139    3.2084   -1.9745 H   0  0  0  0  0  0  0  0  0  0  0  0
    6.8761    2.6227   -3.3577 H   0  0  0  0  0  0  0  0  0  0  0  0
    8.2795    1.2300   -1.7219 H   0  0  0  0  0  0  0  0  0  0  0  0
    8.3565    2.9869   -1.3890 H   0  0  0  0  0  0  0  0  0  0  0  0
    7.3082    1.9249   -0.3702 H   0  0  0  0  0  0  0  0  0  0  0  0
    7.8471    0.6568   -4.0332 H   0  0  0  0  0  0  0  0  0  0  0  0
    7.3310   -0.9770   -4.5191 H   0  0  0  0  0  0  0  0  0  0  0  0
    7.1053    0.6776   -6.3810 H   0  0  0  0  0  0  0  0  0  0  0  0
    5.5155   -0.0561   -5.9382 H   0  0  0  0  0  0  0  0  0  0  0  0
    5.9198    1.6281   -5.4119 H   0  0  0  0  0  0  0  0  0  0  0  0
    2.7029    4.0567    0.3542 H   0  0  0  0  0  0  0  0  0  0  0  0
    4.1252    5.9411   -0.2667 H   0  0  0  0  0  0  0  0  0  0  0  0
    6.4979    5.8562   -1.9204 H   0  0  0  0  0  0  0  0  0  0  0  0
    8.0388    5.2083   -1.2096 H   0  0  0  0  0  0  0  0  0  0  0  0
    7.9528    6.9127   -1.7736 H   0  0  0  0  0  0  0  0  0  0  0  0
    7.4621    4.1305    1.7602 H   0  0  0  0  0  0  0  0  0  0  0  0
    6.0409    2.2161    2.3964 H   0  0  0  0  0  0  0  0  0  0  0  0
    3.7227    3.5058    4.0906 H   0  0  0  0  0  0  0  0  0  0  0  0
    3.7660    2.7968    6.4463 H   0  0  0  0  0  0  0  0  0  0  0  0
    5.8642    1.0508    7.4172 H   0  0  0  0  0  0  0  0  0  0  0  0
    5.7633   -0.7248    7.0454 H   0  0  0  0  0  0  0  0  0  0  0  0
    5.7522   -0.1490    8.7672 H   0  0  0  0  0  0  0  0  0  0  0  0
    3.2763   -1.3044    5.2165 H   0  0  0  0  0  0  0  0  0  0  0  0
    3.2081   -0.5966    2.8508 H   0  0  0  0  0  0  0  0  0  0  0  0
   -2.9851    0.5930   -1.9927 H   0  0  0  0  0  0  0  0  0  0  0  0
   -3.2767    1.7807   -4.1303 H   0  0  0  0  0  0  0  0  0  0  0  0
   -1.0202    3.7725   -5.0492 H   0  0  0  0  0  0  0  0  0  0  0  0
   -1.0712    5.4474   -4.3565 H   0  0  0  0  0  0  0  0  0  0  0  0
   -1.3366    5.1869   -6.1240 H   0  0  0  0  0  0  0  0  0  0  0  0
   -2.8866    5.5588   -2.1059 H   0  0  0  0  0  0  0  0  0  0  0  0
   -2.5776    4.3834    0.0346 H   0  0  0  0  0  0  0  0  0  0  0  0
   -1.4591   -0.5405    1.5180 H   0  0  0  0  0  0  0  0  0  0  0  0
   -2.6496   -2.6217    2.0421 H   0  0  0  0  0  0  0  0  0  0  0  0
   -6.4425   -1.9721    3.4570 H   0  0  0  0  0  0  0  0  0  0  0  0
   -6.4679   -3.7119    3.9368 H   0  0  0  0  0  0  0  0  0  0  0  0
   -4.9286   -2.7752    4.0528 H   0  0  0  0  0  0  0  0  0  0  0  0
   -6.3359   -0.8769    0.6590 H   0  0  0  0  0  0  0  0  0  0  0  0
   -5.1544    1.2193    0.1308 H   0  0  0  0  0  0  0  0  0  0  0  0
   -3.9053    3.3068    1.8040 H   0  0  0  0  0  0  0  0  0  0  0  0
   -5.9015    3.3726    3.1845 H   0  0  0  0  0  0  0  0  0  0  0  0
   -6.7527    3.7868    5.7369 H   0  0  0  0  0  0  0  0  0  0  0  0
   -5.8579   -1.4779    9.4610 H   0  0  0  0  0  0  0  0  0  0  0  0
   -4.8851   -1.5920    7.9637 H   0  0  0  0  0  0  0  0  0  0  0  0
   -6.4505   -3.5143    8.1685 H   0  0  0  0  0  0  0  0  0  0  0  0
   -6.8683   -2.5098    6.7245 H   0  0  0  0  0  0  0  0  0  0  0  0
   -7.8611   -2.3904    8.2363 H   0  0  0  0  0  0  0  0  0  0  0  0
  1  2  2  3
  2  3  1  0
  3  4  2  0
  3  5  1  0
  5  6  2  0
  6  7  1  0
  7  8  2  0
  8  9  1  0
  9 10  2  0
 10 11  1  0
 11 12  2  3
 12 13  1  0
 13 14  3  0
 12 15  1  0
 15 16  3  0
  8 17  1  0
 17 18  1  0
 18 19  1  0
 19 20  2  0
 20 21  1  0
 21 22  1  0
 21 23  1  0
  1 24  1  0
 24 25  2  0
 25 26  1  0
 25 27  1  0
 27 28  1  0
 27 29  2  0
 29 30  1  0
 30 31  2  0
 31 32  1  0
 32 33  1  0
 33 34  1  0
 32 35  2  0
 35 36  1  0
 36 37  2  0
 35 38  1  0
 38 39  1  0
 29 40  1  0
 40 41  2  0
 41 42  1  0
 42 43  1  0
 43 44  2  0
 44 45  1  0
 45 46  2  0
 46 47  1  0
 47 48  1  0
 46 49  1  0
 49 50  2  0
 42 51  1  0
 51 52  2  0
 52 53  1  0
 53 54  2  0
 54 55  1  0
 55 56  1  0
 54 57  1  0
 57 58  2  0
 41 59  1  0
 59 60  1  0
 60 61  1  0
 61 62  2  0
 62 63  1  0
 63 64  1  0
 64 65  2  0
 65 66  1  0
 66 67  2  0
 67 68  1  0
 68 69  1  0
 67 70  1  0
 70 71  2  0
 63 72  1  0
 72 73  2  0
 73 74  1  0
 74 75  2  0
 75 76  1  0
 76 77  1  0
 75 78  1  0
 78 79  2  0
 62 80  1  0
 80 81  1  0
 61 82  1  0
 82 83  2  0
 83 84  1  0
 84 85  2  0
 85 86  1  0
 86 87  2  0
 87 88  1  0
 88 89  1  0
 89 90  2  0
 85 91  1  0
 91 92  2  3
 92 93  1  0
 93 94  1  0
 94 95  2  0
 94 96  1  0
 96 97  1  0
 97 98  1  0
 96 99  1  0
 99100  2  0
 11  2  1  0
 23 17  1  0
 37 24  1  0
 81 40  1  0
 90 82  1  0
 99 92  1  0
 10  5  1  0
 22 18  1  0
 37 30  1  0
 50 43  1  0
 58 51  1  0
 80 59  2  0
 90 86  1  0
 23  7  1  0
 71 64  1  0
 79 72  1  0
  1101  1  0
  6102  1  0
  9103  1  0
 17104  1  0
 18105  1  0
 19106  1  0
 20107  1  0
 21108  1  0
 22109  1  0
 22110  1  0
 23111  1  0
 33112  1  0
 33113  1  0
 34114  1  0
 34115  1  0
 34116  1  0
 38117  1  0
 38118  1  0
 39119  1  0
 39120  1  0
 39121  1  0
 44122  1  0
 45123  1  0
 48124  1  0
 48125  1  0
 48126  1  0
 49127  1  0
 50128  1  0
 52129  1  0
 53130  1  0
 56131  1  0
 56132  1  0
 56133  1  0
 57134  1  0
 58135  1  0
 65136  1  0
 66137  1  0
 69138  1  0
 69139  1  0
 69140  1  0
 70141  1  0
 71142  1  0
 73143  1  0
 74144  1  0
 77145  1  0
 77146  1  0
 77147  1  0
 78148  1  0
 79149  1  0
 83150  1  0
 84151  1  0
 91152  1  0
 97153  1  0
 97154  1  0
 98155  1  0
 98156  1  0
 98157  1  0
M  END

