
     RDKit          3D

195213  0  0  0  0  0  0  0  0999 V2000
    0.9126    7.9136    0.2761 C   0  0  0  0  0  0  0  0  0  0  0  0
    1.8145    7.8720    1.3230 C   0  0  0  0  0  0  0  0  0  0  0  0
    2.5269    9.0617    1.7578 C   0  0  0  0  0  0  0  0  0  0  0  0
    2.5734   10.1589    1.0900 O   0  0  0  0  0  0  0  0  0  0  0  0
    3.1251    8.7426    3.0182 C   0  0  0  0  0  0  0  0  0  0  0  0
    3.8977    9.5074    3.8978 C   0  0  0  0  0  0  0  0  0  0  0  0
    4.3398    9.0093    5.0869 C   0  0  0  0  0  0  0  0  0  0  0  0
    3.9918    7.7809    5.4318 C   0  0  0  0  0  0  0  0  0  0  0  0
    3.2147    6.9675    4.5664 C   0  0  0  0  0  0  0  0  0  0  0  0
    2.8067    7.4393    3.4010 C   0  0  0  0  0  0  0  0  0  0  0  0
    1.9392    6.8286    2.2353 C   0  0  0  0  0  0  0  0  0  0  0  0
    2.1117    5.4393    2.1563 C   0  0  0  0  0  0  0  0  0  0  0  0
    2.0104    4.8327    3.4032 C   0  0  0  0  0  0  0  0  0  0  0  0
    1.9216    4.3568    4.4231 N   0  0  0  0  0  0  0  0  0  0  0  0
    2.6028    4.8900    0.8874 C   0  0  0  0  0  0  0  0  0  0  0  0
    3.0456    4.4001   -0.2804 N   0  0  0  0  0  0  0  0  0  0  0  0
    4.5113    7.8316    6.8696 C   0  0  0  0  0  0  0  0  0  0  0  0
    5.5586    6.8390    7.1109 C   0  0  0  0  0  0  0  0  0  0  0  0
    6.1054    6.3491    5.8125 C   0  0  0  0  0  0  0  0  0  0  0  0
    6.5793    7.4870    5.2587 C   0  0  0  0  0  0  0  0  0  0  0  0
    6.5527    8.6069    6.1805 C   0  0  0  0  0  0  0  0  0  0  0  0
    6.7288    7.8155    7.5150 C   0  0  0  0  0  0  0  0  0  0  0  0
    5.1574    9.0990    6.3181 C   0  0  0  0  0  0  0  0  0  0  0  0
    0.2203    6.6112   -0.0205 C   0  0  0  0  0  0  0  0  0  0  0  0
   -0.3418    5.7657    0.9818 C   0  0  0  0  0  0  0  0  0  0  0  0
   -0.8694    6.4204    2.1502 N   0  0  0  0  0  0  0  0  0  0  0  0
   -1.4748    7.7304    1.9716 C   0  0  0  0  0  0  0  0  0  0  0  0
   -2.3237    7.8127    0.8157 C   0  0  0  0  0  0  0  0  0  0  0  0
   -2.9477    9.0760    0.6233 C   0  0  0  0  0  0  0  0  0  0  0  0
   -2.7756   10.1129    1.3691 C   0  0  0  0  0  0  0  0  0  0  0  0
   -3.6861   11.5935    0.9470 S   0  0  0  0  0  0  0  0  0  0  0  0
   -5.3766   11.4604    1.6298 C   0  0  0  0  0  0  0  0  0  0  0  0
   -1.9593   10.0609    2.4759 C   0  0  0  0  0  0  0  0  0  0  0  0
   -1.3171    8.8493    2.7720 C   0  0  0  0  0  0  0  0  0  0  0  0
   -1.1089    5.8095    3.3654 C   0  0  0  0  0  0  0  0  0  0  0  0
   -0.7164    6.1671    4.6226 C   0  0  0  0  0  0  0  0  0  0  0  0
   -1.1162    5.5923    5.8208 C   0  0  0  0  0  0  0  0  0  0  0  0
   -2.0199    4.5691    5.7805 C   0  0  0  0  0  0  0  0  0  0  0  0
   -2.5877    3.8328    7.3065 S   0  0  0  0  0  0  0  0  0  0  0  0
   -4.1124    4.7155    7.8424 C   0  0  0  0  0  0  0  0  0  0  0  0
   -2.4712    4.1902    4.5124 C   0  0  0  0  0  0  0  0  0  0  0  0
   -2.0603    4.7388    3.3581 C   0  0  0  0  0  0  0  0  0  0  0  0
   -0.6704    4.5491    0.5454 C   0  0  0  0  0  0  0  0  0  0  0  0
   -0.8599    2.9511    1.2927 S   0  0  0  0  0  0  0  0  0  0  0  0
   -0.7423    1.9867   -0.1410 C   0  0  0  0  0  0  0  0  0  0  0  0
   -0.6050    2.9172   -1.1054 C   0  0  0  0  0  0  0  0  0  0  0  0
   -1.0529    2.4947   -2.4588 N   0  0  0  0  0  0  0  0  0  0  0  0
   -0.5611    2.4064   -3.7016 C   0  0  0  0  0  0  0  0  0  0  0  0
   -0.7134    1.2220   -4.4548 C   0  0  0  0  0  0  0  0  0  0  0  0
   -0.4573    1.1121   -5.8249 C   0  0  0  0  0  0  0  0  0  0  0  0
   -0.0235    2.3194   -6.4703 C   0  0  0  0  0  0  0  0  0  0  0  0
    0.2987    2.3390   -8.2529 S   0  0  0  0  0  0  0  0  0  0  0  0
   -1.3245    2.7474   -9.0636 C   0  0  0  0  0  0  0  0  0  0  0  0
    0.1381    3.4615   -5.7381 C   0  0  0  0  0  0  0  0  0  0  0  0
   -0.1082    3.5286   -4.4074 C   0  0  0  0  0  0  0  0  0  0  0  0
   -2.5926    2.3536   -2.4467 C   0  0  0  0  0  0  0  0  0  0  0  0
   -3.2982    1.3517   -2.7616 C   0  0  0  0  0  0  0  0  0  0  0  0
   -4.6971    1.3159   -2.8819 C   0  0  0  0  0  0  0  0  0  0  0  0
   -5.3553    2.5432   -2.6161 C   0  0  0  0  0  0  0  0  0  0  0  0
   -7.1432    2.6277   -2.7316 S   0  0  0  0  0  0  0  0  0  0  0  0
   -7.9615    2.2366   -1.2074 C   0  0  0  0  0  0  0  0  0  0  0  0
   -4.6256    3.5733   -2.3018 C   0  0  0  0  0  0  0  0  0  0  0  0
   -3.2173    3.6146   -2.1668 C   0  0  0  0  0  0  0  0  0  0  0  0
   -0.5497    4.2002   -0.7170 C   0  0  0  0  0  0  0  0  0  0  0  0
    0.1655    5.6972   -1.4162 S   0  0  0  0  0  0  0  0  0  0  0  0
   -0.4686    0.5570   -0.1570 C   0  0  0  0  0  0  0  0  0  0  0  0
    0.5160    0.1450   -1.0685 C   0  0  0  0  0  0  0  0  0  0  0  0
    1.1221    1.0657   -1.8828 F   0  0  0  0  0  0  0  0  0  0  0  0
    1.0106   -1.1083   -1.1117 C   0  0  0  0  0  0  0  0  0  0  0  0
    1.9938   -1.4906   -1.9851 F   0  0  0  0  0  0  0  0  0  0  0  0
    0.5087   -2.0439   -0.1822 C   0  0  0  0  0  0  0  0  0  0  0  0
   -0.4263   -1.6869    0.6850 C   0  0  0  0  0  0  0  0  0  0  0  0
   -0.8553   -2.5735    1.5854 N   0  0  0  0  0  0  0  0  0  0  0  0
   -1.7834   -2.1680    2.5028 C   0  0  0  0  0  0  0  0  0  0  0  0
   -2.1792   -3.0916    3.6177 C   0  0  0  0  0  0  0  0  0  0  0  0
   -1.2849   -2.7746    4.8537 C   0  0  0  0  0  0  0  0  0  0  0  0
   -2.3020   -0.9134    2.5202 C   0  0  0  0  0  0  0  0  0  0  0  0
   -1.8716   -0.0231    1.6190 N   0  0  0  0  0  0  0  0  0  0  0  0
   -0.9206   -0.3742    0.6824 C   0  0  0  0  0  0  0  0  0  0  0  0
   -3.4185   -0.4692    3.4154 C   0  0  0  0  0  0  0  0  0  0  0  0
   -4.7728   -0.8976    2.9355 C   0  0  0  0  0  0  0  0  0  0  0  0
    1.0664   -3.4518   -0.3875 C   0  0  0  0  0  0  0  0  0  0  0  0
    0.4297   -4.6055   -0.2309 C   0  0  0  0  0  0  0  0  0  0  0  0
    0.9462   -5.7245   -0.7490 C   0  0  0  0  0  0  0  0  0  0  0  0
    0.3371   -6.9371   -0.9714 C   0  0  0  0  0  0  0  0  0  0  0  0
   -0.9304   -7.3302   -0.2995 C   0  0  0  0  0  0  0  0  0  0  0  0
   -1.6994   -6.9550    0.6811 C   0  0  0  0  0  0  0  0  0  0  0  0
   -2.8302   -7.5603    0.9618 C   0  0  0  0  0  0  0  0  0  0  0  0
   -3.3943   -8.5280    0.4243 C   0  0  0  0  0  0  0  0  0  0  0  0
   -4.5343   -9.4755    0.3344 C   0  0  0  0  0  0  0  0  0  0  0  0
   -5.3782   -9.3454    1.5271 C   0  0  0  0  0  0  0  0  0  0  0  0
   -1.9491   -8.8688   -1.0126 Se  0  0  0  0  0  2  0  0  0  0  0  0
    0.9124   -7.9000   -1.8256 C   0  0  0  0  0  0  0  0  0  0  0  0
    2.0749   -7.7634   -2.4352 C   0  0  0  0  0  0  0  0  0  0  0  0
    2.7360   -6.5307   -2.1955 C   0  0  0  0  0  0  0  0  0  0  0  0
    4.0860   -6.3382   -2.7396 C   0  0  0  0  0  0  0  0  0  0  0  0
    5.0750   -7.2641   -2.9608 C   0  0  0  0  0  0  0  0  0  0  0  0
    6.1972   -6.9446   -3.5923 C   0  0  0  0  0  0  0  0  0  0  0  0
    6.4921   -5.7326   -4.0783 C   0  0  0  0  0  0  0  0  0  0  0  0
    7.4967   -4.9739   -4.7349 C   0  0  0  0  0  0  0  0  0  0  0  0
    8.1779   -3.9144   -3.8329 C   0  0  0  0  0  0  0  0  0  0  0  0
    4.8306   -4.8247   -3.5284 Se  0  0  0  0  0  2  0  0  0  0  0  0
    2.1557   -5.5756   -1.3934 C   0  0  0  0  0  0  0  0  0  0  0  0
    2.4711   -3.8750   -1.2239 S   0  0  0  0  0  0  0  0  0  0  0  0
    2.3730   -8.4967   -3.5678 C   0  0  0  0  0  0  0  0  0  0  0  0
    1.4012   -9.3083   -3.9718 C   0  0  0  0  0  0  0  0  0  0  0  0
    0.1118   -9.1230   -2.8064 S   0  0  0  0  0  0  0  0  0  0  0  0
    1.1395   -9.9288   -5.3410 C   0  0  0  0  0  0  0  0  0  0  0  0
    0.3258   -9.3027   -6.1622 C   0  0  0  0  0  0  0  0  0  0  0  0
    0.0731   -9.9549   -7.4850 C   0  0  0  0  0  0  0  0  0  0  0  0
    0.7264  -10.9045   -7.8115 O   0  0  0  0  0  0  0  0  0  0  0  0
   -0.9694   -9.3556   -8.2618 N   0  0  0  0  0  0  0  0  0  0  0  0
   -1.0543   -9.9923   -9.5957 C   0  0  0  0  0  0  0  0  0  0  0  0
   -1.8028  -11.2796   -9.4623 C   0  0  0  0  0  0  0  0  0  0  0  0
   -1.7602   -8.2905   -7.9925 C   0  0  0  0  0  0  0  0  0  0  0  0
   -2.6878   -7.7131   -8.5842 O   0  0  0  0  0  0  0  0  0  0  0  0
   -1.4933   -7.6191   -6.6273 C   0  0  0  0  0  0  0  0  0  0  0  0
   -0.4910   -8.2028   -5.9097 C   0  0  0  0  0  0  0  0  0  0  0  0
    0.0684   -7.1211   -4.9215 C   0  0  0  0  0  0  0  0  0  0  0  0
   -1.9967   -6.4754   -6.2605 C   0  0  0  0  0  0  0  0  0  0  0  0
   -2.5665   -5.1745   -5.8278 N   0  0  0  0  0  0  0  0  0  0  0  0
    0.7713    8.7662   -0.2644 H   0  0  0  0  0  0  0  0  0  0  0  0
    4.1855   10.5300    3.5784 H   0  0  0  0  0  0  0  0  0  0  0  0
    3.0575    5.9771    4.9681 H   0  0  0  0  0  0  0  0  0  0  0  0
    3.7422    7.9677    7.6415 H   0  0  0  0  0  0  0  0  0  0  0  0
    5.4202    6.0940    7.8691 H   0  0  0  0  0  0  0  0  0  0  0  0
    6.0395    5.3978    5.4162 H   0  0  0  0  0  0  0  0  0  0  0  0
    6.9678    7.4176    4.1747 H   0  0  0  0  0  0  0  0  0  0  0  0
    7.3613    9.3564    6.0409 H   0  0  0  0  0  0  0  0  0  0  0  0
    7.6706    7.2887    7.5697 H   0  0  0  0  0  0  0  0  0  0  0  0
    6.4763    8.4104    8.3736 H   0  0  0  0  0  0  0  0  0  0  0  0
    4.9709    9.9735    6.9329 H   0  0  0  0  0  0  0  0  0  0  0  0
   -2.4575    7.0021    0.1809 H   0  0  0  0  0  0  0  0  0  0  0  0
   -3.5463    9.1482   -0.3618 H   0  0  0  0  0  0  0  0  0  0  0  0
   -5.7192   12.4688    2.0035 H   0  0  0  0  0  0  0  0  0  0  0  0
   -5.4109   10.7636    2.5045 H   0  0  0  0  0  0  0  0  0  0  0  0
   -6.1209   11.1472    0.8694 H   0  0  0  0  0  0  0  0  0  0  0  0
   -1.8155   10.8872    3.1074 H   0  0  0  0  0  0  0  0  0  0  0  0
   -0.7110    8.7578    3.6158 H   0  0  0  0  0  0  0  0  0  0  0  0
    0.0599    6.9568    4.6656 H   0  0  0  0  0  0  0  0  0  0  0  0
   -0.7567    5.9381    6.7509 H   0  0  0  0  0  0  0  0  0  0  0  0
   -4.9702    3.9839    7.6801 H   0  0  0  0  0  0  0  0  0  0  0  0
   -4.0722    4.8602    8.9360 H   0  0  0  0  0  0  0  0  0  0  0  0
   -4.2873    5.6700    7.2796 H   0  0  0  0  0  0  0  0  0  0  0  0
   -3.1743    3.3396    4.5370 H   0  0  0  0  0  0  0  0  0  0  0  0
   -2.5313    4.4561    2.4253 H   0  0  0  0  0  0  0  0  0  0  0  0
   -1.0371    0.2830   -4.0170 H   0  0  0  0  0  0  0  0  0  0  0  0
   -0.5821    0.2627   -6.3909 H   0  0  0  0  0  0  0  0  0  0  0  0
   -1.9288    3.3983   -8.4233 H   0  0  0  0  0  0  0  0  0  0  0  0
   -1.2008    3.1488  -10.0746 H   0  0  0  0  0  0  0  0  0  0  0  0
   -1.8857    1.7387   -9.1553 H   0  0  0  0  0  0  0  0  0  0  0  0
    0.4832    4.3101   -6.3158 H   0  0  0  0  0  0  0  0  0  0  0  0
   -0.0465    4.4786   -3.9266 H   0  0  0  0  0  0  0  0  0  0  0  0
   -2.8441    0.3333   -2.9251 H   0  0  0  0  0  0  0  0  0  0  0  0
   -5.2847    0.4417   -3.1155 H   0  0  0  0  0  0  0  0  0  0  0  0
   -9.0475    2.1726   -1.4192 H   0  0  0  0  0  0  0  0  0  0  0  0
   -7.6238    1.2513   -0.7521 H   0  0  0  0  0  0  0  0  0  0  0  0
   -7.7767    2.9769   -0.3762 H   0  0  0  0  0  0  0  0  0  0  0  0
   -5.1298    4.5869   -2.0917 H   0  0  0  0  0  0  0  0  0  0  0  0
   -2.6682    4.4825   -1.8753 H   0  0  0  0  0  0  0  0  0  0  0  0
   -1.9384   -4.0852    3.3476 H   0  0  0  0  0  0  0  0  0  0  0  0
   -3.2011   -2.9713    3.9531 H   0  0  0  0  0  0  0  0  0  0  0  0
   -1.8287   -2.1549    5.5659 H   0  0  0  0  0  0  0  0  0  0  0  0
   -1.2058   -3.7795    5.3792 H   0  0  0  0  0  0  0  0  0  0  0  0
   -0.3405   -2.3424    4.5828 H   0  0  0  0  0  0  0  0  0  0  0  0
   -3.4250    0.6243    3.4843 H   0  0  0  0  0  0  0  0  0  0  0  0
   -3.3128   -0.8700    4.3983 H   0  0  0  0  0  0  0  0  0  0  0  0
   -5.5246   -0.9691    3.7465 H   0  0  0  0  0  0  0  0  0  0  0  0
   -5.2105   -0.2598    2.1137 H   0  0  0  0  0  0  0  0  0  0  0  0
   -4.6771   -1.9525    2.4461 H   0  0  0  0  0  0  0  0  0  0  0  0
   -0.5307   -4.6406    0.3566 H   0  0  0  0  0  0  0  0  0  0  0  0
   -1.3760   -6.0861    1.3811 H   0  0  0  0  0  0  0  0  0  0  0  0
   -3.4644   -7.1003    1.8980 H   0  0  0  0  0  0  0  0  0  0  0  0
   -5.0985   -9.2189   -0.5979 H   0  0  0  0  0  0  0  0  0  0  0  0
   -4.1366  -10.5328    0.1964 H   0  0  0  0  0  0  0  0  0  0  0  0
   -4.7727   -8.8631    2.3748 H   0  0  0  0  0  0  0  0  0  0  0  0
   -5.6727  -10.3668    1.9387 H   0  0  0  0  0  0  0  0  0  0  0  0
   -6.2847   -8.7761    1.3487 H   0  0  0  0  0  0  0  0  0  0  0  0
    4.9081   -8.3328   -2.6281 H   0  0  0  0  0  0  0  0  0  0  0  0
    7.0038   -7.7307   -3.7139 H   0  0  0  0  0  0  0  0  0  0  0  0
    8.2783   -5.6918   -5.0974 H   0  0  0  0  0  0  0  0  0  0  0  0
    7.1478   -4.4610   -5.6505 H   0  0  0  0  0  0  0  0  0  0  0  0
    8.4738   -4.2746   -2.8728 H   0  0  0  0  0  0  0  0  0  0  0  0
    7.3495   -3.0730   -3.7469 H   0  0  0  0  0  0  0  0  0  0  0  0
    9.0126   -3.4491   -4.3378 H   0  0  0  0  0  0  0  0  0  0  0  0
    3.3002   -8.4891   -4.1045 H   0  0  0  0  0  0  0  0  0  0  0  0
    1.6423  -10.8232   -5.6212 H   0  0  0  0  0  0  0  0  0  0  0  0
   -0.0406  -10.1151   -9.9582 H   0  0  0  0  0  0  0  0  0  0  0  0
   -1.6615   -9.3351  -10.2421 H   0  0  0  0  0  0  0  0  0  0  0  0
   -2.6110  -11.1490   -8.7308 H   0  0  0  0  0  0  0  0  0  0  0  0
   -2.2030  -11.7119  -10.3792 H   0  0  0  0  0  0  0  0  0  0  0  0
   -1.0914  -12.0262   -8.9753 H   0  0  0  0  0  0  0  0  0  0  0  0
    1.1322   -7.0946   -4.9682 H   0  0  0  0  0  0  0  0  0  0  0  0
   -0.1202   -6.1188   -5.5653 H   0  0  0  0  0  0  0  0  0  0  0  0
   -0.5700   -6.9687   -4.1274 H   0  0  0  0  0  0  0  0  0  0  0  0
  1  2  2  3
  2  3  1  0
  3  4  2  0
  3  5  1  0
  5  6  2  0
  6  7  1  0
  7  8  2  0
  8  9  1  0
  9 10  2  0
 10 11  1  0
 11 12  2  3
 12 13  1  0
 13 14  3  0
 12 15  1  0
 15 16  3  0
  8 17  1  0
 17 18  1  0
 18 19  1  0
 19 20  2  0
 20 21  1  0
 21 22  1  0
 21 23  1  0
  1 24  1  0
 24 25  2  0
 25 26  1  0
 26 27  1  0
 27 28  2  0
 28 29  1  0
 29 30  2  0
 30 31  1  0
 31 32  1  0
 30 33  1  0
 33 34  2  0
 26 35  1  0
 35 36  2  0
 36 37  1  0
 37 38  2  0
 38 39  1  0
 39 40  1  0
 38 41  1  0
 41 42  2  0
 25 43  1  0
 43 44  1  0
 44 45  1  0
 45 46  2  0
 46 47  1  0
 47 48  1  0
 48 49  2  0
 49 50  1  0
 50 51  2  0
 51 52  1  0
 52 53  1  0
 51 54  1  0
 54 55  2  0
 47 56  1  0
 56 57  2  0
 57 58  1  0
 58 59  2  0
 59 60  1  0
 60 61  1  0
 59 62  1  0
 62 63  2  0
 46 64  1  0
 64 65  1  0
 45 66  1  0
 66 67  2  0
 67 68  1  0
 67 69  1  0
 69 70  1  0
 69 71  2  0
 71 72  1  0
 72 73  2  0
 73 74  1  0
 74 75  1  0
 75 76  1  0
 74 77  2  0
 77 78  1  0
 78 79  2  0
 77 80  1  0
 80 81  1  0
 71 82  1  0
 82 83  2  0
 83 84  1  0
 84 85  2  0
 85 86  1  0
 86 87  2  0
 87 88  1  0
 88 89  2  0
 89 90  1  0
 90 91  1  0
 89 92  1  0
 85 93  1  0
 93 94  2  0
 94 95  1  0
 95 96  1  0
 96 97  2  0
 97 98  1  0
 98 99  2  0
 99100  1  0
100101  1  0
 99102  1  0
 95103  2  0
103104  1  0
 94105  1  0
105106  2  0
106107  1  0
106108  1  0
108109  2  3
109110  1  0
110111  2  0
110112  1  0
112113  1  0
113114  1  0
112115  1  0
115116  2  0
115117  1  0
117118  2  0
118119  1  0
117120  1  0
120121  3  0
 11  2  1  0
 23 17  1  0
 65 24  1  0
 79 66  1  0
104 82  1  0
118109  1  0
 10  5  1  0
 22 18  1  0
 34 27  1  0
 42 35  1  0
 64 43  2  0
 79 72  1  0
103 84  1  0
 23  7  1  0
 55 48  1  0
 63 56  1  0
 92 86  1  0
107 93  1  0
102 96  1  0
  1122  1  0
  6123  1  0
  9124  1  0
 17125  1  0
 18126  1  0
 19127  1  0
 20128  1  0
 21129  1  0
 22130  1  0
 22131  1  0
 23132  1  0
 28133  1  0
 29134  1  0
 32135  1  0
 32136  1  0
 32137  1  0
 33138  1  0
 34139  1  0
 36140  1  0
 37141  1  0
 40142  1  0
 40143  1  0
 40144  1  0
 41145  1  0
 42146  1  0
 49147  1  0
 50148  1  0
 53149  1  0
 53150  1  0
 53151  1  0
 54152  1  0
 55153  1  0
 57154  1  0
 58155  1  0
 61156  1  0
 61157  1  0
 61158  1  0
 62159  1  0
 63160  1  0
 75161  1  0
 75162  1  0
 76163  1  0
 76164  1  0
 76165  1  0
 80166  1  0
 80167  1  0
 81168  1  0
 81169  1  0
 81170  1  0
 83171  1  0
 87172  1  0
 88173  1  0
 90174  1  0
 90175  1  0
 91176  1  0
 91177  1  0
 91178  1  0
 97179  1  0
 98180  1  0
100181  1  0
100182  1  0
101183  1  0
101184  1  0
101185  1  0
105186  1  0
108187  1  0
113188  1  0
113189  1  0
114190  1  0
114191  1  0
114192  1  0
119193  1  0
119194  1  0
119195  1  0
M  END

