
     RDKit          3D

159175  0  0  0  0  0  0  0  0999 V2000
   -1.1451   -5.7661   -3.2763 C   0  0  0  0  0  0  0  0  0  0  0  0
   -2.1496   -5.3604   -4.0668 C   0  0  0  0  0  0  0  0  0  0  0  0
   -2.5460   -3.9563   -4.2645 C   0  0  0  0  0  0  0  0  0  0  0  0
   -1.7908   -2.9541   -4.1762 O   0  0  0  0  0  0  0  0  0  0  0  0
   -3.9619   -3.9055   -4.5488 C   0  0  0  0  0  0  0  0  0  0  0  0
   -4.7791   -2.7494   -4.5923 C   0  0  0  0  0  0  0  0  0  0  0  0
   -6.1329   -3.0246   -4.6187 C   0  0  0  0  0  0  0  0  0  0  0  0
   -6.6621   -4.3523   -4.6015 C   0  0  0  0  0  0  0  0  0  0  0  0
   -5.8671   -5.4847   -4.5841 C   0  0  0  0  0  0  0  0  0  0  0  0
   -4.4660   -5.2282   -4.5828 C   0  0  0  0  0  0  0  0  0  0  0  0
   -3.3322   -6.1856   -4.4518 C   0  0  0  0  0  0  0  0  0  0  0  0
   -3.3229   -7.4939   -4.8012 C   0  0  0  0  0  0  0  0  0  0  0  0
   -4.5008   -8.1600   -5.2896 C   0  0  0  0  0  0  0  0  0  0  0  0
   -5.4395   -8.7137   -5.6783 N   0  0  0  0  0  0  0  0  0  0  0  0
   -2.1068   -8.2577   -4.8395 C   0  0  0  0  0  0  0  0  0  0  0  0
   -1.1274   -8.8722   -4.8789 N   0  0  0  0  0  0  0  0  0  0  0  0
   -8.0577   -3.8115   -4.5123 C   0  0  0  0  0  0  0  0  0  0  0  0
   -8.7710   -3.8682   -3.1207 C   0  0  0  0  0  0  0  0  0  0  0  0
   -7.7542   -3.7462   -2.0094 C   0  0  0  0  0  0  0  0  0  0  0  0
   -7.2789   -2.4989   -2.0672 C   0  0  0  0  0  0  0  0  0  0  0  0
   -7.9838   -1.8208   -3.2173 C   0  0  0  0  0  0  0  0  0  0  0  0
   -9.3486   -2.4702   -3.0702 C   0  0  0  0  0  0  0  0  0  0  0  0
   -7.5202   -2.4480   -4.5652 C   0  0  0  0  0  0  0  0  0  0  0  0
   -0.3410   -4.8192   -2.4946 C   0  0  0  0  0  0  0  0  0  0  0  0
   -0.7587   -4.4570   -1.2048 C   0  0  0  0  0  0  0  0  0  0  0  0
   -0.1011   -3.4416   -0.4734 C   0  0  0  0  0  0  0  0  0  0  0  0
   -0.6959   -3.1337    0.7936 N   0  0  0  0  0  0  0  0  0  0  0  0
   -1.9254   -4.1548    0.7957 S   0  0  0  0  0  4  0  0  0  0  0  0
   -1.9170   -5.0031   -0.5596 N   0  0  0  0  0  0  0  0  0  0  0  0
    1.0024   -2.7692   -1.0014 C   0  0  0  0  0  0  0  0  0  0  0  0
    1.4479   -3.1401   -2.2817 C   0  0  0  0  0  0  0  0  0  0  0  0
    2.4990   -2.5353   -2.8971 N   0  0  0  0  0  0  0  0  0  0  0  0
    2.4865   -3.3187   -4.3559 S   0  0  0  0  0  0  0  0  0  0  0  0
    1.2358   -4.3992   -4.2894 N   0  0  0  0  0  0  0  0  0  0  0  0
    0.7660   -4.1538   -3.0367 C   0  0  0  0  0  0  0  0  0  0  0  0
    1.5963   -1.6307   -0.2819 C   0  0  0  0  0  0  0  0  0  0  0  0
    1.1639   -0.3066   -0.4079 C   0  0  0  0  0  0  0  0  0  0  0  0
    0.0549    0.1199   -1.2145 N   0  0  0  0  0  0  0  0  0  0  0  0
    0.3431    0.7057   -2.4921 C   0  0  0  0  0  0  0  0  0  0  0  0
    0.7032    2.0594   -2.5872 C   0  0  0  0  0  0  0  0  0  0  0  0
    0.9858    2.6216   -3.8347 C   0  0  0  0  0  0  0  0  0  0  0  0
    0.9028    1.8365   -4.9959 C   0  0  0  0  0  0  0  0  0  0  0  0
    1.2290    2.5627   -6.6026 S   0  0  0  0  0  0  0  0  0  0  0  0
   -0.5230    2.9163   -6.9313 C   0  0  0  0  0  0  0  0  0  0  0  0
    0.5765    0.4800   -4.8971 C   0  0  0  0  0  0  0  0  0  0  0  0
    0.3001   -0.0823   -3.6503 C   0  0  0  0  0  0  0  0  0  0  0  0
   -1.2997    0.0428   -0.7062 C   0  0  0  0  0  0  0  0  0  0  0  0
   -1.5511    0.0810    0.6823 C   0  0  0  0  0  0  0  0  0  0  0  0
   -2.8520   -0.0097    1.1689 C   0  0  0  0  0  0  0  0  0  0  0  0
   -3.9248   -0.1540    0.2865 C   0  0  0  0  0  0  0  0  0  0  0  0
   -5.5906   -0.3087    0.9254 S   0  0  0  0  0  0  0  0  0  0  0  0
   -5.4221   -2.0890    1.2524 C   0  0  0  0  0  0  0  0  0  0  0  0
   -3.6955   -0.1797   -1.0925 C   0  0  0  0  0  0  0  0  0  0  0  0
   -2.3940   -0.0714   -1.5886 C   0  0  0  0  0  0  0  0  0  0  0  0
    1.8065    0.5073    0.5066 C   0  0  0  0  0  0  0  0  0  0  0  0
    1.6148    2.1038    0.9500 S   0  0  0  0  0  0  0  0  0  0  0  0
    2.7030    2.0131    2.2591 C   0  0  0  0  0  0  0  0  0  0  0  0
    3.2167    0.7051    2.3349 C   0  0  0  0  0  0  0  0  0  0  0  0
    4.0974    0.2267    3.3603 N   0  0  0  0  0  0  0  0  0  0  0  0
    5.5324    0.2284    3.1651 C   0  0  0  0  0  0  0  0  0  0  0  0
    6.4009    0.2542    4.2701 C   0  0  0  0  0  0  0  0  0  0  0  0
    7.7878    0.2765    4.0844 C   0  0  0  0  0  0  0  0  0  0  0  0
    8.3266    0.2771    2.7948 C   0  0  0  0  0  0  0  0  0  0  0  0
   10.1100    0.3097    2.5639 S   0  0  0  0  0  0  0  0  0  0  0  0
   10.2688   -1.5051    2.5773 C   0  0  0  0  0  0  0  0  0  0  0  0
    7.4742    0.2765    1.6872 C   0  0  0  0  0  0  0  0  0  0  0  0
    6.0885    0.2469    1.8688 C   0  0  0  0  0  0  0  0  0  0  0  0
    3.5088   -0.3984    4.5151 C   0  0  0  0  0  0  0  0  0  0  0  0
    3.7699   -1.7510    4.7931 C   0  0  0  0  0  0  0  0  0  0  0  0
    3.1878   -2.3618    5.9099 C   0  0  0  0  0  0  0  0  0  0  0  0
    2.3601   -1.6202    6.7628 C   0  0  0  0  0  0  0  0  0  0  0  0
    1.6153   -2.3984    8.2009 S   0  0  0  0  0  0  0  0  0  0  0  0
    0.0096   -2.6721    7.3824 C   0  0  0  0  0  0  0  0  0  0  0  0
    2.1046   -0.2711    6.4886 C   0  0  0  0  0  0  0  0  0  0  0  0
    2.6632    0.3327    5.3640 C   0  0  0  0  0  0  0  0  0  0  0  0
    2.6749   -0.1122    1.3393 C   0  0  0  0  0  0  0  0  0  0  0  0
    2.7254   -1.7592    0.9897 S   0  0  0  0  0  0  0  0  0  0  0  0
    3.0665    3.1991    3.0432 C   0  0  0  0  0  0  0  0  0  0  0  0
    4.3285    3.7873    2.8774 C   0  0  0  0  0  0  0  0  0  0  0  0
    4.5248    5.1456    2.9722 C   0  0  0  0  0  0  0  0  0  0  0  0
    5.7322    5.4368    2.4597 N   0  0  0  0  0  0  0  0  0  0  0  0
    6.2433    4.2623    2.0954 N   0  0  0  0  0  0  0  0  0  0  0  0
    7.5120    4.1181    1.4043 C   0  0  0  0  0  0  0  0  0  0  0  0
    7.2946    3.6495   -0.0269 C   0  0  0  0  0  0  0  0  0  0  0  0
    5.4086    3.2489    2.2970 N   0  0  0  0  0  0  0  0  0  0  0  0
    3.4733    6.0369    3.2526 C   0  0  0  0  0  0  0  0  0  0  0  0
    2.2474    5.4405    3.6120 C   0  0  0  0  0  0  0  0  0  0  0  0
    0.9296    6.0554    3.7991 C   0  0  0  0  0  0  0  0  0  0  0  0
    0.6929    7.2914    3.8355 O   0  0  0  0  0  0  0  0  0  0  0  0
   -0.0797    5.0516    3.8709 N   0  0  0  0  0  0  0  0  0  0  0  0
   -1.5256    5.2416    3.8276 C   0  0  0  0  0  0  0  0  0  0  0  0
   -2.0385    5.0746    2.3929 C   0  0  0  0  0  0  0  0  0  0  0  0
    0.6191    3.8187    3.7010 C   0  0  0  0  0  0  0  0  0  0  0  0
    0.0557    2.6921    3.6738 O   0  0  0  0  0  0  0  0  0  0  0  0
    2.0565    4.0567    3.5314 C   0  0  0  0  0  0  0  0  0  0  0  0
    3.5482    7.4449    2.8351 C   0  0  0  0  0  0  0  0  0  0  0  0
    3.1539    7.8582    1.6155 C   0  0  0  0  0  0  0  0  0  0  0  0
    3.1351    9.2809    1.3525 C   0  0  0  0  0  0  0  0  0  0  0  0
    3.1239   10.4140    1.1280 N   0  0  0  0  0  0  0  0  0  0  0  0
    2.7172    6.9515    0.5203 C   0  0  0  0  0  0  0  0  0  0  0  0
    3.0204    5.7239    0.5353 O   0  0  0  0  0  0  0  0  0  0  0  0
    1.9975    7.4733   -0.5649 O   0  0  0  0  0  0  0  0  0  0  0  0
    1.5304    6.6698   -1.6484 C   0  0  0  0  0  0  0  0  0  0  0  0
    0.3491    5.8090   -1.2062 C   0  0  0  0  0  0  0  0  0  0  0  0
   -1.0965   -6.8013   -2.9640 H   0  0  0  0  0  0  0  0  0  0  0  0
   -4.3814   -1.7388   -4.5323 H   0  0  0  0  0  0  0  0  0  0  0  0
   -6.3011   -6.4721   -4.4816 H   0  0  0  0  0  0  0  0  0  0  0  0
   -8.7063   -4.0794   -5.3781 H   0  0  0  0  0  0  0  0  0  0  0  0
   -9.5025   -4.6966   -2.9934 H   0  0  0  0  0  0  0  0  0  0  0  0
   -7.4894   -4.4944   -1.2705 H   0  0  0  0  0  0  0  0  0  0  0  0
   -6.5511   -2.0574   -1.3912 H   0  0  0  0  0  0  0  0  0  0  0  0
   -7.9762   -0.7081   -3.1792 H   0  0  0  0  0  0  0  0  0  0  0  0
  -10.0451   -2.2368   -3.9142 H   0  0  0  0  0  0  0  0  0  0  0  0
   -9.8477   -2.2342   -2.0994 H   0  0  0  0  0  0  0  0  0  0  0  0
   -7.8209   -1.8803   -5.4783 H   0  0  0  0  0  0  0  0  0  0  0  0
    0.7461    2.6842   -1.7050 H   0  0  0  0  0  0  0  0  0  0  0  0
    1.2670    3.6681   -3.9052 H   0  0  0  0  0  0  0  0  0  0  0  0
   -0.8659    3.7470   -6.2864 H   0  0  0  0  0  0  0  0  0  0  0  0
   -0.6374    3.2108   -7.9954 H   0  0  0  0  0  0  0  0  0  0  0  0
   -1.1460    2.0177   -6.7496 H   0  0  0  0  0  0  0  0  0  0  0  0
    0.5195   -0.1394   -5.7910 H   0  0  0  0  0  0  0  0  0  0  0  0
    0.0313   -1.1302   -3.5828 H   0  0  0  0  0  0  0  0  0  0  0  0
   -0.7433    0.1786    1.3932 H   0  0  0  0  0  0  0  0  0  0  0  0
   -3.0288    0.0297    2.2306 H   0  0  0  0  0  0  0  0  0  0  0  0
   -5.0278   -2.6180    0.3597 H   0  0  0  0  0  0  0  0  0  0  0  0
   -6.4179   -2.5022    1.5100 H   0  0  0  0  0  0  0  0  0  0  0  0
   -4.7265   -2.2520    2.1045 H   0  0  0  0  0  0  0  0  0  0  0  0
   -4.5249   -0.2943   -1.7807 H   0  0  0  0  0  0  0  0  0  0  0  0
   -2.2469   -0.0854   -2.6588 H   0  0  0  0  0  0  0  0  0  0  0  0
    6.0046    0.2713    5.2748 H   0  0  0  0  0  0  0  0  0  0  0  0
    8.4407    0.2982    4.9483 H   0  0  0  0  0  0  0  0  0  0  0  0
    9.6669   -1.9424    1.7678 H   0  0  0  0  0  0  0  0  0  0  0  0
   11.3308   -1.7725    2.4222 H   0  0  0  0  0  0  0  0  0  0  0  0
    9.9359   -1.9084    3.5563 H   0  0  0  0  0  0  0  0  0  0  0  0
    7.8816    0.2916    0.6852 H   0  0  0  0  0  0  0  0  0  0  0  0
    5.4539    0.2567    0.9881 H   0  0  0  0  0  0  0  0  0  0  0  0
    4.4173   -2.3249    4.1423 H   0  0  0  0  0  0  0  0  0  0  0  0
    3.3821   -3.4039    6.1126 H   0  0  0  0  0  0  0  0  0  0  0  0
   -0.6523   -3.2371    8.0779 H   0  0  0  0  0  0  0  0  0  0  0  0
   -0.4584   -1.6960    7.1483 H   0  0  0  0  0  0  0  0  0  0  0  0
    0.1502   -3.2602    6.4508 H   0  0  0  0  0  0  0  0  0  0  0  0
    1.4778    0.3030    7.1505 H   0  0  0  0  0  0  0  0  0  0  0  0
    2.4428    1.3713    5.1580 H   0  0  0  0  0  0  0  0  0  0  0  0
    8.0519    5.0894    1.4045 H   0  0  0  0  0  0  0  0  0  0  0  0
    8.1428    3.3815    1.9456 H   0  0  0  0  0  0  0  0  0  0  0  0
    6.7912    2.6650   -0.0288 H   0  0  0  0  0  0  0  0  0  0  0  0
    8.2660    3.5606   -0.5528 H   0  0  0  0  0  0  0  0  0  0  0  0
    6.6583    4.3890   -0.5688 H   0  0  0  0  0  0  0  0  0  0  0  0
   -1.7827    6.2605    4.1996 H   0  0  0  0  0  0  0  0  0  0  0  0
   -2.0188    4.5040    4.4904 H   0  0  0  0  0  0  0  0  0  0  0  0
   -3.1354    5.2665    2.3725 H   0  0  0  0  0  0  0  0  0  0  0  0
   -1.5316    5.7846    1.7112 H   0  0  0  0  0  0  0  0  0  0  0  0
   -1.8586    4.0281    2.0533 H   0  0  0  0  0  0  0  0  0  0  0  0
    3.8774    8.1761    3.5770 H   0  0  0  0  0  0  0  0  0  0  0  0
    2.3473    6.0275   -2.0401 H   0  0  0  0  0  0  0  0  0  0  0  0
    1.1960    7.3463   -2.4646 H   0  0  0  0  0  0  0  0  0  0  0  0
   -0.4273    6.4464   -0.7319 H   0  0  0  0  0  0  0  0  0  0  0  0
   -0.0990    5.3006   -2.0913 H   0  0  0  0  0  0  0  0  0  0  0  0
    0.6769    5.0317   -0.4792 H   0  0  0  0  0  0  0  0  0  0  0  0
  1  2  2  3
  2  3  1  0
  3  4  2  0
  3  5  1  0
  5  6  2  0
  6  7  1  0
  7  8  2  0
  8  9  1  0
  9 10  2  0
 10 11  1  0
 11 12  2  3
 12 13  1  0
 13 14  3  0
 12 15  1  0
 15 16  3  0
  8 17  1  0
 17 18  1  0
 18 19  1  0
 19 20  2  0
 20 21  1  0
 21 22  1  0
 21 23  1  0
  1 24  1  0
 24 25  2  0
 25 26  1  0
 26 27  1  0
 27 28  2  0
 28 29  2  0
 26 30  2  0
 30 31  1  0
 31 32  2  0
 32 33  1  0
 33 34  1  0
 34 35  2  0
 30 36  1  0
 36 37  2  0
 37 38  1  0
 38 39  1  0
 39 40  2  0
 40 41  1  0
 41 42  2  0
 42 43  1  0
 43 44  1  0
 42 45  1  0
 45 46  2  0
 38 47  1  0
 47 48  2  0
 48 49  1  0
 49 50  2  0
 50 51  1  0
 51 52  1  0
 50 53  1  0
 53 54  2  0
 37 55  1  0
 55 56  1  0
 56 57  1  0
 57 58  2  0
 58 59  1  0
 59 60  1  0
 60 61  2  0
 61 62  1  0
 62 63  2  0
 63 64  1  0
 64 65  1  0
 63 66  1  0
 66 67  2  0
 59 68  1  0
 68 69  2  0
 69 70  1  0
 70 71  2  0
 71 72  1  0
 72 73  1  0
 71 74  1  0
 74 75  2  0
 58 76  1  0
 76 77  1  0
 57 78  1  0
 78 79  1  0
 79 80  1  0
 80 81  2  0
 81 82  1  0
 82 83  1  0
 83 84  1  0
 82 85  1  0
 80 86  1  0
 86 87  2  0
 87 88  1  0
 88 89  2  0
 88 90  1  0
 90 91  1  0
 91 92  1  0
 90 93  1  0
 93 94  2  0
 93 95  1  0
 86 96  1  0
 96 97  2  3
 97 98  1  0
 98 99  3  0
 97100  1  0
100101  2  0
100102  1  0
102103  1  0
103104  1  0
 11  2  1  0
 23 17  1  0
 35 24  1  0
 77 36  1  0
 95 78  2  0
 10  5  1  0
 22 18  1  0
 29 25  1  0
 35 31  1  0
 46 39  1  0
 54 47  1  0
 76 55  2  0
 85 79  2  0
 95 87  1  0
 23  7  1  0
 67 60  1  0
 75 68  1  0
  1105  1  0
  6106  1  0
  9107  1  0
 17108  1  0
 18109  1  0
 19110  1  0
 20111  1  0
 21112  1  0
 22113  1  0
 22114  1  0
 23115  1  0
 40116  1  0
 41117  1  0
 44118  1  0
 44119  1  0
 44120  1  0
 45121  1  0
 46122  1  0
 48123  1  0
 49124  1  0
 52125  1  0
 52126  1  0
 52127  1  0
 53128  1  0
 54129  1  0
 61130  1  0
 62131  1  0
 65132  1  0
 65133  1  0
 65134  1  0
 66135  1  0
 67136  1  0
 69137  1  0
 70138  1  0
 73139  1  0
 73140  1  0
 73141  1  0
 74142  1  0
 75143  1  0
 83144  1  0
 83145  1  0
 84146  1  0
 84147  1  0
 84148  1  0
 91149  1  0
 91150  1  0
 92151  1  0
 92152  1  0
 92153  1  0
 96154  1  0
103155  1  0
103156  1  0
104157  1  0
104158  1  0
104159  1  0
M  END

