
     RDKit          3D

187207  0  0  0  0  0  0  0  0999 V2000
   -6.3208    0.7267   -3.5825 C   0  0  0  0  0  0  0  0  0  0  0  0
   -7.6267    0.8769   -3.3065 C   0  0  0  0  0  0  0  0  0  0  0  0
   -8.2549    2.1530   -2.9672 C   0  0  0  0  0  0  0  0  0  0  0  0
   -7.6945    3.2826   -2.9875 O   0  0  0  0  0  0  0  0  0  0  0  0
   -9.6671    1.9371   -2.7559 C   0  0  0  0  0  0  0  0  0  0  0  0
  -10.6041    2.8826   -2.2839 C   0  0  0  0  0  0  0  0  0  0  0  0
  -11.8605    2.3574   -2.0508 C   0  0  0  0  0  0  0  0  0  0  0  0
  -12.1874    0.9825   -2.2814 C   0  0  0  0  0  0  0  0  0  0  0  0
  -11.2718    0.0494   -2.7472 C   0  0  0  0  0  0  0  0  0  0  0  0
   -9.9749    0.5735   -3.0100 C   0  0  0  0  0  0  0  0  0  0  0  0
   -8.7250   -0.1402   -3.4202 C   0  0  0  0  0  0  0  0  0  0  0  0
   -8.6161   -1.4560   -3.7537 C   0  0  0  0  0  0  0  0  0  0  0  0
   -9.7616   -2.2751   -4.0565 C   0  0  0  0  0  0  0  0  0  0  0  0
  -10.6706   -2.9443   -4.3136 N   0  0  0  0  0  0  0  0  0  0  0  0
   -7.3533   -2.1465   -3.8401 C   0  0  0  0  0  0  0  0  0  0  0  0
   -6.3491   -2.7194   -3.9056 N   0  0  0  0  0  0  0  0  0  0  0  0
  -13.5926    1.2205   -1.8152 C   0  0  0  0  0  0  0  0  0  0  0  0
  -14.0029    0.6862   -0.4119 C   0  0  0  0  0  0  0  0  0  0  0  0
  -12.8061    0.6754    0.5090 C   0  0  0  0  0  0  0  0  0  0  0  0
  -12.4929    1.9486    0.7376 C   0  0  0  0  0  0  0  0  0  0  0  0
  -13.4862    2.7871   -0.0360 C   0  0  0  0  0  0  0  0  0  0  0  0
  -14.7131    1.9111    0.1360 C   0  0  0  0  0  0  0  0  0  0  0  0
  -13.2541    2.6268   -1.5680 C   0  0  0  0  0  0  0  0  0  0  0  0
   -5.2568    1.6112   -3.0726 C   0  0  0  0  0  0  0  0  0  0  0  0
   -4.9727    1.8184   -1.7058 C   0  0  0  0  0  0  0  0  0  0  0  0
   -5.9079    1.6345   -0.6281 N   0  0  0  0  0  0  0  0  0  0  0  0
   -5.8250    0.4501    0.1906 C   0  0  0  0  0  0  0  0  0  0  0  0
   -5.9422   -0.8254   -0.3832 C   0  0  0  0  0  0  0  0  0  0  0  0
   -5.9467   -1.9685    0.4216 C   0  0  0  0  0  0  0  0  0  0  0  0
   -5.7840   -1.8506    1.8065 C   0  0  0  0  0  0  0  0  0  0  0  0
   -5.8163   -3.3100    2.8532 S   0  0  0  0  0  0  0  0  0  0  0  0
   -4.0391   -3.6472    2.6448 C   0  0  0  0  0  0  0  0  0  0  0  0
   -5.6346   -0.5842    2.3842 C   0  0  0  0  0  0  0  0  0  0  0  0
   -5.6689    0.5593    1.5836 C   0  0  0  0  0  0  0  0  0  0  0  0
   -6.7381    2.7408   -0.2083 C   0  0  0  0  0  0  0  0  0  0  0  0
   -6.3047    4.0770   -0.3545 C   0  0  0  0  0  0  0  0  0  0  0  0
   -7.1347    5.1375    0.0237 C   0  0  0  0  0  0  0  0  0  0  0  0
   -8.4031    4.8812    0.5536 C   0  0  0  0  0  0  0  0  0  0  0  0
   -9.4394    6.2393    1.0964 S   0  0  0  0  0  0  0  0  0  0  0  0
  -10.3745    6.3502   -0.4602 C   0  0  0  0  0  0  0  0  0  0  0  0
   -8.8417    3.5641    0.7001 C   0  0  0  0  0  0  0  0  0  0  0  0
   -8.0217    2.4982    0.3167 C   0  0  0  0  0  0  0  0  0  0  0  0
   -3.6325    2.1586   -1.5061 C   0  0  0  0  0  0  0  0  0  0  0  0
   -2.6369    2.0704   -0.1590 S   0  0  0  0  0  0  0  0  0  0  0  0
   -1.1879    2.1987   -1.0472 C   0  0  0  0  0  0  0  0  0  0  0  0
   -1.4917    2.3247   -2.4174 C   0  0  0  0  0  0  0  0  0  0  0  0
   -0.4852    2.3514   -3.4512 N   0  0  0  0  0  0  0  0  0  0  0  0
    0.7718    3.0145   -3.2236 C   0  0  0  0  0  0  0  0  0  0  0  0
    1.9821    2.3462   -3.4794 C   0  0  0  0  0  0  0  0  0  0  0  0
    3.1994    3.0195   -3.3505 C   0  0  0  0  0  0  0  0  0  0  0  0
    3.2193    4.3722   -2.9830 C   0  0  0  0  0  0  0  0  0  0  0  0
    4.7750    5.2535   -2.9144 S   0  0  0  0  0  0  0  0  0  0  0  0
    4.9584    5.0489   -1.1171 C   0  0  0  0  0  0  0  0  0  0  0  0
    2.0176    5.0365   -2.7106 C   0  0  0  0  0  0  0  0  0  0  0  0
    0.7987    4.3598   -2.8218 C   0  0  0  0  0  0  0  0  0  0  0  0
   -0.7748    1.9732   -4.8028 C   0  0  0  0  0  0  0  0  0  0  0  0
   -1.0400    2.9646   -5.7599 C   0  0  0  0  0  0  0  0  0  0  0  0
   -1.2390    2.6134   -7.0964 C   0  0  0  0  0  0  0  0  0  0  0  0
   -1.1417    1.2737   -7.4948 C   0  0  0  0  0  0  0  0  0  0  0  0
   -1.3174    0.8376   -9.2257 S   0  0  0  0  0  0  0  0  0  0  0  0
    0.4257    1.2050   -9.6276 C   0  0  0  0  0  0  0  0  0  0  0  0
   -0.8901    0.2802   -6.5390 C   0  0  0  0  0  0  0  0  0  0  0  0
   -0.7082    0.6271   -5.1957 C   0  0  0  0  0  0  0  0  0  0  0  0
   -2.8730    2.2615   -2.6314 C   0  0  0  0  0  0  0  0  0  0  0  0
   -3.8249    1.8660   -3.9588 S   0  0  0  0  0  0  0  0  0  0  0  0
    0.0476    1.5397   -0.5929 C   0  0  0  0  0  0  0  0  0  0  0  0
    0.3113    0.2224   -0.9951 C   0  0  0  0  0  0  0  0  0  0  0  0
    1.5692   -0.3902   -0.7210 C   0  0  0  0  0  0  0  0  0  0  0  0
    1.7419   -1.6533   -1.1910 N   0  0  0  0  0  0  0  0  0  0  0  0
    0.2795   -1.9153   -1.9101 S   0  0  0  0  0  0  0  0  0  0  0  0
   -0.5882   -0.5306   -1.6823 N   0  0  0  0  0  0  0  0  0  0  0  0
    2.5740    0.3090   -0.0287 C   0  0  0  0  0  0  0  0  0  0  0  0
    2.2992    1.6260    0.3876 C   0  0  0  0  0  0  0  0  0  0  0  0
    3.1780    2.4828    1.0629 C   0  0  0  0  0  0  0  0  0  0  0  0
    2.6162    3.7351    1.3156 C   0  0  0  0  0  0  0  0  0  0  0  0
    3.2961    4.8535    1.9796 C   0  0  0  0  0  0  0  0  0  0  0  0
    2.6503    5.8993    2.2711 O   0  0  0  0  0  0  0  0  0  0  0  0
    4.6667    4.7677    2.2372 O   0  0  0  0  0  0  0  0  0  0  0  0
    5.4198    5.8018    2.8666 C   0  0  0  0  0  0  0  0  0  0  0  0
    5.1565    5.8238    4.3703 C   0  0  0  0  0  0  0  0  0  0  0  0
    1.0410    3.7829    0.7011 S   0  0  0  0  0  0  0  0  0  0  0  0
    1.0560    2.2092    0.1126 C   0  0  0  0  0  0  0  0  0  0  0  0
    3.8698   -0.3635    0.1850 C   0  0  0  0  0  0  0  0  0  0  0  0
    4.8459   -0.2818   -0.8208 C   0  0  0  0  0  0  0  0  0  0  0  0
    4.7432    0.6514   -1.7985 F   0  0  0  0  0  0  0  0  0  0  0  0
    5.8516   -1.2491   -0.9089 C   0  0  0  0  0  0  0  0  0  0  0  0
    6.6986   -1.2323   -1.9704 F   0  0  0  0  0  0  0  0  0  0  0  0
    5.9144   -2.2956    0.0217 C   0  0  0  0  0  0  0  0  0  0  0  0
    5.0085   -2.3112    1.1031 C   0  0  0  0  0  0  0  0  0  0  0  0
    5.0534   -3.2983    2.0392 N   0  0  0  0  0  0  0  0  0  0  0  0
    4.1468   -3.3792    3.0520 C   0  0  0  0  0  0  0  0  0  0  0  0
    4.2847   -4.5073    4.0410 C   0  0  0  0  0  0  0  0  0  0  0  0
    3.5697   -5.7552    3.5334 C   0  0  0  0  0  0  0  0  0  0  0  0
    3.0914   -2.4387    3.0951 C   0  0  0  0  0  0  0  0  0  0  0  0
    3.0490   -1.4540    2.1583 N   0  0  0  0  0  0  0  0  0  0  0  0
    3.9829   -1.3493    1.1778 C   0  0  0  0  0  0  0  0  0  0  0  0
    2.0108   -2.4507    4.1436 C   0  0  0  0  0  0  0  0  0  0  0  0
    2.4194   -1.5983    5.3407 C   0  0  0  0  0  0  0  0  0  0  0  0
    6.6775   -3.5037   -0.3343 C   0  0  0  0  0  0  0  0  0  0  0  0
    7.7271   -3.9792    0.3538 C   0  0  0  0  0  0  0  0  0  0  0  0
    8.2656   -3.4173    1.5961 C   0  0  0  0  0  0  0  0  0  0  0  0
    8.0269   -2.2711    2.0630 O   0  0  0  0  0  0  0  0  0  0  0  0
    9.1286   -4.4083    2.2059 C   0  0  0  0  0  0  0  0  0  0  0  0
    9.8379   -4.2907    3.4267 C   0  0  0  0  0  0  0  0  0  0  0  0
   10.5769   -5.4152    3.7507 C   0  0  0  0  0  0  0  0  0  0  0  0
   10.5865   -6.6040    2.9475 C   0  0  0  0  0  0  0  0  0  0  0  0
    9.8867   -6.7291    1.7594 C   0  0  0  0  0  0  0  0  0  0  0  0
    9.1744   -5.5582    1.3719 C   0  0  0  0  0  0  0  0  0  0  0  0
    8.4187   -5.2804    0.1223 C   0  0  0  0  0  0  0  0  0  0  0  0
    8.5379   -5.9350   -1.0661 C   0  0  0  0  0  0  0  0  0  0  0  0
    8.0460   -5.3873   -2.3011 C   0  0  0  0  0  0  0  0  0  0  0  0
    7.6636   -4.9459   -3.2983 N   0  0  0  0  0  0  0  0  0  0  0  0
    9.2959   -7.1500   -1.2131 C   0  0  0  0  0  0  0  0  0  0  0  0
    9.8989   -8.1314   -1.3613 N   0  0  0  0  0  0  0  0  0  0  0  0
   11.5312   -7.2655    3.9050 C   0  0  0  0  0  0  0  0  0  0  0  0
   13.0122   -7.4275    3.4557 C   0  0  0  0  0  0  0  0  0  0  0  0
   13.3903   -6.3122    2.5108 C   0  0  0  0  0  0  0  0  0  0  0  0
   13.4015   -5.1916    3.2341 C   0  0  0  0  0  0  0  0  0  0  0  0
   13.0337   -5.5832    4.6471 C   0  0  0  0  0  0  0  0  0  0  0  0
   13.7218   -6.9351    4.7029 C   0  0  0  0  0  0  0  0  0  0  0  0
   11.5440   -6.0379    4.7118 C   0  0  0  0  0  0  0  0  0  0  0  0
   -5.9681   -0.1361   -4.1166 H   0  0  0  0  0  0  0  0  0  0  0  0
  -10.3494    3.9116   -2.0927 H   0  0  0  0  0  0  0  0  0  0  0  0
  -11.5517   -0.9839   -2.8377 H   0  0  0  0  0  0  0  0  0  0  0  0
  -14.3542    1.0767   -2.6126 H   0  0  0  0  0  0  0  0  0  0  0  0
  -14.6005   -0.2505   -0.4217 H   0  0  0  0  0  0  0  0  0  0  0  0
  -12.3612   -0.1818    1.0036 H   0  0  0  0  0  0  0  0  0  0  0  0
  -11.7709    2.2916    1.4673 H   0  0  0  0  0  0  0  0  0  0  0  0
  -13.5894    3.8331    0.3132 H   0  0  0  0  0  0  0  0  0  0  0  0
  -15.5849    2.2371   -0.4804 H   0  0  0  0  0  0  0  0  0  0  0  0
  -15.0352    1.8006    1.1986 H   0  0  0  0  0  0  0  0  0  0  0  0
  -13.8234    3.3382   -2.2074 H   0  0  0  0  0  0  0  0  0  0  0  0
   -6.0706   -0.9389   -1.4480 H   0  0  0  0  0  0  0  0  0  0  0  0
   -6.0844   -2.9479   -0.0287 H   0  0  0  0  0  0  0  0  0  0  0  0
   -3.4422   -2.7628    2.9500 H   0  0  0  0  0  0  0  0  0  0  0  0
   -3.7575   -4.5063    3.2879 H   0  0  0  0  0  0  0  0  0  0  0  0
   -3.8223   -3.9060    1.5842 H   0  0  0  0  0  0  0  0  0  0  0  0
   -5.5118   -0.4855    3.4531 H   0  0  0  0  0  0  0  0  0  0  0  0
   -5.5677    1.5316    2.0471 H   0  0  0  0  0  0  0  0  0  0  0  0
   -5.3240    4.3004   -0.7597 H   0  0  0  0  0  0  0  0  0  0  0  0
   -6.7855    6.1546   -0.0947 H   0  0  0  0  0  0  0  0  0  0  0  0
   -9.6962    6.2874   -1.3354 H   0  0  0  0  0  0  0  0  0  0  0  0
  -11.1236    5.5348   -0.5008 H   0  0  0  0  0  0  0  0  0  0  0  0
  -10.9085    7.3231   -0.4988 H   0  0  0  0  0  0  0  0  0  0  0  0
   -9.8212    3.3687    1.1046 H   0  0  0  0  0  0  0  0  0  0  0  0
   -8.3944    1.4855    0.4103 H   0  0  0  0  0  0  0  0  0  0  0  0
    1.9756    1.3086   -3.7897 H   0  0  0  0  0  0  0  0  0  0  0  0
    4.1228    2.5027   -3.5707 H   0  0  0  0  0  0  0  0  0  0  0  0
    4.1584    5.6201   -0.6062 H   0  0  0  0  0  0  0  0  0  0  0  0
    4.8911    3.9761   -0.8455 H   0  0  0  0  0  0  0  0  0  0  0  0
    5.9451    5.4416   -0.8017 H   0  0  0  0  0  0  0  0  0  0  0  0
    2.0219    6.0845   -2.4272 H   0  0  0  0  0  0  0  0  0  0  0  0
   -0.1257    4.8882   -2.6248 H   0  0  0  0  0  0  0  0  0  0  0  0
   -1.0815    4.0038   -5.4676 H   0  0  0  0  0  0  0  0  0  0  0  0
   -1.4375    3.3856   -7.8279 H   0  0  0  0  0  0  0  0  0  0  0  0
    0.6891    2.2339   -9.3051 H   0  0  0  0  0  0  0  0  0  0  0  0
    0.5655    1.1358  -10.7285 H   0  0  0  0  0  0  0  0  0  0  0  0
    1.0982    0.4706   -9.1341 H   0  0  0  0  0  0  0  0  0  0  0  0
   -0.8234   -0.7583   -6.8388 H   0  0  0  0  0  0  0  0  0  0  0  0
   -0.4918   -0.1411   -4.4667 H   0  0  0  0  0  0  0  0  0  0  0  0
    4.1859    2.2085    1.3541 H   0  0  0  0  0  0  0  0  0  0  0  0
    6.4979    5.5988    2.6934 H   0  0  0  0  0  0  0  0  0  0  0  0
    5.1830    6.7895    2.4137 H   0  0  0  0  0  0  0  0  0  0  0  0
    4.1735    6.2888    4.5831 H   0  0  0  0  0  0  0  0  0  0  0  0
    5.9505    6.4082    4.8808 H   0  0  0  0  0  0  0  0  0  0  0  0
    5.1652    4.7860    4.7689 H   0  0  0  0  0  0  0  0  0  0  0  0
    5.3589   -4.7428    4.1864 H   0  0  0  0  0  0  0  0  0  0  0  0
    3.8916   -4.2254    5.0394 H   0  0  0  0  0  0  0  0  0  0  0  0
    4.0669   -6.1263    2.6115 H   0  0  0  0  0  0  0  0  0  0  0  0
    2.4986   -5.5343    3.3098 H   0  0  0  0  0  0  0  0  0  0  0  0
    3.6115   -6.5470    4.3137 H   0  0  0  0  0  0  0  0  0  0  0  0
    1.0751   -2.0342    3.7123 H   0  0  0  0  0  0  0  0  0  0  0  0
    1.7766   -3.4827    4.4783 H   0  0  0  0  0  0  0  0  0  0  0  0
    1.6135   -1.6229    6.1115 H   0  0  0  0  0  0  0  0  0  0  0  0
    3.3546   -1.9902    5.8015 H   0  0  0  0  0  0  0  0  0  0  0  0
    2.5843   -0.5440    5.0210 H   0  0  0  0  0  0  0  0  0  0  0  0
    6.2797   -4.0542   -1.1680 H   0  0  0  0  0  0  0  0  0  0  0  0
    9.8213   -3.3999    4.0422 H   0  0  0  0  0  0  0  0  0  0  0  0
    9.9115   -7.6489    1.2032 H   0  0  0  0  0  0  0  0  0  0  0  0
   11.0997   -8.1438    4.4306 H   0  0  0  0  0  0  0  0  0  0  0  0
   13.2963   -8.4459    3.1160 H   0  0  0  0  0  0  0  0  0  0  0  0
   13.6624   -6.3974    1.4644 H   0  0  0  0  0  0  0  0  0  0  0  0
   13.6919   -4.2119    2.8725 H   0  0  0  0  0  0  0  0  0  0  0  0
   13.3440   -4.8576    5.4307 H   0  0  0  0  0  0  0  0  0  0  0  0
   14.8298   -6.8755    4.5825 H   0  0  0  0  0  0  0  0  0  0  0  0
   13.4724   -7.5223    5.6213 H   0  0  0  0  0  0  0  0  0  0  0  0
   11.1352   -6.1740    5.7376 H   0  0  0  0  0  0  0  0  0  0  0  0
  1  2  2  3
  2  3  1  0
  3  4  2  0
  3  5  1  0
  5  6  2  0
  6  7  1  0
  7  8  2  0
  8  9  1  0
  9 10  2  0
 10 11  1  0
 11 12  2  3
 12 13  1  0
 13 14  3  0
 12 15  1  0
 15 16  3  0
  8 17  1  0
 17 18  1  0
 18 19  1  0
 19 20  2  0
 20 21  1  0
 21 22  1  0
 21 23  1  0
  1 24  1  0
 24 25  2  0
 25 26  1  0
 26 27  1  0
 27 28  2  0
 28 29  1  0
 29 30  2  0
 30 31  1  0
 31 32  1  0
 30 33  1  0
 33 34  2  0
 26 35  1  0
 35 36  2  0
 36 37  1  0
 37 38  2  0
 38 39  1  0
 39 40  1  0
 38 41  1  0
 41 42  2  0
 25 43  1  0
 43 44  1  0
 44 45  1  0
 45 46  2  0
 46 47  1  0
 47 48  1  0
 48 49  2  0
 49 50  1  0
 50 51  2  0
 51 52  1  0
 52 53  1  0
 51 54  1  0
 54 55  2  0
 47 56  1  0
 56 57  2  0
 57 58  1  0
 58 59  2  0
 59 60  1  0
 60 61  1  0
 59 62  1  0
 62 63  2  0
 46 64  1  0
 64 65  1  0
 45 66  1  0
 66 67  1  0
 67 68  1  0
 68 69  2  0
 69 70  1  0
 70 71  1  0
 68 72  1  0
 72 73  2  0
 73 74  1  0
 74 75  2  0
 75 76  1  0
 76 77  2  0
 76 78  1  0
 78 79  1  0
 79 80  1  0
 75 81  1  0
 81 82  1  0
 72 83  1  0
 83 84  2  0
 84 85  1  0
 84 86  1  0
 86 87  1  0
 86 88  2  0
 88 89  1  0
 89 90  2  0
 90 91  1  0
 91 92  1  0
 92 93  1  0
 91 94  2  0
 94 95  1  0
 95 96  2  0
 94 97  1  0
 97 98  1  0
 88 99  1  0
 99100  2  3
100101  1  0
101102  2  0
101103  1  0
103104  2  0
104105  1  0
105106  2  0
106107  1  0
107108  2  0
108109  1  0
109110  2  3
110111  1  0
111112  3  0
110113  1  0
113114  3  0
106115  1  0
115116  1  0
116117  1  0
117118  2  0
118119  1  0
119120  1  0
119121  1  0
 11  2  1  0
 23 17  1  0
 65 24  1  0
 82 66  2  0
 96 83  1  0
109100  1  0
121115  1  0
 10  5  1  0
 22 18  1  0
 34 27  1  0
 42 35  1  0
 64 43  2  0
 71 67  2  0
 82 73  1  0
 96 89  1  0
108103  1  0
120116  1  0
 23  7  1  0
 55 48  1  0
 63 56  1  0
121105  1  0
  1122  1  0
  6123  1  0
  9124  1  0
 17125  1  0
 18126  1  0
 19127  1  0
 20128  1  0
 21129  1  0
 22130  1  0
 22131  1  0
 23132  1  0
 28133  1  0
 29134  1  0
 32135  1  0
 32136  1  0
 32137  1  0
 33138  1  0
 34139  1  0
 36140  1  0
 37141  1  0
 40142  1  0
 40143  1  0
 40144  1  0
 41145  1  0
 42146  1  0
 49147  1  0
 50148  1  0
 53149  1  0
 53150  1  0
 53151  1  0
 54152  1  0
 55153  1  0
 57154  1  0
 58155  1  0
 61156  1  0
 61157  1  0
 61158  1  0
 62159  1  0
 63160  1  0
 74161  1  0
 79162  1  0
 79163  1  0
 80164  1  0
 80165  1  0
 80166  1  0
 92167  1  0
 92168  1  0
 93169  1  0
 93170  1  0
 93171  1  0
 97172  1  0
 97173  1  0
 98174  1  0
 98175  1  0
 98176  1  0
 99177  1  0
104178  1  0
107179  1  0
115180  1  0
116181  1  0
117182  1  0
118183  1  0
119184  1  0
120185  1  0
120186  1  0
121187  1  0
M  END

