
     RDKit          3D

172190  0  0  0  0  0  0  0  0999 V2000
    5.2124   -0.0186   -2.3372 C   0  0  0  0  0  0  0  0  0  0  0  0
    5.1948   -0.6393   -3.5326 C   0  0  0  0  0  0  0  0  0  0  0  0
    6.3075   -0.7508   -4.4892 C   0  0  0  0  0  0  0  0  0  0  0  0
    7.5317   -0.5795   -4.2491 O   0  0  0  0  0  0  0  0  0  0  0  0
    5.7705   -1.0978   -5.7850 C   0  0  0  0  0  0  0  0  0  0  0  0
    6.4638   -1.1098   -7.0211 C   0  0  0  0  0  0  0  0  0  0  0  0
    5.6466   -1.3191   -8.1193 C   0  0  0  0  0  0  0  0  0  0  0  0
    4.2290   -1.5058   -8.0120 C   0  0  0  0  0  0  0  0  0  0  0  0
    3.5446   -1.4805   -6.8094 C   0  0  0  0  0  0  0  0  0  0  0  0
    4.3704   -1.2915   -5.6658 C   0  0  0  0  0  0  0  0  0  0  0  0
    3.9760   -1.1411   -4.2420 C   0  0  0  0  0  0  0  0  0  0  0  0
    2.8432   -1.6392   -3.6698 C   0  0  0  0  0  0  0  0  0  0  0  0
    1.8444   -2.3545   -4.4272 C   0  0  0  0  0  0  0  0  0  0  0  0
    1.0472   -2.9392   -5.0244 N   0  0  0  0  0  0  0  0  0  0  0  0
    2.6274   -1.6460   -2.2492 C   0  0  0  0  0  0  0  0  0  0  0  0
    2.4512   -1.6548   -1.1048 N   0  0  0  0  0  0  0  0  0  0  0  0
    4.1072   -1.5846   -9.5057 C   0  0  0  0  0  0  0  0  0  0  0  0
    3.5003   -0.3386  -10.2173 C   0  0  0  0  0  0  0  0  0  0  0  0
    3.8524   -0.4857  -11.6774 C   0  0  0  0  0  0  0  0  0  0  0  0
    5.1737   -0.2900  -11.7758 C   0  0  0  0  0  0  0  0  0  0  0  0
    5.6680   -0.0203  -10.3715 C   0  0  0  0  0  0  0  0  0  0  0  0
    4.4763    0.7686   -9.8545 C   0  0  0  0  0  0  0  0  0  0  0  0
    5.5558   -1.3779   -9.6160 C   0  0  0  0  0  0  0  0  0  0  0  0
    6.4349    0.4448   -1.6317 C   0  0  0  0  0  0  0  0  0  0  0  0
    6.4505    0.8098   -0.3405 C   0  0  0  0  0  0  0  0  0  0  0  0
    5.2352    0.8661    0.4953 C   0  0  0  0  0  0  0  0  0  0  0  0
    5.2309    0.4416    1.7487 C   0  0  0  0  0  0  0  0  0  0  0  0
    3.9731    0.4593    2.5048 C   0  0  0  0  0  0  0  0  0  0  0  0
    3.5716    1.4350    3.4407 C   0  0  0  0  0  0  0  0  0  0  0  0
    4.3804    2.5517    3.8769 N   0  0  0  0  0  0  0  0  0  0  0  0
    4.2485    3.0494    5.2198 C   0  0  0  0  0  0  0  0  0  0  0  0
    4.1478    2.1539    6.2967 C   0  0  0  0  0  0  0  0  0  0  0  0
    3.9097    2.6256    7.5888 C   0  0  0  0  0  0  0  0  0  0  0  0
    3.7769    3.9994    7.8182 C   0  0  0  0  0  0  0  0  0  0  0  0
    3.3834    4.5902    9.4667 S   0  0  0  0  0  0  0  0  0  0  0  0
    1.5717    4.4855    9.2525 C   0  0  0  0  0  0  0  0  0  0  0  0
    3.9158    4.9033    6.7587 C   0  0  0  0  0  0  0  0  0  0  0  0
    4.1529    4.4322    5.4651 C   0  0  0  0  0  0  0  0  0  0  0  0
    5.2488    3.2265    2.9500 C   0  0  0  0  0  0  0  0  0  0  0  0
    6.6296    3.2997    3.2108 C   0  0  0  0  0  0  0  0  0  0  0  0
    7.4808    3.9416    2.3025 C   0  0  0  0  0  0  0  0  0  0  0  0
    6.9623    4.5251    1.1412 C   0  0  0  0  0  0  0  0  0  0  0  0
    8.0487    5.3947    0.0091 S   0  0  0  0  0  0  0  0  0  0  0  0
    8.4053    3.9194   -0.9927 C   0  0  0  0  0  0  0  0  0  0  0  0
    5.5894    4.4617    0.8845 C   0  0  0  0  0  0  0  0  0  0  0  0
    4.7351    3.8166    1.7871 C   0  0  0  0  0  0  0  0  0  0  0  0
    2.2417    1.2303    3.8244 C   0  0  0  0  0  0  0  0  0  0  0  0
    1.1077    2.1461    4.6745 S   0  0  0  0  0  0  0  0  0  0  0  0
   -0.2003    1.1272    4.2739 C   0  0  0  0  0  0  0  0  0  0  0  0
    0.2479    0.0938    3.4283 C   0  0  0  0  0  0  0  0  0  0  0  0
   -0.6344   -0.6706    2.5757 N   0  0  0  0  0  0  0  0  0  0  0  0
   -0.9591   -2.0463    2.9123 C   0  0  0  0  0  0  0  0  0  0  0  0
   -0.3722   -2.6731    4.0369 C   0  0  0  0  0  0  0  0  0  0  0  0
   -0.6933   -3.9918    4.3776 C   0  0  0  0  0  0  0  0  0  0  0  0
   -1.6342   -4.7034    3.6275 C   0  0  0  0  0  0  0  0  0  0  0  0
   -2.0763   -6.3794    4.1068 S   0  0  0  0  0  0  0  0  0  0  0  0
   -1.2499   -7.1563    2.6938 C   0  0  0  0  0  0  0  0  0  0  0  0
   -2.2274   -4.0951    2.5147 C   0  0  0  0  0  0  0  0  0  0  0  0
   -1.8611   -2.8017    2.1345 C   0  0  0  0  0  0  0  0  0  0  0  0
   -1.3211    0.0965    1.5520 C   0  0  0  0  0  0  0  0  0  0  0  0
   -2.7313    0.1743    1.5168 C   0  0  0  0  0  0  0  0  0  0  0  0
   -3.3678    1.1662    0.7578 C   0  0  0  0  0  0  0  0  0  0  0  0
   -2.6106    2.0855    0.0257 C   0  0  0  0  0  0  0  0  0  0  0  0
   -3.3821    3.5245   -0.7213 S   0  0  0  0  0  0  0  0  0  0  0  0
   -3.3873    2.8439   -2.4063 C   0  0  0  0  0  0  0  0  0  0  0  0
   -1.2183    1.9577   -0.0105 C   0  0  0  0  0  0  0  0  0  0  0  0
   -0.5827    0.9643    0.7316 C   0  0  0  0  0  0  0  0  0  0  0  0
    1.6214    0.1835    3.2158 C   0  0  0  0  0  0  0  0  0  0  0  0
    2.6594   -0.5734    2.1440 S   0  0  0  0  0  0  0  0  0  0  0  0
   -1.6208    1.4054    4.5501 C   0  0  0  0  0  0  0  0  0  0  0  0
   -2.4637    0.3294    4.8889 C   0  0  0  0  0  0  0  0  0  0  0  0
   -3.8415    0.4685    4.6952 C   0  0  0  0  0  0  0  0  0  0  0  0
   -4.7557   -0.5299    4.5846 N   0  0  0  0  0  0  0  0  0  0  0  0
   -4.5507   -1.9667    4.8221 C   0  0  0  0  0  0  0  0  0  0  0  0
   -5.0857   -2.3560    6.1934 C   0  0  0  0  0  0  0  0  0  0  0  0
   -5.8626    0.0573    4.0736 C   0  0  0  0  0  0  0  0  0  0  0  0
   -5.6735    1.4157    3.8971 C   0  0  0  0  0  0  0  0  0  0  0  0
   -4.3738    1.6770    4.2816 C   0  0  0  0  0  0  0  0  0  0  0  0
   -3.5789    2.8031    4.0685 C   0  0  0  0  0  0  0  0  0  0  0  0
   -2.1857    2.6627    4.2080 C   0  0  0  0  0  0  0  0  0  0  0  0
   -6.6089    2.2142    3.2429 C   0  0  0  0  0  0  0  0  0  0  0  0
   -7.7488    1.5867    2.7066 C   0  0  0  0  0  0  0  0  0  0  0  0
   -7.8990    0.1796    2.7727 C   0  0  0  0  0  0  0  0  0  0  0  0
   -6.9811   -0.5830    3.5339 C   0  0  0  0  0  0  0  0  0  0  0  0
   -8.8714   -0.5574    1.9354 C   0  0  0  0  0  0  0  0  0  0  0  0
   -8.6439   -0.6894    0.6083 C   0  0  0  0  0  0  0  0  0  0  0  0
   -8.1326    0.4049   -0.2252 C   0  0  0  0  0  0  0  0  0  0  0  0
   -8.5188    1.5981   -0.1730 O   0  0  0  0  0  0  0  0  0  0  0  0
   -7.2403   -0.1185   -1.2288 C   0  0  0  0  0  0  0  0  0  0  0  0
   -6.5415    0.6185   -2.2100 C   0  0  0  0  0  0  0  0  0  0  0  0
   -5.7888   -0.1680   -3.0615 C   0  0  0  0  0  0  0  0  0  0  0  0
   -5.7333   -1.5968   -2.9699 C   0  0  0  0  0  0  0  0  0  0  0  0
   -6.4508   -2.3227   -2.0345 C   0  0  0  0  0  0  0  0  0  0  0  0
   -7.2032   -1.5309   -1.1245 C   0  0  0  0  0  0  0  0  0  0  0  0
   -8.1162   -1.9486   -0.0159 C   0  0  0  0  0  0  0  0  0  0  0  0
   -8.3930   -3.2204    0.3734 C   0  0  0  0  0  0  0  0  0  0  0  0
   -9.5532   -3.5378    1.1679 C   0  0  0  0  0  0  0  0  0  0  0  0
  -10.5071   -3.7867    1.7693 N   0  0  0  0  0  0  0  0  0  0  0  0
   -7.5453   -4.3324    0.0340 C   0  0  0  0  0  0  0  0  0  0  0  0
   -6.8560   -5.2273   -0.2175 N   0  0  0  0  0  0  0  0  0  0  0  0
   -4.7785   -1.6502   -4.1285 C   0  0  0  0  0  0  0  0  0  0  0  0
   -5.3453   -2.1356   -5.4956 C   0  0  0  0  0  0  0  0  0  0  0  0
   -4.3381   -1.7091   -6.5403 C   0  0  0  0  0  0  0  0  0  0  0  0
   -4.4251   -0.3752   -6.6291 C   0  0  0  0  0  0  0  0  0  0  0  0
   -5.4782    0.0525   -5.6340 C   0  0  0  0  0  0  0  0  0  0  0  0
   -6.4360   -1.1182   -5.7919 C   0  0  0  0  0  0  0  0  0  0  0  0
   -4.8469   -0.1874   -4.2301 C   0  0  0  0  0  0  0  0  0  0  0  0
    4.2660    0.1695   -1.8717 H   0  0  0  0  0  0  0  0  0  0  0  0
    7.5256   -0.9151   -7.1107 H   0  0  0  0  0  0  0  0  0  0  0  0
    2.4670   -1.5241   -6.7922 H   0  0  0  0  0  0  0  0  0  0  0  0
    3.7563   -2.5735   -9.8744 H   0  0  0  0  0  0  0  0  0  0  0  0
    2.4330   -0.1349  -10.0013 H   0  0  0  0  0  0  0  0  0  0  0  0
    3.1739   -0.6412  -12.5066 H   0  0  0  0  0  0  0  0  0  0  0  0
    5.7488   -0.2737  -12.6962 H   0  0  0  0  0  0  0  0  0  0  0  0
    6.6496    0.4881  -10.3113 H   0  0  0  0  0  0  0  0  0  0  0  0
    4.2976    1.7246  -10.4070 H   0  0  0  0  0  0  0  0  0  0  0  0
    4.5192    0.9985   -8.7685 H   0  0  0  0  0  0  0  0  0  0  0  0
    6.1179   -2.2247  -10.0666 H   0  0  0  0  0  0  0  0  0  0  0  0
    7.3921    0.4391   -2.1324 H   0  0  0  0  0  0  0  0  0  0  0  0
    7.4050    1.0323    0.1281 H   0  0  0  0  0  0  0  0  0  0  0  0
    4.2984    1.1959    0.0511 H   0  0  0  0  0  0  0  0  0  0  0  0
    6.1470    0.1379    2.2401 H   0  0  0  0  0  0  0  0  0  0  0  0
    4.2258    1.0888    6.1238 H   0  0  0  0  0  0  0  0  0  0  0  0
    3.8037    1.9217    8.4023 H   0  0  0  0  0  0  0  0  0  0  0  0
    1.1417    5.5085    9.2823 H   0  0  0  0  0  0  0  0  0  0  0  0
    1.2854    4.0088    8.2924 H   0  0  0  0  0  0  0  0  0  0  0  0
    1.1526    3.8774   10.0782 H   0  0  0  0  0  0  0  0  0  0  0  0
    3.8094    5.9669    6.9289 H   0  0  0  0  0  0  0  0  0  0  0  0
    4.2193    5.1394    4.6506 H   0  0  0  0  0  0  0  0  0  0  0  0
    7.0410    2.8392    4.1027 H   0  0  0  0  0  0  0  0  0  0  0  0
    8.5445    3.9892    2.5066 H   0  0  0  0  0  0  0  0  0  0  0  0
    8.8850    3.1389   -0.3658 H   0  0  0  0  0  0  0  0  0  0  0  0
    7.4675    3.5259   -1.4359 H   0  0  0  0  0  0  0  0  0  0  0  0
    9.0994    4.1965   -1.8092 H   0  0  0  0  0  0  0  0  0  0  0  0
    5.1788    4.9132   -0.0067 H   0  0  0  0  0  0  0  0  0  0  0  0
    3.6767    3.7683    1.5760 H   0  0  0  0  0  0  0  0  0  0  0  0
    0.3446   -2.1526    4.6648 H   0  0  0  0  0  0  0  0  0  0  0  0
   -0.2377   -4.4422    5.2477 H   0  0  0  0  0  0  0  0  0  0  0  0
   -0.1667   -6.9032    2.6916 H   0  0  0  0  0  0  0  0  0  0  0  0
   -1.3422   -8.2568    2.7731 H   0  0  0  0  0  0  0  0  0  0  0  0
   -1.7233   -6.8278    1.7481 H   0  0  0  0  0  0  0  0  0  0  0  0
   -2.9535   -4.6405    1.9226 H   0  0  0  0  0  0  0  0  0  0  0  0
   -2.2691   -2.4121    1.2190 H   0  0  0  0  0  0  0  0  0  0  0  0
   -3.3396   -0.4663    2.1351 H   0  0  0  0  0  0  0  0  0  0  0  0
   -4.4467    1.2595    0.8033 H   0  0  0  0  0  0  0  0  0  0  0  0
   -2.3809    2.4734   -2.6930 H   0  0  0  0  0  0  0  0  0  0  0  0
   -3.6839    3.6480   -3.1196 H   0  0  0  0  0  0  0  0  0  0  0  0
   -4.1252    2.0234   -2.4626 H   0  0  0  0  0  0  0  0  0  0  0  0
   -0.6270    2.6588   -0.5765 H   0  0  0  0  0  0  0  0  0  0  0  0
    0.4988    0.9285    0.7219 H   0  0  0  0  0  0  0  0  0  0  0  0
   -2.0333   -0.6237    5.1533 H   0  0  0  0  0  0  0  0  0  0  0  0
   -3.4768   -2.2287    4.7640 H   0  0  0  0  0  0  0  0  0  0  0  0
   -5.0479   -2.5648    4.0369 H   0  0  0  0  0  0  0  0  0  0  0  0
   -6.1734   -2.1409    6.2606 H   0  0  0  0  0  0  0  0  0  0  0  0
   -4.5579   -1.7826    6.9817 H   0  0  0  0  0  0  0  0  0  0  0  0
   -4.9199   -3.4403    6.3582 H   0  0  0  0  0  0  0  0  0  0  0  0
   -4.0031    3.7285    3.6953 H   0  0  0  0  0  0  0  0  0  0  0  0
   -1.5433    3.4858    3.9170 H   0  0  0  0  0  0  0  0  0  0  0  0
   -6.4506    3.2741    3.0947 H   0  0  0  0  0  0  0  0  0  0  0  0
   -8.4804    2.1880    2.1798 H   0  0  0  0  0  0  0  0  0  0  0  0
   -7.0804   -1.6567    3.5807 H   0  0  0  0  0  0  0  0  0  0  0  0
   -9.2702   -1.4152    2.4599 H   0  0  0  0  0  0  0  0  0  0  0  0
   -6.5789    1.6975   -2.2829 H   0  0  0  0  0  0  0  0  0  0  0  0
   -6.4216   -3.3992   -2.0321 H   0  0  0  0  0  0  0  0  0  0  0  0
   -3.7761   -2.0442   -3.8567 H   0  0  0  0  0  0  0  0  0  0  0  0
   -5.6534   -3.2014   -5.5387 H   0  0  0  0  0  0  0  0  0  0  0  0
   -3.7158   -2.3450   -7.1554 H   0  0  0  0  0  0  0  0  0  0  0  0
   -3.9002    0.2554   -7.3416 H   0  0  0  0  0  0  0  0  0  0  0  0
   -5.9110    1.0610   -5.8035 H   0  0  0  0  0  0  0  0  0  0  0  0
   -7.2808   -1.1199   -5.0710 H   0  0  0  0  0  0  0  0  0  0  0  0
   -6.8540   -1.2120   -6.8297 H   0  0  0  0  0  0  0  0  0  0  0  0
   -3.8724    0.3247   -4.0437 H   0  0  0  0  0  0  0  0  0  0  0  0
  1  2  2  3
  2  3  1  0
  3  4  2  0
  3  5  1  0
  5  6  2  0
  6  7  1  0
  7  8  2  0
  8  9  1  0
  9 10  2  0
 10 11  1  0
 11 12  2  3
 12 13  1  0
 13 14  3  0
 12 15  1  0
 15 16  3  0
  8 17  1  0
 17 18  1  0
 18 19  1  0
 19 20  2  0
 20 21  1  0
 21 22  1  0
 21 23  1  0
  1 24  1  0
 24 25  2  3
 25 26  1  0
 26 27  2  3
 27 28  1  0
 28 29  2  0
 29 30  1  0
 30 31  1  0
 31 32  2  0
 32 33  1  0
 33 34  2  0
 34 35  1  0
 35 36  1  0
 34 37  1  0
 37 38  2  0
 30 39  1  0
 39 40  2  0
 40 41  1  0
 41 42  2  0
 42 43  1  0
 43 44  1  0
 42 45  1  0
 45 46  2  0
 29 47  1  0
 47 48  1  0
 48 49  1  0
 49 50  2  0
 50 51  1  0
 51 52  1  0
 52 53  2  0
 53 54  1  0
 54 55  2  0
 55 56  1  0
 56 57  1  0
 55 58  1  0
 58 59  2  0
 51 60  1  0
 60 61  2  0
 61 62  1  0
 62 63  2  0
 63 64  1  0
 64 65  1  0
 63 66  1  0
 66 67  2  0
 50 68  1  0
 68 69  1  0
 49 70  1  0
 70 71  2  0
 71 72  1  0
 72 73  1  0
 73 74  1  0
 74 75  1  0
 73 76  1  0
 76 77  2  0
 77 78  1  0
 78 79  1  0
 79 80  2  0
 77 81  1  0
 81 82  2  0
 82 83  1  0
 83 84  2  0
 83 85  1  0
 85 86  2  3
 86 87  1  0
 87 88  2  0
 87 89  1  0
 89 90  2  0
 90 91  1  0
 91 92  2  0
 92 93  1  0
 93 94  2  0
 94 95  1  0
 95 96  2  3
 96 97  1  0
 97 98  3  0
 96 99  1  0
 99100  3  0
 92101  1  0
101102  1  0
102103  1  0
103104  2  0
104105  1  0
105106  1  0
105107  1  0
 11  2  1  0
 23 17  1  0
 69 28  1  0
 80 70  1  0
 95 86  1  0
107101  1  0
 10  5  1  0
 22 18  1  0
 38 31  1  0
 46 39  1  0
 68 47  2  0
 78 72  2  0
 94 89  1  0
106102  1  0
 23  7  1  0
 59 52  1  0
 67 60  1  0
 84 76  1  0
107 91  1  0
  1108  1  0
  6109  1  0
  9110  1  0
 17111  1  0
 18112  1  0
 19113  1  0
 20114  1  0
 21115  1  0
 22116  1  0
 22117  1  0
 23118  1  0
 24119  1  0
 25120  1  0
 26121  1  0
 27122  1  0
 32123  1  0
 33124  1  0
 36125  1  0
 36126  1  0
 36127  1  0
 37128  1  0
 38129  1  0
 40130  1  0
 41131  1  0
 44132  1  0
 44133  1  0
 44134  1  0
 45135  1  0
 46136  1  0
 53137  1  0
 54138  1  0
 57139  1  0
 57140  1  0
 57141  1  0
 58142  1  0
 59143  1  0
 61144  1  0
 62145  1  0
 65146  1  0
 65147  1  0
 65148  1  0
 66149  1  0
 67150  1  0
 71151  1  0
 74152  1  0
 74153  1  0
 75154  1  0
 75155  1  0
 75156  1  0
 79157  1  0
 80158  1  0
 81159  1  0
 82160  1  0
 84161  1  0
 85162  1  0
 90163  1  0
 93164  1  0
101165  1  0
102166  1  0
103167  1  0
104168  1  0
105169  1  0
106170  1  0
106171  1  0
107172  1  0
M  END

