
     RDKit          3D

217236  0  0  0  0  0  0  0  0999 V2000
   -4.0716    2.2056    4.0124 C   0  0  0  0  0  0  0  0  0  0  0  0
   -5.0732    1.9401    3.1565 C   0  0  0  0  0  0  0  0  0  0  0  0
   -6.1992    1.0694    3.4885 C   0  0  0  0  0  0  0  0  0  0  0  0
   -6.2754    0.3220    4.4992 O   0  0  0  0  0  0  0  0  0  0  0  0
   -7.2029    1.1915    2.4565 C   0  0  0  0  0  0  0  0  0  0  0  0
   -8.3474    0.3830    2.2793 C   0  0  0  0  0  0  0  0  0  0  0  0
   -9.0427    0.6461    1.1149 C   0  0  0  0  0  0  0  0  0  0  0  0
   -8.6791    1.6895    0.2060 C   0  0  0  0  0  0  0  0  0  0  0  0
   -7.5479    2.4698    0.3578 C   0  0  0  0  0  0  0  0  0  0  0  0
   -6.7690    2.1588    1.5105 C   0  0  0  0  0  0  0  0  0  0  0  0
   -5.3610    2.5470    1.8214 C   0  0  0  0  0  0  0  0  0  0  0  0
   -4.4569    2.7486    0.8389 C   0  0  0  0  0  0  0  0  0  0  0  0
   -4.7461    3.6121   -0.2785 C   0  0  0  0  0  0  0  0  0  0  0  0
   -4.9786    4.3225   -1.1634 N   0  0  0  0  0  0  0  0  0  0  0  0
   -3.2121    2.0306    0.7950 C   0  0  0  0  0  0  0  0  0  0  0  0
   -2.2214    1.4394    0.7247 N   0  0  0  0  0  0  0  0  0  0  0  0
   -9.8169    1.3202   -0.6989 C   0  0  0  0  0  0  0  0  0  0  0  0
   -9.4193    0.6152   -2.0238 C   0  0  0  0  0  0  0  0  0  0  0  0
  -10.6827   -0.0285   -2.5495 C   0  0  0  0  0  0  0  0  0  0  0  0
  -10.9609   -1.0485   -1.7265 C   0  0  0  0  0  0  0  0  0  0  0  0
   -9.8846   -1.0486   -0.6709 C   0  0  0  0  0  0  0  0  0  0  0  0
   -8.7082   -0.6364   -1.5419 C   0  0  0  0  0  0  0  0  0  0  0  0
  -10.1542    0.2171    0.2054 C   0  0  0  0  0  0  0  0  0  0  0  0
   -2.8875    3.0209    3.6946 C   0  0  0  0  0  0  0  0  0  0  0  0
   -1.5981    2.4751    3.6425 C   0  0  0  0  0  0  0  0  0  0  0  0
   -1.2172    1.2618    4.3078 N   0  0  0  0  0  0  0  0  0  0  0  0
   -1.0017    1.2839    5.7407 C   0  0  0  0  0  0  0  0  0  0  0  0
   -1.2041    0.1317    6.5253 C   0  0  0  0  0  0  0  0  0  0  0  0
   -1.0475    0.1789    7.9140 C   0  0  0  0  0  0  0  0  0  0  0  0
   -0.6714    1.3709    8.5396 C   0  0  0  0  0  0  0  0  0  0  0  0
   -0.4922    1.4376   10.3212 S   0  0  0  0  0  0  0  0  0  0  0  0
    1.2846    1.0529   10.2707 C   0  0  0  0  0  0  0  0  0  0  0  0
   -0.4550    2.5210    7.7762 C   0  0  0  0  0  0  0  0  0  0  0  0
   -0.6140    2.4785    6.3878 C   0  0  0  0  0  0  0  0  0  0  0  0
   -1.0369    0.0579    3.5534 C   0  0  0  0  0  0  0  0  0  0  0  0
    0.2246   -0.2723    3.0354 C   0  0  0  0  0  0  0  0  0  0  0  0
    0.4079   -1.4704    2.3450 C   0  0  0  0  0  0  0  0  0  0  0  0
   -0.6471   -2.3791    2.2213 C   0  0  0  0  0  0  0  0  0  0  0  0
   -0.3632   -3.9753    1.4537 S   0  0  0  0  0  0  0  0  0  0  0  0
    0.4058   -4.6850    2.9474 C   0  0  0  0  0  0  0  0  0  0  0  0
   -1.9100   -2.0561    2.7373 C   0  0  0  0  0  0  0  0  0  0  0  0
   -2.1097   -0.8339    3.3797 C   0  0  0  0  0  0  0  0  0  0  0  0
   -0.7276    3.2916    2.9397 C   0  0  0  0  0  0  0  0  0  0  0  0
    0.6972    2.9734    2.1573 S   0  0  0  0  0  0  0  0  0  0  0  0
    0.6457    4.3772    1.2042 C   0  0  0  0  0  0  0  0  0  0  0  0
   -0.4795    5.1493    1.5529 C   0  0  0  0  0  0  0  0  0  0  0  0
   -0.3789    6.5782    1.6016 N   0  0  0  0  0  0  0  0  0  0  0  0
    0.3072    7.1710    2.7187 C   0  0  0  0  0  0  0  0  0  0  0  0
   -0.4014    7.9409    3.6508 C   0  0  0  0  0  0  0  0  0  0  0  0
    0.2521    8.4636    4.7727 C   0  0  0  0  0  0  0  0  0  0  0  0
    1.6204    8.2269    4.9631 C   0  0  0  0  0  0  0  0  0  0  0  0
    2.4677    8.8994    6.3940 S   0  0  0  0  0  0  0  0  0  0  0  0
    2.1351    7.4468    7.4361 C   0  0  0  0  0  0  0  0  0  0  0  0
    2.3338    7.4831    4.0213 C   0  0  0  0  0  0  0  0  0  0  0  0
    1.6841    6.9556    2.9016 C   0  0  0  0  0  0  0  0  0  0  0  0
   -0.9579    7.4214    0.5963 C   0  0  0  0  0  0  0  0  0  0  0  0
   -2.3156    7.3126    0.2559 C   0  0  0  0  0  0  0  0  0  0  0  0
   -2.9017    8.2625   -0.5906 C   0  0  0  0  0  0  0  0  0  0  0  0
   -2.1348    9.3030   -1.1278 C   0  0  0  0  0  0  0  0  0  0  0  0
   -2.8932   10.5555   -2.1685 S   0  0  0  0  0  0  0  0  0  0  0  0
   -3.1445   11.7099   -0.7843 C   0  0  0  0  0  0  0  0  0  0  0  0
   -0.7696    9.3785   -0.8380 C   0  0  0  0  0  0  0  0  0  0  0  0
   -0.1879    8.4495    0.0294 C   0  0  0  0  0  0  0  0  0  0  0  0
   -1.2391    4.4722    2.5095 C   0  0  0  0  0  0  0  0  0  0  0  0
   -2.8636    4.5613    2.9441 S   0  0  0  0  0  0  0  0  0  0  0  0
    1.1670    4.2551   -0.1637 C   0  0  0  0  0  0  0  0  0  0  0  0
    2.5340    4.0979   -0.3457 C   0  0  0  0  0  0  0  0  0  0  0  0
    3.5255    4.5536    0.4384 N   0  0  0  0  0  0  0  0  0  0  0  0
    4.6293    3.9981   -0.0522 N   0  0  0  0  0  0  0  0  0  0  0  0
    5.9411    4.1567    0.5585 C   0  0  0  0  0  0  0  0  0  0  0  0
    6.1074    3.1727    1.7138 C   0  0  0  0  0  0  0  0  0  0  0  0
    4.3799    3.1704   -1.0606 N   0  0  0  0  0  0  0  0  0  0  0  0
    3.0496    3.2299   -1.2647 C   0  0  0  0  0  0  0  0  0  0  0  0
    2.2277    2.3983   -2.0549 C   0  0  0  0  0  0  0  0  0  0  0  0
    0.8537    2.7825   -2.1048 C   0  0  0  0  0  0  0  0  0  0  0  0
    0.3332    3.6858   -1.1489 C   0  0  0  0  0  0  0  0  0  0  0  0
   -1.0129    3.8476   -1.0702 F   0  0  0  0  0  0  0  0  0  0  0  0
   -0.0159    2.2310   -2.9837 F   0  0  0  0  0  0  0  0  0  0  0  0
    2.7478    1.0639   -2.5168 C   0  0  0  0  0  0  0  0  0  0  0  0
    2.1723    0.0255   -3.3124 C   0  0  0  0  0  0  0  0  0  0  0  0
    0.8339   -0.0254   -3.8432 N   0  0  0  0  0  0  0  0  0  0  0  0
    0.5767    0.4834   -5.1807 C   0  0  0  0  0  0  0  0  0  0  0  0
   -0.5234    0.0385   -5.9475 C   0  0  0  0  0  0  0  0  0  0  0  0
   -0.6965    0.4710   -7.2637 C   0  0  0  0  0  0  0  0  0  0  0  0
    0.1857    1.3943   -7.8289 C   0  0  0  0  0  0  0  0  0  0  0  0
   -0.0597    1.9622   -9.5160 S   0  0  0  0  0  0  0  0  0  0  0  0
    0.6393    0.4460  -10.2561 C   0  0  0  0  0  0  0  0  0  0  0  0
    1.1894    1.9366   -7.0409 C   0  0  0  0  0  0  0  0  0  0  0  0
    1.4073    1.4732   -5.7391 C   0  0  0  0  0  0  0  0  0  0  0  0
   -0.0860   -0.9225   -3.1748 C   0  0  0  0  0  0  0  0  0  0  0  0
   -0.6063   -0.5877   -1.9102 C   0  0  0  0  0  0  0  0  0  0  0  0
   -1.4962   -1.4557   -1.2619 C   0  0  0  0  0  0  0  0  0  0  0  0
   -1.8503   -2.6726   -1.8547 C   0  0  0  0  0  0  0  0  0  0  0  0
   -3.0356   -3.7637   -1.0646 S   0  0  0  0  0  0  0  0  0  0  0  0
   -4.4527   -3.0359   -1.9440 C   0  0  0  0  0  0  0  0  0  0  0  0
   -1.2808   -3.0372   -3.0778 C   0  0  0  0  0  0  0  0  0  0  0  0
   -0.3999   -2.1747   -3.7319 C   0  0  0  0  0  0  0  0  0  0  0  0
    2.9799   -1.1216   -3.3221 C   0  0  0  0  0  0  0  0  0  0  0  0
    2.8412   -2.6281   -4.0204 S   0  0  0  0  0  0  0  0  0  0  0  0
    4.1319   -3.3246   -3.1477 C   0  0  0  0  0  0  0  0  0  0  0  0
    4.6956   -2.3478   -2.2964 C   0  0  0  0  0  0  0  0  0  0  0  0
    5.5906   -2.6170   -1.1774 N   0  0  0  0  0  0  0  0  0  0  0  0
    5.5293   -1.8396    0.0359 C   0  0  0  0  0  0  0  0  0  0  0  0
    6.7158   -1.3958    0.6444 C   0  0  0  0  0  0  0  0  0  0  0  0
    6.6659   -0.6922    1.8509 C   0  0  0  0  0  0  0  0  0  0  0  0
    5.4344   -0.4042    2.4454 C   0  0  0  0  0  0  0  0  0  0  0  0
    5.3704    0.5274    3.9734 S   0  0  0  0  0  0  0  0  0  0  0  0
    5.1694   -0.9516    5.0227 C   0  0  0  0  0  0  0  0  0  0  0  0
    4.2526   -0.8404    1.8444 C   0  0  0  0  0  0  0  0  0  0  0  0
    4.2978   -1.5800    0.6588 C   0  0  0  0  0  0  0  0  0  0  0  0
    6.2526   -3.8821   -1.0632 C   0  0  0  0  0  0  0  0  0  0  0  0
    7.4706   -4.1077   -1.7213 C   0  0  0  0  0  0  0  0  0  0  0  0
    8.0534   -5.3807   -1.7003 C   0  0  0  0  0  0  0  0  0  0  0  0
    7.4307   -6.4220   -0.9957 C   0  0  0  0  0  0  0  0  0  0  0  0
    8.1200   -8.0751   -1.0346 S   0  0  0  0  0  0  0  0  0  0  0  0
    9.2374   -7.7747    0.3772 C   0  0  0  0  0  0  0  0  0  0  0  0
    6.2354   -6.1866   -0.3088 C   0  0  0  0  0  0  0  0  0  0  0  0
    5.6507   -4.9172   -0.3382 C   0  0  0  0  0  0  0  0  0  0  0  0
    4.0458   -1.1193   -2.4953 C   0  0  0  0  0  0  0  0  0  0  0  0
    4.1499    0.3847   -1.8093 S   0  0  0  0  0  0  0  0  0  0  0  0
    4.6664   -4.6713   -3.4435 C   0  0  0  0  0  0  0  0  0  0  0  0
    3.9093   -5.7620   -3.6887 C   0  0  0  0  0  0  0  0  0  0  0  0
    2.4618   -5.8472   -3.4397 C   0  0  0  0  0  0  0  0  0  0  0  0
    1.9389   -5.1230   -2.5506 O   0  0  0  0  0  0  0  0  0  0  0  0
    1.6665   -6.8147   -4.1579 N   0  0  0  0  0  0  0  0  0  0  0  0
    0.2782   -7.0590   -3.7323 C   0  0  0  0  0  0  0  0  0  0  0  0
    0.2214   -8.2394   -2.7697 C   0  0  0  0  0  0  0  0  0  0  0  0
    2.2995   -7.6627   -5.1434 C   0  0  0  0  0  0  0  0  0  0  0  0
    1.3790   -8.4234   -6.2744 S   0  0  0  0  0  0  0  0  0  0  0  0
    3.7481   -7.7733   -5.1760 N   0  0  0  0  0  0  0  0  0  0  0  0
    4.4515   -8.4977   -6.2481 C   0  0  0  0  0  0  0  0  0  0  0  0
    4.6263   -7.6044   -7.4833 C   0  0  0  0  0  0  0  0  0  0  0  0
    4.5260   -6.9493   -4.2855 C   0  0  0  0  0  0  0  0  0  0  0  0
    5.7082   -7.2544   -3.9932 O   0  0  0  0  0  0  0  0  0  0  0  0
   -4.0279    1.6573    4.9431 H   0  0  0  0  0  0  0  0  0  0  0  0
   -8.6154   -0.4177    2.9617 H   0  0  0  0  0  0  0  0  0  0  0  0
   -7.2781    3.1944   -0.3915 H   0  0  0  0  0  0  0  0  0  0  0  0
  -10.5980    2.1087   -0.7817 H   0  0  0  0  0  0  0  0  0  0  0  0
   -8.8660    1.2411   -2.7561 H   0  0  0  0  0  0  0  0  0  0  0  0
  -11.2019    0.2127   -3.4693 H   0  0  0  0  0  0  0  0  0  0  0  0
  -11.7388   -1.7901   -1.8725 H   0  0  0  0  0  0  0  0  0  0  0  0
   -9.7622   -2.0009   -0.1174 H   0  0  0  0  0  0  0  0  0  0  0  0
   -7.7687   -0.4335   -0.9827 H   0  0  0  0  0  0  0  0  0  0  0  0
   -8.4725   -1.3577   -2.3628 H   0  0  0  0  0  0  0  0  0  0  0  0
  -11.1655    0.2846    0.6623 H   0  0  0  0  0  0  0  0  0  0  0  0
   -1.5109   -0.8020    6.0746 H   0  0  0  0  0  0  0  0  0  0  0  0
   -1.2308   -0.7079    8.5072 H   0  0  0  0  0  0  0  0  0  0  0  0
    1.4445    0.0615    9.7950 H   0  0  0  0  0  0  0  0  0  0  0  0
    1.6792    1.0257   11.3067 H   0  0  0  0  0  0  0  0  0  0  0  0
    1.8245    1.8365    9.6979 H   0  0  0  0  0  0  0  0  0  0  0  0
   -0.1682    3.4479    8.2551 H   0  0  0  0  0  0  0  0  0  0  0  0
   -0.4333    3.3830    5.8210 H   0  0  0  0  0  0  0  0  0  0  0  0
    1.0694    0.3766    3.1981 H   0  0  0  0  0  0  0  0  0  0  0  0
    1.3783   -1.7244    1.9429 H   0  0  0  0  0  0  0  0  0  0  0  0
    0.5305   -5.7755    2.8119 H   0  0  0  0  0  0  0  0  0  0  0  0
    1.4021   -4.2258    3.1138 H   0  0  0  0  0  0  0  0  0  0  0  0
   -0.2352   -4.5096    3.8351 H   0  0  0  0  0  0  0  0  0  0  0  0
   -2.7265   -2.7572    2.6364 H   0  0  0  0  0  0  0  0  0  0  0  0
   -3.0844   -0.6000    3.7884 H   0  0  0  0  0  0  0  0  0  0  0  0
   -1.4669    8.1087    3.5262 H   0  0  0  0  0  0  0  0  0  0  0  0
   -0.2987    9.0519    5.4956 H   0  0  0  0  0  0  0  0  0  0  0  0
    2.6639    7.5656    8.4073 H   0  0  0  0  0  0  0  0  0  0  0  0
    2.5042    6.5235    6.9425 H   0  0  0  0  0  0  0  0  0  0  0  0
    1.0466    7.3602    7.6270 H   0  0  0  0  0  0  0  0  0  0  0  0
    3.3939    7.3058    4.1524 H   0  0  0  0  0  0  0  0  0  0  0  0
    2.2520    6.3909    2.1746 H   0  0  0  0  0  0  0  0  0  0  0  0
   -2.9287    6.5295    0.6865 H   0  0  0  0  0  0  0  0  0  0  0  0
   -3.9570    8.2015   -0.8064 H   0  0  0  0  0  0  0  0  0  0  0  0
   -3.5448   12.6700   -1.1754 H   0  0  0  0  0  0  0  0  0  0  0  0
   -3.8715   11.2822   -0.0603 H   0  0  0  0  0  0  0  0  0  0  0  0
   -2.1815   11.9124   -0.2657 H   0  0  0  0  0  0  0  0  0  0  0  0
   -0.1639   10.1824   -1.2471 H   0  0  0  0  0  0  0  0  0  0  0  0
    0.8637    8.5478    0.2843 H   0  0  0  0  0  0  0  0  0  0  0  0
    6.0619    5.1928    0.9364 H   0  0  0  0  0  0  0  0  0  0  0  0
    6.7378    3.9742   -0.2054 H   0  0  0  0  0  0  0  0  0  0  0  0
    6.1083    2.1411    1.3172 H   0  0  0  0  0  0  0  0  0  0  0  0
    5.2712    3.2772    2.4282 H   0  0  0  0  0  0  0  0  0  0  0  0
    7.0692    3.3619    2.2372 H   0  0  0  0  0  0  0  0  0  0  0  0
   -1.2547   -0.6542   -5.5625 H   0  0  0  0  0  0  0  0  0  0  0  0
   -1.5358    0.0946   -7.8431 H   0  0  0  0  0  0  0  0  0  0  0  0
    1.6790    0.2669   -9.8947 H   0  0  0  0  0  0  0  0  0  0  0  0
   -0.0005   -0.4288   -9.9969 H   0  0  0  0  0  0  0  0  0  0  0  0
    0.6502    0.5575  -11.3596 H   0  0  0  0  0  0  0  0  0  0  0  0
    1.8327    2.7077   -7.4276 H   0  0  0  0  0  0  0  0  0  0  0  0
    2.1988    1.9170   -5.1620 H   0  0  0  0  0  0  0  0  0  0  0  0
   -0.3349    0.3411   -1.4257 H   0  0  0  0  0  0  0  0  0  0  0  0
   -1.9163   -1.1779   -0.3036 H   0  0  0  0  0  0  0  0  0  0  0  0
   -5.3572   -3.6443   -1.7299 H   0  0  0  0  0  0  0  0  0  0  0  0
   -4.2768   -3.0212   -3.0416 H   0  0  0  0  0  0  0  0  0  0  0  0
   -4.6299   -2.0021   -1.5784 H   0  0  0  0  0  0  0  0  0  0  0  0
   -1.5289   -3.9879   -3.5331 H   0  0  0  0  0  0  0  0  0  0  0  0
    0.0250   -2.4720   -4.6836 H   0  0  0  0  0  0  0  0  0  0  0  0
    7.6754   -1.6064    0.1870 H   0  0  0  0  0  0  0  0  0  0  0  0
    7.5812   -0.3520    2.3124 H   0  0  0  0  0  0  0  0  0  0  0  0
    5.8994   -1.7411    4.7420 H   0  0  0  0  0  0  0  0  0  0  0  0
    4.1346   -1.3476    4.9121 H   0  0  0  0  0  0  0  0  0  0  0  0
    5.3343   -0.6699    6.0854 H   0  0  0  0  0  0  0  0  0  0  0  0
    3.3001   -0.6043    2.3003 H   0  0  0  0  0  0  0  0  0  0  0  0
    3.3734   -1.9371    0.2148 H   0  0  0  0  0  0  0  0  0  0  0  0
    7.9427   -3.3166   -2.2929 H   0  0  0  0  0  0  0  0  0  0  0  0
    8.9685   -5.5626   -2.2492 H   0  0  0  0  0  0  0  0  0  0  0  0
   10.0107   -7.0245    0.0890 H   0  0  0  0  0  0  0  0  0  0  0  0
    9.7401   -8.7288    0.6448 H   0  0  0  0  0  0  0  0  0  0  0  0
    8.6656   -7.4048    1.2566 H   0  0  0  0  0  0  0  0  0  0  0  0
    5.7447   -6.9846    0.2292 H   0  0  0  0  0  0  0  0  0  0  0  0
    4.7164   -4.7439    0.1722 H   0  0  0  0  0  0  0  0  0  0  0  0
    5.7341   -4.7261   -3.6376 H   0  0  0  0  0  0  0  0  0  0  0  0
   -0.3723   -7.2729   -4.6021 H   0  0  0  0  0  0  0  0  0  0  0  0
   -0.1549   -6.1638   -3.2375 H   0  0  0  0  0  0  0  0  0  0  0  0
    0.8369   -8.0206   -1.8704 H   0  0  0  0  0  0  0  0  0  0  0  0
   -0.8293   -8.4267   -2.4573 H   0  0  0  0  0  0  0  0  0  0  0  0
    0.6084   -9.1577   -3.2569 H   0  0  0  0  0  0  0  0  0  0  0  0
    3.9002   -9.4228   -6.5169 H   0  0  0  0  0  0  0  0  0  0  0  0
    5.4513   -8.8331   -5.8998 H   0  0  0  0  0  0  0  0  0  0  0  0
    5.7039   -7.3991   -7.6654 H   0  0  0  0  0  0  0  0  0  0  0  0
    4.1992   -8.1078   -8.3824 H   0  0  0  0  0  0  0  0  0  0  0  0
    4.0960   -6.6324   -7.3538 H   0  0  0  0  0  0  0  0  0  0  0  0
  1  2  2  3
  2  3  1  0
  3  4  2  0
  3  5  1  0
  5  6  2  0
  6  7  1  0
  7  8  2  0
  8  9  1  0
  9 10  2  0
 10 11  1  0
 11 12  2  3
 12 13  1  0
 13 14  3  0
 12 15  1  0
 15 16  3  0
  8 17  1  0
 17 18  1  0
 18 19  1  0
 19 20  2  0
 20 21  1  0
 21 22  1  0
 21 23  1  0
  1 24  1  0
 24 25  2  0
 25 26  1  0
 26 27  1  0
 27 28  2  0
 28 29  1  0
 29 30  2  0
 30 31  1  0
 31 32  1  0
 30 33  1  0
 33 34  2  0
 26 35  1  0
 35 36  2  0
 36 37  1  0
 37 38  2  0
 38 39  1  0
 39 40  1  0
 38 41  1  0
 41 42  2  0
 25 43  1  0
 43 44  1  0
 44 45  1  0
 45 46  2  0
 46 47  1  0
 47 48  1  0
 48 49  2  0
 49 50  1  0
 50 51  2  0
 51 52  1  0
 52 53  1  0
 51 54  1  0
 54 55  2  0
 47 56  1  0
 56 57  2  0
 57 58  1  0
 58 59  2  0
 59 60  1  0
 60 61  1  0
 59 62  1  0
 62 63  2  0
 46 64  1  0
 64 65  1  0
 45 66  1  0
 66 67  1  0
 67 68  2  0
 68 69  1  0
 69 70  1  0
 70 71  1  0
 69 72  1  0
 72 73  2  0
 73 74  1  0
 74 75  2  0
 75 76  1  0
 76 77  1  0
 75 78  1  0
 74 79  1  0
 79 80  2  0
 80 81  1  0
 81 82  1  0
 82 83  2  0
 83 84  1  0
 84 85  2  0
 85 86  1  0
 86 87  1  0
 85 88  1  0
 88 89  2  0
 81 90  1  0
 90 91  2  0
 91 92  1  0
 92 93  2  0
 93 94  1  0
 94 95  1  0
 93 96  1  0
 96 97  2  0
 80 98  1  0
 98 99  1  0
 99100  1  0
100101  2  0
101102  1  0
102103  1  0
103104  2  0
104105  1  0
105106  2  0
106107  1  0
107108  1  0
106109  1  0
109110  2  0
102111  1  0
111112  2  0
112113  1  0
113114  2  0
114115  1  0
115116  1  0
114117  1  0
117118  2  0
101119  1  0
119120  1  0
100121  1  0
121122  2  3
122123  1  0
123124  2  0
123125  1  0
125126  1  0
126127  1  0
125128  1  0
128129  2  0
128130  1  0
130131  1  0
131132  1  0
130133  1  0
133134  2  0
 11  2  1  0
 23 17  1  0
 65 24  1  0
 76 66  2  0
120 79  1  0
133122  1  0
 10  5  1  0
 22 18  1  0
 34 27  1  0
 42 35  1  0
 64 43  2  0
 73 67  1  0
 89 82  1  0
 97 90  1  0
119 98  2  0
 23  7  1  0
 55 48  1  0
 63 56  1  0
110103  1  0
118111  1  0
  1135  1  0
  6136  1  0
  9137  1  0
 17138  1  0
 18139  1  0
 19140  1  0
 20141  1  0
 21142  1  0
 22143  1  0
 22144  1  0
 23145  1  0
 28146  1  0
 29147  1  0
 32148  1  0
 32149  1  0
 32150  1  0
 33151  1  0
 34152  1  0
 36153  1  0
 37154  1  0
 40155  1  0
 40156  1  0
 40157  1  0
 41158  1  0
 42159  1  0
 49160  1  0
 50161  1  0
 53162  1  0
 53163  1  0
 53164  1  0
 54165  1  0
 55166  1  0
 57167  1  0
 58168  1  0
 61169  1  0
 61170  1  0
 61171  1  0
 62172  1  0
 63173  1  0
 70174  1  0
 70175  1  0
 71176  1  0
 71177  1  0
 71178  1  0
 83179  1  0
 84180  1  0
 87181  1  0
 87182  1  0
 87183  1  0
 88184  1  0
 89185  1  0
 91186  1  0
 92187  1  0
 95188  1  0
 95189  1  0
 95190  1  0
 96191  1  0
 97192  1  0
104193  1  0
105194  1  0
108195  1  0
108196  1  0
108197  1  0
109198  1  0
110199  1  0
112200  1  0
113201  1  0
116202  1  0
116203  1  0
116204  1  0
117205  1  0
118206  1  0
121207  1  0
126208  1  0
126209  1  0
127210  1  0
127211  1  0
127212  1  0
131213  1  0
131214  1  0
132215  1  0
132216  1  0
132217  1  0
M  END

