
     RDKit          3D

157171  0  0  0  0  0  0  0  0999 V2000
    5.0657   -5.4837   -2.3976 C   0  0  0  0  0  0  0  0  0  0  0  0
    5.2046   -6.1056   -1.2122 C   0  0  0  0  0  0  0  0  0  0  0  0
    4.7995   -5.5461    0.0885 C   0  0  0  0  0  0  0  0  0  0  0  0
    4.7309   -4.3240    0.3899 O   0  0  0  0  0  0  0  0  0  0  0  0
    4.4553   -6.6350    0.9750 C   0  0  0  0  0  0  0  0  0  0  0  0
    3.7867   -6.5344    2.2164 C   0  0  0  0  0  0  0  0  0  0  0  0
    3.3424   -7.7445    2.7135 C   0  0  0  0  0  0  0  0  0  0  0  0
    3.5301   -8.9883    2.0311 C   0  0  0  0  0  0  0  0  0  0  0  0
    4.2030   -9.0979    0.8247 C   0  0  0  0  0  0  0  0  0  0  0  0
    4.6946   -7.8657    0.3065 C   0  0  0  0  0  0  0  0  0  0  0  0
    5.3128   -7.5809   -1.0204 C   0  0  0  0  0  0  0  0  0  0  0  0
    5.9671   -8.4579   -1.8264 C   0  0  0  0  0  0  0  0  0  0  0  0
    5.9886   -9.8749   -1.5633 C   0  0  0  0  0  0  0  0  0  0  0  0
    5.9800  -11.0209   -1.3782 N   0  0  0  0  0  0  0  0  0  0  0  0
    6.6358   -8.0424   -3.0315 C   0  0  0  0  0  0  0  0  0  0  0  0
    7.1529   -7.6919   -4.0042 N   0  0  0  0  0  0  0  0  0  0  0  0
    2.7044   -9.7008    3.0615 C   0  0  0  0  0  0  0  0  0  0  0  0
    1.2452  -10.1027    2.6765 C   0  0  0  0  0  0  0  0  0  0  0  0
    0.6795   -9.1188    1.6785 C   0  0  0  0  0  0  0  0  0  0  0  0
    0.5215   -7.9650    2.3345 C   0  0  0  0  0  0  0  0  0  0  0  0
    0.9873   -8.2038    3.7481 C   0  0  0  0  0  0  0  0  0  0  0  0
    0.5120   -9.6377    3.9174 C   0  0  0  0  0  0  0  0  0  0  0  0
    2.5284   -8.4281    3.7725 C   0  0  0  0  0  0  0  0  0  0  0  0
    4.4336   -4.1544   -2.5390 C   0  0  0  0  0  0  0  0  0  0  0  0
    3.1752   -4.0481   -3.1449 C   0  0  0  0  0  0  0  0  0  0  0  0
    2.5839   -5.1381   -3.7066 N   0  0  0  0  0  0  0  0  0  0  0  0
    1.4217   -5.0359   -4.3957 C   0  0  0  0  0  0  0  0  0  0  0  0
    0.8242   -3.7882   -4.5513 C   0  0  0  0  0  0  0  0  0  0  0  0
   -0.2953   -3.6693   -5.3840 O   0  0  0  0  0  0  0  0  0  0  0  0
   -0.8896   -2.4221   -5.7388 C   0  0  0  0  0  0  0  0  0  0  0  0
   -1.9095   -2.0150   -4.6908 C   0  0  0  0  0  0  0  0  0  0  0  0
    1.3689   -2.7064   -3.9271 N   0  0  0  0  0  0  0  0  0  0  0  0
    2.5214   -2.7983   -3.2050 C   0  0  0  0  0  0  0  0  0  0  0  0
    3.1092   -1.6529   -2.6071 C   0  0  0  0  0  0  0  0  0  0  0  0
    4.4857   -1.7364   -2.2907 C   0  0  0  0  0  0  0  0  0  0  0  0
    5.1189   -2.9818   -2.1945 C   0  0  0  0  0  0  0  0  0  0  0  0
    6.4170   -3.0442   -1.8046 F   0  0  0  0  0  0  0  0  0  0  0  0
    5.2617   -0.6335   -2.1948 F   0  0  0  0  0  0  0  0  0  0  0  0
    2.2639   -0.4416   -2.2936 C   0  0  0  0  0  0  0  0  0  0  0  0
    2.6401    0.8793   -1.8923 C   0  0  0  0  0  0  0  0  0  0  0  0
    3.8283    1.1989   -1.1376 N   0  0  0  0  0  0  0  0  0  0  0  0
    4.5207    2.4325   -1.4305 C   0  0  0  0  0  0  0  0  0  0  0  0
    4.7834    2.7988   -2.7622 C   0  0  0  0  0  0  0  0  0  0  0  0
    5.3898    4.0261   -3.0500 C   0  0  0  0  0  0  0  0  0  0  0  0
    5.7319    4.9015   -2.0128 C   0  0  0  0  0  0  0  0  0  0  0  0
    6.4812    6.4884   -2.3827 S   0  0  0  0  0  0  0  0  0  0  0  0
    4.8967    7.3835   -2.3747 C   0  0  0  0  0  0  0  0  0  0  0  0
    5.4795    4.5409   -0.6856 C   0  0  0  0  0  0  0  0  0  0  0  0
    4.8723    3.3184   -0.3956 C   0  0  0  0  0  0  0  0  0  0  0  0
    4.1187    0.4629    0.0809 C   0  0  0  0  0  0  0  0  0  0  0  0
    5.4480    0.3252    0.5297 C   0  0  0  0  0  0  0  0  0  0  0  0
    5.7409   -0.4399    1.6618 C   0  0  0  0  0  0  0  0  0  0  0  0
    4.7123   -1.0609    2.3765 C   0  0  0  0  0  0  0  0  0  0  0  0
    5.0856   -2.0817    3.8025 S   0  0  0  0  0  0  0  0  0  0  0  0
    5.0936   -0.6831    4.9686 C   0  0  0  0  0  0  0  0  0  0  0  0
    3.3866   -0.9188    1.9507 C   0  0  0  0  0  0  0  0  0  0  0  0
    3.0912   -0.1592    0.8193 C   0  0  0  0  0  0  0  0  0  0  0  0
    1.5145    1.7111   -1.7766 C   0  0  0  0  0  0  0  0  0  0  0  0
    1.3007    3.2810   -1.2188 S   0  0  0  0  0  0  0  0  0  0  0  0
   -0.3880    3.1360   -1.0584 C   0  0  0  0  0  0  0  0  0  0  0  0
   -0.7751    1.8137   -1.3491 C   0  0  0  0  0  0  0  0  0  0  0  0
   -1.9021    1.1825   -0.7071 N   0  0  0  0  0  0  0  0  0  0  0  0
   -2.8607    0.4075   -1.4555 C   0  0  0  0  0  0  0  0  0  0  0  0
   -3.2637    0.8122   -2.7390 C   0  0  0  0  0  0  0  0  0  0  0  0
   -4.3063    0.1500   -3.3932 C   0  0  0  0  0  0  0  0  0  0  0  0
   -4.9564   -0.9215   -2.7723 C   0  0  0  0  0  0  0  0  0  0  0  0
   -6.3926   -1.6806   -3.5353 S   0  0  0  0  0  0  0  0  0  0  0  0
   -5.4596   -3.0587   -4.2748 C   0  0  0  0  0  0  0  0  0  0  0  0
   -4.5394   -1.3519   -1.5081 C   0  0  0  0  0  0  0  0  0  0  0  0
   -3.4882   -0.7021   -0.8614 C   0  0  0  0  0  0  0  0  0  0  0  0
   -2.0829    1.3845    0.7154 C   0  0  0  0  0  0  0  0  0  0  0  0
   -3.3278    1.7910    1.2288 C   0  0  0  0  0  0  0  0  0  0  0  0
   -3.4661    2.0918    2.5872 C   0  0  0  0  0  0  0  0  0  0  0  0
   -2.3736    1.9626    3.4502 C   0  0  0  0  0  0  0  0  0  0  0  0
   -2.5473    2.3570    5.1934 S   0  0  0  0  0  0  0  0  0  0  0  0
   -1.9700    4.0699    4.9900 C   0  0  0  0  0  0  0  0  0  0  0  0
   -1.1396    1.5225    2.9534 C   0  0  0  0  0  0  0  0  0  0  0  0
   -0.9939    1.2460    1.5925 C   0  0  0  0  0  0  0  0  0  0  0  0
    0.3111    1.0855   -1.8294 C   0  0  0  0  0  0  0  0  0  0  0  0
    0.5591   -0.5191   -2.1699 S   0  0  0  0  0  0  0  0  0  0  0  0
   -1.2986    4.2248   -0.6667 C   0  0  0  0  0  0  0  0  0  0  0  0
   -2.6837    4.2119   -0.8114 C   0  0  0  0  0  0  0  0  0  0  0  0
   -3.2997    5.3988   -0.4227 C   0  0  0  0  0  0  0  0  0  0  0  0
   -5.0255    5.6509   -0.6125 Cl  0  0  0  0  0  0  0  0  0  0  0  0
   -2.3997    6.3705    0.0132 C   0  0  0  0  0  0  0  0  0  0  0  0
   -0.8410    5.7543   -0.1211 S   0  0  0  0  0  0  0  0  0  0  0  0
   -2.7315    7.7837    0.2606 C   0  0  0  0  0  0  0  0  0  0  0  0
   -3.6974    8.1889    1.1130 C   0  0  0  0  0  0  0  0  0  0  0  0
   -4.2791    9.5378    0.9759 C   0  0  0  0  0  0  0  0  0  0  0  0
   -3.7120   10.3935    0.2374 O   0  0  0  0  0  0  0  0  0  0  0  0
   -5.5315    9.8582    1.6151 N   0  0  0  0  0  0  0  0  0  0  0  0
   -6.1961   11.1316    1.2796 C   0  0  0  0  0  0  0  0  0  0  0  0
   -7.0640   10.9654    0.0322 C   0  0  0  0  0  0  0  0  0  0  0  0
   -6.1721    8.8751    2.4684 C   0  0  0  0  0  0  0  0  0  0  0  0
   -7.7514    9.0599    2.9070 S   0  0  0  0  0  0  0  0  0  0  0  0
   -5.4392    7.6975    2.8841 N   0  0  0  0  0  0  0  0  0  0  0  0
   -5.9161    6.8489    3.9922 C   0  0  0  0  0  0  0  0  0  0  0  0
   -6.7164    5.6699    3.4571 C   0  0  0  0  0  0  0  0  0  0  0  0
   -4.2345    7.3258    2.1885 C   0  0  0  0  0  0  0  0  0  0  0  0
   -3.6076    6.2878    2.5312 O   0  0  0  0  0  0  0  0  0  0  0  0
    5.1232   -6.0586   -3.3095 H   0  0  0  0  0  0  0  0  0  0  0  0
    3.5606   -5.5901    2.6908 H   0  0  0  0  0  0  0  0  0  0  0  0
    4.2497  -10.0391    0.3050 H   0  0  0  0  0  0  0  0  0  0  0  0
    3.2652  -10.4691    3.6417 H   0  0  0  0  0  0  0  0  0  0  0  0
    1.1050  -11.1672    2.4100 H   0  0  0  0  0  0  0  0  0  0  0  0
    0.3871   -9.3136    0.6542 H   0  0  0  0  0  0  0  0  0  0  0  0
    0.0825   -7.0596    1.9283 H   0  0  0  0  0  0  0  0  0  0  0  0
    0.6015   -7.4827    4.5007 H   0  0  0  0  0  0  0  0  0  0  0  0
    0.8702  -10.1156    4.8570 H   0  0  0  0  0  0  0  0  0  0  0  0
   -0.5980   -9.7472    3.8480 H   0  0  0  0  0  0  0  0  0  0  0  0
    2.9953   -8.4163    4.7852 H   0  0  0  0  0  0  0  0  0  0  0  0
    0.9929   -5.9093   -4.8642 H   0  0  0  0  0  0  0  0  0  0  0  0
   -0.1213   -1.6328   -5.8710 H   0  0  0  0  0  0  0  0  0  0  0  0
   -1.4119   -2.5532   -6.7088 H   0  0  0  0  0  0  0  0  0  0  0  0
   -2.4583   -1.1175   -5.0450 H   0  0  0  0  0  0  0  0  0  0  0  0
   -1.4092   -1.7875   -3.7326 H   0  0  0  0  0  0  0  0  0  0  0  0
   -2.6174   -2.8456   -4.5232 H   0  0  0  0  0  0  0  0  0  0  0  0
    4.5251    2.1347   -3.5761 H   0  0  0  0  0  0  0  0  0  0  0  0
    5.5830    4.3014   -4.0789 H   0  0  0  0  0  0  0  0  0  0  0  0
    4.4376    7.3366   -1.3643 H   0  0  0  0  0  0  0  0  0  0  0  0
    4.2005    6.9488   -3.1175 H   0  0  0  0  0  0  0  0  0  0  0  0
    5.0828    8.4461   -2.6315 H   0  0  0  0  0  0  0  0  0  0  0  0
    5.7290    5.2191    0.1222 H   0  0  0  0  0  0  0  0  0  0  0  0
    4.6472    3.0770    0.6360 H   0  0  0  0  0  0  0  0  0  0  0  0
    6.2613    0.7868   -0.0192 H   0  0  0  0  0  0  0  0  0  0  0  0
    6.7711   -0.5469    1.9802 H   0  0  0  0  0  0  0  0  0  0  0  0
    4.1664   -0.0826    4.8651 H   0  0  0  0  0  0  0  0  0  0  0  0
    5.9790   -0.0496    4.7679 H   0  0  0  0  0  0  0  0  0  0  0  0
    5.1571   -1.0762    6.0071 H   0  0  0  0  0  0  0  0  0  0  0  0
    2.5844   -1.4016    2.4930 H   0  0  0  0  0  0  0  0  0  0  0  0
    2.0584   -0.0744    0.5132 H   0  0  0  0  0  0  0  0  0  0  0  0
   -2.8087    1.6747   -3.2070 H   0  0  0  0  0  0  0  0  0  0  0  0
   -4.6304    0.4899   -4.3713 H   0  0  0  0  0  0  0  0  0  0  0  0
   -6.1677   -3.8580   -4.5664 H   0  0  0  0  0  0  0  0  0  0  0  0
   -4.7337   -3.4817   -3.5506 H   0  0  0  0  0  0  0  0  0  0  0  0
   -4.9366   -2.6931   -5.1803 H   0  0  0  0  0  0  0  0  0  0  0  0
   -5.0314   -2.1849   -1.0241 H   0  0  0  0  0  0  0  0  0  0  0  0
   -3.1826   -1.0425    0.1212 H   0  0  0  0  0  0  0  0  0  0  0  0
   -4.1795    1.9181    0.5701 H   0  0  0  0  0  0  0  0  0  0  0  0
   -4.4212    2.4311    2.9664 H   0  0  0  0  0  0  0  0  0  0  0  0
   -1.9331    4.5619    5.9851 H   0  0  0  0  0  0  0  0  0  0  0  0
   -0.9491    4.0771    4.5494 H   0  0  0  0  0  0  0  0  0  0  0  0
   -2.6654    4.6290    4.3371 H   0  0  0  0  0  0  0  0  0  0  0  0
   -0.2910    1.4039    3.6221 H   0  0  0  0  0  0  0  0  0  0  0  0
   -0.0271    0.9171    1.2219 H   0  0  0  0  0  0  0  0  0  0  0  0
   -3.2404    3.3865   -1.2238 H   0  0  0  0  0  0  0  0  0  0  0  0
   -2.2648    8.4965   -0.4096 H   0  0  0  0  0  0  0  0  0  0  0  0
   -5.4415   11.9295    1.0833 H   0  0  0  0  0  0  0  0  0  0  0  0
   -6.8179   11.4963    2.1236 H   0  0  0  0  0  0  0  0  0  0  0  0
   -7.5334   11.9378   -0.2227 H   0  0  0  0  0  0  0  0  0  0  0  0
   -7.8591   10.2129    0.2116 H   0  0  0  0  0  0  0  0  0  0  0  0
   -6.4444   10.6287   -0.8263 H   0  0  0  0  0  0  0  0  0  0  0  0
   -5.0557    6.4682    4.5829 H   0  0  0  0  0  0  0  0  0  0  0  0
   -6.5367    7.4319    4.7035 H   0  0  0  0  0  0  0  0  0  0  0  0
   -7.1165    5.0720    4.3061 H   0  0  0  0  0  0  0  0  0  0  0  0
   -6.0707    5.0180    2.8305 H   0  0  0  0  0  0  0  0  0  0  0  0
   -7.5720    6.0306    2.8447 H   0  0  0  0  0  0  0  0  0  0  0  0
  1  2  2  3
  2  3  1  0
  3  4  2  0
  3  5  1  0
  5  6  2  0
  6  7  1  0
  7  8  2  0
  8  9  1  0
  9 10  2  0
 10 11  1  0
 11 12  2  3
 12 13  1  0
 13 14  3  0
 12 15  1  0
 15 16  3  0
  8 17  1  0
 17 18  1  0
 18 19  1  0
 19 20  2  0
 20 21  1  0
 21 22  1  0
 21 23  1  0
  1 24  1  0
 24 25  1  0
 25 26  2  0
 26 27  1  0
 27 28  2  0
 28 29  1  0
 29 30  1  0
 30 31  1  0
 28 32  1  0
 32 33  2  0
 33 34  1  0
 34 35  2  0
 35 36  1  0
 36 37  1  0
 35 38  1  0
 34 39  1  0
 39 40  2  0
 40 41  1  0
 41 42  1  0
 42 43  2  0
 43 44  1  0
 44 45  2  0
 45 46  1  0
 46 47  1  0
 45 48  1  0
 48 49  2  0
 41 50  1  0
 50 51  2  0
 51 52  1  0
 52 53  2  0
 53 54  1  0
 54 55  1  0
 53 56  1  0
 56 57  2  0
 40 58  1  0
 58 59  1  0
 59 60  1  0
 60 61  2  0
 61 62  1  0
 62 63  1  0
 63 64  2  0
 64 65  1  0
 65 66  2  0
 66 67  1  0
 67 68  1  0
 66 69  1  0
 69 70  2  0
 62 71  1  0
 71 72  2  0
 72 73  1  0
 73 74  2  0
 74 75  1  0
 75 76  1  0
 74 77  1  0
 77 78  2  0
 61 79  1  0
 79 80  1  0
 60 81  1  0
 81 82  2  0
 82 83  1  0
 83 84  1  0
 83 85  2  0
 85 86  1  0
 85 87  1  0
 87 88  2  3
 88 89  1  0
 89 90  2  0
 89 91  1  0
 91 92  1  0
 92 93  1  0
 91 94  1  0
 94 95  2  0
 94 96  1  0
 96 97  1  0
 97 98  1  0
 96 99  1  0
 99100  2  0
 11  2  1  0
 23 17  1  0
 36 24  2  0
 80 39  1  0
 86 81  1  0
 99 88  1  0
 10  5  1  0
 22 18  1  0
 33 25  1  0
 49 42  1  0
 57 50  1  0
 79 58  2  0
 23  7  1  0
 70 63  1  0
 78 71  1  0
  1101  1  0
  6102  1  0
  9103  1  0
 17104  1  0
 18105  1  0
 19106  1  0
 20107  1  0
 21108  1  0
 22109  1  0
 22110  1  0
 23111  1  0
 27112  1  0
 30113  1  0
 30114  1  0
 31115  1  0
 31116  1  0
 31117  1  0
 43118  1  0
 44119  1  0
 47120  1  0
 47121  1  0
 47122  1  0
 48123  1  0
 49124  1  0
 51125  1  0
 52126  1  0
 55127  1  0
 55128  1  0
 55129  1  0
 56130  1  0
 57131  1  0
 64132  1  0
 65133  1  0
 68134  1  0
 68135  1  0
 68136  1  0
 69137  1  0
 70138  1  0
 72139  1  0
 73140  1  0
 76141  1  0
 76142  1  0
 76143  1  0
 77144  1  0
 78145  1  0
 82146  1  0
 87147  1  0
 92148  1  0
 92149  1  0
 93150  1  0
 93151  1  0
 93152  1  0
 97153  1  0
 97154  1  0
 98155  1  0
 98156  1  0
 98157  1  0
M  END

