
     RDKit          3D

222245  0  0  0  0  0  0  0  0999 V2000
   -0.0703    6.1357    1.3470 C   0  0  0  0  0  0  0  0  0  0  0  0
    0.4697    6.7733    2.4169 C   0  0  0  0  0  0  0  0  0  0  0  0
   -0.4557    7.1277    3.5245 C   0  0  0  0  0  0  0  0  0  0  0  0
   -1.7077    6.9570    3.5370 O   0  0  0  0  0  0  0  0  0  0  0  0
    0.2776    7.6278    4.6609 C   0  0  0  0  0  0  0  0  0  0  0  0
   -0.2806    8.0441    5.9043 C   0  0  0  0  0  0  0  0  0  0  0  0
    0.6782    8.5346    6.7852 C   0  0  0  0  0  0  0  0  0  0  0  0
    2.0914    8.5594    6.4770 C   0  0  0  0  0  0  0  0  0  0  0  0
    2.6380    8.1479    5.2783 C   0  0  0  0  0  0  0  0  0  0  0  0
    1.6669    7.6548    4.3380 C   0  0  0  0  0  0  0  0  0  0  0  0
    1.8498    7.1776    2.9197 C   0  0  0  0  0  0  0  0  0  0  0  0
    2.9781    7.2304    2.1844 C   0  0  0  0  0  0  0  0  0  0  0  0
    4.2715    7.5943    2.7337 C   0  0  0  0  0  0  0  0  0  0  0  0
    5.3168    7.8858    3.1638 N   0  0  0  0  0  0  0  0  0  0  0  0
    2.9866    7.0297    0.7532 C   0  0  0  0  0  0  0  0  0  0  0  0
    3.0019    6.8910   -0.3844 N   0  0  0  0  0  0  0  0  0  0  0  0
    2.3802    9.0775    7.8488 C   0  0  0  0  0  0  0  0  0  0  0  0
    2.9610    8.0364    8.8688 C   0  0  0  0  0  0  0  0  0  0  0  0
    2.3941    6.6522    8.6272 C   0  0  0  0  0  0  0  0  0  0  0  0
    1.0988    6.7017    8.9483 C   0  0  0  0  0  0  0  0  0  0  0  0
    0.8259    8.1250    9.3791 C   0  0  0  0  0  0  0  0  0  0  0  0
    2.1374    8.4131   10.0892 C   0  0  0  0  0  0  0  0  0  0  0  0
    0.9448    9.0917    8.1592 C   0  0  0  0  0  0  0  0  0  0  0  0
    0.5857    5.3956    0.2350 C   0  0  0  0  0  0  0  0  0  0  0  0
    1.1681    4.0964    0.3568 C   0  0  0  0  0  0  0  0  0  0  0  0
    1.4729    3.4758    1.6345 N   0  0  0  0  0  0  0  0  0  0  0  0
    0.3718    3.1106    2.5149 C   0  0  0  0  0  0  0  0  0  0  0  0
   -0.6286    2.2385    2.0371 C   0  0  0  0  0  0  0  0  0  0  0  0
   -1.7664    1.9570    2.8135 C   0  0  0  0  0  0  0  0  0  0  0  0
   -1.9074    2.5306    4.0922 C   0  0  0  0  0  0  0  0  0  0  0  0
   -3.3773    2.1546    5.0503 S   0  0  0  0  0  0  0  0  0  0  0  0
   -4.4452    3.3372    4.1441 C   0  0  0  0  0  0  0  0  0  0  0  0
   -0.9277    3.3978    4.5779 C   0  0  0  0  0  0  0  0  0  0  0  0
    0.1966    3.6897    3.7900 C   0  0  0  0  0  0  0  0  0  0  0  0
    2.8251    3.1954    2.0380 C   0  0  0  0  0  0  0  0  0  0  0  0
    3.4095    3.8514    3.1544 C   0  0  0  0  0  0  0  0  0  0  0  0
    4.6106    3.3959    3.6996 C   0  0  0  0  0  0  0  0  0  0  0  0
    5.2873    2.3169    3.1019 C   0  0  0  0  0  0  0  0  0  0  0  0
    6.8677    1.7811    3.7574 S   0  0  0  0  0  0  0  0  0  0  0  0
    6.1858    0.5673    4.9345 C   0  0  0  0  0  0  0  0  0  0  0  0
    4.7778    1.7443    1.9257 C   0  0  0  0  0  0  0  0  0  0  0  0
    3.5687    2.1943    1.3921 C   0  0  0  0  0  0  0  0  0  0  0  0
    0.9888    3.3464   -0.8292 C   0  0  0  0  0  0  0  0  0  0  0  0
    1.1190    1.7174   -1.1958 S   0  0  0  0  0  0  0  0  0  0  0  0
    0.3594    1.7290   -2.7206 C   0  0  0  0  0  0  0  0  0  0  0  0
   -0.1286    3.0476   -2.9170 C   0  0  0  0  0  0  0  0  0  0  0  0
   -1.0551    3.4788   -3.9549 N   0  0  0  0  0  0  0  0  0  0  0  0
   -0.5501    4.0244   -5.1936 C   0  0  0  0  0  0  0  0  0  0  0  0
   -0.8355    5.3711   -5.5481 C   0  0  0  0  0  0  0  0  0  0  0  0
   -0.6601    5.8220   -6.8573 C   0  0  0  0  0  0  0  0  0  0  0  0
   -0.1371    4.9537   -7.8374 C   0  0  0  0  0  0  0  0  0  0  0  0
    0.2340    5.5730   -9.4847 S   0  0  0  0  0  0  0  0  0  0  0  0
   -1.4053    5.2531  -10.2222 C   0  0  0  0  0  0  0  0  0  0  0  0
    0.2274    3.6367   -7.4843 C   0  0  0  0  0  0  0  0  0  0  0  0
    0.0380    3.1881   -6.1661 C   0  0  0  0  0  0  0  0  0  0  0  0
   -2.4713    3.6538   -3.6351 C   0  0  0  0  0  0  0  0  0  0  0  0
   -3.4081    3.8192   -4.6849 C   0  0  0  0  0  0  0  0  0  0  0  0
   -4.7774    4.0035   -4.4251 C   0  0  0  0  0  0  0  0  0  0  0  0
   -5.2281    4.0810   -3.1053 C   0  0  0  0  0  0  0  0  0  0  0  0
   -6.9803    4.2496   -2.7864 S   0  0  0  0  0  0  0  0  0  0  0  0
   -6.9519    6.0744   -2.7180 C   0  0  0  0  0  0  0  0  0  0  0  0
   -4.3232    3.9363   -2.0414 C   0  0  0  0  0  0  0  0  0  0  0  0
   -2.9593    3.7039   -2.3031 C   0  0  0  0  0  0  0  0  0  0  0  0
    0.2804    3.9153   -1.8573 C   0  0  0  0  0  0  0  0  0  0  0  0
   -0.1641    5.4452   -1.3100 S   0  0  0  0  0  0  0  0  0  0  0  0
    0.4056    0.4719   -3.5628 C   0  0  0  0  0  0  0  0  0  0  0  0
   -0.6399   -0.2973   -4.1849 C   0  0  0  0  0  0  0  0  0  0  0  0
   -1.9842    0.1351   -4.5535 N   0  0  0  0  0  0  0  0  0  0  0  0
   -2.3413    0.2789   -5.9509 C   0  0  0  0  0  0  0  0  0  0  0  0
   -3.4883    1.0371   -6.3217 C   0  0  0  0  0  0  0  0  0  0  0  0
   -3.8839    1.1567   -7.6577 C   0  0  0  0  0  0  0  0  0  0  0  0
   -3.1910    0.4635   -8.6686 C   0  0  0  0  0  0  0  0  0  0  0  0
   -3.9055    0.3396  -10.3309 S   0  0  0  0  0  0  0  0  0  0  0  0
   -3.2985    1.9369  -11.0008 C   0  0  0  0  0  0  0  0  0  0  0  0
   -2.0602   -0.3059   -8.3252 C   0  0  0  0  0  0  0  0  0  0  0  0
   -1.6400   -0.3862   -6.9885 C   0  0  0  0  0  0  0  0  0  0  0  0
   -3.0320   -0.1179   -3.5662 C   0  0  0  0  0  0  0  0  0  0  0  0
   -2.8630    0.3012   -2.2328 C   0  0  0  0  0  0  0  0  0  0  0  0
   -3.8731    0.0870   -1.2759 C   0  0  0  0  0  0  0  0  0  0  0  0
   -5.0583   -0.5654   -1.6372 C   0  0  0  0  0  0  0  0  0  0  0  0
   -6.3006   -0.9017   -0.3958 S   0  0  0  0  0  0  0  0  0  0  0  0
   -7.2181    0.6821   -0.5635 C   0  0  0  0  0  0  0  0  0  0  0  0
   -5.2364   -1.0173   -2.9447 C   0  0  0  0  0  0  0  0  0  0  0  0
   -4.2221   -0.8106   -3.9075 C   0  0  0  0  0  0  0  0  0  0  0  0
   -0.3211   -1.6724   -4.2191 C   0  0  0  0  0  0  0  0  0  0  0  0
   -1.2251   -3.0852   -4.4746 S   0  0  0  0  0  0  0  0  0  0  0  0
    0.0307   -4.1636   -3.9507 C   0  0  0  0  0  0  0  0  0  0  0  0
    1.1291   -3.3844   -3.5458 C   0  0  0  0  0  0  0  0  0  0  0  0
    2.3479   -3.8936   -2.9415 N   0  0  0  0  0  0  0  0  0  0  0  0
    2.7350   -3.4937   -1.6027 C   0  0  0  0  0  0  0  0  0  0  0  0
    1.8606   -3.6481   -0.5071 C   0  0  0  0  0  0  0  0  0  0  0  0
    2.3043   -3.4787    0.8136 C   0  0  0  0  0  0  0  0  0  0  0  0
    3.6521   -3.1062    1.0549 C   0  0  0  0  0  0  0  0  0  0  0  0
    4.2167   -2.7745    2.7289 S   0  0  0  0  0  0  0  0  0  0  0  0
    5.3014   -4.2398    2.8144 C   0  0  0  0  0  0  0  0  0  0  0  0
    4.5132   -2.8865   -0.0431 C   0  0  0  0  0  0  0  0  0  0  0  0
    4.0798   -3.1025   -1.3570 C   0  0  0  0  0  0  0  0  0  0  0  0
    3.2600   -4.6839   -3.7363 C   0  0  0  0  0  0  0  0  0  0  0  0
    3.9376   -5.7886   -3.1606 C   0  0  0  0  0  0  0  0  0  0  0  0
    4.9448   -6.4610   -3.8682 C   0  0  0  0  0  0  0  0  0  0  0  0
    5.3045   -6.0469   -5.1589 C   0  0  0  0  0  0  0  0  0  0  0  0
    6.4924   -6.9940   -6.1009 S   0  0  0  0  0  0  0  0  0  0  0  0
    7.9959   -6.0517   -5.6748 C   0  0  0  0  0  0  0  0  0  0  0  0
    4.6283   -4.9533   -5.7515 C   0  0  0  0  0  0  0  0  0  0  0  0
    3.6194   -4.2727   -5.0390 C   0  0  0  0  0  0  0  0  0  0  0  0
    0.8914   -2.0167   -3.7230 C   0  0  0  0  0  0  0  0  0  0  0  0
    1.6847   -0.6362   -3.2361 S   0  0  0  0  0  0  0  0  0  0  0  0
   -0.1720   -5.6088   -3.6527 C   0  0  0  0  0  0  0  0  0  0  0  0
   -1.2832   -6.3564   -4.0138 C   0  0  0  0  0  0  0  0  0  0  0  0
   -2.0092   -6.5019   -5.2718 C   0  0  0  0  0  0  0  0  0  0  0  0
   -1.9197   -5.7130   -6.2591 O   0  0  0  0  0  0  0  0  0  0  0  0
   -2.7836   -7.7072   -5.2715 N   0  0  0  0  0  0  0  0  0  0  0  0
   -3.0519   -8.5045   -6.4577 C   0  0  0  0  0  0  0  0  0  0  0  0
   -2.5668   -8.2721   -3.9533 C   0  0  0  0  0  0  0  0  0  0  0  0
   -3.0117   -9.3784   -3.5597 O   0  0  0  0  0  0  0  0  0  0  0  0
   -1.6080   -7.4422   -3.2083 C   0  0  0  0  0  0  0  0  0  0  0  0
   -0.8651   -7.5975   -2.0391 C   0  0  0  0  0  0  0  0  0  0  0  0
    0.3598   -6.4170   -2.2322 S   0  0  0  0  0  0  0  0  0  0  0  0
   -1.2818   -8.3484   -0.8159 C   0  0  0  0  0  0  0  0  0  0  0  0
   -1.4443   -7.7764    0.4286 C   0  0  0  0  0  0  0  0  0  0  0  0
   -1.2875   -6.3384    0.7455 C   0  0  0  0  0  0  0  0  0  0  0  0
   -1.4488   -5.3780   -0.0462 O   0  0  0  0  0  0  0  0  0  0  0  0
   -1.1346   -6.1855    2.1578 C   0  0  0  0  0  0  0  0  0  0  0  0
   -1.0076   -4.9440    2.8256 C   0  0  0  0  0  0  0  0  0  0  0  0
   -1.0552   -5.0703    4.1883 C   0  0  0  0  0  0  0  0  0  0  0  0
   -1.2119   -6.3332    4.8776 C   0  0  0  0  0  0  0  0  0  0  0  0
   -1.3215   -7.5618    4.2121 C   0  0  0  0  0  0  0  0  0  0  0  0
   -1.3477   -7.4558    2.7948 C   0  0  0  0  0  0  0  0  0  0  0  0
   -1.7061   -8.4925    1.7495 C   0  0  0  0  0  0  0  0  0  0  0  0
   -2.4981   -9.5841    1.9962 C   0  0  0  0  0  0  0  0  0  0  0  0
   -3.0526  -10.3967    0.9633 C   0  0  0  0  0  0  0  0  0  0  0  0
   -3.6252  -11.0324    0.1750 N   0  0  0  0  0  0  0  0  0  0  0  0
   -3.0110   -9.8499    3.3472 C   0  0  0  0  0  0  0  0  0  0  0  0
   -3.6658   -9.9626    4.2964 N   0  0  0  0  0  0  0  0  0  0  0  0
   -1.0927   -5.6539    6.1725 C   0  0  0  0  0  0  0  0  0  0  0  0
    0.2694   -5.8109    6.9032 C   0  0  0  0  0  0  0  0  0  0  0  0
    0.2083   -4.7736    7.9993 C   0  0  0  0  0  0  0  0  0  0  0  0
    0.2772   -3.5703    7.3873 C   0  0  0  0  0  0  0  0  0  0  0  0
    0.4147   -3.8578    5.9100 C   0  0  0  0  0  0  0  0  0  0  0  0
    1.2779   -5.1171    5.9861 C   0  0  0  0  0  0  0  0  0  0  0  0
   -0.9847   -4.3693    5.4959 C   0  0  0  0  0  0  0  0  0  0  0  0
   -1.1404    5.9772    1.2992 H   0  0  0  0  0  0  0  0  0  0  0  0
   -1.3511    7.9876    6.1568 H   0  0  0  0  0  0  0  0  0  0  0  0
    3.7212    8.1986    5.1250 H   0  0  0  0  0  0  0  0  0  0  0  0
    2.8516   10.0775    7.8665 H   0  0  0  0  0  0  0  0  0  0  0  0
    4.0624    8.0764    9.0086 H   0  0  0  0  0  0  0  0  0  0  0  0
    2.9171    5.7770    8.2212 H   0  0  0  0  0  0  0  0  0  0  0  0
    0.3788    5.8793    8.8864 H   0  0  0  0  0  0  0  0  0  0  0  0
   -0.0889    8.2682    9.9994 H   0  0  0  0  0  0  0  0  0  0  0  0
    2.3357    7.7760   10.9933 H   0  0  0  0  0  0  0  0  0  0  0  0
    2.2572    9.4875   10.4061 H   0  0  0  0  0  0  0  0  0  0  0  0
    0.5204   10.1100    8.2943 H   0  0  0  0  0  0  0  0  0  0  0  0
   -0.6027    1.8044    1.0297 H   0  0  0  0  0  0  0  0  0  0  0  0
   -2.5284    1.3008    2.3736 H   0  0  0  0  0  0  0  0  0  0  0  0
   -5.0296    2.8156    3.3497 H   0  0  0  0  0  0  0  0  0  0  0  0
   -3.8673    4.1687    3.7022 H   0  0  0  0  0  0  0  0  0  0  0  0
   -5.1762    3.7377    4.8752 H   0  0  0  0  0  0  0  0  0  0  0  0
   -1.0110    3.8462    5.5618 H   0  0  0  0  0  0  0  0  0  0  0  0
    0.8526    4.4535    4.1461 H   0  0  0  0  0  0  0  0  0  0  0  0
    2.9055    4.6867    3.6439 H   0  0  0  0  0  0  0  0  0  0  0  0
    5.0108    3.8933    4.5730 H   0  0  0  0  0  0  0  0  0  0  0  0
    7.0328    0.0785    5.4698 H   0  0  0  0  0  0  0  0  0  0  0  0
    5.6301   -0.2167    4.3837 H   0  0  0  0  0  0  0  0  0  0  0  0
    5.5394    1.0592    5.6886 H   0  0  0  0  0  0  0  0  0  0  0  0
    5.3130    0.9491    1.4104 H   0  0  0  0  0  0  0  0  0  0  0  0
    3.1551    1.7068    0.5220 H   0  0  0  0  0  0  0  0  0  0  0  0
   -1.3510    6.0273   -4.8460 H   0  0  0  0  0  0  0  0  0  0  0  0
   -0.9368    6.8451   -7.1136 H   0  0  0  0  0  0  0  0  0  0  0  0
   -2.0440    4.6339   -9.5729 H   0  0  0  0  0  0  0  0  0  0  0  0
   -1.9079    6.2220  -10.4404 H   0  0  0  0  0  0  0  0  0  0  0  0
   -1.2467    4.7417  -11.1958 H   0  0  0  0  0  0  0  0  0  0  0  0
    0.6865    2.9627   -8.2140 H   0  0  0  0  0  0  0  0  0  0  0  0
    0.2230    2.1475   -5.9161 H   0  0  0  0  0  0  0  0  0  0  0  0
   -3.1208    3.7400   -5.7336 H   0  0  0  0  0  0  0  0  0  0  0  0
   -5.4700    4.0255   -5.2665 H   0  0  0  0  0  0  0  0  0  0  0  0
   -7.9211    6.4482   -3.1098 H   0  0  0  0  0  0  0  0  0  0  0  0
   -6.8432    6.4104   -1.6632 H   0  0  0  0  0  0  0  0  0  0  0  0
   -6.1448    6.5055   -3.3416 H   0  0  0  0  0  0  0  0  0  0  0  0
   -4.6613    3.9626   -1.0094 H   0  0  0  0  0  0  0  0  0  0  0  0
   -2.3172    3.5811   -1.4412 H   0  0  0  0  0  0  0  0  0  0  0  0
   -4.0978    1.5093   -5.5441 H   0  0  0  0  0  0  0  0  0  0  0  0
   -4.7788    1.7201   -7.8941 H   0  0  0  0  0  0  0  0  0  0  0  0
   -2.9668    2.6198  -10.1957 H   0  0  0  0  0  0  0  0  0  0  0  0
   -4.1325    2.4292  -11.5537 H   0  0  0  0  0  0  0  0  0  0  0  0
   -2.4965    1.7769  -11.7612 H   0  0  0  0  0  0  0  0  0  0  0  0
   -1.5490   -0.9156   -9.0701 H   0  0  0  0  0  0  0  0  0  0  0  0
   -0.8025   -1.0352   -6.7609 H   0  0  0  0  0  0  0  0  0  0  0  0
   -1.9479    0.8154   -1.9271 H   0  0  0  0  0  0  0  0  0  0  0  0
   -3.6960    0.4122   -0.2642 H   0  0  0  0  0  0  0  0  0  0  0  0
   -7.4825    1.0440    0.4640 H   0  0  0  0  0  0  0  0  0  0  0  0
   -8.1796    0.4994   -1.1121 H   0  0  0  0  0  0  0  0  0  0  0  0
   -6.6061    1.4621   -1.0749 H   0  0  0  0  0  0  0  0  0  0  0  0
   -6.1270   -1.5642   -3.2345 H   0  0  0  0  0  0  0  0  0  0  0  0
   -4.3705   -1.1995   -4.9105 H   0  0  0  0  0  0  0  0  0  0  0  0
    0.8389   -3.9617   -0.7078 H   0  0  0  0  0  0  0  0  0  0  0  0
    1.6007   -3.6352    1.6274 H   0  0  0  0  0  0  0  0  0  0  0  0
    4.7813   -5.1463    3.2113 H   0  0  0  0  0  0  0  0  0  0  0  0
    5.8289   -4.4221    1.8487 H   0  0  0  0  0  0  0  0  0  0  0  0
    6.1285   -4.0053    3.5032 H   0  0  0  0  0  0  0  0  0  0  0  0
    5.5531   -2.5968    0.1225 H   0  0  0  0  0  0  0  0  0  0  0  0
    4.8010   -3.0056   -2.1623 H   0  0  0  0  0  0  0  0  0  0  0  0
    3.7021   -6.0765   -2.1423 H   0  0  0  0  0  0  0  0  0  0  0  0
    5.4029   -7.3264   -3.3984 H   0  0  0  0  0  0  0  0  0  0  0  0
    7.8983   -4.9908   -5.9623 H   0  0  0  0  0  0  0  0  0  0  0  0
    8.2474   -6.1521   -4.6055 H   0  0  0  0  0  0  0  0  0  0  0  0
    8.8369   -6.4842   -6.2531 H   0  0  0  0  0  0  0  0  0  0  0  0
    4.8401   -4.6506   -6.7647 H   0  0  0  0  0  0  0  0  0  0  0  0
    3.1625   -3.3812   -5.4733 H   0  0  0  0  0  0  0  0  0  0  0  0
   -4.1272   -8.3983   -6.7416 H   0  0  0  0  0  0  0  0  0  0  0  0
   -2.4022   -8.1611   -7.2972 H   0  0  0  0  0  0  0  0  0  0  0  0
   -2.8154   -9.5852   -6.2527 H   0  0  0  0  0  0  0  0  0  0  0  0
   -1.4878   -9.4022   -1.0018 H   0  0  0  0  0  0  0  0  0  0  0  0
   -0.8586   -3.9930    2.2762 H   0  0  0  0  0  0  0  0  0  0  0  0
   -1.4036   -8.4774    4.7889 H   0  0  0  0  0  0  0  0  0  0  0  0
   -1.9918   -5.8194    6.7790 H   0  0  0  0  0  0  0  0  0  0  0  0
    0.5584   -6.8283    7.2620 H   0  0  0  0  0  0  0  0  0  0  0  0
    0.1630   -4.9243    9.0991 H   0  0  0  0  0  0  0  0  0  0  0  0
    0.3038   -2.5983    7.8984 H   0  0  0  0  0  0  0  0  0  0  0  0
    0.8332   -3.0239    5.3068 H   0  0  0  0  0  0  0  0  0  0  0  0
    2.2988   -4.9660    6.4440 H   0  0  0  0  0  0  0  0  0  0  0  0
    1.4619   -5.6308    5.0159 H   0  0  0  0  0  0  0  0  0  0  0  0
   -1.8555   -3.7080    5.6412 H   0  0  0  0  0  0  0  0  0  0  0  0
  1  2  2  3
  2  3  1  0
  3  4  2  0
  3  5  1  0
  5  6  2  0
  6  7  1  0
  7  8  2  0
  8  9  1  0
  9 10  2  0
 10 11  1  0
 11 12  2  3
 12 13  1  0
 13 14  3  0
 12 15  1  0
 15 16  3  0
  8 17  1  0
 17 18  1  0
 18 19  1  0
 19 20  2  0
 20 21  1  0
 21 22  1  0
 21 23  1  0
  1 24  1  0
 24 25  2  0
 25 26  1  0
 26 27  1  0
 27 28  2  0
 28 29  1  0
 29 30  2  0
 30 31  1  0
 31 32  1  0
 30 33  1  0
 33 34  2  0
 26 35  1  0
 35 36  2  0
 36 37  1  0
 37 38  2  0
 38 39  1  0
 39 40  1  0
 38 41  1  0
 41 42  2  0
 25 43  1  0
 43 44  1  0
 44 45  1  0
 45 46  2  0
 46 47  1  0
 47 48  1  0
 48 49  2  0
 49 50  1  0
 50 51  2  0
 51 52  1  0
 52 53  1  0
 51 54  1  0
 54 55  2  0
 47 56  1  0
 56 57  2  0
 57 58  1  0
 58 59  2  0
 59 60  1  0
 60 61  1  0
 59 62  1  0
 62 63  2  0
 46 64  1  0
 64 65  1  0
 45 66  1  0
 66 67  2  0
 67 68  1  0
 68 69  1  0
 69 70  2  0
 70 71  1  0
 71 72  2  0
 72 73  1  0
 73 74  1  0
 72 75  1  0
 75 76  2  0
 68 77  1  0
 77 78  2  0
 78 79  1  0
 79 80  2  0
 80 81  1  0
 81 82  1  0
 80 83  1  0
 83 84  2  0
 67 85  1  0
 85 86  1  0
 86 87  1  0
 87 88  2  0
 88 89  1  0
 89 90  1  0
 90 91  2  0
 91 92  1  0
 92 93  2  0
 93 94  1  0
 94 95  1  0
 93 96  1  0
 96 97  2  0
 89 98  1  0
 98 99  2  0
 99100  1  0
100101  2  0
101102  1  0
102103  1  0
101104  1  0
104105  2  0
 88106  1  0
106107  1  0
 87108  1  0
108109  2  0
109110  1  0
110111  2  0
110112  1  0
112113  1  0
112114  1  0
114115  2  0
114116  1  0
116117  2  0
117118  1  0
117119  1  0
119120  2  3
120121  1  0
121122  2  0
121123  1  0
123124  2  0
124125  1  0
125126  2  0
126127  1  0
127128  2  0
128129  1  0
129130  2  3
130131  1  0
131132  3  0
130133  1  0
133134  3  0
126135  1  0
135136  1  0
136137  1  0
137138  2  0
138139  1  0
139140  1  0
139141  1  0
 11  2  1  0
 23 17  1  0
 65 24  1  0
107 66  1  0
118108  1  0
129120  1  0
141135  1  0
 10  5  1  0
 22 18  1  0
 34 27  1  0
 42 35  1  0
 64 43  2  0
 76 69  1  0
 84 77  1  0
106 85  2  0
116109  1  0
128123  1  0
140136  1  0
 23  7  1  0
 55 48  1  0
 63 56  1  0
 97 90  1  0
105 98  1  0
141125  1  0
  1142  1  0
  6143  1  0
  9144  1  0
 17145  1  0
 18146  1  0
 19147  1  0
 20148  1  0
 21149  1  0
 22150  1  0
 22151  1  0
 23152  1  0
 28153  1  0
 29154  1  0
 32155  1  0
 32156  1  0
 32157  1  0
 33158  1  0
 34159  1  0
 36160  1  0
 37161  1  0
 40162  1  0
 40163  1  0
 40164  1  0
 41165  1  0
 42166  1  0
 49167  1  0
 50168  1  0
 53169  1  0
 53170  1  0
 53171  1  0
 54172  1  0
 55173  1  0
 57174  1  0
 58175  1  0
 61176  1  0
 61177  1  0
 61178  1  0
 62179  1  0
 63180  1  0
 70181  1  0
 71182  1  0
 74183  1  0
 74184  1  0
 74185  1  0
 75186  1  0
 76187  1  0
 78188  1  0
 79189  1  0
 82190  1  0
 82191  1  0
 82192  1  0
 83193  1  0
 84194  1  0
 91195  1  0
 92196  1  0
 95197  1  0
 95198  1  0
 95199  1  0
 96200  1  0
 97201  1  0
 99202  1  0
100203  1  0
103204  1  0
103205  1  0
103206  1  0
104207  1  0
105208  1  0
113209  1  0
113210  1  0
113211  1  0
119212  1  0
124213  1  0
127214  1  0
135215  1  0
136216  1  0
137217  1  0
138218  1  0
139219  1  0
140220  1  0
140221  1  0
141222  1  0
M  END

