
     RDKit          3D

125142  0  0  0  0  0  0  0  0999 V2000
    3.7576   -1.7285   -1.6453 C   0  0  0  0  0  0  0  0  0  0  0  0
    4.6513   -2.7161   -1.8497 C   0  0  0  0  0  0  0  0  0  0  0  0
    5.1229   -3.1957   -3.1564 C   0  0  0  0  0  0  0  0  0  0  0  0
    4.6020   -2.9468   -4.2770 O   0  0  0  0  0  0  0  0  0  0  0  0
    6.3758   -3.9016   -2.9618 C   0  0  0  0  0  0  0  0  0  0  0  0
    7.2518   -4.3876   -3.9634 C   0  0  0  0  0  0  0  0  0  0  0  0
    8.4721   -4.8296   -3.4807 C   0  0  0  0  0  0  0  0  0  0  0  0
    8.8192   -4.7908   -2.0929 C   0  0  0  0  0  0  0  0  0  0  0  0
    7.9649   -4.3304   -1.1067 C   0  0  0  0  0  0  0  0  0  0  0  0
    6.6935   -3.9013   -1.5778 C   0  0  0  0  0  0  0  0  0  0  0  0
    5.5779   -3.2760   -0.8214 C   0  0  0  0  0  0  0  0  0  0  0  0
    5.3335   -3.4068    0.5119 C   0  0  0  0  0  0  0  0  0  0  0  0
    6.2023   -4.1485    1.3881 C   0  0  0  0  0  0  0  0  0  0  0  0
    6.8850   -4.7515    2.1008 N   0  0  0  0  0  0  0  0  0  0  0  0
    4.1114   -2.9514    1.1214 C   0  0  0  0  0  0  0  0  0  0  0  0
    3.1346   -2.5854    1.6210 N   0  0  0  0  0  0  0  0  0  0  0  0
   10.1923   -5.3111   -2.4006 C   0  0  0  0  0  0  0  0  0  0  0  0
   10.5088   -6.7912   -2.0381 C   0  0  0  0  0  0  0  0  0  0  0  0
    9.2515   -7.6254   -2.1241 C   0  0  0  0  0  0  0  0  0  0  0  0
    8.9181   -7.6780   -3.4149 C   0  0  0  0  0  0  0  0  0  0  0  0
    9.9638   -6.8853   -4.1637 C   0  0  0  0  0  0  0  0  0  0  0  0
   11.1779   -7.2384   -3.3236 C   0  0  0  0  0  0  0  0  0  0  0  0
    9.8325   -5.3705   -3.8215 C   0  0  0  0  0  0  0  0  0  0  0  0
    2.8486   -1.1566   -2.6622 C   0  0  0  0  0  0  0  0  0  0  0  0
    1.9159   -1.9486   -3.3492 C   0  0  0  0  0  0  0  0  0  0  0  0
    0.8657   -1.3654   -4.1064 C   0  0  0  0  0  0  0  0  0  0  0  0
   -0.0642   -2.3058   -4.6576 N   0  0  0  0  0  0  0  0  0  0  0  0
    0.5426   -3.6766   -4.1084 S   0  0  0  0  0  4  0  0  0  0  0  0
    1.8437   -3.3760   -3.2370 N   0  0  0  0  0  0  0  0  0  0  0  0
    0.7066    0.0269   -4.1906 C   0  0  0  0  0  0  0  0  0  0  0  0
    1.6631    0.8301   -3.5374 C   0  0  0  0  0  0  0  0  0  0  0  0
    1.5915    2.1872   -3.5076 N   0  0  0  0  0  0  0  0  0  0  0  0
    2.8863    2.5489   -2.5483 S   0  0  0  0  0  0  0  0  0  0  0  0
    3.5502    1.0980   -2.1239 N   0  0  0  0  0  0  0  0  0  0  0  0
    2.7237    0.2388   -2.7744 C   0  0  0  0  0  0  0  0  0  0  0  0
   -0.5778    0.5975   -4.6532 C   0  0  0  0  0  0  0  0  0  0  0  0
   -2.0308    0.2869   -3.8517 S   0  0  0  0  0  0  0  0  0  0  0  0
   -2.9239    1.6338   -4.3628 C   0  0  0  0  0  0  0  0  0  0  0  0
   -2.0605    2.3555   -5.1837 C   0  0  0  0  0  0  0  0  0  0  0  0
   -2.2058    3.6009   -5.7964 C   0  0  0  0  0  0  0  0  0  0  0  0
   -1.0270    3.9950   -6.4383 C   0  0  0  0  0  0  0  0  0  0  0  0
   -0.8363    5.2803   -7.1165 C   0  0  0  0  0  0  0  0  0  0  0  0
    0.2298    5.4979   -7.7617 O   0  0  0  0  0  0  0  0  0  0  0  0
   -1.8224    6.2706   -7.0165 O   0  0  0  0  0  0  0  0  0  0  0  0
   -1.7515    7.5192   -7.7016 C   0  0  0  0  0  0  0  0  0  0  0  0
   -2.1571    7.3456   -9.1587 C   0  0  0  0  0  0  0  0  0  0  0  0
    0.1764    2.8048   -6.2442 S   0  0  0  0  0  0  0  0  0  0  0  0
   -0.8054    1.7861   -5.3416 C   0  0  0  0  0  0  0  0  0  0  0  0
   -4.1009    2.1180   -3.6115 C   0  0  0  0  0  0  0  0  0  0  0  0
   -5.0281    1.1665   -3.1330 C   0  0  0  0  0  0  0  0  0  0  0  0
   -5.8183    1.4936   -2.0255 C   0  0  0  0  0  0  0  0  0  0  0  0
   -6.4687    0.6245   -1.2102 N   0  0  0  0  0  0  0  0  0  0  0  0
   -6.6104   -0.8239   -1.4209 C   0  0  0  0  0  0  0  0  0  0  0  0
   -7.7857   -1.1072   -2.3486 C   0  0  0  0  0  0  0  0  0  0  0  0
   -6.7411    1.3326   -0.0804 C   0  0  0  0  0  0  0  0  0  0  0  0
   -6.3005    2.6391   -0.1996 C   0  0  0  0  0  0  0  0  0  0  0  0
   -5.7316    2.7461   -1.4477 C   0  0  0  0  0  0  0  0  0  0  0  0
   -4.9110    3.7443   -1.9661 C   0  0  0  0  0  0  0  0  0  0  0  0
   -4.0939    3.4248   -3.0604 C   0  0  0  0  0  0  0  0  0  0  0  0
   -6.1801    3.4852    0.9031 C   0  0  0  0  0  0  0  0  0  0  0  0
   -6.4545    2.9544    2.1717 C   0  0  0  0  0  0  0  0  0  0  0  0
   -6.8572    1.6062    2.3118 C   0  0  0  0  0  0  0  0  0  0  0  0
   -7.0970    0.8157    1.1714 C   0  0  0  0  0  0  0  0  0  0  0  0
   -6.8995    0.9682    3.6362 C   0  0  0  0  0  0  0  0  0  0  0  0
   -5.8441    0.8728    4.4695 C   0  0  0  0  0  0  0  0  0  0  0  0
   -5.9726    0.4385    5.8592 C   0  0  0  0  0  0  0  0  0  0  0  0
   -6.9953   -0.0828    6.3774 O   0  0  0  0  0  0  0  0  0  0  0  0
   -4.7312    0.7076    6.5523 C   0  0  0  0  0  0  0  0  0  0  0  0
   -4.3912    0.3057    7.8660 C   0  0  0  0  0  0  0  0  0  0  0  0
   -3.0661    0.5251    8.1941 C   0  0  0  0  0  0  0  0  0  0  0  0
   -2.1296    1.1233    7.2936 C   0  0  0  0  0  0  0  0  0  0  0  0
   -2.4561    1.5282    6.0118 C   0  0  0  0  0  0  0  0  0  0  0  0
   -3.8125    1.2969    5.6420 C   0  0  0  0  0  0  0  0  0  0  0  0
   -4.4388    1.3594    4.2881 C   0  0  0  0  0  0  0  0  0  0  0  0
   -3.7400    1.4088    3.1305 C   0  0  0  0  0  0  0  0  0  0  0  0
   -4.0344    0.5146    2.0388 C   0  0  0  0  0  0  0  0  0  0  0  0
   -4.2436   -0.2025    1.1553 N   0  0  0  0  0  0  0  0  0  0  0  0
   -2.5285    2.1722    2.9955 C   0  0  0  0  0  0  0  0  0  0  0  0
   -1.5547    2.7845    2.8766 N   0  0  0  0  0  0  0  0  0  0  0  0
   -1.0228    0.9298    8.2844 C   0  0  0  0  0  0  0  0  0  0  0  0
   -0.0222   -0.2239    7.9749 C   0  0  0  0  0  0  0  0  0  0  0  0
    0.7284   -0.4764    9.2603 C   0  0  0  0  0  0  0  0  0  0  0  0
   -0.1459   -1.0361   10.1054 C   0  0  0  0  0  0  0  0  0  0  0  0
   -1.4546   -1.1433    9.3607 C   0  0  0  0  0  0  0  0  0  0  0  0
   -0.9081   -1.4571    7.9781 C   0  0  0  0  0  0  0  0  0  0  0  0
   -1.9815    0.3149    9.2090 C   0  0  0  0  0  0  0  0  0  0  0  0
    3.7303   -1.2404   -0.6818 H   0  0  0  0  0  0  0  0  0  0  0  0
    7.0219   -4.3608   -5.0217 H   0  0  0  0  0  0  0  0  0  0  0  0
    8.2962   -4.2569   -0.0849 H   0  0  0  0  0  0  0  0  0  0  0  0
   11.0081   -4.5874   -2.1782 H   0  0  0  0  0  0  0  0  0  0  0  0
   11.1047   -6.9353   -1.1112 H   0  0  0  0  0  0  0  0  0  0  0  0
    8.7651   -8.1676   -1.3213 H   0  0  0  0  0  0  0  0  0  0  0  0
    8.1133   -8.2693   -3.8382 H   0  0  0  0  0  0  0  0  0  0  0  0
   10.0486   -7.1200   -5.2443 H   0  0  0  0  0  0  0  0  0  0  0  0
   11.4265   -8.3275   -3.3371 H   0  0  0  0  0  0  0  0  0  0  0  0
   12.0882   -6.6468   -3.5827 H   0  0  0  0  0  0  0  0  0  0  0  0
   10.4402   -4.6926   -4.4603 H   0  0  0  0  0  0  0  0  0  0  0  0
   -3.1093    4.1937   -5.7681 H   0  0  0  0  0  0  0  0  0  0  0  0
   -0.7244    7.9412   -7.6353 H   0  0  0  0  0  0  0  0  0  0  0  0
   -2.4496    8.2355   -7.2177 H   0  0  0  0  0  0  0  0  0  0  0  0
   -2.0363    8.3047   -9.7028 H   0  0  0  0  0  0  0  0  0  0  0  0
   -1.5317    6.5721   -9.6448 H   0  0  0  0  0  0  0  0  0  0  0  0
   -3.2246    7.0350   -9.2170 H   0  0  0  0  0  0  0  0  0  0  0  0
   -5.0088    0.1553   -3.5176 H   0  0  0  0  0  0  0  0  0  0  0  0
   -6.7711   -1.3561   -0.4651 H   0  0  0  0  0  0  0  0  0  0  0  0
   -5.6781   -1.2445   -1.8521 H   0  0  0  0  0  0  0  0  0  0  0  0
   -7.6287   -0.6126   -3.3302 H   0  0  0  0  0  0  0  0  0  0  0  0
   -7.8755   -2.2015   -2.5078 H   0  0  0  0  0  0  0  0  0  0  0  0
   -8.7280   -0.7334   -1.8895 H   0  0  0  0  0  0  0  0  0  0  0  0
   -4.8107    4.7027   -1.4728 H   0  0  0  0  0  0  0  0  0  0  0  0
   -3.3567    4.1521   -3.3741 H   0  0  0  0  0  0  0  0  0  0  0  0
   -5.7837    4.4872    0.8048 H   0  0  0  0  0  0  0  0  0  0  0  0
   -6.2809    3.5639    3.0490 H   0  0  0  0  0  0  0  0  0  0  0  0
   -7.3833   -0.2180    1.2928 H   0  0  0  0  0  0  0  0  0  0  0  0
   -7.8427    0.5368    3.9392 H   0  0  0  0  0  0  0  0  0  0  0  0
   -5.0848   -0.1917    8.5325 H   0  0  0  0  0  0  0  0  0  0  0  0
   -1.6945    1.9160    5.3581 H   0  0  0  0  0  0  0  0  0  0  0  0
   -0.5697    1.8795    8.6413 H   0  0  0  0  0  0  0  0  0  0  0  0
    0.6115   -0.0858    7.0726 H   0  0  0  0  0  0  0  0  0  0  0  0
    1.7911   -0.3459    9.4376 H   0  0  0  0  0  0  0  0  0  0  0  0
    0.0838   -1.4311   11.0881 H   0  0  0  0  0  0  0  0  0  0  0  0
   -2.1783   -1.8753    9.7752 H   0  0  0  0  0  0  0  0  0  0  0  0
   -1.6740   -1.4708    7.1712 H   0  0  0  0  0  0  0  0  0  0  0  0
   -0.3306   -2.4137    7.9351 H   0  0  0  0  0  0  0  0  0  0  0  0
   -2.1398    0.8769   10.1570 H   0  0  0  0  0  0  0  0  0  0  0  0
  1  2  2  3
  2  3  1  0
  3  4  2  0
  3  5  1  0
  5  6  2  0
  6  7  1  0
  7  8  2  0
  8  9  1  0
  9 10  2  0
 10 11  1  0
 11 12  2  3
 12 13  1  0
 13 14  3  0
 12 15  1  0
 15 16  3  0
  8 17  1  0
 17 18  1  0
 18 19  1  0
 19 20  2  0
 20 21  1  0
 21 22  1  0
 21 23  1  0
  1 24  1  0
 24 25  2  0
 25 26  1  0
 26 27  1  0
 27 28  2  0
 28 29  2  0
 26 30  2  0
 30 31  1  0
 31 32  2  0
 32 33  1  0
 33 34  1  0
 34 35  2  0
 30 36  1  0
 36 37  1  0
 37 38  1  0
 38 39  2  0
 39 40  1  0
 40 41  2  0
 41 42  1  0
 42 43  2  0
 42 44  1  0
 44 45  1  0
 45 46  1  0
 41 47  1  0
 47 48  1  0
 38 49  1  0
 49 50  2  0
 50 51  1  0
 51 52  1  0
 52 53  1  0
 53 54  1  0
 52 55  1  0
 55 56  2  0
 56 57  1  0
 57 58  1  0
 58 59  2  0
 56 60  1  0
 60 61  2  0
 61 62  1  0
 62 63  2  0
 62 64  1  0
 64 65  2  3
 65 66  1  0
 66 67  2  0
 66 68  1  0
 68 69  2  0
 69 70  1  0
 70 71  2  0
 71 72  1  0
 72 73  2  0
 73 74  1  0
 74 75  2  3
 75 76  1  0
 76 77  3  0
 75 78  1  0
 78 79  3  0
 71 80  1  0
 80 81  1  0
 81 82  1  0
 82 83  2  0
 83 84  1  0
 84 85  1  0
 84 86  1  0
 11  2  1  0
 23 17  1  0
 35 24  1  0
 48 36  2  0
 59 49  1  0
 74 65  1  0
 86 80  1  0
 10  5  1  0
 22 18  1  0
 29 25  1  0
 35 31  1  0
 48 39  1  0
 57 51  2  0
 73 68  1  0
 85 81  1  0
 23  7  1  0
 63 55  1  0
 86 70  1  0
  1 87  1  0
  6 88  1  0
  9 89  1  0
 17 90  1  0
 18 91  1  0
 19 92  1  0
 20 93  1  0
 21 94  1  0
 22 95  1  0
 22 96  1  0
 23 97  1  0
 40 98  1  0
 45 99  1  0
 45100  1  0
 46101  1  0
 46102  1  0
 46103  1  0
 50104  1  0
 53105  1  0
 53106  1  0
 54107  1  0
 54108  1  0
 54109  1  0
 58110  1  0
 59111  1  0
 60112  1  0
 61113  1  0
 63114  1  0
 64115  1  0
 69116  1  0
 72117  1  0
 80118  1  0
 81119  1  0
 82120  1  0
 83121  1  0
 84122  1  0
 85123  1  0
 85124  1  0
 86125  1  0
M  END

