
     RDKit          3D

180199  0  0  0  0  0  0  0  0999 V2000
    5.3647   -1.0229   -0.4839 C   0  0  0  0  0  0  0  0  0  0  0  0
    6.0892    0.1125   -0.5096 C   0  0  0  0  0  0  0  0  0  0  0  0
    5.5428    1.4567   -0.7321 C   0  0  0  0  0  0  0  0  0  0  0  0
    4.3825    1.8507   -0.4395 O   0  0  0  0  0  0  0  0  0  0  0  0
    6.5784    2.2852   -1.2986 C   0  0  0  0  0  0  0  0  0  0  0  0
    6.4149    3.5540   -1.8959 C   0  0  0  0  0  0  0  0  0  0  0  0
    7.5424    4.0255   -2.5302 C   0  0  0  0  0  0  0  0  0  0  0  0
    8.7759    3.2928   -2.5813 C   0  0  0  0  0  0  0  0  0  0  0  0
    8.9449    2.0479   -1.9944 C   0  0  0  0  0  0  0  0  0  0  0  0
    7.7925    1.5508   -1.3241 C   0  0  0  0  0  0  0  0  0  0  0  0
    7.5635    0.2228   -0.6887 C   0  0  0  0  0  0  0  0  0  0  0  0
    8.5020   -0.6129   -0.1771 C   0  0  0  0  0  0  0  0  0  0  0  0
    8.1543   -1.7538    0.6376 C   0  0  0  0  0  0  0  0  0  0  0  0
    7.8743   -2.6641    1.2918 N   0  0  0  0  0  0  0  0  0  0  0  0
    9.9096   -0.3231   -0.2716 C   0  0  0  0  0  0  0  0  0  0  0  0
   11.0431   -0.1020   -0.3408 N   0  0  0  0  0  0  0  0  0  0  0  0
    9.3964    4.3749   -3.4165 C   0  0  0  0  0  0  0  0  0  0  0  0
   10.4067    5.3134   -2.6998 C   0  0  0  0  0  0  0  0  0  0  0  0
   10.5736    6.5063   -3.6099 C   0  0  0  0  0  0  0  0  0  0  0  0
    9.4215    7.1870   -3.5538 C   0  0  0  0  0  0  0  0  0  0  0  0
    8.5193    6.4281   -2.6121 C   0  0  0  0  0  0  0  0  0  0  0  0
    9.5646    5.9599   -1.6131 C   0  0  0  0  0  0  0  0  0  0  0  0
    8.1353    5.1190   -3.3596 C   0  0  0  0  0  0  0  0  0  0  0  0
    3.9303   -1.0215   -0.8030 C   0  0  0  0  0  0  0  0  0  0  0  0
    2.8963   -1.4642    0.0304 C   0  0  0  0  0  0  0  0  0  0  0  0
    3.0870   -2.1899    1.2519 N   0  0  0  0  0  0  0  0  0  0  0  0
    2.9205   -1.5258    2.5296 C   0  0  0  0  0  0  0  0  0  0  0  0
    2.5065   -2.2491    3.6687 C   0  0  0  0  0  0  0  0  0  0  0  0
    2.3994   -1.6136    4.9096 C   0  0  0  0  0  0  0  0  0  0  0  0
    2.6869   -0.2512    5.0310 C   0  0  0  0  0  0  0  0  0  0  0  0
    2.6769    0.5334    6.6509 S   0  0  0  0  0  0  0  0  0  0  0  0
    0.9653    1.1630    6.5042 C   0  0  0  0  0  0  0  0  0  0  0  0
    3.0595    0.4821    3.9031 C   0  0  0  0  0  0  0  0  0  0  0  0
    3.1721   -0.1487    2.6570 C   0  0  0  0  0  0  0  0  0  0  0  0
    3.4173   -3.5882    1.1523 C   0  0  0  0  0  0  0  0  0  0  0  0
    4.4549   -4.1340    1.9268 C   0  0  0  0  0  0  0  0  0  0  0  0
    4.7677   -5.4937    1.8302 C   0  0  0  0  0  0  0  0  0  0  0  0
    4.0502   -6.3169    0.9536 C   0  0  0  0  0  0  0  0  0  0  0  0
    4.3951   -8.0743    0.8890 S   0  0  0  0  0  0  0  0  0  0  0  0
    3.0715   -8.4888    2.0658 C   0  0  0  0  0  0  0  0  0  0  0  0
    3.0372   -5.7745    0.1533 C   0  0  0  0  0  0  0  0  0  0  0  0
    2.7269   -4.4163    0.2491 C   0  0  0  0  0  0  0  0  0  0  0  0
    1.6547   -1.1883   -0.5270 C   0  0  0  0  0  0  0  0  0  0  0  0
    0.0696   -1.4317   -0.0708 S   0  0  0  0  0  0  0  0  0  0  0  0
   -0.6031   -0.7055   -1.4721 C   0  0  0  0  0  0  0  0  0  0  0  0
    0.4535   -0.2787   -2.3022 C   0  0  0  0  0  0  0  0  0  0  0  0
    0.3298    0.4022   -3.5587 N   0  0  0  0  0  0  0  0  0  0  0  0
    1.1135    1.6066   -3.7729 C   0  0  0  0  0  0  0  0  0  0  0  0
    1.6349    1.9307   -5.0437 C   0  0  0  0  0  0  0  0  0  0  0  0
    2.4598    3.0479   -5.2083 C   0  0  0  0  0  0  0  0  0  0  0  0
    2.7450    3.8779   -4.1240 C   0  0  0  0  0  0  0  0  0  0  0  0
    3.7709    5.3392   -4.3444 S   0  0  0  0  0  0  0  0  0  0  0  0
    2.3947    6.3434   -4.9836 C   0  0  0  0  0  0  0  0  0  0  0  0
    2.2279    3.5805   -2.8651 C   0  0  0  0  0  0  0  0  0  0  0  0
    1.4191    2.4585   -2.6884 C   0  0  0  0  0  0  0  0  0  0  0  0
   -0.1326   -0.3802   -4.6673 C   0  0  0  0  0  0  0  0  0  0  0  0
   -1.4237   -0.1986   -5.1819 C   0  0  0  0  0  0  0  0  0  0  0  0
   -1.8560   -0.9580   -6.2749 C   0  0  0  0  0  0  0  0  0  0  0  0
   -0.9951   -1.8937   -6.8632 C   0  0  0  0  0  0  0  0  0  0  0  0
   -1.5342   -2.8356   -8.2930 S   0  0  0  0  0  0  0  0  0  0  0  0
   -1.9478   -4.3367   -7.3384 C   0  0  0  0  0  0  0  0  0  0  0  0
    0.2941   -2.0709   -6.3545 C   0  0  0  0  0  0  0  0  0  0  0  0
    0.7196   -1.3288   -5.2534 C   0  0  0  0  0  0  0  0  0  0  0  0
    1.6875   -0.5878   -1.7396 C   0  0  0  0  0  0  0  0  0  0  0  0
    3.2742   -0.3566   -2.2305 S   0  0  0  0  0  0  0  0  0  0  0  0
   -2.0645   -0.5475   -1.6535 C   0  0  0  0  0  0  0  0  0  0  0  0
   -2.8873   -1.6367   -1.3234 C   0  0  0  0  0  0  0  0  0  0  0  0
   -2.3546   -2.8715   -1.1405 F   0  0  0  0  0  0  0  0  0  0  0  0
   -4.2460   -1.4552   -1.0688 C   0  0  0  0  0  0  0  0  0  0  0  0
   -4.9435   -2.4980   -0.5580 F   0  0  0  0  0  0  0  0  0  0  0  0
   -4.8265   -0.1791   -1.1742 C   0  0  0  0  0  0  0  0  0  0  0  0
   -4.0482    0.8835   -1.6645 C   0  0  0  0  0  0  0  0  0  0  0  0
   -4.6059    2.1073   -1.8579 N   0  0  0  0  0  0  0  0  0  0  0  0
   -3.8863    3.1868   -2.2600 C   0  0  0  0  0  0  0  0  0  0  0  0
   -4.6419    4.4804   -2.4687 C   0  0  0  0  0  0  0  0  0  0  0  0
   -5.1503    4.5988   -3.9009 C   0  0  0  0  0  0  0  0  0  0  0  0
   -2.4930    3.0299   -2.4669 C   0  0  0  0  0  0  0  0  0  0  0  0
   -1.9349    1.7984   -2.2621 N   0  0  0  0  0  0  0  0  0  0  0  0
   -2.6682    0.7159   -1.8831 C   0  0  0  0  0  0  0  0  0  0  0  0
   -1.5856    4.1496   -2.9273 C   0  0  0  0  0  0  0  0  0  0  0  0
   -1.2710    4.0361   -4.4198 C   0  0  0  0  0  0  0  0  0  0  0  0
   -6.0648    0.1190   -0.4290 C   0  0  0  0  0  0  0  0  0  0  0  0
   -6.0458    1.1084    0.9391 S   0  0  0  0  0  0  0  0  0  0  0  0
   -7.4367    0.5184    1.7002 C   0  0  0  0  0  0  0  0  0  0  0  0
   -7.9564   -0.4503    0.8546 C   0  0  0  0  0  0  0  0  0  0  0  0
   -9.0252   -1.3299    1.0184 C   0  0  0  0  0  0  0  0  0  0  0  0
   -9.1056   -2.2344   -0.0492 C   0  0  0  0  0  0  0  0  0  0  0  0
  -10.0944   -3.3529   -0.1556 C   0  0  0  0  0  0  0  0  0  0  0  0
   -9.7092   -4.5135    0.7549 C   0  0  0  0  0  0  0  0  0  0  0  0
   -7.8377   -1.9569   -1.1496 S   0  0  0  0  0  0  0  0  0  0  0  0
   -7.2038   -0.6647   -0.2868 C   0  0  0  0  0  0  0  0  0  0  0  0
   -7.8444    0.8318    3.0787 C   0  0  0  0  0  0  0  0  0  0  0  0
   -6.9786    0.7939    4.1118 C   0  0  0  0  0  0  0  0  0  0  0  0
   -5.7243    0.0220    4.1272 C   0  0  0  0  0  0  0  0  0  0  0  0
   -5.2495   -0.6585    3.1770 O   0  0  0  0  0  0  0  0  0  0  0  0
   -5.1920    0.0230    5.4691 C   0  0  0  0  0  0  0  0  0  0  0  0
   -3.9993   -0.6001    5.9036 C   0  0  0  0  0  0  0  0  0  0  0  0
   -3.7478   -0.4516    7.2525 C   0  0  0  0  0  0  0  0  0  0  0  0
   -4.6215    0.2621    8.1357 C   0  0  0  0  0  0  0  0  0  0  0  0
   -5.7935    0.8658    7.7183 C   0  0  0  0  0  0  0  0  0  0  0  0
   -6.0689    0.7421    6.3240 C   0  0  0  0  0  0  0  0  0  0  0  0
   -7.1963    1.2971    5.5090 C   0  0  0  0  0  0  0  0  0  0  0  0
   -8.0729    2.2627    5.8880 C   0  0  0  0  0  0  0  0  0  0  0  0
   -8.2157    2.7070    7.2477 C   0  0  0  0  0  0  0  0  0  0  0  0
   -8.3506    3.0766    8.3339 N   0  0  0  0  0  0  0  0  0  0  0  0
   -8.8692    2.9984    4.9409 C   0  0  0  0  0  0  0  0  0  0  0  0
   -9.5088    3.6034    4.1822 N   0  0  0  0  0  0  0  0  0  0  0  0
   -3.7047   -0.0211    9.2934 C   0  0  0  0  0  0  0  0  0  0  0  0
   -4.1499   -1.0966   10.3294 C   0  0  0  0  0  0  0  0  0  0  0  0
   -5.0054   -2.1435    9.6494 C   0  0  0  0  0  0  0  0  0  0  0  0
   -4.2022   -2.8135    8.8219 C   0  0  0  0  0  0  0  0  0  0  0  0
   -2.8245   -2.2035    8.9678 C   0  0  0  0  0  0  0  0  0  0  0  0
   -2.8610   -1.8872   10.4556 C   0  0  0  0  0  0  0  0  0  0  0  0
   -2.8165   -0.7573    8.3898 C   0  0  0  0  0  0  0  0  0  0  0  0
    5.8298   -1.9892   -0.3935 H   0  0  0  0  0  0  0  0  0  0  0  0
    5.4738    4.0891   -1.9036 H   0  0  0  0  0  0  0  0  0  0  0  0
    9.8632    1.4956   -2.1130 H   0  0  0  0  0  0  0  0  0  0  0  0
    9.6861    4.0297   -4.4324 H   0  0  0  0  0  0  0  0  0  0  0  0
   11.3541    4.8385   -2.3611 H   0  0  0  0  0  0  0  0  0  0  0  0
   11.4749    6.8188   -4.1310 H   0  0  0  0  0  0  0  0  0  0  0  0
    9.2322    8.1473   -4.0185 H   0  0  0  0  0  0  0  0  0  0  0  0
    7.6746    7.0115   -2.1971 H   0  0  0  0  0  0  0  0  0  0  0  0
   10.0821    6.7989   -1.0867 H   0  0  0  0  0  0  0  0  0  0  0  0
    9.1773    5.2526   -0.8476 H   0  0  0  0  0  0  0  0  0  0  0  0
    7.6287    5.2539   -4.3435 H   0  0  0  0  0  0  0  0  0  0  0  0
    2.2842   -3.3044    3.5989 H   0  0  0  0  0  0  0  0  0  0  0  0
    2.1069   -2.1870    5.7794 H   0  0  0  0  0  0  0  0  0  0  0  0
    0.2462    0.3151    6.5005 H   0  0  0  0  0  0  0  0  0  0  0  0
    0.8556    1.7521    5.5699 H   0  0  0  0  0  0  0  0  0  0  0  0
    0.7509    1.8198    7.3754 H   0  0  0  0  0  0  0  0  0  0  0  0
    3.2729    1.5354    3.9894 H   0  0  0  0  0  0  0  0  0  0  0  0
    3.4869    0.4372    1.8059 H   0  0  0  0  0  0  0  0  0  0  0  0
    5.0128   -3.5041    2.6076 H   0  0  0  0  0  0  0  0  0  0  0  0
    5.5638   -5.9045    2.4401 H   0  0  0  0  0  0  0  0  0  0  0  0
    2.0883   -8.2930    1.5973 H   0  0  0  0  0  0  0  0  0  0  0  0
    3.1720   -7.8933    2.9931 H   0  0  0  0  0  0  0  0  0  0  0  0
    3.1349   -9.5687    2.3190 H   0  0  0  0  0  0  0  0  0  0  0  0
    2.4814   -6.4082   -0.5279 H   0  0  0  0  0  0  0  0  0  0  0  0
    1.9268   -4.0191   -0.3650 H   0  0  0  0  0  0  0  0  0  0  0  0
    1.4327    1.3113   -5.9079 H   0  0  0  0  0  0  0  0  0  0  0  0
    2.8694    3.2745   -6.1883 H   0  0  0  0  0  0  0  0  0  0  0  0
    2.0489    5.9219   -5.9467 H   0  0  0  0  0  0  0  0  0  0  0  0
    2.7605    7.3782   -5.1660 H   0  0  0  0  0  0  0  0  0  0  0  0
    1.5567    6.3794   -4.2598 H   0  0  0  0  0  0  0  0  0  0  0  0
    2.4544    4.2118   -2.0154 H   0  0  0  0  0  0  0  0  0  0  0  0
    1.0406    2.2456   -1.6972 H   0  0  0  0  0  0  0  0  0  0  0  0
   -2.0885    0.5290   -4.7408 H   0  0  0  0  0  0  0  0  0  0  0  0
   -2.8539   -0.8122   -6.6662 H   0  0  0  0  0  0  0  0  0  0  0  0
   -2.2354   -4.1026   -6.2846 H   0  0  0  0  0  0  0  0  0  0  0  0
   -1.0772   -5.0408   -7.3452 H   0  0  0  0  0  0  0  0  0  0  0  0
   -2.8134   -4.8441   -7.8340 H   0  0  0  0  0  0  0  0  0  0  0  0
    0.9690   -2.7837   -6.8128 H   0  0  0  0  0  0  0  0  0  0  0  0
    1.7194   -1.4753   -4.8625 H   0  0  0  0  0  0  0  0  0  0  0  0
   -4.0510    5.3697   -2.1957 H   0  0  0  0  0  0  0  0  0  0  0  0
   -5.5276    4.4883   -1.7876 H   0  0  0  0  0  0  0  0  0  0  0  0
   -5.7074    3.6805   -4.1979 H   0  0  0  0  0  0  0  0  0  0  0  0
   -4.3115    4.7658   -4.5992 H   0  0  0  0  0  0  0  0  0  0  0  0
   -5.8403    5.4686   -3.9801 H   0  0  0  0  0  0  0  0  0  0  0  0
   -0.6414    4.0809   -2.3569 H   0  0  0  0  0  0  0  0  0  0  0  0
   -1.9877    5.1619   -2.7130 H   0  0  0  0  0  0  0  0  0  0  0  0
   -2.1156    4.4137   -5.0267 H   0  0  0  0  0  0  0  0  0  0  0  0
   -0.3892    4.6643   -4.6633 H   0  0  0  0  0  0  0  0  0  0  0  0
   -1.0753    2.9883   -4.7122 H   0  0  0  0  0  0  0  0  0  0  0  0
   -9.6884   -1.3315    1.8754 H   0  0  0  0  0  0  0  0  0  0  0  0
  -10.1392   -3.7135   -1.2033 H   0  0  0  0  0  0  0  0  0  0  0  0
  -11.1040   -2.9851    0.1239 H   0  0  0  0  0  0  0  0  0  0  0  0
   -9.6867   -4.1840    1.8142 H   0  0  0  0  0  0  0  0  0  0  0  0
   -8.7086   -4.9066    0.4705 H   0  0  0  0  0  0  0  0  0  0  0  0
  -10.4553   -5.3246    0.6536 H   0  0  0  0  0  0  0  0  0  0  0  0
   -8.8702    1.1241    3.2304 H   0  0  0  0  0  0  0  0  0  0  0  0
   -3.3374   -1.1402    5.2413 H   0  0  0  0  0  0  0  0  0  0  0  0
   -6.4215    1.3722    8.4296 H   0  0  0  0  0  0  0  0  0  0  0  0
   -3.2382    0.8896    9.7302 H   0  0  0  0  0  0  0  0  0  0  0  0
   -4.5625   -0.6964   11.2770 H   0  0  0  0  0  0  0  0  0  0  0  0
   -6.0383   -2.3952    9.8729 H   0  0  0  0  0  0  0  0  0  0  0  0
   -4.4722   -3.6943    8.2510 H   0  0  0  0  0  0  0  0  0  0  0  0
   -1.9902   -2.8560    8.6428 H   0  0  0  0  0  0  0  0  0  0  0  0
   -2.9598   -2.8007   11.0979 H   0  0  0  0  0  0  0  0  0  0  0  0
   -1.9956   -1.2785   10.8061 H   0  0  0  0  0  0  0  0  0  0  0  0
   -1.8052   -0.3029    8.2879 H   0  0  0  0  0  0  0  0  0  0  0  0
  1  2  2  3
  2  3  1  0
  3  4  2  0
  3  5  1  0
  5  6  2  0
  6  7  1  0
  7  8  2  0
  8  9  1  0
  9 10  2  0
 10 11  1  0
 11 12  2  3
 12 13  1  0
 13 14  3  0
 12 15  1  0
 15 16  3  0
  8 17  1  0
 17 18  1  0
 18 19  1  0
 19 20  2  0
 20 21  1  0
 21 22  1  0
 21 23  1  0
  1 24  1  0
 24 25  2  0
 25 26  1  0
 26 27  1  0
 27 28  2  0
 28 29  1  0
 29 30  2  0
 30 31  1  0
 31 32  1  0
 30 33  1  0
 33 34  2  0
 26 35  1  0
 35 36  2  0
 36 37  1  0
 37 38  2  0
 38 39  1  0
 39 40  1  0
 38 41  1  0
 41 42  2  0
 25 43  1  0
 43 44  1  0
 44 45  1  0
 45 46  2  0
 46 47  1  0
 47 48  1  0
 48 49  2  0
 49 50  1  0
 50 51  2  0
 51 52  1  0
 52 53  1  0
 51 54  1  0
 54 55  2  0
 47 56  1  0
 56 57  2  0
 57 58  1  0
 58 59  2  0
 59 60  1  0
 60 61  1  0
 59 62  1  0
 62 63  2  0
 46 64  1  0
 64 65  1  0
 45 66  1  0
 66 67  2  0
 67 68  1  0
 67 69  1  0
 69 70  1  0
 69 71  2  0
 71 72  1  0
 72 73  2  0
 73 74  1  0
 74 75  1  0
 75 76  1  0
 74 77  2  0
 77 78  1  0
 78 79  2  0
 77 80  1  0
 80 81  1  0
 71 82  1  0
 82 83  1  0
 83 84  1  0
 84 85  2  0
 85 86  1  0
 86 87  2  0
 87 88  1  0
 88 89  1  0
 87 90  1  0
 90 91  1  0
 84 92  1  0
 92 93  2  3
 93 94  1  0
 94 95  2  0
 94 96  1  0
 96 97  2  0
 97 98  1  0
 98 99  2  0
 99100  1  0
100101  2  0
101102  1  0
102103  2  3
103104  1  0
104105  3  0
103106  1  0
106107  3  0
 99108  1  0
108109  1  0
109110  1  0
110111  2  0
111112  1  0
112113  1  0
112114  1  0
 11  2  1  0
 23 17  1  0
 65 24  1  0
 79 66  1  0
 91 82  2  0
102 93  1  0
114108  1  0
 10  5  1  0
 22 18  1  0
 34 27  1  0
 42 35  1  0
 64 43  2  0
 79 72  1  0
 91 85  1  0
101 96  1  0
113109  1  0
 23  7  1  0
 55 48  1  0
 63 56  1  0
114 98  1  0
  1115  1  0
  6116  1  0
  9117  1  0
 17118  1  0
 18119  1  0
 19120  1  0
 20121  1  0
 21122  1  0
 22123  1  0
 22124  1  0
 23125  1  0
 28126  1  0
 29127  1  0
 32128  1  0
 32129  1  0
 32130  1  0
 33131  1  0
 34132  1  0
 36133  1  0
 37134  1  0
 40135  1  0
 40136  1  0
 40137  1  0
 41138  1  0
 42139  1  0
 49140  1  0
 50141  1  0
 53142  1  0
 53143  1  0
 53144  1  0
 54145  1  0
 55146  1  0
 57147  1  0
 58148  1  0
 61149  1  0
 61150  1  0
 61151  1  0
 62152  1  0
 63153  1  0
 75154  1  0
 75155  1  0
 76156  1  0
 76157  1  0
 76158  1  0
 80159  1  0
 80160  1  0
 81161  1  0
 81162  1  0
 81163  1  0
 86164  1  0
 88165  1  0
 88166  1  0
 89167  1  0
 89168  1  0
 89169  1  0
 92170  1  0
 97171  1  0
100172  1  0
108173  1  0
109174  1  0
110175  1  0
111176  1  0
112177  1  0
113178  1  0
113179  1  0
114180  1  0
M  END

