
     RDKit          3D

264287  0  0  0  0  0  0  0  0999 V2000
   -1.9434    4.4386    4.6788 C   0  0  0  0  0  0  0  0  0  0  0  0
   -2.1034    5.1042    3.5109 C   0  0  0  0  0  0  0  0  0  0  0  0
   -1.5024    6.4125    3.2073 C   0  0  0  0  0  0  0  0  0  0  0  0
   -0.9293    7.1698    4.0328 O   0  0  0  0  0  0  0  0  0  0  0  0
   -1.5943    6.6224    1.7751 C   0  0  0  0  0  0  0  0  0  0  0  0
   -1.2506    7.7903    1.0349 C   0  0  0  0  0  0  0  0  0  0  0  0
   -1.5536    7.6946   -0.3181 C   0  0  0  0  0  0  0  0  0  0  0  0
   -2.0891    6.5091   -0.9155 C   0  0  0  0  0  0  0  0  0  0  0  0
   -2.4348    5.3755   -0.2010 C   0  0  0  0  0  0  0  0  0  0  0  0
   -2.2199    5.4826    1.1984 C   0  0  0  0  0  0  0  0  0  0  0  0
   -2.7167    4.5695    2.2454 C   0  0  0  0  0  0  0  0  0  0  0  0
   -4.0138    4.1874    2.1979 C   0  0  0  0  0  0  0  0  0  0  0  0
   -4.2021    2.8391    1.7240 C   0  0  0  0  0  0  0  0  0  0  0  0
   -4.2860    1.7209    1.3953 N   0  0  0  0  0  0  0  0  0  0  0  0
   -4.8455    4.6413    3.2985 C   0  0  0  0  0  0  0  0  0  0  0  0
   -5.2724    5.0646    4.2761 N   0  0  0  0  0  0  0  0  0  0  0  0
   -2.0845    7.1516   -2.2680 C   0  0  0  0  0  0  0  0  0  0  0  0
   -0.9577    6.7743   -3.2799 C   0  0  0  0  0  0  0  0  0  0  0  0
    0.3372    6.4658   -2.5636 C   0  0  0  0  0  0  0  0  0  0  0  0
    0.7720    7.6160   -2.0402 C   0  0  0  0  0  0  0  0  0  0  0  0
   -0.2526    8.6693   -2.3984 C   0  0  0  0  0  0  0  0  0  0  0  0
   -0.6072    8.1647   -3.7878 C   0  0  0  0  0  0  0  0  0  0  0  0
   -1.5982    8.3866   -1.6513 C   0  0  0  0  0  0  0  0  0  0  0  0
   -2.1351    2.9814    4.8504 C   0  0  0  0  0  0  0  0  0  0  0  0
   -1.0801    2.0695    4.9962 C   0  0  0  0  0  0  0  0  0  0  0  0
    0.2390    2.4343    5.4069 N   0  0  0  0  0  0  0  0  0  0  0  0
    1.1099    3.2454    4.6046 C   0  0  0  0  0  0  0  0  0  0  0  0
    1.2925    2.9555    3.2416 C   0  0  0  0  0  0  0  0  0  0  0  0
    2.3260    3.5757    2.5337 C   0  0  0  0  0  0  0  0  0  0  0  0
    3.1738    4.4863    3.1803 C   0  0  0  0  0  0  0  0  0  0  0  0
    4.6456    5.1000    2.3730 S   0  0  0  0  0  0  0  0  0  0  0  0
    5.6108    3.6106    2.7657 C   0  0  0  0  0  0  0  0  0  0  0  0
    2.9248    4.8615    4.5041 C   0  0  0  0  0  0  0  0  0  0  0  0
    1.9023    4.2404    5.2152 C   0  0  0  0  0  0  0  0  0  0  0  0
    0.6987    1.9336    6.6680 C   0  0  0  0  0  0  0  0  0  0  0  0
    0.3992    2.6223    7.8555 C   0  0  0  0  0  0  0  0  0  0  0  0
    0.8408    2.1098    9.0838 C   0  0  0  0  0  0  0  0  0  0  0  0
    1.5352    0.8918    9.1272 C   0  0  0  0  0  0  0  0  0  0  0  0
    2.0187    0.1891   10.7114 S   0  0  0  0  0  0  0  0  0  0  0  0
    3.7232    0.8244   10.6280 C   0  0  0  0  0  0  0  0  0  0  0  0
    1.8232    0.2050    7.9438 C   0  0  0  0  0  0  0  0  0  0  0  0
    1.4081    0.7243    6.7178 C   0  0  0  0  0  0  0  0  0  0  0  0
   -1.5103    0.7506    4.8904 C   0  0  0  0  0  0  0  0  0  0  0  0
   -0.7144   -0.5842    4.3033 S   0  0  0  0  0  0  0  0  0  0  0  0
   -2.0967   -1.4806    3.8943 C   0  0  0  0  0  0  0  0  0  0  0  0
   -3.2360   -0.7145    4.2808 C   0  0  0  0  0  0  0  0  0  0  0  0
   -4.6135   -1.1733    4.1438 N   0  0  0  0  0  0  0  0  0  0  0  0
   -5.6796   -0.3760    4.6881 C   0  0  0  0  0  0  0  0  0  0  0  0
   -6.6796    0.1500    3.8500 C   0  0  0  0  0  0  0  0  0  0  0  0
   -7.6729    0.9844    4.3759 C   0  0  0  0  0  0  0  0  0  0  0  0
   -7.6503    1.3284    5.7327 C   0  0  0  0  0  0  0  0  0  0  0  0
   -8.8643    2.4681    6.3867 S   0  0  0  0  0  0  0  0  0  0  0  0
   -7.9218    3.9336    5.8643 C   0  0  0  0  0  0  0  0  0  0  0  0
   -6.6662    0.7932    6.5769 C   0  0  0  0  0  0  0  0  0  0  0  0
   -5.7013   -0.0763    6.0605 C   0  0  0  0  0  0  0  0  0  0  0  0
   -4.9090   -2.5659    3.9046 C   0  0  0  0  0  0  0  0  0  0  0  0
   -4.2854   -3.5740    4.6743 C   0  0  0  0  0  0  0  0  0  0  0  0
   -4.5135   -4.9251    4.3916 C   0  0  0  0  0  0  0  0  0  0  0  0
   -5.4050   -5.2940    3.3745 C   0  0  0  0  0  0  0  0  0  0  0  0
   -5.7734   -7.0267    3.0619 S   0  0  0  0  0  0  0  0  0  0  0  0
   -4.5037   -7.2168    1.7657 C   0  0  0  0  0  0  0  0  0  0  0  0
   -6.0483   -4.2998    2.6241 C   0  0  0  0  0  0  0  0  0  0  0  0
   -5.7942   -2.9479    2.8790 C   0  0  0  0  0  0  0  0  0  0  0  0
   -2.8481    0.5625    4.7413 C   0  0  0  0  0  0  0  0  0  0  0  0
   -3.5773    2.0795    4.7129 S   0  0  0  0  0  0  0  0  0  0  0  0
   -2.0843   -2.3244    2.6831 C   0  0  0  0  0  0  0  0  0  0  0  0
   -0.9177   -2.9791    2.2200 C   0  0  0  0  0  0  0  0  0  0  0  0
   -0.2484   -4.0546    2.9145 N   0  0  0  0  0  0  0  0  0  0  0  0
    0.1192   -3.9844    4.2993 C   0  0  0  0  0  0  0  0  0  0  0  0
   -0.3802   -4.9283    5.2100 C   0  0  0  0  0  0  0  0  0  0  0  0
    0.1084   -4.9736    6.5189 C   0  0  0  0  0  0  0  0  0  0  0  0
    1.0829   -4.0635    6.9361 C   0  0  0  0  0  0  0  0  0  0  0  0
    1.7466   -4.1600    8.6052 S   0  0  0  0  0  0  0  0  0  0  0  0
    0.4042   -3.1700    9.3327 C   0  0  0  0  0  0  0  0  0  0  0  0
    1.5969   -3.1239    6.0324 C   0  0  0  0  0  0  0  0  0  0  0  0
    1.1293   -3.1033    4.7100 C   0  0  0  0  0  0  0  0  0  0  0  0
   -0.0036   -5.2937    2.2146 C   0  0  0  0  0  0  0  0  0  0  0  0
    1.2673   -5.8987    2.2709 C   0  0  0  0  0  0  0  0  0  0  0  0
    1.5430   -7.0343    1.5014 C   0  0  0  0  0  0  0  0  0  0  0  0
    0.5559   -7.5837    0.6683 C   0  0  0  0  0  0  0  0  0  0  0  0
    0.9210   -9.0052   -0.3542 S   0  0  0  0  0  0  0  0  0  0  0  0
    1.3940   -8.0089   -1.8064 C   0  0  0  0  0  0  0  0  0  0  0  0
   -0.7276   -7.0093    0.6451 C   0  0  0  0  0  0  0  0  0  0  0  0
   -1.0083   -5.8792    1.4173 C   0  0  0  0  0  0  0  0  0  0  0  0
   -0.7849   -2.8256    0.8389 C   0  0  0  0  0  0  0  0  0  0  0  0
    0.5697   -2.7739   -0.1175 S   0  0  0  0  0  0  0  0  0  0  0  0
   -0.1777   -1.9587   -1.4226 C   0  0  0  0  0  0  0  0  0  0  0  0
   -1.5361   -1.7542   -1.0942 C   0  0  0  0  0  0  0  0  0  0  0  0
   -2.5712   -1.7079   -2.0789 N   0  0  0  0  0  0  0  0  0  0  0  0
   -3.0566   -2.9856   -2.5368 C   0  0  0  0  0  0  0  0  0  0  0  0
   -4.3396   -3.4474   -2.1908 C   0  0  0  0  0  0  0  0  0  0  0  0
   -4.8160   -4.6606   -2.7075 C   0  0  0  0  0  0  0  0  0  0  0  0
   -4.0077   -5.4267   -3.5628 C   0  0  0  0  0  0  0  0  0  0  0  0
   -4.6461   -6.9302   -4.3109 S   0  0  0  0  0  0  0  0  0  0  0  0
   -3.9448   -8.0431   -3.0438 C   0  0  0  0  0  0  0  0  0  0  0  0
   -2.7078   -5.0047   -3.8576 C   0  0  0  0  0  0  0  0  0  0  0  0
   -2.2242   -3.8074   -3.3241 C   0  0  0  0  0  0  0  0  0  0  0  0
   -3.3531   -0.5046   -2.2827 C   0  0  0  0  0  0  0  0  0  0  0  0
   -3.1030    0.6650   -1.5422 C   0  0  0  0  0  0  0  0  0  0  0  0
   -3.9337    1.7773   -1.6868 C   0  0  0  0  0  0  0  0  0  0  0  0
   -5.0264    1.7395   -2.5540 C   0  0  0  0  0  0  0  0  0  0  0  0
   -6.1526    3.1367   -2.6481 S   0  0  0  0  0  0  0  0  0  0  0  0
   -7.0792    2.6565   -1.1520 C   0  0  0  0  0  0  0  0  0  0  0  0
   -5.2456    0.6117   -3.3427 C   0  0  0  0  0  0  0  0  0  0  0  0
   -4.3967   -0.4908   -3.2347 C   0  0  0  0  0  0  0  0  0  0  0  0
   -1.8063   -2.2206    0.1940 C   0  0  0  0  0  0  0  0  0  0  0  0
   -2.9285   -1.7328    1.3179 S   0  0  0  0  0  0  0  0  0  0  0  0
    0.6282   -0.9966   -2.2052 C   0  0  0  0  0  0  0  0  0  0  0  0
    0.9921   -1.1487   -3.5601 C   0  0  0  0  0  0  0  0  0  0  0  0
    0.1123   -1.6027   -4.5985 N   0  0  0  0  0  0  0  0  0  0  0  0
    0.5805   -2.6807   -5.4426 C   0  0  0  0  0  0  0  0  0  0  0  0
    1.2640   -3.7776   -4.8694 C   0  0  0  0  0  0  0  0  0  0  0  0
    1.8417   -4.7598   -5.6848 C   0  0  0  0  0  0  0  0  0  0  0  0
    1.7319   -4.6670   -7.0751 C   0  0  0  0  0  0  0  0  0  0  0  0
    2.5466   -5.8760   -8.1285 S   0  0  0  0  0  0  0  0  0  0  0  0
    3.8942   -4.7354   -8.5872 C   0  0  0  0  0  0  0  0  0  0  0  0
    1.0150   -3.6110   -7.6512 C   0  0  0  0  0  0  0  0  0  0  0  0
    0.4572   -2.6172   -6.8421 C   0  0  0  0  0  0  0  0  0  0  0  0
   -0.9023   -0.6819   -5.0720 C   0  0  0  0  0  0  0  0  0  0  0  0
   -2.0854   -1.1665   -5.6642 C   0  0  0  0  0  0  0  0  0  0  0  0
   -2.9716   -0.2968   -6.3105 C   0  0  0  0  0  0  0  0  0  0  0  0
   -2.6853    1.0774   -6.3758 C   0  0  0  0  0  0  0  0  0  0  0  0
   -3.6656    2.1650   -7.4230 S   0  0  0  0  0  0  0  0  0  0  0  0
   -4.7478    2.7506   -6.0891 C   0  0  0  0  0  0  0  0  0  0  0  0
   -1.5411    1.5708   -5.7423 C   0  0  0  0  0  0  0  0  0  0  0  0
   -0.6643    0.7114   -5.0873 C   0  0  0  0  0  0  0  0  0  0  0  0
    2.2380   -0.5819   -3.8234 C   0  0  0  0  0  0  0  0  0  0  0  0
    3.3573   -0.7160   -5.0760 S   0  0  0  0  0  0  0  0  0  0  0  0
    4.6334    0.0538   -4.2356 C   0  0  0  0  0  0  0  0  0  0  0  0
    4.1556    0.4110   -2.9597 C   0  0  0  0  0  0  0  0  0  0  0  0
    4.9392    1.0116   -1.9180 N   0  0  0  0  0  0  0  0  0  0  0  0
    4.8111    2.4486   -1.7042 C   0  0  0  0  0  0  0  0  0  0  0  0
    5.6080    3.1280   -0.7606 C   0  0  0  0  0  0  0  0  0  0  0  0
    5.6488    4.5279   -0.7437 C   0  0  0  0  0  0  0  0  0  0  0  0
    4.8281    5.2820   -1.5983 C   0  0  0  0  0  0  0  0  0  0  0  0
    4.9714    7.0723   -1.6915 S   0  0  0  0  0  0  0  0  0  0  0  0
    4.1286    7.4154   -0.1120 C   0  0  0  0  0  0  0  0  0  0  0  0
    3.9483    4.6167   -2.4525 C   0  0  0  0  0  0  0  0  0  0  0  0
    3.9558    3.2211   -2.5291 C   0  0  0  0  0  0  0  0  0  0  0  0
    5.7636    0.1358   -1.1157 C   0  0  0  0  0  0  0  0  0  0  0  0
    5.2064   -1.0223   -0.5421 C   0  0  0  0  0  0  0  0  0  0  0  0
    5.9913   -1.8849    0.2155 C   0  0  0  0  0  0  0  0  0  0  0  0
    7.3407   -1.5946    0.4507 C   0  0  0  0  0  0  0  0  0  0  0  0
    8.3266   -2.6844    1.4847 S   0  0  0  0  0  0  0  0  0  0  0  0
    7.4970   -2.2053    3.0347 C   0  0  0  0  0  0  0  0  0  0  0  0
    7.9185   -0.4670   -0.1480 C   0  0  0  0  0  0  0  0  0  0  0  0
    7.1453    0.3751   -0.9566 C   0  0  0  0  0  0  0  0  0  0  0  0
    2.8222    0.0472   -2.7756 C   0  0  0  0  0  0  0  0  0  0  0  0
    1.8330   -0.0719   -1.4348 S   0  0  0  0  0  0  0  0  0  0  0  0
    6.0608   -0.1382   -4.5846 C   0  0  0  0  0  0  0  0  0  0  0  0
    7.0290    0.7783   -4.5196 C   0  0  0  0  0  0  0  0  0  0  0  0
    6.8564    2.1820   -4.2052 C   0  0  0  0  0  0  0  0  0  0  0  0
    6.7518    3.2829   -3.9020 N   0  0  0  0  0  0  0  0  0  0  0  0
    8.3196    0.0990   -4.6694 C   0  0  0  0  0  0  0  0  0  0  0  0
    9.5639    0.6098   -4.5784 C   0  0  0  0  0  0  0  0  0  0  0  0
   10.7112   -0.2625   -4.5907 C   0  0  0  0  0  0  0  0  0  0  0  0
   11.6462   -0.9583   -4.5727 N   0  0  0  0  0  0  0  0  0  0  0  0
    9.8149    2.0231   -4.3896 C   0  0  0  0  0  0  0  0  0  0  0  0
   10.0072    3.1538   -4.2265 N   0  0  0  0  0  0  0  0  0  0  0  0
    8.0673   -1.2431   -4.8894 O   0  0  0  0  0  0  0  0  0  0  0  0
    6.6601   -1.4996   -4.9030 C   0  0  0  0  0  0  0  0  0  0  0  0
    6.3236   -2.5568   -3.8304 C   0  0  0  0  0  0  0  0  0  0  0  0
    6.2488   -1.9856   -6.3079 C   0  0  0  0  0  0  0  0  0  0  0  0
   -1.3996    4.9421    5.4771 H   0  0  0  0  0  0  0  0  0  0  0  0
   -0.8263    8.6840    1.4827 H   0  0  0  0  0  0  0  0  0  0  0  0
   -2.9062    4.5340   -0.6603 H   0  0  0  0  0  0  0  0  0  0  0  0
   -3.1066    7.2395   -2.7089 H   0  0  0  0  0  0  0  0  0  0  0  0
   -1.2441    6.0427   -4.0682 H   0  0  0  0  0  0  0  0  0  0  0  0
    0.8642    5.5180   -2.5243 H   0  0  0  0  0  0  0  0  0  0  0  0
    1.7060    7.7552   -1.5066 H   0  0  0  0  0  0  0  0  0  0  0  0
    0.1091    9.7123   -2.3534 H   0  0  0  0  0  0  0  0  0  0  0  0
    0.2540    8.1787   -4.5053 H   0  0  0  0  0  0  0  0  0  0  0  0
   -1.4771    8.6925   -4.2545 H   0  0  0  0  0  0  0  0  0  0  0  0
   -2.3343    9.2208   -1.6938 H   0  0  0  0  0  0  0  0  0  0  0  0
    0.6894    2.1894    2.7573 H   0  0  0  0  0  0  0  0  0  0  0  0
    2.5082    3.2928    1.5051 H   0  0  0  0  0  0  0  0  0  0  0  0
    5.2085    2.7380    2.2097 H   0  0  0  0  0  0  0  0  0  0  0  0
    6.6645    3.7750    2.4623 H   0  0  0  0  0  0  0  0  0  0  0  0
    5.5877    3.3985    3.8546 H   0  0  0  0  0  0  0  0  0  0  0  0
    3.5579    5.5845    5.0060 H   0  0  0  0  0  0  0  0  0  0  0  0
    1.7517    4.5023    6.2547 H   0  0  0  0  0  0  0  0  0  0  0  0
   -0.1453    3.5606    7.8222 H   0  0  0  0  0  0  0  0  0  0  0  0
    0.6256    2.6596    9.9934 H   0  0  0  0  0  0  0  0  0  0  0  0
    4.2163    0.6561   11.6052 H   0  0  0  0  0  0  0  0  0  0  0  0
    3.7294    1.9129   10.4088 H   0  0  0  0  0  0  0  0  0  0  0  0
    4.2913    0.2807    9.8480 H   0  0  0  0  0  0  0  0  0  0  0  0
    2.3497   -0.7373    7.9745 H   0  0  0  0  0  0  0  0  0  0  0  0
    1.6461    0.2038    5.8030 H   0  0  0  0  0  0  0  0  0  0  0  0
   -6.6628   -0.0495    2.7888 H   0  0  0  0  0  0  0  0  0  0  0  0
   -8.4332    1.3798    3.7165 H   0  0  0  0  0  0  0  0  0  0  0  0
   -7.8851    3.9760    4.7558 H   0  0  0  0  0  0  0  0  0  0  0  0
   -6.8930    3.9062    6.2836 H   0  0  0  0  0  0  0  0  0  0  0  0
   -8.4371    4.8448    6.2250 H   0  0  0  0  0  0  0  0  0  0  0  0
   -6.6264    1.0713    7.6241 H   0  0  0  0  0  0  0  0  0  0  0  0
   -4.9097   -0.4406    6.7147 H   0  0  0  0  0  0  0  0  0  0  0  0
   -3.6057   -3.3202    5.4797 H   0  0  0  0  0  0  0  0  0  0  0  0
   -4.0169   -5.6905    4.9775 H   0  0  0  0  0  0  0  0  0  0  0  0
   -4.4390   -6.3127    1.1294 H   0  0  0  0  0  0  0  0  0  0  0  0
   -4.7757   -8.0749    1.1245 H   0  0  0  0  0  0  0  0  0  0  0  0
   -3.5176   -7.4177    2.2303 H   0  0  0  0  0  0  0  0  0  0  0  0
   -6.7319   -4.5737    1.8389 H   0  0  0  0  0  0  0  0  0  0  0  0
   -6.2709   -2.2031    2.2590 H   0  0  0  0  0  0  0  0  0  0  0  0
   -1.1007   -5.6724    4.8847 H   0  0  0  0  0  0  0  0  0  0  0  0
   -0.2560   -5.7426    7.1942 H   0  0  0  0  0  0  0  0  0  0  0  0
   -0.5870   -3.5945    9.0716 H   0  0  0  0  0  0  0  0  0  0  0  0
    0.4698   -2.1229    8.9830 H   0  0  0  0  0  0  0  0  0  0  0  0
    0.5149   -3.1828   10.4347 H   0  0  0  0  0  0  0  0  0  0  0  0
    2.3806   -2.4397    6.3299 H   0  0  0  0  0  0  0  0  0  0  0  0
    1.5662   -2.4164    3.9985 H   0  0  0  0  0  0  0  0  0  0  0  0
    2.0418   -5.4634    2.8822 H   0  0  0  0  0  0  0  0  0  0  0  0
    2.5294   -7.4776    1.5510 H   0  0  0  0  0  0  0  0  0  0  0  0
    1.7114   -8.6913   -2.6225 H   0  0  0  0  0  0  0  0  0  0  0  0
    0.5320   -7.4086   -2.1561 H   0  0  0  0  0  0  0  0  0  0  0  0
    2.2423   -7.3354   -1.5551 H   0  0  0  0  0  0  0  0  0  0  0  0
   -1.5061   -7.4381    0.0260 H   0  0  0  0  0  0  0  0  0  0  0  0
   -2.0001   -5.4400    1.3660 H   0  0  0  0  0  0  0  0  0  0  0  0
   -4.9818   -2.8547   -1.5393 H   0  0  0  0  0  0  0  0  0  0  0  0
   -5.8209   -4.9826   -2.4755 H   0  0  0  0  0  0  0  0  0  0  0  0
   -3.7086   -9.0187   -3.5107 H   0  0  0  0  0  0  0  0  0  0  0  0
   -3.0058   -7.6474   -2.6093 H   0  0  0  0  0  0  0  0  0  0  0  0
   -4.6848   -8.2057   -2.2326 H   0  0  0  0  0  0  0  0  0  0  0  0
   -2.0705   -5.5897   -4.5097 H   0  0  0  0  0  0  0  0  0  0  0  0
   -1.2168   -3.5081   -3.5351 H   0  0  0  0  0  0  0  0  0  0  0  0
   -2.3023    0.7110   -0.8121 H   0  0  0  0  0  0  0  0  0  0  0  0
   -3.7611    2.6448   -1.0833 H   0  0  0  0  0  0  0  0  0  0  0  0
   -6.5051    2.9450   -0.2417 H   0  0  0  0  0  0  0  0  0  0  0  0
   -8.0510    3.1890   -1.1452 H   0  0  0  0  0  0  0  0  0  0  0  0
   -7.2766    1.5688   -1.1442 H   0  0  0  0  0  0  0  0  0  0  0  0
   -6.0907    0.5727   -4.0189 H   0  0  0  0  0  0  0  0  0  0  0  0
   -4.5871   -1.3437   -3.8747 H   0  0  0  0  0  0  0  0  0  0  0  0
    1.3759   -3.8545   -3.7958 H   0  0  0  0  0  0  0  0  0  0  0  0
    2.3958   -5.5754   -5.2292 H   0  0  0  0  0  0  0  0  0  0  0  0
    4.6471   -5.2883   -9.1830 H   0  0  0  0  0  0  0  0  0  0  0  0
    3.4943   -3.9008   -9.2000 H   0  0  0  0  0  0  0  0  0  0  0  0
    4.3852   -4.3311   -7.6779 H   0  0  0  0  0  0  0  0  0  0  0  0
    0.9265   -3.5272   -8.7263 H   0  0  0  0  0  0  0  0  0  0  0  0
   -0.0073   -1.7667   -7.3304 H   0  0  0  0  0  0  0  0  0  0  0  0
   -2.2889   -2.2324   -5.6702 H   0  0  0  0  0  0  0  0  0  0  0  0
   -3.8490   -0.6991   -6.8059 H   0  0  0  0  0  0  0  0  0  0  0  0
   -4.1570    3.1684   -5.2459 H   0  0  0  0  0  0  0  0  0  0  0  0
   -5.3830    1.9150   -5.7402 H   0  0  0  0  0  0  0  0  0  0  0  0
   -5.4147    3.5399   -6.4865 H   0  0  0  0  0  0  0  0  0  0  0  0
   -1.3072    2.6274   -5.7928 H   0  0  0  0  0  0  0  0  0  0  0  0
    0.2478    1.1260   -4.6660 H   0  0  0  0  0  0  0  0  0  0  0  0
    6.2357    2.5961   -0.0589 H   0  0  0  0  0  0  0  0  0  0  0  0
    6.3528    5.0247   -0.0872 H   0  0  0  0  0  0  0  0  0  0  0  0
    3.3185    6.6847    0.0960 H   0  0  0  0  0  0  0  0  0  0  0  0
    3.6830    8.4290   -0.1545 H   0  0  0  0  0  0  0  0  0  0  0  0
    4.8810    7.3944    0.7020 H   0  0  0  0  0  0  0  0  0  0  0  0
    3.3061    5.1818   -3.1149 H   0  0  0  0  0  0  0  0  0  0  0  0
    3.3268    2.7636   -3.2792 H   0  0  0  0  0  0  0  0  0  0  0  0
    4.1600   -1.2590   -0.6665 H   0  0  0  0  0  0  0  0  0  0  0  0
    5.5321   -2.7685    0.6379 H   0  0  0  0  0  0  0  0  0  0  0  0
    6.4720   -2.6301    3.0380 H   0  0  0  0  0  0  0  0  0  0  0  0
    8.0464   -2.6401    3.9021 H   0  0  0  0  0  0  0  0  0  0  0  0
    7.4366   -1.0987    3.1241 H   0  0  0  0  0  0  0  0  0  0  0  0
    8.9724   -0.2529   -0.0031 H   0  0  0  0  0  0  0  0  0  0  0  0
    7.6196    1.2138   -1.4508 H   0  0  0  0  0  0  0  0  0  0  0  0
    6.6933   -2.2359   -2.8341 H   0  0  0  0  0  0  0  0  0  0  0  0
    5.2293   -2.7331   -3.7692 H   0  0  0  0  0  0  0  0  0  0  0  0
    6.8105   -3.5250   -4.0804 H   0  0  0  0  0  0  0  0  0  0  0  0
    5.3490   -2.6398   -6.2491 H   0  0  0  0  0  0  0  0  0  0  0  0
    7.0828   -2.5543   -6.7766 H   0  0  0  0  0  0  0  0  0  0  0  0
    6.0276   -1.1190   -6.9764 H   0  0  0  0  0  0  0  0  0  0  0  0
  1  2  2  3
  2  3  1  0
  3  4  2  0
  3  5  1  0
  5  6  2  0
  6  7  1  0
  7  8  2  0
  8  9  1  0
  9 10  2  0
 10 11  1  0
 11 12  2  3
 12 13  1  0
 13 14  3  0
 12 15  1  0
 15 16  3  0
  8 17  1  0
 17 18  1  0
 18 19  1  0
 19 20  2  0
 20 21  1  0
 21 22  1  0
 21 23  1  0
  1 24  1  0
 24 25  2  0
 25 26  1  0
 26 27  1  0
 27 28  2  0
 28 29  1  0
 29 30  2  0
 30 31  1  0
 31 32  1  0
 30 33  1  0
 33 34  2  0
 26 35  1  0
 35 36  2  0
 36 37  1  0
 37 38  2  0
 38 39  1  0
 39 40  1  0
 38 41  1  0
 41 42  2  0
 25 43  1  0
 43 44  1  0
 44 45  1  0
 45 46  2  0
 46 47  1  0
 47 48  1  0
 48 49  2  0
 49 50  1  0
 50 51  2  0
 51 52  1  0
 52 53  1  0
 51 54  1  0
 54 55  2  0
 47 56  1  0
 56 57  2  0
 57 58  1  0
 58 59  2  0
 59 60  1  0
 60 61  1  0
 59 62  1  0
 62 63  2  0
 46 64  1  0
 64 65  1  0
 45 66  1  0
 66 67  2  0
 67 68  1  0
 68 69  1  0
 69 70  2  0
 70 71  1  0
 71 72  2  0
 72 73  1  0
 73 74  1  0
 72 75  1  0
 75 76  2  0
 68 77  1  0
 77 78  2  0
 78 79  1  0
 79 80  2  0
 80 81  1  0
 81 82  1  0
 80 83  1  0
 83 84  2  0
 67 85  1  0
 85 86  1  0
 86 87  1  0
 87 88  2  0
 88 89  1  0
 89 90  1  0
 90 91  2  0
 91 92  1  0
 92 93  2  0
 93 94  1  0
 94 95  1  0
 93 96  1  0
 96 97  2  0
 89 98  1  0
 98 99  2  0
 99100  1  0
100101  2  0
101102  1  0
102103  1  0
101104  1  0
104105  2  0
 88106  1  0
106107  1  0
 87108  1  0
108109  2  0
109110  1  0
110111  1  0
111112  2  0
112113  1  0
113114  2  0
114115  1  0
115116  1  0
114117  1  0
117118  2  0
110119  1  0
119120  2  0
120121  1  0
121122  2  0
122123  1  0
123124  1  0
122125  1  0
125126  2  0
109127  1  0
127128  1  0
128129  1  0
129130  2  0
130131  1  0
131132  1  0
132133  2  0
133134  1  0
134135  2  0
135136  1  0
136137  1  0
135138  1  0
138139  2  0
131140  1  0
140141  2  0
141142  1  0
142143  2  0
143144  1  0
144145  1  0
143146  1  0
146147  2  0
130148  1  0
148149  1  0
129150  1  0
150151  2  0
151152  1  0
152153  3  0
151154  1  0
154155  2  3
155156  1  0
156157  3  0
155158  1  0
158159  3  0
154160  1  0
160161  1  0
161162  1  0
161163  1  0
 11  2  1  0
 23 17  1  0
 65 24  1  0
107 66  1  0
149108  1  0
161150  1  0
 10  5  1  0
 22 18  1  0
 34 27  1  0
 42 35  1  0
 64 43  2  0
 76 69  1  0
 84 77  1  0
106 85  2  0
118111  1  0
126119  1  0
148127  2  0
 23  7  1  0
 55 48  1  0
 63 56  1  0
 97 90  1  0
105 98  1  0
139132  1  0
147140  1  0
  1164  1  0
  6165  1  0
  9166  1  0
 17167  1  0
 18168  1  0
 19169  1  0
 20170  1  0
 21171  1  0
 22172  1  0
 22173  1  0
 23174  1  0
 28175  1  0
 29176  1  0
 32177  1  0
 32178  1  0
 32179  1  0
 33180  1  0
 34181  1  0
 36182  1  0
 37183  1  0
 40184  1  0
 40185  1  0
 40186  1  0
 41187  1  0
 42188  1  0
 49189  1  0
 50190  1  0
 53191  1  0
 53192  1  0
 53193  1  0
 54194  1  0
 55195  1  0
 57196  1  0
 58197  1  0
 61198  1  0
 61199  1  0
 61200  1  0
 62201  1  0
 63202  1  0
 70203  1  0
 71204  1  0
 74205  1  0
 74206  1  0
 74207  1  0
 75208  1  0
 76209  1  0
 78210  1  0
 79211  1  0
 82212  1  0
 82213  1  0
 82214  1  0
 83215  1  0
 84216  1  0
 91217  1  0
 92218  1  0
 95219  1  0
 95220  1  0
 95221  1  0
 96222  1  0
 97223  1  0
 99224  1  0
100225  1  0
103226  1  0
103227  1  0
103228  1  0
104229  1  0
105230  1  0
112231  1  0
113232  1  0
116233  1  0
116234  1  0
116235  1  0
117236  1  0
118237  1  0
120238  1  0
121239  1  0
124240  1  0
124241  1  0
124242  1  0
125243  1  0
126244  1  0
133245  1  0
134246  1  0
137247  1  0
137248  1  0
137249  1  0
138250  1  0
139251  1  0
141252  1  0
142253  1  0
145254  1  0
145255  1  0
145256  1  0
146257  1  0
147258  1  0
162259  1  0
162260  1  0
162261  1  0
163262  1  0
163263  1  0
163264  1  0
M  END

