
     RDKit          3D

205227  0  0  0  0  0  0  0  0999 V2000
    5.3409   -2.1338   -0.0356 C   0  0  0  0  0  0  0  0  0  0  0  0
    6.3590   -1.7887    0.7701 C   0  0  0  0  0  0  0  0  0  0  0  0
    6.2365   -1.6902    2.2279 C   0  0  0  0  0  0  0  0  0  0  0  0
    5.3051   -2.1714    2.9305 O   0  0  0  0  0  0  0  0  0  0  0  0
    7.4049   -1.0324    2.7495 C   0  0  0  0  0  0  0  0  0  0  0  0
    7.5786   -0.5786    4.0737 C   0  0  0  0  0  0  0  0  0  0  0  0
    8.7229    0.1710    4.2606 C   0  0  0  0  0  0  0  0  0  0  0  0
    9.6586    0.4477    3.2112 C   0  0  0  0  0  0  0  0  0  0  0  0
    9.4958   -0.0045    1.9097 C   0  0  0  0  0  0  0  0  0  0  0  0
    8.3154   -0.7777    1.6892 C   0  0  0  0  0  0  0  0  0  0  0  0
    7.7291   -1.2931    0.4042 C   0  0  0  0  0  0  0  0  0  0  0  0
    8.2994   -1.2360   -0.8301 C   0  0  0  0  0  0  0  0  0  0  0  0
    9.6581   -0.8012   -1.0452 C   0  0  0  0  0  0  0  0  0  0  0  0
   10.7465   -0.4544   -1.2409 N   0  0  0  0  0  0  0  0  0  0  0  0
    7.6114   -1.5826   -2.0456 C   0  0  0  0  0  0  0  0  0  0  0  0
    7.0644   -1.8481   -3.0345 N   0  0  0  0  0  0  0  0  0  0  0  0
   10.4922    1.2678    4.1525 C   0  0  0  0  0  0  0  0  0  0  0  0
   10.4447    2.8194    4.0013 C   0  0  0  0  0  0  0  0  0  0  0  0
    9.1011    3.2421    3.4578 C   0  0  0  0  0  0  0  0  0  0  0  0
    8.2067    2.9944    4.4183 C   0  0  0  0  0  0  0  0  0  0  0  0
    8.9758    2.4111    5.5838 C   0  0  0  0  0  0  0  0  0  0  0  0
   10.2532    3.2158    5.4539 C   0  0  0  0  0  0  0  0  0  0  0  0
    9.5236    0.9971    5.2184 C   0  0  0  0  0  0  0  0  0  0  0  0
    3.9311   -2.0607    0.3997 C   0  0  0  0  0  0  0  0  0  0  0  0
    3.2742   -0.9155    0.9047 C   0  0  0  0  0  0  0  0  0  0  0  0
    3.9055    0.3489    1.2097 N   0  0  0  0  0  0  0  0  0  0  0  0
    3.6261    1.0187    2.4691 C   0  0  0  0  0  0  0  0  0  0  0  0
    3.3284    0.2835    3.6324 C   0  0  0  0  0  0  0  0  0  0  0  0
    3.1065    0.9383    4.8526 C   0  0  0  0  0  0  0  0  0  0  0  0
    3.1920    2.3322    4.9273 C   0  0  0  0  0  0  0  0  0  0  0  0
    2.9081    3.1766    6.4885 S   0  0  0  0  0  0  0  0  0  0  0  0
    4.6294    2.9624    7.0664 C   0  0  0  0  0  0  0  0  0  0  0  0
    3.4624    3.0704    3.7799 C   0  0  0  0  0  0  0  0  0  0  0  0
    3.6629    2.4272    2.5546 C   0  0  0  0  0  0  0  0  0  0  0  0
    4.8174    0.9424    0.2570 C   0  0  0  0  0  0  0  0  0  0  0  0
    5.9984    1.5771    0.6905 C   0  0  0  0  0  0  0  0  0  0  0  0
    6.8556    2.1839   -0.2291 C   0  0  0  0  0  0  0  0  0  0  0  0
    6.5411    2.1788   -1.5932 C   0  0  0  0  0  0  0  0  0  0  0  0
    7.6078    3.0217   -2.7575 S   0  0  0  0  0  0  0  0  0  0  0  0
    6.7255    4.6079   -2.5800 C   0  0  0  0  0  0  0  0  0  0  0  0
    5.3739    1.5440   -2.0330 C   0  0  0  0  0  0  0  0  0  0  0  0
    4.5112    0.9371   -1.1157 C   0  0  0  0  0  0  0  0  0  0  0  0
    1.9153   -1.1562    1.0597 C   0  0  0  0  0  0  0  0  0  0  0  0
    0.6108   -0.2149    1.5039 S   0  0  0  0  0  0  0  0  0  0  0  0
   -0.5401   -1.4559    1.2829 C   0  0  0  0  0  0  0  0  0  0  0  0
    0.1146   -2.6204    0.8451 C   0  0  0  0  0  0  0  0  0  0  0  0
   -0.4629   -3.9314    0.9237 N   0  0  0  0  0  0  0  0  0  0  0  0
   -0.3327   -4.6284    2.1715 C   0  0  0  0  0  0  0  0  0  0  0  0
    0.4012   -5.8249    2.2389 C   0  0  0  0  0  0  0  0  0  0  0  0
    0.6216   -6.4401    3.4734 C   0  0  0  0  0  0  0  0  0  0  0  0
    0.1153   -5.8673    4.6450 C   0  0  0  0  0  0  0  0  0  0  0  0
    0.4871   -6.6016    6.2401 S   0  0  0  0  0  0  0  0  0  0  0  0
    1.9987   -5.6133    6.4654 C   0  0  0  0  0  0  0  0  0  0  0  0
   -0.6492   -4.7011    4.5782 C   0  0  0  0  0  0  0  0  0  0  0  0
   -0.8710   -4.0813    3.3476 C   0  0  0  0  0  0  0  0  0  0  0  0
   -0.9891   -4.6034   -0.2406 C   0  0  0  0  0  0  0  0  0  0  0  0
   -2.0203   -5.5495   -0.0920 C   0  0  0  0  0  0  0  0  0  0  0  0
   -2.4926   -6.2639   -1.1931 C   0  0  0  0  0  0  0  0  0  0  0  0
   -1.9299   -6.0566   -2.4565 C   0  0  0  0  0  0  0  0  0  0  0  0
   -2.4978   -7.0291   -3.8475 S   0  0  0  0  0  0  0  0  0  0  0  0
   -1.3654   -8.4159   -3.5145 C   0  0  0  0  0  0  0  0  0  0  0  0
   -0.9348   -5.0902   -2.6249 C   0  0  0  0  0  0  0  0  0  0  0  0
   -0.4699   -4.3615   -1.5268 C   0  0  0  0  0  0  0  0  0  0  0  0
    1.4901   -2.3991    0.7215 C   0  0  0  0  0  0  0  0  0  0  0  0
    2.7895   -3.3113    0.1747 S   0  0  0  0  0  0  0  0  0  0  0  0
   -1.9915   -1.2166    1.3628 C   0  0  0  0  0  0  0  0  0  0  0  0
   -2.5028   -0.1036    2.0155 C   0  0  0  0  0  0  0  0  0  0  0  0
   -3.7043    0.3532    1.4705 C   0  0  0  0  0  0  0  0  0  0  0  0
   -4.2128    1.6456    1.6725 C   0  0  0  0  0  0  0  0  0  0  0  0
   -3.6244    2.5349    2.6888 C   0  0  0  0  0  0  0  0  0  0  0  0
   -4.0414    2.4332    4.0220 C   0  0  0  0  0  0  0  0  0  0  0  0
   -3.3742    3.1423    5.0223 C   0  0  0  0  0  0  0  0  0  0  0  0
   -2.2654    3.9508    4.7096 C   0  0  0  0  0  0  0  0  0  0  0  0
   -1.5350    4.6254    5.7062 O   0  0  0  0  0  0  0  0  0  0  0  0
   -1.6334    4.4071    7.1133 C   0  0  0  0  0  0  0  0  0  0  0  0
   -1.0539    3.0469    7.4952 C   0  0  0  0  0  0  0  0  0  0  0  0
   -1.8683    4.0868    3.3627 C   0  0  0  0  0  0  0  0  0  0  0  0
   -0.6605    4.9305    3.0173 C   0  0  0  0  0  0  0  0  0  0  0  0
    0.4769    4.3255    3.5193 F   0  0  0  0  0  0  0  0  0  0  0  0
   -0.7928    6.1875    3.5783 F   0  0  0  0  0  0  0  0  0  0  0  0
   -0.5213    5.0911    1.6474 F   0  0  0  0  0  0  0  0  0  0  0  0
   -2.5470    3.3692    2.3610 C   0  0  0  0  0  0  0  0  0  0  0  0
   -5.1347    2.1161    0.7307 C   0  0  0  0  0  0  0  0  0  0  0  0
   -5.6809    1.2885   -0.2552 C   0  0  0  0  0  0  0  0  0  0  0  0
   -5.2660   -0.0654   -0.3884 C   0  0  0  0  0  0  0  0  0  0  0  0
   -5.7871   -0.9176   -1.4820 C   0  0  0  0  0  0  0  0  0  0  0  0
   -5.5736   -0.5464   -2.8172 C   0  0  0  0  0  0  0  0  0  0  0  0
   -6.3918   -1.0557   -3.8269 C   0  0  0  0  0  0  0  0  0  0  0  0
   -7.3933   -1.9881   -3.5291 C   0  0  0  0  0  0  0  0  0  0  0  0
   -8.3240   -2.3639   -4.5098 O   0  0  0  0  0  0  0  0  0  0  0  0
   -9.0274   -1.4203   -5.3191 C   0  0  0  0  0  0  0  0  0  0  0  0
   -8.6154   -1.5369   -6.7847 C   0  0  0  0  0  0  0  0  0  0  0  0
   -7.4860   -2.5128   -2.2216 C   0  0  0  0  0  0  0  0  0  0  0  0
   -6.7041   -1.9420   -1.1929 C   0  0  0  0  0  0  0  0  0  0  0  0
   -8.5612   -3.5207   -1.8895 C   0  0  0  0  0  0  0  0  0  0  0  0
   -8.3170   -4.1311   -0.6665 F   0  0  0  0  0  0  0  0  0  0  0  0
   -8.6095   -4.5110   -2.8579 F   0  0  0  0  0  0  0  0  0  0  0  0
   -9.7892   -2.8828   -1.8342 F   0  0  0  0  0  0  0  0  0  0  0  0
   -4.2142   -0.4711    0.4554 C   0  0  0  0  0  0  0  0  0  0  0  0
   -3.1098   -1.7221    0.1946 S   0  0  0  0  0  0  0  0  0  0  0  0
   -6.4234    1.9979   -1.2051 C   0  0  0  0  0  0  0  0  0  0  0  0
   -6.3168    3.3837   -1.0823 C   0  0  0  0  0  0  0  0  0  0  0  0
   -5.4574    3.7201    0.3346 S   0  0  0  0  0  0  0  0  0  0  0  0
   -6.3441    4.2233   -2.3058 C   0  0  0  0  0  0  0  0  0  0  0  0
   -7.3901    4.0113   -3.2248 C   0  0  0  0  0  0  0  0  0  0  0  0
   -8.5660    3.4804   -2.7990 F   0  0  0  0  0  0  0  0  0  0  0  0
   -7.1743    4.1465   -4.6031 C   0  0  0  0  0  0  0  0  0  0  0  0
   -8.1538    3.7663   -5.4664 F   0  0  0  0  0  0  0  0  0  0  0  0
   -5.9097    4.5195   -5.0914 C   0  0  0  0  0  0  0  0  0  0  0  0
   -4.9518    4.9807   -4.1875 C   0  0  0  0  0  0  0  0  0  0  0  0
   -5.1583    4.8183   -2.7863 C   0  0  0  0  0  0  0  0  0  0  0  0
   -4.1082    5.1509   -1.9880 N   0  0  0  0  0  0  0  0  0  0  0  0
   -3.0098    5.6642   -3.1145 S   0  0  0  0  0  0  0  0  0  0  0  0
   -3.7494    5.4776   -4.5781 N   0  0  0  0  0  0  0  0  0  0  0  0
   -5.5610    4.1400   -6.4744 C   0  0  0  0  0  0  0  0  0  0  0  0
   -4.9395    2.9709   -6.7230 C   0  0  0  0  0  0  0  0  0  0  0  0
   -5.2152    2.1518   -7.9039 C   0  0  0  0  0  0  0  0  0  0  0  0
   -5.7642    2.5402   -8.9677 O   0  0  0  0  0  0  0  0  0  0  0  0
   -4.8084    0.7912   -7.6195 C   0  0  0  0  0  0  0  0  0  0  0  0
   -4.8922   -0.3385   -8.4616 C   0  0  0  0  0  0  0  0  0  0  0  0
   -4.3477   -1.4894   -7.9135 C   0  0  0  0  0  0  0  0  0  0  0  0
   -3.7477   -1.5293   -6.6099 C   0  0  0  0  0  0  0  0  0  0  0  0
   -3.6626   -0.4232   -5.7817 C   0  0  0  0  0  0  0  0  0  0  0  0
   -4.2419    0.7581   -6.3163 C   0  0  0  0  0  0  0  0  0  0  0  0
   -4.2604    2.1098   -5.7091 C   0  0  0  0  0  0  0  0  0  0  0  0
   -3.1762    2.5413   -5.0553 C   0  0  0  0  0  0  0  0  0  0  0  0
   -2.9199    2.0769   -3.7179 C   0  0  0  0  0  0  0  0  0  0  0  0
   -2.6974    1.7298   -2.6353 N   0  0  0  0  0  0  0  0  0  0  0  0
   -2.0208    2.9526   -5.8130 C   0  0  0  0  0  0  0  0  0  0  0  0
   -1.0668    3.2321   -6.4147 N   0  0  0  0  0  0  0  0  0  0  0  0
   -3.4119   -2.9794   -6.7916 C   0  0  0  0  0  0  0  0  0  0  0  0
   -4.2831   -4.0129   -6.0093 C   0  0  0  0  0  0  0  0  0  0  0  0
   -4.0432   -5.3506   -6.6681 C   0  0  0  0  0  0  0  0  0  0  0  0
   -4.6294   -5.2959   -7.8681 C   0  0  0  0  0  0  0  0  0  0  0  0
   -5.2407   -3.9231   -7.9838 C   0  0  0  0  0  0  0  0  0  0  0  0
   -5.6778   -3.7470   -6.5390 C   0  0  0  0  0  0  0  0  0  0  0  0
   -4.0399   -2.9348   -8.1122 C   0  0  0  0  0  0  0  0  0  0  0  0
    5.4809   -2.3426   -1.0781 H   0  0  0  0  0  0  0  0  0  0  0  0
    6.8540   -0.7331    4.8585 H   0  0  0  0  0  0  0  0  0  0  0  0
   10.1956    0.2895    1.1510 H   0  0  0  0  0  0  0  0  0  0  0  0
   11.4945    0.8409    4.3567 H   0  0  0  0  0  0  0  0  0  0  0  0
   11.3205    3.2700    3.4941 H   0  0  0  0  0  0  0  0  0  0  0  0
    8.8977    3.7144    2.5022 H   0  0  0  0  0  0  0  0  0  0  0  0
    7.1506    3.2341    4.3857 H   0  0  0  0  0  0  0  0  0  0  0  0
    8.4649    2.4867    6.5635 H   0  0  0  0  0  0  0  0  0  0  0  0
   10.1059    4.3162    5.5958 H   0  0  0  0  0  0  0  0  0  0  0  0
   11.0703    2.8738    6.1306 H   0  0  0  0  0  0  0  0  0  0  0  0
    9.9361    0.4221    6.0781 H   0  0  0  0  0  0  0  0  0  0  0  0
    3.2678   -0.7972    3.6059 H   0  0  0  0  0  0  0  0  0  0  0  0
    2.8761    0.3584    5.7355 H   0  0  0  0  0  0  0  0  0  0  0  0
    4.8781    1.8793    7.1267 H   0  0  0  0  0  0  0  0  0  0  0  0
    4.7348    3.3848    8.0875 H   0  0  0  0  0  0  0  0  0  0  0  0
    5.3328    3.4805    6.3827 H   0  0  0  0  0  0  0  0  0  0  0  0
    3.5104    4.1500    3.8231 H   0  0  0  0  0  0  0  0  0  0  0  0
    3.8353    3.0304    1.6751 H   0  0  0  0  0  0  0  0  0  0  0  0
    6.2597    1.5950    1.7428 H   0  0  0  0  0  0  0  0  0  0  0  0
    7.7643    2.6586    0.1125 H   0  0  0  0  0  0  0  0  0  0  0  0
    5.6867    4.5032   -2.9567 H   0  0  0  0  0  0  0  0  0  0  0  0
    6.7097    4.9325   -1.5193 H   0  0  0  0  0  0  0  0  0  0  0  0
    7.2463    5.3770   -3.1860 H   0  0  0  0  0  0  0  0  0  0  0  0
    5.1284    1.5349   -3.0841 H   0  0  0  0  0  0  0  0  0  0  0  0
    3.5994    0.4716   -1.4750 H   0  0  0  0  0  0  0  0  0  0  0  0
    0.8295   -6.2578    1.3420 H   0  0  0  0  0  0  0  0  0  0  0  0
    1.2153   -7.3425    3.5239 H   0  0  0  0  0  0  0  0  0  0  0  0
    1.7819   -4.5334    6.3293 H   0  0  0  0  0  0  0  0  0  0  0  0
    2.7684   -5.9455    5.7410 H   0  0  0  0  0  0  0  0  0  0  0  0
    2.3860   -5.7752    7.4921 H   0  0  0  0  0  0  0  0  0  0  0  0
   -1.0443   -4.2588    5.4838 H   0  0  0  0  0  0  0  0  0  0  0  0
   -1.4613   -3.1770    3.3090 H   0  0  0  0  0  0  0  0  0  0  0  0
   -2.4502   -5.7415    0.8824 H   0  0  0  0  0  0  0  0  0  0  0  0
   -3.2797   -6.9967   -1.0600 H   0  0  0  0  0  0  0  0  0  0  0  0
   -0.3106   -8.0764   -3.5844 H   0  0  0  0  0  0  0  0  0  0  0  0
   -1.5447   -9.2092   -4.2688 H   0  0  0  0  0  0  0  0  0  0  0  0
   -1.5646   -8.8316   -2.5045 H   0  0  0  0  0  0  0  0  0  0  0  0
   -0.5078   -4.9151   -3.6081 H   0  0  0  0  0  0  0  0  0  0  0  0
    0.3129   -3.6326   -1.6771 H   0  0  0  0  0  0  0  0  0  0  0  0
   -1.9202    0.4639    2.7324 H   0  0  0  0  0  0  0  0  0  0  0  0
   -4.8615    1.7757    4.2898 H   0  0  0  0  0  0  0  0  0  0  0  0
   -3.7166    3.0275    6.0439 H   0  0  0  0  0  0  0  0  0  0  0  0
   -1.0411    5.1978    7.6228 H   0  0  0  0  0  0  0  0  0  0  0  0
   -2.6862    4.5076    7.4596 H   0  0  0  0  0  0  0  0  0  0  0  0
   -0.8895    3.0185    8.5910 H   0  0  0  0  0  0  0  0  0  0  0  0
   -0.0884    2.8864    6.9817 H   0  0  0  0  0  0  0  0  0  0  0  0
   -1.7537    2.2308    7.2165 H   0  0  0  0  0  0  0  0  0  0  0  0
   -2.2187    3.4145    1.3285 H   0  0  0  0  0  0  0  0  0  0  0  0
   -4.8689    0.2359   -3.0617 H   0  0  0  0  0  0  0  0  0  0  0  0
   -6.2965   -0.6706   -4.8301 H   0  0  0  0  0  0  0  0  0  0  0  0
   -8.8492   -0.3788   -4.9684 H   0  0  0  0  0  0  0  0  0  0  0  0
  -10.1133   -1.6256   -5.2337 H   0  0  0  0  0  0  0  0  0  0  0  0
   -9.2842   -0.9195   -7.4095 H   0  0  0  0  0  0  0  0  0  0  0  0
   -8.6889   -2.6002   -7.1042 H   0  0  0  0  0  0  0  0  0  0  0  0
   -7.5692   -1.1756   -6.9180 H   0  0  0  0  0  0  0  0  0  0  0  0
   -6.8665   -2.2265   -0.1598 H   0  0  0  0  0  0  0  0  0  0  0  0
   -6.8593    1.5380   -2.0790 H   0  0  0  0  0  0  0  0  0  0  0  0
   -6.1568    4.5806   -7.2688 H   0  0  0  0  0  0  0  0  0  0  0  0
   -5.3219   -0.3048   -9.4506 H   0  0  0  0  0  0  0  0  0  0  0  0
   -3.1859   -0.4595   -4.8136 H   0  0  0  0  0  0  0  0  0  0  0  0
   -2.3212   -3.1817   -6.8049 H   0  0  0  0  0  0  0  0  0  0  0  0
   -4.1752   -4.0034   -4.9049 H   0  0  0  0  0  0  0  0  0  0  0  0
   -3.6135   -6.2403   -6.2338 H   0  0  0  0  0  0  0  0  0  0  0  0
   -4.7278   -6.1259   -8.5617 H   0  0  0  0  0  0  0  0  0  0  0  0
   -6.0412   -3.8234   -8.7510 H   0  0  0  0  0  0  0  0  0  0  0  0
   -6.4270   -4.5068   -6.2023 H   0  0  0  0  0  0  0  0  0  0  0  0
   -6.0476   -2.7326   -6.2893 H   0  0  0  0  0  0  0  0  0  0  0  0
   -3.3449   -3.1277   -8.9596 H   0  0  0  0  0  0  0  0  0  0  0  0
  1  2  2  3
  2  3  1  0
  3  4  2  0
  3  5  1  0
  5  6  2  0
  6  7  1  0
  7  8  2  0
  8  9  1  0
  9 10  2  0
 10 11  1  0
 11 12  2  3
 12 13  1  0
 13 14  3  0
 12 15  1  0
 15 16  3  0
  8 17  1  0
 17 18  1  0
 18 19  1  0
 19 20  2  0
 20 21  1  0
 21 22  1  0
 21 23  1  0
  1 24  1  0
 24 25  2  0
 25 26  1  0
 26 27  1  0
 27 28  2  0
 28 29  1  0
 29 30  2  0
 30 31  1  0
 31 32  1  0
 30 33  1  0
 33 34  2  0
 26 35  1  0
 35 36  2  0
 36 37  1  0
 37 38  2  0
 38 39  1  0
 39 40  1  0
 38 41  1  0
 41 42  2  0
 25 43  1  0
 43 44  1  0
 44 45  1  0
 45 46  2  0
 46 47  1  0
 47 48  1  0
 48 49  2  0
 49 50  1  0
 50 51  2  0
 51 52  1  0
 52 53  1  0
 51 54  1  0
 54 55  2  0
 47 56  1  0
 56 57  2  0
 57 58  1  0
 58 59  2  0
 59 60  1  0
 60 61  1  0
 59 62  1  0
 62 63  2  0
 46 64  1  0
 64 65  1  0
 45 66  1  0
 66 67  2  0
 67 68  1  0
 68 69  2  0
 69 70  1  0
 70 71  2  0
 71 72  1  0
 72 73  2  0
 73 74  1  0
 74 75  1  0
 75 76  1  0
 73 77  1  0
 77 78  1  0
 78 79  1  0
 78 80  1  0
 78 81  1  0
 77 82  2  0
 69 83  1  0
 83 84  2  0
 84 85  1  0
 85 86  1  0
 86 87  2  0
 87 88  1  0
 88 89  2  0
 89 90  1  0
 90 91  1  0
 91 92  1  0
 89 93  1  0
 93 94  2  0
 93 95  1  0
 95 96  1  0
 95 97  1  0
 95 98  1  0
 85 99  2  0
 99100  1  0
 84101  1  0
101102  2  0
102103  1  0
102104  1  0
104105  2  0
105106  1  0
105107  1  0
107108  1  0
107109  2  0
109110  1  0
110111  1  0
111112  2  0
112113  1  0
113114  1  0
109115  1  0
115116  2  3
116117  1  0
117118  2  0
117119  1  0
119120  2  0
120121  1  0
121122  2  0
122123  1  0
123124  2  0
124125  1  0
125126  2  3
126127  1  0
127128  3  0
126129  1  0
129130  3  0
122131  1  0
131132  1  0
132133  1  0
133134  2  0
134135  1  0
135136  1  0
135137  1  0
 11  2  1  0
 23 17  1  0
 65 24  1  0
100 66  1  0
111104  1  0
125116  1  0
137131  1  0
 10  5  1  0
 22 18  1  0
 34 27  1  0
 42 35  1  0
 64 43  2  0
 99 68  1  0
114110  2  0
124119  1  0
136132  1  0
 23  7  1  0
 55 48  1  0
 63 56  1  0
 82 70  1  0
103 83  1  0
137121  1  0
 94 86  1  0
  1138  1  0
  6139  1  0
  9140  1  0
 17141  1  0
 18142  1  0
 19143  1  0
 20144  1  0
 21145  1  0
 22146  1  0
 22147  1  0
 23148  1  0
 28149  1  0
 29150  1  0
 32151  1  0
 32152  1  0
 32153  1  0
 33154  1  0
 34155  1  0
 36156  1  0
 37157  1  0
 40158  1  0
 40159  1  0
 40160  1  0
 41161  1  0
 42162  1  0
 49163  1  0
 50164  1  0
 53165  1  0
 53166  1  0
 53167  1  0
 54168  1  0
 55169  1  0
 57170  1  0
 58171  1  0
 61172  1  0
 61173  1  0
 61174  1  0
 62175  1  0
 63176  1  0
 67177  1  0
 71178  1  0
 72179  1  0
 75180  1  0
 75181  1  0
 76182  1  0
 76183  1  0
 76184  1  0
 82185  1  0
 87186  1  0
 88187  1  0
 91188  1  0
 91189  1  0
 92190  1  0
 92191  1  0
 92192  1  0
 94193  1  0
101194  1  0
115195  1  0
120196  1  0
123197  1  0
131198  1  0
132199  1  0
133200  1  0
134201  1  0
135202  1  0
136203  1  0
136204  1  0
137205  1  0
M  END

