
     RDKit          3D

217239  0  0  0  0  0  0  0  0999 V2000
   -2.4781    0.8857   -7.2701 C   0  0  0  0  0  0  0  0  0  0  0  0
   -1.7188    1.7540   -7.9686 C   0  0  0  0  0  0  0  0  0  0  0  0
   -1.7854    3.2055   -7.7768 C   0  0  0  0  0  0  0  0  0  0  0  0
   -2.8440    3.8749   -7.6431 O   0  0  0  0  0  0  0  0  0  0  0  0
   -0.4462    3.7526   -7.7474 C   0  0  0  0  0  0  0  0  0  0  0  0
   -0.0714    5.0721   -7.3947 C   0  0  0  0  0  0  0  0  0  0  0  0
    1.2937    5.2570   -7.3012 C   0  0  0  0  0  0  0  0  0  0  0  0
    2.2431    4.2112   -7.5377 C   0  0  0  0  0  0  0  0  0  0  0  0
    1.8803    2.9175   -7.8828 C   0  0  0  0  0  0  0  0  0  0  0  0
    0.4781    2.7100   -8.0023 C   0  0  0  0  0  0  0  0  0  0  0  0
   -0.2844    1.4595   -8.2836 C   0  0  0  0  0  0  0  0  0  0  0  0
    0.2025    0.3030   -8.8041 C   0  0  0  0  0  0  0  0  0  0  0  0
   -0.6631   -0.7814   -9.1988 C   0  0  0  0  0  0  0  0  0  0  0  0
   -1.3498   -1.6567   -9.5156 N   0  0  0  0  0  0  0  0  0  0  0  0
    1.5992    0.1051   -9.0984 C   0  0  0  0  0  0  0  0  0  0  0  0
    2.7141   -0.0708   -9.3473 N   0  0  0  0  0  0  0  0  0  0  0  0
    3.3746    5.1453   -7.2311 C   0  0  0  0  0  0  0  0  0  0  0  0
    4.2009    5.6648   -8.4479 C   0  0  0  0  0  0  0  0  0  0  0  0
    4.9841    6.8513   -7.9413 C   0  0  0  0  0  0  0  0  0  0  0  0
    4.0945    7.8280   -7.7244 C   0  0  0  0  0  0  0  0  0  0  0  0
    2.7430    7.2677   -8.0936 C   0  0  0  0  0  0  0  0  0  0  0  0
    3.1598    6.4070   -9.2724 C   0  0  0  0  0  0  0  0  0  0  0  0
    2.4031    6.2178   -6.9945 C   0  0  0  0  0  0  0  0  0  0  0  0
   -2.6393    1.0224   -5.8029 C   0  0  0  0  0  0  0  0  0  0  0  0
   -2.3234   -0.0149   -4.9107 C   0  0  0  0  0  0  0  0  0  0  0  0
   -2.2324   -1.4004   -5.2721 N   0  0  0  0  0  0  0  0  0  0  0  0
   -0.9930   -2.0061   -5.7163 C   0  0  0  0  0  0  0  0  0  0  0  0
    0.2187   -1.2812   -5.6828 C   0  0  0  0  0  0  0  0  0  0  0  0
    1.4101   -1.8693   -6.1111 C   0  0  0  0  0  0  0  0  0  0  0  0
    1.4261   -3.1919   -6.5595 C   0  0  0  0  0  0  0  0  0  0  0  0
    2.9642   -3.9420   -7.0933 S   0  0  0  0  0  0  0  0  0  0  0  0
    3.3550   -4.6032   -5.4424 C   0  0  0  0  0  0  0  0  0  0  0  0
    0.2331   -3.9221   -6.6051 C   0  0  0  0  0  0  0  0  0  0  0  0
   -0.9636   -3.3376   -6.1846 C   0  0  0  0  0  0  0  0  0  0  0  0
   -3.4404   -2.1628   -5.1360 C   0  0  0  0  0  0  0  0  0  0  0  0
   -4.3169   -2.2920   -6.2229 C   0  0  0  0  0  0  0  0  0  0  0  0
   -5.5370   -2.9510   -6.0663 C   0  0  0  0  0  0  0  0  0  0  0  0
   -5.8791   -3.5085   -4.8264 C   0  0  0  0  0  0  0  0  0  0  0  0
   -7.4575   -4.3346   -4.6257 S   0  0  0  0  0  0  0  0  0  0  0  0
   -6.8523   -5.9271   -5.2612 C   0  0  0  0  0  0  0  0  0  0  0  0
   -4.9992   -3.3940   -3.7427 C   0  0  0  0  0  0  0  0  0  0  0  0
   -3.7822   -2.7192   -3.8949 C   0  0  0  0  0  0  0  0  0  0  0  0
   -2.0955    0.4582   -3.6246 C   0  0  0  0  0  0  0  0  0  0  0  0
   -1.2900   -0.1685   -2.3030 S   0  0  0  0  0  0  0  0  0  0  0  0
   -1.2233    1.3181   -1.4627 C   0  0  0  0  0  0  0  0  0  0  0  0
   -1.8514    2.3064   -2.2412 C   0  0  0  0  0  0  0  0  0  0  0  0
   -2.1758    3.6369   -1.8018 N   0  0  0  0  0  0  0  0  0  0  0  0
   -3.5642    4.0599   -1.8310 C   0  0  0  0  0  0  0  0  0  0  0  0
   -3.9171    5.4100   -2.0379 C   0  0  0  0  0  0  0  0  0  0  0  0
   -5.2593    5.8070   -2.0208 C   0  0  0  0  0  0  0  0  0  0  0  0
   -6.2709    4.8644   -1.8069 C   0  0  0  0  0  0  0  0  0  0  0  0
   -7.9853    5.3795   -1.7399 S   0  0  0  0  0  0  0  0  0  0  0  0
   -7.9954    5.5115    0.0791 C   0  0  0  0  0  0  0  0  0  0  0  0
   -5.9394    3.5146   -1.6573 C   0  0  0  0  0  0  0  0  0  0  0  0
   -4.6023    3.1164   -1.6691 C   0  0  0  0  0  0  0  0  0  0  0  0
   -1.1230    4.5212   -1.3577 C   0  0  0  0  0  0  0  0  0  0  0  0
   -1.3266    5.3695   -0.2557 C   0  0  0  0  0  0  0  0  0  0  0  0
   -0.3200    6.2440    0.1584 C   0  0  0  0  0  0  0  0  0  0  0  0
    0.9021    6.2819   -0.5214 C   0  0  0  0  0  0  0  0  0  0  0  0
    2.1911    7.4089    0.0150 S   0  0  0  0  0  0  0  0  0  0  0  0
    1.6053    8.7774   -1.0338 C   0  0  0  0  0  0  0  0  0  0  0  0
    1.1202    5.4289   -1.6089 C   0  0  0  0  0  0  0  0  0  0  0  0
    0.1113    4.5527   -2.0264 C   0  0  0  0  0  0  0  0  0  0  0  0
   -2.2967    1.7841   -3.4506 C   0  0  0  0  0  0  0  0  0  0  0  0
   -2.7143    2.4881   -4.9122 S   0  0  0  0  0  0  0  0  0  0  0  0
   -0.2999    1.5092   -0.3353 C   0  0  0  0  0  0  0  0  0  0  0  0
   -0.6542    1.3057    1.0095 C   0  0  0  0  0  0  0  0  0  0  0  0
   -1.8959    1.7092    1.6111 N   0  0  0  0  0  0  0  0  0  0  0  0
   -3.1483    1.1121    1.2055 C   0  0  0  0  0  0  0  0  0  0  0  0
   -3.2043   -0.2322    0.7957 C   0  0  0  0  0  0  0  0  0  0  0  0
   -4.4284   -0.8243    0.4781 C   0  0  0  0  0  0  0  0  0  0  0  0
   -5.6109   -0.0817    0.5645 C   0  0  0  0  0  0  0  0  0  0  0  0
   -7.1878   -0.8494    0.2001 S   0  0  0  0  0  0  0  0  0  0  0  0
   -7.5097   -1.2589    1.9433 C   0  0  0  0  0  0  0  0  0  0  0  0
   -5.5657    1.2590    0.9571 C   0  0  0  0  0  0  0  0  0  0  0  0
   -4.3430    1.8543    1.2718 C   0  0  0  0  0  0  0  0  0  0  0  0
   -1.8391    2.6439    2.7150 C   0  0  0  0  0  0  0  0  0  0  0  0
   -2.6396    2.4648    3.8593 C   0  0  0  0  0  0  0  0  0  0  0  0
   -2.5615    3.3658    4.9262 C   0  0  0  0  0  0  0  0  0  0  0  0
   -1.6816    4.4510    4.8663 C   0  0  0  0  0  0  0  0  0  0  0  0
   -1.5803    5.6049    6.2347 S   0  0  0  0  0  0  0  0  0  0  0  0
   -0.2322    4.6941    7.0482 C   0  0  0  0  0  0  0  0  0  0  0  0
   -0.8771    4.6346    3.7380 C   0  0  0  0  0  0  0  0  0  0  0  0
   -0.9434    3.7299    2.6767 C   0  0  0  0  0  0  0  0  0  0  0  0
    0.3992    0.7683    1.7457 C   0  0  0  0  0  0  0  0  0  0  0  0
    0.4406   -0.0428    3.2098 S   0  0  0  0  0  0  0  0  0  0  0  0
    1.9996   -0.6913    2.9635 C   0  0  0  0  0  0  0  0  0  0  0  0
    2.5071   -0.2256    1.7288 C   0  0  0  0  0  0  0  0  0  0  0  0
    3.8645   -0.4348    1.2748 N   0  0  0  0  0  0  0  0  0  0  0  0
    4.9431   -0.3463    2.2335 C   0  0  0  0  0  0  0  0  0  0  0  0
    5.9829   -1.2934    2.2270 C   0  0  0  0  0  0  0  0  0  0  0  0
    6.9968   -1.2367    3.1873 C   0  0  0  0  0  0  0  0  0  0  0  0
    6.9938   -0.2232    4.1528 C   0  0  0  0  0  0  0  0  0  0  0  0
    8.2812   -0.1729    5.4016 S   0  0  0  0  0  0  0  0  0  0  0  0
    9.3750    0.8865    4.4049 C   0  0  0  0  0  0  0  0  0  0  0  0
    5.9751    0.7360    4.1535 C   0  0  0  0  0  0  0  0  0  0  0  0
    4.9545    0.6764    3.1983 C   0  0  0  0  0  0  0  0  0  0  0  0
    4.1636   -0.6500   -0.1205 C   0  0  0  0  0  0  0  0  0  0  0  0
    3.3375   -1.4648   -0.9167 C   0  0  0  0  0  0  0  0  0  0  0  0
    3.6055   -1.6227   -2.2814 C   0  0  0  0  0  0  0  0  0  0  0  0
    4.7231   -1.0084   -2.8531 C   0  0  0  0  0  0  0  0  0  0  0  0
    5.0524   -1.1784   -4.6096 S   0  0  0  0  0  0  0  0  0  0  0  0
    4.2394    0.3963   -5.0292 C   0  0  0  0  0  0  0  0  0  0  0  0
    5.5791   -0.2363   -2.0587 C   0  0  0  0  0  0  0  0  0  0  0  0
    5.2957   -0.0497   -0.7044 C   0  0  0  0  0  0  0  0  0  0  0  0
    1.5582    0.5664    1.0726 C   0  0  0  0  0  0  0  0  0  0  0  0
    1.3387    1.0619   -0.5136 S   0  0  0  0  0  0  0  0  0  0  0  0
    2.4944   -1.8454    3.7420 C   0  0  0  0  0  0  0  0  0  0  0  0
    3.1841   -2.9017    3.1179 C   0  0  0  0  0  0  0  0  0  0  0  0
    3.4586   -4.0617    3.8382 C   0  0  0  0  0  0  0  0  0  0  0  0
    2.9828   -4.2067    5.1440 C   0  0  0  0  0  0  0  0  0  0  0  0
    2.3470   -3.1140    5.7543 C   0  0  0  0  0  0  0  0  0  0  0  0
    2.0985   -1.9849    5.0370 N   0  0  0  0  0  0  0  0  0  0  0  0
    3.1578   -5.4975    5.8346 C   0  0  0  0  0  0  0  0  0  0  0  0
    2.2103   -6.1247    6.5564 C   0  0  0  0  0  0  0  0  0  0  0  0
    2.5306   -7.1903    7.5050 C   0  0  0  0  0  0  0  0  0  0  0  0
    3.6176   -7.8279    7.5584 O   0  0  0  0  0  0  0  0  0  0  0  0
    1.4223   -7.3412    8.4246 C   0  0  0  0  0  0  0  0  0  0  0  0
    1.3450   -8.2058    9.5422 C   0  0  0  0  0  0  0  0  0  0  0  0
    0.1733   -8.0759   10.2664 C   0  0  0  0  0  0  0  0  0  0  0  0
   -0.8580   -7.1430    9.9225 C   0  0  0  0  0  0  0  0  0  0  0  0
   -0.7868   -6.2934    8.8317 C   0  0  0  0  0  0  0  0  0  0  0  0
    0.3965   -6.4303    8.0548 C   0  0  0  0  0  0  0  0  0  0  0  0
    0.7784   -5.7580    6.7804 C   0  0  0  0  0  0  0  0  0  0  0  0
   -0.0932   -5.3022    5.8418 C   0  0  0  0  0  0  0  0  0  0  0  0
   -1.4874   -5.0626    6.1204 C   0  0  0  0  0  0  0  0  0  0  0  0
   -2.6120   -4.8769    6.3177 N   0  0  0  0  0  0  0  0  0  0  0  0
    0.2603   -5.2100    4.4468 C   0  0  0  0  0  0  0  0  0  0  0  0
    0.5197   -5.1368    3.3195 N   0  0  0  0  0  0  0  0  0  0  0  0
   -1.6868   -7.6041   11.0819 C   0  0  0  0  0  0  0  0  0  0  0  0
   -2.9059   -8.5113   10.7440 C   0  0  0  0  0  0  0  0  0  0  0  0
   -3.3217   -9.1478   12.0505 C   0  0  0  0  0  0  0  0  0  0  0  0
   -2.3605  -10.0169   12.3726 C   0  0  0  0  0  0  0  0  0  0  0  0
   -1.3278   -9.9455   11.2699 C   0  0  0  0  0  0  0  0  0  0  0  0
   -2.2632   -9.7230   10.0926 C   0  0  0  0  0  0  0  0  0  0  0  0
   -0.6323   -8.5615   11.4343 C   0  0  0  0  0  0  0  0  0  0  0  0
   -2.4624   -0.1420   -7.5795 H   0  0  0  0  0  0  0  0  0  0  0  0
   -0.7822    5.8604   -7.1835 H   0  0  0  0  0  0  0  0  0  0  0  0
    2.6277    2.1496   -7.9880 H   0  0  0  0  0  0  0  0  0  0  0  0
    3.9708    4.8498   -6.3408 H   0  0  0  0  0  0  0  0  0  0  0  0
    4.7985    4.8979   -8.9842 H   0  0  0  0  0  0  0  0  0  0  0  0
    6.0609    6.9457   -7.8708 H   0  0  0  0  0  0  0  0  0  0  0  0
    4.3271    8.8474   -7.4387 H   0  0  0  0  0  0  0  0  0  0  0  0
    1.9590    8.0262   -8.2942 H   0  0  0  0  0  0  0  0  0  0  0  0
    3.6022    6.9954  -10.1134 H   0  0  0  0  0  0  0  0  0  0  0  0
    2.3506    5.7595   -9.6756 H   0  0  0  0  0  0  0  0  0  0  0  0
    2.3795    6.5997   -5.9471 H   0  0  0  0  0  0  0  0  0  0  0  0
    0.2477   -0.2548   -5.3388 H   0  0  0  0  0  0  0  0  0  0  0  0
    2.3237   -1.2972   -6.0979 H   0  0  0  0  0  0  0  0  0  0  0  0
    3.3518   -3.7913   -4.6888 H   0  0  0  0  0  0  0  0  0  0  0  0
    4.3656   -5.0606   -5.4579 H   0  0  0  0  0  0  0  0  0  0  0  0
    2.6152   -5.3799   -5.1560 H   0  0  0  0  0  0  0  0  0  0  0  0
    0.2339   -4.9447   -6.9601 H   0  0  0  0  0  0  0  0  0  0  0  0
   -1.8677   -3.9295   -6.2327 H   0  0  0  0  0  0  0  0  0  0  0  0
   -4.0646   -1.8638   -7.1848 H   0  0  0  0  0  0  0  0  0  0  0  0
   -6.2124   -3.0323   -6.9070 H   0  0  0  0  0  0  0  0  0  0  0  0
   -6.4738   -5.8058   -6.2974 H   0  0  0  0  0  0  0  0  0  0  0  0
   -6.0427   -6.3155   -4.6085 H   0  0  0  0  0  0  0  0  0  0  0  0
   -7.6897   -6.6557   -5.2712 H   0  0  0  0  0  0  0  0  0  0  0  0
   -5.2609   -3.8111   -2.7803 H   0  0  0  0  0  0  0  0  0  0  0  0
   -3.1176   -2.6145   -3.0499 H   0  0  0  0  0  0  0  0  0  0  0  0
   -3.1550    6.1579   -2.2216 H   0  0  0  0  0  0  0  0  0  0  0  0
   -5.5140    6.8478   -2.1668 H   0  0  0  0  0  0  0  0  0  0  0  0
   -7.8447    4.5075    0.5296 H   0  0  0  0  0  0  0  0  0  0  0  0
   -7.1876    6.1947    0.4171 H   0  0  0  0  0  0  0  0  0  0  0  0
   -8.9719    5.9170    0.4134 H   0  0  0  0  0  0  0  0  0  0  0  0
   -6.7188    2.7777   -1.5107 H   0  0  0  0  0  0  0  0  0  0  0  0
   -4.3787    2.0655   -1.5347 H   0  0  0  0  0  0  0  0  0  0  0  0
   -2.2623    5.3426    0.2920 H   0  0  0  0  0  0  0  0  0  0  0  0
   -0.4927    6.8947    1.0076 H   0  0  0  0  0  0  0  0  0  0  0  0
    2.2219    9.6782   -0.8358 H   0  0  0  0  0  0  0  0  0  0  0  0
    1.7020    8.5017   -2.1038 H   0  0  0  0  0  0  0  0  0  0  0  0
    0.5452    9.0138   -0.7990 H   0  0  0  0  0  0  0  0  0  0  0  0
    2.0638    5.4537   -2.1399 H   0  0  0  0  0  0  0  0  0  0  0  0
    0.2931    3.9121   -2.8823 H   0  0  0  0  0  0  0  0  0  0  0  0
   -2.3020   -0.8328    0.7541 H   0  0  0  0  0  0  0  0  0  0  0  0
   -4.4625   -1.8676    0.1841 H   0  0  0  0  0  0  0  0  0  0  0  0
   -7.5534   -0.3301    2.5526 H   0  0  0  0  0  0  0  0  0  0  0  0
   -6.7082   -1.9220    2.3342 H   0  0  0  0  0  0  0  0  0  0  0  0
   -8.4867   -1.7831    2.0250 H   0  0  0  0  0  0  0  0  0  0  0  0
   -6.4749    1.8417    1.0255 H   0  0  0  0  0  0  0  0  0  0  0  0
   -4.3278    2.8965    1.5621 H   0  0  0  0  0  0  0  0  0  0  0  0
   -3.3093    1.6164    3.9326 H   0  0  0  0  0  0  0  0  0  0  0  0
   -3.1814    3.2131    5.7987 H   0  0  0  0  0  0  0  0  0  0  0  0
    0.6480    4.6309    6.3728 H   0  0  0  0  0  0  0  0  0  0  0  0
    0.0623    5.2297    7.9751 H   0  0  0  0  0  0  0  0  0  0  0  0
   -0.5700    3.6712    7.3166 H   0  0  0  0  0  0  0  0  0  0  0  0
   -0.1930    5.4730    3.6862 H   0  0  0  0  0  0  0  0  0  0  0  0
   -0.2961    3.8763    1.8222 H   0  0  0  0  0  0  0  0  0  0  0  0
    5.9857   -2.0948    1.5008 H   0  0  0  0  0  0  0  0  0  0  0  0
    7.7765   -1.9874    3.1851 H   0  0  0  0  0  0  0  0  0  0  0  0
   10.3061    1.0899    4.9755 H   0  0  0  0  0  0  0  0  0  0  0  0
    9.6387    0.3774    3.4536 H   0  0  0  0  0  0  0  0  0  0  0  0
    8.8724    1.8537    4.1871 H   0  0  0  0  0  0  0  0  0  0  0  0
    5.9693    1.5290    4.8931 H   0  0  0  0  0  0  0  0  0  0  0  0
    4.1727    1.4269    3.2115 H   0  0  0  0  0  0  0  0  0  0  0  0
    2.4712   -1.9501   -0.4870 H   0  0  0  0  0  0  0  0  0  0  0  0
    2.9390   -2.2211   -2.8868 H   0  0  0  0  0  0  0  0  0  0  0  0
    4.1782    0.4880   -6.1325 H   0  0  0  0  0  0  0  0  0  0  0  0
    3.2134    0.4262   -4.6054 H   0  0  0  0  0  0  0  0  0  0  0  0
    4.8314    1.2456   -4.6313 H   0  0  0  0  0  0  0  0  0  0  0  0
    6.4486    0.2365   -2.4961 H   0  0  0  0  0  0  0  0  0  0  0  0
    5.9488    0.5861   -0.1186 H   0  0  0  0  0  0  0  0  0  0  0  0
    3.4510   -2.8660    2.0724 H   0  0  0  0  0  0  0  0  0  0  0  0
    3.9701   -4.8823    3.3475 H   0  0  0  0  0  0  0  0  0  0  0  0
    2.0032   -3.1772    6.7796 H   0  0  0  0  0  0  0  0  0  0  0  0
    4.1425   -5.9473    5.7670 H   0  0  0  0  0  0  0  0  0  0  0  0
    2.1258   -8.9029    9.8089 H   0  0  0  0  0  0  0  0  0  0  0  0
   -1.5794   -5.5947    8.6254 H   0  0  0  0  0  0  0  0  0  0  0  0
   -1.8719   -6.8146   11.8451 H   0  0  0  0  0  0  0  0  0  0  0  0
   -3.7260   -8.0307   10.1698 H   0  0  0  0  0  0  0  0  0  0  0  0
   -4.2548   -9.0054   12.5822 H   0  0  0  0  0  0  0  0  0  0  0  0
   -2.3771  -10.7031   13.2115 H   0  0  0  0  0  0  0  0  0  0  0  0
   -0.6528  -10.8207   11.1981 H   0  0  0  0  0  0  0  0  0  0  0  0
   -1.7466   -9.5022    9.1298 H   0  0  0  0  0  0  0  0  0  0  0  0
   -2.9743  -10.5658    9.9253 H   0  0  0  0  0  0  0  0  0  0  0  0
   -0.1506   -8.3762   12.4195 H   0  0  0  0  0  0  0  0  0  0  0  0
  1  2  2  3
  2  3  1  0
  3  4  2  0
  3  5  1  0
  5  6  2  0
  6  7  1  0
  7  8  2  0
  8  9  1  0
  9 10  2  0
 10 11  1  0
 11 12  2  3
 12 13  1  0
 13 14  3  0
 12 15  1  0
 15 16  3  0
  8 17  1  0
 17 18  1  0
 18 19  1  0
 19 20  2  0
 20 21  1  0
 21 22  1  0
 21 23  1  0
  1 24  1  0
 24 25  2  0
 25 26  1  0
 26 27  1  0
 27 28  2  0
 28 29  1  0
 29 30  2  0
 30 31  1  0
 31 32  1  0
 30 33  1  0
 33 34  2  0
 26 35  1  0
 35 36  2  0
 36 37  1  0
 37 38  2  0
 38 39  1  0
 39 40  1  0
 38 41  1  0
 41 42  2  0
 25 43  1  0
 43 44  1  0
 44 45  1  0
 45 46  2  0
 46 47  1  0
 47 48  1  0
 48 49  2  0
 49 50  1  0
 50 51  2  0
 51 52  1  0
 52 53  1  0
 51 54  1  0
 54 55  2  0
 47 56  1  0
 56 57  2  0
 57 58  1  0
 58 59  2  0
 59 60  1  0
 60 61  1  0
 59 62  1  0
 62 63  2  0
 46 64  1  0
 64 65  1  0
 45 66  1  0
 66 67  2  0
 67 68  1  0
 68 69  1  0
 69 70  2  0
 70 71  1  0
 71 72  2  0
 72 73  1  0
 73 74  1  0
 72 75  1  0
 75 76  2  0
 68 77  1  0
 77 78  2  0
 78 79  1  0
 79 80  2  0
 80 81  1  0
 81 82  1  0
 80 83  1  0
 83 84  2  0
 67 85  1  0
 85 86  1  0
 86 87  1  0
 87 88  2  0
 88 89  1  0
 89 90  1  0
 90 91  2  0
 91 92  1  0
 92 93  2  0
 93 94  1  0
 94 95  1  0
 93 96  1  0
 96 97  2  0
 89 98  1  0
 98 99  2  0
 99100  1  0
100101  2  0
101102  1  0
102103  1  0
101104  1  0
104105  2  0
 88106  1  0
106107  1  0
 87108  1  0
108109  2  0
109110  1  0
110111  2  0
111112  1  0
112113  2  0
111114  1  0
114115  2  3
115116  1  0
116117  2  0
116118  1  0
118119  2  0
119120  1  0
120121  2  0
121122  1  0
122123  2  0
123124  1  0
124125  2  3
125126  1  0
126127  3  0
125128  1  0
128129  3  0
121130  1  0
130131  1  0
131132  1  0
132133  2  0
133134  1  0
134135  1  0
134136  1  0
 11  2  1  0
 23 17  1  0
 65 24  1  0
107 66  1  0
113108  1  0
124115  1  0
136130  1  0
 10  5  1  0
 22 18  1  0
 34 27  1  0
 42 35  1  0
 64 43  2  0
 76 69  1  0
 84 77  1  0
106 85  2  0
123118  1  0
135131  1  0
 23  7  1  0
 55 48  1  0
 63 56  1  0
 97 90  1  0
105 98  1  0
136120  1  0
  1137  1  0
  6138  1  0
  9139  1  0
 17140  1  0
 18141  1  0
 19142  1  0
 20143  1  0
 21144  1  0
 22145  1  0
 22146  1  0
 23147  1  0
 28148  1  0
 29149  1  0
 32150  1  0
 32151  1  0
 32152  1  0
 33153  1  0
 34154  1  0
 36155  1  0
 37156  1  0
 40157  1  0
 40158  1  0
 40159  1  0
 41160  1  0
 42161  1  0
 49162  1  0
 50163  1  0
 53164  1  0
 53165  1  0
 53166  1  0
 54167  1  0
 55168  1  0
 57169  1  0
 58170  1  0
 61171  1  0
 61172  1  0
 61173  1  0
 62174  1  0
 63175  1  0
 70176  1  0
 71177  1  0
 74178  1  0
 74179  1  0
 74180  1  0
 75181  1  0
 76182  1  0
 78183  1  0
 79184  1  0
 82185  1  0
 82186  1  0
 82187  1  0
 83188  1  0
 84189  1  0
 91190  1  0
 92191  1  0
 95192  1  0
 95193  1  0
 95194  1  0
 96195  1  0
 97196  1  0
 99197  1  0
100198  1  0
103199  1  0
103200  1  0
103201  1  0
104202  1  0
105203  1  0
109204  1  0
110205  1  0
112206  1  0
114207  1  0
119208  1  0
122209  1  0
130210  1  0
131211  1  0
132212  1  0
133213  1  0
134214  1  0
135215  1  0
135216  1  0
136217  1  0
M  END

