
     RDKit          3D

207229  0  0  0  0  0  0  0  0999 V2000
    0.2891    3.2778    7.5713 C   0  0  0  0  0  0  0  0  0  0  0  0
   -0.8860    3.8878    7.3060 C   0  0  0  0  0  0  0  0  0  0  0  0
   -1.7179    3.6638    6.1157 C   0  0  0  0  0  0  0  0  0  0  0  0
   -1.6834    2.6749    5.3350 O   0  0  0  0  0  0  0  0  0  0  0  0
   -2.5799    4.8003    5.9234 C   0  0  0  0  0  0  0  0  0  0  0  0
   -3.4500    5.0212    4.8345 C   0  0  0  0  0  0  0  0  0  0  0  0
   -4.0578    6.2571    4.8460 C   0  0  0  0  0  0  0  0  0  0  0  0
   -3.8192    7.2399    5.8604 C   0  0  0  0  0  0  0  0  0  0  0  0
   -2.9706    7.0257    6.9334 C   0  0  0  0  0  0  0  0  0  0  0  0
   -2.3536    5.7413    6.9581 C   0  0  0  0  0  0  0  0  0  0  0  0
   -1.3779    5.1606    7.9250 C   0  0  0  0  0  0  0  0  0  0  0  0
   -1.1399    5.5868    9.1941 C   0  0  0  0  0  0  0  0  0  0  0  0
   -0.3905    4.7969   10.1365 C   0  0  0  0  0  0  0  0  0  0  0  0
    0.2122    4.1653   10.8940 N   0  0  0  0  0  0  0  0  0  0  0  0
   -1.7233    6.7833    9.7408 C   0  0  0  0  0  0  0  0  0  0  0  0
   -2.1783    7.7457   10.1981 N   0  0  0  0  0  0  0  0  0  0  0  0
   -4.7490    8.1999    5.1685 C   0  0  0  0  0  0  0  0  0  0  0  0
   -6.1579    8.4351    5.7921 C   0  0  0  0  0  0  0  0  0  0  0  0
   -6.6001    7.1970    6.5394 C   0  0  0  0  0  0  0  0  0  0  0  0
   -6.8204    6.2539    5.6201 C   0  0  0  0  0  0  0  0  0  0  0  0
   -6.5253    6.8875    4.2784 C   0  0  0  0  0  0  0  0  0  0  0  0
   -7.0270    8.2907    4.5549 C   0  0  0  0  0  0  0  0  0  0  0  0
   -5.0010    7.1806    4.1414 C   0  0  0  0  0  0  0  0  0  0  0  0
    0.8734    2.2179    6.7286 C   0  0  0  0  0  0  0  0  0  0  0  0
    0.2755    1.0117    6.3623 C   0  0  0  0  0  0  0  0  0  0  0  0
    0.9930    0.3338    5.3621 C   0  0  0  0  0  0  0  0  0  0  0  0
    0.6148   -0.8612    4.7022 C   0  0  0  0  0  0  0  0  0  0  0  0
   -0.5488   -1.6606    5.1361 C   0  0  0  0  0  0  0  0  0  0  0  0
   -1.8471   -1.1254    5.1159 C   0  0  0  0  0  0  0  0  0  0  0  0
   -2.9255   -1.8604    5.6209 C   0  0  0  0  0  0  0  0  0  0  0  0
   -4.1708   -1.3120    5.6092 F   0  0  0  0  0  0  0  0  0  0  0  0
   -2.7152   -3.1421    6.1646 C   0  0  0  0  0  0  0  0  0  0  0  0
   -3.8658   -3.9231    6.7559 C   0  0  0  0  0  0  0  0  0  0  0  0
   -4.5600   -4.7674    5.6894 C   0  0  0  0  0  0  0  0  0  0  0  0
   -1.4191   -3.6937    6.1371 C   0  0  0  0  0  0  0  0  0  0  0  0
   -1.1851   -4.9344    6.6317 F   0  0  0  0  0  0  0  0  0  0  0  0
   -0.3499   -2.9553    5.6319 C   0  0  0  0  0  0  0  0  0  0  0  0
    1.4623   -1.3127    3.6688 C   0  0  0  0  0  0  0  0  0  0  0  0
    2.6589   -0.6676    3.3483 C   0  0  0  0  0  0  0  0  0  0  0  0
    3.0670    0.4868    4.0454 C   0  0  0  0  0  0  0  0  0  0  0  0
    4.3756    1.1165    3.7894 C   0  0  0  0  0  0  0  0  0  0  0  0
    4.4564    2.4166    3.2749 C   0  0  0  0  0  0  0  0  0  0  0  0
    5.7008    3.0200    3.0831 C   0  0  0  0  0  0  0  0  0  0  0  0
    6.8824    2.3281    3.4035 C   0  0  0  0  0  0  0  0  0  0  0  0
    8.2152    3.0222    3.2951 C   0  0  0  0  0  0  0  0  0  0  0  0
    8.4716    3.8766    4.5313 C   0  0  0  0  0  0  0  0  0  0  0  0
    6.7995    1.0180    3.9084 C   0  0  0  0  0  0  0  0  0  0  0  0
    5.5515    0.4163    4.0921 C   0  0  0  0  0  0  0  0  0  0  0  0
    7.9174    0.3169    4.2354 F   0  0  0  0  0  0  0  0  0  0  0  0
    5.7489    4.2854    2.6050 F   0  0  0  0  0  0  0  0  0  0  0  0
    2.1888    0.9828    5.0213 C   0  0  0  0  0  0  0  0  0  0  0  0
    2.3388    2.3910    5.9189 S   0  0  0  0  0  0  0  0  0  0  0  0
    3.3186   -1.2324    2.2474 C   0  0  0  0  0  0  0  0  0  0  0  0
    2.6133   -2.2800    1.6619 C   0  0  0  0  0  0  0  0  0  0  0  0
    1.2034   -2.5658    2.5628 S   0  0  0  0  0  0  0  0  0  0  0  0
    2.9292   -2.8821    0.3513 C   0  0  0  0  0  0  0  0  0  0  0  0
    3.6943   -2.2664   -0.6620 C   0  0  0  0  0  0  0  0  0  0  0  0
    3.9648   -0.8527   -0.6769 N   0  0  0  0  0  0  0  0  0  0  0  0
    5.3280   -0.4087   -0.8295 C   0  0  0  0  0  0  0  0  0  0  0  0
    6.3624   -1.0455   -0.1152 C   0  0  0  0  0  0  0  0  0  0  0  0
    7.6875   -0.6288   -0.2683 C   0  0  0  0  0  0  0  0  0  0  0  0
    7.9976    0.4096   -1.1561 C   0  0  0  0  0  0  0  0  0  0  0  0
    9.7038    0.9364   -1.3575 S   0  0  0  0  0  0  0  0  0  0  0  0
    9.5532    2.2409   -0.0929 C   0  0  0  0  0  0  0  0  0  0  0  0
    6.9824    1.0082   -1.9086 C   0  0  0  0  0  0  0  0  0  0  0  0
    5.6533    0.6095   -1.7416 C   0  0  0  0  0  0  0  0  0  0  0  0
    2.8521    0.0751   -0.7788 C   0  0  0  0  0  0  0  0  0  0  0  0
    1.6847   -0.2655   -1.4941 C   0  0  0  0  0  0  0  0  0  0  0  0
    0.6278    0.6358   -1.6050 C   0  0  0  0  0  0  0  0  0  0  0  0
    0.6839    1.8652   -0.9429 C   0  0  0  0  0  0  0  0  0  0  0  0
   -0.7071    3.0035   -1.0470 S   0  0  0  0  0  0  0  0  0  0  0  0
   -1.6643    2.1445    0.2471 C   0  0  0  0  0  0  0  0  0  0  0  0
    1.8256    2.2039   -0.2085 C   0  0  0  0  0  0  0  0  0  0  0  0
    2.9059    1.3192   -0.1318 C   0  0  0  0  0  0  0  0  0  0  0  0
    3.6211   -2.9746   -1.8558 C   0  0  0  0  0  0  0  0  0  0  0  0
    3.8774   -2.4386   -3.4156 S   0  0  0  0  0  0  0  0  0  0  0  0
    2.7607   -3.4943   -4.1551 C   0  0  0  0  0  0  0  0  0  0  0  0
    2.2176   -4.3245   -3.1375 C   0  0  0  0  0  0  0  0  0  0  0  0
    1.3189   -5.4283   -3.3751 N   0  0  0  0  0  0  0  0  0  0  0  0
   -0.0958   -5.2578   -3.1602 C   0  0  0  0  0  0  0  0  0  0  0  0
   -0.6576   -5.5051   -1.8954 C   0  0  0  0  0  0  0  0  0  0  0  0
   -2.0468   -5.5146   -1.7228 C   0  0  0  0  0  0  0  0  0  0  0  0
   -2.8921   -5.3334   -2.8223 C   0  0  0  0  0  0  0  0  0  0  0  0
   -4.6665   -5.5036   -2.6325 S   0  0  0  0  0  0  0  0  0  0  0  0
   -4.9563   -3.7204   -2.4522 C   0  0  0  0  0  0  0  0  0  0  0  0
   -2.3446   -5.0963   -4.0879 C   0  0  0  0  0  0  0  0  0  0  0  0
   -0.9576   -5.0632   -4.2505 C   0  0  0  0  0  0  0  0  0  0  0  0
    1.8579   -6.7505   -3.6456 C   0  0  0  0  0  0  0  0  0  0  0  0
    1.0091   -7.8242   -3.9980 C   0  0  0  0  0  0  0  0  0  0  0  0
    1.5346   -9.0843   -4.2864 C   0  0  0  0  0  0  0  0  0  0  0  0
    2.9117   -9.3080   -4.2316 C   0  0  0  0  0  0  0  0  0  0  0  0
    3.5789  -10.9257   -4.5938 S   0  0  0  0  0  0  0  0  0  0  0  0
    3.5613  -11.4587   -2.8541 C   0  0  0  0  0  0  0  0  0  0  0  0
    3.7711   -8.2560   -3.8894 C   0  0  0  0  0  0  0  0  0  0  0  0
    3.2522   -6.9940   -3.5937 C   0  0  0  0  0  0  0  0  0  0  0  0
    2.7371   -4.0136   -1.8704 C   0  0  0  0  0  0  0  0  0  0  0  0
    2.1049   -4.2055   -0.3240 S   0  0  0  0  0  0  0  0  0  0  0  0
    2.0782   -3.1523   -5.4338 C   0  0  0  0  0  0  0  0  0  0  0  0
    1.6496   -1.8224   -5.6874 C   0  0  0  0  0  0  0  0  0  0  0  0
    2.0812   -0.7767   -4.9316 N   0  0  0  0  0  0  0  0  0  0  0  0
    1.6540    0.4971   -5.1391 C   0  0  0  0  0  0  0  0  0  0  0  0
    0.7012    0.7424   -6.1241 C   0  0  0  0  0  0  0  0  0  0  0  0
    0.2285    2.0449   -6.3035 O   0  0  0  0  0  0  0  0  0  0  0  0
   -1.1295    2.3700   -6.6220 C   0  0  0  0  0  0  0  0  0  0  0  0
   -1.4584    2.1196   -8.0960 C   0  0  0  0  0  0  0  0  0  0  0  0
    0.2540   -0.2911   -6.8821 N   0  0  0  0  0  0  0  0  0  0  0  0
    0.7129   -1.5637   -6.7076 C   0  0  0  0  0  0  0  0  0  0  0  0
    0.1663   -2.6263   -7.4376 C   0  0  0  0  0  0  0  0  0  0  0  0
    0.7507   -3.9006   -7.3355 C   0  0  0  0  0  0  0  0  0  0  0  0
    1.7094   -4.1573   -6.3431 C   0  0  0  0  0  0  0  0  0  0  0  0
    2.2031   -5.4154   -6.2136 F   0  0  0  0  0  0  0  0  0  0  0  0
    0.2943   -4.9249   -8.1015 F   0  0  0  0  0  0  0  0  0  0  0  0
   -1.1250   -2.4460   -8.1420 C   0  0  0  0  0  0  0  0  0  0  0  0
   -2.2192   -1.9735   -7.4992 C   0  0  0  0  0  0  0  0  0  0  0  0
   -2.3023   -1.7959   -6.0367 C   0  0  0  0  0  0  0  0  0  0  0  0
   -1.4961   -2.2423   -5.1764 O   0  0  0  0  0  0  0  0  0  0  0  0
   -3.5245   -1.1324   -5.7047 C   0  0  0  0  0  0  0  0  0  0  0  0
   -3.9491   -0.7906   -4.4029 C   0  0  0  0  0  0  0  0  0  0  0  0
   -5.2227   -0.2768   -4.3512 C   0  0  0  0  0  0  0  0  0  0  0  0
   -6.0347   -0.0772   -5.5109 C   0  0  0  0  0  0  0  0  0  0  0  0
   -5.6094   -0.3891   -6.7934 C   0  0  0  0  0  0  0  0  0  0  0  0
   -4.2913   -0.9382   -6.8760 C   0  0  0  0  0  0  0  0  0  0  0  0
   -3.5143   -1.4489   -8.0596 C   0  0  0  0  0  0  0  0  0  0  0  0
   -3.8843   -1.3729   -9.3682 C   0  0  0  0  0  0  0  0  0  0  0  0
   -5.1013   -0.7396   -9.8017 C   0  0  0  0  0  0  0  0  0  0  0  0
   -6.0775   -0.2420  -10.1756 N   0  0  0  0  0  0  0  0  0  0  0  0
   -3.1186   -1.9419  -10.4419 C   0  0  0  0  0  0  0  0  0  0  0  0
   -2.5305   -2.4044  -11.3256 N   0  0  0  0  0  0  0  0  0  0  0  0
   -7.1572    0.4392   -4.6539 C   0  0  0  0  0  0  0  0  0  0  0  0
   -7.3947    1.9792   -4.6447 C   0  0  0  0  0  0  0  0  0  0  0  0
   -8.2643    2.2582   -3.4399 C   0  0  0  0  0  0  0  0  0  0  0  0
   -7.4976    2.0566   -2.3609 C   0  0  0  0  0  0  0  0  0  0  0  0
   -6.1401    1.6469   -2.8747 C   0  0  0  0  0  0  0  0  0  0  0  0
   -6.0805    2.5279   -4.1109 C   0  0  0  0  0  0  0  0  0  0  0  0
   -6.3241    0.2197   -3.4670 C   0  0  0  0  0  0  0  0  0  0  0  0
    0.9583    3.7166    8.2944 H   0  0  0  0  0  0  0  0  0  0  0  0
   -3.6137    4.2981    4.0445 H   0  0  0  0  0  0  0  0  0  0  0  0
   -2.7933    7.8092    7.6519 H   0  0  0  0  0  0  0  0  0  0  0  0
   -4.2502    9.1126    4.7773 H   0  0  0  0  0  0  0  0  0  0  0  0
   -6.2748    9.3870    6.3522 H   0  0  0  0  0  0  0  0  0  0  0  0
   -6.7859    7.1042    7.6043 H   0  0  0  0  0  0  0  0  0  0  0  0
   -7.2179    5.2638    5.8121 H   0  0  0  0  0  0  0  0  0  0  0  0
   -6.9880    6.3774    3.4080 H   0  0  0  0  0  0  0  0  0  0  0  0
   -8.1208    8.3342    4.7691 H   0  0  0  0  0  0  0  0  0  0  0  0
   -6.7758    9.0149    3.7414 H   0  0  0  0  0  0  0  0  0  0  0  0
   -4.6686    7.4795    3.1196 H   0  0  0  0  0  0  0  0  0  0  0  0
   -0.6680    0.6717    6.7757 H   0  0  0  0  0  0  0  0  0  0  0  0
   -2.0252   -0.1343    4.7168 H   0  0  0  0  0  0  0  0  0  0  0  0
   -3.5023   -4.5892    7.5697 H   0  0  0  0  0  0  0  0  0  0  0  0
   -4.6022   -3.2248    7.2136 H   0  0  0  0  0  0  0  0  0  0  0  0
   -5.4360   -5.2764    6.1366 H   0  0  0  0  0  0  0  0  0  0  0  0
   -4.9000   -4.1243    4.8509 H   0  0  0  0  0  0  0  0  0  0  0  0
   -3.8603   -5.5368    5.3018 H   0  0  0  0  0  0  0  0  0  0  0  0
    0.6452   -3.3765    5.6597 H   0  0  0  0  0  0  0  0  0  0  0  0
    3.5503    2.9623    3.0295 H   0  0  0  0  0  0  0  0  0  0  0  0
    8.2286    3.6627    2.3878 H   0  0  0  0  0  0  0  0  0  0  0  0
    9.0352    2.2765    3.1878 H   0  0  0  0  0  0  0  0  0  0  0  0
    8.4498    3.2541    5.4482 H   0  0  0  0  0  0  0  0  0  0  0  0
    7.7111    4.6788    4.6169 H   0  0  0  0  0  0  0  0  0  0  0  0
    9.4721    4.3442    4.4418 H   0  0  0  0  0  0  0  0  0  0  0  0
    5.5008   -0.5903    4.4870 H   0  0  0  0  0  0  0  0  0  0  0  0
    4.2418   -0.8437    1.8643 H   0  0  0  0  0  0  0  0  0  0  0  0
    6.1354   -1.8377    0.5850 H   0  0  0  0  0  0  0  0  0  0  0  0
    8.4694   -1.1074    0.3144 H   0  0  0  0  0  0  0  0  0  0  0  0
   10.4815    2.8547   -0.0676 H   0  0  0  0  0  0  0  0  0  0  0  0
    8.6881    2.9027   -0.3103 H   0  0  0  0  0  0  0  0  0  0  0  0
    9.4194    1.7612    0.8977 H   0  0  0  0  0  0  0  0  0  0  0  0
    7.2177    1.8105   -2.6029 H   0  0  0  0  0  0  0  0  0  0  0  0
    4.8804    1.0674   -2.3415 H   0  0  0  0  0  0  0  0  0  0  0  0
    1.5945   -1.2146   -2.0024 H   0  0  0  0  0  0  0  0  0  0  0  0
   -0.2512    0.3598   -2.1723 H   0  0  0  0  0  0  0  0  0  0  0  0
   -2.6305    2.6629    0.3927 H   0  0  0  0  0  0  0  0  0  0  0  0
   -1.8679    1.0969   -0.0579 H   0  0  0  0  0  0  0  0  0  0  0  0
   -1.1054    2.1519    1.2057 H   0  0  0  0  0  0  0  0  0  0  0  0
    1.8734    3.1510    0.3249 H   0  0  0  0  0  0  0  0  0  0  0  0
    3.7832    1.5986    0.4465 H   0  0  0  0  0  0  0  0  0  0  0  0
   -0.0281   -5.7421   -1.0520 H   0  0  0  0  0  0  0  0  0  0  0  0
   -2.4622   -5.7144   -0.7384 H   0  0  0  0  0  0  0  0  0  0  0  0
   -4.4181   -3.3364   -1.5637 H   0  0  0  0  0  0  0  0  0  0  0  0
   -6.0460   -3.5443   -2.3165 H   0  0  0  0  0  0  0  0  0  0  0  0
   -4.6201   -3.2037   -3.3681 H   0  0  0  0  0  0  0  0  0  0  0  0
   -2.9883   -4.9740   -4.9549 H   0  0  0  0  0  0  0  0  0  0  0  0
   -0.5512   -4.9567   -5.2408 H   0  0  0  0  0  0  0  0  0  0  0  0
   -0.0623   -7.6926   -4.0633 H   0  0  0  0  0  0  0  0  0  0  0  0
    0.8654   -9.8898   -4.5623 H   0  0  0  0  0  0  0  0  0  0  0  0
    2.5226  -11.4572   -2.4625 H   0  0  0  0  0  0  0  0  0  0  0  0
    4.1955  -10.7804   -2.2458 H   0  0  0  0  0  0  0  0  0  0  0  0
    3.9758  -12.4898   -2.7878 H   0  0  0  0  0  0  0  0  0  0  0  0
    4.8400   -8.4235   -3.8543 H   0  0  0  0  0  0  0  0  0  0  0  0
    3.9481   -6.2120   -3.3427 H   0  0  0  0  0  0  0  0  0  0  0  0
    2.0119    1.3005   -4.5075 H   0  0  0  0  0  0  0  0  0  0  0  0
   -1.8337    1.8052   -5.9612 H   0  0  0  0  0  0  0  0  0  0  0  0
   -1.2539    3.4589   -6.4248 H   0  0  0  0  0  0  0  0  0  0  0  0
   -0.7058    2.6105   -8.7550 H   0  0  0  0  0  0  0  0  0  0  0  0
   -2.4608    2.5470   -8.3281 H   0  0  0  0  0  0  0  0  0  0  0  0
   -1.4842    1.0312   -8.3200 H   0  0  0  0  0  0  0  0  0  0  0  0
   -1.1248   -2.6731   -9.1870 H   0  0  0  0  0  0  0  0  0  0  0  0
   -3.3547   -0.9608   -3.5133 H   0  0  0  0  0  0  0  0  0  0  0  0
   -6.2690   -0.2468   -7.6262 H   0  0  0  0  0  0  0  0  0  0  0  0
   -8.0751   -0.1895   -4.7005 H   0  0  0  0  0  0  0  0  0  0  0  0
   -7.7532    2.4206   -5.6036 H   0  0  0  0  0  0  0  0  0  0  0  0
   -9.2808    2.6275   -3.4307 H   0  0  0  0  0  0  0  0  0  0  0  0
   -7.7828    2.2425   -1.3331 H   0  0  0  0  0  0  0  0  0  0  0  0
   -5.3039    1.7625   -2.1543 H   0  0  0  0  0  0  0  0  0  0  0  0
   -5.2043    2.3259   -4.7683 H   0  0  0  0  0  0  0  0  0  0  0  0
   -6.1171    3.6190   -3.8798 H   0  0  0  0  0  0  0  0  0  0  0  0
   -6.7137   -0.5534   -2.7609 H   0  0  0  0  0  0  0  0  0  0  0  0
  1  2  2  3
  2  3  1  0
  3  4  2  0
  3  5  1  0
  5  6  2  0
  6  7  1  0
  7  8  2  0
  8  9  1  0
  9 10  2  0
 10 11  1  0
 11 12  2  3
 12 13  1  0
 13 14  3  0
 12 15  1  0
 15 16  3  0
  8 17  1  0
 17 18  1  0
 18 19  1  0
 19 20  2  0
 20 21  1  0
 21 22  1  0
 21 23  1  0
  1 24  1  0
 24 25  2  0
 25 26  1  0
 26 27  2  0
 27 28  1  0
 28 29  2  0
 29 30  1  0
 30 31  1  0
 30 32  2  0
 32 33  1  0
 33 34  1  0
 32 35  1  0
 35 36  1  0
 35 37  2  0
 27 38  1  0
 38 39  2  0
 39 40  1  0
 40 41  1  0
 41 42  2  0
 42 43  1  0
 43 44  2  0
 44 45  1  0
 45 46  1  0
 44 47  1  0
 47 48  2  0
 47 49  1  0
 43 50  1  0
 40 51  2  0
 51 52  1  0
 39 53  1  0
 53 54  2  0
 54 55  1  0
 54 56  1  0
 56 57  2  0
 57 58  1  0
 58 59  1  0
 59 60  2  0
 60 61  1  0
 61 62  2  0
 62 63  1  0
 63 64  1  0
 62 65  1  0
 65 66  2  0
 58 67  1  0
 67 68  2  0
 68 69  1  0
 69 70  2  0
 70 71  1  0
 71 72  1  0
 70 73  1  0
 73 74  2  0
 57 75  1  0
 75 76  1  0
 76 77  1  0
 77 78  2  0
 78 79  1  0
 79 80  1  0
 80 81  2  0
 81 82  1  0
 82 83  2  0
 83 84  1  0
 84 85  1  0
 83 86  1  0
 86 87  2  0
 79 88  1  0
 88 89  2  0
 89 90  1  0
 90 91  2  0
 91 92  1  0
 92 93  1  0
 91 94  1  0
 94 95  2  0
 78 96  1  0
 96 97  1  0
 77 98  1  0
 98 99  1  0
 99100  2  0
100101  1  0
101102  2  0
102103  1  0
103104  1  0
104105  1  0
102106  1  0
106107  2  0
107108  1  0
108109  2  0
109110  1  0
110111  1  0
109112  1  0
108113  1  0
113114  2  3
114115  1  0
115116  2  0
115117  1  0
117118  2  0
118119  1  0
119120  2  0
120121  1  0
121122  2  0
122123  1  0
123124  2  3
124125  1  0
125126  3  0
124127  1  0
127128  3  0
120129  1  0
129130  1  0
130131  1  0
131132  2  0
132133  1  0
133134  1  0
133135  1  0
 11  2  1  0
 23 17  1  0
 52 24  1  0
 97 56  1  0
110 98  2  0
123114  1  0
135129  1  0
 10  5  1  0
 22 18  1  0
 51 26  1  0
 66 59  1  0
 74 67  1  0
 96 75  2  0
107 99  1  0
122117  1  0
134130  1  0
 23  7  1  0
 37 28  1  0
 55 38  1  0
 87 80  1  0
 95 88  1  0
135119  1  0
 48 41  1  0
  1136  1  0
  6137  1  0
  9138  1  0
 17139  1  0
 18140  1  0
 19141  1  0
 20142  1  0
 21143  1  0
 22144  1  0
 22145  1  0
 23146  1  0
 25147  1  0
 29148  1  0
 33149  1  0
 33150  1  0
 34151  1  0
 34152  1  0
 34153  1  0
 37154  1  0
 42155  1  0
 45156  1  0
 45157  1  0
 46158  1  0
 46159  1  0
 46160  1  0
 48161  1  0
 53162  1  0
 60163  1  0
 61164  1  0
 64165  1  0
 64166  1  0
 64167  1  0
 65168  1  0
 66169  1  0
 68170  1  0
 69171  1  0
 72172  1  0
 72173  1  0
 72174  1  0
 73175  1  0
 74176  1  0
 81177  1  0
 82178  1  0
 85179  1  0
 85180  1  0
 85181  1  0
 86182  1  0
 87183  1  0
 89184  1  0
 90185  1  0
 93186  1  0
 93187  1  0
 93188  1  0
 94189  1  0
 95190  1  0
101191  1  0
104192  1  0
104193  1  0
105194  1  0
105195  1  0
105196  1  0
113197  1  0
118198  1  0
121199  1  0
129200  1  0
130201  1  0
131202  1  0
132203  1  0
133204  1  0
134205  1  0
134206  1  0
135207  1  0
M  END

