
     RDKit          3D

169187  0  0  0  0  0  0  0  0999 V2000
    8.5259    2.9912   -0.1135 C   0  0  0  0  0  0  0  0  0  0  0  0
    8.3249    3.7565   -1.2021 C   0  0  0  0  0  0  0  0  0  0  0  0
    7.0224    4.1759   -1.7436 C   0  0  0  0  0  0  0  0  0  0  0  0
    5.9137    3.6072   -1.5562 O   0  0  0  0  0  0  0  0  0  0  0  0
    7.2264    5.3371   -2.5812 C   0  0  0  0  0  0  0  0  0  0  0  0
    6.2315    6.1892   -3.1163 C   0  0  0  0  0  0  0  0  0  0  0  0
    6.7356    7.3380   -3.6970 C   0  0  0  0  0  0  0  0  0  0  0  0
    8.1357    7.6342   -3.7578 C   0  0  0  0  0  0  0  0  0  0  0  0
    9.1149    6.7942   -3.2540 C   0  0  0  0  0  0  0  0  0  0  0  0
    8.6167    5.5987   -2.6665 C   0  0  0  0  0  0  0  0  0  0  0  0
    9.3600    4.5319   -1.9486 C   0  0  0  0  0  0  0  0  0  0  0  0
   10.6500    4.1692   -2.1686 C   0  0  0  0  0  0  0  0  0  0  0  0
   11.2161    2.9684   -1.6127 C   0  0  0  0  0  0  0  0  0  0  0  0
   11.6776    2.0051   -1.1687 N   0  0  0  0  0  0  0  0  0  0  0  0
   11.4851    4.8562   -3.1192 C   0  0  0  0  0  0  0  0  0  0  0  0
   12.1607    5.3922   -3.8909 N   0  0  0  0  0  0  0  0  0  0  0  0
    7.8444    8.9569   -4.4047 C   0  0  0  0  0  0  0  0  0  0  0  0
    8.1301    9.1111   -5.9287 C   0  0  0  0  0  0  0  0  0  0  0  0
    7.9578    7.7791   -6.6211 C   0  0  0  0  0  0  0  0  0  0  0  0
    6.6572    7.4909   -6.5713 C   0  0  0  0  0  0  0  0  0  0  0  0
    5.9862    8.6368   -5.8503 C   0  0  0  0  0  0  0  0  0  0  0  0
    6.8380    9.7799   -6.3686 C   0  0  0  0  0  0  0  0  0  0  0  0
    6.4117    8.6472   -4.3524 C   0  0  0  0  0  0  0  0  0  0  0  0
    7.4363    2.4090    0.6910 C   0  0  0  0  0  0  0  0  0  0  0  0
    7.2743    1.0365    0.9716 C   0  0  0  0  0  0  0  0  0  0  0  0
    8.2629   -0.0198    0.5550 C   0  0  0  0  0  0  0  0  0  0  0  0
    9.3921   -0.1322    1.5750 C   0  0  0  0  0  0  0  0  0  0  0  0
    6.1153    0.8085    1.7385 C   0  0  0  0  0  0  0  0  0  0  0  0
    5.4754    1.9610    2.0879 C   0  0  0  0  0  0  0  0  0  0  0  0
    6.1965    3.3154    1.4285 S   0  0  0  0  0  0  0  0  0  0  0  0
    4.2087    1.6497    2.6644 C   0  0  0  0  0  0  0  0  0  0  0  0
    4.0425    0.2991    2.6458 C   0  0  0  0  0  0  0  0  0  0  0  0
    5.2558   -0.4255    2.0423 C   0  0  0  0  0  0  0  0  0  0  0  0
    5.9934   -1.2978    3.0908 C   0  0  0  0  0  0  0  0  0  0  0  0
    5.2275   -2.5349    3.5591 C   0  0  0  0  0  0  0  0  0  0  0  0
    4.9546   -1.1665    0.6931 C   0  0  0  0  0  0  0  0  0  0  0  0
    3.6278   -1.9246    0.5901 C   0  0  0  0  0  0  0  0  0  0  0  0
    2.7271   -0.0841    2.9208 C   0  0  0  0  0  0  0  0  0  0  0  0
    1.8790    1.0190    3.0864 C   0  0  0  0  0  0  0  0  0  0  0  0
    2.7588    2.4599    2.8653 S   0  0  0  0  0  0  0  0  0  0  0  0
    0.4151    0.9218    2.9861 C   0  0  0  0  0  0  0  0  0  0  0  0
   -0.3792   -0.1389    3.4920 C   0  0  0  0  0  0  0  0  0  0  0  0
   -0.0584   -0.9425    4.6610 N   0  0  0  0  0  0  0  0  0  0  0  0
    1.0141   -0.5683    5.5383 C   0  0  0  0  0  0  0  0  0  0  0  0
    2.0826   -1.4506    5.7629 C   0  0  0  0  0  0  0  0  0  0  0  0
    3.1854   -1.0378    6.5168 C   0  0  0  0  0  0  0  0  0  0  0  0
    3.2109    0.2441    7.0777 C   0  0  0  0  0  0  0  0  0  0  0  0
    4.6624    0.8126    7.9642 S   0  0  0  0  0  0  0  0  0  0  0  0
    5.3614    1.6473    6.5042 C   0  0  0  0  0  0  0  0  0  0  0  0
    2.1096    1.0937    6.9264 C   0  0  0  0  0  0  0  0  0  0  0  0
    1.0157    0.6896    6.1605 C   0  0  0  0  0  0  0  0  0  0  0  0
   -1.0499   -1.8096    5.2276 C   0  0  0  0  0  0  0  0  0  0  0  0
   -2.1535   -1.2642    5.9007 C   0  0  0  0  0  0  0  0  0  0  0  0
   -3.1351   -2.1032    6.4355 C   0  0  0  0  0  0  0  0  0  0  0  0
   -3.0146   -3.4933    6.3102 C   0  0  0  0  0  0  0  0  0  0  0  0
   -4.2938   -4.5668    6.9630 S   0  0  0  0  0  0  0  0  0  0  0  0
   -5.2476   -4.5629    5.4119 C   0  0  0  0  0  0  0  0  0  0  0  0
   -1.8992   -4.0399    5.6618 C   0  0  0  0  0  0  0  0  0  0  0  0
   -0.9170   -3.2025    5.1240 C   0  0  0  0  0  0  0  0  0  0  0  0
   -1.5420   -0.2837    2.7175 C   0  0  0  0  0  0  0  0  0  0  0  0
   -2.6571   -1.5270    2.4870 S   0  0  0  0  0  0  0  0  0  0  0  0
   -3.3775   -0.8281    1.1099 C   0  0  0  0  0  0  0  0  0  0  0  0
   -2.7460    0.4002    0.8410 C   0  0  0  0  0  0  0  0  0  0  0  0
   -3.1529    1.3225   -0.1890 N   0  0  0  0  0  0  0  0  0  0  0  0
   -2.1764    1.8530   -1.1081 C   0  0  0  0  0  0  0  0  0  0  0  0
   -2.1780    3.2188   -1.4376 C   0  0  0  0  0  0  0  0  0  0  0  0
   -1.2423    3.7291   -2.3429 C   0  0  0  0  0  0  0  0  0  0  0  0
   -0.3023    2.8812   -2.9325 C   0  0  0  0  0  0  0  0  0  0  0  0
    0.8848    3.5378   -4.1100 S   0  0  0  0  0  0  0  0  0  0  0  0
   -0.2146    3.3164   -5.5431 C   0  0  0  0  0  0  0  0  0  0  0  0
   -0.2866    1.5215   -2.6034 C   0  0  0  0  0  0  0  0  0  0  0  0
   -1.2113    1.0105   -1.6878 C   0  0  0  0  0  0  0  0  0  0  0  0
   -4.5369    1.7325   -0.2617 C   0  0  0  0  0  0  0  0  0  0  0  0
   -5.2915    1.9068    0.9121 C   0  0  0  0  0  0  0  0  0  0  0  0
   -6.6468    2.2388    0.8406 C   0  0  0  0  0  0  0  0  0  0  0  0
   -7.2711    2.3825   -0.4034 C   0  0  0  0  0  0  0  0  0  0  0  0
   -9.0227    2.7632   -0.4860 S   0  0  0  0  0  0  0  0  0  0  0  0
   -9.5305    1.0166   -0.3866 C   0  0  0  0  0  0  0  0  0  0  0  0
   -6.5246    2.2276   -1.5762 C   0  0  0  0  0  0  0  0  0  0  0  0
   -5.1638    1.9113   -1.5080 C   0  0  0  0  0  0  0  0  0  0  0  0
   -1.7110    0.6474    1.7411 C   0  0  0  0  0  0  0  0  0  0  0  0
   -0.4109    1.6957    1.7162 S   0  0  0  0  0  0  0  0  0  0  0  0
   -4.2250   -1.5833    0.1686 C   0  0  0  0  0  0  0  0  0  0  0  0
   -4.1933   -1.3387   -1.5295 S   0  0  0  0  0  0  0  0  0  0  0  0
   -5.1449   -2.6790   -1.7743 C   0  0  0  0  0  0  0  0  0  0  0  0
   -5.4764   -3.3404   -2.9035 N   0  0  0  0  0  0  0  0  0  0  0  0
   -6.1081   -4.4952   -2.5577 C   0  0  0  0  0  0  0  0  0  0  0  0
   -6.1819   -4.7443   -0.8603 S   0  0  0  0  0  0  0  0  0  0  0  0
   -5.4287   -3.2704   -0.5969 C   0  0  0  0  0  0  0  0  0  0  0  0
   -4.9086   -2.7101    0.5211 N   0  0  0  0  0  0  0  0  0  0  0  0
   -6.4956   -5.4995   -3.5529 C   0  0  0  0  0  0  0  0  0  0  0  0
   -7.7618   -5.6697   -3.9710 C   0  0  0  0  0  0  0  0  0  0  0  0
   -8.9343   -4.9914   -3.4073 C   0  0  0  0  0  0  0  0  0  0  0  0
   -8.9259   -4.0186   -2.6022 O   0  0  0  0  0  0  0  0  0  0  0  0
  -10.1221   -5.6604   -3.8853 C   0  0  0  0  0  0  0  0  0  0  0  0
  -11.4503   -5.4242   -3.5021 C   0  0  0  0  0  0  0  0  0  0  0  0
  -12.4256   -6.2879   -4.0071 C   0  0  0  0  0  0  0  0  0  0  0  0
  -13.7920   -6.2438   -3.7186 C   0  0  0  0  0  0  0  0  0  0  0  0
  -14.5098   -7.2550   -4.3548 C   0  0  0  0  0  0  0  0  0  0  0  0
  -13.4451   -8.2064   -5.2621 S   0  0  0  0  0  0  0  0  0  0  0  0
  -12.0720   -7.3334   -4.8548 C   0  0  0  0  0  0  0  0  0  0  0  0
  -10.7486   -7.5727   -5.2409 C   0  0  0  0  0  0  0  0  0  0  0  0
   -9.7618   -6.6936   -4.7519 C   0  0  0  0  0  0  0  0  0  0  0  0
   -8.2804   -6.6932   -4.9374 C   0  0  0  0  0  0  0  0  0  0  0  0
   -7.5792   -7.3723   -5.8828 C   0  0  0  0  0  0  0  0  0  0  0  0
   -8.1921   -8.2893   -6.8059 C   0  0  0  0  0  0  0  0  0  0  0  0
   -8.6698   -9.0278   -7.5606 N   0  0  0  0  0  0  0  0  0  0  0  0
   -6.1801   -7.1328   -6.1269 C   0  0  0  0  0  0  0  0  0  0  0  0
   -5.0559   -6.9484   -6.3359 N   0  0  0  0  0  0  0  0  0  0  0  0
    9.5236    2.8042    0.2467 H   0  0  0  0  0  0  0  0  0  0  0  0
    5.1719    5.9953   -3.0266 H   0  0  0  0  0  0  0  0  0  0  0  0
   10.1535    7.0819   -3.2521 H   0  0  0  0  0  0  0  0  0  0  0  0
    8.1324    9.8344   -3.7864 H   0  0  0  0  0  0  0  0  0  0  0  0
    9.0643    9.6554   -6.1821 H   0  0  0  0  0  0  0  0  0  0  0  0
    8.7180    7.2048   -7.1369 H   0  0  0  0  0  0  0  0  0  0  0  0
    6.1784    6.6459   -7.0510 H   0  0  0  0  0  0  0  0  0  0  0  0
    4.8968    8.7286   -6.0316 H   0  0  0  0  0  0  0  0  0  0  0  0
    6.6416   10.7519   -5.8549 H   0  0  0  0  0  0  0  0  0  0  0  0
    6.7664    9.9234   -7.4726 H   0  0  0  0  0  0  0  0  0  0  0  0
    5.8293    9.3361   -3.7032 H   0  0  0  0  0  0  0  0  0  0  0  0
    7.7762   -1.0067    0.4513 H   0  0  0  0  0  0  0  0  0  0  0  0
    8.6958    0.2340   -0.4378 H   0  0  0  0  0  0  0  0  0  0  0  0
    8.9836   -0.3242    2.5894 H   0  0  0  0  0  0  0  0  0  0  0  0
    9.9865    0.8061    1.5944 H   0  0  0  0  0  0  0  0  0  0  0  0
   10.0644   -0.9716    1.2964 H   0  0  0  0  0  0  0  0  0  0  0  0
    6.9641   -1.6419    2.6753 H   0  0  0  0  0  0  0  0  0  0  0  0
    6.2219   -0.6784    3.9851 H   0  0  0  0  0  0  0  0  0  0  0  0
    4.1984   -2.2720    3.8714 H   0  0  0  0  0  0  0  0  0  0  0  0
    5.2005   -3.2995    2.7571 H   0  0  0  0  0  0  0  0  0  0  0  0
    5.7511   -2.9769    4.4302 H   0  0  0  0  0  0  0  0  0  0  0  0
    5.7615   -1.8991    0.4887 H   0  0  0  0  0  0  0  0  0  0  0  0
    4.9634   -0.4400   -0.1490 H   0  0  0  0  0  0  0  0  0  0  0  0
    3.6387   -2.5519   -0.3272 H   0  0  0  0  0  0  0  0  0  0  0  0
    3.4601   -2.5941    1.4543 H   0  0  0  0  0  0  0  0  0  0  0  0
    2.7832   -1.2125    0.4888 H   0  0  0  0  0  0  0  0  0  0  0  0
    2.3669   -1.1011    2.8735 H   0  0  0  0  0  0  0  0  0  0  0  0
    2.0845   -2.4323    5.3057 H   0  0  0  0  0  0  0  0  0  0  0  0
    4.0269   -1.7076    6.6453 H   0  0  0  0  0  0  0  0  0  0  0  0
    6.3439    2.0883    6.7742 H   0  0  0  0  0  0  0  0  0  0  0  0
    5.5029    0.9189    5.6808 H   0  0  0  0  0  0  0  0  0  0  0  0
    4.6847    2.4607    6.1704 H   0  0  0  0  0  0  0  0  0  0  0  0
    2.1156    2.0778    7.3732 H   0  0  0  0  0  0  0  0  0  0  0  0
    0.1872    1.3696    6.0121 H   0  0  0  0  0  0  0  0  0  0  0  0
   -2.2581   -0.1894    5.9919 H   0  0  0  0  0  0  0  0  0  0  0  0
   -3.9901   -1.6724    6.9403 H   0  0  0  0  0  0  0  0  0  0  0  0
   -4.6236   -4.9413    4.5752 H   0  0  0  0  0  0  0  0  0  0  0  0
   -5.5927   -3.5330    5.1826 H   0  0  0  0  0  0  0  0  0  0  0  0
   -6.1319   -5.2229    5.5294 H   0  0  0  0  0  0  0  0  0  0  0  0
   -1.7989   -5.1141    5.5661 H   0  0  0  0  0  0  0  0  0  0  0  0
   -0.0672   -3.6322    4.6096 H   0  0  0  0  0  0  0  0  0  0  0  0
   -2.9001    3.8898   -0.9883 H   0  0  0  0  0  0  0  0  0  0  0  0
   -1.2566    4.7839   -2.5892 H   0  0  0  0  0  0  0  0  0  0  0  0
    0.3075    3.6660   -6.4556 H   0  0  0  0  0  0  0  0  0  0  0  0
   -1.1410    3.9148   -5.4078 H   0  0  0  0  0  0  0  0  0  0  0  0
   -0.4788    2.2443   -5.6640 H   0  0  0  0  0  0  0  0  0  0  0  0
    0.4433    0.8600   -3.0529 H   0  0  0  0  0  0  0  0  0  0  0  0
   -1.1897   -0.0443   -1.4467 H   0  0  0  0  0  0  0  0  0  0  0  0
   -4.8313    1.7848    1.8844 H   0  0  0  0  0  0  0  0  0  0  0  0
   -7.2155    2.3648    1.7525 H   0  0  0  0  0  0  0  0  0  0  0  0
   -9.1443    0.5572    0.5472 H   0  0  0  0  0  0  0  0  0  0  0  0
   -9.1485    0.4570   -1.2657 H   0  0  0  0  0  0  0  0  0  0  0  0
  -10.6402    0.9625   -0.3774 H   0  0  0  0  0  0  0  0  0  0  0  0
   -7.0019    2.3380   -2.5421 H   0  0  0  0  0  0  0  0  0  0  0  0
   -4.6118    1.7702   -2.4301 H   0  0  0  0  0  0  0  0  0  0  0  0
   -5.6949   -6.1189   -3.9186 H   0  0  0  0  0  0  0  0  0  0  0  0
  -11.7044   -4.6282   -2.8114 H   0  0  0  0  0  0  0  0  0  0  0  0
  -14.2504   -5.5048   -3.0751 H   0  0  0  0  0  0  0  0  0  0  0  0
  -15.5768   -7.4125   -4.2733 H   0  0  0  0  0  0  0  0  0  0  0  0
  -10.5282   -8.4252   -5.8586 H   0  0  0  0  0  0  0  0  0  0  0  0
  1  2  2  3
  2  3  1  0
  3  4  2  0
  3  5  1  0
  5  6  2  0
  6  7  1  0
  7  8  2  0
  8  9  1  0
  9 10  2  0
 10 11  1  0
 11 12  2  3
 12 13  1  0
 13 14  3  0
 12 15  1  0
 15 16  3  0
  8 17  1  0
 17 18  1  0
 18 19  1  0
 19 20  2  0
 20 21  1  0
 21 22  1  0
 21 23  1  0
  1 24  1  0
 24 25  2  0
 25 26  1  0
 26 27  1  0
 25 28  1  0
 28 29  2  0
 29 30  1  0
 29 31  1  0
 31 32  2  0
 32 33  1  0
 33 34  1  0
 34 35  1  0
 33 36  1  0
 36 37  1  0
 32 38  1  0
 38 39  2  0
 39 40  1  0
 39 41  1  0
 41 42  2  0
 42 43  1  0
 43 44  1  0
 44 45  2  0
 45 46  1  0
 46 47  2  0
 47 48  1  0
 48 49  1  0
 47 50  1  0
 50 51  2  0
 43 52  1  0
 52 53  2  0
 53 54  1  0
 54 55  2  0
 55 56  1  0
 56 57  1  0
 55 58  1  0
 58 59  2  0
 42 60  1  0
 60 61  1  0
 61 62  1  0
 62 63  2  0
 63 64  1  0
 64 65  1  0
 65 66  2  0
 66 67  1  0
 67 68  2  0
 68 69  1  0
 69 70  1  0
 68 71  1  0
 71 72  2  0
 64 73  1  0
 73 74  2  0
 74 75  1  0
 75 76  2  0
 76 77  1  0
 77 78  1  0
 76 79  1  0
 79 80  2  0
 63 81  1  0
 81 82  1  0
 62 83  1  0
 83 84  1  0
 84 85  1  0
 85 86  1  0
 86 87  2  0
 87 88  1  0
 88 89  1  0
 89 90  1  0
 87 91  1  0
 91 92  2  3
 92 93  1  0
 93 94  2  0
 93 95  1  0
 95 96  2  0
 96 97  1  0
 97 98  1  0
 98 99  2  0
 99100  1  0
100101  1  0
101102  1  0
102103  2  0
103104  1  0
104105  2  3
105106  1  0
106107  3  0
105108  1  0
108109  3  0
 11  2  1  0
 23 17  1  0
 30 24  1  0
 40 31  1  0
 82 41  1  0
 90 83  2  0
104 92  1  0
 10  5  1  0
 22 18  1  0
 33 28  1  0
 51 44  1  0
 59 52  1  0
 81 60  2  0
 89 85  2  0
103 95  1  0
 23  7  1  0
 72 65  1  0
 80 73  1  0
101 97  2  0
  1110  1  0
  6111  1  0
  9112  1  0
 17113  1  0
 18114  1  0
 19115  1  0
 20116  1  0
 21117  1  0
 22118  1  0
 22119  1  0
 23120  1  0
 26121  1  0
 26122  1  0
 27123  1  0
 27124  1  0
 27125  1  0
 34126  1  0
 34127  1  0
 35128  1  0
 35129  1  0
 35130  1  0
 36131  1  0
 36132  1  0
 37133  1  0
 37134  1  0
 37135  1  0
 38136  1  0
 45137  1  0
 46138  1  0
 49139  1  0
 49140  1  0
 49141  1  0
 50142  1  0
 51143  1  0
 53144  1  0
 54145  1  0
 57146  1  0
 57147  1  0
 57148  1  0
 58149  1  0
 59150  1  0
 66151  1  0
 67152  1  0
 70153  1  0
 70154  1  0
 70155  1  0
 71156  1  0
 72157  1  0
 74158  1  0
 75159  1  0
 78160  1  0
 78161  1  0
 78162  1  0
 79163  1  0
 80164  1  0
 91165  1  0
 96166  1  0
 98167  1  0
 99168  1  0
102169  1  0
M  END

