
     RDKit          3D

202221  0  0  0  0  0  0  0  0999 V2000
   -6.1324   -1.1729    2.6802 C   0  0  0  0  0  0  0  0  0  0  0  0
   -5.8097   -2.2847    3.3728 C   0  0  0  0  0  0  0  0  0  0  0  0
   -4.5153   -2.9642    3.3022 C   0  0  0  0  0  0  0  0  0  0  0  0
   -3.7407   -2.9796    2.3111 O   0  0  0  0  0  0  0  0  0  0  0  0
   -4.2662   -3.6294    4.5550 C   0  0  0  0  0  0  0  0  0  0  0  0
   -3.0252   -4.1277    5.0086 C   0  0  0  0  0  0  0  0  0  0  0  0
   -3.0242   -4.4825    6.3419 C   0  0  0  0  0  0  0  0  0  0  0  0
   -4.1752   -4.3673    7.1889 C   0  0  0  0  0  0  0  0  0  0  0  0
   -5.3956   -3.8786    6.7492 C   0  0  0  0  0  0  0  0  0  0  0  0
   -5.4206   -3.5082    5.3732 C   0  0  0  0  0  0  0  0  0  0  0  0
   -6.4794   -2.7856    4.6070 C   0  0  0  0  0  0  0  0  0  0  0  0
   -7.8005   -2.7280    4.9036 C   0  0  0  0  0  0  0  0  0  0  0  0
   -8.3525   -3.3258    6.0902 C   0  0  0  0  0  0  0  0  0  0  0  0
   -8.8060   -3.8023    7.0424 N   0  0  0  0  0  0  0  0  0  0  0  0
   -8.7679   -2.1875    3.9788 C   0  0  0  0  0  0  0  0  0  0  0  0
   -9.5517   -1.7593    3.2441 N   0  0  0  0  0  0  0  0  0  0  0  0
   -3.3841   -4.8669    8.3616 C   0  0  0  0  0  0  0  0  0  0  0  0
   -3.6403   -6.3357    8.8092 C   0  0  0  0  0  0  0  0  0  0  0  0
   -2.4794   -6.7098    9.6954 C   0  0  0  0  0  0  0  0  0  0  0  0
   -1.4069   -6.8041    8.9001 C   0  0  0  0  0  0  0  0  0  0  0  0
   -1.8833   -6.4974    7.5034 C   0  0  0  0  0  0  0  0  0  0  0  0
   -3.2570   -7.1399    7.5776 C   0  0  0  0  0  0  0  0  0  0  0  0
   -2.2049   -4.9774    7.4953 C   0  0  0  0  0  0  0  0  0  0  0  0
   -5.1623   -0.4284    1.8545 C   0  0  0  0  0  0  0  0  0  0  0  0
   -3.8626   -0.0129    2.2314 C   0  0  0  0  0  0  0  0  0  0  0  0
   -3.3128   -0.0779    3.5759 N   0  0  0  0  0  0  0  0  0  0  0  0
   -4.1731    0.1470    4.7206 C   0  0  0  0  0  0  0  0  0  0  0  0
   -3.9954   -0.5984    5.9020 C   0  0  0  0  0  0  0  0  0  0  0  0
   -4.9016   -0.4817    6.9585 C   0  0  0  0  0  0  0  0  0  0  0  0
   -5.9888    0.3893    6.8550 C   0  0  0  0  0  0  0  0  0  0  0  0
   -7.2148    0.4467    8.1623 S   0  0  0  0  0  0  0  0  0  0  0  0
   -6.3648    1.7780    9.0674 C   0  0  0  0  0  0  0  0  0  0  0  0
   -6.1380    1.1863    5.7161 C   0  0  0  0  0  0  0  0  0  0  0  0
   -5.2270    1.0801    4.6607 C   0  0  0  0  0  0  0  0  0  0  0  0
   -1.8894   -0.2471    3.7807 C   0  0  0  0  0  0  0  0  0  0  0  0
   -1.2189    0.5032    4.7687 C   0  0  0  0  0  0  0  0  0  0  0  0
    0.1596    0.3704    4.9496 C   0  0  0  0  0  0  0  0  0  0  0  0
    0.8933   -0.4967    4.1356 C   0  0  0  0  0  0  0  0  0  0  0  0
    2.6722   -0.6078    4.3176 S   0  0  0  0  0  0  0  0  0  0  0  0
    2.9844    0.8291    3.2436 C   0  0  0  0  0  0  0  0  0  0  0  0
    0.2389   -1.2614    3.1633 C   0  0  0  0  0  0  0  0  0  0  0  0
   -1.1432   -1.1425    2.9911 C   0  0  0  0  0  0  0  0  0  0  0  0
   -3.2488    0.6651    1.1748 C   0  0  0  0  0  0  0  0  0  0  0  0
   -1.7129    1.2639    0.9272 S   0  0  0  0  0  0  0  0  0  0  0  0
   -2.0184    1.8003   -0.6555 C   0  0  0  0  0  0  0  0  0  0  0  0
   -3.3875    1.6221   -0.9644 C   0  0  0  0  0  0  0  0  0  0  0  0
   -4.0773    2.2968   -2.0534 N   0  0  0  0  0  0  0  0  0  0  0  0
   -3.4922    3.4717   -2.6416 C   0  0  0  0  0  0  0  0  0  0  0  0
   -3.0689    4.5357   -1.8264 C   0  0  0  0  0  0  0  0  0  0  0  0
   -2.4286    5.6424   -2.3886 C   0  0  0  0  0  0  0  0  0  0  0  0
   -2.2193    5.6992   -3.7693 C   0  0  0  0  0  0  0  0  0  0  0  0
   -1.2785    7.0498   -4.4764 S   0  0  0  0  0  0  0  0  0  0  0  0
    0.3161    6.2061   -4.2153 C   0  0  0  0  0  0  0  0  0  0  0  0
   -2.7102    4.6807   -4.5935 C   0  0  0  0  0  0  0  0  0  0  0  0
   -3.3499    3.5717   -4.0319 C   0  0  0  0  0  0  0  0  0  0  0  0
   -5.4959    2.1608   -2.2246 C   0  0  0  0  0  0  0  0  0  0  0  0
   -6.0135    1.4399   -3.3082 C   0  0  0  0  0  0  0  0  0  0  0  0
   -7.3953    1.2898   -3.4590 C   0  0  0  0  0  0  0  0  0  0  0  0
   -8.2677    1.8801   -2.5386 C   0  0  0  0  0  0  0  0  0  0  0  0
  -10.0363    1.6346   -2.6996 S   0  0  0  0  0  0  0  0  0  0  0  0
  -10.0346    0.1082   -1.7034 C   0  0  0  0  0  0  0  0  0  0  0  0
   -7.7584    2.6515   -1.4876 C   0  0  0  0  0  0  0  0  0  0  0  0
   -6.3778    2.8042   -1.3404 C   0  0  0  0  0  0  0  0  0  0  0  0
   -4.0132    0.8967    0.0702 C   0  0  0  0  0  0  0  0  0  0  0  0
   -5.5160    0.1750    0.3048 S   0  0  0  0  0  0  0  0  0  0  0  0
   -0.9041    2.1416   -1.5555 C   0  0  0  0  0  0  0  0  0  0  0  0
   -0.5549    1.4897   -2.7682 C   0  0  0  0  0  0  0  0  0  0  0  0
   -1.3416    0.4913   -3.4614 N   0  0  0  0  0  0  0  0  0  0  0  0
   -1.2968    0.4357   -4.9135 C   0  0  0  0  0  0  0  0  0  0  0  0
   -1.3333   -0.7974   -5.5990 C   0  0  0  0  0  0  0  0  0  0  0  0
   -1.2268   -0.8417   -6.9930 C   0  0  0  0  0  0  0  0  0  0  0  0
   -1.0716    0.3408   -7.7228 C   0  0  0  0  0  0  0  0  0  0  0  0
   -0.8834    0.2912   -9.5068 S   0  0  0  0  0  0  0  0  0  0  0  0
   -2.6662    0.4459   -9.8317 C   0  0  0  0  0  0  0  0  0  0  0  0
   -1.0196    1.5649   -7.0569 C   0  0  0  0  0  0  0  0  0  0  0  0
   -1.1269    1.6133   -5.6677 C   0  0  0  0  0  0  0  0  0  0  0  0
   -1.9758   -0.5761   -2.7236 C   0  0  0  0  0  0  0  0  0  0  0  0
   -1.3098   -1.2181   -1.6628 C   0  0  0  0  0  0  0  0  0  0  0  0
   -1.9262   -2.2727   -0.9787 C   0  0  0  0  0  0  0  0  0  0  0  0
   -3.2058   -2.6991   -1.3549 C   0  0  0  0  0  0  0  0  0  0  0  0
   -3.9825   -4.0942   -0.5404 S   0  0  0  0  0  0  0  0  0  0  0  0
   -3.3015   -5.3290   -1.6934 C   0  0  0  0  0  0  0  0  0  0  0  0
   -3.8740   -2.0577   -2.4027 C   0  0  0  0  0  0  0  0  0  0  0  0
   -3.2563   -1.0142   -3.0892 C   0  0  0  0  0  0  0  0  0  0  0  0
    0.7731    1.7545   -3.1112 C   0  0  0  0  0  0  0  0  0  0  0  0
    1.8493    0.9899   -4.1482 S   0  0  0  0  0  0  0  0  0  0  0  0
    3.2429    1.6869   -3.4619 C   0  0  0  0  0  0  0  0  0  0  0  0
    2.8523    2.5119   -2.3888 C   0  0  0  0  0  0  0  0  0  0  0  0
    3.7427    3.0516   -1.3972 N   0  0  0  0  0  0  0  0  0  0  0  0
    4.5478    2.1476   -0.6140 C   0  0  0  0  0  0  0  0  0  0  0  0
    4.0500    0.8831   -0.2458 C   0  0  0  0  0  0  0  0  0  0  0  0
    4.8588   -0.0199    0.4464 C   0  0  0  0  0  0  0  0  0  0  0  0
    6.1728    0.3234    0.7719 C   0  0  0  0  0  0  0  0  0  0  0  0
    7.2287   -0.8660    1.5977 S   0  0  0  0  0  0  0  0  0  0  0  0
    7.7784   -1.6247    0.0351 C   0  0  0  0  0  0  0  0  0  0  0  0
    6.6695    1.5879    0.4344 C   0  0  0  0  0  0  0  0  0  0  0  0
    5.8599    2.4964   -0.2536 C   0  0  0  0  0  0  0  0  0  0  0  0
    3.5764    4.4333   -1.0115 C   0  0  0  0  0  0  0  0  0  0  0  0
    3.2819    5.4054   -1.9838 C   0  0  0  0  0  0  0  0  0  0  0  0
    2.9835    6.7163   -1.6115 C   0  0  0  0  0  0  0  0  0  0  0  0
    2.9833    7.0776   -0.2592 C   0  0  0  0  0  0  0  0  0  0  0  0
    2.5566    8.7499    0.2182 S   0  0  0  0  0  0  0  0  0  0  0  0
    0.7786    8.3754    0.3805 C   0  0  0  0  0  0  0  0  0  0  0  0
    3.3044    6.1266    0.7146 C   0  0  0  0  0  0  0  0  0  0  0  0
    3.5983    4.8120    0.3462 C   0  0  0  0  0  0  0  0  0  0  0  0
    1.4622    2.5352   -2.2456 C   0  0  0  0  0  0  0  0  0  0  0  0
    0.4662    2.9708   -0.9739 S   0  0  0  0  0  0  0  0  0  0  0  0
    4.6109    1.3287   -3.8737 C   0  0  0  0  0  0  0  0  0  0  0  0
    4.9293    0.5615   -4.9780 C   0  0  0  0  0  0  0  0  0  0  0  0
    6.2971    0.4459   -4.9739 C   0  0  0  0  0  0  0  0  0  0  0  0
    6.7360    1.1377   -3.8562 C   0  0  0  0  0  0  0  0  0  0  0  0
    5.7090    1.6726   -3.2352 O   0  0  0  0  0  0  0  0  0  0  0  0
    8.1321    1.3218   -3.4300 C   0  0  0  0  0  0  0  0  0  0  0  0
    9.0983    0.3916   -3.5483 C   0  0  0  0  0  0  0  0  0  0  0  0
    8.9089   -1.0564   -3.7237 C   0  0  0  0  0  0  0  0  0  0  0  0
    7.8114   -1.6535   -3.8767 O   0  0  0  0  0  0  0  0  0  0  0  0
   10.1910   -1.7172   -3.5108 C   0  0  0  0  0  0  0  0  0  0  0  0
   10.4730   -3.0909   -3.4847 C   0  0  0  0  0  0  0  0  0  0  0  0
    9.2481   -4.2739   -3.9455 Cl  0  0  0  0  0  0  0  0  0  0  0  0
   11.7566   -3.4983   -3.0796 C   0  0  0  0  0  0  0  0  0  0  0  0
   12.1632   -5.2160   -3.0632 Cl  0  0  0  0  0  0  0  0  0  0  0  0
   12.6921   -2.5464   -2.6100 C   0  0  0  0  0  0  0  0  0  0  0  0
   14.2562   -3.0799   -1.9918 Cl  0  0  0  0  0  0  0  0  0  0  0  0
   12.3681   -1.1708   -2.6173 C   0  0  0  0  0  0  0  0  0  0  0  0
   13.4049   -0.0315   -1.7542 Cl  0  0  0  0  0  0  0  0  0  0  0  0
   11.1386   -0.7666   -3.1772 C   0  0  0  0  0  0  0  0  0  0  0  0
   10.5633    0.5953   -3.3483 C   0  0  0  0  0  0  0  0  0  0  0  0
   11.2507    1.6909   -3.7606 C   0  0  0  0  0  0  0  0  0  0  0  0
   12.6224    1.5971   -4.1923 C   0  0  0  0  0  0  0  0  0  0  0  0
   13.7201    1.5330   -4.5615 N   0  0  0  0  0  0  0  0  0  0  0  0
   10.5937    2.9177   -4.1330 C   0  0  0  0  0  0  0  0  0  0  0  0
   10.0574    3.8934   -4.4528 N   0  0  0  0  0  0  0  0  0  0  0  0
   -7.0826   -0.6871    2.8266 H   0  0  0  0  0  0  0  0  0  0  0  0
   -2.1311   -4.1495    4.3976 H   0  0  0  0  0  0  0  0  0  0  0  0
   -6.2055   -3.7217    7.4402 H   0  0  0  0  0  0  0  0  0  0  0  0
   -3.2833   -4.1255    9.1842 H   0  0  0  0  0  0  0  0  0  0  0  0
   -4.6453   -6.5440    9.2315 H   0  0  0  0  0  0  0  0  0  0  0  0
   -2.5089   -6.9444   10.7532 H   0  0  0  0  0  0  0  0  0  0  0  0
   -0.4139   -7.1224    9.2030 H   0  0  0  0  0  0  0  0  0  0  0  0
   -1.2217   -6.8596    6.6880 H   0  0  0  0  0  0  0  0  0  0  0  0
   -3.2269   -8.2398    7.7603 H   0  0  0  0  0  0  0  0  0  0  0  0
   -3.9000   -6.9500    6.6896 H   0  0  0  0  0  0  0  0  0  0  0  0
   -1.3671   -4.2976    7.7631 H   0  0  0  0  0  0  0  0  0  0  0  0
   -3.1814   -1.3066    5.9865 H   0  0  0  0  0  0  0  0  0  0  0  0
   -4.7754   -1.0936    7.8429 H   0  0  0  0  0  0  0  0  0  0  0  0
   -5.3071    1.5025    9.2532 H   0  0  0  0  0  0  0  0  0  0  0  0
   -6.4073    2.7196    8.4817 H   0  0  0  0  0  0  0  0  0  0  0  0
   -6.8719    1.9318   10.0415 H   0  0  0  0  0  0  0  0  0  0  0  0
   -6.9680    1.8769    5.6401 H   0  0  0  0  0  0  0  0  0  0  0  0
   -5.3637    1.6974    3.7812 H   0  0  0  0  0  0  0  0  0  0  0  0
   -1.7605    1.2095    5.3840 H   0  0  0  0  0  0  0  0  0  0  0  0
    0.6589    0.9607    5.7069 H   0  0  0  0  0  0  0  0  0  0  0  0
    2.5938    1.7523    3.7217 H   0  0  0  0  0  0  0  0  0  0  0  0
    2.4927    0.6857    2.2593 H   0  0  0  0  0  0  0  0  0  0  0  0
    4.0779    0.9407    3.0939 H   0  0  0  0  0  0  0  0  0  0  0  0
    0.8015   -1.9346    2.5306 H   0  0  0  0  0  0  0  0  0  0  0  0
   -1.6189   -1.7188    2.2120 H   0  0  0  0  0  0  0  0  0  0  0  0
   -3.2155    4.4947   -0.7549 H   0  0  0  0  0  0  0  0  0  0  0  0
   -2.0746    6.4376   -1.7488 H   0  0  0  0  0  0  0  0  0  0  0  0
    0.3419    5.2540   -4.7882 H   0  0  0  0  0  0  0  0  0  0  0  0
    0.4647    5.9957   -3.1343 H   0  0  0  0  0  0  0  0  0  0  0  0
    1.1388    6.8617   -4.5699 H   0  0  0  0  0  0  0  0  0  0  0  0
   -2.5630    4.7271   -5.6665 H   0  0  0  0  0  0  0  0  0  0  0  0
   -3.6930    2.7713   -4.6725 H   0  0  0  0  0  0  0  0  0  0  0  0
   -5.3535    0.9965   -4.0353 H   0  0  0  0  0  0  0  0  0  0  0  0
   -7.7838    0.7101   -4.2869 H   0  0  0  0  0  0  0  0  0  0  0  0
  -11.0556   -0.3273   -1.7008 H   0  0  0  0  0  0  0  0  0  0  0  0
   -9.7384    0.3364   -0.6570 H   0  0  0  0  0  0  0  0  0  0  0  0
   -9.3301   -0.6333   -2.1361 H   0  0  0  0  0  0  0  0  0  0  0  0
   -8.4297    3.1244   -0.7835 H   0  0  0  0  0  0  0  0  0  0  0  0
   -5.9887    3.3917   -0.5175 H   0  0  0  0  0  0  0  0  0  0  0  0
   -1.4109   -1.7331   -5.0580 H   0  0  0  0  0  0  0  0  0  0  0  0
   -1.2407   -1.7979   -7.5024 H   0  0  0  0  0  0  0  0  0  0  0  0
   -3.1064    1.2678   -9.2290 H   0  0  0  0  0  0  0  0  0  0  0  0
   -3.1661   -0.5108   -9.5834 H   0  0  0  0  0  0  0  0  0  0  0  0
   -2.8216    0.6690  -10.9067 H   0  0  0  0  0  0  0  0  0  0  0  0
   -0.8713    2.4811   -7.6149 H   0  0  0  0  0  0  0  0  0  0  0  0
   -1.0426    2.5715   -5.1795 H   0  0  0  0  0  0  0  0  0  0  0  0
   -0.3154   -0.9069   -1.3721 H   0  0  0  0  0  0  0  0  0  0  0  0
   -1.3991   -2.7667   -0.1698 H   0  0  0  0  0  0  0  0  0  0  0  0
   -3.6545   -6.3374   -1.3970 H   0  0  0  0  0  0  0  0  0  0  0  0
   -2.1899   -5.3124   -1.6500 H   0  0  0  0  0  0  0  0  0  0  0  0
   -3.6426   -5.1179   -2.7289 H   0  0  0  0  0  0  0  0  0  0  0  0
   -4.8635   -2.3830   -2.6954 H   0  0  0  0  0  0  0  0  0  0  0  0
   -3.7649   -0.5578   -3.9252 H   0  0  0  0  0  0  0  0  0  0  0  0
    3.0371    0.5951   -0.4961 H   0  0  0  0  0  0  0  0  0  0  0  0
    4.4629   -0.9911    0.7199 H   0  0  0  0  0  0  0  0  0  0  0  0
    8.2979   -0.8694   -0.5913 H   0  0  0  0  0  0  0  0  0  0  0  0
    8.4797   -2.4560    0.2573 H   0  0  0  0  0  0  0  0  0  0  0  0
    6.9050   -2.0325   -0.5174 H   0  0  0  0  0  0  0  0  0  0  0  0
    7.6879    1.8581    0.6827 H   0  0  0  0  0  0  0  0  0  0  0  0
    6.2638    3.4594   -0.5389 H   0  0  0  0  0  0  0  0  0  0  0  0
    3.2529    5.1393   -3.0340 H   0  0  0  0  0  0  0  0  0  0  0  0
    2.7344    7.4492   -2.3692 H   0  0  0  0  0  0  0  0  0  0  0  0
    0.2410    9.2999    0.6788 H   0  0  0  0  0  0  0  0  0  0  0  0
    0.6220    7.5993    1.1611 H   0  0  0  0  0  0  0  0  0  0  0  0
    0.3709    8.0164   -0.5892 H   0  0  0  0  0  0  0  0  0  0  0  0
    3.3064    6.3994    1.7633 H   0  0  0  0  0  0  0  0  0  0  0  0
    3.7976    4.0813    1.1193 H   0  0  0  0  0  0  0  0  0  0  0  0
    4.2478    0.1438   -5.7086 H   0  0  0  0  0  0  0  0  0  0  0  0
    6.9027   -0.0656   -5.7117 H   0  0  0  0  0  0  0  0  0  0  0  0
    8.3697    2.2848   -3.0034 H   0  0  0  0  0  0  0  0  0  0  0  0
  1  2  2  3
  2  3  1  0
  3  4  2  0
  3  5  1  0
  5  6  2  0
  6  7  1  0
  7  8  2  0
  8  9  1  0
  9 10  2  0
 10 11  1  0
 11 12  2  3
 12 13  1  0
 13 14  3  0
 12 15  1  0
 15 16  3  0
  8 17  1  0
 17 18  1  0
 18 19  1  0
 19 20  2  0
 20 21  1  0
 21 22  1  0
 21 23  1  0
  1 24  1  0
 24 25  2  0
 25 26  1  0
 26 27  1  0
 27 28  2  0
 28 29  1  0
 29 30  2  0
 30 31  1  0
 31 32  1  0
 30 33  1  0
 33 34  2  0
 26 35  1  0
 35 36  2  0
 36 37  1  0
 37 38  2  0
 38 39  1  0
 39 40  1  0
 38 41  1  0
 41 42  2  0
 25 43  1  0
 43 44  1  0
 44 45  1  0
 45 46  2  0
 46 47  1  0
 47 48  1  0
 48 49  2  0
 49 50  1  0
 50 51  2  0
 51 52  1  0
 52 53  1  0
 51 54  1  0
 54 55  2  0
 47 56  1  0
 56 57  2  0
 57 58  1  0
 58 59  2  0
 59 60  1  0
 60 61  1  0
 59 62  1  0
 62 63  2  0
 46 64  1  0
 64 65  1  0
 45 66  1  0
 66 67  2  0
 67 68  1  0
 68 69  1  0
 69 70  2  0
 70 71  1  0
 71 72  2  0
 72 73  1  0
 73 74  1  0
 72 75  1  0
 75 76  2  0
 68 77  1  0
 77 78  2  0
 78 79  1  0
 79 80  2  0
 80 81  1  0
 81 82  1  0
 80 83  1  0
 83 84  2  0
 67 85  1  0
 85 86  1  0
 86 87  1  0
 87 88  2  0
 88 89  1  0
 89 90  1  0
 90 91  2  0
 91 92  1  0
 92 93  2  0
 93 94  1  0
 94 95  1  0
 93 96  1  0
 96 97  2  0
 89 98  1  0
 98 99  2  0
 99100  1  0
100101  2  0
101102  1  0
102103  1  0
101104  1  0
104105  2  0
 88106  1  0
106107  1  0
 87108  1  0
108109  2  0
109110  1  0
110111  2  0
111112  1  0
111113  1  0
113114  2  3
114115  1  0
115116  2  0
115117  1  0
117118  2  0
118119  1  0
118120  1  0
120121  1  0
120122  2  0
122123  1  0
122124  1  0
124125  1  0
124126  2  0
126127  1  0
127128  2  3
128129  1  0
129130  3  0
128131  1  0
131132  3  0
 11  2  1  0
 23 17  1  0
 65 24  1  0
107 66  1  0
112108  1  0
127114  1  0
 10  5  1  0
 22 18  1  0
 34 27  1  0
 42 35  1  0
 64 43  2  0
 76 69  1  0
 84 77  1  0
106 85  2  0
126117  1  0
 23  7  1  0
 55 48  1  0
 63 56  1  0
 97 90  1  0
105 98  1  0
  1133  1  0
  6134  1  0
  9135  1  0
 17136  1  0
 18137  1  0
 19138  1  0
 20139  1  0
 21140  1  0
 22141  1  0
 22142  1  0
 23143  1  0
 28144  1  0
 29145  1  0
 32146  1  0
 32147  1  0
 32148  1  0
 33149  1  0
 34150  1  0
 36151  1  0
 37152  1  0
 40153  1  0
 40154  1  0
 40155  1  0
 41156  1  0
 42157  1  0
 49158  1  0
 50159  1  0
 53160  1  0
 53161  1  0
 53162  1  0
 54163  1  0
 55164  1  0
 57165  1  0
 58166  1  0
 61167  1  0
 61168  1  0
 61169  1  0
 62170  1  0
 63171  1  0
 70172  1  0
 71173  1  0
 74174  1  0
 74175  1  0
 74176  1  0
 75177  1  0
 76178  1  0
 78179  1  0
 79180  1  0
 82181  1  0
 82182  1  0
 82183  1  0
 83184  1  0
 84185  1  0
 91186  1  0
 92187  1  0
 95188  1  0
 95189  1  0
 95190  1  0
 96191  1  0
 97192  1  0
 99193  1  0
100194  1  0
103195  1  0
103196  1  0
103197  1  0
104198  1  0
105199  1  0
109200  1  0
110201  1  0
113202  1  0
M  END

