
     RDKit          3D

162179  0  0  0  0  0  0  0  0999 V2000
   -5.1946   -0.2696   -4.6171 C   0  0  0  0  0  0  0  0  0  0  0  0
   -5.8643    0.8005   -5.0900 C   0  0  0  0  0  0  0  0  0  0  0  0
   -5.3637    2.1823   -5.0721 C   0  0  0  0  0  0  0  0  0  0  0  0
   -4.2682    2.5788   -4.5937 O   0  0  0  0  0  0  0  0  0  0  0  0
   -6.2872    3.0208   -5.7957 C   0  0  0  0  0  0  0  0  0  0  0  0
   -6.2141    4.4227   -5.9323 C   0  0  0  0  0  0  0  0  0  0  0  0
   -7.3008    4.9793   -6.5805 C   0  0  0  0  0  0  0  0  0  0  0  0
   -8.3910    4.2034   -7.0844 C   0  0  0  0  0  0  0  0  0  0  0  0
   -8.4596    2.8278   -6.9655 C   0  0  0  0  0  0  0  0  0  0  0  0
   -7.3522    2.2284   -6.2955 C   0  0  0  0  0  0  0  0  0  0  0  0
   -7.1391    0.8050   -5.8856 C   0  0  0  0  0  0  0  0  0  0  0  0
   -7.9808   -0.2400   -6.1066 C   0  0  0  0  0  0  0  0  0  0  0  0
   -7.8803   -1.4883   -5.3971 C   0  0  0  0  0  0  0  0  0  0  0  0
   -7.8094   -2.4944   -4.8292 N   0  0  0  0  0  0  0  0  0  0  0  0
   -9.0648   -0.1778   -7.0526 C   0  0  0  0  0  0  0  0  0  0  0  0
   -9.9369   -0.1582   -7.8075 N   0  0  0  0  0  0  0  0  0  0  0  0
   -9.0746    5.4447   -7.5656 C   0  0  0  0  0  0  0  0  0  0  0  0
   -9.0616    5.7447   -9.0949 C   0  0  0  0  0  0  0  0  0  0  0  0
   -7.8049    5.1862   -9.7222 C   0  0  0  0  0  0  0  0  0  0  0  0
   -6.7926    5.9169   -9.2513 C   0  0  0  0  0  0  0  0  0  0  0  0
   -7.3915    6.9414   -8.3179 C   0  0  0  0  0  0  0  0  0  0  0  0
   -8.6852    7.2159   -9.0647 C   0  0  0  0  0  0  0  0  0  0  0  0
   -7.9594    6.2431   -7.0513 C   0  0  0  0  0  0  0  0  0  0  0  0
   -4.0068   -0.1914   -3.7403 C   0  0  0  0  0  0  0  0  0  0  0  0
   -4.0230    0.5234   -2.5385 C   0  0  0  0  0  0  0  0  0  0  0  0
   -2.8886    0.5684   -1.6806 C   0  0  0  0  0  0  0  0  0  0  0  0
   -3.0921    1.3864   -0.5325 N   0  0  0  0  0  0  0  0  0  0  0  0
   -4.5973    1.8662   -0.7296 S   0  0  0  0  0  4  0  0  0  0  0  0
   -5.1693    1.2525   -2.0786 N   0  0  0  0  0  0  0  0  0  0  0  0
   -1.6962   -0.1468   -1.9697 C   0  0  0  0  0  0  0  0  0  0  0  0
   -1.7202   -0.9221   -3.1666 C   0  0  0  0  0  0  0  0  0  0  0  0
   -0.6946   -1.7202   -3.5582 N   0  0  0  0  0  0  0  0  0  0  0  0
   -1.2715   -2.3557   -4.9645 S   0  0  0  0  0  0  0  0  0  0  0  0
   -2.7736   -1.7100   -5.1504 N   0  0  0  0  0  0  0  0  0  0  0  0
   -2.8613   -0.9348   -4.0368 C   0  0  0  0  0  0  0  0  0  0  0  0
   -0.4791   -0.1777   -1.0610 C   0  0  0  0  0  0  0  0  0  0  0  0
   -0.4003   -0.0998    0.3607 C   0  0  0  0  0  0  0  0  0  0  0  0
   -1.2071    0.7348    1.2081 N   0  0  0  0  0  0  0  0  0  0  0  0
   -1.9237    0.0925    2.2827 C   0  0  0  0  0  0  0  0  0  0  0  0
   -1.7042    0.4678    3.6221 C   0  0  0  0  0  0  0  0  0  0  0  0
   -2.3831   -0.1796    4.6535 C   0  0  0  0  0  0  0  0  0  0  0  0
   -3.2797   -1.2133    4.3687 C   0  0  0  0  0  0  0  0  0  0  0  0
   -4.1618   -2.0403    5.6919 S   0  0  0  0  0  0  0  0  0  0  0  0
   -2.8894   -3.3167    5.9154 C   0  0  0  0  0  0  0  0  0  0  0  0
   -3.4882   -1.6067    3.0425 C   0  0  0  0  0  0  0  0  0  0  0  0
   -2.8120   -0.9577    2.0016 C   0  0  0  0  0  0  0  0  0  0  0  0
   -1.0041    2.1784    1.1959 C   0  0  0  0  0  0  0  0  0  0  0  0
    0.0889    2.7581    0.5141 C   0  0  0  0  0  0  0  0  0  0  0  0
    0.2358    4.1439    0.4425 C   0  0  0  0  0  0  0  0  0  0  0  0
   -0.7011    4.9803    1.0548 C   0  0  0  0  0  0  0  0  0  0  0  0
   -0.5101    6.7613    0.9613 S   0  0  0  0  0  0  0  0  0  0  0  0
    0.5812    6.8362    2.4175 C   0  0  0  0  0  0  0  0  0  0  0  0
   -1.7872    4.4279    1.7373 C   0  0  0  0  0  0  0  0  0  0  0  0
   -1.9460    3.0380    1.7969 C   0  0  0  0  0  0  0  0  0  0  0  0
    0.8248   -0.5634    0.8373 C   0  0  0  0  0  0  0  0  0  0  0  0
    1.4420   -0.8167    2.3687 S   0  0  0  0  0  0  0  0  0  0  0  0
    2.9528   -1.3774    1.8098 C   0  0  0  0  0  0  0  0  0  0  0  0
    2.9864   -1.3174    0.3990 C   0  0  0  0  0  0  0  0  0  0  0  0
    4.1669   -1.4744   -0.4256 N   0  0  0  0  0  0  0  0  0  0  0  0
    4.4029   -0.5881   -1.5368 C   0  0  0  0  0  0  0  0  0  0  0  0
    4.9052   -1.0903   -2.7481 C   0  0  0  0  0  0  0  0  0  0  0  0
    5.0987   -0.2389   -3.8410 C   0  0  0  0  0  0  0  0  0  0  0  0
    4.7922    1.1243   -3.7344 C   0  0  0  0  0  0  0  0  0  0  0  0
    5.0242    2.2101   -5.1406 S   0  0  0  0  0  0  0  0  0  0  0  0
    6.7223    2.6606   -4.6712 C   0  0  0  0  0  0  0  0  0  0  0  0
    4.3065    1.6327   -2.5249 C   0  0  0  0  0  0  0  0  0  0  0  0
    4.1215    0.7847   -1.4285 C   0  0  0  0  0  0  0  0  0  0  0  0
    5.2262   -2.3568   -0.0288 C   0  0  0  0  0  0  0  0  0  0  0  0
    5.1903   -3.7076   -0.3974 C   0  0  0  0  0  0  0  0  0  0  0  0
    6.1952   -4.5785    0.0254 C   0  0  0  0  0  0  0  0  0  0  0  0
    7.2476   -4.1044    0.8203 C   0  0  0  0  0  0  0  0  0  0  0  0
    8.5254   -5.2324    1.3793 S   0  0  0  0  0  0  0  0  0  0  0  0
    7.5837   -5.7737    2.8363 C   0  0  0  0  0  0  0  0  0  0  0  0
    7.2990   -2.7512    1.1710 C   0  0  0  0  0  0  0  0  0  0  0  0
    6.2993   -1.8741    0.7340 C   0  0  0  0  0  0  0  0  0  0  0  0
    1.7527   -0.8814   -0.0876 C   0  0  0  0  0  0  0  0  0  0  0  0
    1.0753   -0.6812   -1.5954 S   0  0  0  0  0  0  0  0  0  0  0  0
    3.8436   -2.1447    2.6901 C   0  0  0  0  0  0  0  0  0  0  0  0
    3.8179   -3.5326    2.6625 C   0  0  0  0  0  0  0  0  0  0  0  0
    4.4161   -4.2841    3.6073 C   0  0  0  0  0  0  0  0  0  0  0  0
    4.0874   -5.5706    3.3886 N   0  0  0  0  0  0  0  0  0  0  0  0
    3.3268   -5.5420    2.3237 O   0  0  0  0  0  0  0  0  0  0  0  0
    3.1149   -4.3415    1.8523 N   0  0  0  0  0  0  0  0  0  0  0  0
    5.0590   -3.7259    4.7154 C   0  0  0  0  0  0  0  0  0  0  0  0
    5.2197   -2.3084    4.7318 C   0  0  0  0  0  0  0  0  0  0  0  0
    5.8994   -1.6412    5.7654 O   0  0  0  0  0  0  0  0  0  0  0  0
    7.0687   -2.1076    6.4362 C   0  0  0  0  0  0  0  0  0  0  0  0
    8.2615   -2.1233    5.4913 C   0  0  0  0  0  0  0  0  0  0  0  0
    4.5896   -1.5204    3.7147 C   0  0  0  0  0  0  0  0  0  0  0  0
    4.6567   -0.1205    3.7044 O   0  0  0  0  0  0  0  0  0  0  0  0
    5.8284    0.6314    3.9923 C   0  0  0  0  0  0  0  0  0  0  0  0
    5.6342    2.0425    3.4718 C   0  0  0  0  0  0  0  0  0  0  0  0
    5.1721   -4.5821    5.9180 C   0  0  0  0  0  0  0  0  0  0  0  0
    4.0498   -4.9394    6.5682 C   0  0  0  0  0  0  0  0  0  0  0  0
    3.6963   -6.3452    6.7400 C   0  0  0  0  0  0  0  0  0  0  0  0
    4.5111   -7.2757    6.9725 O   0  0  0  0  0  0  0  0  0  0  0  0
    2.2724   -6.5025    6.4489 C   0  0  0  0  0  0  0  0  0  0  0  0
    1.7248   -5.2504    6.2193 C   0  0  0  0  0  0  0  0  0  0  0  0
    0.3969   -5.1167    5.7928 C   0  0  0  0  0  0  0  0  0  0  0  0
   -0.3831   -6.2702    5.6403 C   0  0  0  0  0  0  0  0  0  0  0  0
    0.1674   -7.5447    5.8784 C   0  0  0  0  0  0  0  0  0  0  0  0
   -0.9266   -9.0868    5.5711 Br  0  0  0  0  0  0  0  0  0  0  0  0
    1.5175   -7.6740    6.2779 C   0  0  0  0  0  0  0  0  0  0  0  0
    2.2576   -9.2526    6.4836 Cl  0  0  0  0  0  0  0  0  0  0  0  0
    2.7596   -4.2174    6.4361 C   0  0  0  0  0  0  0  0  0  0  0  0
    2.5628   -2.9316    6.8084 C   0  0  0  0  0  0  0  0  0  0  0  0
    3.5599   -2.2269    7.5724 C   0  0  0  0  0  0  0  0  0  0  0  0
    4.3511   -1.6641    8.2039 N   0  0  0  0  0  0  0  0  0  0  0  0
    1.3253   -2.2320    6.6162 C   0  0  0  0  0  0  0  0  0  0  0  0
    0.3453   -1.6353    6.4578 N   0  0  0  0  0  0  0  0  0  0  0  0
   -5.4730   -1.2638   -4.9157 H   0  0  0  0  0  0  0  0  0  0  0  0
   -5.4040    5.0236   -5.5317 H   0  0  0  0  0  0  0  0  0  0  0  0
   -9.3268    2.3006   -7.3265 H   0  0  0  0  0  0  0  0  0  0  0  0
  -10.0453    5.6536   -7.0553 H   0  0  0  0  0  0  0  0  0  0  0  0
  -10.0054    5.5076   -9.6337 H   0  0  0  0  0  0  0  0  0  0  0  0
   -7.7334    4.4134  -10.4763 H   0  0  0  0  0  0  0  0  0  0  0  0
   -5.7551    5.8368   -9.5590 H   0  0  0  0  0  0  0  0  0  0  0  0
   -6.7591    7.8324   -8.1258 H   0  0  0  0  0  0  0  0  0  0  0  0
   -9.4064    7.8493   -8.4959 H   0  0  0  0  0  0  0  0  0  0  0  0
   -8.5293    7.6550  -10.0793 H   0  0  0  0  0  0  0  0  0  0  0  0
   -8.2462    6.9312   -6.2220 H   0  0  0  0  0  0  0  0  0  0  0  0
   -1.0031    1.2563    3.8607 H   0  0  0  0  0  0  0  0  0  0  0  0
   -2.2153    0.1247    5.6814 H   0  0  0  0  0  0  0  0  0  0  0  0
   -2.7194   -3.8582    4.9610 H   0  0  0  0  0  0  0  0  0  0  0  0
   -1.9503   -2.8407    6.2556 H   0  0  0  0  0  0  0  0  0  0  0  0
   -3.2198   -4.0366    6.6912 H   0  0  0  0  0  0  0  0  0  0  0  0
   -4.1708   -2.4166    2.8089 H   0  0  0  0  0  0  0  0  0  0  0  0
   -2.9795   -1.2715    0.9798 H   0  0  0  0  0  0  0  0  0  0  0  0
    0.8369    2.1488    0.0255 H   0  0  0  0  0  0  0  0  0  0  0  0
    1.0742    4.5702   -0.0981 H   0  0  0  0  0  0  0  0  0  0  0  0
    0.9116    7.8839    2.5707 H   0  0  0  0  0  0  0  0  0  0  0  0
    1.4743    6.1927    2.2608 H   0  0  0  0  0  0  0  0  0  0  0  0
    0.0315    6.4950    3.3187 H   0  0  0  0  0  0  0  0  0  0  0  0
   -2.5232    5.0690    2.2020 H   0  0  0  0  0  0  0  0  0  0  0  0
   -2.8191    2.6410    2.2977 H   0  0  0  0  0  0  0  0  0  0  0  0
    5.1363   -2.1432   -2.8529 H   0  0  0  0  0  0  0  0  0  0  0  0
    5.4814   -0.6389   -4.7740 H   0  0  0  0  0  0  0  0  0  0  0  0
    7.1341    3.3592   -5.4271 H   0  0  0  0  0  0  0  0  0  0  0  0
    6.7179    3.1606   -3.6802 H   0  0  0  0  0  0  0  0  0  0  0  0
    7.3595    1.7521   -4.6325 H   0  0  0  0  0  0  0  0  0  0  0  0
    4.0771    2.6880   -2.4287 H   0  0  0  0  0  0  0  0  0  0  0  0
    3.7517    1.1995   -0.5023 H   0  0  0  0  0  0  0  0  0  0  0  0
    4.3692   -4.0829   -0.9963 H   0  0  0  0  0  0  0  0  0  0  0  0
    6.1522   -5.6265   -0.2535 H   0  0  0  0  0  0  0  0  0  0  0  0
    7.4039   -4.9137    3.5147 H   0  0  0  0  0  0  0  0  0  0  0  0
    6.6155   -6.2060    2.5104 H   0  0  0  0  0  0  0  0  0  0  0  0
    8.1562   -6.5528    3.3825 H   0  0  0  0  0  0  0  0  0  0  0  0
    8.1114   -2.3745    1.7847 H   0  0  0  0  0  0  0  0  0  0  0  0
    6.3440   -0.8277    1.0127 H   0  0  0  0  0  0  0  0  0  0  0  0
    7.2913   -1.4099    7.2667 H   0  0  0  0  0  0  0  0  0  0  0  0
    6.9200   -3.0997    6.8937 H   0  0  0  0  0  0  0  0  0  0  0  0
    8.0347   -2.7139    4.5845 H   0  0  0  0  0  0  0  0  0  0  0  0
    9.1338   -2.5798    6.0049 H   0  0  0  0  0  0  0  0  0  0  0  0
    8.5180   -1.0880    5.1959 H   0  0  0  0  0  0  0  0  0  0  0  0
    6.7062    0.1752    3.4786 H   0  0  0  0  0  0  0  0  0  0  0  0
    6.0196    0.6694    5.0883 H   0  0  0  0  0  0  0  0  0  0  0  0
    4.7956    2.5318    4.0109 H   0  0  0  0  0  0  0  0  0  0  0  0
    6.5681    2.6300    3.6291 H   0  0  0  0  0  0  0  0  0  0  0  0
    5.4046    2.0207    2.3835 H   0  0  0  0  0  0  0  0  0  0  0  0
    6.0218   -5.2580    5.9461 H   0  0  0  0  0  0  0  0  0  0  0  0
   -0.0241   -4.1584    5.5442 H   0  0  0  0  0  0  0  0  0  0  0  0
   -1.4076   -6.1763    5.3034 H   0  0  0  0  0  0  0  0  0  0  0  0
  1  2  2  3
  2  3  1  0
  3  4  2  0
  3  5  1  0
  5  6  2  0
  6  7  1  0
  7  8  2  0
  8  9  1  0
  9 10  2  0
 10 11  1  0
 11 12  2  3
 12 13  1  0
 13 14  3  0
 12 15  1  0
 15 16  3  0
  8 17  1  0
 17 18  1  0
 18 19  1  0
 19 20  2  0
 20 21  1  0
 21 22  1  0
 21 23  1  0
  1 24  1  0
 24 25  2  0
 25 26  1  0
 26 27  1  0
 27 28  2  0
 28 29  2  0
 26 30  2  0
 30 31  1  0
 31 32  2  0
 32 33  1  0
 33 34  1  0
 34 35  2  0
 30 36  1  0
 36 37  2  0
 37 38  1  0
 38 39  1  0
 39 40  2  0
 40 41  1  0
 41 42  2  0
 42 43  1  0
 43 44  1  0
 42 45  1  0
 45 46  2  0
 38 47  1  0
 47 48  2  0
 48 49  1  0
 49 50  2  0
 50 51  1  0
 51 52  1  0
 50 53  1  0
 53 54  2  0
 37 55  1  0
 55 56  1  0
 56 57  1  0
 57 58  2  0
 58 59  1  0
 59 60  1  0
 60 61  2  0
 61 62  1  0
 62 63  2  0
 63 64  1  0
 64 65  1  0
 63 66  1  0
 66 67  2  0
 59 68  1  0
 68 69  2  0
 69 70  1  0
 70 71  2  0
 71 72  1  0
 72 73  1  0
 71 74  1  0
 74 75  2  0
 58 76  1  0
 76 77  1  0
 57 78  1  0
 78 79  1  0
 79 80  1  0
 80 81  2  0
 81 82  1  0
 82 83  1  0
 80 84  1  0
 84 85  2  0
 85 86  1  0
 86 87  1  0
 87 88  1  0
 85 89  1  0
 89 90  1  0
 90 91  1  0
 91 92  1  0
 84 93  1  0
 93 94  2  3
 94 95  1  0
 95 96  2  0
 95 97  1  0
 97 98  2  0
 98 99  1  0
 99100  2  0
100101  1  0
101102  1  0
101103  2  0
103104  1  0
 98105  1  0
105106  2  3
106107  1  0
107108  3  0
106109  1  0
109110  3  0
 11  2  1  0
 23 17  1  0
 35 24  1  0
 77 36  1  0
 89 78  2  0
105 94  1  0
 10  5  1  0
 22 18  1  0
 29 25  1  0
 35 31  1  0
 46 39  1  0
 54 47  1  0
 76 55  2  0
 83 79  2  0
103 97  1  0
 23  7  1  0
 67 60  1  0
 75 68  1  0
  1111  1  0
  6112  1  0
  9113  1  0
 17114  1  0
 18115  1  0
 19116  1  0
 20117  1  0
 21118  1  0
 22119  1  0
 22120  1  0
 23121  1  0
 40122  1  0
 41123  1  0
 44124  1  0
 44125  1  0
 44126  1  0
 45127  1  0
 46128  1  0
 48129  1  0
 49130  1  0
 52131  1  0
 52132  1  0
 52133  1  0
 53134  1  0
 54135  1  0
 61136  1  0
 62137  1  0
 65138  1  0
 65139  1  0
 65140  1  0
 66141  1  0
 67142  1  0
 69143  1  0
 70144  1  0
 73145  1  0
 73146  1  0
 73147  1  0
 74148  1  0
 75149  1  0
 87150  1  0
 87151  1  0
 88152  1  0
 88153  1  0
 88154  1  0
 91155  1  0
 91156  1  0
 92157  1  0
 92158  1  0
 92159  1  0
 93160  1  0
 99161  1  0
100162  1  0
M  END

