
     RDKit          3D

196217  0  0  0  0  0  0  0  0999 V2000
   -6.9265   -2.2029    0.6325 C   0  0  0  0  0  0  0  0  0  0  0  0
   -7.3472   -1.0457    1.1732 C   0  0  0  0  0  0  0  0  0  0  0  0
   -6.4585   -0.0014    1.7043 C   0  0  0  0  0  0  0  0  0  0  0  0
   -5.3360   -0.1912    2.2504 O   0  0  0  0  0  0  0  0  0  0  0  0
   -7.0591    1.2848    1.4430 C   0  0  0  0  0  0  0  0  0  0  0  0
   -6.4177    2.5406    1.5177 C   0  0  0  0  0  0  0  0  0  0  0  0
   -7.1306    3.5597    0.9212 C   0  0  0  0  0  0  0  0  0  0  0  0
   -8.3956    3.3646    0.2828 C   0  0  0  0  0  0  0  0  0  0  0  0
   -9.0448    2.1435    0.2329 C   0  0  0  0  0  0  0  0  0  0  0  0
   -8.3368    1.0820    0.8601 C   0  0  0  0  0  0  0  0  0  0  0  0
   -8.6299   -0.3725    0.8370 C   0  0  0  0  0  0  0  0  0  0  0  0
   -9.8401   -0.9683    0.7138 C   0  0  0  0  0  0  0  0  0  0  0  0
  -11.0442   -0.2148    0.4612 C   0  0  0  0  0  0  0  0  0  0  0  0
  -12.0172    0.3792    0.2437 N   0  0  0  0  0  0  0  0  0  0  0  0
  -10.0239   -2.3747    0.9671 C   0  0  0  0  0  0  0  0  0  0  0  0
  -10.1769   -3.5036    1.1688 N   0  0  0  0  0  0  0  0  0  0  0  0
   -8.3873    4.7812   -0.2054 C   0  0  0  0  0  0  0  0  0  0  0  0
   -8.0595    5.0215   -1.7118 C   0  0  0  0  0  0  0  0  0  0  0  0
   -7.1146    3.9552   -2.2192 C   0  0  0  0  0  0  0  0  0  0  0  0
   -5.9487    4.1479   -1.6023 C   0  0  0  0  0  0  0  0  0  0  0  0
   -6.1348    5.3457   -0.7037 C   0  0  0  0  0  0  0  0  0  0  0  0
   -7.0682    6.1642   -1.5795 C   0  0  0  0  0  0  0  0  0  0  0  0
   -7.1021    4.9868    0.4656 C   0  0  0  0  0  0  0  0  0  0  0  0
   -5.4963   -2.4733    0.3937 C   0  0  0  0  0  0  0  0  0  0  0  0
   -4.8130   -3.5235    1.0350 C   0  0  0  0  0  0  0  0  0  0  0  0
   -5.3621   -4.4170    1.9643 C   0  0  0  0  0  0  0  0  0  0  0  0
   -4.4139   -5.2997    2.4749 C   0  0  0  0  0  0  0  0  0  0  0  0
   -4.6901   -6.3622    3.4883 C   0  0  0  0  0  0  0  0  0  0  0  0
   -5.0942   -7.6636    2.8038 C   0  0  0  0  0  0  0  0  0  0  0  0
   -2.9097   -5.0084    1.7671 S   0  0  0  0  0  0  0  0  0  0  0  0
   -3.4420   -3.7165    0.8255 C   0  0  0  0  0  0  0  0  0  0  0  0
   -2.6844   -2.8665    0.0015 C   0  0  0  0  0  0  0  0  0  0  0  0
   -3.3768   -1.8489   -0.6789 C   0  0  0  0  0  0  0  0  0  0  0  0
   -4.7517   -1.6774   -0.4954 C   0  0  0  0  0  0  0  0  0  0  0  0
   -5.2699   -0.3841   -1.4490 S   0  0  0  0  0  0  0  0  0  0  0  0
   -3.7490   -0.0257   -2.0856 C   0  0  0  0  0  0  0  0  0  0  0  0
   -3.4764    1.0186   -3.1209 C   0  0  0  0  0  0  0  0  0  0  0  0
   -3.4640    0.4014   -4.5161 C   0  0  0  0  0  0  0  0  0  0  0  0
   -2.8151   -0.9257   -1.5803 C   0  0  0  0  0  0  0  0  0  0  0  0
   -1.2158   -2.8825   -0.0018 C   0  0  0  0  0  0  0  0  0  0  0  0
   -0.4519   -1.8939    0.6243 C   0  0  0  0  0  0  0  0  0  0  0  0
   -0.8716   -1.1826    1.8004 N   0  0  0  0  0  0  0  0  0  0  0  0
   -0.6612   -1.8604    3.0514 C   0  0  0  0  0  0  0  0  0  0  0  0
   -1.7211   -2.5399    3.6697 C   0  0  0  0  0  0  0  0  0  0  0  0
   -1.4789   -3.3728    4.7645 C   0  0  0  0  0  0  0  0  0  0  0  0
   -0.1768   -3.5166    5.2584 C   0  0  0  0  0  0  0  0  0  0  0  0
    0.1539   -4.6696    6.5904 S   0  0  0  0  0  0  0  0  0  0  0  0
    0.5626   -6.0322    5.4553 C   0  0  0  0  0  0  0  0  0  0  0  0
    0.8736   -2.7900    4.6856 C   0  0  0  0  0  0  0  0  0  0  0  0
    0.6292   -1.9617    3.5900 C   0  0  0  0  0  0  0  0  0  0  0  0
   -1.3942    0.1682    1.7412 C   0  0  0  0  0  0  0  0  0  0  0  0
   -1.1844    0.9749    0.6064 C   0  0  0  0  0  0  0  0  0  0  0  0
   -1.6456    2.2974    0.5751 C   0  0  0  0  0  0  0  0  0  0  0  0
   -2.3139    2.8351    1.6756 C   0  0  0  0  0  0  0  0  0  0  0  0
   -2.7804    4.5664    1.6806 S   0  0  0  0  0  0  0  0  0  0  0  0
   -1.2259    5.0927    2.4802 C   0  0  0  0  0  0  0  0  0  0  0  0
   -2.5694    2.0330    2.7905 C   0  0  0  0  0  0  0  0  0  0  0  0
   -2.1105    0.7117    2.8276 C   0  0  0  0  0  0  0  0  0  0  0  0
    0.8446   -1.8881    0.1410 C   0  0  0  0  0  0  0  0  0  0  0  0
    2.1979   -0.9620    0.4646 S   0  0  0  0  0  0  0  0  0  0  0  0
    3.1931   -1.8322   -0.6084 C   0  0  0  0  0  0  0  0  0  0  0  0
    2.4483   -2.8393   -1.2443 C   0  0  0  0  0  0  0  0  0  0  0  0
    3.0544   -3.9740   -1.8803 N   0  0  0  0  0  0  0  0  0  0  0  0
    3.7184   -4.8817   -0.9814 C   0  0  0  0  0  0  0  0  0  0  0  0
    2.9748   -5.5711   -0.0169 C   0  0  0  0  0  0  0  0  0  0  0  0
    3.6074   -6.3302    0.9667 C   0  0  0  0  0  0  0  0  0  0  0  0
    5.0109   -6.3792    1.0146 C   0  0  0  0  0  0  0  0  0  0  0  0
    5.8082   -7.3742    2.2796 S   0  0  0  0  0  0  0  0  0  0  0  0
    5.6510   -6.1346    3.6082 C   0  0  0  0  0  0  0  0  0  0  0  0
    5.7618   -5.6950    0.0569 C   0  0  0  0  0  0  0  0  0  0  0  0
    5.1258   -4.9487   -0.9448 C   0  0  0  0  0  0  0  0  0  0  0  0
    3.1288   -4.1021   -3.3265 C   0  0  0  0  0  0  0  0  0  0  0  0
    2.5573   -3.1217   -4.1672 C   0  0  0  0  0  0  0  0  0  0  0  0
    2.7282   -3.1832   -5.5548 C   0  0  0  0  0  0  0  0  0  0  0  0
    3.4278   -4.2440   -6.1357 C   0  0  0  0  0  0  0  0  0  0  0  0
    3.7234   -4.2655   -7.9087 S   0  0  0  0  0  0  0  0  0  0  0  0
    2.1028   -4.9848   -8.3168 C   0  0  0  0  0  0  0  0  0  0  0  0
    3.9283   -5.2692   -5.3222 C   0  0  0  0  0  0  0  0  0  0  0  0
    3.7828   -5.1958   -3.9296 C   0  0  0  0  0  0  0  0  0  0  0  0
    1.1280   -2.8288   -0.7954 C   0  0  0  0  0  0  0  0  0  0  0  0
   -0.2532   -3.7294   -1.1284 S   0  0  0  0  0  0  0  0  0  0  0  0
    4.5414   -1.3688   -0.9681 C   0  0  0  0  0  0  0  0  0  0  0  0
    4.7083   -0.3641   -1.9514 C   0  0  0  0  0  0  0  0  0  0  0  0
    3.7235    0.0822   -2.8457 C   0  0  0  0  0  0  0  0  0  0  0  0
    4.1296    1.1795   -3.6000 C   0  0  0  0  0  0  0  0  0  0  0  0
    3.3187    1.8468   -4.6162 C   0  0  0  0  0  0  0  0  0  0  0  0
    3.7992    2.7970   -5.2883 O   0  0  0  0  0  0  0  0  0  0  0  0
    2.0161    1.3901   -4.8541 O   0  0  0  0  0  0  0  0  0  0  0  0
    1.1928    1.9015   -5.8920 C   0  0  0  0  0  0  0  0  0  0  0  0
   -0.1018    1.1065   -5.9356 C   0  0  0  0  0  0  0  0  0  0  0  0
    5.6799    1.6427   -3.1338 S   0  0  0  0  0  0  0  0  0  0  0  0
    5.8693    0.4205   -1.9890 C   0  0  0  0  0  0  0  0  0  0  0  0
    6.8757    0.3091   -1.0175 C   0  0  0  0  0  0  0  0  0  0  0  0
    6.7417   -0.7563   -0.1188 C   0  0  0  0  0  0  0  0  0  0  0  0
    5.6241   -1.5581   -0.0950 C   0  0  0  0  0  0  0  0  0  0  0  0
    5.6870   -2.3325    0.9995 N   0  0  0  0  0  0  0  0  0  0  0  0
    6.8355   -2.0007    1.5910 N   0  0  0  0  0  0  0  0  0  0  0  0
    7.3219   -2.6107    2.8148 C   0  0  0  0  0  0  0  0  0  0  0  0
    6.3514   -2.3646    3.9647 C   0  0  0  0  0  0  0  0  0  0  0  0
    7.4861   -1.0255    0.9598 N   0  0  0  0  0  0  0  0  0  0  0  0
    7.7039    1.4845   -0.7016 C   0  0  0  0  0  0  0  0  0  0  0  0
    7.1654    2.5029    0.0037 C   0  0  0  0  0  0  0  0  0  0  0  0
    5.8285    2.4732    0.6246 C   0  0  0  0  0  0  0  0  0  0  0  0
    5.2393    1.4568    1.0837 O   0  0  0  0  0  0  0  0  0  0  0  0
    5.2772    3.8079    0.6157 C   0  0  0  0  0  0  0  0  0  0  0  0
    3.9378    4.1662    0.8916 C   0  0  0  0  0  0  0  0  0  0  0  0
    3.6493    5.4811    0.5839 C   0  0  0  0  0  0  0  0  0  0  0  0
    4.6069    6.3922    0.0366 C   0  0  0  0  0  0  0  0  0  0  0  0
    5.9274    6.0457   -0.2174 C   0  0  0  0  0  0  0  0  0  0  0  0
    6.2533    4.7007    0.1100 C   0  0  0  0  0  0  0  0  0  0  0  0
    7.5143    3.9480   -0.1451 C   0  0  0  0  0  0  0  0  0  0  0  0
    8.7567    4.4686   -0.2601 C   0  0  0  0  0  0  0  0  0  0  0  0
    9.9260    3.6319   -0.3446 C   0  0  0  0  0  0  0  0  0  0  0  0
   10.8594    2.9574   -0.4253 N   0  0  0  0  0  0  0  0  0  0  0  0
    9.0079    5.8806   -0.1273 C   0  0  0  0  0  0  0  0  0  0  0  0
    9.2142    7.0104    0.0030 N   0  0  0  0  0  0  0  0  0  0  0  0
    3.5702    7.4715   -0.0237 C   0  0  0  0  0  0  0  0  0  0  0  0
    3.6749    8.5945    1.0489 C   0  0  0  0  0  0  0  0  0  0  0  0
    2.3392    9.2986    1.0434 C   0  0  0  0  0  0  0  0  0  0  0  0
    1.4546    8.4419    1.5701 C   0  0  0  0  0  0  0  0  0  0  0  0
    2.2236    7.1900    1.9143 C   0  0  0  0  0  0  0  0  0  0  0  0
    3.5312    7.8276    2.3556 C   0  0  0  0  0  0  0  0  0  0  0  0
    2.5919    6.5392    0.5474 C   0  0  0  0  0  0  0  0  0  0  0  0
   -7.6274   -2.8579    0.1346 H   0  0  0  0  0  0  0  0  0  0  0  0
   -5.4210    2.6720    1.9104 H   0  0  0  0  0  0  0  0  0  0  0  0
   -9.9622    2.0180   -0.3247 H   0  0  0  0  0  0  0  0  0  0  0  0
   -9.2140    5.4018    0.1979 H   0  0  0  0  0  0  0  0  0  0  0  0
   -8.9394    5.2196   -2.3627 H   0  0  0  0  0  0  0  0  0  0  0  0
   -7.3121    3.2062   -2.9781 H   0  0  0  0  0  0  0  0  0  0  0  0
   -5.0349    3.5894   -1.7704 H   0  0  0  0  0  0  0  0  0  0  0  0
   -5.1950    5.8518   -0.3991 H   0  0  0  0  0  0  0  0  0  0  0  0
   -6.6128    6.4730   -2.5493 H   0  0  0  0  0  0  0  0  0  0  0  0
   -7.4871    7.0602   -1.0615 H   0  0  0  0  0  0  0  0  0  0  0  0
   -7.1471    5.7321    1.2888 H   0  0  0  0  0  0  0  0  0  0  0  0
   -6.4018   -4.4092    2.2688 H   0  0  0  0  0  0  0  0  0  0  0  0
   -3.7798   -6.5357    4.0999 H   0  0  0  0  0  0  0  0  0  0  0  0
   -5.5078   -6.0343    4.1657 H   0  0  0  0  0  0  0  0  0  0  0  0
   -5.3302   -8.4321    3.5720 H   0  0  0  0  0  0  0  0  0  0  0  0
   -4.2575   -8.0339    2.1717 H   0  0  0  0  0  0  0  0  0  0  0  0
   -5.9910   -7.5074    2.1674 H   0  0  0  0  0  0  0  0  0  0  0  0
   -2.4951    1.5037   -2.9129 H   0  0  0  0  0  0  0  0  0  0  0  0
   -4.2572    1.7968   -3.0786 H   0  0  0  0  0  0  0  0  0  0  0  0
   -4.4418   -0.0760   -4.7342 H   0  0  0  0  0  0  0  0  0  0  0  0
   -2.6560   -0.3570   -4.5950 H   0  0  0  0  0  0  0  0  0  0  0  0
   -3.2813    1.1962   -5.2693 H   0  0  0  0  0  0  0  0  0  0  0  0
   -1.7731   -0.9170   -1.8775 H   0  0  0  0  0  0  0  0  0  0  0  0
   -2.7247   -2.4520    3.2738 H   0  0  0  0  0  0  0  0  0  0  0  0
   -2.2947   -3.9301    5.2085 H   0  0  0  0  0  0  0  0  0  0  0  0
    1.4745   -5.7792    4.8784 H   0  0  0  0  0  0  0  0  0  0  0  0
    0.7494   -6.9537    6.0395 H   0  0  0  0  0  0  0  0  0  0  0  0
   -0.2805   -6.2167    4.7566 H   0  0  0  0  0  0  0  0  0  0  0  0
    1.8822   -2.8950    5.0645 H   0  0  0  0  0  0  0  0  0  0  0  0
    1.4515   -1.4274    3.1384 H   0  0  0  0  0  0  0  0  0  0  0  0
   -0.6358    0.6028   -0.2460 H   0  0  0  0  0  0  0  0  0  0  0  0
   -1.4593    2.9066   -0.3002 H   0  0  0  0  0  0  0  0  0  0  0  0
   -1.1810    4.6973    3.5197 H   0  0  0  0  0  0  0  0  0  0  0  0
   -0.3460    4.7249    1.9079 H   0  0  0  0  0  0  0  0  0  0  0  0
   -1.1885    6.2008    2.5121 H   0  0  0  0  0  0  0  0  0  0  0  0
   -3.1042    2.4389    3.6397 H   0  0  0  0  0  0  0  0  0  0  0  0
   -2.3195    0.1240    3.7095 H   0  0  0  0  0  0  0  0  0  0  0  0
    1.8921   -5.5106   -0.0177 H   0  0  0  0  0  0  0  0  0  0  0  0
    3.0207   -6.8427    1.7103 H   0  0  0  0  0  0  0  0  0  0  0  0
    5.5709   -6.6563    4.5797 H   0  0  0  0  0  0  0  0  0  0  0  0
    6.5543   -5.4964    3.6278 H   0  0  0  0  0  0  0  0  0  0  0  0
    4.7524   -5.4983    3.4817 H   0  0  0  0  0  0  0  0  0  0  0  0
    6.8454   -5.7233    0.0977 H   0  0  0  0  0  0  0  0  0  0  0  0
    5.7156   -4.3969   -1.6639 H   0  0  0  0  0  0  0  0  0  0  0  0
    1.9771   -2.3087   -3.7616 H   0  0  0  0  0  0  0  0  0  0  0  0
    2.3227   -2.3939   -6.1765 H   0  0  0  0  0  0  0  0  0  0  0  0
    1.9826   -5.9743   -7.8297 H   0  0  0  0  0  0  0  0  0  0  0  0
    1.2941   -4.2993   -7.9857 H   0  0  0  0  0  0  0  0  0  0  0  0
    2.0253   -5.1089   -9.4152 H   0  0  0  0  0  0  0  0  0  0  0  0
    4.4714   -6.0924   -5.7629 H   0  0  0  0  0  0  0  0  0  0  0  0
    4.1919   -6.0011   -3.3312 H   0  0  0  0  0  0  0  0  0  0  0  0
    2.7374   -0.3438   -2.9161 H   0  0  0  0  0  0  0  0  0  0  0  0
    0.9655    2.9749   -5.6994 H   0  0  0  0  0  0  0  0  0  0  0  0
    1.7190    1.8024   -6.8718 H   0  0  0  0  0  0  0  0  0  0  0  0
   -0.7216    1.4319   -6.7935 H   0  0  0  0  0  0  0  0  0  0  0  0
   -0.6696    1.2753   -4.9938 H   0  0  0  0  0  0  0  0  0  0  0  0
    0.1197    0.0210   -6.0370 H   0  0  0  0  0  0  0  0  0  0  0  0
    8.3184   -2.1916    3.0782 H   0  0  0  0  0  0  0  0  0  0  0  0
    7.4504   -3.6963    2.6408 H   0  0  0  0  0  0  0  0  0  0  0  0
    6.7644   -2.8161    4.8924 H   0  0  0  0  0  0  0  0  0  0  0  0
    5.3592   -2.8248    3.7492 H   0  0  0  0  0  0  0  0  0  0  0  0
    6.2222   -1.2726    4.1187 H   0  0  0  0  0  0  0  0  0  0  0  0
    8.5760    1.6469   -1.3158 H   0  0  0  0  0  0  0  0  0  0  0  0
    3.1938    3.4705    1.2573 H   0  0  0  0  0  0  0  0  0  0  0  0
    6.6090    6.7424   -0.6807 H   0  0  0  0  0  0  0  0  0  0  0  0
    3.3331    7.8045   -1.0582 H   0  0  0  0  0  0  0  0  0  0  0  0
    4.5643    9.2572    0.9657 H   0  0  0  0  0  0  0  0  0  0  0  0
    2.1378   10.3298    0.7681 H   0  0  0  0  0  0  0  0  0  0  0  0
    0.4148    8.6556    1.7929 H   0  0  0  0  0  0  0  0  0  0  0  0
    1.7358    6.5192    2.6534 H   0  0  0  0  0  0  0  0  0  0  0  0
    3.4210    8.4970    3.2458 H   0  0  0  0  0  0  0  0  0  0  0  0
    4.3526    7.1017    2.5534 H   0  0  0  0  0  0  0  0  0  0  0  0
    1.7353    6.2908   -0.1195 H   0  0  0  0  0  0  0  0  0  0  0  0
  1  2  2  3
  2  3  1  0
  3  4  2  0
  3  5  1  0
  5  6  2  0
  6  7  1  0
  7  8  2  0
  8  9  1  0
  9 10  2  0
 10 11  1  0
 11 12  2  3
 12 13  1  0
 13 14  3  0
 12 15  1  0
 15 16  3  0
  8 17  1  0
 17 18  1  0
 18 19  1  0
 19 20  2  0
 20 21  1  0
 21 22  1  0
 21 23  1  0
  1 24  1  0
 24 25  2  0
 25 26  1  0
 26 27  2  0
 27 28  1  0
 28 29  1  0
 27 30  1  0
 30 31  1  0
 31 32  2  0
 32 33  1  0
 33 34  2  0
 34 35  1  0
 35 36  1  0
 36 37  1  0
 37 38  1  0
 36 39  2  0
 32 40  1  0
 40 41  2  0
 41 42  1  0
 42 43  1  0
 43 44  2  0
 44 45  1  0
 45 46  2  0
 46 47  1  0
 47 48  1  0
 46 49  1  0
 49 50  2  0
 42 51  1  0
 51 52  2  0
 52 53  1  0
 53 54  2  0
 54 55  1  0
 55 56  1  0
 54 57  1  0
 57 58  2  0
 41 59  1  0
 59 60  1  0
 60 61  1  0
 61 62  2  0
 62 63  1  0
 63 64  1  0
 64 65  2  0
 65 66  1  0
 66 67  2  0
 67 68  1  0
 68 69  1  0
 67 70  1  0
 70 71  2  0
 63 72  1  0
 72 73  2  0
 73 74  1  0
 74 75  2  0
 75 76  1  0
 76 77  1  0
 75 78  1  0
 78 79  2  0
 62 80  1  0
 80 81  1  0
 61 82  1  0
 82 83  2  0
 83 84  1  0
 84 85  2  0
 85 86  1  0
 86 87  2  0
 86 88  1  0
 88 89  1  0
 89 90  1  0
 85 91  1  0
 91 92  1  0
 92 93  2  0
 93 94  1  0
 94 95  1  0
 95 96  2  0
 96 97  1  0
 97 98  1  0
 98 99  1  0
 97100  1  0
 93101  1  0
101102  2  3
102103  1  0
103104  2  0
103105  1  0
105106  2  0
106107  1  0
107108  2  0
108109  1  0
109110  2  0
110111  1  0
111112  2  3
112113  1  0
113114  3  0
112115  1  0
115116  3  0
108117  1  0
117118  1  0
118119  1  0
119120  2  0
120121  1  0
121122  1  0
121123  1  0
 11  2  1  0
 23 17  1  0
 34 24  1  0
 81 40  1  0
 95 82  1  0
111102  1  0
123117  1  0
 10  5  1  0
 22 18  1  0
 31 25  1  0
 39 33  1  0
 50 43  1  0
 58 51  1  0
 80 59  2  0
 92 83  1  0
100 94  2  0
110105  1  0
122118  1  0
 23  7  1  0
 71 64  1  0
 79 72  1  0
123107  1  0
  1124  1  0
  6125  1  0
  9126  1  0
 17127  1  0
 18128  1  0
 19129  1  0
 20130  1  0
 21131  1  0
 22132  1  0
 22133  1  0
 23134  1  0
 26135  1  0
 28136  1  0
 28137  1  0
 29138  1  0
 29139  1  0
 29140  1  0
 37141  1  0
 37142  1  0
 38143  1  0
 38144  1  0
 38145  1  0
 39146  1  0
 44147  1  0
 45148  1  0
 48149  1  0
 48150  1  0
 48151  1  0
 49152  1  0
 50153  1  0
 52154  1  0
 53155  1  0
 56156  1  0
 56157  1  0
 56158  1  0
 57159  1  0
 58160  1  0
 65161  1  0
 66162  1  0
 69163  1  0
 69164  1  0
 69165  1  0
 70166  1  0
 71167  1  0
 73168  1  0
 74169  1  0
 77170  1  0
 77171  1  0
 77172  1  0
 78173  1  0
 79174  1  0
 84175  1  0
 89176  1  0
 89177  1  0
 90178  1  0
 90179  1  0
 90180  1  0
 98181  1  0
 98182  1  0
 99183  1  0
 99184  1  0
 99185  1  0
101186  1  0
106187  1  0
109188  1  0
117189  1  0
118190  1  0
119191  1  0
120192  1  0
121193  1  0
122194  1  0
122195  1  0
123196  1  0
M  END

