
     RDKit          3D

171191  0  0  0  0  0  0  0  0999 V2000
    1.4829   -2.5846    7.0833 C   0  0  0  0  0  0  0  0  0  0  0  0
    1.2347   -1.2554    7.0554 C   0  0  0  0  0  0  0  0  0  0  0  0
    1.0768   -0.4453    5.8287 C   0  0  0  0  0  0  0  0  0  0  0  0
    1.3670   -0.7879    4.6501 O   0  0  0  0  0  0  0  0  0  0  0  0
    0.4526    0.8074    6.1727 C   0  0  0  0  0  0  0  0  0  0  0  0
    0.0326    1.8151    5.2743 C   0  0  0  0  0  0  0  0  0  0  0  0
   -0.6459    2.8523    5.8772 C   0  0  0  0  0  0  0  0  0  0  0  0
   -0.9211    2.8972    7.2810 C   0  0  0  0  0  0  0  0  0  0  0  0
   -0.5152    1.9130    8.1677 C   0  0  0  0  0  0  0  0  0  0  0  0
    0.2234    0.8452    7.5717 C   0  0  0  0  0  0  0  0  0  0  0  0
    0.8022   -0.3851    8.1928 C   0  0  0  0  0  0  0  0  0  0  0  0
    1.0704   -0.5746    9.5099 C   0  0  0  0  0  0  0  0  0  0  0  0
    0.7348    0.3964   10.5162 C   0  0  0  0  0  0  0  0  0  0  0  0
    0.4809    1.1685   11.3383 N   0  0  0  0  0  0  0  0  0  0  0  0
    1.8430   -1.6930    9.9888 C   0  0  0  0  0  0  0  0  0  0  0  0
    2.4685   -2.5864   10.3781 N   0  0  0  0  0  0  0  0  0  0  0  0
   -1.6879    4.1700    7.1047 C   0  0  0  0  0  0  0  0  0  0  0  0
   -3.2432    4.0659    7.1622 C   0  0  0  0  0  0  0  0  0  0  0  0
   -3.7675    5.3548    6.5770 C   0  0  0  0  0  0  0  0  0  0  0  0
   -3.4993    5.3142    5.2676 C   0  0  0  0  0  0  0  0  0  0  0  0
   -2.8007    3.9995    5.0111 C   0  0  0  0  0  0  0  0  0  0  0  0
   -3.5675    3.1372    6.0039 C   0  0  0  0  0  0  0  0  0  0  0  0
   -1.3962    4.1280    5.6680 C   0  0  0  0  0  0  0  0  0  0  0  0
    1.6729   -3.3597    5.8450 C   0  0  0  0  0  0  0  0  0  0  0  0
    2.8294   -3.1964    5.0662 C   0  0  0  0  0  0  0  0  0  0  0  0
    2.8223   -3.4844    3.6796 C   0  0  0  0  0  0  0  0  0  0  0  0
    3.9895   -3.0438    2.9751 N   0  0  0  0  0  0  0  0  0  0  0  0
    4.8375   -2.4177    4.1701 S   0  0  0  0  0  4  0  0  0  0  0  0
    4.0152   -2.5422    5.5317 N   0  0  0  0  0  0  0  0  0  0  0  0
    1.6655   -3.9654    3.0495 C   0  0  0  0  0  0  0  0  0  0  0  0
    0.5700   -4.3082    3.8639 C   0  0  0  0  0  0  0  0  0  0  0  0
   -0.5860   -4.8173    3.3635 N   0  0  0  0  0  0  0  0  0  0  0  0
   -1.5148   -4.8753    4.7304 S   0  0  0  0  0  0  0  0  0  0  0  0
   -0.5696   -4.2732    5.9436 N   0  0  0  0  0  0  0  0  0  0  0  0
    0.5755   -4.0080    5.2632 C   0  0  0  0  0  0  0  0  0  0  0  0
    1.4232   -3.6399    1.6415 C   0  0  0  0  0  0  0  0  0  0  0  0
    1.7208   -4.4084    0.5044 C   0  0  0  0  0  0  0  0  0  0  0  0
    2.4458   -5.6436    0.5304 N   0  0  0  0  0  0  0  0  0  0  0  0
    3.8436   -5.6459    0.8661 C   0  0  0  0  0  0  0  0  0  0  0  0
    4.7166   -4.7227    0.2601 C   0  0  0  0  0  0  0  0  0  0  0  0
    6.0705   -4.7051    0.6023 C   0  0  0  0  0  0  0  0  0  0  0  0
    6.5626   -5.5912    1.5648 C   0  0  0  0  0  0  0  0  0  0  0  0
    8.2962   -5.5507    2.0187 S   0  0  0  0  0  0  0  0  0  0  0  0
    8.0683   -4.2572    3.2819 C   0  0  0  0  0  0  0  0  0  0  0  0
    5.7018   -6.5200    2.1634 C   0  0  0  0  0  0  0  0  0  0  0  0
    4.3489   -6.5523    1.8099 C   0  0  0  0  0  0  0  0  0  0  0  0
    1.7431   -6.8682    0.2877 C   0  0  0  0  0  0  0  0  0  0  0  0
    0.8934   -7.4006    1.2678 C   0  0  0  0  0  0  0  0  0  0  0  0
    0.1865   -8.5830    1.0112 C   0  0  0  0  0  0  0  0  0  0  0  0
    0.3192   -9.2287   -0.2240 C   0  0  0  0  0  0  0  0  0  0  0  0
   -0.5986  -10.7281   -0.5651 S   0  0  0  0  0  0  0  0  0  0  0  0
   -2.0854   -9.8345   -1.1251 C   0  0  0  0  0  0  0  0  0  0  0  0
    1.1737   -8.6952   -1.1997 C   0  0  0  0  0  0  0  0  0  0  0  0
    1.8915   -7.5284   -0.9403 C   0  0  0  0  0  0  0  0  0  0  0  0
    1.2266   -3.7995   -0.6523 C   0  0  0  0  0  0  0  0  0  0  0  0
    1.3455   -4.0809   -2.3071 S   0  0  0  0  0  0  0  0  0  0  0  0
    0.4767   -2.6699   -2.7331 C   0  0  0  0  0  0  0  0  0  0  0  0
    0.0981   -1.9815   -1.5691 C   0  0  0  0  0  0  0  0  0  0  0  0
   -0.5245   -0.6843   -1.5413 N   0  0  0  0  0  0  0  0  0  0  0  0
    0.2833    0.5253   -1.4678 C   0  0  0  0  0  0  0  0  0  0  0  0
   -0.2885    1.7671   -1.1057 C   0  0  0  0  0  0  0  0  0  0  0  0
    0.5046    2.9137   -0.9992 C   0  0  0  0  0  0  0  0  0  0  0  0
    1.8796    2.8474   -1.2493 C   0  0  0  0  0  0  0  0  0  0  0  0
    2.9008    4.3163   -1.0947 S   0  0  0  0  0  0  0  0  0  0  0  0
    3.2432    4.0407    0.6763 C   0  0  0  0  0  0  0  0  0  0  0  0
    2.4544    1.6360   -1.6298 C   0  0  0  0  0  0  0  0  0  0  0  0
    1.6711    0.4825   -1.7264 C   0  0  0  0  0  0  0  0  0  0  0  0
   -1.9524   -0.6280   -1.3667 C   0  0  0  0  0  0  0  0  0  0  0  0
   -2.5330   -0.9339   -0.1236 C   0  0  0  0  0  0  0  0  0  0  0  0
   -3.9143   -0.8366    0.0563 C   0  0  0  0  0  0  0  0  0  0  0  0
   -4.7329   -0.4362   -1.0051 C   0  0  0  0  0  0  0  0  0  0  0  0
   -6.5114   -0.3163   -0.7693 S   0  0  0  0  0  0  0  0  0  0  0  0
   -6.7909   -2.0654   -1.1846 C   0  0  0  0  0  0  0  0  0  0  0  0
   -4.1590   -0.1029   -2.2392 C   0  0  0  0  0  0  0  0  0  0  0  0
   -2.7713   -0.1757   -2.4127 C   0  0  0  0  0  0  0  0  0  0  0  0
    0.5579   -2.6357   -0.4375 C   0  0  0  0  0  0  0  0  0  0  0  0
    0.5719   -2.2417    1.1848 S   0  0  0  0  0  0  0  0  0  0  0  0
    0.3291   -2.1370   -4.0974 C   0  0  0  0  0  0  0  0  0  0  0  0
    1.4246   -1.5414   -4.7401 C   0  0  0  0  0  0  0  0  0  0  0  0
    2.6716   -1.6518   -4.2177 F   0  0  0  0  0  0  0  0  0  0  0  0
    1.2287   -0.7291   -5.8670 C   0  0  0  0  0  0  0  0  0  0  0  0
   -0.0750   -0.4482   -6.3119 C   0  0  0  0  0  0  0  0  0  0  0  0
   -1.1481   -1.1835   -5.7849 C   0  0  0  0  0  0  0  0  0  0  0  0
   -2.4068   -1.0558   -6.2884 N   0  0  0  0  0  0  0  0  0  0  0  0
   -3.4585   -1.7521   -5.7748 C   0  0  0  0  0  0  0  0  0  0  0  0
   -3.2517   -2.6066   -4.6918 C   0  0  0  0  0  0  0  0  0  0  0  0
   -4.3344   -3.3175   -4.1566 O   0  0  0  0  0  0  0  0  0  0  0  0
   -4.2151   -4.1714   -3.0173 C   0  0  0  0  0  0  0  0  0  0  0  0
   -3.5932   -5.5024   -3.4093 C   0  0  0  0  0  0  0  0  0  0  0  0
   -2.0034   -2.7100   -4.1564 N   0  0  0  0  0  0  0  0  0  0  0  0
   -0.9421   -2.0324   -4.6792 C   0  0  0  0  0  0  0  0  0  0  0  0
   -0.3234    0.6464   -7.2775 C   0  0  0  0  0  0  0  0  0  0  0  0
   -0.0154    1.9407   -7.0283 C   0  0  0  0  0  0  0  0  0  0  0  0
    0.5565    2.4711   -5.7765 C   0  0  0  0  0  0  0  0  0  0  0  0
    1.0126    1.8051   -4.8107 O   0  0  0  0  0  0  0  0  0  0  0  0
    0.4258    3.9055   -5.7657 C   0  0  0  0  0  0  0  0  0  0  0  0
    0.7450    4.7708   -4.6934 C   0  0  0  0  0  0  0  0  0  0  0  0
    0.3081    6.0675   -4.8799 C   0  0  0  0  0  0  0  0  0  0  0  0
   -0.4258    6.4890   -6.0348 C   0  0  0  0  0  0  0  0  0  0  0  0
   -0.7244    5.6477   -7.0933 C   0  0  0  0  0  0  0  0  0  0  0  0
   -0.2266    4.3176   -6.9486 C   0  0  0  0  0  0  0  0  0  0  0  0
   -0.4122    3.1387   -7.8407 C   0  0  0  0  0  0  0  0  0  0  0  0
   -0.6815    3.1853   -9.1770 C   0  0  0  0  0  0  0  0  0  0  0  0
   -0.7586    2.0069  -10.0013 C   0  0  0  0  0  0  0  0  0  0  0  0
   -0.8534    1.0646  -10.6769 N   0  0  0  0  0  0  0  0  0  0  0  0
   -0.8141    4.4253   -9.8863 C   0  0  0  0  0  0  0  0  0  0  0  0
   -0.9087    5.4181  -10.4733 N   0  0  0  0  0  0  0  0  0  0  0  0
   -0.6046    7.8562   -5.4416 C   0  0  0  0  0  0  0  0  0  0  0  0
   -1.9937    8.2122   -4.8270 C   0  0  0  0  0  0  0  0  0  0  0  0
   -2.6521    6.9703   -4.2612 C   0  0  0  0  0  0  0  0  0  0  0  0
   -1.9400    6.6085   -3.1998 C   0  0  0  0  0  0  0  0  0  0  0  0
   -0.8083    7.6042   -3.0810 C   0  0  0  0  0  0  0  0  0  0  0  0
   -1.5459    8.8518   -3.5278 C   0  0  0  0  0  0  0  0  0  0  0  0
    0.1796    7.4325   -4.2779 C   0  0  0  0  0  0  0  0  0  0  0  0
    1.3489   -3.1488    7.9917 H   0  0  0  0  0  0  0  0  0  0  0  0
    0.1910    1.7530    4.2039 H   0  0  0  0  0  0  0  0  0  0  0  0
   -0.7947    1.9651    9.2067 H   0  0  0  0  0  0  0  0  0  0  0  0
   -1.2412    5.0351    7.6437 H   0  0  0  0  0  0  0  0  0  0  0  0
   -3.6709    3.7814    8.1452 H   0  0  0  0  0  0  0  0  0  0  0  0
   -4.3386    6.1264    7.0844 H   0  0  0  0  0  0  0  0  0  0  0  0
   -3.8153    6.0481    4.5266 H   0  0  0  0  0  0  0  0  0  0  0  0
   -2.8130    3.6552    3.9543 H   0  0  0  0  0  0  0  0  0  0  0  0
   -4.6602    3.0684    5.7790 H   0  0  0  0  0  0  0  0  0  0  0  0
   -3.1652    2.1065    6.1212 H   0  0  0  0  0  0  0  0  0  0  0  0
   -0.7648    4.9664    5.2994 H   0  0  0  0  0  0  0  0  0  0  0  0
    4.3464   -4.0271   -0.4851 H   0  0  0  0  0  0  0  0  0  0  0  0
    6.7349   -3.9968    0.1298 H   0  0  0  0  0  0  0  0  0  0  0  0
    7.6667   -3.3346    2.8114 H   0  0  0  0  0  0  0  0  0  0  0  0
    7.3689   -4.6096    4.0742 H   0  0  0  0  0  0  0  0  0  0  0  0
    9.0511   -4.0256    3.7433 H   0  0  0  0  0  0  0  0  0  0  0  0
    6.0795   -7.2152    2.9058 H   0  0  0  0  0  0  0  0  0  0  0  0
    3.6928   -7.2644    2.2879 H   0  0  0  0  0  0  0  0  0  0  0  0
    0.7902   -6.9111    2.2262 H   0  0  0  0  0  0  0  0  0  0  0  0
   -0.4701   -8.9898    1.7679 H   0  0  0  0  0  0  0  0  0  0  0  0
   -2.5466   -9.2920   -0.2689 H   0  0  0  0  0  0  0  0  0  0  0  0
   -2.8155  -10.5678   -1.5283 H   0  0  0  0  0  0  0  0  0  0  0  0
   -1.8233   -9.1190   -1.9336 H   0  0  0  0  0  0  0  0  0  0  0  0
    1.2816   -9.1870   -2.1574 H   0  0  0  0  0  0  0  0  0  0  0  0
    2.5478   -7.1227   -1.6985 H   0  0  0  0  0  0  0  0  0  0  0  0
   -1.3439    1.8528   -0.8736 H   0  0  0  0  0  0  0  0  0  0  0  0
    0.0513    3.8526   -0.7055 H   0  0  0  0  0  0  0  0  0  0  0  0
    2.3589    4.3175    1.2776 H   0  0  0  0  0  0  0  0  0  0  0  0
    3.5188    2.9782    0.8589 H   0  0  0  0  0  0  0  0  0  0  0  0
    4.0959    4.6873    0.9731 H   0  0  0  0  0  0  0  0  0  0  0  0
    3.5188    1.5750   -1.8352 H   0  0  0  0  0  0  0  0  0  0  0  0
    2.1608   -0.4403   -1.9932 H   0  0  0  0  0  0  0  0  0  0  0  0
   -1.9222   -1.2261    0.7190 H   0  0  0  0  0  0  0  0  0  0  0  0
   -4.3472   -1.0822    1.0170 H   0  0  0  0  0  0  0  0  0  0  0  0
   -6.2855   -2.7273   -0.4490 H   0  0  0  0  0  0  0  0  0  0  0  0
   -7.8782   -2.2795   -1.1636 H   0  0  0  0  0  0  0  0  0  0  0  0
   -6.4056   -2.2728   -2.2033 H   0  0  0  0  0  0  0  0  0  0  0  0
   -4.7833    0.2261   -3.0556 H   0  0  0  0  0  0  0  0  0  0  0  0
   -2.3362    0.1086   -3.3631 H   0  0  0  0  0  0  0  0  0  0  0  0
    2.0764   -0.2223   -6.3100 H   0  0  0  0  0  0  0  0  0  0  0  0
   -4.4400   -1.6416   -6.2108 H   0  0  0  0  0  0  0  0  0  0  0  0
   -3.6065   -3.6830   -2.2243 H   0  0  0  0  0  0  0  0  0  0  0  0
   -5.2265   -4.3598   -2.6124 H   0  0  0  0  0  0  0  0  0  0  0  0
   -2.5464   -5.3619   -3.7514 H   0  0  0  0  0  0  0  0  0  0  0  0
   -3.5953   -6.1876   -2.5342 H   0  0  0  0  0  0  0  0  0  0  0  0
   -4.1777   -5.9663   -4.2289 H   0  0  0  0  0  0  0  0  0  0  0  0
   -0.9610    0.3936   -8.1085 H   0  0  0  0  0  0  0  0  0  0  0  0
    1.2158    4.4377   -3.7774 H   0  0  0  0  0  0  0  0  0  0  0  0
   -1.3427    5.9841   -7.9103 H   0  0  0  0  0  0  0  0  0  0  0  0
   -0.1305    8.6758   -6.0258 H   0  0  0  0  0  0  0  0  0  0  0  0
   -2.6505    8.8400   -5.4648 H   0  0  0  0  0  0  0  0  0  0  0  0
   -3.5695    6.4980   -4.6040 H   0  0  0  0  0  0  0  0  0  0  0  0
   -2.1647    5.7844   -2.5280 H   0  0  0  0  0  0  0  0  0  0  0  0
   -0.3329    7.6640   -2.0780 H   0  0  0  0  0  0  0  0  0  0  0  0
   -2.3907    9.1358   -2.8542 H   0  0  0  0  0  0  0  0  0  0  0  0
   -0.8835    9.7378   -3.6751 H   0  0  0  0  0  0  0  0  0  0  0  0
    1.1471    7.9776   -4.1673 H   0  0  0  0  0  0  0  0  0  0  0  0
  1  2  2  3
  2  3  1  0
  3  4  2  0
  3  5  1  0
  5  6  2  0
  6  7  1  0
  7  8  2  0
  8  9  1  0
  9 10  2  0
 10 11  1  0
 11 12  2  3
 12 13  1  0
 13 14  3  0
 12 15  1  0
 15 16  3  0
  8 17  1  0
 17 18  1  0
 18 19  1  0
 19 20  2  0
 20 21  1  0
 21 22  1  0
 21 23  1  0
  1 24  1  0
 24 25  2  0
 25 26  1  0
 26 27  1  0
 27 28  2  0
 28 29  2  0
 26 30  2  0
 30 31  1  0
 31 32  2  0
 32 33  1  0
 33 34  1  0
 34 35  2  0
 30 36  1  0
 36 37  2  0
 37 38  1  0
 38 39  1  0
 39 40  2  0
 40 41  1  0
 41 42  2  0
 42 43  1  0
 43 44  1  0
 42 45  1  0
 45 46  2  0
 38 47  1  0
 47 48  2  0
 48 49  1  0
 49 50  2  0
 50 51  1  0
 51 52  1  0
 50 53  1  0
 53 54  2  0
 37 55  1  0
 55 56  1  0
 56 57  1  0
 57 58  2  0
 58 59  1  0
 59 60  1  0
 60 61  2  0
 61 62  1  0
 62 63  2  0
 63 64  1  0
 64 65  1  0
 63 66  1  0
 66 67  2  0
 59 68  1  0
 68 69  2  0
 69 70  1  0
 70 71  2  0
 71 72  1  0
 72 73  1  0
 71 74  1  0
 74 75  2  0
 58 76  1  0
 76 77  1  0
 57 78  1  0
 78 79  2  0
 79 80  1  0
 79 81  1  0
 81 82  2  0
 82 83  1  0
 83 84  2  0
 84 85  1  0
 85 86  2  0
 86 87  1  0
 87 88  1  0
 88 89  1  0
 86 90  1  0
 90 91  2  0
 82 92  1  0
 92 93  2  3
 93 94  1  0
 94 95  2  0
 94 96  1  0
 96 97  2  0
 97 98  1  0
 98 99  2  0
 99100  1  0
100101  2  0
101102  1  0
102103  2  3
103104  1  0
104105  3  0
103106  1  0
106107  3  0
 99108  1  0
108109  1  0
109110  1  0
110111  2  0
111112  1  0
112113  1  0
112114  1  0
 11  2  1  0
 23 17  1  0
 35 24  1  0
 77 36  1  0
 91 78  1  0
102 93  1  0
114108  1  0
 10  5  1  0
 22 18  1  0
 29 25  1  0
 35 31  1  0
 46 39  1  0
 54 47  1  0
 76 55  2  0
 91 83  1  0
101 96  1  0
113109  1  0
 23  7  1  0
 67 60  1  0
 75 68  1  0
114 98  1  0
  1115  1  0
  6116  1  0
  9117  1  0
 17118  1  0
 18119  1  0
 19120  1  0
 20121  1  0
 21122  1  0
 22123  1  0
 22124  1  0
 23125  1  0
 40126  1  0
 41127  1  0
 44128  1  0
 44129  1  0
 44130  1  0
 45131  1  0
 46132  1  0
 48133  1  0
 49134  1  0
 52135  1  0
 52136  1  0
 52137  1  0
 53138  1  0
 54139  1  0
 61140  1  0
 62141  1  0
 65142  1  0
 65143  1  0
 65144  1  0
 66145  1  0
 67146  1  0
 69147  1  0
 70148  1  0
 73149  1  0
 73150  1  0
 73151  1  0
 74152  1  0
 75153  1  0
 81154  1  0
 85155  1  0
 88156  1  0
 88157  1  0
 89158  1  0
 89159  1  0
 89160  1  0
 92161  1  0
 97162  1  0
100163  1  0
108164  1  0
109165  1  0
110166  1  0
111167  1  0
112168  1  0
113169  1  0
113170  1  0
114171  1  0
M  END

