
     RDKit          3D

222241  0  0  0  0  0  0  0  0999 V2000
   -2.9562   -1.8138   -6.0681 C   0  0  0  0  0  0  0  0  0  0  0  0
   -1.7073   -1.9401   -6.5645 C   0  0  0  0  0  0  0  0  0  0  0  0
   -1.4240   -1.9865   -7.9997 C   0  0  0  0  0  0  0  0  0  0  0  0
   -2.2479   -2.2636   -8.9127 O   0  0  0  0  0  0  0  0  0  0  0  0
   -0.0475   -1.5662   -8.2101 C   0  0  0  0  0  0  0  0  0  0  0  0
    0.6305   -1.4279   -9.4451 C   0  0  0  0  0  0  0  0  0  0  0  0
    1.9416   -1.0003   -9.3197 C   0  0  0  0  0  0  0  0  0  0  0  0
    2.5453   -0.6902   -8.0591 C   0  0  0  0  0  0  0  0  0  0  0  0
    1.8914   -0.8218   -6.8483 C   0  0  0  0  0  0  0  0  0  0  0  0
    0.5542   -1.2985   -6.9505 C   0  0  0  0  0  0  0  0  0  0  0  0
   -0.4092   -1.6605   -5.8726 C   0  0  0  0  0  0  0  0  0  0  0  0
   -0.0719   -2.0554   -4.6193 C   0  0  0  0  0  0  0  0  0  0  0  0
   -0.8926   -2.9655   -3.8607 C   0  0  0  0  0  0  0  0  0  0  0  0
   -1.5733   -3.6809   -3.2653 N   0  0  0  0  0  0  0  0  0  0  0  0
    1.1324   -1.6037   -3.9676 C   0  0  0  0  0  0  0  0  0  0  0  0
    2.0911   -1.2338   -3.4283 N   0  0  0  0  0  0  0  0  0  0  0  0
    3.8310   -0.3263   -8.7418 C   0  0  0  0  0  0  0  0  0  0  0  0
    5.0237   -1.3235   -8.6270 C   0  0  0  0  0  0  0  0  0  0  0  0
    4.5024   -2.7357   -8.4870 C   0  0  0  0  0  0  0  0  0  0  0  0
    3.9406   -3.0481   -9.6573 C   0  0  0  0  0  0  0  0  0  0  0  0
    4.0999   -1.8414  -10.5538 C   0  0  0  0  0  0  0  0  0  0  0  0
    5.4646   -1.3757  -10.0754 C   0  0  0  0  0  0  0  0  0  0  0  0
    3.2206   -0.6621  -10.0307 C   0  0  0  0  0  0  0  0  0  0  0  0
   -3.2282   -1.2114   -4.7508 C   0  0  0  0  0  0  0  0  0  0  0  0
   -2.5706   -0.0784   -4.2532 C   0  0  0  0  0  0  0  0  0  0  0  0
   -2.3254    1.0701   -5.0875 N   0  0  0  0  0  0  0  0  0  0  0  0
   -3.3404    1.4386   -6.0414 C   0  0  0  0  0  0  0  0  0  0  0  0
   -3.0289    1.5555   -7.4040 C   0  0  0  0  0  0  0  0  0  0  0  0
   -4.0298    1.8837   -8.3300 C   0  0  0  0  0  0  0  0  0  0  0  0
   -5.3441    2.1068   -7.9007 C   0  0  0  0  0  0  0  0  0  0  0  0
   -6.6030    2.6277   -9.0677 S   0  0  0  0  0  0  0  0  0  0  0  0
   -7.2472    0.9476   -9.3426 C   0  0  0  0  0  0  0  0  0  0  0  0
   -5.6586    1.9851   -6.5410 C   0  0  0  0  0  0  0  0  0  0  0  0
   -4.6643    1.6460   -5.6180 C   0  0  0  0  0  0  0  0  0  0  0  0
   -1.3842    2.0761   -4.6882 C   0  0  0  0  0  0  0  0  0  0  0  0
   -1.8396    3.3197   -4.2185 C   0  0  0  0  0  0  0  0  0  0  0  0
   -0.9253    4.3217   -3.8849 C   0  0  0  0  0  0  0  0  0  0  0  0
    0.4490    4.0976   -4.0369 C   0  0  0  0  0  0  0  0  0  0  0  0
    1.6189    5.4188   -3.7214 S   0  0  0  0  0  0  0  0  0  0  0  0
    1.5182    6.0419   -5.4308 C   0  0  0  0  0  0  0  0  0  0  0  0
    0.9057    2.8467   -4.4675 C   0  0  0  0  0  0  0  0  0  0  0  0
   -0.0064    1.8397   -4.7926 C   0  0  0  0  0  0  0  0  0  0  0  0
   -2.7340    0.0066   -2.8778 C   0  0  0  0  0  0  0  0  0  0  0  0
   -1.9831    0.8703   -1.6592 S   0  0  0  0  0  0  0  0  0  0  0  0
   -2.8564    0.1074   -0.4104 C   0  0  0  0  0  0  0  0  0  0  0  0
   -3.8202   -0.7638   -0.9636 C   0  0  0  0  0  0  0  0  0  0  0  0
   -5.0749   -1.1275   -0.3284 N   0  0  0  0  0  0  0  0  0  0  0  0
   -5.2871   -0.9755    1.0844 C   0  0  0  0  0  0  0  0  0  0  0  0
   -5.6154   -2.0914    1.8665 C   0  0  0  0  0  0  0  0  0  0  0  0
   -5.8461   -1.9487    3.2384 C   0  0  0  0  0  0  0  0  0  0  0  0
   -5.7807   -0.6832    3.8324 C   0  0  0  0  0  0  0  0  0  0  0  0
   -6.0862   -0.5045    5.5923 S   0  0  0  0  0  0  0  0  0  0  0  0
   -7.7929    0.0840    5.3587 C   0  0  0  0  0  0  0  0  0  0  0  0
   -5.4991    0.4410    3.0492 C   0  0  0  0  0  0  0  0  0  0  0  0
   -5.2924    0.3000    1.6743 C   0  0  0  0  0  0  0  0  0  0  0  0
   -6.2687   -1.0733   -1.1295 C   0  0  0  0  0  0  0  0  0  0  0  0
   -6.6436    0.1357   -1.7399 C   0  0  0  0  0  0  0  0  0  0  0  0
   -7.7815    0.1979   -2.5452 C   0  0  0  0  0  0  0  0  0  0  0  0
   -8.5662   -0.9445   -2.7369 C   0  0  0  0  0  0  0  0  0  0  0  0
  -10.0411   -0.8474   -3.7533 S   0  0  0  0  0  0  0  0  0  0  0  0
  -11.1288   -0.4617   -2.3450 C   0  0  0  0  0  0  0  0  0  0  0  0
   -8.1989   -2.1533   -2.1294 C   0  0  0  0  0  0  0  0  0  0  0  0
   -7.0498   -2.2194   -1.3276 C   0  0  0  0  0  0  0  0  0  0  0  0
   -3.6253   -0.8643   -2.3434 C   0  0  0  0  0  0  0  0  0  0  0  0
   -4.1917   -1.9122   -3.5306 S   0  0  0  0  0  0  0  0  0  0  0  0
   -2.3827    0.1126    0.9791 C   0  0  0  0  0  0  0  0  0  0  0  0
   -1.9953   -1.0325    1.7028 C   0  0  0  0  0  0  0  0  0  0  0  0
   -1.6641   -2.2762    1.0583 N   0  0  0  0  0  0  0  0  0  0  0  0
   -2.5869   -3.3736    1.1812 C   0  0  0  0  0  0  0  0  0  0  0  0
   -3.1752   -3.9311    0.0371 C   0  0  0  0  0  0  0  0  0  0  0  0
   -4.0551   -5.0086    0.1473 C   0  0  0  0  0  0  0  0  0  0  0  0
   -4.3501   -5.5462    1.4051 C   0  0  0  0  0  0  0  0  0  0  0  0
   -5.5471   -6.8721    1.5554 S   0  0  0  0  0  0  0  0  0  0  0  0
   -4.3084   -8.1916    1.3847 C   0  0  0  0  0  0  0  0  0  0  0  0
   -3.7560   -5.0051    2.5513 C   0  0  0  0  0  0  0  0  0  0  0  0
   -2.8786   -3.9245    2.4411 C   0  0  0  0  0  0  0  0  0  0  0  0
   -0.3410   -2.4639    0.4716 C   0  0  0  0  0  0  0  0  0  0  0  0
    0.5725   -1.3887    0.3711 C   0  0  0  0  0  0  0  0  0  0  0  0
    1.8648   -1.5820   -0.1229 C   0  0  0  0  0  0  0  0  0  0  0  0
    2.2743   -2.8507   -0.5395 C   0  0  0  0  0  0  0  0  0  0  0  0
    3.9296   -3.0846   -1.1967 S   0  0  0  0  0  0  0  0  0  0  0  0
    4.6506   -3.5250    0.4148 C   0  0  0  0  0  0  0  0  0  0  0  0
    1.3811   -3.9216   -0.4766 C   0  0  0  0  0  0  0  0  0  0  0  0
    0.0914   -3.7371    0.0353 C   0  0  0  0  0  0  0  0  0  0  0  0
   -1.3978   -0.6660    2.9107 C   0  0  0  0  0  0  0  0  0  0  0  0
   -0.4289   -1.5160    3.9666 S   0  0  0  0  0  0  0  0  0  0  0  0
    0.3272   -0.1600    4.6716 C   0  0  0  0  0  0  0  0  0  0  0  0
   -0.1574    0.9900    3.9846 C   0  0  0  0  0  0  0  0  0  0  0  0
    0.5724    2.2244    3.8477 N   0  0  0  0  0  0  0  0  0  0  0  0
    0.1527    3.4028    4.5757 C   0  0  0  0  0  0  0  0  0  0  0  0
    1.1065    4.3643    4.9709 C   0  0  0  0  0  0  0  0  0  0  0  0
    0.7242    5.4808    5.7174 C   0  0  0  0  0  0  0  0  0  0  0  0
   -0.6153    5.6507    6.0839 C   0  0  0  0  0  0  0  0  0  0  0  0
   -1.1068    7.0567    7.0843 S   0  0  0  0  0  0  0  0  0  0  0  0
   -0.7535    6.2071    8.6542 C   0  0  0  0  0  0  0  0  0  0  0  0
   -1.5717    4.7100    5.6915 C   0  0  0  0  0  0  0  0  0  0  0  0
   -1.1925    3.5872    4.9536 C   0  0  0  0  0  0  0  0  0  0  0  0
    1.5777    2.3244    2.8072 C   0  0  0  0  0  0  0  0  0  0  0  0
    1.6209    3.4492    1.9590 C   0  0  0  0  0  0  0  0  0  0  0  0
    2.6006    3.5582    0.9675 C   0  0  0  0  0  0  0  0  0  0  0  0
    3.5450    2.5403    0.7991 C   0  0  0  0  0  0  0  0  0  0  0  0
    4.8384    2.7107   -0.4329 S   0  0  0  0  0  0  0  0  0  0  0  0
    3.8292    2.0382   -1.7883 C   0  0  0  0  0  0  0  0  0  0  0  0
    3.4970    1.4054    1.6142 C   0  0  0  0  0  0  0  0  0  0  0  0
    2.5156    1.2917    2.6025 C   0  0  0  0  0  0  0  0  0  0  0  0
   -1.1606    0.6590    3.0682 C   0  0  0  0  0  0  0  0  0  0  0  0
   -1.7910    1.5036    1.7644 S   0  0  0  0  0  0  0  0  0  0  0  0
    1.4972   -0.2405    5.6113 C   0  0  0  0  0  0  0  0  0  0  0  0
    2.1767   -1.4581    5.8854 C   0  0  0  0  0  0  0  0  0  0  0  0
    1.6422   -2.6895    5.5009 O   0  0  0  0  0  0  0  0  0  0  0  0
    0.9097   -3.4918    6.4248 C   0  0  0  0  0  0  0  0  0  0  0  0
    0.4024   -4.7482    5.7315 C   0  0  0  0  0  0  0  0  0  0  0  0
    3.4120   -1.4533    6.5640 C   0  0  0  0  0  0  0  0  0  0  0  0
    4.0612   -2.6797    6.7659 O   0  0  0  0  0  0  0  0  0  0  0  0
    4.5317   -3.1091    8.0436 C   0  0  0  0  0  0  0  0  0  0  0  0
    4.9213   -4.5742    7.9720 C   0  0  0  0  0  0  0  0  0  0  0  0
    3.9676   -0.2306    6.9892 C   0  0  0  0  0  0  0  0  0  0  0  0
    3.2150    0.9410    6.8750 C   0  0  0  0  0  0  0  0  0  0  0  0
    1.9881    0.9308    6.2163 C   0  0  0  0  0  0  0  0  0  0  0  0
    5.3700   -0.1133    7.4172 C   0  0  0  0  0  0  0  0  0  0  0  0
    6.3610    0.1699    6.5504 C   0  0  0  0  0  0  0  0  0  0  0  0
    6.1746    0.4762    5.1257 C   0  0  0  0  0  0  0  0  0  0  0  0
    5.1804    0.1705    4.4125 O   0  0  0  0  0  0  0  0  0  0  0  0
    7.3353    1.2011    4.6575 C   0  0  0  0  0  0  0  0  0  0  0  0
    7.5176    1.8270    3.4220 C   0  0  0  0  0  0  0  0  0  0  0  0
    8.6926    2.5723    3.2140 C   0  0  0  0  0  0  0  0  0  0  0  0
    8.9196    3.2871    1.9196 C   0  0  0  0  0  0  0  0  0  0  0  0
    9.6339    2.6985    4.2615 C   0  0  0  0  0  0  0  0  0  0  0  0
   10.7503    3.4512    4.0889 F   0  0  0  0  0  0  0  0  0  0  0  0
    9.4185    2.0762    5.5007 C   0  0  0  0  0  0  0  0  0  0  0  0
    8.2597    1.3049    5.6843 C   0  0  0  0  0  0  0  0  0  0  0  0
    7.7604    0.5663    6.8839 C   0  0  0  0  0  0  0  0  0  0  0  0
    8.4811    0.1813    7.9694 C   0  0  0  0  0  0  0  0  0  0  0  0
    7.9624   -0.7442    8.9463 C   0  0  0  0  0  0  0  0  0  0  0  0
    7.5567   -1.4907    9.7316 N   0  0  0  0  0  0  0  0  0  0  0  0
    9.8484    0.5723    8.1708 C   0  0  0  0  0  0  0  0  0  0  0  0
   10.9445    0.8954    8.3521 N   0  0  0  0  0  0  0  0  0  0  0  0
   -3.8086   -2.0393   -6.6969 H   0  0  0  0  0  0  0  0  0  0  0  0
    0.1739   -1.6507  -10.3978 H   0  0  0  0  0  0  0  0  0  0  0  0
    2.3886   -0.5666   -5.9305 H   0  0  0  0  0  0  0  0  0  0  0  0
    4.1067    0.7497   -8.6405 H   0  0  0  0  0  0  0  0  0  0  0  0
    5.8111   -1.0408   -7.8990 H   0  0  0  0  0  0  0  0  0  0  0  0
    4.6246   -3.4060   -7.6449 H   0  0  0  0  0  0  0  0  0  0  0  0
    3.5354   -4.0181   -9.9268 H   0  0  0  0  0  0  0  0  0  0  0  0
    4.0191   -2.0465  -11.6402 H   0  0  0  0  0  0  0  0  0  0  0  0
    5.7662   -0.3813  -10.4892 H   0  0  0  0  0  0  0  0  0  0  0  0
    6.2791   -2.1172  -10.2743 H   0  0  0  0  0  0  0  0  0  0  0  0
    3.1384    0.2046  -10.7219 H   0  0  0  0  0  0  0  0  0  0  0  0
   -2.0180    1.3743   -7.7443 H   0  0  0  0  0  0  0  0  0  0  0  0
   -3.7785    1.9786   -9.3789 H   0  0  0  0  0  0  0  0  0  0  0  0
   -6.4498    0.2884   -9.7447 H   0  0  0  0  0  0  0  0  0  0  0  0
   -8.0760    0.9943  -10.0815 H   0  0  0  0  0  0  0  0  0  0  0  0
   -7.6457    0.5310   -8.3929 H   0  0  0  0  0  0  0  0  0  0  0  0
   -6.6711    2.1540   -6.1971 H   0  0  0  0  0  0  0  0  0  0  0  0
   -4.9223    1.5490   -4.5701 H   0  0  0  0  0  0  0  0  0  0  0  0
   -2.8987    3.5133   -4.1086 H   0  0  0  0  0  0  0  0  0  0  0  0
   -1.2865    5.2811   -3.5395 H   0  0  0  0  0  0  0  0  0  0  0  0
    0.4781    6.3496   -5.6697 H   0  0  0  0  0  0  0  0  0  0  0  0
    2.1879    6.9200   -5.5288 H   0  0  0  0  0  0  0  0  0  0  0  0
    1.8461    5.2544   -6.1441 H   0  0  0  0  0  0  0  0  0  0  0  0
    1.9665    2.6607   -4.5807 H   0  0  0  0  0  0  0  0  0  0  0  0
    0.3499    0.8940   -5.1559 H   0  0  0  0  0  0  0  0  0  0  0  0
   -5.6999   -3.0639    1.4097 H   0  0  0  0  0  0  0  0  0  0  0  0
   -6.0761   -2.8227    3.8354 H   0  0  0  0  0  0  0  0  0  0  0  0
   -7.7668    1.1339    5.0038 H   0  0  0  0  0  0  0  0  0  0  0  0
   -8.3234    0.0473    6.3291 H   0  0  0  0  0  0  0  0  0  0  0  0
   -8.3388   -0.5555    4.6324 H   0  0  0  0  0  0  0  0  0  0  0  0
   -5.4680    1.4265    3.4970 H   0  0  0  0  0  0  0  0  0  0  0  0
   -5.1124    1.1795    1.0687 H   0  0  0  0  0  0  0  0  0  0  0  0
   -6.0417    1.0239   -1.5946 H   0  0  0  0  0  0  0  0  0  0  0  0
   -8.0585    1.1354   -3.0111 H   0  0  0  0  0  0  0  0  0  0  0  0
  -10.7045    0.3578   -1.7249 H   0  0  0  0  0  0  0  0  0  0  0  0
  -11.2637   -1.3702   -1.7218 H   0  0  0  0  0  0  0  0  0  0  0  0
  -12.1145   -0.1366   -2.7306 H   0  0  0  0  0  0  0  0  0  0  0  0
   -8.8044   -3.0395   -2.2817 H   0  0  0  0  0  0  0  0  0  0  0  0
   -6.7682   -3.1592   -0.8751 H   0  0  0  0  0  0  0  0  0  0  0  0
   -2.9522   -3.5245   -0.9372 H   0  0  0  0  0  0  0  0  0  0  0  0
   -4.5186   -5.4087   -0.7437 H   0  0  0  0  0  0  0  0  0  0  0  0
   -3.5989   -8.1599    2.2340 H   0  0  0  0  0  0  0  0  0  0  0  0
   -4.8217   -9.1739    1.3839 H   0  0  0  0  0  0  0  0  0  0  0  0
   -3.7535   -8.0786    0.4299 H   0  0  0  0  0  0  0  0  0  0  0  0
   -3.9881   -5.4150    3.5282 H   0  0  0  0  0  0  0  0  0  0  0  0
   -2.4241   -3.5246    3.3377 H   0  0  0  0  0  0  0  0  0  0  0  0
    0.3106   -0.3910    0.6807 H   0  0  0  0  0  0  0  0  0  0  0  0
    2.5487   -0.7449   -0.1819 H   0  0  0  0  0  0  0  0  0  0  0  0
    5.7377   -3.7112    0.2813 H   0  0  0  0  0  0  0  0  0  0  0  0
    4.1761   -4.4486    0.8058 H   0  0  0  0  0  0  0  0  0  0  0  0
    4.5136   -2.6953    1.1372 H   0  0  0  0  0  0  0  0  0  0  0  0
    1.6866   -4.9027   -0.8191 H   0  0  0  0  0  0  0  0  0  0  0  0
   -0.5546   -4.5992    0.0835 H   0  0  0  0  0  0  0  0  0  0  0  0
    2.1495    4.2349    4.7160 H   0  0  0  0  0  0  0  0  0  0  0  0
    1.4697    6.2018    6.0268 H   0  0  0  0  0  0  0  0  0  0  0  0
   -1.1449    5.1693    8.6405 H   0  0  0  0  0  0  0  0  0  0  0  0
    0.3411    6.1860    8.8298 H   0  0  0  0  0  0  0  0  0  0  0  0
   -1.2432    6.7583    9.4813 H   0  0  0  0  0  0  0  0  0  0  0  0
   -2.6085    4.8406    5.9696 H   0  0  0  0  0  0  0  0  0  0  0  0
   -1.9498    2.8666    4.6758 H   0  0  0  0  0  0  0  0  0  0  0  0
    0.8890    4.2377    2.0573 H   0  0  0  0  0  0  0  0  0  0  0  0
    2.6270    4.4286    0.3258 H   0  0  0  0  0  0  0  0  0  0  0  0
    4.3688    2.1866   -2.7463 H   0  0  0  0  0  0  0  0  0  0  0  0
    3.6692    0.9528   -1.6348 H   0  0  0  0  0  0  0  0  0  0  0  0
    2.8525    2.5607   -1.8419 H   0  0  0  0  0  0  0  0  0  0  0  0
    4.2285    0.6147    1.4901 H   0  0  0  0  0  0  0  0  0  0  0  0
    2.5053    0.4059    3.2159 H   0  0  0  0  0  0  0  0  0  0  0  0
    0.0407   -2.9140    6.8114 H   0  0  0  0  0  0  0  0  0  0  0  0
    1.5584   -3.7836    7.2789 H   0  0  0  0  0  0  0  0  0  0  0  0
   -0.2530   -4.4737    4.8760 H   0  0  0  0  0  0  0  0  0  0  0  0
   -0.1859   -5.3577    6.4530 H   0  0  0  0  0  0  0  0  0  0  0  0
    1.2550   -5.3522    5.3570 H   0  0  0  0  0  0  0  0  0  0  0  0
    5.4181   -2.5268    8.3511 H   0  0  0  0  0  0  0  0  0  0  0  0
    3.7334   -2.9763    8.8037 H   0  0  0  0  0  0  0  0  0  0  0  0
    5.2197   -4.9307    8.9811 H   0  0  0  0  0  0  0  0  0  0  0  0
    4.0631   -5.1830    7.6157 H   0  0  0  0  0  0  0  0  0  0  0  0
    5.7781   -4.7024    7.2737 H   0  0  0  0  0  0  0  0  0  0  0  0
    3.6106    1.8822    7.2394 H   0  0  0  0  0  0  0  0  0  0  0  0
    1.4458    1.8546    6.1678 H   0  0  0  0  0  0  0  0  0  0  0  0
    5.5529   -0.0924    8.4793 H   0  0  0  0  0  0  0  0  0  0  0  0
    6.7581    1.7471    2.6492 H   0  0  0  0  0  0  0  0  0  0  0  0
    8.9086    4.3857    2.0868 H   0  0  0  0  0  0  0  0  0  0  0  0
    9.9052    2.9936    1.4991 H   0  0  0  0  0  0  0  0  0  0  0  0
    8.1336    3.0382    1.1744 H   0  0  0  0  0  0  0  0  0  0  0  0
   10.1333    2.2363    6.2894 H   0  0  0  0  0  0  0  0  0  0  0  0
  1  2  2  3
  2  3  1  0
  3  4  2  0
  3  5  1  0
  5  6  2  0
  6  7  1  0
  7  8  2  0
  8  9  1  0
  9 10  2  0
 10 11  1  0
 11 12  2  3
 12 13  1  0
 13 14  3  0
 12 15  1  0
 15 16  3  0
  8 17  1  0
 17 18  1  0
 18 19  1  0
 19 20  2  0
 20 21  1  0
 21 22  1  0
 21 23  1  0
  1 24  1  0
 24 25  2  0
 25 26  1  0
 26 27  1  0
 27 28  2  0
 28 29  1  0
 29 30  2  0
 30 31  1  0
 31 32  1  0
 30 33  1  0
 33 34  2  0
 26 35  1  0
 35 36  2  0
 36 37  1  0
 37 38  2  0
 38 39  1  0
 39 40  1  0
 38 41  1  0
 41 42  2  0
 25 43  1  0
 43 44  1  0
 44 45  1  0
 45 46  2  0
 46 47  1  0
 47 48  1  0
 48 49  2  0
 49 50  1  0
 50 51  2  0
 51 52  1  0
 52 53  1  0
 51 54  1  0
 54 55  2  0
 47 56  1  0
 56 57  2  0
 57 58  1  0
 58 59  2  0
 59 60  1  0
 60 61  1  0
 59 62  1  0
 62 63  2  0
 46 64  1  0
 64 65  1  0
 45 66  1  0
 66 67  2  0
 67 68  1  0
 68 69  1  0
 69 70  2  0
 70 71  1  0
 71 72  2  0
 72 73  1  0
 73 74  1  0
 72 75  1  0
 75 76  2  0
 68 77  1  0
 77 78  2  0
 78 79  1  0
 79 80  2  0
 80 81  1  0
 81 82  1  0
 80 83  1  0
 83 84  2  0
 67 85  1  0
 85 86  1  0
 86 87  1  0
 87 88  2  0
 88 89  1  0
 89 90  1  0
 90 91  2  0
 91 92  1  0
 92 93  2  0
 93 94  1  0
 94 95  1  0
 93 96  1  0
 96 97  2  0
 89 98  1  0
 98 99  2  0
 99100  1  0
100101  2  0
101102  1  0
102103  1  0
101104  1  0
104105  2  0
 88106  1  0
106107  1  0
 87108  1  0
108109  2  0
109110  1  0
110111  1  0
111112  1  0
109113  1  0
113114  1  0
114115  1  0
115116  1  0
113117  2  0
117118  1  0
118119  2  0
117120  1  0
120121  2  3
121122  1  0
122123  2  0
122124  1  0
124125  2  0
125126  1  0
126127  1  0
126128  2  0
128129  1  0
128130  1  0
130131  2  0
131132  1  0
132133  2  3
133134  1  0
134135  3  0
133136  1  0
136137  3  0
 11  2  1  0
 23 17  1  0
 65 24  1  0
107 66  1  0
119108  1  0
132121  1  0
 10  5  1  0
 22 18  1  0
 34 27  1  0
 42 35  1  0
 64 43  2  0
 76 69  1  0
 84 77  1  0
106 85  2  0
131124  1  0
 23  7  1  0
 55 48  1  0
 63 56  1  0
 97 90  1  0
105 98  1  0
  1138  1  0
  6139  1  0
  9140  1  0
 17141  1  0
 18142  1  0
 19143  1  0
 20144  1  0
 21145  1  0
 22146  1  0
 22147  1  0
 23148  1  0
 28149  1  0
 29150  1  0
 32151  1  0
 32152  1  0
 32153  1  0
 33154  1  0
 34155  1  0
 36156  1  0
 37157  1  0
 40158  1  0
 40159  1  0
 40160  1  0
 41161  1  0
 42162  1  0
 49163  1  0
 50164  1  0
 53165  1  0
 53166  1  0
 53167  1  0
 54168  1  0
 55169  1  0
 57170  1  0
 58171  1  0
 61172  1  0
 61173  1  0
 61174  1  0
 62175  1  0
 63176  1  0
 70177  1  0
 71178  1  0
 74179  1  0
 74180  1  0
 74181  1  0
 75182  1  0
 76183  1  0
 78184  1  0
 79185  1  0
 82186  1  0
 82187  1  0
 82188  1  0
 83189  1  0
 84190  1  0
 91191  1  0
 92192  1  0
 95193  1  0
 95194  1  0
 95195  1  0
 96196  1  0
 97197  1  0
 99198  1  0
100199  1  0
103200  1  0
103201  1  0
103202  1  0
104203  1  0
105204  1  0
111205  1  0
111206  1  0
112207  1  0
112208  1  0
112209  1  0
115210  1  0
115211  1  0
116212  1  0
116213  1  0
116214  1  0
118215  1  0
119216  1  0
120217  1  0
125218  1  0
127219  1  0
127220  1  0
127221  1  0
130222  1  0
M  END

