
     RDKit          3D

209230  0  0  0  0  0  0  0  0999 V2000
    1.6838   -0.9761   -5.9363 C   0  0  0  0  0  0  0  0  0  0  0  0
    2.1181   -2.2362   -6.1351 C   0  0  0  0  0  0  0  0  0  0  0  0
    2.6089   -3.1753   -5.1129 C   0  0  0  0  0  0  0  0  0  0  0  0
    3.0846   -2.8935   -3.9826 O   0  0  0  0  0  0  0  0  0  0  0  0
    2.4484   -4.5240   -5.6066 C   0  0  0  0  0  0  0  0  0  0  0  0
    2.7099   -5.7175   -4.8982 C   0  0  0  0  0  0  0  0  0  0  0  0
    2.3620   -6.8606   -5.5875 C   0  0  0  0  0  0  0  0  0  0  0  0
    1.7672   -6.8379   -6.8952 C   0  0  0  0  0  0  0  0  0  0  0  0
    1.5127   -5.6673   -7.5912 C   0  0  0  0  0  0  0  0  0  0  0  0
    1.9013   -4.4808   -6.9135 C   0  0  0  0  0  0  0  0  0  0  0  0
    1.8121   -3.0591   -7.3441 C   0  0  0  0  0  0  0  0  0  0  0  0
    1.6885   -2.5971   -8.6180 C   0  0  0  0  0  0  0  0  0  0  0  0
    1.4436   -3.4651   -9.7413 C   0  0  0  0  0  0  0  0  0  0  0  0
    1.2390   -4.1465  -10.6554 N   0  0  0  0  0  0  0  0  0  0  0  0
    1.9184   -1.2151   -8.9523 C   0  0  0  0  0  0  0  0  0  0  0  0
    2.1071   -0.1085   -9.2277 N   0  0  0  0  0  0  0  0  0  0  0  0
    1.6567   -8.3332   -6.8854 C   0  0  0  0  0  0  0  0  0  0  0  0
    0.2396   -8.9294   -6.6394 C   0  0  0  0  0  0  0  0  0  0  0  0
    0.4564  -10.3828   -6.2840 C   0  0  0  0  0  0  0  0  0  0  0  0
    1.0156  -10.3984   -5.0670 C   0  0  0  0  0  0  0  0  0  0  0  0
    1.1587   -8.9558   -4.6459 C   0  0  0  0  0  0  0  0  0  0  0  0
   -0.1188   -8.4032   -5.2588 C   0  0  0  0  0  0  0  0  0  0  0  0
    2.2739   -8.3541   -5.5549 C   0  0  0  0  0  0  0  0  0  0  0  0
    1.8078   -0.1953   -4.6933 C   0  0  0  0  0  0  0  0  0  0  0  0
    0.8020    0.6539   -4.2121 C   0  0  0  0  0  0  0  0  0  0  0  0
   -0.5406    0.6915   -4.7139 N   0  0  0  0  0  0  0  0  0  0  0  0
   -1.0272    1.8596   -5.4085 C   0  0  0  0  0  0  0  0  0  0  0  0
   -0.1704    2.6054   -6.2359 C   0  0  0  0  0  0  0  0  0  0  0  0
   -0.6510    3.7066   -6.9511 C   0  0  0  0  0  0  0  0  0  0  0  0
   -1.9911    4.0876   -6.8320 C   0  0  0  0  0  0  0  0  0  0  0  0
   -2.6375    5.4384   -7.8245 S   0  0  0  0  0  0  0  0  0  0  0  0
   -2.2150    6.7206   -6.6070 C   0  0  0  0  0  0  0  0  0  0  0  0
   -2.8472    3.3746   -5.9882 C   0  0  0  0  0  0  0  0  0  0  0  0
   -2.3699    2.2638   -5.2802 C   0  0  0  0  0  0  0  0  0  0  0  0
   -1.4128   -0.4129   -4.4038 C   0  0  0  0  0  0  0  0  0  0  0  0
   -2.1776   -1.0203   -5.4145 C   0  0  0  0  0  0  0  0  0  0  0  0
   -3.0112   -2.1017   -5.1158 C   0  0  0  0  0  0  0  0  0  0  0  0
   -3.1105   -2.5722   -3.8017 C   0  0  0  0  0  0  0  0  0  0  0  0
   -4.2070   -3.9331   -3.4049 S   0  0  0  0  0  0  0  0  0  0  0  0
   -5.6690   -2.8625   -3.2346 C   0  0  0  0  0  0  0  0  0  0  0  0
   -2.3466   -1.9756   -2.7900 C   0  0  0  0  0  0  0  0  0  0  0  0
   -1.4965   -0.9085   -3.0908 C   0  0  0  0  0  0  0  0  0  0  0  0
    1.1867    1.2797   -3.0423 C   0  0  0  0  0  0  0  0  0  0  0  0
    0.3889    2.2161   -1.9236 S   0  0  0  0  0  0  0  0  0  0  0  0
    1.6673    2.2139   -0.7932 C   0  0  0  0  0  0  0  0  0  0  0  0
    2.7365    1.4685   -1.3358 C   0  0  0  0  0  0  0  0  0  0  0  0
    3.9823    1.1991   -0.6770 N   0  0  0  0  0  0  0  0  0  0  0  0
    4.2506   -0.1440   -0.2320 C   0  0  0  0  0  0  0  0  0  0  0  0
    3.3268   -0.8193    0.5836 C   0  0  0  0  0  0  0  0  0  0  0  0
    3.6092   -2.1063    1.0530 C   0  0  0  0  0  0  0  0  0  0  0  0
    4.8026   -2.7388    0.6872 C   0  0  0  0  0  0  0  0  0  0  0  0
    5.1991   -4.3592    1.3449 S   0  0  0  0  0  0  0  0  0  0  0  0
    6.1741   -3.6835    2.7274 C   0  0  0  0  0  0  0  0  0  0  0  0
    5.7023   -2.0904   -0.1633 C   0  0  0  0  0  0  0  0  0  0  0  0
    5.4407   -0.7915   -0.6059 C   0  0  0  0  0  0  0  0  0  0  0  0
    5.0273    2.1938   -0.6861 C   0  0  0  0  0  0  0  0  0  0  0  0
    5.2273    3.0165   -1.8116 C   0  0  0  0  0  0  0  0  0  0  0  0
    6.2625    3.9531   -1.8278 C   0  0  0  0  0  0  0  0  0  0  0  0
    7.1017    4.0893   -0.7155 C   0  0  0  0  0  0  0  0  0  0  0  0
    8.4304    5.2900   -0.7318 S   0  0  0  0  0  0  0  0  0  0  0  0
    7.3802    6.6413   -0.1050 C   0  0  0  0  0  0  0  0  0  0  0  0
    6.9046    3.2814    0.4095 C   0  0  0  0  0  0  0  0  0  0  0  0
    5.8830    2.3289    0.4179 C   0  0  0  0  0  0  0  0  0  0  0  0
    2.4208    0.9684   -2.5946 C   0  0  0  0  0  0  0  0  0  0  0  0
    3.1743   -0.0703   -3.6701 S   0  0  0  0  0  0  0  0  0  0  0  0
    1.5918    2.8417    0.5429 C   0  0  0  0  0  0  0  0  0  0  0  0
    0.5649    3.6922    0.9950 C   0  0  0  0  0  0  0  0  0  0  0  0
   -0.7810    3.6558    0.4790 N   0  0  0  0  0  0  0  0  0  0  0  0
   -1.2876    4.7961   -0.2546 C   0  0  0  0  0  0  0  0  0  0  0  0
   -0.4401    5.5375   -1.1008 C   0  0  0  0  0  0  0  0  0  0  0  0
   -0.9498    6.5796   -1.8823 C   0  0  0  0  0  0  0  0  0  0  0  0
   -2.3088    6.9043   -1.8217 C   0  0  0  0  0  0  0  0  0  0  0  0
   -2.9791    8.1889   -2.8843 S   0  0  0  0  0  0  0  0  0  0  0  0
   -2.8429    9.4912   -1.6221 C   0  0  0  0  0  0  0  0  0  0  0  0
   -3.1553    6.2044   -0.9536 C   0  0  0  0  0  0  0  0  0  0  0  0
   -2.6447    5.1714   -0.1633 C   0  0  0  0  0  0  0  0  0  0  0  0
   -1.6405    2.5225    0.7939 C   0  0  0  0  0  0  0  0  0  0  0  0
   -1.5755    1.8837    2.0524 C   0  0  0  0  0  0  0  0  0  0  0  0
   -2.4937    0.8884    2.3933 C   0  0  0  0  0  0  0  0  0  0  0  0
   -3.4652    0.4798    1.4793 C   0  0  0  0  0  0  0  0  0  0  0  0
   -4.7094   -0.7134    1.9751 S   0  0  0  0  0  0  0  0  0  0  0  0
   -3.7270   -2.1554    1.4694 C   0  0  0  0  0  0  0  0  0  0  0  0
   -3.4994    1.0490    0.2025 C   0  0  0  0  0  0  0  0  0  0  0  0
   -2.5928    2.0606   -0.1382 C   0  0  0  0  0  0  0  0  0  0  0  0
    0.8297    4.1396    2.2836 C   0  0  0  0  0  0  0  0  0  0  0  0
   -0.1704    4.8475    3.4019 S   0  0  0  0  0  0  0  0  0  0  0  0
    0.7095    4.3394    4.7743 C   0  0  0  0  0  0  0  0  0  0  0  0
    1.8286    3.5822    4.3250 C   0  0  0  0  0  0  0  0  0  0  0  0
    2.6888    2.7507    5.1360 N   0  0  0  0  0  0  0  0  0  0  0  0
    4.0941    2.6878    4.8051 C   0  0  0  0  0  0  0  0  0  0  0  0
    4.8632    3.8560    4.7456 C   0  0  0  0  0  0  0  0  0  0  0  0
    6.2284    3.7923    4.4345 C   0  0  0  0  0  0  0  0  0  0  0  0
    6.8302    2.5573    4.1681 C   0  0  0  0  0  0  0  0  0  0  0  0
    8.5825    2.4688    3.7874 S   0  0  0  0  0  0  0  0  0  0  0  0
    9.0757    2.1166    5.5027 C   0  0  0  0  0  0  0  0  0  0  0  0
    6.0613    1.3911    4.1828 C   0  0  0  0  0  0  0  0  0  0  0  0
    4.7037    1.4510    4.5042 C   0  0  0  0  0  0  0  0  0  0  0  0
    2.1505    1.7053    5.9741 C   0  0  0  0  0  0  0  0  0  0  0  0
    1.0705    0.9162    5.5415 C   0  0  0  0  0  0  0  0  0  0  0  0
    0.6383   -0.1731    6.3098 C   0  0  0  0  0  0  0  0  0  0  0  0
    1.2933   -0.4911    7.5028 C   0  0  0  0  0  0  0  0  0  0  0  0
    0.8233   -1.9497    8.4363 S   0  0  0  0  0  0  0  0  0  0  0  0
   -0.3570   -1.0607    9.4967 C   0  0  0  0  0  0  0  0  0  0  0  0
    2.3626    0.2950    7.9444 C   0  0  0  0  0  0  0  0  0  0  0  0
    2.7844    1.3936    7.1902 C   0  0  0  0  0  0  0  0  0  0  0  0
    1.8747    3.5488    2.9187 C   0  0  0  0  0  0  0  0  0  0  0  0
    2.6622    2.5418    1.8342 S   0  0  0  0  0  0  0  0  0  0  0  0
    0.0621    4.4112    6.1037 C   0  0  0  0  0  0  0  0  0  0  0  0
   -1.3480    5.3508    6.2874 S   0  0  0  0  0  0  0  0  0  0  0  0
   -1.9911    4.3489    7.4542 C   0  0  0  0  0  0  0  0  0  0  0  0
   -3.2963    3.9921    7.5222 N   0  0  0  0  0  0  0  0  0  0  0  0
   -3.4196    2.7148    7.9654 C   0  0  0  0  0  0  0  0  0  0  0  0
   -1.8954    2.0139    8.2690 S   0  0  0  0  0  0  0  0  0  0  0  0
   -1.0721    3.3718    7.7362 C   0  0  0  0  0  0  0  0  0  0  0  0
    0.0453    3.3567    6.9613 N   0  0  0  0  0  0  0  0  0  0  0  0
   -4.7080    1.9878    7.8470 C   0  0  0  0  0  0  0  0  0  0  0  0
   -5.8399    2.6134    8.3916 C   0  0  0  0  0  0  0  0  0  0  0  0
   -7.1099    2.0685    8.2370 C   0  0  0  0  0  0  0  0  0  0  0  0
   -7.2952    0.8657    7.5378 C   0  0  0  0  0  0  0  0  0  0  0  0
   -8.6641    0.3296    7.3261 C   0  0  0  0  0  0  0  0  0  0  0  0
   -9.6644    0.9549    7.7790 O   0  0  0  0  0  0  0  0  0  0  0  0
   -8.8568   -0.8797    6.5759 N   0  0  0  0  0  0  0  0  0  0  0  0
  -10.2045   -1.2958    6.1471 C   0  0  0  0  0  0  0  0  0  0  0  0
  -10.5240   -0.7203    4.7713 C   0  0  0  0  0  0  0  0  0  0  0  0
   -7.7025   -1.5854    6.0881 C   0  0  0  0  0  0  0  0  0  0  0  0
   -7.8455   -2.6930    5.4955 O   0  0  0  0  0  0  0  0  0  0  0  0
   -6.3518   -1.0012    6.2550 C   0  0  0  0  0  0  0  0  0  0  0  0
   -5.2454   -1.6221    5.6553 C   0  0  0  0  0  0  0  0  0  0  0  0
   -3.9906   -1.0351    5.7180 C   0  0  0  0  0  0  0  0  0  0  0  0
   -3.8107    0.1632    6.3993 C   0  0  0  0  0  0  0  0  0  0  0  0
   -4.8759    0.7808    7.0959 C   0  0  0  0  0  0  0  0  0  0  0  0
   -6.1788    0.2078    6.9740 C   0  0  0  0  0  0  0  0  0  0  0  0
    1.0621   -0.5198   -6.6904 H   0  0  0  0  0  0  0  0  0  0  0  0
    3.1311   -5.7424   -3.8991 H   0  0  0  0  0  0  0  0  0  0  0  0
    1.0210   -5.6943   -8.5514 H   0  0  0  0  0  0  0  0  0  0  0  0
    2.2588   -8.8266   -7.6822 H   0  0  0  0  0  0  0  0  0  0  0  0
   -0.5115   -8.7450   -7.4402 H   0  0  0  0  0  0  0  0  0  0  0  0
    0.1500  -11.2533   -6.8532 H   0  0  0  0  0  0  0  0  0  0  0  0
    1.2382  -11.2807   -4.4770 H   0  0  0  0  0  0  0  0  0  0  0  0
    1.2787   -8.7904   -3.5545 H   0  0  0  0  0  0  0  0  0  0  0  0
   -1.0478   -8.8623   -4.8382 H   0  0  0  0  0  0  0  0  0  0  0  0
   -0.2135   -7.2990   -5.2016 H   0  0  0  0  0  0  0  0  0  0  0  0
    3.2621   -8.8642   -5.5088 H   0  0  0  0  0  0  0  0  0  0  0  0
    0.8701    2.3242   -6.3493 H   0  0  0  0  0  0  0  0  0  0  0  0
    0.0129    4.2513   -7.6111 H   0  0  0  0  0  0  0  0  0  0  0  0
   -2.7089    6.5062   -5.6371 H   0  0  0  0  0  0  0  0  0  0  0  0
   -2.5663    7.7025   -6.9795 H   0  0  0  0  0  0  0  0  0  0  0  0
   -1.1137    6.7592   -6.4663 H   0  0  0  0  0  0  0  0  0  0  0  0
   -3.8884    3.6587   -5.8998 H   0  0  0  0  0  0  0  0  0  0  0  0
   -3.0531    1.7150   -4.6433 H   0  0  0  0  0  0  0  0  0  0  0  0
   -2.1158   -0.6568   -6.4297 H   0  0  0  0  0  0  0  0  0  0  0  0
   -3.5935   -2.5640   -5.9014 H   0  0  0  0  0  0  0  0  0  0  0  0
   -6.0312   -2.5705   -4.2397 H   0  0  0  0  0  0  0  0  0  0  0  0
   -6.4710   -3.4301   -2.7220 H   0  0  0  0  0  0  0  0  0  0  0  0
   -5.4345   -1.9580   -2.6379 H   0  0  0  0  0  0  0  0  0  0  0  0
   -2.4191   -2.3332   -1.7754 H   0  0  0  0  0  0  0  0  0  0  0  0
   -0.9215   -0.4546   -2.2969 H   0  0  0  0  0  0  0  0  0  0  0  0
    2.3979   -0.3438    0.8707 H   0  0  0  0  0  0  0  0  0  0  0  0
    2.9114   -2.6008    1.7132 H   0  0  0  0  0  0  0  0  0  0  0  0
    6.4845   -4.5132    3.3947 H   0  0  0  0  0  0  0  0  0  0  0  0
    5.5643   -2.9596    3.3107 H   0  0  0  0  0  0  0  0  0  0  0  0
    7.0820   -3.1794    2.3349 H   0  0  0  0  0  0  0  0  0  0  0  0
    6.6224   -2.5778   -0.4566 H   0  0  0  0  0  0  0  0  0  0  0  0
    6.1489   -0.2961   -1.2562 H   0  0  0  0  0  0  0  0  0  0  0  0
    4.5922    2.9237   -2.6822 H   0  0  0  0  0  0  0  0  0  0  0  0
    6.4160    4.5687   -2.7057 H   0  0  0  0  0  0  0  0  0  0  0  0
    6.5796    6.8630   -0.8402 H   0  0  0  0  0  0  0  0  0  0  0  0
    8.0013    7.5483    0.0396 H   0  0  0  0  0  0  0  0  0  0  0  0
    6.9334    6.3544    0.8723 H   0  0  0  0  0  0  0  0  0  0  0  0
    7.5492    3.3903    1.2673 H   0  0  0  0  0  0  0  0  0  0  0  0
    5.7506    1.7055    1.2900 H   0  0  0  0  0  0  0  0  0  0  0  0
    0.6099    5.2892   -1.1852 H   0  0  0  0  0  0  0  0  0  0  0  0
   -0.2948    7.1238   -2.5529 H   0  0  0  0  0  0  0  0  0  0  0  0
   -1.7837    9.6186   -1.3137 H   0  0  0  0  0  0  0  0  0  0  0  0
   -3.2118   10.4469   -2.0491 H   0  0  0  0  0  0  0  0  0  0  0  0
   -3.4679    9.2323   -0.7409 H   0  0  0  0  0  0  0  0  0  0  0  0
   -4.2069    6.4585   -0.8887 H   0  0  0  0  0  0  0  0  0  0  0  0
   -3.3169    4.6521    0.5109 H   0  0  0  0  0  0  0  0  0  0  0  0
   -0.8521    2.1695    2.7953 H   0  0  0  0  0  0  0  0  0  0  0  0
   -2.4620    0.4499    3.3828 H   0  0  0  0  0  0  0  0  0  0  0  0
   -4.2240   -3.0779    1.8355 H   0  0  0  0  0  0  0  0  0  0  0  0
   -3.6757   -2.1916    0.3631 H   0  0  0  0  0  0  0  0  0  0  0  0
   -2.7016   -2.1033    1.8982 H   0  0  0  0  0  0  0  0  0  0  0  0
   -4.2491    0.7355   -0.5151 H   0  0  0  0  0  0  0  0  0  0  0  0
   -2.6500    2.5029   -1.1269 H   0  0  0  0  0  0  0  0  0  0  0  0
    4.4082    4.8176    4.9515 H   0  0  0  0  0  0  0  0  0  0  0  0
    6.8166    4.7005    4.4121 H   0  0  0  0  0  0  0  0  0  0  0  0
    8.6869    1.1231    5.8105 H   0  0  0  0  0  0  0  0  0  0  0  0
    8.6877    2.9036    6.1823 H   0  0  0  0  0  0  0  0  0  0  0  0
   10.1842    2.1030    5.5635 H   0  0  0  0  0  0  0  0  0  0  0  0
    6.5163    0.4342    3.9509 H   0  0  0  0  0  0  0  0  0  0  0  0
    4.1236    0.5368    4.4979 H   0  0  0  0  0  0  0  0  0  0  0  0
    0.5795    1.1255    4.6008 H   0  0  0  0  0  0  0  0  0  0  0  0
   -0.1910   -0.7758    5.9676 H   0  0  0  0  0  0  0  0  0  0  0  0
   -1.2524   -0.7868    8.9033 H   0  0  0  0  0  0  0  0  0  0  0  0
    0.1077   -0.1466    9.9254 H   0  0  0  0  0  0  0  0  0  0  0  0
   -0.6636   -1.7252   10.3283 H   0  0  0  0  0  0  0  0  0  0  0  0
    2.8841    0.0532    8.8624 H   0  0  0  0  0  0  0  0  0  0  0  0
    3.6283    1.9792    7.5312 H   0  0  0  0  0  0  0  0  0  0  0  0
   -5.7428    3.5569    8.9213 H   0  0  0  0  0  0  0  0  0  0  0  0
   -7.9524    2.6008    8.6580 H   0  0  0  0  0  0  0  0  0  0  0  0
  -10.9741   -0.9621    6.8763 H   0  0  0  0  0  0  0  0  0  0  0  0
  -10.2681   -2.4055    6.1074 H   0  0  0  0  0  0  0  0  0  0  0  0
  -10.5768    0.3886    4.8159 H   0  0  0  0  0  0  0  0  0  0  0  0
   -9.7421   -1.0145    4.0376 H   0  0  0  0  0  0  0  0  0  0  0  0
  -11.5051   -1.1082    4.4229 H   0  0  0  0  0  0  0  0  0  0  0  0
   -5.3558   -2.5523    5.1117 H   0  0  0  0  0  0  0  0  0  0  0  0
   -3.1520   -1.5071    5.2166 H   0  0  0  0  0  0  0  0  0  0  0  0
   -2.8343    0.6101    6.3267 H   0  0  0  0  0  0  0  0  0  0  0  0
  1  2  2  3
  2  3  1  0
  3  4  2  0
  3  5  1  0
  5  6  2  0
  6  7  1  0
  7  8  2  0
  8  9  1  0
  9 10  2  0
 10 11  1  0
 11 12  2  3
 12 13  1  0
 13 14  3  0
 12 15  1  0
 15 16  3  0
  8 17  1  0
 17 18  1  0
 18 19  1  0
 19 20  2  0
 20 21  1  0
 21 22  1  0
 21 23  1  0
  1 24  1  0
 24 25  2  0
 25 26  1  0
 26 27  1  0
 27 28  2  0
 28 29  1  0
 29 30  2  0
 30 31  1  0
 31 32  1  0
 30 33  1  0
 33 34  2  0
 26 35  1  0
 35 36  2  0
 36 37  1  0
 37 38  2  0
 38 39  1  0
 39 40  1  0
 38 41  1  0
 41 42  2  0
 25 43  1  0
 43 44  1  0
 44 45  1  0
 45 46  2  0
 46 47  1  0
 47 48  1  0
 48 49  2  0
 49 50  1  0
 50 51  2  0
 51 52  1  0
 52 53  1  0
 51 54  1  0
 54 55  2  0
 47 56  1  0
 56 57  2  0
 57 58  1  0
 58 59  2  0
 59 60  1  0
 60 61  1  0
 59 62  1  0
 62 63  2  0
 46 64  1  0
 64 65  1  0
 45 66  1  0
 66 67  2  0
 67 68  1  0
 68 69  1  0
 69 70  2  0
 70 71  1  0
 71 72  2  0
 72 73  1  0
 73 74  1  0
 72 75  1  0
 75 76  2  0
 68 77  1  0
 77 78  2  0
 78 79  1  0
 79 80  2  0
 80 81  1  0
 81 82  1  0
 80 83  1  0
 83 84  2  0
 67 85  1  0
 85 86  1  0
 86 87  1  0
 87 88  2  0
 88 89  1  0
 89 90  1  0
 90 91  2  0
 91 92  1  0
 92 93  2  0
 93 94  1  0
 94 95  1  0
 93 96  1  0
 96 97  2  0
 89 98  1  0
 98 99  2  0
 99100  1  0
100101  2  0
101102  1  0
102103  1  0
101104  1  0
104105  2  0
 88106  1  0
106107  1  0
 87108  1  0
108109  1  0
109110  1  0
110111  1  0
111112  2  0
112113  1  0
113114  1  0
114115  1  0
112116  1  0
116117  2  0
117118  1  0
118119  2  0
119120  1  0
120121  2  0
120122  1  0
122123  1  0
123124  1  0
122125  1  0
125126  2  0
125127  1  0
127128  1  0
128129  2  0
129130  1  0
130131  2  0
131132  1  0
 11  2  1  0
 23 17  1  0
 65 24  1  0
107 66  1  0
115108  2  0
131116  1  0
 10  5  1  0
 22 18  1  0
 34 27  1  0
 42 35  1  0
 64 43  2  0
 76 69  1  0
 84 77  1  0
106 85  2  0
114110  2  0
132119  1  0
 23  7  1  0
 55 48  1  0
 63 56  1  0
 97 90  1  0
105 98  1  0
132127  2  0
  1133  1  0
  6134  1  0
  9135  1  0
 17136  1  0
 18137  1  0
 19138  1  0
 20139  1  0
 21140  1  0
 22141  1  0
 22142  1  0
 23143  1  0
 28144  1  0
 29145  1  0
 32146  1  0
 32147  1  0
 32148  1  0
 33149  1  0
 34150  1  0
 36151  1  0
 37152  1  0
 40153  1  0
 40154  1  0
 40155  1  0
 41156  1  0
 42157  1  0
 49158  1  0
 50159  1  0
 53160  1  0
 53161  1  0
 53162  1  0
 54163  1  0
 55164  1  0
 57165  1  0
 58166  1  0
 61167  1  0
 61168  1  0
 61169  1  0
 62170  1  0
 63171  1  0
 70172  1  0
 71173  1  0
 74174  1  0
 74175  1  0
 74176  1  0
 75177  1  0
 76178  1  0
 78179  1  0
 79180  1  0
 82181  1  0
 82182  1  0
 82183  1  0
 83184  1  0
 84185  1  0
 91186  1  0
 92187  1  0
 95188  1  0
 95189  1  0
 95190  1  0
 96191  1  0
 97192  1  0
 99193  1  0
100194  1  0
103195  1  0
103196  1  0
103197  1  0
104198  1  0
105199  1  0
117200  1  0
118201  1  0
123202  1  0
123203  1  0
124204  1  0
124205  1  0
124206  1  0
128207  1  0
129208  1  0
130209  1  0
M  END

