
     RDKit          3D

271296  0  0  0  0  0  0  0  0999 V2000
   -4.4780    0.5082   -7.1900 C   0  0  0  0  0  0  0  0  0  0  0  0
   -5.6225   -0.2094   -7.1486 C   0  0  0  0  0  0  0  0  0  0  0  0
   -6.7856    0.1597   -7.9616 C   0  0  0  0  0  0  0  0  0  0  0  0
   -6.9065    1.2207   -8.6338 O   0  0  0  0  0  0  0  0  0  0  0  0
   -7.7856   -0.8800   -7.8769 C   0  0  0  0  0  0  0  0  0  0  0  0
   -9.0893   -0.8565   -8.4247 C   0  0  0  0  0  0  0  0  0  0  0  0
   -9.8806   -1.9277   -8.0599 C   0  0  0  0  0  0  0  0  0  0  0  0
   -9.4175   -2.9759   -7.2018 C   0  0  0  0  0  0  0  0  0  0  0  0
   -8.1489   -3.0032   -6.6556 C   0  0  0  0  0  0  0  0  0  0  0  0
   -7.3044   -1.9150   -7.0351 C   0  0  0  0  0  0  0  0  0  0  0  0
   -5.9609   -1.5298   -6.5060 C   0  0  0  0  0  0  0  0  0  0  0  0
   -5.3370   -2.1554   -5.4813 C   0  0  0  0  0  0  0  0  0  0  0  0
   -5.4987   -3.5643   -5.2274 C   0  0  0  0  0  0  0  0  0  0  0  0
   -5.6105   -4.6992   -5.0185 N   0  0  0  0  0  0  0  0  0  0  0  0
   -4.6232   -1.4432   -4.4671 C   0  0  0  0  0  0  0  0  0  0  0  0
   -4.0631   -0.9046   -3.6106 N   0  0  0  0  0  0  0  0  0  0  0  0
  -10.7553   -3.6554   -7.2858 C   0  0  0  0  0  0  0  0  0  0  0  0
  -11.7023   -3.5817   -6.0503 C   0  0  0  0  0  0  0  0  0  0  0  0
  -11.4664   -2.2971   -5.2920 C   0  0  0  0  0  0  0  0  0  0  0  0
  -11.9020   -1.3134   -6.0756 C   0  0  0  0  0  0  0  0  0  0  0  0
  -12.4134   -1.9595   -7.3453 C   0  0  0  0  0  0  0  0  0  0  0  0
  -13.0040   -3.2186   -6.7396 C   0  0  0  0  0  0  0  0  0  0  0  0
  -11.2302   -2.5786   -8.1532 C   0  0  0  0  0  0  0  0  0  0  0  0
   -3.2397    0.2344   -6.4521 C   0  0  0  0  0  0  0  0  0  0  0  0
   -2.7116    1.0661   -5.4502 C   0  0  0  0  0  0  0  0  0  0  0  0
   -3.1688    2.4064   -5.1723 N   0  0  0  0  0  0  0  0  0  0  0  0
   -4.5683    2.6224   -4.9150 C   0  0  0  0  0  0  0  0  0  0  0  0
   -5.1838    2.0130   -3.8134 C   0  0  0  0  0  0  0  0  0  0  0  0
   -6.5659    2.1110   -3.6351 C   0  0  0  0  0  0  0  0  0  0  0  0
   -7.3373    2.8462   -4.5413 C   0  0  0  0  0  0  0  0  0  0  0  0
   -9.1148    2.9291   -4.3489 S   0  0  0  0  0  0  0  0  0  0  0  0
   -9.4163    1.5127   -5.4543 C   0  0  0  0  0  0  0  0  0  0  0  0
   -6.7208    3.5038   -5.6132 C   0  0  0  0  0  0  0  0  0  0  0  0
   -5.3425    3.3887   -5.8015 C   0  0  0  0  0  0  0  0  0  0  0  0
   -2.2998    3.5393   -5.4292 C   0  0  0  0  0  0  0  0  0  0  0  0
   -2.5171    4.7714   -4.7843 C   0  0  0  0  0  0  0  0  0  0  0  0
   -1.7146    5.8786   -5.0759 C   0  0  0  0  0  0  0  0  0  0  0  0
   -0.6764    5.7680   -6.0065 C   0  0  0  0  0  0  0  0  0  0  0  0
    0.3213    7.1984   -6.4090 S   0  0  0  0  0  0  0  0  0  0  0  0
    1.5605    6.8857   -5.1156 C   0  0  0  0  0  0  0  0  0  0  0  0
   -0.4474    4.5534   -6.6525 C   0  0  0  0  0  0  0  0  0  0  0  0
   -1.2530    3.4456   -6.3709 C   0  0  0  0  0  0  0  0  0  0  0  0
   -1.5482    0.5163   -4.9188 C   0  0  0  0  0  0  0  0  0  0  0  0
   -0.5793    0.8825   -3.6179 S   0  0  0  0  0  0  0  0  0  0  0  0
    0.5300   -0.3838   -3.8875 C   0  0  0  0  0  0  0  0  0  0  0  0
    0.1172   -1.1098   -5.0263 C   0  0  0  0  0  0  0  0  0  0  0  0
    1.0248   -1.8850   -5.8280 N   0  0  0  0  0  0  0  0  0  0  0  0
    1.7654   -2.9541   -5.2319 C   0  0  0  0  0  0  0  0  0  0  0  0
    1.1011   -4.0999   -4.7756 C   0  0  0  0  0  0  0  0  0  0  0  0
    1.8041   -5.0881   -4.0800 C   0  0  0  0  0  0  0  0  0  0  0  0
    3.1778   -4.9380   -3.8508 C   0  0  0  0  0  0  0  0  0  0  0  0
    4.0694   -6.1665   -2.8985 S   0  0  0  0  0  0  0  0  0  0  0  0
    4.5129   -7.1705   -4.3505 C   0  0  0  0  0  0  0  0  0  0  0  0
    3.8483   -3.8040   -4.3236 C   0  0  0  0  0  0  0  0  0  0  0  0
    3.1464   -2.8200   -5.0220 C   0  0  0  0  0  0  0  0  0  0  0  0
    1.4258   -1.3755   -7.1171 C   0  0  0  0  0  0  0  0  0  0  0  0
    1.6089   -2.2506   -8.2002 C   0  0  0  0  0  0  0  0  0  0  0  0
    1.9188   -1.7505   -9.4695 C   0  0  0  0  0  0  0  0  0  0  0  0
    2.0613   -0.3716   -9.6652 C   0  0  0  0  0  0  0  0  0  0  0  0
    2.4019    0.2694  -11.3001 S   0  0  0  0  0  0  0  0  0  0  0  0
    0.6398    0.4841  -11.7102 C   0  0  0  0  0  0  0  0  0  0  0  0
    1.9228    0.5051   -8.5860 C   0  0  0  0  0  0  0  0  0  0  0  0
    1.6049    0.0102   -7.3210 C   0  0  0  0  0  0  0  0  0  0  0  0
   -1.0828   -0.5980   -5.5347 C   0  0  0  0  0  0  0  0  0  0  0  0
   -2.1571   -1.0589   -6.7520 S   0  0  0  0  0  0  0  0  0  0  0  0
    1.4852   -0.8493   -2.8586 C   0  0  0  0  0  0  0  0  0  0  0  0
    2.4323   -0.0742   -2.1501 C   0  0  0  0  0  0  0  0  0  0  0  0
    2.6677    1.3303   -2.3616 N   0  0  0  0  0  0  0  0  0  0  0  0
    1.6702    2.2839   -1.9342 C   0  0  0  0  0  0  0  0  0  0  0  0
    1.3598    3.3901   -2.7418 C   0  0  0  0  0  0  0  0  0  0  0  0
    0.2835    4.2200   -2.4114 C   0  0  0  0  0  0  0  0  0  0  0  0
   -0.4646    3.9744   -1.2521 C   0  0  0  0  0  0  0  0  0  0  0  0
   -1.9318    4.9391   -0.9092 S   0  0  0  0  0  0  0  0  0  0  0  0
   -3.0665    3.6038   -1.4134 C   0  0  0  0  0  0  0  0  0  0  0  0
   -0.1092    2.9266   -0.4030 C   0  0  0  0  0  0  0  0  0  0  0  0
    0.9357    2.0734   -0.7491 C   0  0  0  0  0  0  0  0  0  0  0  0
    4.0105    1.7544   -2.6746 C   0  0  0  0  0  0  0  0  0  0  0  0
    4.7729    1.0394   -3.6149 C   0  0  0  0  0  0  0  0  0  0  0  0
    6.1133    1.3736   -3.8403 C   0  0  0  0  0  0  0  0  0  0  0  0
    6.7074    2.4103   -3.1138 C   0  0  0  0  0  0  0  0  0  0  0  0
    8.4497    2.7707   -3.3213 S   0  0  0  0  0  0  0  0  0  0  0  0
    8.9703    1.5986   -2.0248 C   0  0  0  0  0  0  0  0  0  0  0  0
    5.9484    3.1484   -2.1994 C   0  0  0  0  0  0  0  0  0  0  0  0
    4.6062    2.8231   -1.9798 C   0  0  0  0  0  0  0  0  0  0  0  0
    2.8616   -0.7181   -0.9780 C   0  0  0  0  0  0  0  0  0  0  0  0
    3.4902   -0.0643    0.4209 S   0  0  0  0  0  0  0  0  0  0  0  0
    2.8677   -1.2496    1.4737 C   0  0  0  0  0  0  0  0  0  0  0  0
    2.1756   -2.2049    0.7037 C   0  0  0  0  0  0  0  0  0  0  0  0
    1.2695   -3.1739    1.2839 N   0  0  0  0  0  0  0  0  0  0  0  0
   -0.0654   -3.3203    0.7539 C   0  0  0  0  0  0  0  0  0  0  0  0
   -0.5269   -4.5888    0.3558 C   0  0  0  0  0  0  0  0  0  0  0  0
   -1.7091   -4.7194   -0.3656 C   0  0  0  0  0  0  0  0  0  0  0  0
   -2.4200   -3.5822   -0.7384 C   0  0  0  0  0  0  0  0  0  0  0  0
   -3.6768   -3.7335   -1.9913 S   0  0  0  0  0  0  0  0  0  0  0  0
   -2.4340   -3.6988   -3.3299 C   0  0  0  0  0  0  0  0  0  0  0  0
   -2.0289   -2.3182   -0.2731 C   0  0  0  0  0  0  0  0  0  0  0  0
   -0.8674   -2.1910    0.4974 C   0  0  0  0  0  0  0  0  0  0  0  0
    1.7799   -4.2354    2.1173 C   0  0  0  0  0  0  0  0  0  0  0  0
    0.9924   -4.7404    3.1679 C   0  0  0  0  0  0  0  0  0  0  0  0
    1.3144   -5.9580    3.7755 C   0  0  0  0  0  0  0  0  0  0  0  0
    2.4417   -6.6704    3.3533 C   0  0  0  0  0  0  0  0  0  0  0  0
    2.8684   -8.2244    4.1315 S   0  0  0  0  0  0  0  0  0  0  0  0
    1.8143   -9.2121    3.0219 C   0  0  0  0  0  0  0  0  0  0  0  0
    3.2669   -6.1408    2.3529 C   0  0  0  0  0  0  0  0  0  0  0  0
    2.9337   -4.9335    1.7341 C   0  0  0  0  0  0  0  0  0  0  0  0
    2.2143   -1.8807   -0.6715 C   0  0  0  0  0  0  0  0  0  0  0  0
    1.1776   -2.2466   -1.9395 S   0  0  0  0  0  0  0  0  0  0  0  0
    2.4200   -0.8615    2.8211 C   0  0  0  0  0  0  0  0  0  0  0  0
    2.7212   -1.4714    4.0604 C   0  0  0  0  0  0  0  0  0  0  0  0
    3.9405   -2.2245    4.2876 N   0  0  0  0  0  0  0  0  0  0  0  0
    4.1873   -2.8863    5.5362 C   0  0  0  0  0  0  0  0  0  0  0  0
    4.8212   -2.2033    6.5850 C   0  0  0  0  0  0  0  0  0  0  0  0
    5.0926   -2.8612    7.7908 C   0  0  0  0  0  0  0  0  0  0  0  0
    4.7663   -4.2150    7.9407 C   0  0  0  0  0  0  0  0  0  0  0  0
    5.1522   -5.0631    9.4704 S   0  0  0  0  0  0  0  0  0  0  0  0
    3.4949   -4.8056   10.1797 C   0  0  0  0  0  0  0  0  0  0  0  0
    4.1677   -4.9076    6.8811 C   0  0  0  0  0  0  0  0  0  0  0  0
    3.8748   -4.2392    5.6878 C   0  0  0  0  0  0  0  0  0  0  0  0
    5.0945   -1.9578    3.4679 C   0  0  0  0  0  0  0  0  0  0  0  0
    5.7738   -3.0083    2.8315 C   0  0  0  0  0  0  0  0  0  0  0  0
    6.8727   -2.7370    2.0064 C   0  0  0  0  0  0  0  0  0  0  0  0
    7.3133   -1.4184    1.8331 C   0  0  0  0  0  0  0  0  0  0  0  0
    8.7151   -1.0696    0.7747 S   0  0  0  0  0  0  0  0  0  0  0  0
    9.9130   -1.2009    2.1402 C   0  0  0  0  0  0  0  0  0  0  0  0
    6.6623   -0.3730    2.4950 C   0  0  0  0  0  0  0  0  0  0  0  0
    5.5621   -0.6416    3.3160 C   0  0  0  0  0  0  0  0  0  0  0  0
    1.9546   -0.8730    5.0765 C   0  0  0  0  0  0  0  0  0  0  0  0
    1.8366   -1.0307    6.7517 S   0  0  0  0  0  0  0  0  0  0  0  0
    0.9502    0.4092    6.9627 C   0  0  0  0  0  0  0  0  0  0  0  0
    0.7939    1.0500    5.7264 C   0  0  0  0  0  0  0  0  0  0  0  0
    0.7804    2.4833    5.6308 N   0  0  0  0  0  0  0  0  0  0  0  0
   -0.1324    3.1713    4.7609 C   0  0  0  0  0  0  0  0  0  0  0  0
   -1.5060    3.1764    5.0347 C   0  0  0  0  0  0  0  0  0  0  0  0
   -2.3648    3.9972    4.2912 C   0  0  0  0  0  0  0  0  0  0  0  0
   -1.8534    4.8007    3.2616 C   0  0  0  0  0  0  0  0  0  0  0  0
   -2.9306    5.9211    2.3674 S   0  0  0  0  0  0  0  0  0  0  0  0
   -2.6789    7.3022    3.5311 C   0  0  0  0  0  0  0  0  0  0  0  0
   -0.4883    4.7567    2.9571 C   0  0  0  0  0  0  0  0  0  0  0  0
    0.3690    3.9548    3.7103 C   0  0  0  0  0  0  0  0  0  0  0  0
    1.8241    3.2346    6.2902 C   0  0  0  0  0  0  0  0  0  0  0  0
    1.5065    4.3891    7.0224 C   0  0  0  0  0  0  0  0  0  0  0  0
    2.4987    5.0610    7.7466 C   0  0  0  0  0  0  0  0  0  0  0  0
    3.8154    4.5909    7.7357 C   0  0  0  0  0  0  0  0  0  0  0  0
    5.0671    5.4133    8.7202 S   0  0  0  0  0  0  0  0  0  0  0  0
    5.5952    6.5097    7.3630 C   0  0  0  0  0  0  0  0  0  0  0  0
    4.1480    3.4655    6.9770 C   0  0  0  0  0  0  0  0  0  0  0  0
    3.1596    2.7913    6.2539 C   0  0  0  0  0  0  0  0  0  0  0  0
    1.2747    0.2511    4.6958 C   0  0  0  0  0  0  0  0  0  0  0  0
    1.4406    0.5044    3.0617 S   0  0  0  0  0  0  0  0  0  0  0  0
    0.4298    0.9694    8.2253 C   0  0  0  0  0  0  0  0  0  0  0  0
   -0.9543    1.1561    8.2947 C   0  0  0  0  0  0  0  0  0  0  0  0
   -1.5255    1.9286    9.3013 C   0  0  0  0  0  0  0  0  0  0  0  0
   -0.7209    2.5604   10.2572 C   0  0  0  0  0  0  0  0  0  0  0  0
   -1.3304    3.4643   11.2633 C   0  0  0  0  0  0  0  0  0  0  0  0
   -2.5765    3.6525   11.2695 O   0  0  0  0  0  0  0  0  0  0  0  0
   -0.4985    4.1460   12.2170 N   0  0  0  0  0  0  0  0  0  0  0  0
   -1.0849    5.1280   13.1443 C   0  0  0  0  0  0  0  0  0  0  0  0
   -1.3237    6.4573   12.4341 C   0  0  0  0  0  0  0  0  0  0  0  0
    0.9282    3.9391   12.1679 C   0  0  0  0  0  0  0  0  0  0  0  0
    1.6815    4.5608   12.9673 O   0  0  0  0  0  0  0  0  0  0  0  0
    1.5118    3.0170   11.1660 C   0  0  0  0  0  0  0  0  0  0  0  0
    2.9018    2.8127   11.1231 C   0  0  0  0  0  0  0  0  0  0  0  0
    3.4651    1.9832   10.1594 C   0  0  0  0  0  0  0  0  0  0  0  0
    2.6581    1.3575    9.2130 C   0  0  0  0  0  0  0  0  0  0  0  0
    1.2621    1.5401    9.2201 C   0  0  0  0  0  0  0  0  0  0  0  0
    0.6775    2.3644   10.2285 C   0  0  0  0  0  0  0  0  0  0  0  0
   -4.4814    1.4428   -7.7362 H   0  0  0  0  0  0  0  0  0  0  0  0
   -9.4511   -0.0459   -9.0422 H   0  0  0  0  0  0  0  0  0  0  0  0
   -7.8858   -3.7767   -5.9602 H   0  0  0  0  0  0  0  0  0  0  0  0
  -10.7148   -4.6531   -7.7846 H   0  0  0  0  0  0  0  0  0  0  0  0
  -11.7378   -4.4957   -5.4229 H   0  0  0  0  0  0  0  0  0  0  0  0
  -11.0739   -2.1875   -4.2864 H   0  0  0  0  0  0  0  0  0  0  0  0
  -11.9498   -0.2654   -5.8011 H   0  0  0  0  0  0  0  0  0  0  0  0
  -13.1185   -1.3363   -7.9355 H   0  0  0  0  0  0  0  0  0  0  0  0
  -13.3418   -3.9647   -7.4935 H   0  0  0  0  0  0  0  0  0  0  0  0
  -13.8448   -3.0185   -6.0312 H   0  0  0  0  0  0  0  0  0  0  0  0
  -11.4902   -2.9235   -9.1773 H   0  0  0  0  0  0  0  0  0  0  0  0
   -4.5913    1.4756   -3.0909 H   0  0  0  0  0  0  0  0  0  0  0  0
   -7.0369    1.6058   -2.7993 H   0  0  0  0  0  0  0  0  0  0  0  0
   -9.1403    0.5653   -4.9452 H   0  0  0  0  0  0  0  0  0  0  0  0
   -8.8345    1.6172   -6.3944 H   0  0  0  0  0  0  0  0  0  0  0  0
  -10.4901    1.4931   -5.7149 H   0  0  0  0  0  0  0  0  0  0  0  0
   -7.3132    4.0690   -6.3208 H   0  0  0  0  0  0  0  0  0  0  0  0
   -4.8850    3.8586   -6.6618 H   0  0  0  0  0  0  0  0  0  0  0  0
   -3.3114    4.8837   -4.0605 H   0  0  0  0  0  0  0  0  0  0  0  0
   -1.8979    6.8205   -4.5758 H   0  0  0  0  0  0  0  0  0  0  0  0
    2.3903    7.6144   -5.2299 H   0  0  0  0  0  0  0  0  0  0  0  0
    1.9668    5.8579   -5.2109 H   0  0  0  0  0  0  0  0  0  0  0  0
    1.1054    7.0210   -4.1162 H   0  0  0  0  0  0  0  0  0  0  0  0
    0.3444    4.4609   -7.3840 H   0  0  0  0  0  0  0  0  0  0  0  0
   -1.0753    2.5280   -6.9151 H   0  0  0  0  0  0  0  0  0  0  0  0
    0.0397   -4.2140   -4.9509 H   0  0  0  0  0  0  0  0  0  0  0  0
    1.2796   -5.9608   -3.7083 H   0  0  0  0  0  0  0  0  0  0  0  0
    5.0595   -8.0737   -4.0107 H   0  0  0  0  0  0  0  0  0  0  0  0
    3.5986   -7.4933   -4.8914 H   0  0  0  0  0  0  0  0  0  0  0  0
    5.1664   -6.5921   -5.0328 H   0  0  0  0  0  0  0  0  0  0  0  0
    4.9051   -3.6716   -4.1403 H   0  0  0  0  0  0  0  0  0  0  0  0
    3.6675   -1.9305   -5.3608 H   0  0  0  0  0  0  0  0  0  0  0  0
    1.4733   -3.3144   -8.0657 H   0  0  0  0  0  0  0  0  0  0  0  0
    2.0251   -2.4304  -10.3059 H   0  0  0  0  0  0  0  0  0  0  0  0
    0.1713    1.2077  -11.0118 H   0  0  0  0  0  0  0  0  0  0  0  0
    0.1097   -0.4900  -11.6427 H   0  0  0  0  0  0  0  0  0  0  0  0
    0.5476    0.8720  -12.7453 H   0  0  0  0  0  0  0  0  0  0  0  0
    2.0372    1.5720   -8.7270 H   0  0  0  0  0  0  0  0  0  0  0  0
    1.4859    0.7097   -6.5026 H   0  0  0  0  0  0  0  0  0  0  0  0
    1.8973    3.5608   -3.6644 H   0  0  0  0  0  0  0  0  0  0  0  0
    0.0163    5.0355   -3.0659 H   0  0  0  0  0  0  0  0  0  0  0  0
   -4.0909    4.0119   -1.5231 H   0  0  0  0  0  0  0  0  0  0  0  0
   -3.0798    2.8078   -0.6404 H   0  0  0  0  0  0  0  0  0  0  0  0
   -2.7488    3.1613   -2.3787 H   0  0  0  0  0  0  0  0  0  0  0  0
   -0.6799    2.7349    0.4971 H   0  0  0  0  0  0  0  0  0  0  0  0
    1.1306    1.2337   -0.1055 H   0  0  0  0  0  0  0  0  0  0  0  0
    4.3376    0.2118   -4.1604 H   0  0  0  0  0  0  0  0  0  0  0  0
    6.6957    0.8049   -4.5512 H   0  0  0  0  0  0  0  0  0  0  0  0
   10.0777    1.6290   -1.9206 H   0  0  0  0  0  0  0  0  0  0  0  0
    8.6622    0.5675   -2.3048 H   0  0  0  0  0  0  0  0  0  0  0  0
    8.5105    1.8752   -1.0498 H   0  0  0  0  0  0  0  0  0  0  0  0
    6.4035    3.9508   -1.6343 H   0  0  0  0  0  0  0  0  0  0  0  0
    4.0445    3.3783   -1.2433 H   0  0  0  0  0  0  0  0  0  0  0  0
    0.0697   -5.4761    0.5248 H   0  0  0  0  0  0  0  0  0  0  0  0
   -2.0116   -5.6980   -0.7194 H   0  0  0  0  0  0  0  0  0  0  0  0
   -2.9333   -3.8322   -4.3065 H   0  0  0  0  0  0  0  0  0  0  0  0
   -1.7004   -4.5223   -3.2023 H   0  0  0  0  0  0  0  0  0  0  0  0
   -1.8978   -2.7280   -3.3279 H   0  0  0  0  0  0  0  0  0  0  0  0
   -2.5798   -1.4332   -0.5666 H   0  0  0  0  0  0  0  0  0  0  0  0
   -0.5310   -1.2070    0.7983 H   0  0  0  0  0  0  0  0  0  0  0  0
    0.0903   -4.2230    3.4689 H   0  0  0  0  0  0  0  0  0  0  0  0
    0.6774   -6.3539    4.5570 H   0  0  0  0  0  0  0  0  0  0  0  0
    2.0403  -10.2860    3.1630 H   0  0  0  0  0  0  0  0  0  0  0  0
    0.7465   -9.0307    3.2602 H   0  0  0  0  0  0  0  0  0  0  0  0
    2.0097   -8.9439    1.9626 H   0  0  0  0  0  0  0  0  0  0  0  0
    4.1480   -6.6825    2.0299 H   0  0  0  0  0  0  0  0  0  0  0  0
    3.5321   -4.5810    0.9063 H   0  0  0  0  0  0  0  0  0  0  0  0
    5.0832   -1.1594    6.4695 H   0  0  0  0  0  0  0  0  0  0  0  0
    5.5645   -2.3202    8.6003 H   0  0  0  0  0  0  0  0  0  0  0  0
    2.7353   -5.3135    9.5494 H   0  0  0  0  0  0  0  0  0  0  0  0
    3.2678   -3.7195   10.2427 H   0  0  0  0  0  0  0  0  0  0  0  0
    3.4664   -5.2397   11.1999 H   0  0  0  0  0  0  0  0  0  0  0  0
    3.9285   -5.9576    6.9804 H   0  0  0  0  0  0  0  0  0  0  0  0
    3.4323   -4.7774    4.8745 H   0  0  0  0  0  0  0  0  0  0  0  0
    5.4386   -4.0272    2.9571 H   0  0  0  0  0  0  0  0  0  0  0  0
    7.3791   -3.5507    1.5054 H   0  0  0  0  0  0  0  0  0  0  0  0
    9.8579   -2.2123    2.5950 H   0  0  0  0  0  0  0  0  0  0  0  0
   10.9395   -1.0371    1.7490 H   0  0  0  0  0  0  0  0  0  0  0  0
    9.6972   -0.4327    2.9137 H   0  0  0  0  0  0  0  0  0  0  0  0
    7.0005    0.6475    2.3725 H   0  0  0  0  0  0  0  0  0  0  0  0
    5.0645    0.1797    3.8208 H   0  0  0  0  0  0  0  0  0  0  0  0
   -1.8991    2.6003    5.8599 H   0  0  0  0  0  0  0  0  0  0  0  0
   -3.4197    4.0348    4.5388 H   0  0  0  0  0  0  0  0  0  0  0  0
   -3.2581    7.1191    4.4605 H   0  0  0  0  0  0  0  0  0  0  0  0
   -3.0400    8.2386    3.0636 H   0  0  0  0  0  0  0  0  0  0  0  0
   -1.6065    7.4334    3.7815 H   0  0  0  0  0  0  0  0  0  0  0  0
   -0.0857    5.3628    2.1531 H   0  0  0  0  0  0  0  0  0  0  0  0
    1.4288    3.9639    3.4961 H   0  0  0  0  0  0  0  0  0  0  0  0
    0.4871    4.7513    7.0574 H   0  0  0  0  0  0  0  0  0  0  0  0
    2.2378    5.9406    8.3248 H   0  0  0  0  0  0  0  0  0  0  0  0
    6.3561    7.2218    7.7472 H   0  0  0  0  0  0  0  0  0  0  0  0
    4.7281    7.0849    6.9712 H   0  0  0  0  0  0  0  0  0  0  0  0
    6.0439    5.9056    6.5458 H   0  0  0  0  0  0  0  0  0  0  0  0
    5.1656    3.0967    6.9558 H   0  0  0  0  0  0  0  0  0  0  0  0
    3.4355    1.9167    5.6797 H   0  0  0  0  0  0  0  0  0  0  0  0
   -1.5992    0.7361    7.5358 H   0  0  0  0  0  0  0  0  0  0  0  0
   -2.6020    2.0658    9.2995 H   0  0  0  0  0  0  0  0  0  0  0  0
   -2.0457    4.7520   13.5540 H   0  0  0  0  0  0  0  0  0  0  0  0
   -0.4176    5.2986   14.0168 H   0  0  0  0  0  0  0  0  0  0  0  0
   -0.4094    6.7673   11.8880 H   0  0  0  0  0  0  0  0  0  0  0  0
   -2.1590    6.3625   11.7060 H   0  0  0  0  0  0  0  0  0  0  0  0
   -1.5885    7.2391   13.1742 H   0  0  0  0  0  0  0  0  0  0  0  0
    3.5603    3.3005   11.8344 H   0  0  0  0  0  0  0  0  0  0  0  0
    4.5355    1.8338   10.1396 H   0  0  0  0  0  0  0  0  0  0  0  0
    3.1455    0.7443    8.4696 H   0  0  0  0  0  0  0  0  0  0  0  0
  1  2  2  3
  2  3  1  0
  3  4  2  0
  3  5  1  0
  5  6  2  0
  6  7  1  0
  7  8  2  0
  8  9  1  0
  9 10  2  0
 10 11  1  0
 11 12  2  3
 12 13  1  0
 13 14  3  0
 12 15  1  0
 15 16  3  0
  8 17  1  0
 17 18  1  0
 18 19  1  0
 19 20  2  0
 20 21  1  0
 21 22  1  0
 21 23  1  0
  1 24  1  0
 24 25  2  0
 25 26  1  0
 26 27  1  0
 27 28  2  0
 28 29  1  0
 29 30  2  0
 30 31  1  0
 31 32  1  0
 30 33  1  0
 33 34  2  0
 26 35  1  0
 35 36  2  0
 36 37  1  0
 37 38  2  0
 38 39  1  0
 39 40  1  0
 38 41  1  0
 41 42  2  0
 25 43  1  0
 43 44  1  0
 44 45  1  0
 45 46  2  0
 46 47  1  0
 47 48  1  0
 48 49  2  0
 49 50  1  0
 50 51  2  0
 51 52  1  0
 52 53  1  0
 51 54  1  0
 54 55  2  0
 47 56  1  0
 56 57  2  0
 57 58  1  0
 58 59  2  0
 59 60  1  0
 60 61  1  0
 59 62  1  0
 62 63  2  0
 46 64  1  0
 64 65  1  0
 45 66  1  0
 66 67  2  0
 67 68  1  0
 68 69  1  0
 69 70  2  0
 70 71  1  0
 71 72  2  0
 72 73  1  0
 73 74  1  0
 72 75  1  0
 75 76  2  0
 68 77  1  0
 77 78  2  0
 78 79  1  0
 79 80  2  0
 80 81  1  0
 81 82  1  0
 80 83  1  0
 83 84  2  0
 67 85  1  0
 85 86  1  0
 86 87  1  0
 87 88  2  0
 88 89  1  0
 89 90  1  0
 90 91  2  0
 91 92  1  0
 92 93  2  0
 93 94  1  0
 94 95  1  0
 93 96  1  0
 96 97  2  0
 89 98  1  0
 98 99  2  0
 99100  1  0
100101  2  0
101102  1  0
102103  1  0
101104  1  0
104105  2  0
 88106  1  0
106107  1  0
 87108  1  0
108109  2  0
109110  1  0
110111  1  0
111112  2  0
112113  1  0
113114  2  0
114115  1  0
115116  1  0
114117  1  0
117118  2  0
110119  1  0
119120  2  0
120121  1  0
121122  2  0
122123  1  0
123124  1  0
122125  1  0
125126  2  0
109127  1  0
127128  1  0
128129  1  0
129130  2  0
130131  1  0
131132  1  0
132133  2  0
133134  1  0
134135  2  0
135136  1  0
136137  1  0
135138  1  0
138139  2  0
131140  1  0
140141  2  0
141142  1  0
142143  2  0
143144  1  0
144145  1  0
143146  1  0
146147  2  0
130148  1  0
148149  1  0
129150  1  0
150151  2  0
151152  1  0
152153  2  0
153154  1  0
154155  2  0
154156  1  0
156157  1  0
157158  1  0
156159  1  0
159160  2  0
159161  1  0
161162  1  0
162163  2  0
163164  1  0
164165  2  0
165166  1  0
 11  2  1  0
 23 17  1  0
 65 24  1  0
107 66  1  0
149108  1  0
165150  1  0
 10  5  1  0
 22 18  1  0
 34 27  1  0
 42 35  1  0
 64 43  2  0
 76 69  1  0
 84 77  1  0
106 85  2  0
118111  1  0
126119  1  0
148127  2  0
166153  1  0
 23  7  1  0
 55 48  1  0
 63 56  1  0
 97 90  1  0
105 98  1  0
139132  1  0
147140  1  0
166161  2  0
  1167  1  0
  6168  1  0
  9169  1  0
 17170  1  0
 18171  1  0
 19172  1  0
 20173  1  0
 21174  1  0
 22175  1  0
 22176  1  0
 23177  1  0
 28178  1  0
 29179  1  0
 32180  1  0
 32181  1  0
 32182  1  0
 33183  1  0
 34184  1  0
 36185  1  0
 37186  1  0
 40187  1  0
 40188  1  0
 40189  1  0
 41190  1  0
 42191  1  0
 49192  1  0
 50193  1  0
 53194  1  0
 53195  1  0
 53196  1  0
 54197  1  0
 55198  1  0
 57199  1  0
 58200  1  0
 61201  1  0
 61202  1  0
 61203  1  0
 62204  1  0
 63205  1  0
 70206  1  0
 71207  1  0
 74208  1  0
 74209  1  0
 74210  1  0
 75211  1  0
 76212  1  0
 78213  1  0
 79214  1  0
 82215  1  0
 82216  1  0
 82217  1  0
 83218  1  0
 84219  1  0
 91220  1  0
 92221  1  0
 95222  1  0
 95223  1  0
 95224  1  0
 96225  1  0
 97226  1  0
 99227  1  0
100228  1  0
103229  1  0
103230  1  0
103231  1  0
104232  1  0
105233  1  0
112234  1  0
113235  1  0
116236  1  0
116237  1  0
116238  1  0
117239  1  0
118240  1  0
120241  1  0
121242  1  0
124243  1  0
124244  1  0
124245  1  0
125246  1  0
126247  1  0
133248  1  0
134249  1  0
137250  1  0
137251  1  0
137252  1  0
138253  1  0
139254  1  0
141255  1  0
142256  1  0
145257  1  0
145258  1  0
145259  1  0
146260  1  0
147261  1  0
151262  1  0
152263  1  0
157264  1  0
157265  1  0
158266  1  0
158267  1  0
158268  1  0
162269  1  0
163270  1  0
164271  1  0
M  END

