
     RDKit          3D

191213  0  0  0  0  0  0  0  0999 V2000
    5.8905    5.7416   -1.4356 C   0  0  0  0  0  0  0  0  0  0  0  0
    6.3021    4.8219   -2.3316 C   0  0  0  0  0  0  0  0  0  0  0  0
    5.7356    3.4736   -2.4779 C   0  0  0  0  0  0  0  0  0  0  0  0
    4.5648    3.1201   -2.1869 O   0  0  0  0  0  0  0  0  0  0  0  0
    6.7594    2.5971   -3.0006 C   0  0  0  0  0  0  0  0  0  0  0  0
    6.7140    1.1857   -3.0794 C   0  0  0  0  0  0  0  0  0  0  0  0
    7.9222    0.6070   -3.4247 C   0  0  0  0  0  0  0  0  0  0  0  0
    9.1111    1.3645   -3.6749 C   0  0  0  0  0  0  0  0  0  0  0  0
    9.1593    2.7493   -3.6082 C   0  0  0  0  0  0  0  0  0  0  0  0
    7.9202    3.3644   -3.2752 C   0  0  0  0  0  0  0  0  0  0  0  0
    7.6262    4.7976   -3.0094 C   0  0  0  0  0  0  0  0  0  0  0  0
    8.2808    5.8640   -3.5219 C   0  0  0  0  0  0  0  0  0  0  0  0
    7.7493    7.1999   -3.4115 C   0  0  0  0  0  0  0  0  0  0  0  0
    7.3218    8.2742   -3.3328 N   0  0  0  0  0  0  0  0  0  0  0  0
    9.4322    5.7167   -4.3736 C   0  0  0  0  0  0  0  0  0  0  0  0
   10.3520    5.6081   -5.0672 N   0  0  0  0  0  0  0  0  0  0  0  0
    9.8986    0.1000   -3.8548 C   0  0  0  0  0  0  0  0  0  0  0  0
   10.8458   -0.3342   -2.6946 C   0  0  0  0  0  0  0  0  0  0  0  0
   10.2920    0.1338   -1.3669 C   0  0  0  0  0  0  0  0  0  0  0  0
    9.1859   -0.5764   -1.1424 C   0  0  0  0  0  0  0  0  0  0  0  0
    9.0210   -1.4991   -2.3284 C   0  0  0  0  0  0  0  0  0  0  0  0
   10.4818   -1.8056   -2.5958 C   0  0  0  0  0  0  0  0  0  0  0  0
    8.6793   -0.6747   -3.6078 C   0  0  0  0  0  0  0  0  0  0  0  0
    4.7241    5.5047   -0.5789 C   0  0  0  0  0  0  0  0  0  0  0  0
    4.7897    5.1568    0.7642 C   0  0  0  0  0  0  0  0  0  0  0  0
    3.4976    4.8015    1.0979 C   0  0  0  0  0  0  0  0  0  0  0  0
    2.9884    4.1346    2.2343 C   0  0  0  0  0  0  0  0  0  0  0  0
    3.8035    3.8548    3.4369 C   0  0  0  0  0  0  0  0  0  0  0  0
    3.6648    2.7688    4.3021 C   0  0  0  0  0  0  0  0  0  0  0  0
    4.4982    2.8411    5.4215 C   0  0  0  0  0  0  0  0  0  0  0  0
    4.5020    1.8972    6.3956 F   0  0  0  0  0  0  0  0  0  0  0  0
    5.2997    3.9742    5.4502 C   0  0  0  0  0  0  0  0  0  0  0  0
    6.2496    4.3642    6.5417 C   0  0  0  0  0  0  0  0  0  0  0  0
    5.7033    5.5425    7.3403 C   0  0  0  0  0  0  0  0  0  0  0  0
    4.9588    4.8964    4.0857 S   0  0  0  0  0  0  0  0  0  0  0  0
    1.6589    3.6856    2.1165 C   0  0  0  0  0  0  0  0  0  0  0  0
    0.8625    4.0109    1.0295 C   0  0  0  0  0  0  0  0  0  0  0  0
    1.3739    4.6574   -0.1102 C   0  0  0  0  0  0  0  0  0  0  0  0
    0.6101    4.7612   -1.3706 C   0  0  0  0  0  0  0  0  0  0  0  0
   -1.0055    5.2188   -1.5118 S   0  0  0  0  0  0  0  0  0  0  0  0
   -1.1109    4.9999   -3.1804 C   0  0  0  0  0  0  0  0  0  0  0  0
   -2.3569    5.1566   -3.9991 C   0  0  0  0  0  0  0  0  0  0  0  0
   -2.8634    6.5930   -3.9574 C   0  0  0  0  0  0  0  0  0  0  0  0
    0.1203    4.5502   -3.6396 C   0  0  0  0  0  0  0  0  0  0  0  0
    1.0814    4.4196   -2.6337 C   0  0  0  0  0  0  0  0  0  0  0  0
    0.3658    4.2417   -4.9365 F   0  0  0  0  0  0  0  0  0  0  0  0
    2.7349    4.9982   -0.0443 C   0  0  0  0  0  0  0  0  0  0  0  0
    3.4867    5.4346   -1.0269 O   0  0  0  0  0  0  0  0  0  0  0  0
   -0.3197    3.3281    1.1980 C   0  0  0  0  0  0  0  0  0  0  0  0
   -0.1151    2.5412    2.3175 C   0  0  0  0  0  0  0  0  0  0  0  0
    1.0402    2.8171    2.8858 O   0  0  0  0  0  0  0  0  0  0  0  0
   -0.8917    1.3345    2.5858 C   0  0  0  0  0  0  0  0  0  0  0  0
   -0.9528    0.2668    1.6789 C   0  0  0  0  0  0  0  0  0  0  0  0
   -0.0885    0.1223    0.5318 N   0  0  0  0  0  0  0  0  0  0  0  0
    1.3498    0.1620    0.6895 C   0  0  0  0  0  0  0  0  0  0  0  0
    1.9523   -0.2647    1.8891 C   0  0  0  0  0  0  0  0  0  0  0  0
    3.3441   -0.2757    2.0226 C   0  0  0  0  0  0  0  0  0  0  0  0
    4.1550    0.1244    0.9571 C   0  0  0  0  0  0  0  0  0  0  0  0
    5.9393    0.0010    1.0741 S   0  0  0  0  0  0  0  0  0  0  0  0
    6.1692    1.7326    1.5832 C   0  0  0  0  0  0  0  0  0  0  0  0
    3.5662    0.5656   -0.2327 C   0  0  0  0  0  0  0  0  0  0  0  0
    2.1797    0.5971   -0.3633 C   0  0  0  0  0  0  0  0  0  0  0  0
   -0.6638   -0.0906   -0.7701 C   0  0  0  0  0  0  0  0  0  0  0  0
   -0.8008   -1.3865   -1.2858 C   0  0  0  0  0  0  0  0  0  0  0  0
   -1.3992   -1.5895   -2.5326 C   0  0  0  0  0  0  0  0  0  0  0  0
   -1.8225   -0.4946   -3.2920 C   0  0  0  0  0  0  0  0  0  0  0  0
   -2.6288   -0.7438   -4.8728 S   0  0  0  0  0  0  0  0  0  0  0  0
   -4.2962   -0.7704   -4.1419 C   0  0  0  0  0  0  0  0  0  0  0  0
   -1.6242    0.8066   -2.8131 C   0  0  0  0  0  0  0  0  0  0  0  0
   -1.0500    1.0059   -1.5582 C   0  0  0  0  0  0  0  0  0  0  0  0
   -1.9366   -0.6362    2.0480 C   0  0  0  0  0  0  0  0  0  0  0  0
   -2.5707   -2.0102    1.3493 S   0  0  0  0  0  0  0  0  0  0  0  0
   -3.7952   -2.2199    2.5083 C   0  0  0  0  0  0  0  0  0  0  0  0
   -3.6855   -1.1963    3.4714 C   0  0  0  0  0  0  0  0  0  0  0  0
   -4.4595   -1.1322    4.6816 N   0  0  0  0  0  0  0  0  0  0  0  0
   -4.3031   -2.1970    5.6453 C   0  0  0  0  0  0  0  0  0  0  0  0
   -3.0373   -2.7659    5.8773 C   0  0  0  0  0  0  0  0  0  0  0  0
   -2.8954   -3.8377    6.7624 C   0  0  0  0  0  0  0  0  0  0  0  0
   -4.0106   -4.3582    7.4239 C   0  0  0  0  0  0  0  0  0  0  0  0
   -3.8196   -5.7534    8.5371 S   0  0  0  0  0  0  0  0  0  0  0  0
   -4.0191   -6.9960    7.2210 C   0  0  0  0  0  0  0  0  0  0  0  0
   -5.2713   -3.7816    7.2188 C   0  0  0  0  0  0  0  0  0  0  0  0
   -5.4182   -2.7071    6.3354 C   0  0  0  0  0  0  0  0  0  0  0  0
   -5.2084    0.0622    4.9999 C   0  0  0  0  0  0  0  0  0  0  0  0
   -5.8080    0.8184    3.9759 C   0  0  0  0  0  0  0  0  0  0  0  0
   -6.4912    2.0004    4.2785 C   0  0  0  0  0  0  0  0  0  0  0  0
   -6.5857    2.4388    5.6029 C   0  0  0  0  0  0  0  0  0  0  0  0
   -7.4131    3.9834    5.9850 S   0  0  0  0  0  0  0  0  0  0  0  0
   -5.8773    4.9553    5.8977 C   0  0  0  0  0  0  0  0  0  0  0  0
   -6.0140    1.6807    6.6292 C   0  0  0  0  0  0  0  0  0  0  0  0
   -5.3233    0.5057    6.3301 C   0  0  0  0  0  0  0  0  0  0  0  0
   -2.6324   -0.3239    3.1729 C   0  0  0  0  0  0  0  0  0  0  0  0
   -2.0663    1.1327    3.8072 S   0  0  0  0  0  0  0  0  0  0  0  0
   -5.0405   -2.9040    2.1280 C   0  0  0  0  0  0  0  0  0  0  0  0
   -5.6797   -2.4702    0.9579 C   0  0  0  0  0  0  0  0  0  0  0  0
   -6.6718   -3.2377    0.3499 C   0  0  0  0  0  0  0  0  0  0  0  0
   -7.1687   -2.8367   -0.8501 F   0  0  0  0  0  0  0  0  0  0  0  0
   -7.0748   -4.4595    0.9121 C   0  0  0  0  0  0  0  0  0  0  0  0
   -6.5712   -4.8208    2.1699 C   0  0  0  0  0  0  0  0  0  0  0  0
   -5.5119   -4.0643    2.7600 C   0  0  0  0  0  0  0  0  0  0  0  0
   -4.9741   -4.5640    3.8987 N   0  0  0  0  0  0  0  0  0  0  0  0
   -5.9291   -5.8899    4.1240 S   0  0  0  0  0  0  0  0  0  0  0  0
   -6.9733   -5.9299    2.8405 N   0  0  0  0  0  0  0  0  0  0  0  0
   -7.8238   -5.4135    0.0696 C   0  0  0  0  0  0  0  0  0  0  0  0
   -7.2959   -5.8491   -1.0928 C   0  0  0  0  0  0  0  0  0  0  0  0
   -8.0947   -6.0129   -2.3060 C   0  0  0  0  0  0  0  0  0  0  0  0
   -9.3299   -6.2524   -2.3482 O   0  0  0  0  0  0  0  0  0  0  0  0
   -7.2449   -5.7357   -3.4563 C   0  0  0  0  0  0  0  0  0  0  0  0
   -7.6243   -5.7009   -4.8190 C   0  0  0  0  0  0  0  0  0  0  0  0
   -6.5818   -5.4087   -5.6821 C   0  0  0  0  0  0  0  0  0  0  0  0
   -5.2448   -5.1558   -5.2335 C   0  0  0  0  0  0  0  0  0  0  0  0
   -4.8709   -5.1650   -3.9040 C   0  0  0  0  0  0  0  0  0  0  0  0
   -5.9226   -5.4733   -3.0034 C   0  0  0  0  0  0  0  0  0  0  0  0
   -5.8800   -5.6642   -1.5316 C   0  0  0  0  0  0  0  0  0  0  0  0
   -4.7892   -5.9727   -0.7961 C   0  0  0  0  0  0  0  0  0  0  0  0
   -4.9028   -6.8300    0.3558 C   0  0  0  0  0  0  0  0  0  0  0  0
   -5.0005   -7.5527    1.2564 N   0  0  0  0  0  0  0  0  0  0  0  0
   -3.4486   -5.6368   -1.1980 C   0  0  0  0  0  0  0  0  0  0  0  0
   -2.3665   -5.3627   -1.5034 N   0  0  0  0  0  0  0  0  0  0  0  0
   -4.7882   -4.9590   -6.6460 C   0  0  0  0  0  0  0  0  0  0  0  0
   -4.5124   -3.4932   -7.0869 C   0  0  0  0  0  0  0  0  0  0  0  0
   -4.4533   -3.5171   -8.5962 C   0  0  0  0  0  0  0  0  0  0  0  0
   -5.7038   -3.7430   -9.0198 C   0  0  0  0  0  0  0  0  0  0  0  0
   -6.5607   -3.8608   -7.7828 C   0  0  0  0  0  0  0  0  0  0  0  0
   -5.8652   -2.8256   -6.9184 C   0  0  0  0  0  0  0  0  0  0  0  0
   -6.1569   -5.2076   -7.1083 C   0  0  0  0  0  0  0  0  0  0  0  0
    6.5217    6.5835   -1.1881 H   0  0  0  0  0  0  0  0  0  0  0  0
    5.8378    0.6021   -2.8297 H   0  0  0  0  0  0  0  0  0  0  0  0
   10.0881    3.2823   -3.7234 H   0  0  0  0  0  0  0  0  0  0  0  0
   10.3153   -0.0323   -4.8780 H   0  0  0  0  0  0  0  0  0  0  0  0
   11.9243   -0.1199   -2.8532 H   0  0  0  0  0  0  0  0  0  0  0  0
   10.7369    0.8486   -0.6823 H   0  0  0  0  0  0  0  0  0  0  0  0
    8.5807   -0.5468   -0.2451 H   0  0  0  0  0  0  0  0  0  0  0  0
    8.3714   -2.3833   -2.1505 H   0  0  0  0  0  0  0  0  0  0  0  0
   10.9857   -2.3331   -1.7513 H   0  0  0  0  0  0  0  0  0  0  0  0
   10.6529   -2.3701   -3.5420 H   0  0  0  0  0  0  0  0  0  0  0  0
    8.3404   -1.2750   -4.4834 H   0  0  0  0  0  0  0  0  0  0  0  0
    5.6888    5.0359    1.3540 H   0  0  0  0  0  0  0  0  0  0  0  0
    2.9843    1.9468    4.1381 H   0  0  0  0  0  0  0  0  0  0  0  0
    7.2261    4.6432    6.0896 H   0  0  0  0  0  0  0  0  0  0  0  0
    6.4158    3.5036    7.2240 H   0  0  0  0  0  0  0  0  0  0  0  0
    4.7060    5.2969    7.7624 H   0  0  0  0  0  0  0  0  0  0  0  0
    5.6143    6.4414    6.6950 H   0  0  0  0  0  0  0  0  0  0  0  0
    6.3967    5.7797    8.1737 H   0  0  0  0  0  0  0  0  0  0  0  0
   -2.1626    4.8694   -5.0550 H   0  0  0  0  0  0  0  0  0  0  0  0
   -3.1423    4.4771   -3.5981 H   0  0  0  0  0  0  0  0  0  0  0  0
   -3.1156    6.8847   -2.9164 H   0  0  0  0  0  0  0  0  0  0  0  0
   -2.0954    7.2865   -4.3615 H   0  0  0  0  0  0  0  0  0  0  0  0
   -3.7830    6.6813   -4.5733 H   0  0  0  0  0  0  0  0  0  0  0  0
    2.0805    4.0533   -2.8241 H   0  0  0  0  0  0  0  0  0  0  0  0
   -1.1597    3.2720    0.5242 H   0  0  0  0  0  0  0  0  0  0  0  0
    1.3479   -0.6172    2.7159 H   0  0  0  0  0  0  0  0  0  0  0  0
    3.7908   -0.6273    2.9443 H   0  0  0  0  0  0  0  0  0  0  0  0
    7.2393    1.9988    1.4826 H   0  0  0  0  0  0  0  0  0  0  0  0
    5.5729    2.4106    0.9404 H   0  0  0  0  0  0  0  0  0  0  0  0
    5.8602    1.8480    2.6391 H   0  0  0  0  0  0  0  0  0  0  0  0
    4.1908    0.8617   -1.0642 H   0  0  0  0  0  0  0  0  0  0  0  0
    1.7551    0.9509   -1.2941 H   0  0  0  0  0  0  0  0  0  0  0  0
   -0.4642   -2.2384   -0.7069 H   0  0  0  0  0  0  0  0  0  0  0  0
   -1.5472   -2.5987   -2.8990 H   0  0  0  0  0  0  0  0  0  0  0  0
   -5.0474   -0.7856   -4.9539 H   0  0  0  0  0  0  0  0  0  0  0  0
   -4.4150   -1.6775   -3.5149 H   0  0  0  0  0  0  0  0  0  0  0  0
   -4.4636    0.1385   -3.5297 H   0  0  0  0  0  0  0  0  0  0  0  0
   -1.9270    1.6586   -3.4066 H   0  0  0  0  0  0  0  0  0  0  0  0
   -0.8848    2.0121   -1.2205 H   0  0  0  0  0  0  0  0  0  0  0  0
   -2.1599   -2.3846    5.3720 H   0  0  0  0  0  0  0  0  0  0  0  0
   -1.9162   -4.2695    6.9210 H   0  0  0  0  0  0  0  0  0  0  0  0
   -3.8332   -8.0052    7.6428 H   0  0  0  0  0  0  0  0  0  0  0  0
   -3.2937   -6.8115    6.4008 H   0  0  0  0  0  0  0  0  0  0  0  0
   -5.0542   -6.9547    6.8292 H   0  0  0  0  0  0  0  0  0  0  0  0
   -6.1381   -4.1786    7.7322 H   0  0  0  0  0  0  0  0  0  0  0  0
   -6.4044   -2.2912    6.1641 H   0  0  0  0  0  0  0  0  0  0  0  0
   -5.7407    0.4976    2.9450 H   0  0  0  0  0  0  0  0  0  0  0  0
   -6.9382    2.5795    3.4790 H   0  0  0  0  0  0  0  0  0  0  0  0
   -5.4026    4.8333    4.9015 H   0  0  0  0  0  0  0  0  0  0  0  0
   -6.1154    6.0263    6.0503 H   0  0  0  0  0  0  0  0  0  0  0  0
   -5.1734    4.6266    6.6911 H   0  0  0  0  0  0  0  0  0  0  0  0
   -6.0831    2.0119    7.6588 H   0  0  0  0  0  0  0  0  0  0  0  0
   -4.8572   -0.0407    7.1398 H   0  0  0  0  0  0  0  0  0  0  0  0
   -5.3489   -1.5673    0.4561 H   0  0  0  0  0  0  0  0  0  0  0  0
   -8.8879   -5.5053    0.2450 H   0  0  0  0  0  0  0  0  0  0  0  0
   -8.6342   -5.8844   -5.1616 H   0  0  0  0  0  0  0  0  0  0  0  0
   -3.8566   -4.9431   -3.6194 H   0  0  0  0  0  0  0  0  0  0  0  0
   -4.0391   -5.7127   -6.9820 H   0  0  0  0  0  0  0  0  0  0  0  0
   -3.6501   -2.9979   -6.5908 H   0  0  0  0  0  0  0  0  0  0  0  0
   -3.5985   -3.3038   -9.2282 H   0  0  0  0  0  0  0  0  0  0  0  0
   -6.0316   -3.7388  -10.0517 H   0  0  0  0  0  0  0  0  0  0  0  0
   -7.6499   -3.7083   -7.9425 H   0  0  0  0  0  0  0  0  0  0  0  0
   -5.9048   -1.7929   -7.3429 H   0  0  0  0  0  0  0  0  0  0  0  0
   -6.2303   -2.7915   -5.8691 H   0  0  0  0  0  0  0  0  0  0  0  0
   -6.2741   -6.1165   -7.7383 H   0  0  0  0  0  0  0  0  0  0  0  0
  1  2  2  3
  2  3  1  0
  3  4  2  0
  3  5  1  0
  5  6  2  0
  6  7  1  0
  7  8  2  0
  8  9  1  0
  9 10  2  0
 10 11  1  0
 11 12  2  3
 12 13  1  0
 13 14  3  0
 12 15  1  0
 15 16  3  0
  8 17  1  0
 17 18  1  0
 18 19  1  0
 19 20  2  0
 20 21  1  0
 21 22  1  0
 21 23  1  0
  1 24  1  0
 24 25  2  0
 25 26  1  0
 26 27  2  0
 27 28  1  0
 28 29  2  0
 29 30  1  0
 30 31  1  0
 30 32  2  0
 32 33  1  0
 33 34  1  0
 32 35  1  0
 27 36  1  0
 36 37  2  0
 37 38  1  0
 38 39  1  0
 39 40  1  0
 40 41  1  0
 41 42  1  0
 42 43  1  0
 41 44  2  0
 44 45  1  0
 44 46  1  0
 38 47  2  0
 47 48  1  0
 37 49  1  0
 49 50  2  0
 50 51  1  0
 50 52  1  0
 52 53  2  0
 53 54  1  0
 54 55  1  0
 55 56  2  0
 56 57  1  0
 57 58  2  0
 58 59  1  0
 59 60  1  0
 58 61  1  0
 61 62  2  0
 54 63  1  0
 63 64  2  0
 64 65  1  0
 65 66  2  0
 66 67  1  0
 67 68  1  0
 66 69  1  0
 69 70  2  0
 53 71  1  0
 71 72  1  0
 72 73  1  0
 73 74  2  0
 74 75  1  0
 75 76  1  0
 76 77  2  0
 77 78  1  0
 78 79  2  0
 79 80  1  0
 80 81  1  0
 79 82  1  0
 82 83  2  0
 75 84  1  0
 84 85  2  0
 85 86  1  0
 86 87  2  0
 87 88  1  0
 88 89  1  0
 87 90  1  0
 90 91  2  0
 74 92  1  0
 92 93  1  0
 73 94  1  0
 94 95  2  0
 95 96  1  0
 96 97  1  0
 96 98  2  0
 98 99  1  0
 99100  1  0
100101  2  0
101102  1  0
102103  1  0
 98104  1  0
104105  2  3
105106  1  0
106107  2  0
106108  1  0
108109  2  0
109110  1  0
110111  2  0
111112  1  0
112113  2  0
113114  1  0
114115  2  3
115116  1  0
116117  3  0
115118  1  0
118119  3  0
111120  1  0
120121  1  0
121122  1  0
122123  2  0
123124  1  0
124125  1  0
124126  1  0
 11  2  1  0
 23 17  1  0
 48 24  1  0
 93 52  1  0
100 94  1  0
114105  1  0
126120  1  0
 10  5  1  0
 22 18  1  0
 47 26  1  0
 62 55  1  0
 70 63  1  0
 92 71  2  0
103 99  2  0
113108  1  0
125121  1  0
 23  7  1  0
 35 28  1  0
 51 36  1  0
 83 76  1  0
 91 84  1  0
126110  1  0
 45 39  2  0
  1127  1  0
  6128  1  0
  9129  1  0
 17130  1  0
 18131  1  0
 19132  1  0
 20133  1  0
 21134  1  0
 22135  1  0
 22136  1  0
 23137  1  0
 25138  1  0
 29139  1  0
 33140  1  0
 33141  1  0
 34142  1  0
 34143  1  0
 34144  1  0
 42145  1  0
 42146  1  0
 43147  1  0
 43148  1  0
 43149  1  0
 45150  1  0
 49151  1  0
 56152  1  0
 57153  1  0
 60154  1  0
 60155  1  0
 60156  1  0
 61157  1  0
 62158  1  0
 64159  1  0
 65160  1  0
 68161  1  0
 68162  1  0
 68163  1  0
 69164  1  0
 70165  1  0
 77166  1  0
 78167  1  0
 81168  1  0
 81169  1  0
 81170  1  0
 82171  1  0
 83172  1  0
 85173  1  0
 86174  1  0
 89175  1  0
 89176  1  0
 89177  1  0
 90178  1  0
 91179  1  0
 95180  1  0
104181  1  0
109182  1  0
112183  1  0
120184  1  0
121185  1  0
122186  1  0
123187  1  0
124188  1  0
125189  1  0
125190  1  0
126191  1  0
M  END

