
     RDKit          3D

238261  0  0  0  0  0  0  0  0999 V2000
   -3.4253    8.8247   -2.9367 C   0  0  0  0  0  0  0  0  0  0  0  0
   -2.8575    9.9039   -3.4856 C   0  0  0  0  0  0  0  0  0  0  0  0
   -2.7717   10.1529   -4.9215 C   0  0  0  0  0  0  0  0  0  0  0  0
   -3.1764    9.3819   -5.8346 O   0  0  0  0  0  0  0  0  0  0  0  0
   -2.2751   11.4963   -5.1207 C   0  0  0  0  0  0  0  0  0  0  0  0
   -2.1019   12.1677   -6.3517 C   0  0  0  0  0  0  0  0  0  0  0  0
   -1.6078   13.4541   -6.2258 C   0  0  0  0  0  0  0  0  0  0  0  0
   -1.2888   14.0456   -4.9576 C   0  0  0  0  0  0  0  0  0  0  0  0
   -1.4739   13.4005   -3.7464 C   0  0  0  0  0  0  0  0  0  0  0  0
   -1.9856   12.0770   -3.8533 C   0  0  0  0  0  0  0  0  0  0  0  0
   -2.2771   11.0858   -2.7784 C   0  0  0  0  0  0  0  0  0  0  0  0
   -1.7629   11.0849   -1.5172 C   0  0  0  0  0  0  0  0  0  0  0  0
   -1.8039    9.9087   -0.6793 C   0  0  0  0  0  0  0  0  0  0  0  0
   -1.8213    8.9620   -0.0174 N   0  0  0  0  0  0  0  0  0  0  0  0
   -0.9651   12.1584   -0.9911 C   0  0  0  0  0  0  0  0  0  0  0  0
   -0.2961   13.0025   -0.5533 N   0  0  0  0  0  0  0  0  0  0  0  0
   -0.7908   15.2819   -5.6393 C   0  0  0  0  0  0  0  0  0  0  0  0
    0.7606   15.4492   -5.7248 C   0  0  0  0  0  0  0  0  0  0  0  0
    1.0005   16.5258   -6.7519 C   0  0  0  0  0  0  0  0  0  0  0  0
    0.6696   16.0001   -7.9396 C   0  0  0  0  0  0  0  0  0  0  0  0
    0.2292   14.5779   -7.6683 C   0  0  0  0  0  0  0  0  0  0  0  0
    1.1963   14.2431   -6.5441 C   0  0  0  0  0  0  0  0  0  0  0  0
   -1.1377   14.6873   -6.9389 C   0  0  0  0  0  0  0  0  0  0  0  0
   -3.2408    7.4950   -3.5238 C   0  0  0  0  0  0  0  0  0  0  0  0
   -1.8336    6.6386   -3.2470 S   0  0  0  0  0  0  0  0  0  0  0  0
   -2.4149    5.0999   -3.5851 C   0  0  0  0  0  0  0  0  0  0  0  0
   -3.7836    5.2330   -3.9011 C   0  0  0  0  0  0  0  0  0  0  0  0
   -4.7746    4.1438   -4.1031 C   0  0  0  0  0  0  0  0  0  0  0  0
   -4.5331    2.9630   -3.7356 O   0  0  0  0  0  0  0  0  0  0  0  0
   -6.1064    4.5007   -4.6410 C   0  0  0  0  0  0  0  0  0  0  0  0
   -7.0421    3.6055   -5.1779 C   0  0  0  0  0  0  0  0  0  0  0  0
   -6.8948    2.1244   -5.3646 C   0  0  0  0  0  0  0  0  0  0  0  0
   -7.3517    1.3680   -4.1207 C   0  0  0  0  0  0  0  0  0  0  0  0
   -8.4051    4.4811   -5.6387 S   0  0  0  0  0  0  0  0  0  0  0  0
   -7.8353    5.9968   -5.1727 C   0  0  0  0  0  0  0  0  0  0  0  0
   -8.5720    7.2744   -5.4353 C   0  0  0  0  0  0  0  0  0  0  0  0
   -8.0751    7.9238   -6.7222 C   0  0  0  0  0  0  0  0  0  0  0  0
   -6.5384    5.8421   -4.6540 C   0  0  0  0  0  0  0  0  0  0  0  0
   -5.6385    6.9220   -4.1845 C   0  0  0  0  0  0  0  0  0  0  0  0
   -6.0429    8.1102   -4.0694 O   0  0  0  0  0  0  0  0  0  0  0  0
   -4.2343    6.5744   -3.8752 C   0  0  0  0  0  0  0  0  0  0  0  0
   -1.6386    3.8972   -3.2328 C   0  0  0  0  0  0  0  0  0  0  0  0
   -1.7305    2.6132   -3.7740 C   0  0  0  0  0  0  0  0  0  0  0  0
   -1.0072    1.6490   -3.0398 C   0  0  0  0  0  0  0  0  0  0  0  0
   -0.9819    0.2350   -3.2261 C   0  0  0  0  0  0  0  0  0  0  0  0
   -1.0101   -0.4410   -4.5719 C   0  0  0  0  0  0  0  0  0  0  0  0
   -1.2366    0.1201   -5.8358 C   0  0  0  0  0  0  0  0  0  0  0  0
   -0.8722   -0.7049   -6.9136 C   0  0  0  0  0  0  0  0  0  0  0  0
   -0.3367   -1.9233   -6.5325 C   0  0  0  0  0  0  0  0  0  0  0  0
    0.5325   -3.1194   -7.6395 Si  0  0  0  0  0  4  0  0  0  0  0  0
    2.1105   -2.2334   -8.1840 C   0  0  0  0  0  0  0  0  0  0  0  0
    3.1897   -3.1669   -8.7302 C   0  0  0  0  0  0  0  0  0  0  0  0
    0.9328   -4.6676   -6.6373 C   0  0  0  0  0  0  0  0  0  0  0  0
    1.0812   -5.9126   -7.5039 C   0  0  0  0  0  0  0  0  0  0  0  0
   -0.6377   -3.4891   -9.0718 C   0  0  0  0  0  0  0  0  0  0  0  0
    0.1068   -3.8097  -10.3588 C   0  0  0  0  0  0  0  0  0  0  0  0
   -0.3079   -1.9537   -4.8658 S   0  0  0  0  0  0  0  0  0  0  0  0
   -0.6085   -0.5052   -2.0781 C   0  0  0  0  0  0  0  0  0  0  0  0
    0.0210    0.0764   -0.9805 C   0  0  0  0  0  0  0  0  0  0  0  0
    0.2674    1.4496   -0.9445 C   0  0  0  0  0  0  0  0  0  0  0  0
    1.1972    2.0258    0.0447 C   0  0  0  0  0  0  0  0  0  0  0  0
    0.9302    2.9954    1.0042 C   0  0  0  0  0  0  0  0  0  0  0  0
    2.0421    3.2888    1.8108 C   0  0  0  0  0  0  0  0  0  0  0  0
    3.1773    2.5513    1.4830 C   0  0  0  0  0  0  0  0  0  0  0  0
    4.8720    2.6976    2.2095 Si  0  0  0  0  0  4  0  0  0  0  0  0
    6.0327    1.5316    1.2946 C   0  0  0  0  0  0  0  0  0  0  0  0
    5.8079    0.0781    1.7030 C   0  0  0  0  0  0  0  0  0  0  0  0
    5.4958    4.4514    1.9584 C   0  0  0  0  0  0  0  0  0  0  0  0
    5.3386    4.8901    0.5075 C   0  0  0  0  0  0  0  0  0  0  0  0
    4.8791    2.2271    4.0329 C   0  0  0  0  0  0  0  0  0  0  0  0
    4.2554    3.3000    4.9098 C   0  0  0  0  0  0  0  0  0  0  0  0
    2.7967    1.5401    0.2018 S   0  0  0  0  0  0  0  0  0  0  0  0
   -0.3504    2.2168   -1.9371 C   0  0  0  0  0  0  0  0  0  0  0  0
   -0.5975    3.8655   -1.9080 S   0  0  0  0  0  0  0  0  0  0  0  0
    0.3073   -0.8183    0.0555 C   0  0  0  0  0  0  0  0  0  0  0  0
   -0.1472   -2.1051   -0.1924 C   0  0  0  0  0  0  0  0  0  0  0  0
   -0.8494   -2.1410   -1.7266 S   0  0  0  0  0  0  0  0  0  0  0  0
    0.0579   -3.2288    0.7380 C   0  0  0  0  0  0  0  0  0  0  0  0
   -0.7016   -4.4146    0.8716 C   0  0  0  0  0  0  0  0  0  0  0  0
   -2.0014   -4.6157    0.2865 N   0  0  0  0  0  0  0  0  0  0  0  0
   -2.1759   -5.0685   -1.0846 C   0  0  0  0  0  0  0  0  0  0  0  0
   -3.4473   -5.0460   -1.6897 C   0  0  0  0  0  0  0  0  0  0  0  0
   -3.6281   -5.5117   -2.9966 C   0  0  0  0  0  0  0  0  0  0  0  0
   -2.5339   -5.9620   -3.7383 C   0  0  0  0  0  0  0  0  0  0  0  0
   -2.7685   -6.6265   -5.3905 S   0  0  0  0  0  0  0  0  0  0  0  0
   -2.9739   -4.9992   -6.1792 C   0  0  0  0  0  0  0  0  0  0  0  0
   -1.2558   -5.9453   -3.1672 C   0  0  0  0  0  0  0  0  0  0  0  0
   -1.0746   -5.5086   -1.8519 C   0  0  0  0  0  0  0  0  0  0  0  0
   -3.1250   -4.4820    1.1740 C   0  0  0  0  0  0  0  0  0  0  0  0
   -3.9531   -5.5820    1.4438 C   0  0  0  0  0  0  0  0  0  0  0  0
   -5.0153   -5.4612    2.3444 C   0  0  0  0  0  0  0  0  0  0  0  0
   -5.2522   -4.2434    2.9887 C   0  0  0  0  0  0  0  0  0  0  0  0
   -6.6207   -4.0827    4.1369 S   0  0  0  0  0  0  0  0  0  0  0  0
   -7.8104   -3.6256    2.8397 C   0  0  0  0  0  0  0  0  0  0  0  0
   -4.4215   -3.1455    2.7362 C   0  0  0  0  0  0  0  0  0  0  0  0
   -3.3581   -3.2650    1.8384 C   0  0  0  0  0  0  0  0  0  0  0  0
   -0.2365   -5.1786    1.9477 C   0  0  0  0  0  0  0  0  0  0  0  0
   -0.6148   -6.6852    2.6015 S   0  0  0  0  0  0  0  0  0  0  0  0
    0.5546   -6.5856    3.8433 C   0  0  0  0  0  0  0  0  0  0  0  0
    1.2465   -5.3646    3.7257 C   0  0  0  0  0  0  0  0  0  0  0  0
    2.3402   -4.9289    4.5529 N   0  0  0  0  0  0  0  0  0  0  0  0
    2.2487   -3.6274    5.1887 C   0  0  0  0  0  0  0  0  0  0  0  0
    3.3709   -2.7821    5.2778 C   0  0  0  0  0  0  0  0  0  0  0  0
    3.2418   -1.4848    5.7929 C   0  0  0  0  0  0  0  0  0  0  0  0
    1.9974   -1.0275    6.2481 C   0  0  0  0  0  0  0  0  0  0  0  0
    1.8016    0.6372    6.8882 S   0  0  0  0  0  0  0  0  0  0  0  0
    1.0988    1.2947    5.3409 C   0  0  0  0  0  0  0  0  0  0  0  0
    0.8864   -1.8696    6.1861 C   0  0  0  0  0  0  0  0  0  0  0  0
    1.0041   -3.1430    5.6386 C   0  0  0  0  0  0  0  0  0  0  0  0
    3.5388   -5.7358    4.6094 C   0  0  0  0  0  0  0  0  0  0  0  0
    4.2767   -5.8469    5.8010 C   0  0  0  0  0  0  0  0  0  0  0  0
    5.3899   -6.6956    5.8699 C   0  0  0  0  0  0  0  0  0  0  0  0
    5.7799   -7.4277    4.7397 C   0  0  0  0  0  0  0  0  0  0  0  0
    7.2379   -8.4783    4.7937 S   0  0  0  0  0  0  0  0  0  0  0  0
    6.3189   -9.9769    5.2551 C   0  0  0  0  0  0  0  0  0  0  0  0
    5.0567   -7.3181    3.5518 C   0  0  0  0  0  0  0  0  0  0  0  0
    3.9450   -6.4799    3.4857 C   0  0  0  0  0  0  0  0  0  0  0  0
    0.7799   -4.6264    2.6476 C   0  0  0  0  0  0  0  0  0  0  0  0
    1.2359   -3.1761    1.9660 S   0  0  0  0  0  0  0  0  0  0  0  0
    1.0085   -7.7315    4.6541 C   0  0  0  0  0  0  0  0  0  0  0  0
    1.2137   -7.6544    5.9837 C   0  0  0  0  0  0  0  0  0  0  0  0
    0.6945   -6.5864    6.8384 C   0  0  0  0  0  0  0  0  0  0  0  0
   -0.3139   -5.8760    6.5908 O   0  0  0  0  0  0  0  0  0  0  0  0
    1.4339   -6.5753    8.0776 C   0  0  0  0  0  0  0  0  0  0  0  0
    1.3713   -5.5961    9.0946 C   0  0  0  0  0  0  0  0  0  0  0  0
    2.2820   -5.7914   10.1133 C   0  0  0  0  0  0  0  0  0  0  0  0
    3.2054   -6.8859   10.1356 C   0  0  0  0  0  0  0  0  0  0  0  0
    3.2750   -7.8436    9.1394 C   0  0  0  0  0  0  0  0  0  0  0  0
    2.3263   -7.6786    8.0891 C   0  0  0  0  0  0  0  0  0  0  0  0
    2.1531   -8.4653    6.8267 C   0  0  0  0  0  0  0  0  0  0  0  0
    2.6767   -9.6914    6.5575 C   0  0  0  0  0  0  0  0  0  0  0  0
    3.4415  -10.4406    7.5177 C   0  0  0  0  0  0  0  0  0  0  0  0
    4.0584  -11.0572    8.2847 N   0  0  0  0  0  0  0  0  0  0  0  0
    2.4528  -10.3834    5.3187 C   0  0  0  0  0  0  0  0  0  0  0  0
    2.2964  -10.9440    4.3152 N   0  0  0  0  0  0  0  0  0  0  0  0
    3.7668   -6.4079   11.4441 C   0  0  0  0  0  0  0  0  0  0  0  0
    3.3629   -7.1827   12.7351 C   0  0  0  0  0  0  0  0  0  0  0  0
    1.9742   -7.7670   12.5794 C   0  0  0  0  0  0  0  0  0  0  0  0
    1.1280   -6.7391   12.5652 C   0  0  0  0  0  0  0  0  0  0  0  0
    1.9672   -5.4886   12.7007 C   0  0  0  0  0  0  0  0  0  0  0  0
    3.0304   -6.0181   13.6486 C   0  0  0  0  0  0  0  0  0  0  0  0
    2.8266   -5.2787   11.4174 C   0  0  0  0  0  0  0  0  0  0  0  0
   -3.7259    8.8337   -1.8983 H   0  0  0  0  0  0  0  0  0  0  0  0
   -2.3248   11.7204   -7.3118 H   0  0  0  0  0  0  0  0  0  0  0  0
   -1.2319   13.8960   -2.8197 H   0  0  0  0  0  0  0  0  0  0  0  0
   -1.3629   16.2021   -5.3849 H   0  0  0  0  0  0  0  0  0  0  0  0
    1.2871   15.5836   -4.7545 H   0  0  0  0  0  0  0  0  0  0  0  0
    1.4199   17.5138   -6.5901 H   0  0  0  0  0  0  0  0  0  0  0  0
    0.7938   16.4814   -8.9029 H   0  0  0  0  0  0  0  0  0  0  0  0
    0.2488   13.9011   -8.5525 H   0  0  0  0  0  0  0  0  0  0  0  0
    2.2685   14.2851   -6.8532 H   0  0  0  0  0  0  0  0  0  0  0  0
    1.0051   13.2641   -6.0499 H   0  0  0  0  0  0  0  0  0  0  0  0
   -1.9409   15.2196   -7.4954 H   0  0  0  0  0  0  0  0  0  0  0  0
   -7.5081    1.7993   -6.2332 H   0  0  0  0  0  0  0  0  0  0  0  0
   -5.8390    1.8721   -5.6029 H   0  0  0  0  0  0  0  0  0  0  0  0
   -7.1113    0.2882   -4.2355 H   0  0  0  0  0  0  0  0  0  0  0  0
   -6.8323    1.7525   -3.2169 H   0  0  0  0  0  0  0  0  0  0  0  0
   -8.4459    1.4823   -3.9852 H   0  0  0  0  0  0  0  0  0  0  0  0
   -9.6578    7.0602   -5.5309 H   0  0  0  0  0  0  0  0  0  0  0  0
   -8.4545    7.9712   -4.5829 H   0  0  0  0  0  0  0  0  0  0  0  0
   -6.9890    8.1369   -6.6643 H   0  0  0  0  0  0  0  0  0  0  0  0
   -8.2646    7.2501   -7.5828 H   0  0  0  0  0  0  0  0  0  0  0  0
   -8.6183    8.8774   -6.8946 H   0  0  0  0  0  0  0  0  0  0  0  0
   -2.3850    2.3863   -4.5933 H   0  0  0  0  0  0  0  0  0  0  0  0
   -1.5771    1.1187   -6.0262 H   0  0  0  0  0  0  0  0  0  0  0  0
   -0.9389   -0.3868   -7.9443 H   0  0  0  0  0  0  0  0  0  0  0  0
    2.5198   -1.7040   -7.2963 H   0  0  0  0  0  0  0  0  0  0  0  0
    1.8509   -1.4702   -8.9501 H   0  0  0  0  0  0  0  0  0  0  0  0
    3.4526   -3.9485   -7.9820 H   0  0  0  0  0  0  0  0  0  0  0  0
    4.1019   -2.5702   -8.9466 H   0  0  0  0  0  0  0  0  0  0  0  0
    2.8608   -3.6494   -9.6741 H   0  0  0  0  0  0  0  0  0  0  0  0
    1.8699   -4.4930   -6.0685 H   0  0  0  0  0  0  0  0  0  0  0  0
    0.1205   -4.8425   -5.9063 H   0  0  0  0  0  0  0  0  0  0  0  0
    0.1144   -6.1645   -7.9868 H   0  0  0  0  0  0  0  0  0  0  0  0
    1.3833   -6.7687   -6.8643 H   0  0  0  0  0  0  0  0  0  0  0  0
    1.8586   -5.7678   -8.2815 H   0  0  0  0  0  0  0  0  0  0  0  0
   -1.2889   -4.3419   -8.7981 H   0  0  0  0  0  0  0  0  0  0  0  0
   -1.2845   -2.6036   -9.2389 H   0  0  0  0  0  0  0  0  0  0  0  0
    0.7605   -4.6967  -10.2255 H   0  0  0  0  0  0  0  0  0  0  0  0
    0.7180   -2.9387  -10.6756 H   0  0  0  0  0  0  0  0  0  0  0  0
   -0.6252   -4.0331  -11.1631 H   0  0  0  0  0  0  0  0  0  0  0  0
   -0.0356    3.4682    1.1304 H   0  0  0  0  0  0  0  0  0  0  0  0
    2.0231    4.0313    2.5963 H   0  0  0  0  0  0  0  0  0  0  0  0
    5.8665    1.6453    0.2019 H   0  0  0  0  0  0  0  0  0  0  0  0
    7.0789    1.8216    1.5233 H   0  0  0  0  0  0  0  0  0  0  0  0
    4.7391   -0.2018    1.6199 H   0  0  0  0  0  0  0  0  0  0  0  0
    6.1410   -0.0787    2.7526 H   0  0  0  0  0  0  0  0  0  0  0  0
    6.4045   -0.5854    1.0419 H   0  0  0  0  0  0  0  0  0  0  0  0
    6.5674    4.4959    2.2465 H   0  0  0  0  0  0  0  0  0  0  0  0
    4.9179    5.1369    2.6077 H   0  0  0  0  0  0  0  0  0  0  0  0
    5.7555    5.9109    0.3839 H   0  0  0  0  0  0  0  0  0  0  0  0
    4.2647    4.9127    0.2261 H   0  0  0  0  0  0  0  0  0  0  0  0
    5.8821    4.2021   -0.1715 H   0  0  0  0  0  0  0  0  0  0  0  0
    4.3118    1.2801    4.1473 H   0  0  0  0  0  0  0  0  0  0  0  0
    5.9290    2.0487    4.3544 H   0  0  0  0  0  0  0  0  0  0  0  0
    3.2224    3.5260    4.5788 H   0  0  0  0  0  0  0  0  0  0  0  0
    4.8630    4.2280    4.8780 H   0  0  0  0  0  0  0  0  0  0  0  0
    4.2180    2.9429    5.9599 H   0  0  0  0  0  0  0  0  0  0  0  0
    0.7750   -0.5246    0.9865 H   0  0  0  0  0  0  0  0  0  0  0  0
   -4.3175   -4.6845   -1.1589 H   0  0  0  0  0  0  0  0  0  0  0  0
   -4.6207   -5.5101   -3.4317 H   0  0  0  0  0  0  0  0  0  0  0  0
   -2.1421   -4.3214   -5.9001 H   0  0  0  0  0  0  0  0  0  0  0  0
   -2.9811   -5.1315   -7.2804 H   0  0  0  0  0  0  0  0  0  0  0  0
   -3.9400   -4.5489   -5.8655 H   0  0  0  0  0  0  0  0  0  0  0  0
   -0.4017   -6.3005   -3.7345 H   0  0  0  0  0  0  0  0  0  0  0  0
   -0.0810   -5.5236   -1.4294 H   0  0  0  0  0  0  0  0  0  0  0  0
   -3.7710   -6.5301    0.9554 H   0  0  0  0  0  0  0  0  0  0  0  0
   -5.6513   -6.3151    2.5378 H   0  0  0  0  0  0  0  0  0  0  0  0
   -8.7797   -3.3589    3.3072 H   0  0  0  0  0  0  0  0  0  0  0  0
   -7.9629   -4.4849    2.1568 H   0  0  0  0  0  0  0  0  0  0  0  0
   -7.4353   -2.7505    2.2673 H   0  0  0  0  0  0  0  0  0  0  0  0
   -4.5952   -2.1990    3.2370 H   0  0  0  0  0  0  0  0  0  0  0  0
   -2.7224   -2.4100    1.6438 H   0  0  0  0  0  0  0  0  0  0  0  0
    4.3377   -3.1050    4.9119 H   0  0  0  0  0  0  0  0  0  0  0  0
    4.1045   -0.8325    5.8324 H   0  0  0  0  0  0  0  0  0  0  0  0
    0.6570    2.2933    5.5427 H   0  0  0  0  0  0  0  0  0  0  0  0
    1.8936    1.3892    4.5735 H   0  0  0  0  0  0  0  0  0  0  0  0
    0.2974    0.6319    4.9539 H   0  0  0  0  0  0  0  0  0  0  0  0
   -0.0826   -1.5252    6.5261 H   0  0  0  0  0  0  0  0  0  0  0  0
    0.1121   -3.7378    5.5283 H   0  0  0  0  0  0  0  0  0  0  0  0
    3.9788   -5.2956    6.6809 H   0  0  0  0  0  0  0  0  0  0  0  0
    5.9519   -6.7721    6.7930 H   0  0  0  0  0  0  0  0  0  0  0  0
    5.4516  -10.1304    4.5840 H   0  0  0  0  0  0  0  0  0  0  0  0
    5.9751   -9.8922    6.3086 H   0  0  0  0  0  0  0  0  0  0  0  0
    6.9930  -10.8555    5.1664 H   0  0  0  0  0  0  0  0  0  0  0  0
    5.3563   -7.8757    2.6696 H   0  0  0  0  0  0  0  0  0  0  0  0
    3.4030   -6.4155    2.5545 H   0  0  0  0  0  0  0  0  0  0  0  0
    1.3664   -8.5602    4.0770 H   0  0  0  0  0  0  0  0  0  0  0  0
    0.6910   -4.7557    9.0691 H   0  0  0  0  0  0  0  0  0  0  0  0
    4.0330   -8.6084    9.1740 H   0  0  0  0  0  0  0  0  0  0  0  0
    4.8327   -6.1011   11.3989 H   0  0  0  0  0  0  0  0  0  0  0  0
    4.1245   -7.8923   13.1272 H   0  0  0  0  0  0  0  0  0  0  0  0
    1.6986   -8.8149   12.5784 H   0  0  0  0  0  0  0  0  0  0  0  0
    0.0438   -6.8032   12.5425 H   0  0  0  0  0  0  0  0  0  0  0  0
    1.4158   -4.5927   13.0561 H   0  0  0  0  0  0  0  0  0  0  0  0
    2.6267   -6.3303   14.6410 H   0  0  0  0  0  0  0  0  0  0  0  0
    3.8788   -5.3095   13.8002 H   0  0  0  0  0  0  0  0  0  0  0  0
    3.3206   -4.2841   11.3439 H   0  0  0  0  0  0  0  0  0  0  0  0
  1  2  2  3
  2  3  1  0
  3  4  2  0
  3  5  1  0
  5  6  2  0
  6  7  1  0
  7  8  2  0
  8  9  1  0
  9 10  2  0
 10 11  1  0
 11 12  2  3
 12 13  1  0
 13 14  3  0
 12 15  1  0
 15 16  3  0
  8 17  1  0
 17 18  1  0
 18 19  1  0
 19 20  2  0
 20 21  1  0
 21 22  1  0
 21 23  1  0
  1 24  1  0
 24 25  1  0
 25 26  1  0
 26 27  2  0
 27 28  1  0
 28 29  2  0
 28 30  1  0
 30 31  2  0
 31 32  1  0
 32 33  1  0
 31 34  1  0
 34 35  1  0
 35 36  1  0
 36 37  1  0
 35 38  2  0
 38 39  1  0
 39 40  2  0
 39 41  1  0
 26 42  1  0
 42 43  2  0
 43 44  1  0
 44 45  2  0
 45 46  1  0
 46 47  2  0
 47 48  1  0
 48 49  2  0
 49 50  1  0
 50 51  1  0
 51 52  1  0
 50 53  1  0
 53 54  1  0
 50 55  1  0
 55 56  1  0
 49 57  1  0
 45 58  1  0
 58 59  2  0
 59 60  1  0
 60 61  1  0
 61 62  2  0
 62 63  1  0
 63 64  2  0
 64 65  1  0
 65 66  1  0
 66 67  1  0
 65 68  1  0
 68 69  1  0
 65 70  1  0
 70 71  1  0
 64 72  1  0
 60 73  2  0
 73 74  1  0
 59 75  1  0
 75 76  2  0
 76 77  1  0
 76 78  1  0
 78 79  2  0
 79 80  1  0
 80 81  1  0
 81 82  2  0
 82 83  1  0
 83 84  2  0
 84 85  1  0
 85 86  1  0
 84 87  1  0
 87 88  2  0
 80 89  1  0
 89 90  2  0
 90 91  1  0
 91 92  2  0
 92 93  1  0
 93 94  1  0
 92 95  1  0
 95 96  2  0
 79 97  1  0
 97 98  1  0
 98 99  1  0
 99100  2  0
100101  1  0
101102  1  0
102103  2  0
103104  1  0
104105  2  0
105106  1  0
106107  1  0
105108  1  0
108109  2  0
101110  1  0
110111  2  0
111112  1  0
112113  2  0
113114  1  0
114115  1  0
113116  1  0
116117  2  0
100118  1  0
118119  1  0
 99120  1  0
120121  2  3
121122  1  0
122123  2  0
122124  1  0
124125  2  0
125126  1  0
126127  2  0
127128  1  0
128129  2  0
129130  1  0
130131  2  3
131132  1  0
132133  3  0
131134  1  0
134135  3  0
127136  1  0
136137  1  0
137138  1  0
138139  2  0
139140  1  0
140141  1  0
140142  1  0
 11  2  1  0
 23 17  1  0
 41 24  2  0
 74 42  1  0
119 78  1  0
130121  1  0
142136  1  0
 10  5  1  0
 22 18  1  0
 41 27  1  0
 73 44  1  0
 88 81  1  0
 96 89  1  0
118 97  2  0
129124  1  0
141137  1  0
 23  7  1  0
 38 30  1  0
 57 46  1  0
 77 58  1  0
109102  1  0
117110  1  0
142126  1  0
 72 61  1  0
  1143  1  0
  6144  1  0
  9145  1  0
 17146  1  0
 18147  1  0
 19148  1  0
 20149  1  0
 21150  1  0
 22151  1  0
 22152  1  0
 23153  1  0
 32154  1  0
 32155  1  0
 33156  1  0
 33157  1  0
 33158  1  0
 36159  1  0
 36160  1  0
 37161  1  0
 37162  1  0
 37163  1  0
 43164  1  0
 47165  1  0
 48166  1  0
 51167  1  0
 51168  1  0
 52169  1  0
 52170  1  0
 52171  1  0
 53172  1  0
 53173  1  0
 54174  1  0
 54175  1  0
 54176  1  0
 55177  1  0
 55178  1  0
 56179  1  0
 56180  1  0
 56181  1  0
 62182  1  0
 63183  1  0
 66184  1  0
 66185  1  0
 67186  1  0
 67187  1  0
 67188  1  0
 68189  1  0
 68190  1  0
 69191  1  0
 69192  1  0
 69193  1  0
 70194  1  0
 70195  1  0
 71196  1  0
 71197  1  0
 71198  1  0
 75199  1  0
 82200  1  0
 83201  1  0
 86202  1  0
 86203  1  0
 86204  1  0
 87205  1  0
 88206  1  0
 90207  1  0
 91208  1  0
 94209  1  0
 94210  1  0
 94211  1  0
 95212  1  0
 96213  1  0
103214  1  0
104215  1  0
107216  1  0
107217  1  0
107218  1  0
108219  1  0
109220  1  0
111221  1  0
112222  1  0
115223  1  0
115224  1  0
115225  1  0
116226  1  0
117227  1  0
120228  1  0
125229  1  0
128230  1  0
136231  1  0
137232  1  0
138233  1  0
139234  1  0
140235  1  0
141236  1  0
141237  1  0
142238  1  0
M  END

