
     RDKit          3D

228251  0  0  0  0  0  0  0  0999 V2000
    1.0755    7.4900    2.1651 C   0  0  0  0  0  0  0  0  0  0  0  0
    0.1479    8.1784    1.4701 C   0  0  0  0  0  0  0  0  0  0  0  0
    0.1691    8.4626    0.0298 C   0  0  0  0  0  0  0  0  0  0  0  0
    1.2013    8.6581   -0.6686 O   0  0  0  0  0  0  0  0  0  0  0  0
   -1.1978    8.4596   -0.4638 C   0  0  0  0  0  0  0  0  0  0  0  0
   -1.6243    8.3703   -1.8129 C   0  0  0  0  0  0  0  0  0  0  0  0
   -2.9810    8.1255   -1.9545 C   0  0  0  0  0  0  0  0  0  0  0  0
   -3.8722    7.9849   -0.8425 C   0  0  0  0  0  0  0  0  0  0  0  0
   -3.4593    8.0710    0.4793 C   0  0  0  0  0  0  0  0  0  0  0  0
   -2.0738    8.3366    0.6442 C   0  0  0  0  0  0  0  0  0  0  0  0
   -1.2692    8.3471    1.8950 C   0  0  0  0  0  0  0  0  0  0  0  0
   -1.7124    8.6681    3.1370 C   0  0  0  0  0  0  0  0  0  0  0  0
   -0.8085    8.8391    4.2460 C   0  0  0  0  0  0  0  0  0  0  0  0
   -0.0875    8.9718    5.1392 N   0  0  0  0  0  0  0  0  0  0  0  0
   -3.0824    9.0272    3.3892 C   0  0  0  0  0  0  0  0  0  0  0  0
   -4.1757    9.3386    3.5940 N   0  0  0  0  0  0  0  0  0  0  0  0
   -5.0174    7.7164   -1.7724 C   0  0  0  0  0  0  0  0  0  0  0  0
   -5.5145    6.2441   -1.8667 C   0  0  0  0  0  0  0  0  0  0  0  0
   -6.3537    6.1660   -3.1223 C   0  0  0  0  0  0  0  0  0  0  0  0
   -5.5095    6.2777   -4.1543 C   0  0  0  0  0  0  0  0  0  0  0  0
   -4.1270    6.4288   -3.5608 C   0  0  0  0  0  0  0  0  0  0  0  0
   -4.2902    5.5001   -2.3678 C   0  0  0  0  0  0  0  0  0  0  0  0
   -4.0963    7.8453   -2.9087 C   0  0  0  0  0  0  0  0  0  0  0  0
    2.2391    6.7425    1.6118 C   0  0  0  0  0  0  0  0  0  0  0  0
    3.4076    6.6796    2.3955 C   0  0  0  0  0  0  0  0  0  0  0  0
    3.5918    7.5501    3.4241 F   0  0  0  0  0  0  0  0  0  0  0  0
    4.3231    5.6280    2.2288 C   0  0  0  0  0  0  0  0  0  0  0  0
    5.3706    5.5098    3.0863 F   0  0  0  0  0  0  0  0  0  0  0  0
    4.0804    4.6209    1.2823 C   0  0  0  0  0  0  0  0  0  0  0  0
    3.0698    4.8311    0.3224 C   0  0  0  0  0  0  0  0  0  0  0  0
    2.9194    3.9900   -0.7417 N   0  0  0  0  0  0  0  0  0  0  0  0
    1.8637    4.0923   -1.5967 C   0  0  0  0  0  0  0  0  0  0  0  0
    1.7748    3.3046   -2.7514 O   0  0  0  0  0  0  0  0  0  0  0  0
    2.7917    2.4138   -3.1980 C   0  0  0  0  0  0  0  0  0  0  0  0
    4.0120    3.1802   -3.6939 C   0  0  0  0  0  0  0  0  0  0  0  0
    0.8435    4.9991   -1.3037 C   0  0  0  0  0  0  0  0  0  0  0  0
    0.9947    5.8411   -0.2519 N   0  0  0  0  0  0  0  0  0  0  0  0
    2.1027    5.8353    0.5357 C   0  0  0  0  0  0  0  0  0  0  0  0
   -0.3726    5.1182   -2.1691 C   0  0  0  0  0  0  0  0  0  0  0  0
    4.3611    3.2229    1.6784 C   0  0  0  0  0  0  0  0  0  0  0  0
    3.4576    2.5911    2.5501 C   0  0  0  0  0  0  0  0  0  0  0  0
    2.9754    3.1782    3.7735 N   0  0  0  0  0  0  0  0  0  0  0  0
    1.6207    3.6914    3.8809 C   0  0  0  0  0  0  0  0  0  0  0  0
    0.7744    3.7358    2.7524 C   0  0  0  0  0  0  0  0  0  0  0  0
   -0.5273    4.2388    2.8509 C   0  0  0  0  0  0  0  0  0  0  0  0
   -1.0138    4.6874    4.0808 C   0  0  0  0  0  0  0  0  0  0  0  0
   -2.6970    5.2942    4.2144 S   0  0  0  0  0  0  0  0  0  0  0  0
   -3.3732    3.6710    4.6904 C   0  0  0  0  0  0  0  0  0  0  0  0
   -0.1958    4.6364    5.2121 C   0  0  0  0  0  0  0  0  0  0  0  0
    1.1064    4.1369    5.1158 C   0  0  0  0  0  0  0  0  0  0  0  0
    3.8530    3.0709    4.9139 C   0  0  0  0  0  0  0  0  0  0  0  0
    4.3079    1.8102    5.3427 C   0  0  0  0  0  0  0  0  0  0  0  0
    5.2562    1.7060    6.3649 C   0  0  0  0  0  0  0  0  0  0  0  0
    5.7766    2.8612    6.9593 C   0  0  0  0  0  0  0  0  0  0  0  0
    7.0027    2.7270    8.2571 S   0  0  0  0  0  0  0  0  0  0  0  0
    8.3888    2.4511    7.1042 C   0  0  0  0  0  0  0  0  0  0  0  0
    5.3174    4.1213    6.5501 C   0  0  0  0  0  0  0  0  0  0  0  0
    4.3543    4.2234    5.5392 C   0  0  0  0  0  0  0  0  0  0  0  0
    3.2426    1.2669    2.2195 C   0  0  0  0  0  0  0  0  0  0  0  0
    2.0723    0.1651    2.6693 S   0  0  0  0  0  0  0  0  0  0  0  0
    2.5988   -0.9981    1.5450 C   0  0  0  0  0  0  0  0  0  0  0  0
    3.7472   -0.5413    0.8542 C   0  0  0  0  0  0  0  0  0  0  0  0
    4.7750   -1.4522    0.4199 N   0  0  0  0  0  0  0  0  0  0  0  0
    5.2479   -1.5384   -0.9441 C   0  0  0  0  0  0  0  0  0  0  0  0
    5.9111   -2.7032   -1.3827 C   0  0  0  0  0  0  0  0  0  0  0  0
    6.4371   -2.7848   -2.6762 C   0  0  0  0  0  0  0  0  0  0  0  0
    6.3326   -1.6914   -3.5414 C   0  0  0  0  0  0  0  0  0  0  0  0
    7.0341   -1.7746   -5.1922 S   0  0  0  0  0  0  0  0  0  0  0  0
    8.6917   -1.2526   -4.6480 C   0  0  0  0  0  0  0  0  0  0  0  0
    5.6698   -0.5344   -3.1233 C   0  0  0  0  0  0  0  0  0  0  0  0
    5.1219   -0.4632   -1.8399 C   0  0  0  0  0  0  0  0  0  0  0  0
    5.5363   -2.0949    1.4605 C   0  0  0  0  0  0  0  0  0  0  0  0
    6.8136   -1.6158    1.7864 C   0  0  0  0  0  0  0  0  0  0  0  0
    7.5519   -2.2220    2.8078 C   0  0  0  0  0  0  0  0  0  0  0  0
    7.0107   -3.3035    3.5178 C   0  0  0  0  0  0  0  0  0  0  0  0
    7.9529   -4.0881    4.8244 S   0  0  0  0  0  0  0  0  0  0  0  0
    7.4831   -2.8597    6.0815 C   0  0  0  0  0  0  0  0  0  0  0  0
    5.7398   -3.7842    3.1917 C   0  0  0  0  0  0  0  0  0  0  0  0
    5.0087   -3.1925    2.1565 C   0  0  0  0  0  0  0  0  0  0  0  0
    4.0298    0.7699    1.2400 C   0  0  0  0  0  0  0  0  0  0  0  0
    4.9727    2.0220    0.6206 S   0  0  0  0  0  0  0  0  0  0  0  0
    1.8506   -2.2230    1.2466 C   0  0  0  0  0  0  0  0  0  0  0  0
    1.6878   -2.7795   -0.0338 C   0  0  0  0  0  0  0  0  0  0  0  0
    1.6191   -1.9493   -1.2109 N   0  0  0  0  0  0  0  0  0  0  0  0
    0.5648   -0.9676   -1.1964 C   0  0  0  0  0  0  0  0  0  0  0  0
   -0.7692   -1.3648   -1.4134 C   0  0  0  0  0  0  0  0  0  0  0  0
   -1.8079   -0.4357   -1.3143 C   0  0  0  0  0  0  0  0  0  0  0  0
   -1.5354    0.8983   -0.9721 C   0  0  0  0  0  0  0  0  0  0  0  0
   -2.6377    1.9148   -0.9048 C   0  0  0  0  0  0  0  0  0  0  0  0
   -0.2067    1.2955   -0.7598 C   0  0  0  0  0  0  0  0  0  0  0  0
    0.8349    0.3686   -0.8720 C   0  0  0  0  0  0  0  0  0  0  0  0
    2.2306   -2.3373   -2.4649 C   0  0  0  0  0  0  0  0  0  0  0  0
    2.9776   -3.5253   -2.5784 C   0  0  0  0  0  0  0  0  0  0  0  0
    3.5037   -3.9272   -3.8087 C   0  0  0  0  0  0  0  0  0  0  0  0
    3.2975   -3.1453   -4.9534 C   0  0  0  0  0  0  0  0  0  0  0  0
    3.8335   -3.5852   -6.2853 C   0  0  0  0  0  0  0  0  0  0  0  0
    2.6083   -1.9326   -4.8441 C   0  0  0  0  0  0  0  0  0  0  0  0
    2.0774   -1.5334   -3.6156 C   0  0  0  0  0  0  0  0  0  0  0  0
    0.9284   -3.9456    0.0506 C   0  0  0  0  0  0  0  0  0  0  0  0
    0.3542   -5.0492   -1.0678 S   0  0  0  0  0  0  0  0  0  0  0  0
   -0.6751   -5.8463    0.0336 C   0  0  0  0  0  0  0  0  0  0  0  0
   -0.5766   -5.2109    1.2780 C   0  0  0  0  0  0  0  0  0  0  0  0
   -1.6372   -5.2583    2.2434 N   0  0  0  0  0  0  0  0  0  0  0  0
   -2.6831   -4.2615    2.1569 C   0  0  0  0  0  0  0  0  0  0  0  0
   -3.2301   -3.6988    3.3213 C   0  0  0  0  0  0  0  0  0  0  0  0
   -4.1823   -2.6760    3.2371 C   0  0  0  0  0  0  0  0  0  0  0  0
   -4.5910   -2.1920    1.9875 C   0  0  0  0  0  0  0  0  0  0  0  0
   -5.6063   -1.0913    1.8869 C   0  0  0  0  0  0  0  0  0  0  0  0
   -4.0777   -2.7696    0.8203 C   0  0  0  0  0  0  0  0  0  0  0  0
   -3.1261   -3.7889    0.9062 C   0  0  0  0  0  0  0  0  0  0  0  0
   -1.6403   -6.2823    3.2594 C   0  0  0  0  0  0  0  0  0  0  0  0
   -0.4365   -6.7148    3.8412 C   0  0  0  0  0  0  0  0  0  0  0  0
   -0.4413   -7.6958    4.8365 C   0  0  0  0  0  0  0  0  0  0  0  0
   -1.6496   -8.2635    5.2640 C   0  0  0  0  0  0  0  0  0  0  0  0
   -1.6483   -9.3255    6.3213 C   0  0  0  0  0  0  0  0  0  0  0  0
   -2.8504   -7.8650    4.6562 C   0  0  0  0  0  0  0  0  0  0  0  0
   -2.8444   -6.8825    3.6612 C   0  0  0  0  0  0  0  0  0  0  0  0
    0.3685   -4.1891    1.2576 C   0  0  0  0  0  0  0  0  0  0  0  0
    0.8645   -3.0428    2.3717 S   0  0  0  0  0  0  0  0  0  0  0  0
   -1.3255   -7.1574   -0.1335 C   0  0  0  0  0  0  0  0  0  0  0  0
   -2.4443   -7.4011   -0.8413 C   0  0  0  0  0  0  0  0  0  0  0  0
   -3.4068   -8.4118   -0.4004 C   0  0  0  0  0  0  0  0  0  0  0  0
   -3.1801   -9.3390    0.4225 O   0  0  0  0  0  0  0  0  0  0  0  0
   -4.6912   -8.1274   -0.9939 C   0  0  0  0  0  0  0  0  0  0  0  0
   -5.8708   -8.8920   -0.8622 C   0  0  0  0  0  0  0  0  0  0  0  0
   -6.9083   -8.4698   -1.6746 C   0  0  0  0  0  0  0  0  0  0  0  0
   -6.7995   -7.3572   -2.5680 C   0  0  0  0  0  0  0  0  0  0  0  0
   -5.6519   -6.5820   -2.6786 C   0  0  0  0  0  0  0  0  0  0  0  0
   -4.5648   -7.0034   -1.8545 C   0  0  0  0  0  0  0  0  0  0  0  0
   -3.1393   -6.5601   -1.8590 C   0  0  0  0  0  0  0  0  0  0  0  0
   -2.5214   -5.9483   -2.8962 C   0  0  0  0  0  0  0  0  0  0  0  0
   -3.2103   -5.0539   -3.7928 C   0  0  0  0  0  0  0  0  0  0  0  0
   -3.7488   -4.3327   -4.5189 N   0  0  0  0  0  0  0  0  0  0  0  0
   -1.2257   -6.3890   -3.3398 C   0  0  0  0  0  0  0  0  0  0  0  0
   -0.1836   -6.7333   -3.6991 N   0  0  0  0  0  0  0  0  0  0  0  0
   -8.1805   -7.6152   -3.0923 C   0  0  0  0  0  0  0  0  0  0  0  0
   -8.2776   -8.2938   -4.4940 C   0  0  0  0  0  0  0  0  0  0  0  0
   -9.6916   -8.8066   -4.6151 C   0  0  0  0  0  0  0  0  0  0  0  0
   -9.8032   -9.8325   -3.7589 C   0  0  0  0  0  0  0  0  0  0  0  0
   -8.4513   -9.9821   -3.0985 C   0  0  0  0  0  0  0  0  0  0  0  0
   -7.5718   -9.6242   -4.2870 C   0  0  0  0  0  0  0  0  0  0  0  0
   -8.2972   -8.7465   -2.1641 C   0  0  0  0  0  0  0  0  0  0  0  0
    0.8783    7.2753    3.2025 H   0  0  0  0  0  0  0  0  0  0  0  0
   -0.9447    8.4067   -2.6528 H   0  0  0  0  0  0  0  0  0  0  0  0
   -4.1410    7.8751    1.2913 H   0  0  0  0  0  0  0  0  0  0  0  0
   -5.8137    8.4931   -1.7308 H   0  0  0  0  0  0  0  0  0  0  0  0
   -5.9928    5.8338   -0.9508 H   0  0  0  0  0  0  0  0  0  0  0  0
   -7.4168    5.9664   -3.1857 H   0  0  0  0  0  0  0  0  0  0  0  0
   -5.7714    6.1829   -5.2009 H   0  0  0  0  0  0  0  0  0  0  0  0
   -3.2869    6.1930   -4.2480 H   0  0  0  0  0  0  0  0  0  0  0  0
   -4.4952    4.4421   -2.6497 H   0  0  0  0  0  0  0  0  0  0  0  0
   -3.4497    5.5124   -1.6436 H   0  0  0  0  0  0  0  0  0  0  0  0
   -4.3231    8.6955   -3.5919 H   0  0  0  0  0  0  0  0  0  0  0  0
    3.0680    1.7232   -2.3826 H   0  0  0  0  0  0  0  0  0  0  0  0
    2.3836    1.8140   -4.0328 H   0  0  0  0  0  0  0  0  0  0  0  0
    3.7070    3.9424   -4.4410 H   0  0  0  0  0  0  0  0  0  0  0  0
    4.5299    3.6821   -2.8489 H   0  0  0  0  0  0  0  0  0  0  0  0
    4.7239    2.4793   -4.1718 H   0  0  0  0  0  0  0  0  0  0  0  0
   -0.6783    4.1239   -2.5625 H   0  0  0  0  0  0  0  0  0  0  0  0
   -0.1637    5.8104   -3.0133 H   0  0  0  0  0  0  0  0  0  0  0  0
   -1.2091    5.5215   -1.5636 H   0  0  0  0  0  0  0  0  0  0  0  0
    1.1062    3.3755    1.7917 H   0  0  0  0  0  0  0  0  0  0  0  0
   -1.1586    4.2672    1.9709 H   0  0  0  0  0  0  0  0  0  0  0  0
   -4.4791    3.7471    4.7506 H   0  0  0  0  0  0  0  0  0  0  0  0
   -2.9794    3.3827    5.6870 H   0  0  0  0  0  0  0  0  0  0  0  0
   -3.1045    2.8968    3.9381 H   0  0  0  0  0  0  0  0  0  0  0  0
   -0.5722    4.9648    6.1726 H   0  0  0  0  0  0  0  0  0  0  0  0
    1.7004    4.1013    6.0200 H   0  0  0  0  0  0  0  0  0  0  0  0
    3.9414    0.9081    4.8810 H   0  0  0  0  0  0  0  0  0  0  0  0
    5.5997    0.7251    6.6786 H   0  0  0  0  0  0  0  0  0  0  0  0
    9.3377    2.3898    7.6777 H   0  0  0  0  0  0  0  0  0  0  0  0
    8.4659    3.2826    6.3728 H   0  0  0  0  0  0  0  0  0  0  0  0
    8.2419    1.4906    6.5653 H   0  0  0  0  0  0  0  0  0  0  0  0
    5.7074    5.0192    7.0089 H   0  0  0  0  0  0  0  0  0  0  0  0
    4.0157    5.2041    5.2278 H   0  0  0  0  0  0  0  0  0  0  0  0
    6.0114   -3.5594   -0.7273 H   0  0  0  0  0  0  0  0  0  0  0  0
    6.9274   -3.6969   -3.0026 H   0  0  0  0  0  0  0  0  0  0  0  0
    9.1101   -2.0035   -3.9439 H   0  0  0  0  0  0  0  0  0  0  0  0
    8.6381   -0.2569   -4.1577 H   0  0  0  0  0  0  0  0  0  0  0  0
    9.3605   -1.1808   -5.5327 H   0  0  0  0  0  0  0  0  0  0  0  0
    5.5800    0.3088   -3.7947 H   0  0  0  0  0  0  0  0  0  0  0  0
    4.6231    0.4334   -1.5421 H   0  0  0  0  0  0  0  0  0  0  0  0
    7.2263   -0.7656    1.2620 H   0  0  0  0  0  0  0  0  0  0  0  0
    8.5363   -1.8475    3.0503 H   0  0  0  0  0  0  0  0  0  0  0  0
    7.7555   -3.2428    7.0859 H   0  0  0  0  0  0  0  0  0  0  0  0
    8.0388   -1.9217    5.8921 H   0  0  0  0  0  0  0  0  0  0  0  0
    6.3920   -2.6624    6.0546 H   0  0  0  0  0  0  0  0  0  0  0  0
    5.3168   -4.6246    3.7322 H   0  0  0  0  0  0  0  0  0  0  0  0
    4.0381   -3.5976    1.9033 H   0  0  0  0  0  0  0  0  0  0  0  0
   -0.9966   -2.3922   -1.6641 H   0  0  0  0  0  0  0  0  0  0  0  0
   -2.8275   -0.7544   -1.5045 H   0  0  0  0  0  0  0  0  0  0  0  0
   -2.4476    2.6385   -0.0828 H   0  0  0  0  0  0  0  0  0  0  0  0
   -2.6911    2.4711   -1.8643 H   0  0  0  0  0  0  0  0  0  0  0  0
   -3.6193    1.4265   -0.7149 H   0  0  0  0  0  0  0  0  0  0  0  0
    0.0189    2.3227   -0.4974 H   0  0  0  0  0  0  0  0  0  0  0  0
    1.8531    0.6930   -0.6928 H   0  0  0  0  0  0  0  0  0  0  0  0
    3.1603   -4.1488   -1.7160 H   0  0  0  0  0  0  0  0  0  0  0  0
    4.0679   -4.8476   -3.8667 H   0  0  0  0  0  0  0  0  0  0  0  0
    4.7294   -2.9817   -6.5425 H   0  0  0  0  0  0  0  0  0  0  0  0
    3.0599   -3.4354   -7.0710 H   0  0  0  0  0  0  0  0  0  0  0  0
    4.1155   -4.6594   -6.2686 H   0  0  0  0  0  0  0  0  0  0  0  0
    2.4751   -1.3002   -5.7121 H   0  0  0  0  0  0  0  0  0  0  0  0
    1.5499   -0.5892   -3.5709 H   0  0  0  0  0  0  0  0  0  0  0  0
   -2.9020   -4.0328    4.2958 H   0  0  0  0  0  0  0  0  0  0  0  0
   -4.5944   -2.2586    4.1485 H   0  0  0  0  0  0  0  0  0  0  0  0
   -5.6002   -0.4639    2.8055 H   0  0  0  0  0  0  0  0  0  0  0  0
   -6.6136   -1.5360    1.7556 H   0  0  0  0  0  0  0  0  0  0  0  0
   -5.3826   -0.4322    1.0199 H   0  0  0  0  0  0  0  0  0  0  0  0
   -4.4061   -2.4320   -0.1553 H   0  0  0  0  0  0  0  0  0  0  0  0
   -2.7424   -4.2039   -0.0175 H   0  0  0  0  0  0  0  0  0  0  0  0
    0.5082   -6.2741    3.5447 H   0  0  0  0  0  0  0  0  0  0  0  0
    0.4986   -8.0092    5.2774 H   0  0  0  0  0  0  0  0  0  0  0  0
   -2.6184   -9.3445    6.8650 H   0  0  0  0  0  0  0  0  0  0  0  0
   -0.8426   -9.1317    7.0624 H   0  0  0  0  0  0  0  0  0  0  0  0
   -1.4741  -10.3180    5.8527 H   0  0  0  0  0  0  0  0  0  0  0  0
   -3.7942   -8.3188    4.9514 H   0  0  0  0  0  0  0  0  0  0  0  0
   -3.7829   -6.5947    3.1972 H   0  0  0  0  0  0  0  0  0  0  0  0
   -1.0582   -7.8730    0.6303 H   0  0  0  0  0  0  0  0  0  0  0  0
   -5.9428   -9.7721   -0.2391 H   0  0  0  0  0  0  0  0  0  0  0  0
   -5.6108   -5.7641   -3.3753 H   0  0  0  0  0  0  0  0  0  0  0  0
   -8.8996   -6.7899   -2.9000 H   0  0  0  0  0  0  0  0  0  0  0  0
   -7.9242   -7.6825   -5.3469 H   0  0  0  0  0  0  0  0  0  0  0  0
  -10.4493   -8.4886   -5.3205 H   0  0  0  0  0  0  0  0  0  0  0  0
  -10.6772  -10.4670   -3.6352 H   0  0  0  0  0  0  0  0  0  0  0  0
   -8.2649  -10.9756   -2.6360 H   0  0  0  0  0  0  0  0  0  0  0  0
   -6.4950   -9.5344   -4.0495 H   0  0  0  0  0  0  0  0  0  0  0  0
   -7.6873  -10.3303   -5.1461 H   0  0  0  0  0  0  0  0  0  0  0  0
   -9.0804   -8.6352   -1.3874 H   0  0  0  0  0  0  0  0  0  0  0  0
  1  2  2  3
  2  3  1  0
  3  4  2  0
  3  5  1  0
  5  6  2  0
  6  7  1  0
  7  8  2  0
  8  9  1  0
  9 10  2  0
 10 11  1  0
 11 12  2  3
 12 13  1  0
 13 14  3  0
 12 15  1  0
 15 16  3  0
  8 17  1  0
 17 18  1  0
 18 19  1  0
 19 20  2  0
 20 21  1  0
 21 22  1  0
 21 23  1  0
  1 24  1  0
 24 25  2  0
 25 26  1  0
 25 27  1  0
 27 28  1  0
 27 29  2  0
 29 30  1  0
 30 31  2  0
 31 32  1  0
 32 33  1  0
 33 34  1  0
 34 35  1  0
 32 36  2  0
 36 37  1  0
 37 38  2  0
 36 39  1  0
 29 40  1  0
 40 41  2  0
 41 42  1  0
 42 43  1  0
 43 44  2  0
 44 45  1  0
 45 46  2  0
 46 47  1  0
 47 48  1  0
 46 49  1  0
 49 50  2  0
 42 51  1  0
 51 52  2  0
 52 53  1  0
 53 54  2  0
 54 55  1  0
 55 56  1  0
 54 57  1  0
 57 58  2  0
 41 59  1  0
 59 60  1  0
 60 61  1  0
 61 62  2  0
 62 63  1  0
 63 64  1  0
 64 65  2  0
 65 66  1  0
 66 67  2  0
 67 68  1  0
 68 69  1  0
 67 70  1  0
 70 71  2  0
 63 72  1  0
 72 73  2  0
 73 74  1  0
 74 75  2  0
 75 76  1  0
 76 77  1  0
 75 78  1  0
 78 79  2  0
 62 80  1  0
 80 81  1  0
 61 82  1  0
 82 83  2  0
 83 84  1  0
 84 85  1  0
 85 86  2  0
 86 87  1  0
 87 88  2  0
 88 89  1  0
 88 90  1  0
 90 91  2  0
 84 92  1  0
 92 93  2  0
 93 94  1  0
 94 95  2  0
 95 96  1  0
 95 97  1  0
 97 98  2  0
 83 99  1  0
 99100  1  0
100101  1  0
101102  2  0
102103  1  0
103104  1  0
104105  2  0
105106  1  0
106107  2  0
107108  1  0
107109  1  0
109110  2  0
103111  1  0
111112  2  0
112113  1  0
113114  2  0
114115  1  0
114116  1  0
116117  2  0
102118  1  0
118119  1  0
101120  1  0
120121  2  3
121122  1  0
122123  2  0
122124  1  0
124125  2  0
125126  1  0
126127  2  0
127128  1  0
128129  2  0
129130  1  0
130131  2  3
131132  1  0
132133  3  0
131134  1  0
134135  3  0
127136  1  0
136137  1  0
137138  1  0
138139  2  0
139140  1  0
140141  1  0
140142  1  0
 11  2  1  0
 23 17  1  0
 38 24  1  0
 81 40  1  0
119 82  1  0
130121  1  0
142136  1  0
 10  5  1  0
 22 18  1  0
 38 30  1  0
 50 43  1  0
 58 51  1  0
 80 59  2  0
 91 85  1  0
 98 92  1  0
118 99  2  0
129124  1  0
141137  1  0
 23  7  1  0
 71 64  1  0
 79 72  1  0
110104  1  0
117111  1  0
142126  1  0
  1143  1  0
  6144  1  0
  9145  1  0
 17146  1  0
 18147  1  0
 19148  1  0
 20149  1  0
 21150  1  0
 22151  1  0
 22152  1  0
 23153  1  0
 34154  1  0
 34155  1  0
 35156  1  0
 35157  1  0
 35158  1  0
 39159  1  0
 39160  1  0
 39161  1  0
 44162  1  0
 45163  1  0
 48164  1  0
 48165  1  0
 48166  1  0
 49167  1  0
 50168  1  0
 52169  1  0
 53170  1  0
 56171  1  0
 56172  1  0
 56173  1  0
 57174  1  0
 58175  1  0
 65176  1  0
 66177  1  0
 69178  1  0
 69179  1  0
 69180  1  0
 70181  1  0
 71182  1  0
 73183  1  0
 74184  1  0
 77185  1  0
 77186  1  0
 77187  1  0
 78188  1  0
 79189  1  0
 86190  1  0
 87191  1  0
 89192  1  0
 89193  1  0
 89194  1  0
 90195  1  0
 91196  1  0
 93197  1  0
 94198  1  0
 96199  1  0
 96200  1  0
 96201  1  0
 97202  1  0
 98203  1  0
105204  1  0
106205  1  0
108206  1  0
108207  1  0
108208  1  0
109209  1  0
110210  1  0
112211  1  0
113212  1  0
115213  1  0
115214  1  0
115215  1  0
116216  1  0
117217  1  0
120218  1  0
125219  1  0
128220  1  0
136221  1  0
137222  1  0
138223  1  0
139224  1  0
140225  1  0
141226  1  0
141227  1  0
142228  1  0
M  END

