
     RDKit          3D

182200  0  0  0  0  0  0  0  0999 V2000
    2.9596   -3.9584    5.6110 C   0  0  0  0  0  0  0  0  0  0  0  0
    2.5092   -5.2227    5.5188 C   0  0  0  0  0  0  0  0  0  0  0  0
    2.2235   -5.8823    4.2398 C   0  0  0  0  0  0  0  0  0  0  0  0
    2.8740   -5.7239    3.1711 O   0  0  0  0  0  0  0  0  0  0  0  0
    1.0378   -6.6867    4.3794 C   0  0  0  0  0  0  0  0  0  0  0  0
    0.3076   -7.3047    3.3374 C   0  0  0  0  0  0  0  0  0  0  0  0
   -0.9017   -7.8322    3.7415 C   0  0  0  0  0  0  0  0  0  0  0  0
   -1.3811   -7.7507    5.0915 C   0  0  0  0  0  0  0  0  0  0  0  0
   -0.6648   -7.1570    6.1182 C   0  0  0  0  0  0  0  0  0  0  0  0
    0.5999   -6.6266    5.7310 C   0  0  0  0  0  0  0  0  0  0  0  0
    1.5879   -5.8373    6.5171 C   0  0  0  0  0  0  0  0  0  0  0  0
    1.6968   -5.7592    7.8675 C   0  0  0  0  0  0  0  0  0  0  0  0
    2.8401   -5.1562    8.4958 C   0  0  0  0  0  0  0  0  0  0  0  0
    3.7621   -4.6829    9.0122 N   0  0  0  0  0  0  0  0  0  0  0  0
    0.7605   -6.3959    8.7587 C   0  0  0  0  0  0  0  0  0  0  0  0
    0.0099   -6.9028    9.4834 N   0  0  0  0  0  0  0  0  0  0  0  0
   -2.6666   -8.4063    4.6896 C   0  0  0  0  0  0  0  0  0  0  0  0
   -3.9131   -7.4790    4.5656 C   0  0  0  0  0  0  0  0  0  0  0  0
   -4.9393   -8.2686    3.7958 C   0  0  0  0  0  0  0  0  0  0  0  0
   -4.4875   -8.3525    2.5351 C   0  0  0  0  0  0  0  0  0  0  0  0
   -3.1720   -7.6145    2.5027 C   0  0  0  0  0  0  0  0  0  0  0  0
   -3.5091   -6.4985    3.4787 C   0  0  0  0  0  0  0  0  0  0  0  0
   -2.1697   -8.4999    3.3115 C   0  0  0  0  0  0  0  0  0  0  0  0
    2.7294   -3.0423    4.4873 C   0  0  0  0  0  0  0  0  0  0  0  0
    3.6398   -2.6321    3.5242 C   0  0  0  0  0  0  0  0  0  0  0  0
    3.0275   -1.9540    2.4512 C   0  0  0  0  0  0  0  0  0  0  0  0
    3.8049   -1.4611    1.2984 C   0  0  0  0  0  0  0  0  0  0  0  0
    3.8592   -2.2246    0.1137 C   0  0  0  0  0  0  0  0  0  0  0  0
    3.2081   -3.4732    0.0917 O   0  0  0  0  0  0  0  0  0  0  0  0
    3.0699   -4.3279   -1.0433 C   0  0  0  0  0  0  0  0  0  0  0  0
    4.3331   -5.1605   -1.2439 C   0  0  0  0  0  0  0  0  0  0  0  0
    4.5395   -1.7070   -1.0068 C   0  0  0  0  0  0  0  0  0  0  0  0
    5.1920   -0.4783   -0.9286 C   0  0  0  0  0  0  0  0  0  0  0  0
    5.1878    0.2475    0.2643 C   0  0  0  0  0  0  0  0  0  0  0  0
    4.5078   -0.2460    1.3955 C   0  0  0  0  0  0  0  0  0  0  0  0
    4.5177    0.4281    2.6278 O   0  0  0  0  0  0  0  0  0  0  0  0
    5.2540    1.6168    2.8898 C   0  0  0  0  0  0  0  0  0  0  0  0
    5.1823    1.9373    4.3722 C   0  0  0  0  0  0  0  0  0  0  0  0
    1.6328   -1.8152    2.5911 C   0  0  0  0  0  0  0  0  0  0  0  0
    1.1957   -2.5813    4.0086 S   0  0  0  0  0  0  0  0  0  0  0  0
    0.6441   -1.3095    1.6202 C   0  0  0  0  0  0  0  0  0  0  0  0
   -0.5642   -0.6341    1.9155 C   0  0  0  0  0  0  0  0  0  0  0  0
   -0.8563   -0.0084    3.1875 N   0  0  0  0  0  0  0  0  0  0  0  0
   -1.9166   -0.5579    4.0005 C   0  0  0  0  0  0  0  0  0  0  0  0
   -1.6257   -1.2468    5.1920 C   0  0  0  0  0  0  0  0  0  0  0  0
   -2.6462   -1.7918    5.9713 C   0  0  0  0  0  0  0  0  0  0  0  0
   -3.9806   -1.6351    5.5894 C   0  0  0  0  0  0  0  0  0  0  0  0
   -5.2935   -2.3238    6.5966 S   0  0  0  0  0  0  0  0  0  0  0  0
   -5.2925   -3.9136    5.7095 C   0  0  0  0  0  0  0  0  0  0  0  0
   -4.2914   -0.9052    4.4392 C   0  0  0  0  0  0  0  0  0  0  0  0
   -3.2630   -0.3694    3.6482 C   0  0  0  0  0  0  0  0  0  0  0  0
   -0.0544    1.1159    3.6505 C   0  0  0  0  0  0  0  0  0  0  0  0
   -0.2504    1.6753    4.9308 C   0  0  0  0  0  0  0  0  0  0  0  0
    0.5377    2.7352    5.3819 C   0  0  0  0  0  0  0  0  0  0  0  0
    1.5228    3.2790    4.5545 C   0  0  0  0  0  0  0  0  0  0  0  0
    2.5736    4.6059    5.1539 S   0  0  0  0  0  0  0  0  0  0  0  0
    1.4532    5.9231    4.5921 C   0  0  0  0  0  0  0  0  0  0  0  0
    1.7113    2.7647    3.2727 C   0  0  0  0  0  0  0  0  0  0  0  0
    0.9316    1.7004    2.8207 C   0  0  0  0  0  0  0  0  0  0  0  0
   -1.2785   -0.3779    0.7365 C   0  0  0  0  0  0  0  0  0  0  0  0
   -2.6481    0.5104    0.3203 S   0  0  0  0  0  0  0  0  0  0  0  0
   -2.4825    0.2651   -1.3567 C   0  0  0  0  0  0  0  0  0  0  0  0
   -1.3197   -0.4742   -1.5905 C   0  0  0  0  0  0  0  0  0  0  0  0
   -0.7797   -0.7602   -2.8908 N   0  0  0  0  0  0  0  0  0  0  0  0
   -1.5094   -1.6621   -3.7515 C   0  0  0  0  0  0  0  0  0  0  0  0
   -2.0945   -2.8321   -3.2303 C   0  0  0  0  0  0  0  0  0  0  0  0
   -2.7935   -3.7072   -4.0659 C   0  0  0  0  0  0  0  0  0  0  0  0
   -2.9314   -3.4184   -5.4281 C   0  0  0  0  0  0  0  0  0  0  0  0
   -3.7816   -4.5718   -6.5112 S   0  0  0  0  0  0  0  0  0  0  0  0
   -5.4175   -3.8215   -6.2394 C   0  0  0  0  0  0  0  0  0  0  0  0
   -2.3663   -2.2490   -5.9529 C   0  0  0  0  0  0  0  0  0  0  0  0
   -1.6591   -1.3775   -5.1201 C   0  0  0  0  0  0  0  0  0  0  0  0
    0.4986   -0.1958   -3.2767 C   0  0  0  0  0  0  0  0  0  0  0  0
    0.9354    1.0230   -2.7153 C   0  0  0  0  0  0  0  0  0  0  0  0
    2.1879    1.5456   -3.0364 C   0  0  0  0  0  0  0  0  0  0  0  0
    3.0195    0.8706   -3.9357 C   0  0  0  0  0  0  0  0  0  0  0  0
    4.6462    1.5312   -4.3175 S   0  0  0  0  0  0  0  0  0  0  0  0
    4.0338    2.6192   -5.6374 C   0  0  0  0  0  0  0  0  0  0  0  0
    2.5919   -0.3261   -4.5168 C   0  0  0  0  0  0  0  0  0  0  0  0
    1.3459   -0.8648   -4.1801 C   0  0  0  0  0  0  0  0  0  0  0  0
   -0.6926   -0.8246   -0.4032 C   0  0  0  0  0  0  0  0  0  0  0  0
    0.7527   -1.5728   -0.0540 S   0  0  0  0  0  0  0  0  0  0  0  0
   -3.2597    0.9697   -2.3758 C   0  0  0  0  0  0  0  0  0  0  0  0
   -4.6351    1.1274   -2.4090 C   0  0  0  0  0  0  0  0  0  0  0  0
   -5.0738    1.9917   -3.4258 C   0  0  0  0  0  0  0  0  0  0  0  0
   -6.5270    2.3253   -3.6189 C   0  0  0  0  0  0  0  0  0  0  0  0
   -6.9751    3.4167   -2.6511 C   0  0  0  0  0  0  0  0  0  0  0  0
   -4.0302    2.5380   -4.1843 C   0  0  0  0  0  0  0  0  0  0  0  0
   -2.5817    1.9393   -3.5595 S   0  0  0  0  0  0  0  0  0  0  0  0
   -4.1512    3.7033   -5.0973 C   0  0  0  0  0  0  0  0  0  0  0  0
   -3.1456    4.1778   -5.8623 C   0  0  0  0  0  0  0  0  0  0  0  0
   -2.9523    5.6136   -6.0789 C   0  0  0  0  0  0  0  0  0  0  0  0
   -3.8529    6.4897   -6.0440 O   0  0  0  0  0  0  0  0  0  0  0  0
   -1.5325    5.8667   -6.2266 C   0  0  0  0  0  0  0  0  0  0  0  0
   -0.8728    7.1183   -6.1962 C   0  0  0  0  0  0  0  0  0  0  0  0
    0.5079    7.0221   -6.1677 C   0  0  0  0  0  0  0  0  0  0  0  0
    1.2071    5.7720   -6.1493 C   0  0  0  0  0  0  0  0  0  0  0  0
    0.5683    4.5458   -6.1763 C   0  0  0  0  0  0  0  0  0  0  0  0
   -0.8501    4.6242   -6.2292 C   0  0  0  0  0  0  0  0  0  0  0  0
   -1.8456    3.5273   -6.1773 C   0  0  0  0  0  0  0  0  0  0  0  0
   -1.6997    2.2797   -6.6806 C   0  0  0  0  0  0  0  0  0  0  0  0
   -0.4248    1.7687   -7.1149 C   0  0  0  0  0  0  0  0  0  0  0  0
    0.5950    1.3512   -7.4671 N   0  0  0  0  0  0  0  0  0  0  0  0
   -2.8413    1.4300   -6.9087 C   0  0  0  0  0  0  0  0  0  0  0  0
   -3.7623    0.7517   -7.0967 N   0  0  0  0  0  0  0  0  0  0  0  0
    2.5222    6.4871   -6.0580 C   0  0  0  0  0  0  0  0  0  0  0  0
    3.2229    6.4775   -4.6616 C   0  0  0  0  0  0  0  0  0  0  0  0
    4.2744    7.5575   -4.7240 C   0  0  0  0  0  0  0  0  0  0  0  0
    3.6194    8.7259   -4.7404 C   0  0  0  0  0  0  0  0  0  0  0  0
    2.1493    8.3931   -4.6881 C   0  0  0  0  0  0  0  0  0  0  0  0
    2.2133    7.1875   -3.7702 C   0  0  0  0  0  0  0  0  0  0  0  0
    1.8052    7.7673   -6.0739 C   0  0  0  0  0  0  0  0  0  0  0  0
    3.0061   -3.4716    6.5742 H   0  0  0  0  0  0  0  0  0  0  0  0
    0.6340   -7.3049    2.3013 H   0  0  0  0  0  0  0  0  0  0  0  0
   -1.0923   -7.0568    7.1010 H   0  0  0  0  0  0  0  0  0  0  0  0
   -2.8415   -9.3926    5.1822 H   0  0  0  0  0  0  0  0  0  0  0  0
   -4.2759   -7.0264    5.5159 H   0  0  0  0  0  0  0  0  0  0  0  0
   -5.9059   -8.6214    4.1433 H   0  0  0  0  0  0  0  0  0  0  0  0
   -5.0286   -8.7740    1.6944 H   0  0  0  0  0  0  0  0  0  0  0  0
   -2.8284   -7.2990    1.4957 H   0  0  0  0  0  0  0  0  0  0  0  0
   -2.6431   -5.8430    3.7382 H   0  0  0  0  0  0  0  0  0  0  0  0
   -4.3531   -5.8486    3.1310 H   0  0  0  0  0  0  0  0  0  0  0  0
   -2.0254   -9.5353    2.9368 H   0  0  0  0  0  0  0  0  0  0  0  0
    4.6957   -2.8696    3.5614 H   0  0  0  0  0  0  0  0  0  0  0  0
    2.2244   -5.0179   -0.8509 H   0  0  0  0  0  0  0  0  0  0  0  0
    2.8208   -3.7425   -1.9569 H   0  0  0  0  0  0  0  0  0  0  0  0
    4.1332   -5.9637   -1.9838 H   0  0  0  0  0  0  0  0  0  0  0  0
    5.1628   -4.5285   -1.6220 H   0  0  0  0  0  0  0  0  0  0  0  0
    4.6341   -5.6180   -0.2800 H   0  0  0  0  0  0  0  0  0  0  0  0
    4.5761   -2.2517   -1.9372 H   0  0  0  0  0  0  0  0  0  0  0  0
    5.7203   -0.0940   -1.7904 H   0  0  0  0  0  0  0  0  0  0  0  0
    5.7191    1.1837    0.2991 H   0  0  0  0  0  0  0  0  0  0  0  0
    4.8347    2.4633    2.3023 H   0  0  0  0  0  0  0  0  0  0  0  0
    6.3226    1.4798    2.6142 H   0  0  0  0  0  0  0  0  0  0  0  0
    4.1235    1.9846    4.7037 H   0  0  0  0  0  0  0  0  0  0  0  0
    5.7032    1.1467    4.9529 H   0  0  0  0  0  0  0  0  0  0  0  0
    5.6768    2.9122    4.5783 H   0  0  0  0  0  0  0  0  0  0  0  0
   -0.6063   -1.3297    5.5455 H   0  0  0  0  0  0  0  0  0  0  0  0
   -2.3991   -2.3260    6.8815 H   0  0  0  0  0  0  0  0  0  0  0  0
   -5.5459   -3.7560    4.6389 H   0  0  0  0  0  0  0  0  0  0  0  0
   -6.0444   -4.5860    6.1694 H   0  0  0  0  0  0  0  0  0  0  0  0
   -4.2939   -4.3937    5.7875 H   0  0  0  0  0  0  0  0  0  0  0  0
   -5.3234   -0.7398    4.1551 H   0  0  0  0  0  0  0  0  0  0  0  0
   -3.5355    0.2268    2.7971 H   0  0  0  0  0  0  0  0  0  0  0  0
   -1.0062    1.2980    5.6072 H   0  0  0  0  0  0  0  0  0  0  0  0
    0.3816    3.1368    6.3773 H   0  0  0  0  0  0  0  0  0  0  0  0
    1.9198    6.9056    4.8042 H   0  0  0  0  0  0  0  0  0  0  0  0
    0.4891    5.8552    5.1387 H   0  0  0  0  0  0  0  0  0  0  0  0
    1.2731    5.8370    3.4993 H   0  0  0  0  0  0  0  0  0  0  0  0
    2.4588    3.1925    2.6207 H   0  0  0  0  0  0  0  0  0  0  0  0
    1.1006    1.3447    1.8132 H   0  0  0  0  0  0  0  0  0  0  0  0
   -1.9916   -3.0778   -2.1827 H   0  0  0  0  0  0  0  0  0  0  0  0
   -3.2213   -4.6123   -3.6553 H   0  0  0  0  0  0  0  0  0  0  0  0
   -5.7024   -3.9049   -5.1684 H   0  0  0  0  0  0  0  0  0  0  0  0
   -6.1683   -4.3633   -6.8505 H   0  0  0  0  0  0  0  0  0  0  0  0
   -5.4082   -2.7539   -6.5463 H   0  0  0  0  0  0  0  0  0  0  0  0
   -2.4619   -2.0220   -7.0058 H   0  0  0  0  0  0  0  0  0  0  0  0
   -1.2206   -0.4852   -5.5396 H   0  0  0  0  0  0  0  0  0  0  0  0
    0.3116    1.5619   -2.0161 H   0  0  0  0  0  0  0  0  0  0  0  0
    2.5130    2.4700   -2.5795 H   0  0  0  0  0  0  0  0  0  0  0  0
    4.8772    3.2192   -6.0362 H   0  0  0  0  0  0  0  0  0  0  0  0
    3.5966    2.0140   -6.4586 H   0  0  0  0  0  0  0  0  0  0  0  0
    3.2647    3.3080   -5.2361 H   0  0  0  0  0  0  0  0  0  0  0  0
    3.2341   -0.8544   -5.2098 H   0  0  0  0  0  0  0  0  0  0  0  0
    1.0593   -1.8112   -4.6102 H   0  0  0  0  0  0  0  0  0  0  0  0
   -5.2969    0.6539   -1.6951 H   0  0  0  0  0  0  0  0  0  0  0  0
   -6.7124    2.6482   -4.6650 H   0  0  0  0  0  0  0  0  0  0  0  0
   -7.1384    1.4114   -3.4490 H   0  0  0  0  0  0  0  0  0  0  0  0
   -8.0611    3.6038   -2.7862 H   0  0  0  0  0  0  0  0  0  0  0  0
   -6.4225    4.3598   -2.8538 H   0  0  0  0  0  0  0  0  0  0  0  0
   -6.7818    3.1028   -1.6057 H   0  0  0  0  0  0  0  0  0  0  0  0
   -5.0041    4.3511   -4.9297 H   0  0  0  0  0  0  0  0  0  0  0  0
   -1.3972    8.0641   -6.1391 H   0  0  0  0  0  0  0  0  0  0  0  0
    1.1144    3.6218   -6.0971 H   0  0  0  0  0  0  0  0  0  0  0  0
    3.1869    6.3143   -6.9307 H   0  0  0  0  0  0  0  0  0  0  0  0
    3.5822    5.4954   -4.3005 H   0  0  0  0  0  0  0  0  0  0  0  0
    5.3516    7.4327   -4.6757 H   0  0  0  0  0  0  0  0  0  0  0  0
    4.0740    9.7127   -4.7008 H   0  0  0  0  0  0  0  0  0  0  0  0
    1.4945    9.2272   -4.3549 H   0  0  0  0  0  0  0  0  0  0  0  0
    1.2463    6.6491   -3.6553 H   0  0  0  0  0  0  0  0  0  0  0  0
    2.6134    7.4236   -2.7517 H   0  0  0  0  0  0  0  0  0  0  0  0
    2.0164    8.4025   -6.9631 H   0  0  0  0  0  0  0  0  0  0  0  0
  1  2  2  3
  2  3  1  0
  3  4  2  0
  3  5  1  0
  5  6  2  0
  6  7  1  0
  7  8  2  0
  8  9  1  0
  9 10  2  0
 10 11  1  0
 11 12  2  3
 12 13  1  0
 13 14  3  0
 12 15  1  0
 15 16  3  0
  8 17  1  0
 17 18  1  0
 18 19  1  0
 19 20  2  0
 20 21  1  0
 21 22  1  0
 21 23  1  0
  1 24  1  0
 24 25  2  0
 25 26  1  0
 26 27  1  0
 27 28  2  0
 28 29  1  0
 29 30  1  0
 30 31  1  0
 28 32  1  0
 32 33  2  0
 33 34  1  0
 34 35  2  0
 35 36  1  0
 36 37  1  0
 37 38  1  0
 26 39  2  0
 39 40  1  0
 39 41  1  0
 41 42  2  0
 42 43  1  0
 43 44  1  0
 44 45  2  0
 45 46  1  0
 46 47  2  0
 47 48  1  0
 48 49  1  0
 47 50  1  0
 50 51  2  0
 43 52  1  0
 52 53  2  0
 53 54  1  0
 54 55  2  0
 55 56  1  0
 56 57  1  0
 55 58  1  0
 58 59  2  0
 42 60  1  0
 60 61  1  0
 61 62  1  0
 62 63  2  0
 63 64  1  0
 64 65  1  0
 65 66  2  0
 66 67  1  0
 67 68  2  0
 68 69  1  0
 69 70  1  0
 68 71  1  0
 71 72  2  0
 64 73  1  0
 73 74  2  0
 74 75  1  0
 75 76  2  0
 76 77  1  0
 77 78  1  0
 76 79  1  0
 79 80  2  0
 63 81  1  0
 81 82  1  0
 62 83  1  0
 83 84  2  0
 84 85  1  0
 85 86  1  0
 86 87  1  0
 85 88  2  0
 88 89  1  0
 88 90  1  0
 90 91  2  3
 91 92  1  0
 92 93  2  0
 92 94  1  0
 94 95  2  0
 95 96  1  0
 96 97  2  0
 97 98  1  0
 98 99  2  0
 99100  1  0
100101  2  3
101102  1  0
102103  3  0
101104  1  0
104105  3  0
 97106  1  0
106107  1  0
107108  1  0
108109  2  0
109110  1  0
110111  1  0
110112  1  0
 11  2  1  0
 23 17  1  0
 40 24  1  0
 82 41  1  0
 89 83  1  0
100 91  1  0
112106  1  0
 10  5  1  0
 22 18  1  0
 35 27  1  0
 51 44  1  0
 59 52  1  0
 81 60  2  0
 99 94  1  0
111107  1  0
 23  7  1  0
 72 65  1  0
 80 73  1  0
112 96  1  0
  1113  1  0
  6114  1  0
  9115  1  0
 17116  1  0
 18117  1  0
 19118  1  0
 20119  1  0
 21120  1  0
 22121  1  0
 22122  1  0
 23123  1  0
 25124  1  0
 30125  1  0
 30126  1  0
 31127  1  0
 31128  1  0
 31129  1  0
 32130  1  0
 33131  1  0
 34132  1  0
 37133  1  0
 37134  1  0
 38135  1  0
 38136  1  0
 38137  1  0
 45138  1  0
 46139  1  0
 49140  1  0
 49141  1  0
 49142  1  0
 50143  1  0
 51144  1  0
 53145  1  0
 54146  1  0
 57147  1  0
 57148  1  0
 57149  1  0
 58150  1  0
 59151  1  0
 66152  1  0
 67153  1  0
 70154  1  0
 70155  1  0
 70156  1  0
 71157  1  0
 72158  1  0
 74159  1  0
 75160  1  0
 78161  1  0
 78162  1  0
 78163  1  0
 79164  1  0
 80165  1  0
 84166  1  0
 86167  1  0
 86168  1  0
 87169  1  0
 87170  1  0
 87171  1  0
 90172  1  0
 95173  1  0
 98174  1  0
106175  1  0
107176  1  0
108177  1  0
109178  1  0
110179  1  0
111180  1  0
111181  1  0
112182  1  0
M  END

