
     RDKit          3D

192212  0  0  0  0  0  0  0  0999 V2000
   -4.6159   -3.3018    0.5050 C   0  0  0  0  0  0  0  0  0  0  0  0
   -5.0992   -2.0598    0.3124 C   0  0  0  0  0  0  0  0  0  0  0  0
   -4.7097   -0.8743    1.0911 C   0  0  0  0  0  0  0  0  0  0  0  0
   -3.7519   -0.7860    1.9044 O   0  0  0  0  0  0  0  0  0  0  0  0
   -5.6858    0.1634    0.8717 C   0  0  0  0  0  0  0  0  0  0  0  0
   -5.7413    1.4245    1.5110 C   0  0  0  0  0  0  0  0  0  0  0  0
   -6.8258    2.1924    1.1359 C   0  0  0  0  0  0  0  0  0  0  0  0
   -7.8068    1.7513    0.1911 C   0  0  0  0  0  0  0  0  0  0  0  0
   -7.7695    0.5105   -0.4249 C   0  0  0  0  0  0  0  0  0  0  0  0
   -6.6502   -0.2943   -0.0613 C   0  0  0  0  0  0  0  0  0  0  0  0
   -6.2737   -1.6634   -0.5197 C   0  0  0  0  0  0  0  0  0  0  0  0
   -6.7145   -2.2933   -1.6380 C   0  0  0  0  0  0  0  0  0  0  0  0
   -7.7047   -1.7253   -2.5186 C   0  0  0  0  0  0  0  0  0  0  0  0
   -8.4996   -1.2840   -3.2392 N   0  0  0  0  0  0  0  0  0  0  0  0
   -6.0984   -3.5004   -2.1299 C   0  0  0  0  0  0  0  0  0  0  0  0
   -5.6112   -4.4683   -2.5379 N   0  0  0  0  0  0  0  0  0  0  0  0
   -8.5383    3.0534    0.3150 C   0  0  0  0  0  0  0  0  0  0  0  0
   -8.3621    4.0546   -0.8665 C   0  0  0  0  0  0  0  0  0  0  0  0
   -8.8468    5.3877   -0.3526 C   0  0  0  0  0  0  0  0  0  0  0  0
   -7.9378    5.7998    0.5429 C   0  0  0  0  0  0  0  0  0  0  0  0
   -6.8745    4.7277    0.5992 C   0  0  0  0  0  0  0  0  0  0  0  0
   -6.8672    4.3358   -0.8685 C   0  0  0  0  0  0  0  0  0  0  0  0
   -7.5386    3.5017    1.2916 C   0  0  0  0  0  0  0  0  0  0  0  0
   -3.3723   -3.5492    1.2474 C   0  0  0  0  0  0  0  0  0  0  0  0
   -1.8776   -2.9519    0.7728 S   0  0  0  0  0  0  0  0  0  0  0  0
   -1.0040   -3.5877    2.0584 C   0  0  0  0  0  0  0  0  0  0  0  0
   -1.8790   -4.2886    2.8918 C   0  0  0  0  0  0  0  0  0  0  0  0
   -1.5269   -4.9655    4.1605 C   0  0  0  0  0  0  0  0  0  0  0  0
   -0.3487   -4.9121    4.6078 O   0  0  0  0  0  0  0  0  0  0  0  0
   -2.5996   -5.6948    4.8867 C   0  0  0  0  0  0  0  0  0  0  0  0
   -2.4589   -6.3818    6.1032 C   0  0  0  0  0  0  0  0  0  0  0  0
   -1.2766   -6.3993    7.0264 C   0  0  0  0  0  0  0  0  0  0  0  0
   -1.2349   -5.1181    7.8557 C   0  0  0  0  0  0  0  0  0  0  0  0
   -3.9496   -7.0516    6.5070 S   0  0  0  0  0  0  0  0  0  0  0  0
   -4.7967   -6.5024    5.1661 C   0  0  0  0  0  0  0  0  0  0  0  0
   -6.2490   -6.7950    4.9186 C   0  0  0  0  0  0  0  0  0  0  0  0
   -6.4221   -7.9175    3.8969 C   0  0  0  0  0  0  0  0  0  0  0  0
   -3.9170   -5.7565    4.3666 C   0  0  0  0  0  0  0  0  0  0  0  0
   -4.2648   -5.0510    3.1107 C   0  0  0  0  0  0  0  0  0  0  0  0
   -5.4314   -5.0923    2.6425 O   0  0  0  0  0  0  0  0  0  0  0  0
   -3.2032   -4.3003    2.4091 C   0  0  0  0  0  0  0  0  0  0  0  0
    0.4531   -3.4751    2.1227 C   0  0  0  0  0  0  0  0  0  0  0  0
    1.2315   -3.9284    1.0391 C   0  0  0  0  0  0  0  0  0  0  0  0
    0.8637   -5.0621    0.2176 N   0  0  0  0  0  0  0  0  0  0  0  0
    1.4454   -5.2594   -1.0802 C   0  0  0  0  0  0  0  0  0  0  0  0
    2.5940   -6.0543   -1.2165 C   0  0  0  0  0  0  0  0  0  0  0  0
    3.1611   -6.2532   -2.4754 C   0  0  0  0  0  0  0  0  0  0  0  0
    2.5763   -5.6757   -3.6082 C   0  0  0  0  0  0  0  0  0  0  0  0
    3.3169   -5.9349   -5.2188 S   0  0  0  0  0  0  0  0  0  0  0  0
    4.2783   -4.3880   -5.1607 C   0  0  0  0  0  0  0  0  0  0  0  0
    1.4196   -4.8998   -3.4798 C   0  0  0  0  0  0  0  0  0  0  0  0
    0.8570   -4.6827   -2.2157 C   0  0  0  0  0  0  0  0  0  0  0  0
    0.1872   -6.1970    0.7915 C   0  0  0  0  0  0  0  0  0  0  0  0
   -0.8352   -6.8434    0.0799 C   0  0  0  0  0  0  0  0  0  0  0  0
   -1.4207   -8.0049    0.5835 C   0  0  0  0  0  0  0  0  0  0  0  0
   -0.9927   -8.5370    1.8050 C   0  0  0  0  0  0  0  0  0  0  0  0
   -1.7171  -10.0605    2.4184 S   0  0  0  0  0  0  0  0  0  0  0  0
   -3.0405   -9.2010    3.3180 C   0  0  0  0  0  0  0  0  0  0  0  0
    0.0117   -7.8916    2.5327 C   0  0  0  0  0  0  0  0  0  0  0  0
    0.5995   -6.7263    2.0284 C   0  0  0  0  0  0  0  0  0  0  0  0
    2.3049   -3.0626    0.7871 C   0  0  0  0  0  0  0  0  0  0  0  0
    3.1571   -2.6965   -0.6149 S   0  0  0  0  0  0  0  0  0  0  0  0
    3.7237   -1.1916   -0.0709 C   0  0  0  0  0  0  0  0  0  0  0  0
    3.2322   -0.9687    1.2212 C   0  0  0  0  0  0  0  0  0  0  0  0
    3.6161    0.1456    2.0455 N   0  0  0  0  0  0  0  0  0  0  0  0
    4.7379    0.0261    2.9576 C   0  0  0  0  0  0  0  0  0  0  0  0
    5.7338   -0.9547    2.7610 C   0  0  0  0  0  0  0  0  0  0  0  0
    6.8362   -1.0256    3.6140 C   0  0  0  0  0  0  0  0  0  0  0  0
    6.9609   -0.1311    4.6823 C   0  0  0  0  0  0  0  0  0  0  0  0
    8.3834   -0.2203    5.7749 S   0  0  0  0  0  0  0  0  0  0  0  0
    9.3415    0.9847    4.8063 C   0  0  0  0  0  0  0  0  0  0  0  0
    5.9662    0.8224    4.9093 C   0  0  0  0  0  0  0  0  0  0  0  0
    4.8646    0.9061    4.0531 C   0  0  0  0  0  0  0  0  0  0  0  0
    3.0078    1.4270    1.8332 C   0  0  0  0  0  0  0  0  0  0  0  0
    3.7756    2.4875    1.3322 C   0  0  0  0  0  0  0  0  0  0  0  0
    3.2441    3.7779    1.2754 C   0  0  0  0  0  0  0  0  0  0  0  0
    1.9420    4.0199    1.7296 C   0  0  0  0  0  0  0  0  0  0  0  0
    1.2950    5.6944    1.7256 S   0  0  0  0  0  0  0  0  0  0  0  0
    0.6181    5.5471    0.0407 C   0  0  0  0  0  0  0  0  0  0  0  0
    1.1694    2.9626    2.2219 C   0  0  0  0  0  0  0  0  0  0  0  0
    1.6968    1.6664    2.2669 C   0  0  0  0  0  0  0  0  0  0  0  0
    2.4416   -2.0293    1.6630 C   0  0  0  0  0  0  0  0  0  0  0  0
    1.1772   -2.0734    2.7632 S   0  0  0  0  0  0  0  0  0  0  0  0
    4.0983   -0.1324   -1.0158 C   0  0  0  0  0  0  0  0  0  0  0  0
    5.4263   -0.0037   -1.4473 C   0  0  0  0  0  0  0  0  0  0  0  0
    6.4039   -0.7622   -0.8873 F   0  0  0  0  0  0  0  0  0  0  0  0
    5.7493    0.8808   -2.4872 C   0  0  0  0  0  0  0  0  0  0  0  0
    7.0437    0.9697   -2.9093 F   0  0  0  0  0  0  0  0  0  0  0  0
    4.7462    1.6526   -3.0986 C   0  0  0  0  0  0  0  0  0  0  0  0
    3.4073    1.5007   -2.6913 C   0  0  0  0  0  0  0  0  0  0  0  0
    2.4029    2.1556   -3.3342 N   0  0  0  0  0  0  0  0  0  0  0  0
    1.0914    1.9889   -3.0087 C   0  0  0  0  0  0  0  0  0  0  0  0
    0.0656    2.7269   -3.8365 C   0  0  0  0  0  0  0  0  0  0  0  0
    0.1084    4.2274   -3.5625 C   0  0  0  0  0  0  0  0  0  0  0  0
    0.7655    1.1080   -1.9461 C   0  0  0  0  0  0  0  0  0  0  0  0
    1.7781    0.4572   -1.3070 N   0  0  0  0  0  0  0  0  0  0  0  0
    3.0862    0.6174   -1.6486 C   0  0  0  0  0  0  0  0  0  0  0  0
   -0.6472    0.8054   -1.5113 C   0  0  0  0  0  0  0  0  0  0  0  0
   -1.2416    1.9343   -0.6742 C   0  0  0  0  0  0  0  0  0  0  0  0
    5.0972    2.5607   -4.2082 C   0  0  0  0  0  0  0  0  0  0  0  0
    4.9218    3.8926   -4.1414 C   0  0  0  0  0  0  0  0  0  0  0  0
    4.7220    4.6534   -2.9030 C   0  0  0  0  0  0  0  0  0  0  0  0
    4.4701    4.1787   -1.7604 O   0  0  0  0  0  0  0  0  0  0  0  0
    5.0013    6.0442   -3.1701 C   0  0  0  0  0  0  0  0  0  0  0  0
    5.0696    7.0943   -2.2263 C   0  0  0  0  0  0  0  0  0  0  0  0
    5.4698    8.3031   -2.7649 C   0  0  0  0  0  0  0  0  0  0  0  0
    5.7952    8.4727   -4.1516 C   0  0  0  0  0  0  0  0  0  0  0  0
    5.7439    7.4444   -5.0759 C   0  0  0  0  0  0  0  0  0  0  0  0
    5.3135    6.1975   -4.5449 C   0  0  0  0  0  0  0  0  0  0  0  0
    5.1723    4.8819   -5.2258 C   0  0  0  0  0  0  0  0  0  0  0  0
    5.0174    4.6694   -6.5572 C   0  0  0  0  0  0  0  0  0  0  0  0
    4.6283    3.3902   -7.0936 C   0  0  0  0  0  0  0  0  0  0  0  0
    4.3159    2.3668   -7.5340 N   0  0  0  0  0  0  0  0  0  0  0  0
    5.0715    5.7319   -7.5265 C   0  0  0  0  0  0  0  0  0  0  0  0
    5.1065    6.5802   -8.3127 N   0  0  0  0  0  0  0  0  0  0  0  0
    6.0985    9.9239   -3.9171 C   0  0  0  0  0  0  0  0  0  0  0  0
    5.0480   10.9730   -4.3921 C   0  0  0  0  0  0  0  0  0  0  0  0
    3.6551   10.3861   -4.3304 C   0  0  0  0  0  0  0  0  0  0  0  0
    3.3680   10.2292   -3.0363 C   0  0  0  0  0  0  0  0  0  0  0  0
    4.5778   10.7100   -2.2633 C   0  0  0  0  0  0  0  0  0  0  0  0
    4.9915   11.8622   -3.1636 C   0  0  0  0  0  0  0  0  0  0  0  0
    5.7798    9.7447   -2.4968 C   0  0  0  0  0  0  0  0  0  0  0  0
   -5.1291   -4.1642    0.1081 H   0  0  0  0  0  0  0  0  0  0  0  0
   -5.0091    1.7626    2.2285 H   0  0  0  0  0  0  0  0  0  0  0  0
   -8.5577    0.2060   -1.0898 H   0  0  0  0  0  0  0  0  0  0  0  0
   -9.5709    2.9568    0.7180 H   0  0  0  0  0  0  0  0  0  0  0  0
   -8.7958    3.7354   -1.8353 H   0  0  0  0  0  0  0  0  0  0  0  0
   -9.7122    5.9544   -0.6868 H   0  0  0  0  0  0  0  0  0  0  0  0
   -7.9413    6.7561    1.0542 H   0  0  0  0  0  0  0  0  0  0  0  0
   -5.8999    5.0522    1.0193 H   0  0  0  0  0  0  0  0  0  0  0  0
   -6.2410    3.4479   -1.1033 H   0  0  0  0  0  0  0  0  0  0  0  0
   -6.5776    5.1692   -1.5504 H   0  0  0  0  0  0  0  0  0  0  0  0
   -7.9369    3.6806    2.3176 H   0  0  0  0  0  0  0  0  0  0  0  0
   -1.3604   -7.2681    7.7128 H   0  0  0  0  0  0  0  0  0  0  0  0
   -0.3304   -6.5192    6.4544 H   0  0  0  0  0  0  0  0  0  0  0  0
   -1.1157   -4.2321    7.1967 H   0  0  0  0  0  0  0  0  0  0  0  0
   -0.3746   -5.1547    8.5565 H   0  0  0  0  0  0  0  0  0  0  0  0
   -2.1690   -5.0063    8.4450 H   0  0  0  0  0  0  0  0  0  0  0  0
   -6.7674   -5.8752    4.5764 H   0  0  0  0  0  0  0  0  0  0  0  0
   -6.7292   -7.1040    5.8763 H   0  0  0  0  0  0  0  0  0  0  0  0
   -5.8386   -7.7064    2.9757 H   0  0  0  0  0  0  0  0  0  0  0  0
   -7.4912   -7.9949    3.6194 H   0  0  0  0  0  0  0  0  0  0  0  0
   -6.0995   -8.8831    4.3321 H   0  0  0  0  0  0  0  0  0  0  0  0
    3.0477   -6.5099   -0.3432 H   0  0  0  0  0  0  0  0  0  0  0  0
    4.0573   -6.8528   -2.5733 H   0  0  0  0  0  0  0  0  0  0  0  0
    3.5957   -3.5305   -5.3314 H   0  0  0  0  0  0  0  0  0  0  0  0
    4.7961   -4.2734   -4.1878 H   0  0  0  0  0  0  0  0  0  0  0  0
    5.0372   -4.4035   -5.9683 H   0  0  0  0  0  0  0  0  0  0  0  0
    0.9568   -4.4626   -4.3550 H   0  0  0  0  0  0  0  0  0  0  0  0
   -0.0367   -4.0759   -2.1199 H   0  0  0  0  0  0  0  0  0  0  0  0
   -1.1620   -6.4552   -0.8774 H   0  0  0  0  0  0  0  0  0  0  0  0
   -2.2025   -8.4962    0.0191 H   0  0  0  0  0  0  0  0  0  0  0  0
   -2.6059   -8.5919    4.1326 H   0  0  0  0  0  0  0  0  0  0  0  0
   -3.6038   -8.5496    2.6217 H   0  0  0  0  0  0  0  0  0  0  0  0
   -3.7333   -9.9506    3.7512 H   0  0  0  0  0  0  0  0  0  0  0  0
    0.3516   -8.3012    3.4758 H   0  0  0  0  0  0  0  0  0  0  0  0
    1.3947   -6.2558    2.5889 H   0  0  0  0  0  0  0  0  0  0  0  0
    5.6788   -1.6493    1.9313 H   0  0  0  0  0  0  0  0  0  0  0  0
    7.6010   -1.7735    3.4375 H   0  0  0  0  0  0  0  0  0  0  0  0
    9.5741    0.5725    3.8042 H   0  0  0  0  0  0  0  0  0  0  0  0
    8.7766    1.9340    4.6974 H   0  0  0  0  0  0  0  0  0  0  0  0
   10.2909    1.2035    5.3330 H   0  0  0  0  0  0  0  0  0  0  0  0
    6.0501    1.5069    5.7408 H   0  0  0  0  0  0  0  0  0  0  0  0
    4.1140    1.6620    4.2449 H   0  0  0  0  0  0  0  0  0  0  0  0
    4.7978    2.3156    1.0130 H   0  0  0  0  0  0  0  0  0  0  0  0
    3.8490    4.5935    0.9058 H   0  0  0  0  0  0  0  0  0  0  0  0
    0.2876    6.5511   -0.3023 H   0  0  0  0  0  0  0  0  0  0  0  0
   -0.2544    4.8660    0.0559 H   0  0  0  0  0  0  0  0  0  0  0  0
    1.3910    5.1633   -0.6547 H   0  0  0  0  0  0  0  0  0  0  0  0
    0.1698    3.1478    2.5991 H   0  0  0  0  0  0  0  0  0  0  0  0
    1.1016    0.8665    2.6879 H   0  0  0  0  0  0  0  0  0  0  0  0
    0.2963    2.5594   -4.9138 H   0  0  0  0  0  0  0  0  0  0  0  0
   -0.9614    2.3556   -3.6724 H   0  0  0  0  0  0  0  0  0  0  0  0
    1.1037    4.6426   -3.8262 H   0  0  0  0  0  0  0  0  0  0  0  0
   -0.6664    4.7346   -4.1747 H   0  0  0  0  0  0  0  0  0  0  0  0
   -0.1026    4.4237   -2.4933 H   0  0  0  0  0  0  0  0  0  0  0  0
   -1.2937    0.5882   -2.3860 H   0  0  0  0  0  0  0  0  0  0  0  0
   -0.6474   -0.1232   -0.8932 H   0  0  0  0  0  0  0  0  0  0  0  0
   -2.1918    1.5882   -0.2098 H   0  0  0  0  0  0  0  0  0  0  0  0
   -1.4677    2.8207   -1.3080 H   0  0  0  0  0  0  0  0  0  0  0  0
   -0.5415    2.2272    0.1366 H   0  0  0  0  0  0  0  0  0  0  0  0
    5.5427    2.1133   -5.0841 H   0  0  0  0  0  0  0  0  0  0  0  0
    4.8480    6.9670   -1.1734 H   0  0  0  0  0  0  0  0  0  0  0  0
    6.0597    7.6070   -6.0908 H   0  0  0  0  0  0  0  0  0  0  0  0
    7.1587   10.2048   -4.1058 H   0  0  0  0  0  0  0  0  0  0  0  0
    5.2925   11.4884   -5.3453 H   0  0  0  0  0  0  0  0  0  0  0  0
    2.9801   10.2019   -5.1605 H   0  0  0  0  0  0  0  0  0  0  0  0
    2.4255    9.8794   -2.6286 H   0  0  0  0  0  0  0  0  0  0  0  0
    4.3832   10.9784   -1.2042 H   0  0  0  0  0  0  0  0  0  0  0  0
    4.2233   12.6679   -3.2390 H   0  0  0  0  0  0  0  0  0  0  0  0
    5.9753   12.3087   -2.8940 H   0  0  0  0  0  0  0  0  0  0  0  0
    6.6492    9.9083   -1.8187 H   0  0  0  0  0  0  0  0  0  0  0  0
  1  2  2  3
  2  3  1  0
  3  4  2  0
  3  5  1  0
  5  6  2  0
  6  7  1  0
  7  8  2  0
  8  9  1  0
  9 10  2  0
 10 11  1  0
 11 12  2  3
 12 13  1  0
 13 14  3  0
 12 15  1  0
 15 16  3  0
  8 17  1  0
 17 18  1  0
 18 19  1  0
 19 20  2  0
 20 21  1  0
 21 22  1  0
 21 23  1  0
  1 24  1  0
 24 25  1  0
 25 26  1  0
 26 27  2  0
 27 28  1  0
 28 29  2  0
 28 30  1  0
 30 31  2  0
 31 32  1  0
 32 33  1  0
 31 34  1  0
 34 35  1  0
 35 36  1  0
 36 37  1  0
 35 38  2  0
 38 39  1  0
 39 40  2  0
 39 41  1  0
 26 42  1  0
 42 43  2  0
 43 44  1  0
 44 45  1  0
 45 46  2  0
 46 47  1  0
 47 48  2  0
 48 49  1  0
 49 50  1  0
 48 51  1  0
 51 52  2  0
 44 53  1  0
 53 54  2  0
 54 55  1  0
 55 56  2  0
 56 57  1  0
 57 58  1  0
 56 59  1  0
 59 60  2  0
 43 61  1  0
 61 62  1  0
 62 63  1  0
 63 64  2  0
 64 65  1  0
 65 66  1  0
 66 67  2  0
 67 68  1  0
 68 69  2  0
 69 70  1  0
 70 71  1  0
 69 72  1  0
 72 73  2  0
 65 74  1  0
 74 75  2  0
 75 76  1  0
 76 77  2  0
 77 78  1  0
 78 79  1  0
 77 80  1  0
 80 81  2  0
 64 82  1  0
 82 83  1  0
 63 84  1  0
 84 85  2  0
 85 86  1  0
 85 87  1  0
 87 88  1  0
 87 89  2  0
 89 90  1  0
 90 91  2  0
 91 92  1  0
 92 93  1  0
 93 94  1  0
 92 95  2  0
 95 96  1  0
 96 97  2  0
 95 98  1  0
 98 99  1  0
 89100  1  0
100101  2  3
101102  1  0
102103  2  0
102104  1  0
104105  2  0
105106  1  0
106107  2  0
107108  1  0
108109  2  0
109110  1  0
110111  2  3
111112  1  0
112113  3  0
111114  1  0
114115  3  0
107116  1  0
116117  1  0
117118  1  0
118119  2  0
119120  1  0
120121  1  0
120122  1  0
 11  2  1  0
 23 17  1  0
 41 24  2  0
 83 42  1  0
 97 84  1  0
110101  1  0
122116  1  0
 10  5  1  0
 22 18  1  0
 41 27  1  0
 52 45  1  0
 60 53  1  0
 82 61  2  0
 97 90  1  0
109104  1  0
121117  1  0
 23  7  1  0
 38 30  1  0
 73 66  1  0
 81 74  1  0
122106  1  0
  1123  1  0
  6124  1  0
  9125  1  0
 17126  1  0
 18127  1  0
 19128  1  0
 20129  1  0
 21130  1  0
 22131  1  0
 22132  1  0
 23133  1  0
 32134  1  0
 32135  1  0
 33136  1  0
 33137  1  0
 33138  1  0
 36139  1  0
 36140  1  0
 37141  1  0
 37142  1  0
 37143  1  0
 46144  1  0
 47145  1  0
 50146  1  0
 50147  1  0
 50148  1  0
 51149  1  0
 52150  1  0
 54151  1  0
 55152  1  0
 58153  1  0
 58154  1  0
 58155  1  0
 59156  1  0
 60157  1  0
 67158  1  0
 68159  1  0
 71160  1  0
 71161  1  0
 71162  1  0
 72163  1  0
 73164  1  0
 75165  1  0
 76166  1  0
 79167  1  0
 79168  1  0
 79169  1  0
 80170  1  0
 81171  1  0
 93172  1  0
 93173  1  0
 94174  1  0
 94175  1  0
 94176  1  0
 98177  1  0
 98178  1  0
 99179  1  0
 99180  1  0
 99181  1  0
100182  1  0
105183  1  0
108184  1  0
116185  1  0
117186  1  0
118187  1  0
119188  1  0
120189  1  0
121190  1  0
121191  1  0
122192  1  0
M  END

