
     RDKit          3D

116131  0  0  0  0  0  0  0  0999 V2000
    7.1998   -1.9657    0.7363 C   0  0  0  0  0  0  0  0  0  0  0  0
    6.6870   -1.2093   -0.2503 C   0  0  0  0  0  0  0  0  0  0  0  0
    7.3853   -0.8898   -1.4925 C   0  0  0  0  0  0  0  0  0  0  0  0
    7.7497   -1.7882   -2.2739 O   0  0  0  0  0  0  0  0  0  0  0  0
    6.8049    0.3556   -1.9619 C   0  0  0  0  0  0  0  0  0  0  0  0
    7.1793    1.0696   -3.1262 C   0  0  0  0  0  0  0  0  0  0  0  0
    6.2767    2.0480   -3.4884 C   0  0  0  0  0  0  0  0  0  0  0  0
    5.0801    2.3295   -2.7475 C   0  0  0  0  0  0  0  0  0  0  0  0
    4.7287    1.6736   -1.5926 C   0  0  0  0  0  0  0  0  0  0  0  0
    5.6201    0.6276   -1.2221 C   0  0  0  0  0  0  0  0  0  0  0  0
    5.3852   -0.4761   -0.2703 C   0  0  0  0  0  0  0  0  0  0  0  0
    4.1764   -1.0676   -0.0857 C   0  0  0  0  0  0  0  0  0  0  0  0
    4.0426   -2.4944   -0.0389 C   0  0  0  0  0  0  0  0  0  0  0  0
    3.9157   -3.6494   -0.0499 N   0  0  0  0  0  0  0  0  0  0  0  0
    2.9375   -0.3769   -0.3242 C   0  0  0  0  0  0  0  0  0  0  0  0
    1.9355    0.1672   -0.5356 N   0  0  0  0  0  0  0  0  0  0  0  0
    4.6268    3.2982   -3.7896 C   0  0  0  0  0  0  0  0  0  0  0  0
    3.4878    2.8462   -4.7668 C   0  0  0  0  0  0  0  0  0  0  0  0
    3.5523    1.3510   -5.0003 C   0  0  0  0  0  0  0  0  0  0  0  0
    4.6757    1.1158   -5.6879 C   0  0  0  0  0  0  0  0  0  0  0  0
    5.3356    2.4597   -5.9044 C   0  0  0  0  0  0  0  0  0  0  0  0
    4.0838    3.3046   -6.0873 C   0  0  0  0  0  0  0  0  0  0  0  0
    5.8559    3.0329   -4.5497 C   0  0  0  0  0  0  0  0  0  0  0  0
    6.4513   -2.2695    1.9731 C   0  0  0  0  0  0  0  0  0  0  0  0
    5.9971   -1.2493    2.8204 C   0  0  0  0  0  0  0  0  0  0  0  0
    4.9434   -1.4839    3.7379 C   0  0  0  0  0  0  0  0  0  0  0  0
    4.5818   -0.3445    4.5300 N   0  0  0  0  0  0  0  0  0  0  0  0
    5.5844    0.7491    3.9348 S   0  0  0  0  0  4  0  0  0  0  0  0
    6.4955    0.0984    2.7927 N   0  0  0  0  0  0  0  0  0  0  0  0
    4.2303   -2.7042    3.7334 C   0  0  0  0  0  0  0  0  0  0  0  0
    4.8346   -3.7858    3.0439 C   0  0  0  0  0  0  0  0  0  0  0  0
    4.3475   -5.0517    3.0649 N   0  0  0  0  0  0  0  0  0  0  0  0
    5.4101   -5.8111    2.0559 S   0  0  0  0  0  0  0  0  0  0  0  0
    6.4514   -4.6429    1.5247 N   0  0  0  0  0  0  0  0  0  0  0  0
    5.9707   -3.5688    2.1969 C   0  0  0  0  0  0  0  0  0  0  0  0
    2.7674   -2.7599    4.0810 C   0  0  0  0  0  0  0  0  0  0  0  0
    2.2214   -3.9225    4.6846 C   0  0  0  0  0  0  0  0  0  0  0  0
    3.0208   -4.8089    5.3348 F   0  0  0  0  0  0  0  0  0  0  0  0
    0.8605   -4.2142    4.5535 C   0  0  0  0  0  0  0  0  0  0  0  0
    0.3818   -5.4042    4.9872 F   0  0  0  0  0  0  0  0  0  0  0  0
   -0.0054   -3.2917    3.9369 C   0  0  0  0  0  0  0  0  0  0  0  0
    0.4882   -2.0394    3.5484 C   0  0  0  0  0  0  0  0  0  0  0  0
   -0.3569   -1.0902    3.0561 N   0  0  0  0  0  0  0  0  0  0  0  0
    0.0795    0.1319    2.6564 C   0  0  0  0  0  0  0  0  0  0  0  0
   -0.9527    1.1235    2.2026 C   0  0  0  0  0  0  0  0  0  0  0  0
   -1.1877    1.0152    0.6994 C   0  0  0  0  0  0  0  0  0  0  0  0
    1.4594    0.4016    2.6773 C   0  0  0  0  0  0  0  0  0  0  0  0
    2.3005   -0.5762    3.1108 N   0  0  0  0  0  0  0  0  0  0  0  0
    1.8717   -1.7764    3.5789 C   0  0  0  0  0  0  0  0  0  0  0  0
    2.0449    1.7479    2.3581 C   0  0  0  0  0  0  0  0  0  0  0  0
    1.9611    2.6889    3.5642 C   0  0  0  0  0  0  0  0  0  0  0  0
   -1.3269   -3.7012    3.4389 C   0  0  0  0  0  0  0  0  0  0  0  0
   -2.5089   -3.1645    3.9948 C   0  0  0  0  0  0  0  0  0  0  0  0
   -2.4590   -2.4744    5.1641 F   0  0  0  0  0  0  0  0  0  0  0  0
   -3.7239   -3.2828    3.3130 C   0  0  0  0  0  0  0  0  0  0  0  0
   -4.8591   -2.7587    3.8498 F   0  0  0  0  0  0  0  0  0  0  0  0
   -3.7617   -3.8948    2.0438 C   0  0  0  0  0  0  0  0  0  0  0  0
   -2.6000   -4.4816    1.5158 C   0  0  0  0  0  0  0  0  0  0  0  0
   -2.6187   -5.1041    0.3021 F   0  0  0  0  0  0  0  0  0  0  0  0
   -1.3891   -4.3864    2.2137 C   0  0  0  0  0  0  0  0  0  0  0  0
   -0.2521   -4.8497    1.6171 F   0  0  0  0  0  0  0  0  0  0  0  0
   -5.0161   -3.9976    1.2868 C   0  0  0  0  0  0  0  0  0  0  0  0
   -5.5527   -2.9719    0.5865 C   0  0  0  0  0  0  0  0  0  0  0  0
   -5.1723   -1.5583    0.6914 C   0  0  0  0  0  0  0  0  0  0  0  0
   -4.1772   -1.0891    1.3137 O   0  0  0  0  0  0  0  0  0  0  0  0
   -6.1382   -0.7598   -0.0390 C   0  0  0  0  0  0  0  0  0  0  0  0
   -6.0685    0.6354   -0.3009 C   0  0  0  0  0  0  0  0  0  0  0  0
   -6.9877    1.0718   -1.2386 C   0  0  0  0  0  0  0  0  0  0  0  0
   -7.9369    0.1988   -1.8656 C   0  0  0  0  0  0  0  0  0  0  0  0
   -8.0339   -1.1533   -1.5859 C   0  0  0  0  0  0  0  0  0  0  0  0
   -7.1022   -1.6241   -0.6165 C   0  0  0  0  0  0  0  0  0  0  0  0
   -6.7758   -3.0249   -0.2608 C   0  0  0  0  0  0  0  0  0  0  0  0
   -7.4168   -4.1281   -0.7242 C   0  0  0  0  0  0  0  0  0  0  0  0
   -6.7344   -5.3804   -0.9185 C   0  0  0  0  0  0  0  0  0  0  0  0
   -6.1705   -6.3691   -1.1061 N   0  0  0  0  0  0  0  0  0  0  0  0
   -8.8183   -4.1040   -1.0377 C   0  0  0  0  0  0  0  0  0  0  0  0
   -9.9551   -4.0881   -1.2436 N   0  0  0  0  0  0  0  0  0  0  0  0
   -8.4583    1.3298   -2.6997 C   0  0  0  0  0  0  0  0  0  0  0  0
   -9.8428    1.9161   -2.2923 C   0  0  0  0  0  0  0  0  0  0  0  0
   -9.9573    3.2418   -3.0074 C   0  0  0  0  0  0  0  0  0  0  0  0
   -9.0810    4.0682   -2.4170 C   0  0  0  0  0  0  0  0  0  0  0  0
   -8.4023    3.2689   -1.3239 C   0  0  0  0  0  0  0  0  0  0  0  0
   -9.5958    2.4324   -0.8837 C   0  0  0  0  0  0  0  0  0  0  0  0
   -7.4965    2.2296   -2.0498 C   0  0  0  0  0  0  0  0  0  0  0  0
    8.1601   -2.4546    0.6048 H   0  0  0  0  0  0  0  0  0  0  0  0
    8.0559    0.8306   -3.7234 H   0  0  0  0  0  0  0  0  0  0  0  0
    3.8123    1.9087   -1.0782 H   0  0  0  0  0  0  0  0  0  0  0  0
    4.5310    4.3420   -3.4251 H   0  0  0  0  0  0  0  0  0  0  0  0
    2.4765    3.2399   -4.5417 H   0  0  0  0  0  0  0  0  0  0  0  0
    2.8386    0.6030   -4.6737 H   0  0  0  0  0  0  0  0  0  0  0  0
    5.0644    0.1411   -5.9842 H   0  0  0  0  0  0  0  0  0  0  0  0
    6.0631    2.4945   -6.7395 H   0  0  0  0  0  0  0  0  0  0  0  0
    3.4826    3.0055   -6.9854 H   0  0  0  0  0  0  0  0  0  0  0  0
    4.2842    4.4041   -6.1291 H   0  0  0  0  0  0  0  0  0  0  0  0
    6.5262    3.9232   -4.6298 H   0  0  0  0  0  0  0  0  0  0  0  0
   -1.9055    0.8979    2.7322 H   0  0  0  0  0  0  0  0  0  0  0  0
   -0.6635    2.1575    2.4826 H   0  0  0  0  0  0  0  0  0  0  0  0
   -1.3488   -0.0445    0.4043 H   0  0  0  0  0  0  0  0  0  0  0  0
   -0.3209    1.4268    0.1461 H   0  0  0  0  0  0  0  0  0  0  0  0
   -2.0918    1.6044    0.4332 H   0  0  0  0  0  0  0  0  0  0  0  0
    3.1105    1.6284    2.0522 H   0  0  0  0  0  0  0  0  0  0  0  0
    1.5212    2.1877    1.4895 H   0  0  0  0  0  0  0  0  0  0  0  0
    2.9837    2.8698    3.9766 H   0  0  0  0  0  0  0  0  0  0  0  0
    1.3285    2.2709    4.3842 H   0  0  0  0  0  0  0  0  0  0  0  0
    1.5269    3.6642    3.2509 H   0  0  0  0  0  0  0  0  0  0  0  0
   -5.4123   -4.9955    1.1967 H   0  0  0  0  0  0  0  0  0  0  0  0
   -5.3217    1.2908    0.1410 H   0  0  0  0  0  0  0  0  0  0  0  0
   -8.7152   -1.7827   -2.1435 H   0  0  0  0  0  0  0  0  0  0  0  0
   -8.2909    1.1977   -3.7928 H   0  0  0  0  0  0  0  0  0  0  0  0
  -10.7122    1.2355   -2.4210 H   0  0  0  0  0  0  0  0  0  0  0  0
  -10.6730    3.5239   -3.7750 H   0  0  0  0  0  0  0  0  0  0  0  0
   -8.9309    5.1152   -2.6624 H   0  0  0  0  0  0  0  0  0  0  0  0
   -7.9175    3.8740   -0.5348 H   0  0  0  0  0  0  0  0  0  0  0  0
  -10.4473    3.0344   -0.4752 H   0  0  0  0  0  0  0  0  0  0  0  0
   -9.3575    1.6360   -0.1441 H   0  0  0  0  0  0  0  0  0  0  0  0
   -6.7253    2.6617   -2.7246 H   0  0  0  0  0  0  0  0  0  0  0  0
  1  2  2  3
  2  3  1  0
  3  4  2  0
  3  5  1  0
  5  6  2  0
  6  7  1  0
  7  8  2  0
  8  9  1  0
  9 10  2  0
 10 11  1  0
 11 12  2  3
 12 13  1  0
 13 14  3  0
 12 15  1  0
 15 16  3  0
  8 17  1  0
 17 18  1  0
 18 19  1  0
 19 20  2  0
 20 21  1  0
 21 22  1  0
 21 23  1  0
  1 24  1  0
 24 25  2  0
 25 26  1  0
 26 27  1  0
 27 28  2  0
 28 29  2  0
 26 30  2  0
 30 31  1  0
 31 32  2  0
 32 33  1  0
 33 34  1  0
 34 35  2  0
 30 36  1  0
 36 37  2  0
 37 38  1  0
 37 39  1  0
 39 40  1  0
 39 41  2  0
 41 42  1  0
 42 43  2  0
 43 44  1  0
 44 45  1  0
 45 46  1  0
 44 47  2  0
 47 48  1  0
 48 49  2  0
 47 50  1  0
 50 51  1  0
 41 52  1  0
 52 53  2  0
 53 54  1  0
 53 55  1  0
 55 56  1  0
 55 57  2  0
 57 58  1  0
 58 59  1  0
 58 60  2  0
 60 61  1  0
 57 62  1  0
 62 63  2  3
 63 64  1  0
 64 65  2  0
 64 66  1  0
 66 67  2  0
 67 68  1  0
 68 69  2  0
 69 70  1  0
 70 71  2  0
 71 72  1  0
 72 73  2  3
 73 74  1  0
 74 75  3  0
 73 76  1  0
 76 77  3  0
 69 78  1  0
 78 79  1  0
 79 80  1  0
 80 81  2  0
 81 82  1  0
 82 83  1  0
 82 84  1  0
 11  2  1  0
 23 17  1  0
 35 24  1  0
 49 36  1  0
 60 52  1  0
 72 63  1  0
 84 78  1  0
 10  5  1  0
 22 18  1  0
 29 25  1  0
 35 31  1  0
 49 42  1  0
 71 66  1  0
 83 79  1  0
 23  7  1  0
 84 68  1  0
  1 85  1  0
  6 86  1  0
  9 87  1  0
 17 88  1  0
 18 89  1  0
 19 90  1  0
 20 91  1  0
 21 92  1  0
 22 93  1  0
 22 94  1  0
 23 95  1  0
 45 96  1  0
 45 97  1  0
 46 98  1  0
 46 99  1  0
 46100  1  0
 50101  1  0
 50102  1  0
 51103  1  0
 51104  1  0
 51105  1  0
 62106  1  0
 67107  1  0
 70108  1  0
 78109  1  0
 79110  1  0
 80111  1  0
 81112  1  0
 82113  1  0
 83114  1  0
 83115  1  0
 84116  1  0
M  END

