
     RDKit          3D

160178  0  0  0  0  0  0  0  0999 V2000
   -2.9013   -2.3414   -3.8962 C   0  0  0  0  0  0  0  0  0  0  0  0
   -2.4095   -3.1387   -2.9182 C   0  0  0  0  0  0  0  0  0  0  0  0
   -0.9504   -3.3692   -2.8473 C   0  0  0  0  0  0  0  0  0  0  0  0
   -0.0731   -2.4852   -2.7152 O   0  0  0  0  0  0  0  0  0  0  0  0
   -0.6192   -4.7604   -2.7822 C   0  0  0  0  0  0  0  0  0  0  0  0
    0.6467   -5.2887   -2.4825 C   0  0  0  0  0  0  0  0  0  0  0  0
    0.5915   -6.5704   -1.9814 C   0  0  0  0  0  0  0  0  0  0  0  0
   -0.6247   -7.3047   -1.8649 C   0  0  0  0  0  0  0  0  0  0  0  0
   -1.8392   -6.8375   -2.2399 C   0  0  0  0  0  0  0  0  0  0  0  0
   -1.8307   -5.4857   -2.6938 C   0  0  0  0  0  0  0  0  0  0  0  0
   -2.9583   -4.5318   -2.7959 C   0  0  0  0  0  0  0  0  0  0  0  0
   -4.2859   -4.8472   -2.7955 C   0  0  0  0  0  0  0  0  0  0  0  0
   -4.7716   -6.1957   -3.0140 C   0  0  0  0  0  0  0  0  0  0  0  0
   -5.1360   -7.2755   -3.2435 N   0  0  0  0  0  0  0  0  0  0  0  0
   -5.3285   -3.8723   -2.6414 C   0  0  0  0  0  0  0  0  0  0  0  0
   -6.1970   -3.1056   -2.5222 N   0  0  0  0  0  0  0  0  0  0  0  0
    0.0257   -8.2994   -0.9595 C   0  0  0  0  0  0  0  0  0  0  0  0
   -0.2151   -8.1716    0.6013 C   0  0  0  0  0  0  0  0  0  0  0  0
   -0.4204   -6.7269    1.0071 C   0  0  0  0  0  0  0  0  0  0  0  0
    0.7502   -6.0944    0.8304 C   0  0  0  0  0  0  0  0  0  0  0  0
    1.7055   -7.1494    0.2966 C   0  0  0  0  0  0  0  0  0  0  0  0
    1.2021   -8.3421    1.1121 C   0  0  0  0  0  0  0  0  0  0  0  0
    1.3058   -7.5890   -1.1591 C   0  0  0  0  0  0  0  0  0  0  0  0
   -3.1183   -0.8558   -3.8490 C   0  0  0  0  0  0  0  0  0  0  0  0
   -4.3108   -0.4155   -4.4757 C   0  0  0  0  0  0  0  0  0  0  0  0
   -5.3484   -1.2954   -4.7146 F   0  0  0  0  0  0  0  0  0  0  0  0
   -4.4725    0.9371   -4.8365 C   0  0  0  0  0  0  0  0  0  0  0  0
   -5.7041    1.4291   -5.1300 F   0  0  0  0  0  0  0  0  0  0  0  0
   -3.3768    1.8109   -4.7562 C   0  0  0  0  0  0  0  0  0  0  0  0
   -2.1310    1.1828   -4.6371 C   0  0  0  0  0  0  0  0  0  0  0  0
   -0.9662    1.7648   -5.0307 N   0  0  0  0  0  0  0  0  0  0  0  0
    0.2505    1.4446   -4.4888 C   0  0  0  0  0  0  0  0  0  0  0  0
    1.4061    2.3075   -4.8810 C   0  0  0  0  0  0  0  0  0  0  0  0
    2.8820    2.4676   -4.0627 S   0  0  0  0  0  0  0  0  0  0  0  0
    3.4609    3.7520   -4.9745 C   0  0  0  0  0  0  0  0  0  0  0  0
    4.8446    4.3277   -4.8971 C   0  0  0  0  0  0  0  0  0  0  0  0
    5.7439    3.6636   -5.9385 C   0  0  0  0  0  0  0  0  0  0  0  0
    2.5215    4.0486   -5.9646 C   0  0  0  0  0  0  0  0  0  0  0  0
    1.3809    3.2521   -5.9153 C   0  0  0  0  0  0  0  0  0  0  0  0
    0.3012    3.4635   -6.7100 F   0  0  0  0  0  0  0  0  0  0  0  0
    2.6422    5.0914   -6.8016 F   0  0  0  0  0  0  0  0  0  0  0  0
    0.2494    0.5665   -3.4031 C   0  0  0  0  0  0  0  0  0  0  0  0
   -0.8990   -0.1013   -3.1250 N   0  0  0  0  0  0  0  0  0  0  0  0
   -2.0279    0.0686   -3.8474 C   0  0  0  0  0  0  0  0  0  0  0  0
    1.4428    0.1223   -2.7002 C   0  0  0  0  0  0  0  0  0  0  0  0
    2.6873   -0.8022   -3.3702 S   0  0  0  0  0  0  0  0  0  0  0  0
    3.5245   -0.9781   -1.9162 C   0  0  0  0  0  0  0  0  0  0  0  0
    4.7949   -1.7786   -1.7377 C   0  0  0  0  0  0  0  0  0  0  0  0
    4.5586   -3.2558   -2.0477 C   0  0  0  0  0  0  0  0  0  0  0  0
    2.8329   -0.3102   -0.9120 C   0  0  0  0  0  0  0  0  0  0  0  0
    3.2546   -0.2378    0.3706 F   0  0  0  0  0  0  0  0  0  0  0  0
    1.6680    0.3044   -1.3493 C   0  0  0  0  0  0  0  0  0  0  0  0
    0.8681    1.0540   -0.5542 F   0  0  0  0  0  0  0  0  0  0  0  0
   -3.5342    2.9114   -3.7632 C   0  0  0  0  0  0  0  0  0  0  0  0
   -3.2070    4.2524   -4.0753 C   0  0  0  0  0  0  0  0  0  0  0  0
   -2.9151    4.5929   -5.3592 F   0  0  0  0  0  0  0  0  0  0  0  0
   -3.1241    5.2316   -3.0478 C   0  0  0  0  0  0  0  0  0  0  0  0
   -2.8103    6.5129   -3.3733 F   0  0  0  0  0  0  0  0  0  0  0  0
   -3.3543    4.8724   -1.7037 C   0  0  0  0  0  0  0  0  0  0  0  0
   -3.7050    3.5353   -1.4107 C   0  0  0  0  0  0  0  0  0  0  0  0
   -3.8673    3.1445   -0.1225 N   0  0  0  0  0  0  0  0  0  0  0  0
   -4.1624    1.8907    0.2605 C   0  0  0  0  0  0  0  0  0  0  0  0
   -4.2895    1.6098    1.7291 C   0  0  0  0  0  0  0  0  0  0  0  0
   -2.9330    1.6505    2.4235 C   0  0  0  0  0  0  0  0  0  0  0  0
   -4.2113    0.9149   -0.7447 C   0  0  0  0  0  0  0  0  0  0  0  0
   -4.0139    1.2907   -2.0201 N   0  0  0  0  0  0  0  0  0  0  0  0
   -3.7796    2.5754   -2.4148 C   0  0  0  0  0  0  0  0  0  0  0  0
   -4.4559   -0.5312   -0.4903 C   0  0  0  0  0  0  0  0  0  0  0  0
   -3.1745   -1.2114   -0.0118 C   0  0  0  0  0  0  0  0  0  0  0  0
   -3.1787    5.8014   -0.5415 C   0  0  0  0  0  0  0  0  0  0  0  0
   -1.8920    5.8331    0.0478 C   0  0  0  0  0  0  0  0  0  0  0  0
   -1.8109    5.8131    1.4467 C   0  0  0  0  0  0  0  0  0  0  0  0
   -0.7197    5.5438    2.1979 N   0  0  0  0  0  0  0  0  0  0  0  0
    0.6680    5.4394    1.7402 C   0  0  0  0  0  0  0  0  0  0  0  0
    1.0188    4.0129    1.3408 C   0  0  0  0  0  0  0  0  0  0  0  0
   -1.2012    5.2771    3.4393 C   0  0  0  0  0  0  0  0  0  0  0  0
   -2.5716    5.4405    3.5066 C   0  0  0  0  0  0  0  0  0  0  0  0
   -2.9519    5.8014    2.2331 C   0  0  0  0  0  0  0  0  0  0  0  0
   -4.2198    5.9367    1.6868 C   0  0  0  0  0  0  0  0  0  0  0  0
   -4.3307    5.9950    0.2828 C   0  0  0  0  0  0  0  0  0  0  0  0
   -3.3143    5.0583    4.6255 C   0  0  0  0  0  0  0  0  0  0  0  0
   -2.6404    4.4347    5.6875 C   0  0  0  0  0  0  0  0  0  0  0  0
   -1.2355    4.1933    5.6104 C   0  0  0  0  0  0  0  0  0  0  0  0
   -0.4876    4.7294    4.5209 C   0  0  0  0  0  0  0  0  0  0  0  0
   -0.5848    3.3425    6.6420 C   0  0  0  0  0  0  0  0  0  0  0  0
    0.1407    2.2401    6.3574 C   0  0  0  0  0  0  0  0  0  0  0  0
    0.3353    1.6881    4.9926 C   0  0  0  0  0  0  0  0  0  0  0  0
   -0.3239    1.9818    3.9624 O   0  0  0  0  0  0  0  0  0  0  0  0
    1.1141    0.4839    5.0954 C   0  0  0  0  0  0  0  0  0  0  0  0
    1.3081   -0.4720    4.0760 C   0  0  0  0  0  0  0  0  0  0  0  0
    1.6489   -1.7228    4.5355 C   0  0  0  0  0  0  0  0  0  0  0  0
    1.7045   -2.0632    5.9301 C   0  0  0  0  0  0  0  0  0  0  0  0
    1.5847   -1.1206    6.9422 C   0  0  0  0  0  0  0  0  0  0  0  0
    1.3066    0.1960    6.4694 C   0  0  0  0  0  0  0  0  0  0  0  0
    0.8580    1.3374    7.2995 C   0  0  0  0  0  0  0  0  0  0  0  0
    1.3325    1.6267    8.5430 C   0  0  0  0  0  0  0  0  0  0  0  0
    2.5540    1.0220    8.9805 C   0  0  0  0  0  0  0  0  0  0  0  0
    3.5622    0.5351    9.2986 N   0  0  0  0  0  0  0  0  0  0  0  0
    0.8932    2.7570    9.3159 C   0  0  0  0  0  0  0  0  0  0  0  0
    0.5507    3.6707    9.9690 N   0  0  0  0  0  0  0  0  0  0  0  0
    1.9099   -3.5096    5.5857 C   0  0  0  0  0  0  0  0  0  0  0  0
    3.3298   -4.0984    5.8481 C   0  0  0  0  0  0  0  0  0  0  0  0
    3.4285   -5.3684    5.0241 C   0  0  0  0  0  0  0  0  0  0  0  0
    3.4953   -4.9866    3.7390 C   0  0  0  0  0  0  0  0  0  0  0  0
    3.4200   -3.4836    3.7429 C   0  0  0  0  0  0  0  0  0  0  0  0
    4.2354   -3.2043    5.0037 C   0  0  0  0  0  0  0  0  0  0  0  0
    1.9453   -3.1462    4.1627 C   0  0  0  0  0  0  0  0  0  0  0  0
   -2.7974   -2.7241   -4.9077 H   0  0  0  0  0  0  0  0  0  0  0  0
    1.5218   -4.6706   -2.3869 H   0  0  0  0  0  0  0  0  0  0  0  0
   -2.6965   -7.4399   -2.0270 H   0  0  0  0  0  0  0  0  0  0  0  0
   -0.0366   -9.3335   -1.3506 H   0  0  0  0  0  0  0  0  0  0  0  0
   -0.9515   -8.8854    1.0308 H   0  0  0  0  0  0  0  0  0  0  0  0
   -1.3793   -6.2354    1.1246 H   0  0  0  0  0  0  0  0  0  0  0  0
    0.8576   -5.0225    0.6655 H   0  0  0  0  0  0  0  0  0  0  0  0
    2.7936   -6.9157    0.4284 H   0  0  0  0  0  0  0  0  0  0  0  0
    1.3019   -8.1658    2.2277 H   0  0  0  0  0  0  0  0  0  0  0  0
    1.6679   -9.3187    0.8371 H   0  0  0  0  0  0  0  0  0  0  0  0
    2.0797   -8.1953   -1.7083 H   0  0  0  0  0  0  0  0  0  0  0  0
    4.8052    5.4224   -5.1050 H   0  0  0  0  0  0  0  0  0  0  0  0
    5.2714    4.1720   -3.8900 H   0  0  0  0  0  0  0  0  0  0  0  0
    5.8587    2.5844   -5.7169 H   0  0  0  0  0  0  0  0  0  0  0  0
    5.3121    3.8029   -6.9475 H   0  0  0  0  0  0  0  0  0  0  0  0
    6.7552    4.1490   -5.9657 H   0  0  0  0  0  0  0  0  0  0  0  0
    5.1401   -1.6897   -0.6756 H   0  0  0  0  0  0  0  0  0  0  0  0
    5.6032   -1.3632   -2.3975 H   0  0  0  0  0  0  0  0  0  0  0  0
    5.4673   -3.8371   -1.7722 H   0  0  0  0  0  0  0  0  0  0  0  0
    4.3386   -3.4022   -3.1255 H   0  0  0  0  0  0  0  0  0  0  0  0
    3.7042   -3.6309   -1.4509 H   0  0  0  0  0  0  0  0  0  0  0  0
   -4.7821    0.6475    1.9164 H   0  0  0  0  0  0  0  0  0  0  0  0
   -4.9433    2.3975    2.1683 H   0  0  0  0  0  0  0  0  0  0  0  0
   -2.0876    1.9005    1.7235 H   0  0  0  0  0  0  0  0  0  0  0  0
   -2.9490    2.4127    3.2325 H   0  0  0  0  0  0  0  0  0  0  0  0
   -2.6973    0.6621    2.8749 H   0  0  0  0  0  0  0  0  0  0  0  0
   -5.2671   -0.6937    0.2496 H   0  0  0  0  0  0  0  0  0  0  0  0
   -4.7682   -1.0212   -1.4287 H   0  0  0  0  0  0  0  0  0  0  0  0
   -2.9487   -0.9631    1.0497 H   0  0  0  0  0  0  0  0  0  0  0  0
   -3.2813   -2.3192   -0.0887 H   0  0  0  0  0  0  0  0  0  0  0  0
   -2.2886   -0.9219   -0.6258 H   0  0  0  0  0  0  0  0  0  0  0  0
   -1.0164    5.6395   -0.5686 H   0  0  0  0  0  0  0  0  0  0  0  0
    1.3558    5.7752    2.5485 H   0  0  0  0  0  0  0  0  0  0  0  0
    0.8235    6.1235    0.8808 H   0  0  0  0  0  0  0  0  0  0  0  0
    0.8153    3.3263    2.1792 H   0  0  0  0  0  0  0  0  0  0  0  0
    0.4355    3.7003    0.4510 H   0  0  0  0  0  0  0  0  0  0  0  0
    2.0965    3.9516    1.1167 H   0  0  0  0  0  0  0  0  0  0  0  0
   -5.1120    5.8669    2.3115 H   0  0  0  0  0  0  0  0  0  0  0  0
   -5.3269    5.8651   -0.1502 H   0  0  0  0  0  0  0  0  0  0  0  0
   -4.3907    5.1537    4.6195 H   0  0  0  0  0  0  0  0  0  0  0  0
   -3.2144    4.0451    6.5214 H   0  0  0  0  0  0  0  0  0  0  0  0
    0.5895    4.5382    4.4796 H   0  0  0  0  0  0  0  0  0  0  0  0
   -0.8507    3.5777    7.6620 H   0  0  0  0  0  0  0  0  0  0  0  0
    1.0734   -0.2795    3.0422 H   0  0  0  0  0  0  0  0  0  0  0  0
    1.6209   -1.4217    7.9956 H   0  0  0  0  0  0  0  0  0  0  0  0
    1.0512   -4.1306    5.9063 H   0  0  0  0  0  0  0  0  0  0  0  0
    3.6270   -4.2146    6.9108 H   0  0  0  0  0  0  0  0  0  0  0  0
    3.5323   -6.3847    5.3855 H   0  0  0  0  0  0  0  0  0  0  0  0
    3.6998   -5.6339    2.8922 H   0  0  0  0  0  0  0  0  0  0  0  0
    3.7833   -2.9830    2.8110 H   0  0  0  0  0  0  0  0  0  0  0  0
    5.2914   -3.5485    4.9541 H   0  0  0  0  0  0  0  0  0  0  0  0
    4.2403   -2.1388    5.3322 H   0  0  0  0  0  0  0  0  0  0  0  0
    1.1466   -3.6187    3.5393 H   0  0  0  0  0  0  0  0  0  0  0  0
  1  2  2  3
  2  3  1  0
  3  4  2  0
  3  5  1  0
  5  6  2  0
  6  7  1  0
  7  8  2  0
  8  9  1  0
  9 10  2  0
 10 11  1  0
 11 12  2  3
 12 13  1  0
 13 14  3  0
 12 15  1  0
 15 16  3  0
  8 17  1  0
 17 18  1  0
 18 19  1  0
 19 20  2  0
 20 21  1  0
 21 22  1  0
 21 23  1  0
  1 24  1  0
 24 25  2  0
 25 26  1  0
 25 27  1  0
 27 28  1  0
 27 29  2  0
 29 30  1  0
 30 31  2  0
 31 32  1  0
 32 33  1  0
 33 34  1  0
 34 35  1  0
 35 36  1  0
 36 37  1  0
 35 38  2  0
 38 39  1  0
 39 40  1  0
 38 41  1  0
 32 42  2  0
 42 43  1  0
 43 44  2  0
 42 45  1  0
 45 46  1  0
 46 47  1  0
 47 48  1  0
 48 49  1  0
 47 50  2  0
 50 51  1  0
 50 52  1  0
 52 53  1  0
 29 54  1  0
 54 55  2  0
 55 56  1  0
 55 57  1  0
 57 58  1  0
 57 59  2  0
 59 60  1  0
 60 61  2  0
 61 62  1  0
 62 63  1  0
 63 64  1  0
 62 65  2  0
 65 66  1  0
 66 67  2  0
 65 68  1  0
 68 69  1  0
 59 70  1  0
 70 71  2  0
 71 72  1  0
 72 73  1  0
 73 74  1  0
 74 75  1  0
 73 76  1  0
 76 77  2  0
 77 78  1  0
 78 79  1  0
 79 80  2  0
 77 81  1  0
 81 82  2  0
 82 83  1  0
 83 84  2  0
 83 85  1  0
 85 86  2  3
 86 87  1  0
 87 88  2  0
 87 89  1  0
 89 90  2  0
 90 91  1  0
 91 92  2  0
 92 93  1  0
 93 94  2  0
 94 95  1  0
 95 96  2  3
 96 97  1  0
 97 98  3  0
 96 99  1  0
 99100  3  0
 92101  1  0
101102  1  0
102103  1  0
103104  2  0
104105  1  0
105106  1  0
105107  1  0
 11  2  1  0
 23 17  1  0
 44 24  1  0
 52 45  2  0
 67 54  1  0
 80 70  1  0
 95 86  1  0
107101  1  0
 10  5  1  0
 22 18  1  0
 44 30  1  0
 67 60  1  0
 78 72  2  0
 94 89  1  0
106102  1  0
 23  7  1  0
 39 33  2  0
 84 76  1  0
107 91  1  0
  1108  1  0
  6109  1  0
  9110  1  0
 17111  1  0
 18112  1  0
 19113  1  0
 20114  1  0
 21115  1  0
 22116  1  0
 22117  1  0
 23118  1  0
 36119  1  0
 36120  1  0
 37121  1  0
 37122  1  0
 37123  1  0
 48124  1  0
 48125  1  0
 49126  1  0
 49127  1  0
 49128  1  0
 63129  1  0
 63130  1  0
 64131  1  0
 64132  1  0
 64133  1  0
 68134  1  0
 68135  1  0
 69136  1  0
 69137  1  0
 69138  1  0
 71139  1  0
 74140  1  0
 74141  1  0
 75142  1  0
 75143  1  0
 75144  1  0
 79145  1  0
 80146  1  0
 81147  1  0
 82148  1  0
 84149  1  0
 85150  1  0
 90151  1  0
 93152  1  0
101153  1  0
102154  1  0
103155  1  0
104156  1  0
105157  1  0
106158  1  0
106159  1  0
107160  1  0
M  END

