
     RDKit          3D

194215  0  0  0  0  0  0  0  0999 V2000
    0.2388   -2.7936   -5.8553 C   0  0  0  0  0  0  0  0  0  0  0  0
   -0.6614   -1.7920   -5.9556 C   0  0  0  0  0  0  0  0  0  0  0  0
   -1.0833   -0.8848   -4.8753 C   0  0  0  0  0  0  0  0  0  0  0  0
   -0.6864   -0.9026   -3.6825 O   0  0  0  0  0  0  0  0  0  0  0  0
   -1.8202    0.2143   -5.4510 C   0  0  0  0  0  0  0  0  0  0  0  0
   -2.3640    1.3169   -4.7526 C   0  0  0  0  0  0  0  0  0  0  0  0
   -2.8923    2.2914   -5.5754 C   0  0  0  0  0  0  0  0  0  0  0  0
   -2.8683    2.2051   -7.0047 C   0  0  0  0  0  0  0  0  0  0  0  0
   -2.3398    1.1277   -7.6924 C   0  0  0  0  0  0  0  0  0  0  0  0
   -1.8279    0.0890   -6.8619 C   0  0  0  0  0  0  0  0  0  0  0  0
   -1.2138   -1.2216   -7.2293 C   0  0  0  0  0  0  0  0  0  0  0  0
   -1.3677   -1.8798   -8.4102 C   0  0  0  0  0  0  0  0  0  0  0  0
   -2.0030   -1.2862   -9.5572 C   0  0  0  0  0  0  0  0  0  0  0  0
   -2.4993   -0.8220  -10.4918 N   0  0  0  0  0  0  0  0  0  0  0  0
   -0.9895   -3.2611   -8.5741 C   0  0  0  0  0  0  0  0  0  0  0  0
   -0.6899   -4.3707   -8.7180 N   0  0  0  0  0  0  0  0  0  0  0  0
   -3.5359    3.5486   -7.1088 C   0  0  0  0  0  0  0  0  0  0  0  0
   -5.0393    3.5848   -7.5199 C   0  0  0  0  0  0  0  0  0  0  0  0
   -5.7251    2.3202   -7.0629 C   0  0  0  0  0  0  0  0  0  0  0  0
   -5.7635    2.3728   -5.7310 C   0  0  0  0  0  0  0  0  0  0  0  0
   -5.1026    3.6702   -5.3277 C   0  0  0  0  0  0  0  0  0  0  0  0
   -5.5766    4.5435   -6.4728 C   0  0  0  0  0  0  0  0  0  0  0  0
   -3.5775    3.6200   -5.6453 C   0  0  0  0  0  0  0  0  0  0  0  0
    0.7297   -3.3609   -4.5814 C   0  0  0  0  0  0  0  0  0  0  0  0
    2.0705   -3.6552   -4.2853 C   0  0  0  0  0  0  0  0  0  0  0  0
    3.1724   -3.2111   -5.0922 N   0  0  0  0  0  0  0  0  0  0  0  0
    3.3590   -3.7313   -6.4258 C   0  0  0  0  0  0  0  0  0  0  0  0
    3.7911   -2.8917   -7.4726 C   0  0  0  0  0  0  0  0  0  0  0  0
    3.8928   -3.3769   -8.7779 C   0  0  0  0  0  0  0  0  0  0  0  0
    3.5659   -4.7049   -9.0600 C   0  0  0  0  0  0  0  0  0  0  0  0
    3.6789   -5.3130  -10.7440 S   0  0  0  0  0  0  0  0  0  0  0  0
    1.9654   -4.8541  -11.1467 C   0  0  0  0  0  0  0  0  0  0  0  0
    3.1595   -5.5573   -8.0273 C   0  0  0  0  0  0  0  0  0  0  0  0
    3.0536   -5.0733   -6.7177 C   0  0  0  0  0  0  0  0  0  0  0  0
    3.8689   -2.0250   -4.6716 C   0  0  0  0  0  0  0  0  0  0  0  0
    5.2490   -2.0655   -4.4301 C   0  0  0  0  0  0  0  0  0  0  0  0
    5.9371   -0.8908   -4.0994 C   0  0  0  0  0  0  0  0  0  0  0  0
    5.2492    0.3264   -4.0246 C   0  0  0  0  0  0  0  0  0  0  0  0
    6.1476    1.8355   -3.6749 S   0  0  0  0  0  0  0  0  0  0  0  0
    5.8028    1.7808   -1.8916 C   0  0  0  0  0  0  0  0  0  0  0  0
    3.8727    0.3666   -4.2670 C   0  0  0  0  0  0  0  0  0  0  0  0
    3.1807   -0.8055   -4.5753 C   0  0  0  0  0  0  0  0  0  0  0  0
    2.2136   -4.0918   -2.9626 C   0  0  0  0  0  0  0  0  0  0  0  0
    3.5254   -4.2784   -1.9240 S   0  0  0  0  0  0  0  0  0  0  0  0
    2.5617   -4.4040   -0.5203 C   0  0  0  0  0  0  0  0  0  0  0  0
    1.2127   -4.1910   -0.8675 C   0  0  0  0  0  0  0  0  0  0  0  0
    0.2808   -3.5126    0.0032 N   0  0  0  0  0  0  0  0  0  0  0  0
    0.1791   -2.0760   -0.1253 C   0  0  0  0  0  0  0  0  0  0  0  0
   -1.0495   -1.4687   -0.4543 C   0  0  0  0  0  0  0  0  0  0  0  0
   -1.1168   -0.0920   -0.6882 C   0  0  0  0  0  0  0  0  0  0  0  0
    0.0333    0.6980   -0.5842 C   0  0  0  0  0  0  0  0  0  0  0  0
   -0.0353    2.4528   -0.9480 S   0  0  0  0  0  0  0  0  0  0  0  0
    0.7039    2.2791   -2.5987 C   0  0  0  0  0  0  0  0  0  0  0  0
    1.2449    0.1127   -0.2091 C   0  0  0  0  0  0  0  0  0  0  0  0
    1.3189   -1.2638    0.0021 C   0  0  0  0  0  0  0  0  0  0  0  0
   -0.6798   -4.2504    0.7906 C   0  0  0  0  0  0  0  0  0  0  0  0
   -1.0687   -5.5523    0.4314 C   0  0  0  0  0  0  0  0  0  0  0  0
   -2.0194   -6.2416    1.1883 C   0  0  0  0  0  0  0  0  0  0  0  0
   -2.5873   -5.6432    2.3144 C   0  0  0  0  0  0  0  0  0  0  0  0
   -3.8187   -6.5253    3.2726 S   0  0  0  0  0  0  0  0  0  0  0  0
   -5.2210   -5.7700    2.3927 C   0  0  0  0  0  0  0  0  0  0  0  0
   -2.1872   -4.3603    2.7006 C   0  0  0  0  0  0  0  0  0  0  0  0
   -1.2338   -3.6695    1.9474 C   0  0  0  0  0  0  0  0  0  0  0  0
    1.0633   -4.1240   -2.2484 C   0  0  0  0  0  0  0  0  0  0  0  0
   -0.2298   -3.6709   -3.2100 S   0  0  0  0  0  0  0  0  0  0  0  0
    3.0730   -4.3835    0.8603 C   0  0  0  0  0  0  0  0  0  0  0  0
    3.9085   -3.3855    1.3532 C   0  0  0  0  0  0  0  0  0  0  0  0
    3.7078   -3.1296    2.7252 C   0  0  0  0  0  0  0  0  0  0  0  0
    4.1445   -1.9729    3.4002 C   0  0  0  0  0  0  0  0  0  0  0  0
    5.1578   -1.0735    2.8101 C   0  0  0  0  0  0  0  0  0  0  0  0
    6.4297   -1.4610    2.3997 C   0  0  0  0  0  0  0  0  0  0  0  0
    7.2072   -0.3942    1.9300 C   0  0  0  0  0  0  0  0  0  0  0  0
    8.4982   -0.5432    1.5484 F   0  0  0  0  0  0  0  0  0  0  0  0
    6.5506    0.8316    1.9491 C   0  0  0  0  0  0  0  0  0  0  0  0
    7.1963    2.1563    1.6522 C   0  0  0  0  0  0  0  0  0  0  0  0
    6.1785    3.2827    1.4718 C   0  0  0  0  0  0  0  0  0  0  0  0
    5.0057    0.5858    2.5739 S   0  0  0  0  0  0  0  0  0  0  0  0
    3.4762   -1.6582    4.6008 C   0  0  0  0  0  0  0  0  0  0  0  0
    2.5129   -2.4997    5.1726 C   0  0  0  0  0  0  0  0  0  0  0  0
    2.2302   -3.7582    4.5993 C   0  0  0  0  0  0  0  0  0  0  0  0
    1.3769   -4.7483    5.3072 C   0  0  0  0  0  0  0  0  0  0  0  0
    0.2573   -5.8103    4.6223 S   0  0  0  0  0  0  0  0  0  0  0  0
   -0.1679   -6.5893    6.0483 C   0  0  0  0  0  0  0  0  0  0  0  0
   -1.1773   -7.6909    6.1719 C   0  0  0  0  0  0  0  0  0  0  0  0
   -2.4828   -7.1644    6.7550 C   0  0  0  0  0  0  0  0  0  0  0  0
    0.5574   -6.0228    7.0868 C   0  0  0  0  0  0  0  0  0  0  0  0
    1.4236   -5.0075    6.6797 C   0  0  0  0  0  0  0  0  0  0  0  0
    0.4513   -6.4244    8.3761 F   0  0  0  0  0  0  0  0  0  0  0  0
    2.7883   -4.0007    3.3259 C   0  0  0  0  0  0  0  0  0  0  0  0
    2.2193   -5.0500    2.1496 S   0  0  0  0  0  0  0  0  0  0  0  0
    1.7495   -1.8694    6.1712 C   0  0  0  0  0  0  0  0  0  0  0  0
    2.1028   -0.5372    6.3820 C   0  0  0  0  0  0  0  0  0  0  0  0
    3.4116   -0.1724    5.3780 S   0  0  0  0  0  0  0  0  0  0  0  0
    1.1876    0.4965    6.8983 C   0  0  0  0  0  0  0  0  0  0  0  0
    1.4434    1.8654    6.8221 C   0  0  0  0  0  0  0  0  0  0  0  0
    0.2883    2.6524    6.8822 C   0  0  0  0  0  0  0  0  0  0  0  0
    0.3076    4.3984    6.4611 S   0  0  0  0  0  0  0  0  0  0  0  0
    0.0482    5.0185    8.1617 C   0  0  0  0  0  0  0  0  0  0  0  0
   -1.2210    5.8604    8.2135 C   0  0  0  0  0  0  0  0  0  0  0  0
   -0.8829    1.9168    7.0411 C   0  0  0  0  0  0  0  0  0  0  0  0
   -0.4827    0.2855    7.0641 S   0  0  0  0  0  0  0  0  0  0  0  0
   -2.2313    2.4690    6.8578 C   0  0  0  0  0  0  0  0  0  0  0  0
   -2.6653    2.8380    5.6358 C   0  0  0  0  0  0  0  0  0  0  0  0
   -2.0242    2.4390    4.3803 C   0  0  0  0  0  0  0  0  0  0  0  0
   -1.3790    1.3748    4.1795 O   0  0  0  0  0  0  0  0  0  0  0  0
   -2.2080    3.4934    3.4104 C   0  0  0  0  0  0  0  0  0  0  0  0
   -1.5816    3.5997    2.1503 C   0  0  0  0  0  0  0  0  0  0  0  0
   -1.7693    4.8241    1.5348 C   0  0  0  0  0  0  0  0  0  0  0  0
   -2.5114    5.8911    2.1334 C   0  0  0  0  0  0  0  0  0  0  0  0
   -3.1491    5.7846    3.3588 C   0  0  0  0  0  0  0  0  0  0  0  0
   -2.9940    4.5173    3.9902 C   0  0  0  0  0  0  0  0  0  0  0  0
   -3.4474    4.0747    5.3407 C   0  0  0  0  0  0  0  0  0  0  0  0
   -4.4558    4.6038    6.0817 C   0  0  0  0  0  0  0  0  0  0  0  0
   -5.2043    5.7565    5.6532 C   0  0  0  0  0  0  0  0  0  0  0  0
   -5.8169    6.6789    5.3207 N   0  0  0  0  0  0  0  0  0  0  0  0
   -4.9213    3.9786    7.2929 C   0  0  0  0  0  0  0  0  0  0  0  0
   -5.3046    3.4884    8.2702 N   0  0  0  0  0  0  0  0  0  0  0  0
   -2.1689    6.7983    0.9832 C   0  0  0  0  0  0  0  0  0  0  0  0
   -3.2853    7.1184   -0.0538 C   0  0  0  0  0  0  0  0  0  0  0  0
   -4.2496    5.9577   -0.1408 C   0  0  0  0  0  0  0  0  0  0  0  0
   -3.5770    4.9488   -0.7007 C   0  0  0  0  0  0  0  0  0  0  0  0
   -2.1796    5.4628   -0.9801 C   0  0  0  0  0  0  0  0  0  0  0  0
   -2.5179    6.8953   -1.3451 C   0  0  0  0  0  0  0  0  0  0  0  0
   -1.4244    5.6976    0.3641 C   0  0  0  0  0  0  0  0  0  0  0  0
    0.7272   -3.1412   -6.7445 H   0  0  0  0  0  0  0  0  0  0  0  0
   -2.3739    1.3944   -3.6769 H   0  0  0  0  0  0  0  0  0  0  0  0
   -2.2967    1.1289   -8.7670 H   0  0  0  0  0  0  0  0  0  0  0  0
   -2.8986    4.3332   -7.5715 H   0  0  0  0  0  0  0  0  0  0  0  0
   -5.2263    3.8697   -8.5718 H   0  0  0  0  0  0  0  0  0  0  0  0
   -6.1543    1.5442   -7.6835 H   0  0  0  0  0  0  0  0  0  0  0  0
   -6.2274    1.6385   -5.0762 H   0  0  0  0  0  0  0  0  0  0  0  0
   -5.3584    4.0311   -4.3067 H   0  0  0  0  0  0  0  0  0  0  0  0
   -5.0930    5.5470   -6.4943 H   0  0  0  0  0  0  0  0  0  0  0  0
   -6.6848    4.6626   -6.5138 H   0  0  0  0  0  0  0  0  0  0  0  0
   -2.9813    4.4550   -5.2155 H   0  0  0  0  0  0  0  0  0  0  0  0
    4.0229   -1.8520   -7.2912 H   0  0  0  0  0  0  0  0  0  0  0  0
    4.2109   -2.7125   -9.5726 H   0  0  0  0  0  0  0  0  0  0  0  0
    1.2639   -5.4812  -10.5602 H   0  0  0  0  0  0  0  0  0  0  0  0
    1.7900   -5.0206  -12.2310 H   0  0  0  0  0  0  0  0  0  0  0  0
    1.7878   -3.7798  -10.9185 H   0  0  0  0  0  0  0  0  0  0  0  0
    2.9196   -6.5909   -8.2412 H   0  0  0  0  0  0  0  0  0  0  0  0
    2.7310   -5.7452   -5.9346 H   0  0  0  0  0  0  0  0  0  0  0  0
    5.7889   -3.0009   -4.5073 H   0  0  0  0  0  0  0  0  0  0  0  0
    7.0043   -0.9319   -3.9150 H   0  0  0  0  0  0  0  0  0  0  0  0
    6.4306    2.5479   -1.3921 H   0  0  0  0  0  0  0  0  0  0  0  0
    4.7306    2.0038   -1.7029 H   0  0  0  0  0  0  0  0  0  0  0  0
    6.0587    0.7830   -1.4738 H   0  0  0  0  0  0  0  0  0  0  0  0
    3.3423    1.3092   -4.2278 H   0  0  0  0  0  0  0  0  0  0  0  0
    2.1201   -0.7577   -4.7728 H   0  0  0  0  0  0  0  0  0  0  0  0
   -1.9385   -2.0731   -0.5703 H   0  0  0  0  0  0  0  0  0  0  0  0
   -2.0604    0.3577   -0.9673 H   0  0  0  0  0  0  0  0  0  0  0  0
    0.1115    1.5812   -3.2199 H   0  0  0  0  0  0  0  0  0  0  0  0
    1.7424    1.9001   -2.5020 H   0  0  0  0  0  0  0  0  0  0  0  0
    0.7250    3.2695   -3.0972 H   0  0  0  0  0  0  0  0  0  0  0  0
    2.1368    0.7214   -0.1191 H   0  0  0  0  0  0  0  0  0  0  0  0
    2.2742   -1.6927    0.2531 H   0  0  0  0  0  0  0  0  0  0  0  0
   -0.6540   -6.0311   -0.4466 H   0  0  0  0  0  0  0  0  0  0  0  0
   -2.3188   -7.2387    0.8914 H   0  0  0  0  0  0  0  0  0  0  0  0
   -5.2477   -4.6775    2.5909 H   0  0  0  0  0  0  0  0  0  0  0  0
   -6.1649   -6.2239    2.7576 H   0  0  0  0  0  0  0  0  0  0  0  0
   -5.1323   -5.9507    1.3006 H   0  0  0  0  0  0  0  0  0  0  0  0
   -2.6105   -3.8980    3.5836 H   0  0  0  0  0  0  0  0  0  0  0  0
   -0.9269   -2.6825    2.2710 H   0  0  0  0  0  0  0  0  0  0  0  0
    4.4693   -2.7258    0.7008 H   0  0  0  0  0  0  0  0  0  0  0  0
    6.7992   -2.4748    2.4743 H   0  0  0  0  0  0  0  0  0  0  0  0
    7.8737    2.4175    2.4950 H   0  0  0  0  0  0  0  0  0  0  0  0
    7.8076    2.0635    0.7284 H   0  0  0  0  0  0  0  0  0  0  0  0
    5.6829    3.5115    2.4406 H   0  0  0  0  0  0  0  0  0  0  0  0
    6.6962    4.1959    1.1136 H   0  0  0  0  0  0  0  0  0  0  0  0
    5.4009    2.9979    0.7338 H   0  0  0  0  0  0  0  0  0  0  0  0
   -1.3719   -8.1306    5.1684 H   0  0  0  0  0  0  0  0  0  0  0  0
   -0.7741   -8.4918    6.8250 H   0  0  0  0  0  0  0  0  0  0  0  0
   -2.8851   -6.3415    6.1255 H   0  0  0  0  0  0  0  0  0  0  0  0
   -2.3189   -6.7884    7.7861 H   0  0  0  0  0  0  0  0  0  0  0  0
   -3.2286   -7.9856    6.7918 H   0  0  0  0  0  0  0  0  0  0  0  0
    2.0789   -4.4831    7.3607 H   0  0  0  0  0  0  0  0  0  0  0  0
    0.8577   -2.3112    6.6014 H   0  0  0  0  0  0  0  0  0  0  0  0
    2.4193    2.2784    6.5962 H   0  0  0  0  0  0  0  0  0  0  0  0
   -0.0235    4.1962    8.9058 H   0  0  0  0  0  0  0  0  0  0  0  0
    0.9153    5.6552    8.4366 H   0  0  0  0  0  0  0  0  0  0  0  0
   -1.2244    6.6190    7.3997 H   0  0  0  0  0  0  0  0  0  0  0  0
   -1.2806    6.3924    9.1896 H   0  0  0  0  0  0  0  0  0  0  0  0
   -2.1171    5.2135    8.1039 H   0  0  0  0  0  0  0  0  0  0  0  0
   -2.6615    2.9058    7.7419 H   0  0  0  0  0  0  0  0  0  0  0  0
   -0.9548    2.8240    1.7389 H   0  0  0  0  0  0  0  0  0  0  0  0
   -3.6433    6.6320    3.8067 H   0  0  0  0  0  0  0  0  0  0  0  0
   -1.5261    7.6598    1.2653 H   0  0  0  0  0  0  0  0  0  0  0  0
   -3.7585    8.1173    0.0543 H   0  0  0  0  0  0  0  0  0  0  0  0
   -5.3055    5.9550    0.1099 H   0  0  0  0  0  0  0  0  0  0  0  0
   -3.9963    3.9894   -0.9910 H   0  0  0  0  0  0  0  0  0  0  0  0
   -1.6202    4.8979   -1.7536 H   0  0  0  0  0  0  0  0  0  0  0  0
   -1.6182    7.5466   -1.4472 H   0  0  0  0  0  0  0  0  0  0  0  0
   -3.1528    6.9838   -2.2592 H   0  0  0  0  0  0  0  0  0  0  0  0
   -0.3348    5.8956    0.2561 H   0  0  0  0  0  0  0  0  0  0  0  0
  1  2  2  3
  2  3  1  0
  3  4  2  0
  3  5  1  0
  5  6  2  0
  6  7  1  0
  7  8  2  0
  8  9  1  0
  9 10  2  0
 10 11  1  0
 11 12  2  3
 12 13  1  0
 13 14  3  0
 12 15  1  0
 15 16  3  0
  8 17  1  0
 17 18  1  0
 18 19  1  0
 19 20  2  0
 20 21  1  0
 21 22  1  0
 21 23  1  0
  1 24  1  0
 24 25  2  0
 25 26  1  0
 26 27  1  0
 27 28  2  0
 28 29  1  0
 29 30  2  0
 30 31  1  0
 31 32  1  0
 30 33  1  0
 33 34  2  0
 26 35  1  0
 35 36  2  0
 36 37  1  0
 37 38  2  0
 38 39  1  0
 39 40  1  0
 38 41  1  0
 41 42  2  0
 25 43  1  0
 43 44  1  0
 44 45  1  0
 45 46  2  0
 46 47  1  0
 47 48  1  0
 48 49  2  0
 49 50  1  0
 50 51  2  0
 51 52  1  0
 52 53  1  0
 51 54  1  0
 54 55  2  0
 47 56  1  0
 56 57  2  0
 57 58  1  0
 58 59  2  0
 59 60  1  0
 60 61  1  0
 59 62  1  0
 62 63  2  0
 46 64  1  0
 64 65  1  0
 45 66  1  0
 66 67  2  0
 67 68  1  0
 68 69  2  0
 69 70  1  0
 70 71  2  0
 71 72  1  0
 72 73  1  0
 72 74  2  0
 74 75  1  0
 75 76  1  0
 74 77  1  0
 69 78  1  0
 78 79  2  0
 79 80  1  0
 80 81  1  0
 81 82  1  0
 82 83  1  0
 83 84  1  0
 84 85  1  0
 83 86  2  0
 86 87  1  0
 86 88  1  0
 80 89  2  0
 89 90  1  0
 79 91  1  0
 91 92  2  0
 92 93  1  0
 92 94  1  0
 94 95  2  0
 95 96  1  0
 96 97  1  0
 97 98  1  0
 98 99  1  0
 96100  2  0
100101  1  0
100102  1  0
102103  2  3
103104  1  0
104105  2  0
104106  1  0
106107  2  0
107108  1  0
108109  2  0
109110  1  0
110111  2  0
111112  1  0
112113  2  3
113114  1  0
114115  3  0
113116  1  0
116117  3  0
109118  1  0
118119  1  0
119120  1  0
120121  2  0
121122  1  0
122123  1  0
122124  1  0
 11  2  1  0
 23 17  1  0
 65 24  1  0
 90 66  1  0
101 94  1  0
112103  1  0
124118  1  0
 10  5  1  0
 22 18  1  0
 34 27  1  0
 42 35  1  0
 64 43  2  0
 89 68  1  0
111106  1  0
123119  1  0
 23  7  1  0
 55 48  1  0
 63 56  1  0
 77 70  1  0
 93 78  1  0
124108  1  0
 87 81  2  0
  1125  1  0
  6126  1  0
  9127  1  0
 17128  1  0
 18129  1  0
 19130  1  0
 20131  1  0
 21132  1  0
 22133  1  0
 22134  1  0
 23135  1  0
 28136  1  0
 29137  1  0
 32138  1  0
 32139  1  0
 32140  1  0
 33141  1  0
 34142  1  0
 36143  1  0
 37144  1  0
 40145  1  0
 40146  1  0
 40147  1  0
 41148  1  0
 42149  1  0
 49150  1  0
 50151  1  0
 53152  1  0
 53153  1  0
 53154  1  0
 54155  1  0
 55156  1  0
 57157  1  0
 58158  1  0
 61159  1  0
 61160  1  0
 61161  1  0
 62162  1  0
 63163  1  0
 67164  1  0
 71165  1  0
 75166  1  0
 75167  1  0
 76168  1  0
 76169  1  0
 76170  1  0
 84171  1  0
 84172  1  0
 85173  1  0
 85174  1  0
 85175  1  0
 87176  1  0
 91177  1  0
 95178  1  0
 98179  1  0
 98180  1  0
 99181  1  0
 99182  1  0
 99183  1  0
102184  1  0
107185  1  0
110186  1  0
118187  1  0
119188  1  0
120189  1  0
121190  1  0
122191  1  0
123192  1  0
123193  1  0
124194  1  0
M  END

