
     RDKit          3D

239262  0  0  0  0  0  0  0  0999 V2000
    2.1854   -4.9293    4.6242 C   0  0  0  0  0  0  0  0  0  0  0  0
    2.5325   -5.3656    3.3927 C   0  0  0  0  0  0  0  0  0  0  0  0
    1.9800   -4.8544    2.1288 C   0  0  0  0  0  0  0  0  0  0  0  0
    1.3760   -3.7629    1.9594 O   0  0  0  0  0  0  0  0  0  0  0  0
    2.1842   -5.8459    1.0966 C   0  0  0  0  0  0  0  0  0  0  0  0
    1.6216   -5.8429   -0.1961 C   0  0  0  0  0  0  0  0  0  0  0  0
    1.8376   -7.0047   -0.9049 C   0  0  0  0  0  0  0  0  0  0  0  0
    2.5675   -8.1172   -0.3802 C   0  0  0  0  0  0  0  0  0  0  0  0
    3.1343   -8.1218    0.8859 C   0  0  0  0  0  0  0  0  0  0  0  0
    2.9262   -6.9277    1.6360 C   0  0  0  0  0  0  0  0  0  0  0  0
    3.2778   -6.6200    3.0530 C   0  0  0  0  0  0  0  0  0  0  0  0
    4.2509   -7.2042    3.7926 C   0  0  0  0  0  0  0  0  0  0  0  0
    4.6654   -6.6811    5.0691 C   0  0  0  0  0  0  0  0  0  0  0  0
    5.0104   -6.2654    6.0934 N   0  0  0  0  0  0  0  0  0  0  0  0
    5.0498   -8.2900    3.2891 C   0  0  0  0  0  0  0  0  0  0  0  0
    5.7006   -9.1635    2.8977 N   0  0  0  0  0  0  0  0  0  0  0  0
    2.2996   -8.9013   -1.6308 C   0  0  0  0  0  0  0  0  0  0  0  0
    1.2310  -10.0372   -1.5755 C   0  0  0  0  0  0  0  0  0  0  0  0
    0.1697   -9.6997   -0.5494 C   0  0  0  0  0  0  0  0  0  0  0  0
   -0.5011   -8.6532   -1.0308 C   0  0  0  0  0  0  0  0  0  0  0  0
    0.1154   -8.3204   -2.3696 C   0  0  0  0  0  0  0  0  0  0  0  0
    0.4478   -9.7244   -2.8394 C   0  0  0  0  0  0  0  0  0  0  0  0
    1.5560   -7.7577   -2.1684 C   0  0  0  0  0  0  0  0  0  0  0  0
    1.3093   -3.7662    4.8128 C   0  0  0  0  0  0  0  0  0  0  0  0
   -0.0892   -3.7394    4.6017 C   0  0  0  0  0  0  0  0  0  0  0  0
   -0.9905   -4.8754    4.6417 N   0  0  0  0  0  0  0  0  0  0  0  0
   -2.3544   -4.7104    5.0792 C   0  0  0  0  0  0  0  0  0  0  0  0
   -2.6490   -3.9708    6.2359 C   0  0  0  0  0  0  0  0  0  0  0  0
   -3.9712   -3.8228    6.6630 C   0  0  0  0  0  0  0  0  0  0  0  0
   -5.0110   -4.4184    5.9446 C   0  0  0  0  0  0  0  0  0  0  0  0
   -6.7046   -4.2307    6.5004 S   0  0  0  0  0  0  0  0  0  0  0  0
   -6.6977   -5.7801    7.4553 C   0  0  0  0  0  0  0  0  0  0  0  0
   -4.7293   -5.1523    4.7900 C   0  0  0  0  0  0  0  0  0  0  0  0
   -3.4057   -5.3046    4.3603 C   0  0  0  0  0  0  0  0  0  0  0  0
   -0.5283   -6.2167    4.4608 C   0  0  0  0  0  0  0  0  0  0  0  0
   -0.2662   -7.0227    5.5786 C   0  0  0  0  0  0  0  0  0  0  0  0
    0.0599   -8.3701    5.4082 C   0  0  0  0  0  0  0  0  0  0  0  0
    0.1295   -8.9200    4.1240 C   0  0  0  0  0  0  0  0  0  0  0  0
    0.4427  -10.6716    3.9141 S   0  0  0  0  0  0  0  0  0  0  0  0
    2.2486  -10.4815    3.9648 C   0  0  0  0  0  0  0  0  0  0  0  0
   -0.1151   -8.1098    3.0073 C   0  0  0  0  0  0  0  0  0  0  0  0
   -0.4539   -6.7661    3.1763 C   0  0  0  0  0  0  0  0  0  0  0  0
   -0.5277   -2.4310    4.3770 C   0  0  0  0  0  0  0  0  0  0  0  0
   -1.8898   -1.8227    3.6180 S   0  0  0  0  0  0  0  0  0  0  0  0
   -1.2709   -0.2500    3.4688 C   0  0  0  0  0  0  0  0  0  0  0  0
    0.0093   -0.1817    4.0551 C   0  0  0  0  0  0  0  0  0  0  0  0
    0.7539    1.0531    4.2452 N   0  0  0  0  0  0  0  0  0  0  0  0
    0.0613    2.3145    4.1505 C   0  0  0  0  0  0  0  0  0  0  0  0
    0.4825    3.2875    3.2301 C   0  0  0  0  0  0  0  0  0  0  0  0
   -0.2306    4.4825    3.0939 C   0  0  0  0  0  0  0  0  0  0  0  0
   -1.3533    4.7253    3.8927 C   0  0  0  0  0  0  0  0  0  0  0  0
   -2.2719    6.2575    3.7203 S   0  0  0  0  0  0  0  0  0  0  0  0
   -1.1961    7.1878    4.8566 C   0  0  0  0  0  0  0  0  0  0  0  0
   -1.7582    3.7703    4.8320 C   0  0  0  0  0  0  0  0  0  0  0  0
   -1.0539    2.5729    4.9635 C   0  0  0  0  0  0  0  0  0  0  0  0
    1.9582    1.0813    5.0318 C   0  0  0  0  0  0  0  0  0  0  0  0
    1.9152    0.7384    6.3933 C   0  0  0  0  0  0  0  0  0  0  0  0
    3.0571    0.8538    7.1864 C   0  0  0  0  0  0  0  0  0  0  0  0
    4.2481    1.3352    6.6365 C   0  0  0  0  0  0  0  0  0  0  0  0
    5.7068    1.5209    7.6633 S   0  0  0  0  0  0  0  0  0  0  0  0
    5.2439    3.1918    8.2206 C   0  0  0  0  0  0  0  0  0  0  0  0
    4.2946    1.6923    5.2845 C   0  0  0  0  0  0  0  0  0  0  0  0
    3.1542    1.5710    4.4857 C   0  0  0  0  0  0  0  0  0  0  0  0
    0.4127   -1.4536    4.4931 C   0  0  0  0  0  0  0  0  0  0  0  0
    1.9065   -2.1705    4.7810 S   0  0  0  0  0  0  0  0  0  0  0  0
   -1.7227    0.6507    2.4061 C   0  0  0  0  0  0  0  0  0  0  0  0
   -1.0101    0.8832    1.2208 C   0  0  0  0  0  0  0  0  0  0  0  0
    0.0849    0.0669    0.7660 N   0  0  0  0  0  0  0  0  0  0  0  0
   -0.1988   -1.0856   -0.0757 C   0  0  0  0  0  0  0  0  0  0  0  0
    0.7412   -1.5407   -1.0254 C   0  0  0  0  0  0  0  0  0  0  0  0
    0.4513   -2.6298   -1.8508 C   0  0  0  0  0  0  0  0  0  0  0  0
   -0.7831   -3.2742   -1.7615 C   0  0  0  0  0  0  0  0  0  0  0  0
   -1.1318   -4.6895   -2.8057 S   0  0  0  0  0  0  0  0  0  0  0  0
   -1.8205   -3.6781   -4.1533 C   0  0  0  0  0  0  0  0  0  0  0  0
   -1.7297   -2.8345   -0.8333 C   0  0  0  0  0  0  0  0  0  0  0  0
   -1.4466   -1.7446   -0.0063 C   0  0  0  0  0  0  0  0  0  0  0  0
    1.4388    0.5457    0.8998 C   0  0  0  0  0  0  0  0  0  0  0  0
    2.4338   -0.3073    1.4087 C   0  0  0  0  0  0  0  0  0  0  0  0
    3.7849    0.0209    1.2762 C   0  0  0  0  0  0  0  0  0  0  0  0
    4.1583    1.2104    0.6368 C   0  0  0  0  0  0  0  0  0  0  0  0
    5.8848    1.5519    0.2810 S   0  0  0  0  0  0  0  0  0  0  0  0
    6.1593    2.4693    1.8258 C   0  0  0  0  0  0  0  0  0  0  0  0
    3.1733    2.0989    0.1970 C   0  0  0  0  0  0  0  0  0  0  0  0
    1.8215    1.7683    0.3249 C   0  0  0  0  0  0  0  0  0  0  0  0
   -1.7289    1.7123    0.3792 C   0  0  0  0  0  0  0  0  0  0  0  0
   -1.4421    2.3077   -1.1499 S   0  0  0  0  0  0  0  0  0  0  0  0
   -2.9142    3.1573   -1.2313 C   0  0  0  0  0  0  0  0  0  0  0  0
   -3.6543    2.9223   -0.0633 C   0  0  0  0  0  0  0  0  0  0  0  0
   -5.0638    3.1852    0.0354 N   0  0  0  0  0  0  0  0  0  0  0  0
   -5.5752    3.7877    1.2325 C   0  0  0  0  0  0  0  0  0  0  0  0
   -6.4834    3.0878    2.0410 C   0  0  0  0  0  0  0  0  0  0  0  0
   -6.9286    3.6515    3.2410 C   0  0  0  0  0  0  0  0  0  0  0  0
   -6.4846    4.9222    3.6282 C   0  0  0  0  0  0  0  0  0  0  0  0
   -7.0296    5.6260    5.1852 S   0  0  0  0  0  0  0  0  0  0  0  0
   -5.5429    5.0908    6.0909 C   0  0  0  0  0  0  0  0  0  0  0  0
   -5.5997    5.6312    2.8086 C   0  0  0  0  0  0  0  0  0  0  0  0
   -5.1280    5.0559    1.6271 C   0  0  0  0  0  0  0  0  0  0  0  0
   -5.9476    2.7514   -1.0262 C   0  0  0  0  0  0  0  0  0  0  0  0
   -5.6226    1.6203   -1.8095 C   0  0  0  0  0  0  0  0  0  0  0  0
   -6.4301    1.2425   -2.8841 C   0  0  0  0  0  0  0  0  0  0  0  0
   -7.5914    1.9643   -3.1737 C   0  0  0  0  0  0  0  0  0  0  0  0
   -8.6340    1.4660   -4.5512 S   0  0  0  0  0  0  0  0  0  0  0  0
   -9.4866    0.1741   -3.5928 C   0  0  0  0  0  0  0  0  0  0  0  0
   -7.9342    3.0742   -2.3953 C   0  0  0  0  0  0  0  0  0  0  0  0
   -7.1167    3.4700   -1.3304 C   0  0  0  0  0  0  0  0  0  0  0  0
   -2.9399    2.1216    0.8288 C   0  0  0  0  0  0  0  0  0  0  0  0
   -3.2406    1.4353    2.3341 S   0  0  0  0  0  0  0  0  0  0  0  0
   -3.0230    4.3445   -2.0720 C   0  0  0  0  0  0  0  0  0  0  0  0
   -3.1237    4.2383   -3.4545 C   0  0  0  0  0  0  0  0  0  0  0  0
   -2.2977    5.1369   -4.1645 C   0  0  0  0  0  0  0  0  0  0  0  0
   -2.0636    5.1651   -5.5654 C   0  0  0  0  0  0  0  0  0  0  0  0
   -3.0514    4.6852   -6.5736 C   0  0  0  0  0  0  0  0  0  0  0  0
   -3.3306    5.3480   -7.7724 C   0  0  0  0  0  0  0  0  0  0  0  0
   -4.4132    4.8103   -8.4761 C   0  0  0  0  0  0  0  0  0  0  0  0
   -4.8589    5.3211   -9.6483 F   0  0  0  0  0  0  0  0  0  0  0  0
   -5.0017    3.7254   -7.8493 C   0  0  0  0  0  0  0  0  0  0  0  0
   -6.4250    2.8039   -8.4349 S   0  0  0  0  0  0  0  0  0  0  0  0
   -7.6537    3.7349   -7.4505 C   0  0  0  0  0  0  0  0  0  0  0  0
   -7.9216    5.1177   -8.0365 C   0  0  0  0  0  0  0  0  0  0  0  0
   -4.1728    3.4243   -6.4229 S   0  0  0  0  0  0  0  0  0  0  0  0
   -0.8713    5.7983   -5.9753 C   0  0  0  0  0  0  0  0  0  0  0  0
   -0.0357    6.4909   -5.0872 C   0  0  0  0  0  0  0  0  0  0  0  0
   -0.3926    6.6427   -3.7338 C   0  0  0  0  0  0  0  0  0  0  0  0
    0.4825    7.3725   -2.7778 C   0  0  0  0  0  0  0  0  0  0  0  0
    1.0178    6.7974   -1.2809 S   0  0  0  0  0  0  0  0  0  0  0  0
    1.8821    8.1719   -0.8597 C   0  0  0  0  0  0  0  0  0  0  0  0
    2.7859    8.3821    0.6726 S   0  0  0  0  0  0  0  0  0  0  0  0
    1.3639    9.1114    1.5537 C   0  0  0  0  0  0  0  0  0  0  0  0
    1.7178    9.3383    3.0169 C   0  0  0  0  0  0  0  0  0  0  0  0
    1.7853    9.0927   -1.8931 C   0  0  0  0  0  0  0  0  0  0  0  0
    1.0016    8.6508   -2.9660 C   0  0  0  0  0  0  0  0  0  0  0  0
    2.3944   10.3031   -1.8678 F   0  0  0  0  0  0  0  0  0  0  0  0
   -1.5308    5.9381   -3.3084 C   0  0  0  0  0  0  0  0  0  0  0  0
   -1.9804    5.6157   -1.7298 S   0  0  0  0  0  0  0  0  0  0  0  0
    1.2168    6.8111   -5.6416 C   0  0  0  0  0  0  0  0  0  0  0  0
    1.3687    6.3513   -6.9449 C   0  0  0  0  0  0  0  0  0  0  0  0
   -0.0454    5.5821   -7.4315 S   0  0  0  0  0  0  0  0  0  0  0  0
    2.6597    6.2233   -7.6368 C   0  0  0  0  0  0  0  0  0  0  0  0
    3.6476    5.4197   -7.1886 C   0  0  0  0  0  0  0  0  0  0  0  0
    3.5150    4.3989   -6.1350 C   0  0  0  0  0  0  0  0  0  0  0  0
    2.5671    4.2768   -5.3137 O   0  0  0  0  0  0  0  0  0  0  0  0
    4.6218    3.4749   -6.2448 C   0  0  0  0  0  0  0  0  0  0  0  0
    4.8329    2.3020   -5.5227 C   0  0  0  0  0  0  0  0  0  0  0  0
    5.9317    1.4975   -5.8617 C   0  0  0  0  0  0  0  0  0  0  0  0
    6.7827    1.8749   -6.9161 C   0  0  0  0  0  0  0  0  0  0  0  0
    7.8164    1.0703   -7.2681 F   0  0  0  0  0  0  0  0  0  0  0  0
    6.5471    3.0630   -7.6346 C   0  0  0  0  0  0  0  0  0  0  0  0
    5.4630    3.8751   -7.2716 C   0  0  0  0  0  0  0  0  0  0  0  0
    4.9694    5.1630   -7.8449 C   0  0  0  0  0  0  0  0  0  0  0  0
    5.6804    6.0429   -8.5994 C   0  0  0  0  0  0  0  0  0  0  0  0
    7.0114    5.7587   -9.0759 C   0  0  0  0  0  0  0  0  0  0  0  0
    8.0809    5.5442   -9.4672 N   0  0  0  0  0  0  0  0  0  0  0  0
    5.2139    7.3859   -8.8373 C   0  0  0  0  0  0  0  0  0  0  0  0
    4.8430    8.4657   -9.0240 N   0  0  0  0  0  0  0  0  0  0  0  0
    2.4749   -5.4712    5.5110 H   0  0  0  0  0  0  0  0  0  0  0  0
    1.0185   -5.0314   -0.5716 H   0  0  0  0  0  0  0  0  0  0  0  0
    3.6326   -8.9984    1.2581 H   0  0  0  0  0  0  0  0  0  0  0  0
    3.2130   -9.1511   -2.2116 H   0  0  0  0  0  0  0  0  0  0  0  0
    1.6351  -11.0720   -1.5098 H   0  0  0  0  0  0  0  0  0  0  0  0
   -0.0700  -10.2534    0.3524 H   0  0  0  0  0  0  0  0  0  0  0  0
   -1.3739   -8.1983   -0.5813 H   0  0  0  0  0  0  0  0  0  0  0  0
   -0.5304   -7.7307   -3.0525 H   0  0  0  0  0  0  0  0  0  0  0  0
   -0.4531  -10.3694   -2.9751 H   0  0  0  0  0  0  0  0  0  0  0  0
    1.0667   -9.7494   -3.7681 H   0  0  0  0  0  0  0  0  0  0  0  0
    2.0165   -7.3045   -3.0739 H   0  0  0  0  0  0  0  0  0  0  0  0
   -1.8520   -3.5101    6.8074 H   0  0  0  0  0  0  0  0  0  0  0  0
   -4.1856   -3.2456    7.5520 H   0  0  0  0  0  0  0  0  0  0  0  0
   -6.6288   -6.6474    6.7671 H   0  0  0  0  0  0  0  0  0  0  0  0
   -7.6424   -5.8507    8.0332 H   0  0  0  0  0  0  0  0  0  0  0  0
   -5.8419   -5.7960    8.1635 H   0  0  0  0  0  0  0  0  0  0  0  0
   -5.5286   -5.6124    4.2281 H   0  0  0  0  0  0  0  0  0  0  0  0
   -3.2068   -5.8772    3.4620 H   0  0  0  0  0  0  0  0  0  0  0  0
   -0.3412   -6.6077    6.5768 H   0  0  0  0  0  0  0  0  0  0  0  0
    0.2457   -8.9894    6.2772 H   0  0  0  0  0  0  0  0  0  0  0  0
    2.5745   -9.7984    3.1591 H   0  0  0  0  0  0  0  0  0  0  0  0
    2.7249  -11.4712    3.8157 H   0  0  0  0  0  0  0  0  0  0  0  0
    2.5637  -10.0709    4.9473 H   0  0  0  0  0  0  0  0  0  0  0  0
   -0.0667   -8.5256    2.0124 H   0  0  0  0  0  0  0  0  0  0  0  0
   -0.6817   -6.1586    2.3072 H   0  0  0  0  0  0  0  0  0  0  0  0
    1.3479    3.1195    2.6078 H   0  0  0  0  0  0  0  0  0  0  0  0
    0.0845    5.2220    2.3643 H   0  0  0  0  0  0  0  0  0  0  0  0
   -1.1105    6.6689    5.8358 H   0  0  0  0  0  0  0  0  0  0  0  0
   -0.1861    7.3015    4.4077 H   0  0  0  0  0  0  0  0  0  0  0  0
   -1.6341    8.1937    5.0197 H   0  0  0  0  0  0  0  0  0  0  0  0
   -2.6235    3.9500    5.4577 H   0  0  0  0  0  0  0  0  0  0  0  0
   -1.3834    1.8317    5.6826 H   0  0  0  0  0  0  0  0  0  0  0  0
    0.9906    0.3931    6.8395 H   0  0  0  0  0  0  0  0  0  0  0  0
    3.0073    0.5915    8.2336 H   0  0  0  0  0  0  0  0  0  0  0  0
    5.1403    3.8740    7.3503 H   0  0  0  0  0  0  0  0  0  0  0  0
    6.0341    3.5856    8.8913 H   0  0  0  0  0  0  0  0  0  0  0  0
    4.2849    3.1544    8.7797 H   0  0  0  0  0  0  0  0  0  0  0  0
    5.2074    2.0853    4.8616 H   0  0  0  0  0  0  0  0  0  0  0  0
    3.1985    1.8762    3.4506 H   0  0  0  0  0  0  0  0  0  0  0  0
    1.7006   -1.0524   -1.1474 H   0  0  0  0  0  0  0  0  0  0  0  0
    1.1913   -2.9687   -2.5635 H   0  0  0  0  0  0  0  0  0  0  0  0
   -2.7611   -3.1905   -3.8169 H   0  0  0  0  0  0  0  0  0  0  0  0
   -1.0865   -2.9067   -4.4726 H   0  0  0  0  0  0  0  0  0  0  0  0
   -2.0506   -4.3360   -5.0166 H   0  0  0  0  0  0  0  0  0  0  0  0
   -2.6865   -3.3316   -0.7541 H   0  0  0  0  0  0  0  0  0  0  0  0
   -2.2083   -1.4227    0.6895 H   0  0  0  0  0  0  0  0  0  0  0  0
    2.1589   -1.2511    1.8513 H   0  0  0  0  0  0  0  0  0  0  0  0
    4.5384   -0.6664    1.6255 H   0  0  0  0  0  0  0  0  0  0  0  0
    6.1265    1.7616    2.6797 H   0  0  0  0  0  0  0  0  0  0  0  0
    7.1635    2.9402    1.7933 H   0  0  0  0  0  0  0  0  0  0  0  0
    5.3932    3.2619    1.9557 H   0  0  0  0  0  0  0  0  0  0  0  0
    3.4544    3.0259   -0.2915 H   0  0  0  0  0  0  0  0  0  0  0  0
    1.0851    2.4533   -0.0701 H   0  0  0  0  0  0  0  0  0  0  0  0
   -6.8165    2.0936    1.7619 H   0  0  0  0  0  0  0  0  0  0  0  0
   -7.6054    3.0940    3.8780 H   0  0  0  0  0  0  0  0  0  0  0  0
   -5.6793    5.3165    7.1681 H   0  0  0  0  0  0  0  0  0  0  0  0
   -4.6558    5.6409    5.7128 H   0  0  0  0  0  0  0  0  0  0  0  0
   -5.3814    3.9990    5.9694 H   0  0  0  0  0  0  0  0  0  0  0  0
   -5.2573    6.6153    3.1040 H   0  0  0  0  0  0  0  0  0  0  0  0
   -4.4227    5.5978    1.0131 H   0  0  0  0  0  0  0  0  0  0  0  0
   -4.7374    1.0348   -1.5962 H   0  0  0  0  0  0  0  0  0  0  0  0
   -6.1544    0.3875   -3.4903 H   0  0  0  0  0  0  0  0  0  0  0  0
   -9.9838    0.6253   -2.7095 H   0  0  0  0  0  0  0  0  0  0  0  0
   -8.7480   -0.5966   -3.2730 H   0  0  0  0  0  0  0  0  0  0  0  0
  -10.2519   -0.3089   -4.2347 H   0  0  0  0  0  0  0  0  0  0  0  0
   -8.8328    3.6361   -2.6175 H   0  0  0  0  0  0  0  0  0  0  0  0
   -7.3884    4.3462   -0.7535 H   0  0  0  0  0  0  0  0  0  0  0  0
   -3.6060    3.3846   -3.8955 H   0  0  0  0  0  0  0  0  0  0  0  0
   -2.7945    6.2267   -8.1167 H   0  0  0  0  0  0  0  0  0  0  0  0
   -7.3193    3.8239   -6.3936 H   0  0  0  0  0  0  0  0  0  0  0  0
   -8.6043    3.1594   -7.4640 H   0  0  0  0  0  0  0  0  0  0  0  0
   -8.1486    5.0409   -9.1213 H   0  0  0  0  0  0  0  0  0  0  0  0
   -7.0396    5.7764   -7.8892 H   0  0  0  0  0  0  0  0  0  0  0  0
   -8.7883    5.5777   -7.5210 H   0  0  0  0  0  0  0  0  0  0  0  0
    0.4918    8.4265    1.4898 H   0  0  0  0  0  0  0  0  0  0  0  0
    1.0984   10.0788    1.0791 H   0  0  0  0  0  0  0  0  0  0  0  0
    1.9877    8.3721    3.4922 H   0  0  0  0  0  0  0  0  0  0  0  0
    0.8469    9.7728    3.5521 H   0  0  0  0  0  0  0  0  0  0  0  0
    2.5734   10.0440    3.1017 H   0  0  0  0  0  0  0  0  0  0  0  0
    0.8187    9.2463   -3.8513 H   0  0  0  0  0  0  0  0  0  0  0  0
    2.0345    7.2437   -5.0813 H   0  0  0  0  0  0  0  0  0  0  0  0
    2.7540    6.7311   -8.5884 H   0  0  0  0  0  0  0  0  0  0  0  0
    4.1636    2.0039   -4.7259 H   0  0  0  0  0  0  0  0  0  0  0  0
    6.1113    0.5764   -5.3248 H   0  0  0  0  0  0  0  0  0  0  0  0
    7.1807    3.2906   -8.4768 H   0  0  0  0  0  0  0  0  0  0  0  0
  1  2  2  3
  2  3  1  0
  3  4  2  0
  3  5  1  0
  5  6  2  0
  6  7  1  0
  7  8  2  0
  8  9  1  0
  9 10  2  0
 10 11  1  0
 11 12  2  3
 12 13  1  0
 13 14  3  0
 12 15  1  0
 15 16  3  0
  8 17  1  0
 17 18  1  0
 18 19  1  0
 19 20  2  0
 20 21  1  0
 21 22  1  0
 21 23  1  0
  1 24  1  0
 24 25  2  0
 25 26  1  0
 26 27  1  0
 27 28  2  0
 28 29  1  0
 29 30  2  0
 30 31  1  0
 31 32  1  0
 30 33  1  0
 33 34  2  0
 26 35  1  0
 35 36  2  0
 36 37  1  0
 37 38  2  0
 38 39  1  0
 39 40  1  0
 38 41  1  0
 41 42  2  0
 25 43  1  0
 43 44  1  0
 44 45  1  0
 45 46  2  0
 46 47  1  0
 47 48  1  0
 48 49  2  0
 49 50  1  0
 50 51  2  0
 51 52  1  0
 52 53  1  0
 51 54  1  0
 54 55  2  0
 47 56  1  0
 56 57  2  0
 57 58  1  0
 58 59  2  0
 59 60  1  0
 60 61  1  0
 59 62  1  0
 62 63  2  0
 46 64  1  0
 64 65  1  0
 45 66  1  0
 66 67  2  0
 67 68  1  0
 68 69  1  0
 69 70  2  0
 70 71  1  0
 71 72  2  0
 72 73  1  0
 73 74  1  0
 72 75  1  0
 75 76  2  0
 68 77  1  0
 77 78  2  0
 78 79  1  0
 79 80  2  0
 80 81  1  0
 81 82  1  0
 80 83  1  0
 83 84  2  0
 67 85  1  0
 85 86  1  0
 86 87  1  0
 87 88  2  0
 88 89  1  0
 89 90  1  0
 90 91  2  0
 91 92  1  0
 92 93  2  0
 93 94  1  0
 94 95  1  0
 93 96  1  0
 96 97  2  0
 89 98  1  0
 98 99  2  0
 99100  1  0
100101  2  0
101102  1  0
102103  1  0
101104  1  0
104105  2  0
 88106  1  0
106107  1  0
 87108  1  0
108109  2  0
109110  1  0
110111  2  0
111112  1  0
112113  2  0
113114  1  0
114115  1  0
114116  2  0
116117  1  0
117118  1  0
118119  1  0
116120  1  0
111121  1  0
121122  2  0
122123  1  0
123124  1  0
124125  1  0
125126  1  0
126127  1  0
127128  1  0
128129  1  0
126130  2  0
130131  1  0
130132  1  0
123133  2  0
133134  1  0
122135  1  0
135136  2  0
136137  1  0
136138  1  0
138139  2  3
139140  1  0
140141  2  0
140142  1  0
142143  2  0
143144  1  0
144145  2  0
145146  1  0
145147  1  0
147148  2  0
148149  1  0
149150  2  3
150151  1  0
151152  3  0
150153  1  0
153154  3  0
 11  2  1  0
 23 17  1  0
 65 24  1  0
107 66  1  0
134108  1  0
149139  1  0
 10  5  1  0
 22 18  1  0
 34 27  1  0
 42 35  1  0
 64 43  2  0
 76 69  1  0
 84 77  1  0
106 85  2  0
133110  1  0
148142  1  0
 23  7  1  0
 55 48  1  0
 63 56  1  0
 97 90  1  0
105 98  1  0
120112  1  0
137121  1  0
131124  2  0
  1155  1  0
  6156  1  0
  9157  1  0
 17158  1  0
 18159  1  0
 19160  1  0
 20161  1  0
 21162  1  0
 22163  1  0
 22164  1  0
 23165  1  0
 28166  1  0
 29167  1  0
 32168  1  0
 32169  1  0
 32170  1  0
 33171  1  0
 34172  1  0
 36173  1  0
 37174  1  0
 40175  1  0
 40176  1  0
 40177  1  0
 41178  1  0
 42179  1  0
 49180  1  0
 50181  1  0
 53182  1  0
 53183  1  0
 53184  1  0
 54185  1  0
 55186  1  0
 57187  1  0
 58188  1  0
 61189  1  0
 61190  1  0
 61191  1  0
 62192  1  0
 63193  1  0
 70194  1  0
 71195  1  0
 74196  1  0
 74197  1  0
 74198  1  0
 75199  1  0
 76200  1  0
 78201  1  0
 79202  1  0
 82203  1  0
 82204  1  0
 82205  1  0
 83206  1  0
 84207  1  0
 91208  1  0
 92209  1  0
 95210  1  0
 95211  1  0
 95212  1  0
 96213  1  0
 97214  1  0
 99215  1  0
100216  1  0
103217  1  0
103218  1  0
103219  1  0
104220  1  0
105221  1  0
109222  1  0
113223  1  0
118224  1  0
118225  1  0
119226  1  0
119227  1  0
119228  1  0
128229  1  0
128230  1  0
129231  1  0
129232  1  0
129233  1  0
131234  1  0
135235  1  0
138236  1  0
143237  1  0
144238  1  0
147239  1  0
M  END

