
     RDKit          3D

258280  0  0  0  0  0  0  0  0999 V2000
   -3.1219   -5.2555    5.6569 C   0  0  0  0  0  0  0  0  0  0  0  0
   -3.2469   -5.0507    6.9926 C   0  0  0  0  0  0  0  0  0  0  0  0
   -2.2848   -5.5269    8.0014 C   0  0  0  0  0  0  0  0  0  0  0  0
   -1.8909   -6.7418    8.1276 O   0  0  0  0  0  0  0  0  0  0  0  0
   -2.0171   -4.4569    8.9521 C   0  0  0  0  0  0  0  0  0  0  0  0
   -0.9407   -4.3477    9.8711 C   0  0  0  0  0  0  0  0  0  0  0  0
   -0.6991   -3.0357   10.2668 C   0  0  0  0  0  0  0  0  0  0  0  0
   -1.4776   -1.9171    9.8010 C   0  0  0  0  0  0  0  0  0  0  0  0
   -2.5857   -2.0263    8.9834 C   0  0  0  0  0  0  0  0  0  0  0  0
   -2.8765   -3.3724    8.6190 C   0  0  0  0  0  0  0  0  0  0  0  0
   -3.8243   -3.8136    7.5927 C   0  0  0  0  0  0  0  0  0  0  0  0
   -5.1314   -3.4697    7.6168 C   0  0  0  0  0  0  0  0  0  0  0  0
   -5.7868   -3.2427    8.8836 C   0  0  0  0  0  0  0  0  0  0  0  0
   -6.3355   -3.2370    9.9127 N   0  0  0  0  0  0  0  0  0  0  0  0
   -5.9737   -3.8745    6.5371 C   0  0  0  0  0  0  0  0  0  0  0  0
   -6.5763   -4.2057    5.6067 N   0  0  0  0  0  0  0  0  0  0  0  0
   -0.4266   -0.9555   10.2800 C   0  0  0  0  0  0  0  0  0  0  0  0
    0.5545   -0.3394    9.2197 C   0  0  0  0  0  0  0  0  0  0  0  0
    0.8457   -1.3171    8.0869 C   0  0  0  0  0  0  0  0  0  0  0  0
    1.5634   -2.3183    8.6148 C   0  0  0  0  0  0  0  0  0  0  0  0
    1.7143   -1.9925   10.0852 C   0  0  0  0  0  0  0  0  0  0  0  0
    1.8629   -0.4855    9.9623 C   0  0  0  0  0  0  0  0  0  0  0  0
    0.3279   -2.0880   10.8296 C   0  0  0  0  0  0  0  0  0  0  0  0
   -3.7890   -4.5330    4.5498 C   0  0  0  0  0  0  0  0  0  0  0  0
   -3.5036   -5.0010    3.2498 C   0  0  0  0  0  0  0  0  0  0  0  0
   -3.9613   -6.2852    2.8076 N   0  0  0  0  0  0  0  0  0  0  0  0
   -3.1614   -7.4313    3.1054 C   0  0  0  0  0  0  0  0  0  0  0  0
   -3.5596   -8.4013    4.0466 C   0  0  0  0  0  0  0  0  0  0  0  0
   -2.7593   -9.5386    4.2541 C   0  0  0  0  0  0  0  0  0  0  0  0
   -1.5160   -9.6537    3.6199 C   0  0  0  0  0  0  0  0  0  0  0  0
   -0.4254  -11.0380    4.0006 S   0  0  0  0  0  0  0  0  0  0  0  0
   -0.7238  -11.8927    2.4199 C   0  0  0  0  0  0  0  0  0  0  0  0
   -1.0774   -8.6246    2.7811 C   0  0  0  0  0  0  0  0  0  0  0  0
   -1.8908   -7.5110    2.5222 C   0  0  0  0  0  0  0  0  0  0  0  0
   -5.1718   -6.3904    2.0212 C   0  0  0  0  0  0  0  0  0  0  0  0
   -6.0530   -7.4847    2.1775 C   0  0  0  0  0  0  0  0  0  0  0  0
   -7.1345   -7.6788    1.3077 C   0  0  0  0  0  0  0  0  0  0  0  0
   -7.3745   -6.7716    0.2625 C   0  0  0  0  0  0  0  0  0  0  0  0
   -8.8098   -7.0075   -0.7781 S   0  0  0  0  0  0  0  0  0  0  0  0
   -7.9065   -7.8951   -2.0839 C   0  0  0  0  0  0  0  0  0  0  0  0
   -6.5502   -5.6429    0.1352 C   0  0  0  0  0  0  0  0  0  0  0  0
   -5.4733   -5.4389    1.0161 C   0  0  0  0  0  0  0  0  0  0  0  0
   -2.9643   -3.9952    2.4244 C   0  0  0  0  0  0  0  0  0  0  0  0
   -2.0374   -3.9435    1.0136 S   0  0  0  0  0  0  0  0  0  0  0  0
   -1.8397   -2.2548    1.0832 C   0  0  0  0  0  0  0  0  0  0  0  0
   -2.5536   -1.7311    2.1861 C   0  0  0  0  0  0  0  0  0  0  0  0
   -3.1097   -0.4023    2.1532 N   0  0  0  0  0  0  0  0  0  0  0  0
   -3.8869   -0.0764    0.9881 C   0  0  0  0  0  0  0  0  0  0  0  0
   -5.0302   -0.8427    0.6765 C   0  0  0  0  0  0  0  0  0  0  0  0
   -5.8960   -0.4345   -0.3549 C   0  0  0  0  0  0  0  0  0  0  0  0
   -5.6118    0.7160   -1.0977 C   0  0  0  0  0  0  0  0  0  0  0  0
   -6.6772    1.1569   -2.4764 S   0  0  0  0  0  0  0  0  0  0  0  0
   -7.8969    2.0534   -1.4608 C   0  0  0  0  0  0  0  0  0  0  0  0
   -4.4695    1.4831   -0.7970 C   0  0  0  0  0  0  0  0  0  0  0  0
   -3.5881    1.0706    0.2278 C   0  0  0  0  0  0  0  0  0  0  0  0
   -3.0809    0.5187    3.2732 C   0  0  0  0  0  0  0  0  0  0  0  0
   -4.1745    1.3860    3.4798 C   0  0  0  0  0  0  0  0  0  0  0  0
   -4.0766    2.4751    4.3399 C   0  0  0  0  0  0  0  0  0  0  0  0
   -2.8907    2.7214    5.0292 C   0  0  0  0  0  0  0  0  0  0  0  0
   -2.7629    4.1665    6.0877 S   0  0  0  0  0  0  0  0  0  0  0  0
   -2.6614    5.3432    4.6929 C   0  0  0  0  0  0  0  0  0  0  0  0
   -1.8233    1.8000    4.9287 C   0  0  0  0  0  0  0  0  0  0  0  0
   -1.9328    0.6766    4.0758 C   0  0  0  0  0  0  0  0  0  0  0  0
   -3.1023   -2.7469    2.9289 C   0  0  0  0  0  0  0  0  0  0  0  0
   -3.7186   -2.8304    4.4721 S   0  0  0  0  0  0  0  0  0  0  0  0
   -0.7553   -1.4690    0.5384 C   0  0  0  0  0  0  0  0  0  0  0  0
   -0.2046   -1.3396   -0.7621 C   0  0  0  0  0  0  0  0  0  0  0  0
   -0.3650   -2.2480   -1.8968 N   0  0  0  0  0  0  0  0  0  0  0  0
   -1.6227   -2.6345   -2.5275 C   0  0  0  0  0  0  0  0  0  0  0  0
   -2.8945   -2.3010   -1.9873 C   0  0  0  0  0  0  0  0  0  0  0  0
   -4.0760   -2.8307   -2.5726 C   0  0  0  0  0  0  0  0  0  0  0  0
   -4.0160   -3.5831   -3.7565 C   0  0  0  0  0  0  0  0  0  0  0  0
   -5.4988   -4.2322   -4.5344 S   0  0  0  0  0  0  0  0  0  0  0  0
   -4.9422   -5.9766   -4.4912 C   0  0  0  0  0  0  0  0  0  0  0  0
   -2.7868   -3.7935   -4.3703 C   0  0  0  0  0  0  0  0  0  0  0  0
   -1.6156   -3.3560   -3.7585 C   0  0  0  0  0  0  0  0  0  0  0  0
    0.8540   -2.5756   -2.5807 C   0  0  0  0  0  0  0  0  0  0  0  0
    1.7275   -3.5545   -2.0706 C   0  0  0  0  0  0  0  0  0  0  0  0
    2.9953   -3.7165   -2.6755 C   0  0  0  0  0  0  0  0  0  0  0  0
    3.3811   -2.9044   -3.7520 C   0  0  0  0  0  0  0  0  0  0  0  0
    5.0812   -2.8953   -4.3266 S   0  0  0  0  0  0  0  0  0  0  0  0
    5.4922   -1.3135   -3.4993 C   0  0  0  0  0  0  0  0  0  0  0  0
    2.4546   -2.0332   -4.3302 C   0  0  0  0  0  0  0  0  0  0  0  0
    1.1917   -1.8759   -3.7596 C   0  0  0  0  0  0  0  0  0  0  0  0
    0.8451   -0.3770   -0.6969 C   0  0  0  0  0  0  0  0  0  0  0  0
    1.9818    0.2361   -1.7618 S   0  0  0  0  0  0  0  0  0  0  0  0
    2.8083    1.2430   -0.6560 C   0  0  0  0  0  0  0  0  0  0  0  0
    2.2506    1.0066    0.6200 C   0  0  0  0  0  0  0  0  0  0  0  0
    2.9594    1.1508    1.8566 N   0  0  0  0  0  0  0  0  0  0  0  0
    2.6267    2.2802    2.6819 C   0  0  0  0  0  0  0  0  0  0  0  0
    1.9212    2.0969    3.8803 C   0  0  0  0  0  0  0  0  0  0  0  0
    1.7618    3.1680    4.7791 C   0  0  0  0  0  0  0  0  0  0  0  0
    2.2131    4.4546    4.4321 C   0  0  0  0  0  0  0  0  0  0  0  0
    2.2553    5.7754    5.6567 S   0  0  0  0  0  0  0  0  0  0  0  0
    0.5336    6.3309    5.4219 C   0  0  0  0  0  0  0  0  0  0  0  0
    2.7547    4.6672    3.1511 C   0  0  0  0  0  0  0  0  0  0  0  0
    2.9558    3.5855    2.2723 C   0  0  0  0  0  0  0  0  0  0  0  0
    3.8689    0.0827    2.2632 C   0  0  0  0  0  0  0  0  0  0  0  0
    4.0764   -0.2571    3.6190 C   0  0  0  0  0  0  0  0  0  0  0  0
    4.9315   -1.3095    3.9773 C   0  0  0  0  0  0  0  0  0  0  0  0
    5.6503   -2.0105    2.9924 C   0  0  0  0  0  0  0  0  0  0  0  0
    6.8576   -3.2426    3.4677 S   0  0  0  0  0  0  0  0  0  0  0  0
    5.8077   -4.6680    3.0343 C   0  0  0  0  0  0  0  0  0  0  0  0
    5.4725   -1.6735    1.6497 C   0  0  0  0  0  0  0  0  0  0  0  0
    4.5830   -0.6598    1.2794 C   0  0  0  0  0  0  0  0  0  0  0  0
    1.1528    0.1471    0.5267 C   0  0  0  0  0  0  0  0  0  0  0  0
    0.1468   -0.5182    1.6290 S   0  0  0  0  0  0  0  0  0  0  0  0
    3.7542    2.3070   -1.0895 C   0  0  0  0  0  0  0  0  0  0  0  0
    3.3723    3.0716   -2.2202 C   0  0  0  0  0  0  0  0  0  0  0  0
    2.1106    2.9923   -2.6606 N   0  0  0  0  0  0  0  0  0  0  0  0
    1.6828    3.5710   -3.7924 C   0  0  0  0  0  0  0  0  0  0  0  0
    0.2464    3.3955   -4.0147 C   0  0  0  0  0  0  0  0  0  0  0  0
   -0.6153    4.2501   -3.3097 C   0  0  0  0  0  0  0  0  0  0  0  0
   -1.9787    4.1821   -3.5426 C   0  0  0  0  0  0  0  0  0  0  0  0
   -2.5182    3.2584   -4.4682 C   0  0  0  0  0  0  0  0  0  0  0  0
   -3.8692    3.2724   -4.8401 O   0  0  0  0  0  0  0  0  0  0  0  0
   -4.8927    3.9747   -4.1644 C   0  0  0  0  0  0  0  0  0  0  0  0
   -6.0910    4.1600   -5.0610 C   0  0  0  0  0  0  0  0  0  0  0  0
   -1.6580    2.3143   -5.0739 C   0  0  0  0  0  0  0  0  0  0  0  0
   -0.2678    2.3721   -4.8334 C   0  0  0  0  0  0  0  0  0  0  0  0
   -2.2231    1.3577   -5.9217 O   0  0  0  0  0  0  0  0  0  0  0  0
   -1.5390    0.2233   -6.4515 C   0  0  0  0  0  0  0  0  0  0  0  0
   -2.5631   -0.7043   -7.0751 C   0  0  0  0  0  0  0  0  0  0  0  0
    2.5889    4.3597   -4.5501 C   0  0  0  0  0  0  0  0  0  0  0  0
    2.2336    4.9442   -5.8946 C   0  0  0  0  0  0  0  0  0  0  0  0
    3.2880    5.2277   -6.8045 C   0  0  0  0  0  0  0  0  0  0  0  0
    2.9712    5.6264   -8.1133 C   0  0  0  0  0  0  0  0  0  0  0  0
    1.6301    5.7381   -8.5252 C   0  0  0  0  0  0  0  0  0  0  0  0
    1.2634    6.0693   -9.8345 O   0  0  0  0  0  0  0  0  0  0  0  0
    2.0108    5.6783  -10.9838 C   0  0  0  0  0  0  0  0  0  0  0  0
    1.1276    5.8532  -12.2143 C   0  0  0  0  0  0  0  0  0  0  0  0
    0.6012    5.5000   -7.6244 C   0  0  0  0  0  0  0  0  0  0  0  0
   -0.7245    5.4959   -8.0761 O   0  0  0  0  0  0  0  0  0  0  0  0
   -1.5006    4.2976   -8.2292 C   0  0  0  0  0  0  0  0  0  0  0  0
   -0.6697    3.2801   -9.0429 C   0  0  0  0  0  0  0  0  0  0  0  0
    0.8966    5.1816   -6.3173 C   0  0  0  0  0  0  0  0  0  0  0  0
    3.8646    4.5226   -4.0577 N   0  0  0  0  0  0  0  0  0  0  0  0
    4.2729    3.9342   -2.8812 C   0  0  0  0  0  0  0  0  0  0  0  0
    5.5470    4.1234   -2.3283 C   0  0  0  0  0  0  0  0  0  0  0  0
    5.8482    3.5528   -1.0499 C   0  0  0  0  0  0  0  0  0  0  0  0
    4.9849    2.5867   -0.4919 C   0  0  0  0  0  0  0  0  0  0  0  0
    5.3902    1.9362    0.6129 F   0  0  0  0  0  0  0  0  0  0  0  0
    7.0200    3.8116   -0.3920 F   0  0  0  0  0  0  0  0  0  0  0  0
    6.6025    4.8756   -3.0274 C   0  0  0  0  0  0  0  0  0  0  0  0
    7.8483    4.3584   -3.1555 C   0  0  0  0  0  0  0  0  0  0  0  0
    8.1732    2.9403   -2.9290 C   0  0  0  0  0  0  0  0  0  0  0  0
    7.4048    1.9554   -3.1233 O   0  0  0  0  0  0  0  0  0  0  0  0
    9.4984    2.8491   -2.3582 C   0  0  0  0  0  0  0  0  0  0  0  0
   10.1202    1.7134   -1.8423 C   0  0  0  0  0  0  0  0  0  0  0  0
    9.4942    0.4654   -1.8753 O   0  0  0  0  0  0  0  0  0  0  0  0
   11.3914    1.8728   -1.2773 C   0  0  0  0  0  0  0  0  0  0  0  0
   11.9924    3.1563   -1.2133 C   0  0  0  0  0  0  0  0  0  0  0  0
   11.3280    4.2953   -1.7161 C   0  0  0  0  0  0  0  0  0  0  0  0
   10.0677    4.1178   -2.3076 C   0  0  0  0  0  0  0  0  0  0  0  0
    9.1176    5.1105   -2.9198 C   0  0  0  0  0  0  0  0  0  0  0  0
    9.3832    6.3766   -3.3136 C   0  0  0  0  0  0  0  0  0  0  0  0
   10.6431    7.0223   -3.0418 C   0  0  0  0  0  0  0  0  0  0  0  0
   11.6562    7.5379   -2.8290 N   0  0  0  0  0  0  0  0  0  0  0  0
    8.4698    7.1018   -4.1396 C   0  0  0  0  0  0  0  0  0  0  0  0
    7.7271    7.6705   -4.8369 N   0  0  0  0  0  0  0  0  0  0  0  0
   -2.2462   -5.8331    5.3599 H   0  0  0  0  0  0  0  0  0  0  0  0
   -0.2517   -5.1752   10.0938 H   0  0  0  0  0  0  0  0  0  0  0  0
   -3.0847   -1.1629    8.5673 H   0  0  0  0  0  0  0  0  0  0  0  0
   -0.7913   -0.2318   11.0586 H   0  0  0  0  0  0  0  0  0  0  0  0
    0.3124    0.6974    8.8903 H   0  0  0  0  0  0  0  0  0  0  0  0
    0.4013   -1.2968    7.0863 H   0  0  0  0  0  0  0  0  0  0  0  0
    1.8197   -3.2534    8.1193 H   0  0  0  0  0  0  0  0  0  0  0  0
    2.5554   -2.5067   10.5944 H   0  0  0  0  0  0  0  0  0  0  0  0
    1.9063    0.0444   10.9449 H   0  0  0  0  0  0  0  0  0  0  0  0
    2.7606   -0.1772    9.3580 H   0  0  0  0  0  0  0  0  0  0  0  0
    0.3784   -2.1075   11.9500 H   0  0  0  0  0  0  0  0  0  0  0  0
   -4.4702   -8.2881    4.6050 H   0  0  0  0  0  0  0  0  0  0  0  0
   -3.1031  -10.2894    4.9489 H   0  0  0  0  0  0  0  0  0  0  0  0
   -0.6683  -11.1929    1.5641 H   0  0  0  0  0  0  0  0  0  0  0  0
    0.0733  -12.6486    2.2819 H   0  0  0  0  0  0  0  0  0  0  0  0
   -1.7170  -12.3942    2.4023 H   0  0  0  0  0  0  0  0  0  0  0  0
   -0.0952   -8.6579    2.3171 H   0  0  0  0  0  0  0  0  0  0  0  0
   -1.5363   -6.7340    1.8594 H   0  0  0  0  0  0  0  0  0  0  0  0
   -5.9189   -8.2191    2.9595 H   0  0  0  0  0  0  0  0  0  0  0  0
   -7.7978   -8.5222    1.4826 H   0  0  0  0  0  0  0  0  0  0  0  0
   -7.2641   -7.1913   -2.6304 H   0  0  0  0  0  0  0  0  0  0  0  0
   -8.6276   -8.3130   -2.8137 H   0  0  0  0  0  0  0  0  0  0  0  0
   -7.2900   -8.7332   -1.6826 H   0  0  0  0  0  0  0  0  0  0  0  0
   -6.7303   -4.8994   -0.6361 H   0  0  0  0  0  0  0  0  0  0  0  0
   -4.8467   -4.5632    0.8437 H   0  0  0  0  0  0  0  0  0  0  0  0
   -5.3171   -1.7019    1.2835 H   0  0  0  0  0  0  0  0  0  0  0  0
   -6.7443   -1.0649   -0.5787 H   0  0  0  0  0  0  0  0  0  0  0  0
   -7.6171    3.1270   -1.3563 H   0  0  0  0  0  0  0  0  0  0  0  0
   -7.9934    1.6193   -0.4415 H   0  0  0  0  0  0  0  0  0  0  0  0
   -8.8813    1.9417   -1.9438 H   0  0  0  0  0  0  0  0  0  0  0  0
   -4.2166    2.3679   -1.3816 H   0  0  0  0  0  0  0  0  0  0  0  0
   -2.7517    1.6914    0.5077 H   0  0  0  0  0  0  0  0  0  0  0  0
   -5.0904    1.2993    2.8914 H   0  0  0  0  0  0  0  0  0  0  0  0
   -4.9386    3.1504    4.4038 H   0  0  0  0  0  0  0  0  0  0  0  0
   -3.6635    5.5202    4.2514 H   0  0  0  0  0  0  0  0  0  0  0  0
   -2.3080    6.3151    5.0758 H   0  0  0  0  0  0  0  0  0  0  0  0
   -1.9582    4.9936    3.9021 H   0  0  0  0  0  0  0  0  0  0  0  0
   -0.9199    1.9438    5.5123 H   0  0  0  0  0  0  0  0  0  0  0  0
   -1.0927   -0.0058    3.9742 H   0  0  0  0  0  0  0  0  0  0  0  0
   -2.9945   -1.6707   -1.1141 H   0  0  0  0  0  0  0  0  0  0  0  0
   -5.0374   -2.6305   -2.1198 H   0  0  0  0  0  0  0  0  0  0  0  0
   -4.9299   -6.3833   -5.5284 H   0  0  0  0  0  0  0  0  0  0  0  0
   -5.6612   -6.5577   -3.9046 H   0  0  0  0  0  0  0  0  0  0  0  0
   -3.9382   -6.1479   -4.0386 H   0  0  0  0  0  0  0  0  0  0  0  0
   -2.6725   -4.3611   -5.3011 H   0  0  0  0  0  0  0  0  0  0  0  0
   -0.7157   -3.6468   -4.2815 H   0  0  0  0  0  0  0  0  0  0  0  0
    1.4392   -4.1306   -1.2084 H   0  0  0  0  0  0  0  0  0  0  0  0
    3.6963   -4.3949   -2.2160 H   0  0  0  0  0  0  0  0  0  0  0  0
    6.5340   -1.0116   -3.7719 H   0  0  0  0  0  0  0  0  0  0  0  0
    5.3983   -1.4230   -2.3920 H   0  0  0  0  0  0  0  0  0  0  0  0
    4.8116   -0.5014   -3.8521 H   0  0  0  0  0  0  0  0  0  0  0  0
    2.7455   -1.3509   -5.1315 H   0  0  0  0  0  0  0  0  0  0  0  0
    0.4971   -1.1585   -4.1835 H   0  0  0  0  0  0  0  0  0  0  0  0
    1.5450    1.1075    4.1669 H   0  0  0  0  0  0  0  0  0  0  0  0
    1.3572    2.9673    5.7706 H   0  0  0  0  0  0  0  0  0  0  0  0
    0.1720    6.1256    4.3984 H   0  0  0  0  0  0  0  0  0  0  0  0
    0.4758    7.4242    5.6220 H   0  0  0  0  0  0  0  0  0  0  0  0
   -0.1408    5.8343    6.1586 H   0  0  0  0  0  0  0  0  0  0  0  0
    3.1140    5.6469    2.8698 H   0  0  0  0  0  0  0  0  0  0  0  0
    3.4232    3.7642    1.3075 H   0  0  0  0  0  0  0  0  0  0  0  0
    3.5773    0.2541    4.4298 H   0  0  0  0  0  0  0  0  0  0  0  0
    5.0656   -1.5305    5.0235 H   0  0  0  0  0  0  0  0  0  0  0  0
    5.4885   -4.6150    1.9702 H   0  0  0  0  0  0  0  0  0  0  0  0
    4.9018   -4.7233    3.6846 H   0  0  0  0  0  0  0  0  0  0  0  0
    6.4067   -5.5864    3.1558 H   0  0  0  0  0  0  0  0  0  0  0  0
    6.0419   -2.1709    0.8682 H   0  0  0  0  0  0  0  0  0  0  0  0
    4.5063   -0.4564    0.2169 H   0  0  0  0  0  0  0  0  0  0  0  0
   -0.2331    5.0446   -2.6553 H   0  0  0  0  0  0  0  0  0  0  0  0
   -2.5767    4.9053   -3.0167 H   0  0  0  0  0  0  0  0  0  0  0  0
   -5.1865    3.4483   -3.2334 H   0  0  0  0  0  0  0  0  0  0  0  0
   -4.5573    5.0013   -3.9239 H   0  0  0  0  0  0  0  0  0  0  0  0
   -5.8377    4.8503   -5.9003 H   0  0  0  0  0  0  0  0  0  0  0  0
   -6.4413    3.1772   -5.4634 H   0  0  0  0  0  0  0  0  0  0  0  0
   -6.9024    4.6160   -4.4540 H   0  0  0  0  0  0  0  0  0  0  0  0
    0.4300    1.7080   -5.3281 H   0  0  0  0  0  0  0  0  0  0  0  0
   -0.8047    0.5665   -7.2143 H   0  0  0  0  0  0  0  0  0  0  0  0
   -1.0220   -0.3069   -5.6245 H   0  0  0  0  0  0  0  0  0  0  0  0
   -2.0666   -1.6354   -7.4032 H   0  0  0  0  0  0  0  0  0  0  0  0
   -3.3534   -0.9385   -6.3275 H   0  0  0  0  0  0  0  0  0  0  0  0
   -3.0098   -0.1987   -7.9524 H   0  0  0  0  0  0  0  0  0  0  0  0
    4.3277    5.1220   -6.5156 H   0  0  0  0  0  0  0  0  0  0  0  0
    3.7860    5.7988   -8.8246 H   0  0  0  0  0  0  0  0  0  0  0  0
    2.2745    4.6033  -10.8982 H   0  0  0  0  0  0  0  0  0  0  0  0
    2.9213    6.2927  -11.0711 H   0  0  0  0  0  0  0  0  0  0  0  0
    0.2041    5.2434  -12.1271 H   0  0  0  0  0  0  0  0  0  0  0  0
    0.8353    6.9142  -12.3196 H   0  0  0  0  0  0  0  0  0  0  0  0
    1.6894    5.5442  -13.1254 H   0  0  0  0  0  0  0  0  0  0  0  0
   -2.4421    4.5616   -8.7570 H   0  0  0  0  0  0  0  0  0  0  0  0
   -1.7775    3.8635   -7.2461 H   0  0  0  0  0  0  0  0  0  0  0  0
   -1.3381    2.4849   -9.4442 H   0  0  0  0  0  0  0  0  0  0  0  0
   -0.1798    3.7871   -9.9086 H   0  0  0  0  0  0  0  0  0  0  0  0
    0.1244    2.8118   -8.4111 H   0  0  0  0  0  0  0  0  0  0  0  0
    0.0758    5.1371   -5.6305 H   0  0  0  0  0  0  0  0  0  0  0  0
    6.4034    5.9246   -3.1027 H   0  0  0  0  0  0  0  0  0  0  0  0
    9.9433   -0.3499   -1.4767 H   0  0  0  0  0  0  0  0  0  0  0  0
   11.9225    1.0270   -0.8607 H   0  0  0  0  0  0  0  0  0  0  0  0
   12.9721    3.2830   -0.7558 H   0  0  0  0  0  0  0  0  0  0  0  0
   11.7929    5.2646   -1.6082 H   0  0  0  0  0  0  0  0  0  0  0  0
  1  2  2  3
  2  3  1  0
  3  4  2  0
  3  5  1  0
  5  6  2  0
  6  7  1  0
  7  8  2  0
  8  9  1  0
  9 10  2  0
 10 11  1  0
 11 12  2  3
 12 13  1  0
 13 14  3  0
 12 15  1  0
 15 16  3  0
  8 17  1  0
 17 18  1  0
 18 19  1  0
 19 20  2  0
 20 21  1  0
 21 22  1  0
 21 23  1  0
  1 24  1  0
 24 25  2  0
 25 26  1  0
 26 27  1  0
 27 28  2  0
 28 29  1  0
 29 30  2  0
 30 31  1  0
 31 32  1  0
 30 33  1  0
 33 34  2  0
 26 35  1  0
 35 36  2  0
 36 37  1  0
 37 38  2  0
 38 39  1  0
 39 40  1  0
 38 41  1  0
 41 42  2  0
 25 43  1  0
 43 44  1  0
 44 45  1  0
 45 46  2  0
 46 47  1  0
 47 48  1  0
 48 49  2  0
 49 50  1  0
 50 51  2  0
 51 52  1  0
 52 53  1  0
 51 54  1  0
 54 55  2  0
 47 56  1  0
 56 57  2  0
 57 58  1  0
 58 59  2  0
 59 60  1  0
 60 61  1  0
 59 62  1  0
 62 63  2  0
 46 64  1  0
 64 65  1  0
 45 66  1  0
 66 67  2  0
 67 68  1  0
 68 69  1  0
 69 70  2  0
 70 71  1  0
 71 72  2  0
 72 73  1  0
 73 74  1  0
 72 75  1  0
 75 76  2  0
 68 77  1  0
 77 78  2  0
 78 79  1  0
 79 80  2  0
 80 81  1  0
 81 82  1  0
 80 83  1  0
 83 84  2  0
 67 85  1  0
 85 86  1  0
 86 87  1  0
 87 88  2  0
 88 89  1  0
 89 90  1  0
 90 91  2  0
 91 92  1  0
 92 93  2  0
 93 94  1  0
 94 95  1  0
 93 96  1  0
 96 97  2  0
 89 98  1  0
 98 99  2  0
 99100  1  0
100101  2  0
101102  1  0
102103  1  0
101104  1  0
104105  2  0
 88106  1  0
106107  1  0
 87108  1  0
108109  1  0
109110  2  0
110111  1  0
111112  1  0
112113  2  0
113114  1  0
114115  2  0
115116  1  0
116117  1  0
117118  1  0
115119  1  0
119120  2  0
119121  1  0
121122  1  0
122123  1  0
111124  2  0
124125  1  0
125126  2  0
126127  1  0
127128  2  0
128129  1  0
129130  1  0
130131  1  0
128132  1  0
132133  1  0
133134  1  0
134135  1  0
132136  2  0
124137  1  0
137138  2  0
138139  1  0
139140  2  0
140141  1  0
141142  1  0
140143  1  0
139144  1  0
144145  2  3
145146  1  0
146147  2  0
146148  1  0
148149  2  0
149150  1  0
149151  1  0
151152  2  0
152153  1  0
153154  2  0
154155  1  0
155156  2  3
156157  1  0
157158  3  0
156159  1  0
159160  3  0
 11  2  1  0
 23 17  1  0
 65 24  1  0
107 66  1  0
141108  2  0
155145  1  0
 10  5  1  0
 22 18  1  0
 34 27  1  0
 42 35  1  0
 64 43  2  0
 76 69  1  0
 84 77  1  0
106 85  2  0
138109  1  0
154148  1  0
 23  7  1  0
 55 48  1  0
 63 56  1  0
 97 90  1  0
105 98  1  0
120112  1  0
136125  1  0
  1161  1  0
  6162  1  0
  9163  1  0
 17164  1  0
 18165  1  0
 19166  1  0
 20167  1  0
 21168  1  0
 22169  1  0
 22170  1  0
 23171  1  0
 28172  1  0
 29173  1  0
 32174  1  0
 32175  1  0
 32176  1  0
 33177  1  0
 34178  1  0
 36179  1  0
 37180  1  0
 40181  1  0
 40182  1  0
 40183  1  0
 41184  1  0
 42185  1  0
 49186  1  0
 50187  1  0
 53188  1  0
 53189  1  0
 53190  1  0
 54191  1  0
 55192  1  0
 57193  1  0
 58194  1  0
 61195  1  0
 61196  1  0
 61197  1  0
 62198  1  0
 63199  1  0
 70200  1  0
 71201  1  0
 74202  1  0
 74203  1  0
 74204  1  0
 75205  1  0
 76206  1  0
 78207  1  0
 79208  1  0
 82209  1  0
 82210  1  0
 82211  1  0
 83212  1  0
 84213  1  0
 91214  1  0
 92215  1  0
 95216  1  0
 95217  1  0
 95218  1  0
 96219  1  0
 97220  1  0
 99221  1  0
100222  1  0
103223  1  0
103224  1  0
103225  1  0
104226  1  0
105227  1  0
113228  1  0
114229  1  0
117230  1  0
117231  1  0
118232  1  0
118233  1  0
118234  1  0
120235  1  0
122236  1  0
122237  1  0
123238  1  0
123239  1  0
123240  1  0
126241  1  0
127242  1  0
130243  1  0
130244  1  0
131245  1  0
131246  1  0
131247  1  0
134248  1  0
134249  1  0
135250  1  0
135251  1  0
135252  1  0
136253  1  0
144254  1  0
150255  1  0
151256  1  0
152257  1  0
153258  1  0
M  END

