
     RDKit          3D

160179  0  0  0  0  0  0  0  0999 V2000
   -0.7097   -8.9521    3.7128 C   0  0  0  0  0  0  0  0  0  0  0  0
   -1.9233   -9.4611    3.4409 C   0  0  0  0  0  0  0  0  0  0  0  0
   -3.0418   -8.6887    2.8817 C   0  0  0  0  0  0  0  0  0  0  0  0
   -3.3224   -7.4956    3.1452 O   0  0  0  0  0  0  0  0  0  0  0  0
   -3.8528   -9.5775    2.0759 C   0  0  0  0  0  0  0  0  0  0  0  0
   -4.8530   -9.1948    1.1515 C   0  0  0  0  0  0  0  0  0  0  0  0
   -5.2875  -10.2296    0.3492 C   0  0  0  0  0  0  0  0  0  0  0  0
   -4.7859  -11.5687    0.4470 C   0  0  0  0  0  0  0  0  0  0  0  0
   -3.8112  -11.9514    1.3616 C   0  0  0  0  0  0  0  0  0  0  0  0
   -3.3516  -10.8985    2.2021 C   0  0  0  0  0  0  0  0  0  0  0  0
   -2.2212  -10.8954    3.1714 C   0  0  0  0  0  0  0  0  0  0  0  0
   -1.6994  -11.9612    3.8303 C   0  0  0  0  0  0  0  0  0  0  0  0
   -0.7446  -11.8002    4.8974 C   0  0  0  0  0  0  0  0  0  0  0  0
    0.0232  -11.6759    5.7538 N   0  0  0  0  0  0  0  0  0  0  0  0
   -2.1622  -13.3074    3.6019 C   0  0  0  0  0  0  0  0  0  0  0  0
   -2.5323  -14.3899    3.4274 N   0  0  0  0  0  0  0  0  0  0  0  0
   -5.6203  -11.9859   -0.7266 C   0  0  0  0  0  0  0  0  0  0  0  0
   -4.8861  -12.2072   -2.0834 C   0  0  0  0  0  0  0  0  0  0  0  0
   -3.6758  -11.3026   -2.1720 C   0  0  0  0  0  0  0  0  0  0  0  0
   -4.1414  -10.0571   -2.2737 C   0  0  0  0  0  0  0  0  0  0  0  0
   -5.6489  -10.1549   -2.2439 C   0  0  0  0  0  0  0  0  0  0  0  0
   -5.8258  -11.4517   -3.0101 C   0  0  0  0  0  0  0  0  0  0  0  0
   -6.1282  -10.6129   -0.8323 C   0  0  0  0  0  0  0  0  0  0  0  0
   -0.3841   -7.5408    3.4267 C   0  0  0  0  0  0  0  0  0  0  0  0
   -0.6892   -6.5115    4.3303 C   0  0  0  0  0  0  0  0  0  0  0  0
   -0.5465   -5.1472    3.9694 C   0  0  0  0  0  0  0  0  0  0  0  0
   -0.9430   -4.2206    4.9834 N   0  0  0  0  0  0  0  0  0  0  0  0
   -1.3973   -5.2243    6.1384 S   0  0  0  0  0  4  0  0  0  0  0  0
   -1.2140   -6.7301    5.6466 N   0  0  0  0  0  0  0  0  0  0  0  0
   -0.1169   -4.7835    2.6832 C   0  0  0  0  0  0  0  0  0  0  0  0
    0.2518   -5.8088    1.7928 C   0  0  0  0  0  0  0  0  0  0  0  0
    0.7154   -5.5700    0.5370 N   0  0  0  0  0  0  0  0  0  0  0  0
    0.9256   -7.1079   -0.0178 S   0  0  0  0  0  0  0  0  0  0  0  0
    0.4664   -8.1022    1.2250 N   0  0  0  0  0  0  0  0  0  0  0  0
    0.1240   -7.1818    2.1660 C   0  0  0  0  0  0  0  0  0  0  0  0
   -0.2100   -3.3897    2.2031 C   0  0  0  0  0  0  0  0  0  0  0  0
    0.6446   -2.3910    2.6838 C   0  0  0  0  0  0  0  0  0  0  0  0
    1.5347   -2.6616    3.6698 F   0  0  0  0  0  0  0  0  0  0  0  0
    0.6271   -1.1134    2.1043 C   0  0  0  0  0  0  0  0  0  0  0  0
   -0.2313   -0.8214    1.0270 C   0  0  0  0  0  0  0  0  0  0  0  0
   -1.1222   -1.8186    0.5943 C   0  0  0  0  0  0  0  0  0  0  0  0
   -1.1079   -3.0896    1.1716 C   0  0  0  0  0  0  0  0  0  0  0  0
   -0.1496    0.4579    0.2746 C   0  0  0  0  0  0  0  0  0  0  0  0
    0.4618    1.6669    0.6679 C   0  0  0  0  0  0  0  0  0  0  0  0
    0.9128    1.9941    1.9873 N   0  0  0  0  0  0  0  0  0  0  0  0
   -0.0655    2.3830    2.9757 C   0  0  0  0  0  0  0  0  0  0  0  0
    0.0960    1.9899    4.3114 C   0  0  0  0  0  0  0  0  0  0  0  0
   -0.7739    2.4711    5.2991 C   0  0  0  0  0  0  0  0  0  0  0  0
   -1.8027    3.3538    4.9556 C   0  0  0  0  0  0  0  0  0  0  0  0
   -2.8602    4.0376    6.2302 S   0  0  0  0  0  0  0  0  0  0  0  0
   -4.0918    2.7090    6.0816 C   0  0  0  0  0  0  0  0  0  0  0  0
   -1.9843    3.7308    3.6200 C   0  0  0  0  0  0  0  0  0  0  0  0
   -1.1253    3.2443    2.6375 C   0  0  0  0  0  0  0  0  0  0  0  0
    2.3083    2.3227    2.1881 C   0  0  0  0  0  0  0  0  0  0  0  0
    2.6823    3.4641    2.9183 C   0  0  0  0  0  0  0  0  0  0  0  0
    4.0324    3.7570    3.1458 C   0  0  0  0  0  0  0  0  0  0  0  0
    5.0217    2.9110    2.6465 C   0  0  0  0  0  0  0  0  0  0  0  0
    6.7494    3.2355    3.0132 S   0  0  0  0  0  0  0  0  0  0  0  0
    6.7148    2.2810    4.5688 C   0  0  0  0  0  0  0  0  0  0  0  0
    4.6651    1.7950    1.8820 C   0  0  0  0  0  0  0  0  0  0  0  0
    3.3145    1.5063    1.6405 C   0  0  0  0  0  0  0  0  0  0  0  0
    0.4101    2.6144   -0.3450 C   0  0  0  0  0  0  0  0  0  0  0  0
    0.9188    4.2003   -0.4440 S   0  0  0  0  0  0  0  0  0  0  0  0
    0.3609    4.4041   -2.0458 C   0  0  0  0  0  0  0  0  0  0  0  0
   -0.2852    3.2320   -2.4755 C   0  0  0  0  0  0  0  0  0  0  0  0
   -1.1035    3.1420   -3.6494 N   0  0  0  0  0  0  0  0  0  0  0  0
   -0.5955    2.6053   -4.8905 C   0  0  0  0  0  0  0  0  0  0  0  0
   -1.4582    1.9785   -5.8073 C   0  0  0  0  0  0  0  0  0  0  0  0
   -0.9699    1.4517   -7.0030 C   0  0  0  0  0  0  0  0  0  0  0  0
    0.3942    1.5521   -7.3093 C   0  0  0  0  0  0  0  0  0  0  0  0
    1.0217    0.8844   -8.8547 S   0  0  0  0  0  0  0  0  0  0  0  0
    1.2559   -0.7965   -8.1876 C   0  0  0  0  0  0  0  0  0  0  0  0
    1.2616    2.1810   -6.4135 C   0  0  0  0  0  0  0  0  0  0  0  0
    0.7730    2.7048   -5.2147 C   0  0  0  0  0  0  0  0  0  0  0  0
   -2.4960    3.4701   -3.5083 C   0  0  0  0  0  0  0  0  0  0  0  0
   -2.9868    4.6913   -3.9957 C   0  0  0  0  0  0  0  0  0  0  0  0
   -4.3496    4.9956   -3.8836 C   0  0  0  0  0  0  0  0  0  0  0  0
   -5.2286    4.0728   -3.2997 C   0  0  0  0  0  0  0  0  0  0  0  0
   -6.9848    4.4213   -3.2030 S   0  0  0  0  0  0  0  0  0  0  0  0
   -6.9038    5.1130   -1.5200 C   0  0  0  0  0  0  0  0  0  0  0  0
   -4.7410    2.8543   -2.8205 C   0  0  0  0  0  0  0  0  0  0  0  0
   -3.3827    2.5505   -2.9319 C   0  0  0  0  0  0  0  0  0  0  0  0
   -0.2104    2.2457   -1.4909 C   0  0  0  0  0  0  0  0  0  0  0  0
   -0.7288    0.6589   -1.3315 S   0  0  0  0  0  0  0  0  0  0  0  0
    0.7865    5.5389   -2.8757 C   0  0  0  0  0  0  0  0  0  0  0  0
    2.1003    5.8143   -2.9924 C   0  0  0  0  0  0  0  0  0  0  0  0
    3.1647    4.9145   -2.5243 C   0  0  0  0  0  0  0  0  0  0  0  0
    3.1615    3.6588   -2.6079 O   0  0  0  0  0  0  0  0  0  0  0  0
    4.1865    5.6995   -1.8747 C   0  0  0  0  0  0  0  0  0  0  0  0
    5.1610    5.2172   -0.9718 C   0  0  0  0  0  0  0  0  0  0  0  0
    5.8097    6.2109   -0.2751 C   0  0  0  0  0  0  0  0  0  0  0  0
    5.5368    7.6056   -0.4559 C   0  0  0  0  0  0  0  0  0  0  0  0
    4.5783    8.0847   -1.3358 C   0  0  0  0  0  0  0  0  0  0  0  0
    3.8937    7.0718   -2.0679 C   0  0  0  0  0  0  0  0  0  0  0  0
    2.6694    7.1879   -2.9097 C   0  0  0  0  0  0  0  0  0  0  0  0
    2.2673    8.2613   -3.6226 C   0  0  0  0  0  0  0  0  0  0  0  0
    1.1663    8.1803   -4.5447 C   0  0  0  0  0  0  0  0  0  0  0  0
    0.2821    8.1251   -5.2927 N   0  0  0  0  0  0  0  0  0  0  0  0
    2.9877    9.5042   -3.6005 C   0  0  0  0  0  0  0  0  0  0  0  0
    3.5644   10.5088   -3.5909 N   0  0  0  0  0  0  0  0  0  0  0  0
    6.5371    7.9541    0.6083 C   0  0  0  0  0  0  0  0  0  0  0  0
    7.9231    8.5122    0.1513 C   0  0  0  0  0  0  0  0  0  0  0  0
    8.3089    7.9332   -1.1900 C   0  0  0  0  0  0  0  0  0  0  0  0
    8.5403    6.6343   -0.9975 C   0  0  0  0  0  0  0  0  0  0  0  0
    8.3086    6.3733    0.4731 C   0  0  0  0  0  0  0  0  0  0  0  0
    8.8352    7.6831    1.0348 C   0  0  0  0  0  0  0  0  0  0  0  0
    6.7945    6.5241    0.8090 C   0  0  0  0  0  0  0  0  0  0  0  0
    0.1279   -9.6192    3.8563 H   0  0  0  0  0  0  0  0  0  0  0  0
   -5.1870   -8.1780    1.0190 H   0  0  0  0  0  0  0  0  0  0  0  0
   -3.3952  -12.9480    1.3414 H   0  0  0  0  0  0  0  0  0  0  0  0
   -6.4036  -12.7324   -0.4782 H   0  0  0  0  0  0  0  0  0  0  0  0
   -4.7000  -13.2677   -2.3576 H   0  0  0  0  0  0  0  0  0  0  0  0
   -2.6326  -11.5945   -2.2217 H   0  0  0  0  0  0  0  0  0  0  0  0
   -3.5471   -9.1627   -2.4327 H   0  0  0  0  0  0  0  0  0  0  0  0
   -6.1843   -9.2772   -2.6625 H   0  0  0  0  0  0  0  0  0  0  0  0
   -6.8725  -11.8376   -3.0078 H   0  0  0  0  0  0  0  0  0  0  0  0
   -5.4516  -11.3885   -4.0633 H   0  0  0  0  0  0  0  0  0  0  0  0
   -7.2239  -10.5212   -0.6597 H   0  0  0  0  0  0  0  0  0  0  0  0
    1.3392   -0.3906    2.4715 H   0  0  0  0  0  0  0  0  0  0  0  0
   -1.8141   -1.6321   -0.2158 H   0  0  0  0  0  0  0  0  0  0  0  0
   -1.7778   -3.8521    0.7868 H   0  0  0  0  0  0  0  0  0  0  0  0
    0.9036    1.3279    4.5922 H   0  0  0  0  0  0  0  0  0  0  0  0
   -0.6311    2.1703    6.3305 H   0  0  0  0  0  0  0  0  0  0  0  0
   -4.9205    2.9024    6.7910 H   0  0  0  0  0  0  0  0  0  0  0  0
   -4.5000    2.6814    5.0484 H   0  0  0  0  0  0  0  0  0  0  0  0
   -3.6254    1.7320    6.3242 H   0  0  0  0  0  0  0  0  0  0  0  0
   -2.7775    4.4145    3.3496 H   0  0  0  0  0  0  0  0  0  0  0  0
   -1.2698    3.5672    1.6163 H   0  0  0  0  0  0  0  0  0  0  0  0
    1.9334    4.1507    3.3048 H   0  0  0  0  0  0  0  0  0  0  0  0
    4.3015    4.6272    3.7274 H   0  0  0  0  0  0  0  0  0  0  0  0
    6.0109    2.7598    5.2818 H   0  0  0  0  0  0  0  0  0  0  0  0
    6.4077    1.2314    4.3744 H   0  0  0  0  0  0  0  0  0  0  0  0
    7.7295    2.2744    5.0225 H   0  0  0  0  0  0  0  0  0  0  0  0
    5.4352    1.1413    1.4910 H   0  0  0  0  0  0  0  0  0  0  0  0
    3.0581    0.6336    1.0609 H   0  0  0  0  0  0  0  0  0  0  0  0
   -2.5139    1.8753   -5.5945 H   0  0  0  0  0  0  0  0  0  0  0  0
   -1.6485    0.9591   -7.6918 H   0  0  0  0  0  0  0  0  0  0  0  0
    1.8446   -0.7625   -7.2481 H   0  0  0  0  0  0  0  0  0  0  0  0
    0.2615   -1.2583   -7.9936 H   0  0  0  0  0  0  0  0  0  0  0  0
    1.7941   -1.4191   -8.9312 H   0  0  0  0  0  0  0  0  0  0  0  0
    2.3133    2.2748   -6.6506 H   0  0  0  0  0  0  0  0  0  0  0  0
    1.4648    3.2024   -4.5511 H   0  0  0  0  0  0  0  0  0  0  0  0
   -2.3094    5.4028   -4.4541 H   0  0  0  0  0  0  0  0  0  0  0  0
   -4.7260    5.9350   -4.2663 H   0  0  0  0  0  0  0  0  0  0  0  0
   -6.2981    4.4660   -0.8517 H   0  0  0  0  0  0  0  0  0  0  0  0
   -7.9310    5.1809   -1.1083 H   0  0  0  0  0  0  0  0  0  0  0  0
   -6.4696    6.1307   -1.5608 H   0  0  0  0  0  0  0  0  0  0  0  0
   -5.4148    2.1305   -2.3847 H   0  0  0  0  0  0  0  0  0  0  0  0
   -3.0319    1.5845   -2.6007 H   0  0  0  0  0  0  0  0  0  0  0  0
    0.0408    6.2937   -3.0872 H   0  0  0  0  0  0  0  0  0  0  0  0
    5.3173    4.1648   -0.7744 H   0  0  0  0  0  0  0  0  0  0  0  0
    4.3214    9.1344   -1.3756 H   0  0  0  0  0  0  0  0  0  0  0  0
    6.0987    8.4607    1.4959 H   0  0  0  0  0  0  0  0  0  0  0  0
    8.0413    9.6102    0.2428 H   0  0  0  0  0  0  0  0  0  0  0  0
    8.4449    8.4652   -2.1240 H   0  0  0  0  0  0  0  0  0  0  0  0
    8.9007    5.9331   -1.7431 H   0  0  0  0  0  0  0  0  0  0  0  0
    8.7967    5.4557    0.8679 H   0  0  0  0  0  0  0  0  0  0  0  0
    8.6315    7.8079    2.1219 H   0  0  0  0  0  0  0  0  0  0  0  0
    9.9200    7.8409    0.8369 H   0  0  0  0  0  0  0  0  0  0  0  0
    6.4943    6.1538    1.8140 H   0  0  0  0  0  0  0  0  0  0  0  0
  1  2  2  3
  2  3  1  0
  3  4  2  0
  3  5  1  0
  5  6  2  0
  6  7  1  0
  7  8  2  0
  8  9  1  0
  9 10  2  0
 10 11  1  0
 11 12  2  3
 12 13  1  0
 13 14  3  0
 12 15  1  0
 15 16  3  0
  8 17  1  0
 17 18  1  0
 18 19  1  0
 19 20  2  0
 20 21  1  0
 21 22  1  0
 21 23  1  0
  1 24  1  0
 24 25  2  0
 25 26  1  0
 26 27  1  0
 27 28  2  0
 28 29  2  0
 26 30  2  0
 30 31  1  0
 31 32  2  0
 32 33  1  0
 33 34  1  0
 34 35  2  0
 30 36  1  0
 36 37  2  0
 37 38  1  0
 37 39  1  0
 39 40  2  0
 40 41  1  0
 41 42  2  0
 40 43  1  0
 43 44  2  0
 44 45  1  0
 45 46  1  0
 46 47  2  0
 47 48  1  0
 48 49  2  0
 49 50  1  0
 50 51  1  0
 49 52  1  0
 52 53  2  0
 45 54  1  0
 54 55  2  0
 55 56  1  0
 56 57  2  0
 57 58  1  0
 58 59  1  0
 57 60  1  0
 60 61  2  0
 44 62  1  0
 62 63  1  0
 63 64  1  0
 64 65  2  0
 65 66  1  0
 66 67  1  0
 67 68  2  0
 68 69  1  0
 69 70  2  0
 70 71  1  0
 71 72  1  0
 70 73  1  0
 73 74  2  0
 66 75  1  0
 75 76  2  0
 76 77  1  0
 77 78  2  0
 78 79  1  0
 79 80  1  0
 78 81  1  0
 81 82  2  0
 65 83  1  0
 83 84  1  0
 64 85  1  0
 85 86  2  3
 86 87  1  0
 87 88  2  0
 87 89  1  0
 89 90  2  0
 90 91  1  0
 91 92  2  0
 92 93  1  0
 93 94  2  0
 94 95  1  0
 95 96  2  3
 96 97  1  0
 97 98  3  0
 96 99  1  0
 99100  3  0
 92101  1  0
101102  1  0
102103  1  0
103104  2  0
104105  1  0
105106  1  0
105107  1  0
 11  2  1  0
 23 17  1  0
 35 24  1  0
 42 36  1  0
 84 43  1  0
 95 86  1  0
107101  1  0
 10  5  1  0
 22 18  1  0
 29 25  1  0
 35 31  1  0
 53 46  1  0
 61 54  1  0
 83 62  2  0
 94 89  1  0
106102  1  0
 23  7  1  0
 74 67  1  0
 82 75  1  0
107 91  1  0
  1108  1  0
  6109  1  0
  9110  1  0
 17111  1  0
 18112  1  0
 19113  1  0
 20114  1  0
 21115  1  0
 22116  1  0
 22117  1  0
 23118  1  0
 39119  1  0
 41120  1  0
 42121  1  0
 47122  1  0
 48123  1  0
 51124  1  0
 51125  1  0
 51126  1  0
 52127  1  0
 53128  1  0
 55129  1  0
 56130  1  0
 59131  1  0
 59132  1  0
 59133  1  0
 60134  1  0
 61135  1  0
 68136  1  0
 69137  1  0
 72138  1  0
 72139  1  0
 72140  1  0
 73141  1  0
 74142  1  0
 76143  1  0
 77144  1  0
 80145  1  0
 80146  1  0
 80147  1  0
 81148  1  0
 82149  1  0
 85150  1  0
 90151  1  0
 93152  1  0
101153  1  0
102154  1  0
103155  1  0
104156  1  0
105157  1  0
106158  1  0
106159  1  0
107160  1  0
M  END

