
     RDKit          3D

206226  0  0  0  0  0  0  0  0999 V2000
    1.6763   -6.5561   -0.5281 C   0  0  0  0  0  0  0  0  0  0  0  0
    1.3076   -6.3310    0.7548 C   0  0  0  0  0  0  0  0  0  0  0  0
    0.8898   -5.0540    1.3446 C   0  0  0  0  0  0  0  0  0  0  0  0
    1.3307   -3.9119    1.0619 O   0  0  0  0  0  0  0  0  0  0  0  0
   -0.0192   -5.3022    2.4318 C   0  0  0  0  0  0  0  0  0  0  0  0
   -0.7136   -4.3323    3.1903 C   0  0  0  0  0  0  0  0  0  0  0  0
   -1.5812   -4.8711    4.1192 C   0  0  0  0  0  0  0  0  0  0  0  0
   -1.7653   -6.2885    4.2840 C   0  0  0  0  0  0  0  0  0  0  0  0
   -1.0736   -7.2372    3.5449 C   0  0  0  0  0  0  0  0  0  0  0  0
   -0.1435   -6.6937    2.6136 C   0  0  0  0  0  0  0  0  0  0  0  0
    0.8140   -7.3794    1.6996 C   0  0  0  0  0  0  0  0  0  0  0  0
    1.4052   -8.5802    1.9212 C   0  0  0  0  0  0  0  0  0  0  0  0
    0.9797   -9.4496    2.9889 C   0  0  0  0  0  0  0  0  0  0  0  0
    0.6737  -10.1417    3.8669 N   0  0  0  0  0  0  0  0  0  0  0  0
    2.7034   -8.8647    1.3667 C   0  0  0  0  0  0  0  0  0  0  0  0
    3.8024   -9.0504    1.0287 N   0  0  0  0  0  0  0  0  0  0  0  0
   -2.8146   -6.0393    5.3158 C   0  0  0  0  0  0  0  0  0  0  0  0
   -4.2961   -6.2378    4.8618 C   0  0  0  0  0  0  0  0  0  0  0  0
   -5.1492   -5.5766    5.9154 C   0  0  0  0  0  0  0  0  0  0  0  0
   -4.9515   -4.2574    5.7890 C   0  0  0  0  0  0  0  0  0  0  0  0
   -3.9815   -4.0743    4.6449 C   0  0  0  0  0  0  0  0  0  0  0  0
   -4.4631   -5.2046    3.7539 C   0  0  0  0  0  0  0  0  0  0  0  0
   -2.6084   -4.5914    5.1634 C   0  0  0  0  0  0  0  0  0  0  0  0
    1.4713   -5.5480   -1.5864 C   0  0  0  0  0  0  0  0  0  0  0  0
    0.2084   -5.4365   -2.2094 C   0  0  0  0  0  0  0  0  0  0  0  0
   -0.4063   -6.5293   -2.9458 N   0  0  0  0  0  0  0  0  0  0  0  0
    0.4090   -7.6554   -3.3085 C   0  0  0  0  0  0  0  0  0  0  0  0
    0.1112   -8.9443   -2.8440 C   0  0  0  0  0  0  0  0  0  0  0  0
    0.8914  -10.0338   -3.2505 C   0  0  0  0  0  0  0  0  0  0  0  0
    1.9838   -9.8377   -4.1056 C   0  0  0  0  0  0  0  0  0  0  0  0
    2.9517  -11.2362   -4.6729 S   0  0  0  0  0  0  0  0  0  0  0  0
    4.1410  -11.1262   -3.2945 C   0  0  0  0  0  0  0  0  0  0  0  0
    2.2883   -8.5502   -4.5546 C   0  0  0  0  0  0  0  0  0  0  0  0
    1.4994   -7.4661   -4.1738 C   0  0  0  0  0  0  0  0  0  0  0  0
   -1.5050   -6.2991   -3.8431 C   0  0  0  0  0  0  0  0  0  0  0  0
   -2.6387   -7.1227   -3.7842 C   0  0  0  0  0  0  0  0  0  0  0  0
   -3.6656   -6.9755   -4.7217 C   0  0  0  0  0  0  0  0  0  0  0  0
   -3.5815   -5.9871   -5.7040 C   0  0  0  0  0  0  0  0  0  0  0  0
   -4.9279   -5.7947   -6.8893 S   0  0  0  0  0  0  0  0  0  0  0  0
   -3.9756   -6.4026   -8.3320 C   0  0  0  0  0  0  0  0  0  0  0  0
   -2.4551   -5.1628   -5.7732 C   0  0  0  0  0  0  0  0  0  0  0  0
   -1.3966   -5.3611   -4.8891 C   0  0  0  0  0  0  0  0  0  0  0  0
   -0.1318   -4.0894   -2.3715 C   0  0  0  0  0  0  0  0  0  0  0  0
   -1.5838   -3.2513   -2.5399 S   0  0  0  0  0  0  0  0  0  0  0  0
   -0.8732   -1.7060   -2.3910 C   0  0  0  0  0  0  0  0  0  0  0  0
    0.5071   -1.8665   -2.1608 C   0  0  0  0  0  0  0  0  0  0  0  0
    1.4432   -0.7835   -2.0864 N   0  0  0  0  0  0  0  0  0  0  0  0
    1.8182   -0.1510   -3.3307 C   0  0  0  0  0  0  0  0  0  0  0  0
    1.9911    1.2402   -3.3945 C   0  0  0  0  0  0  0  0  0  0  0  0
    2.3380    1.8529   -4.6037 C   0  0  0  0  0  0  0  0  0  0  0  0
    2.5454    1.0740   -5.7532 C   0  0  0  0  0  0  0  0  0  0  0  0
    3.0600    1.8464   -7.2888 S   0  0  0  0  0  0  0  0  0  0  0  0
    1.3704    1.9535   -7.9672 C   0  0  0  0  0  0  0  0  0  0  0  0
    2.4044   -0.3150   -5.6864 C   0  0  0  0  0  0  0  0  0  0  0  0
    2.0364   -0.9248   -4.4869 C   0  0  0  0  0  0  0  0  0  0  0  0
    2.3202   -0.6879   -0.9470 C   0  0  0  0  0  0  0  0  0  0  0  0
    1.8045   -0.8039    0.3599 C   0  0  0  0  0  0  0  0  0  0  0  0
    2.6719   -0.9131    1.4567 C   0  0  0  0  0  0  0  0  0  0  0  0
    4.0591   -0.8951    1.2643 C   0  0  0  0  0  0  0  0  0  0  0  0
    5.1695   -1.2876    2.6268 S   0  0  0  0  0  0  0  0  0  0  0  0
    5.5658    0.4416    3.0264 C   0  0  0  0  0  0  0  0  0  0  0  0
    4.5759   -0.7222   -0.0244 C   0  0  0  0  0  0  0  0  0  0  0  0
    3.7147   -0.6047   -1.1199 C   0  0  0  0  0  0  0  0  0  0  0  0
    0.8741   -3.2083   -2.1323 C   0  0  0  0  0  0  0  0  0  0  0  0
    2.2391   -4.0181   -1.5947 S   0  0  0  0  0  0  0  0  0  0  0  0
   -1.6102   -0.5028   -1.9843 C   0  0  0  0  0  0  0  0  0  0  0  0
   -2.1328   -0.4602   -0.6825 C   0  0  0  0  0  0  0  0  0  0  0  0
   -2.3702    0.7649   -0.0564 C   0  0  0  0  0  0  0  0  0  0  0  0
   -2.0499    1.9674   -0.7086 C   0  0  0  0  0  0  0  0  0  0  0  0
   -1.7010    1.9261   -2.0760 C   0  0  0  0  0  0  0  0  0  0  0  0
   -1.4691    3.0728   -2.7685 N   0  0  0  0  0  0  0  0  0  0  0  0
   -1.1406    3.0456   -4.0860 C   0  0  0  0  0  0  0  0  0  0  0  0
   -1.0103    1.8202   -4.7354 C   0  0  0  0  0  0  0  0  0  0  0  0
   -1.1726    0.6659   -4.0362 N   0  0  0  0  0  0  0  0  0  0  0  0
   -1.5187    0.6870   -2.7197 C   0  0  0  0  0  0  0  0  0  0  0  0
   -1.5176    3.0507    0.1302 C   0  0  0  0  0  0  0  0  0  0  0  0
   -2.2075    3.9750    0.9492 C   0  0  0  0  0  0  0  0  0  0  0  0
   -3.6286    4.2573    0.8833 N   0  0  0  0  0  0  0  0  0  0  0  0
   -4.2362    5.0764    1.8928 C   0  0  0  0  0  0  0  0  0  0  0  0
   -4.3146    6.4671    1.7141 C   0  0  0  0  0  0  0  0  0  0  0  0
   -4.7667    7.2810    2.7526 C   0  0  0  0  0  0  0  0  0  0  0  0
   -5.2060    6.7082    3.9561 C   0  0  0  0  0  0  0  0  0  0  0  0
   -5.7691    7.7720    5.2896 S   0  0  0  0  0  0  0  0  0  0  0  0
   -4.1494    7.8188    6.1365 C   0  0  0  0  0  0  0  0  0  0  0  0
   -5.1796    5.3176    4.1140 C   0  0  0  0  0  0  0  0  0  0  0  0
   -4.6856    4.5032    3.0918 C   0  0  0  0  0  0  0  0  0  0  0  0
   -4.3796    4.0417   -0.3206 C   0  0  0  0  0  0  0  0  0  0  0  0
   -3.9237    4.5482   -1.5509 C   0  0  0  0  0  0  0  0  0  0  0  0
   -4.6725    4.3632   -2.7169 C   0  0  0  0  0  0  0  0  0  0  0  0
   -5.9109    3.7079   -2.6533 C   0  0  0  0  0  0  0  0  0  0  0  0
   -6.8914    3.4910   -4.1402 S   0  0  0  0  0  0  0  0  0  0  0  0
   -7.6366    5.1497   -4.0626 C   0  0  0  0  0  0  0  0  0  0  0  0
   -6.3867    3.2295   -1.4266 C   0  0  0  0  0  0  0  0  0  0  0  0
   -5.6265    3.3956   -0.2656 C   0  0  0  0  0  0  0  0  0  0  0  0
   -1.3049    4.6031    1.8250 C   0  0  0  0  0  0  0  0  0  0  0  0
   -1.3714    5.8028    3.0164 S   0  0  0  0  0  0  0  0  0  0  0  0
    0.2960    5.7604    3.3630 C   0  0  0  0  0  0  0  0  0  0  0  0
    0.9018    4.7916    2.5533 C   0  0  0  0  0  0  0  0  0  0  0  0
    2.2403    4.3024    2.7177 N   0  0  0  0  0  0  0  0  0  0  0  0
    2.4280    3.3559    3.7832 C   0  0  0  0  0  0  0  0  0  0  0  0
    2.9276    3.7832    5.0183 C   0  0  0  0  0  0  0  0  0  0  0  0
    2.9741    2.8969    6.1029 C   0  0  0  0  0  0  0  0  0  0  0  0
    2.5337    1.5727    5.9519 C   0  0  0  0  0  0  0  0  0  0  0  0
    2.5981    0.4315    7.3360 S   0  0  0  0  0  0  0  0  0  0  0  0
    0.8672    0.7153    7.8577 C   0  0  0  0  0  0  0  0  0  0  0  0
    2.0583    1.1395    4.7082 C   0  0  0  0  0  0  0  0  0  0  0  0
    1.9934    2.0260    3.6334 C   0  0  0  0  0  0  0  0  0  0  0  0
    3.1639    4.3871    1.6117 C   0  0  0  0  0  0  0  0  0  0  0  0
    3.2612    5.5705    0.8611 C   0  0  0  0  0  0  0  0  0  0  0  0
    4.1202    5.6507   -0.2428 C   0  0  0  0  0  0  0  0  0  0  0  0
    4.8828    4.5423   -0.6191 C   0  0  0  0  0  0  0  0  0  0  0  0
    5.9635    4.6344   -2.0441 S   0  0  0  0  0  0  0  0  0  0  0  0
    4.7350    3.8992   -3.1663 C   0  0  0  0  0  0  0  0  0  0  0  0
    4.8025    3.3622    0.1220 C   0  0  0  0  0  0  0  0  0  0  0  0
    3.9402    3.2782    1.2198 C   0  0  0  0  0  0  0  0  0  0  0  0
   -0.0140    4.1896    1.7098 C   0  0  0  0  0  0  0  0  0  0  0  0
    0.1318    3.0293    0.5310 S   0  0  0  0  0  0  0  0  0  0  0  0
    1.0490    6.8332    4.0305 C   0  0  0  0  0  0  0  0  0  0  0  0
    1.3893    7.9735    3.3782 C   0  0  0  0  0  0  0  0  0  0  0  0
    0.9646    8.3281    1.9949 C   0  0  0  0  0  0  0  0  0  0  0  0
    0.0273    7.8149    1.3269 O   0  0  0  0  0  0  0  0  0  0  0  0
    1.8366    9.3672    1.5277 C   0  0  0  0  0  0  0  0  0  0  0  0
    1.9397   10.0932    0.3491 C   0  0  0  0  0  0  0  0  0  0  0  0
    2.9610   11.0398    0.4331 C   0  0  0  0  0  0  0  0  0  0  0  0
    3.7034   10.9507    1.9667 S   0  0  0  0  0  0  0  0  0  0  0  0
    2.7241    9.6871    2.4986 C   0  0  0  0  0  0  0  0  0  0  0  0
    2.5093    8.9131    3.7353 C   0  0  0  0  0  0  0  0  0  0  0  0
    3.1729    9.0805    4.9024 C   0  0  0  0  0  0  0  0  0  0  0  0
    4.3177    9.9498    4.9839 C   0  0  0  0  0  0  0  0  0  0  0  0
    5.2474   10.6397    5.0461 N   0  0  0  0  0  0  0  0  0  0  0  0
    2.7425    8.4554    6.1290 C   0  0  0  0  0  0  0  0  0  0  0  0
    2.3987    7.9630    7.1188 N   0  0  0  0  0  0  0  0  0  0  0  0
    1.7738   -7.5808   -0.8490 H   0  0  0  0  0  0  0  0  0  0  0  0
   -0.6025   -3.2679    3.0250 H   0  0  0  0  0  0  0  0  0  0  0  0
   -1.2605   -8.2856    3.6661 H   0  0  0  0  0  0  0  0  0  0  0  0
   -2.5521   -6.4441    6.3121 H   0  0  0  0  0  0  0  0  0  0  0  0
   -4.5845   -7.2764    4.6026 H   0  0  0  0  0  0  0  0  0  0  0  0
   -5.8643   -6.0532    6.5796 H   0  0  0  0  0  0  0  0  0  0  0  0
   -5.4725   -3.4807    6.3455 H   0  0  0  0  0  0  0  0  0  0  0  0
   -3.9687   -3.0631    4.1905 H   0  0  0  0  0  0  0  0  0  0  0  0
   -3.8404   -5.3895    2.8574 H   0  0  0  0  0  0  0  0  0  0  0  0
   -5.5155   -5.0873    3.4042 H   0  0  0  0  0  0  0  0  0  0  0  0
   -2.1863   -4.0851    6.0574 H   0  0  0  0  0  0  0  0  0  0  0  0
   -0.7265   -9.0957   -2.1815 H   0  0  0  0  0  0  0  0  0  0  0  0
    0.6491  -11.0306   -2.9110 H   0  0  0  0  0  0  0  0  0  0  0  0
    3.6317  -11.3805   -2.3389 H   0  0  0  0  0  0  0  0  0  0  0  0
    4.5570  -10.0967   -3.2301 H   0  0  0  0  0  0  0  0  0  0  0  0
    4.9757  -11.8349   -3.4704 H   0  0  0  0  0  0  0  0  0  0  0  0
    3.1426   -8.3893   -5.2016 H   0  0  0  0  0  0  0  0  0  0  0  0
    1.7304   -6.4738   -4.5499 H   0  0  0  0  0  0  0  0  0  0  0  0
   -2.7112   -7.8993   -3.0349 H   0  0  0  0  0  0  0  0  0  0  0  0
   -4.5324   -7.6193   -4.6740 H   0  0  0  0  0  0  0  0  0  0  0  0
   -4.6588   -6.9878   -8.9761 H   0  0  0  0  0  0  0  0  0  0  0  0
   -3.1108   -7.0409   -8.0424 H   0  0  0  0  0  0  0  0  0  0  0  0
   -3.5984   -5.5090   -8.8971 H   0  0  0  0  0  0  0  0  0  0  0  0
   -2.3728   -4.4006   -6.5408 H   0  0  0  0  0  0  0  0  0  0  0  0
   -0.4976   -4.7651   -5.0095 H   0  0  0  0  0  0  0  0  0  0  0  0
    1.8278    1.8435   -2.5116 H   0  0  0  0  0  0  0  0  0  0  0  0
    2.4532    2.9275   -4.6439 H   0  0  0  0  0  0  0  0  0  0  0  0
    0.8657    0.9636   -7.9152 H   0  0  0  0  0  0  0  0  0  0  0  0
    1.4315    2.2707   -9.0280 H   0  0  0  0  0  0  0  0  0  0  0  0
    0.7903    2.7111   -7.4023 H   0  0  0  0  0  0  0  0  0  0  0  0
    2.5853   -0.9268   -6.5615 H   0  0  0  0  0  0  0  0  0  0  0  0
    1.9324   -2.0003   -4.4595 H   0  0  0  0  0  0  0  0  0  0  0  0
    0.7337   -0.8599    0.5198 H   0  0  0  0  0  0  0  0  0  0  0  0
    2.2630   -1.0666    2.4458 H   0  0  0  0  0  0  0  0  0  0  0  0
    4.6825    0.9463    3.4664 H   0  0  0  0  0  0  0  0  0  0  0  0
    6.3894    0.4552    3.7757 H   0  0  0  0  0  0  0  0  0  0  0  0
    5.9125    0.9868    2.1241 H   0  0  0  0  0  0  0  0  0  0  0  0
    5.6462   -0.7186   -0.1840 H   0  0  0  0  0  0  0  0  0  0  0  0
    4.1456   -0.5286   -2.1113 H   0  0  0  0  0  0  0  0  0  0  0  0
   -2.2145   -1.3610   -0.0963 H   0  0  0  0  0  0  0  0  0  0  0  0
   -2.6084    0.7731    1.0054 H   0  0  0  0  0  0  0  0  0  0  0  0
   -0.9876    3.9737   -4.6286 H   0  0  0  0  0  0  0  0  0  0  0  0
   -0.7484    1.7754   -5.7858 H   0  0  0  0  0  0  0  0  0  0  0  0
   -3.9401    6.9181    0.8014 H   0  0  0  0  0  0  0  0  0  0  0  0
   -4.7557    8.3570    2.6343 H   0  0  0  0  0  0  0  0  0  0  0  0
   -4.1048    7.0022    6.8906 H   0  0  0  0  0  0  0  0  0  0  0  0
   -4.0372    8.7985    6.6508 H   0  0  0  0  0  0  0  0  0  0  0  0
   -3.2902    7.6993    5.4350 H   0  0  0  0  0  0  0  0  0  0  0  0
   -5.5368    4.8672    5.0334 H   0  0  0  0  0  0  0  0  0  0  0  0
   -4.6226    3.4299    3.2376 H   0  0  0  0  0  0  0  0  0  0  0  0
   -2.9894    5.0942   -1.6037 H   0  0  0  0  0  0  0  0  0  0  0  0
   -4.3054    4.7444   -3.6586 H   0  0  0  0  0  0  0  0  0  0  0  0
   -8.5811    5.1410   -4.6423 H   0  0  0  0  0  0  0  0  0  0  0  0
   -7.8573    5.4515   -3.0161 H   0  0  0  0  0  0  0  0  0  0  0  0
   -6.9341    5.8858   -4.5155 H   0  0  0  0  0  0  0  0  0  0  0  0
   -7.3453    2.7275   -1.3752 H   0  0  0  0  0  0  0  0  0  0  0  0
   -6.0031    3.0189    0.6742 H   0  0  0  0  0  0  0  0  0  0  0  0
    3.2492    4.8053    5.1465 H   0  0  0  0  0  0  0  0  0  0  0  0
    3.3319    3.2438    7.0638 H   0  0  0  0  0  0  0  0  0  0  0  0
    0.8430    1.4017    8.7296 H   0  0  0  0  0  0  0  0  0  0  0  0
    0.2524    1.1579    7.0473 H   0  0  0  0  0  0  0  0  0  0  0  0
    0.4196   -0.2604    8.1333 H   0  0  0  0  0  0  0  0  0  0  0  0
    1.7234    0.1159    4.5781 H   0  0  0  0  0  0  0  0  0  0  0  0
    1.5898    1.6845    2.6881 H   0  0  0  0  0  0  0  0  0  0  0  0
    2.6773    6.4403    1.1342 H   0  0  0  0  0  0  0  0  0  0  0  0
    4.1807    6.5724   -0.8079 H   0  0  0  0  0  0  0  0  0  0  0  0
    3.7818    4.4721   -3.1277 H   0  0  0  0  0  0  0  0  0  0  0  0
    4.5436    2.8412   -2.8833 H   0  0  0  0  0  0  0  0  0  0  0  0
    5.1212    3.9300   -4.2103 H   0  0  0  0  0  0  0  0  0  0  0  0
    5.3856    2.4967   -0.1592 H   0  0  0  0  0  0  0  0  0  0  0  0
    3.8694    2.3326    1.7393 H   0  0  0  0  0  0  0  0  0  0  0  0
    1.5217    6.5706    4.9605 H   0  0  0  0  0  0  0  0  0  0  0  0
    1.3170    9.9525   -0.5271 H   0  0  0  0  0  0  0  0  0  0  0  0
    3.2414   11.7238   -0.3591 H   0  0  0  0  0  0  0  0  0  0  0  0
  1  2  2  3
  2  3  1  0
  3  4  2  0
  3  5  1  0
  5  6  2  0
  6  7  1  0
  7  8  2  0
  8  9  1  0
  9 10  2  0
 10 11  1  0
 11 12  2  3
 12 13  1  0
 13 14  3  0
 12 15  1  0
 15 16  3  0
  8 17  1  0
 17 18  1  0
 18 19  1  0
 19 20  2  0
 20 21  1  0
 21 22  1  0
 21 23  1  0
  1 24  1  0
 24 25  2  0
 25 26  1  0
 26 27  1  0
 27 28  2  0
 28 29  1  0
 29 30  2  0
 30 31  1  0
 31 32  1  0
 30 33  1  0
 33 34  2  0
 26 35  1  0
 35 36  2  0
 36 37  1  0
 37 38  2  0
 38 39  1  0
 39 40  1  0
 38 41  1  0
 41 42  2  0
 25 43  1  0
 43 44  1  0
 44 45  1  0
 45 46  2  0
 46 47  1  0
 47 48  1  0
 48 49  2  0
 49 50  1  0
 50 51  2  0
 51 52  1  0
 52 53  1  0
 51 54  1  0
 54 55  2  0
 47 56  1  0
 56 57  2  0
 57 58  1  0
 58 59  2  0
 59 60  1  0
 60 61  1  0
 59 62  1  0
 62 63  2  0
 46 64  1  0
 64 65  1  0
 45 66  1  0
 66 67  2  0
 67 68  1  0
 68 69  2  0
 69 70  1  0
 70 71  2  0
 71 72  1  0
 72 73  2  0
 73 74  1  0
 74 75  2  0
 69 76  1  0
 76 77  2  0
 77 78  1  0
 78 79  1  0
 79 80  2  0
 80 81  1  0
 81 82  2  0
 82 83  1  0
 83 84  1  0
 82 85  1  0
 85 86  2  0
 78 87  1  0
 87 88  2  0
 88 89  1  0
 89 90  2  0
 90 91  1  0
 91 92  1  0
 90 93  1  0
 93 94  2  0
 77 95  1  0
 95 96  1  0
 96 97  1  0
 97 98  2  0
 98 99  1  0
 99100  1  0
100101  2  0
101102  1  0
102103  2  0
103104  1  0
104105  1  0
103106  1  0
106107  2  0
 99108  1  0
108109  2  0
109110  1  0
110111  2  0
111112  1  0
112113  1  0
111114  1  0
114115  2  0
 98116  1  0
116117  1  0
 97118  1  0
118119  2  3
119120  1  0
120121  2  0
120122  1  0
122123  1  0
123124  2  0
124125  1  0
125126  1  0
126127  1  0
127128  2  3
128129  1  0
129130  3  0
128131  1  0
131132  3  0
 11  2  1  0
 23 17  1  0
 65 24  1  0
 75 66  1  0
117 76  1  0
127119  1  0
 10  5  1  0
 22 18  1  0
 34 27  1  0
 42 35  1  0
 64 43  2  0
 75 70  1  0
 86 79  1  0
 94 87  1  0
116 95  2  0
126122  2  0
 23  7  1  0
 55 48  1  0
 63 56  1  0
107100  1  0
115108  1  0
  1133  1  0
  6134  1  0
  9135  1  0
 17136  1  0
 18137  1  0
 19138  1  0
 20139  1  0
 21140  1  0
 22141  1  0
 22142  1  0
 23143  1  0
 28144  1  0
 29145  1  0
 32146  1  0
 32147  1  0
 32148  1  0
 33149  1  0
 34150  1  0
 36151  1  0
 37152  1  0
 40153  1  0
 40154  1  0
 40155  1  0
 41156  1  0
 42157  1  0
 49158  1  0
 50159  1  0
 53160  1  0
 53161  1  0
 53162  1  0
 54163  1  0
 55164  1  0
 57165  1  0
 58166  1  0
 61167  1  0
 61168  1  0
 61169  1  0
 62170  1  0
 63171  1  0
 67172  1  0
 68173  1  0
 72174  1  0
 73175  1  0
 80176  1  0
 81177  1  0
 84178  1  0
 84179  1  0
 84180  1  0
 85181  1  0
 86182  1  0
 88183  1  0
 89184  1  0
 92185  1  0
 92186  1  0
 92187  1  0
 93188  1  0
 94189  1  0
101190  1  0
102191  1  0
105192  1  0
105193  1  0
105194  1  0
106195  1  0
107196  1  0
109197  1  0
110198  1  0
113199  1  0
113200  1  0
113201  1  0
114202  1  0
115203  1  0
118204  1  0
123205  1  0
124206  1  0
M  END

