
     RDKit          3D

226251  0  0  0  0  0  0  0  0999 V2000
   -1.3404   -7.9687    6.5274 C   0  0  0  0  0  0  0  0  0  0  0  0
   -1.4069   -8.5800    5.3238 C   0  0  0  0  0  0  0  0  0  0  0  0
   -0.7868   -8.0817    4.1022 C   0  0  0  0  0  0  0  0  0  0  0  0
    0.0591   -7.1404    4.0380 O   0  0  0  0  0  0  0  0  0  0  0  0
   -1.2891   -8.8351    2.9578 C   0  0  0  0  0  0  0  0  0  0  0  0
   -0.9994   -8.6586    1.6086 C   0  0  0  0  0  0  0  0  0  0  0  0
   -1.6293   -9.4442    0.6768 C   0  0  0  0  0  0  0  0  0  0  0  0
   -2.5394  -10.4021    1.0503 C   0  0  0  0  0  0  0  0  0  0  0  0
   -2.7872  -10.5391    2.4248 C   0  0  0  0  0  0  0  0  0  0  0  0
   -2.1918   -9.7813    3.3956 C   0  0  0  0  0  0  0  0  0  0  0  0
   -2.3057   -9.6608    4.8835 C   0  0  0  0  0  0  0  0  0  0  0  0
   -3.1846  -10.2707    5.5784 C   0  0  0  0  0  0  0  0  0  0  0  0
   -3.5154  -10.0431    6.9813 C   0  0  0  0  0  0  0  0  0  0  0  0
   -3.7702   -9.8702    8.1320 N   0  0  0  0  0  0  0  0  0  0  0  0
   -4.1689  -11.1958    5.0134 C   0  0  0  0  0  0  0  0  0  0  0  0
   -4.9615  -11.9552    4.5558 N   0  0  0  0  0  0  0  0  0  0  0  0
   -2.7919  -10.7680   -0.3723 C   0  0  0  0  0  0  0  0  0  0  0  0
   -4.0589  -10.2173   -0.9927 C   0  0  0  0  0  0  0  0  0  0  0  0
   -3.9034  -10.2908   -2.4623 C   0  0  0  0  0  0  0  0  0  0  0  0
   -3.0021   -9.3865   -2.8103 C   0  0  0  0  0  0  0  0  0  0  0  0
   -2.4905   -8.7346   -1.5726 C   0  0  0  0  0  0  0  0  0  0  0  0
   -3.8160   -8.7084   -0.7791 C   0  0  0  0  0  0  0  0  0  0  0  0
   -1.7297   -9.7505   -0.7890 C   0  0  0  0  0  0  0  0  0  0  0  0
   -0.5849   -6.6751    6.5145 C   0  0  0  0  0  0  0  0  0  0  0  0
    0.6507   -6.2072    6.4745 C   0  0  0  0  0  0  0  0  0  0  0  0
    0.8444   -4.8847    6.1743 C   0  0  0  0  0  0  0  0  0  0  0  0
    2.0349   -4.1843    5.9217 C   0  0  0  0  0  0  0  0  0  0  0  0
    3.3568   -4.7092    6.2068 C   0  0  0  0  0  0  0  0  0  0  0  0
    3.9672   -5.8701    6.3915 C   0  0  0  0  0  0  0  0  0  0  0  0
    5.2002   -5.9978    6.9108 C   0  0  0  0  0  0  0  0  0  0  0  0
    5.9521   -4.9753    7.2983 C   0  0  0  0  0  0  0  0  0  0  0  0
    7.5488   -4.7547    8.0201 S   0  0  0  0  0  0  0  0  0  0  0  0
    7.5155   -4.8505    9.8105 C   0  0  0  0  0  0  0  0  0  0  0  0
    6.7439   -3.7374   10.4755 C   0  0  0  0  0  0  0  0  0  0  0  0
    4.7272   -3.4991    6.8673 Se  0  0  0  0  0  2  0  0  0  0  0  0
    1.9738   -2.8671    5.4490 C   0  0  0  0  0  0  0  0  0  0  0  0
    0.8499   -2.1585    5.2192 C   0  0  0  0  0  0  0  0  0  0  0  0
   -0.3524   -2.8324    5.4892 C   0  0  0  0  0  0  0  0  0  0  0  0
   -1.6914   -2.2384    5.4759 C   0  0  0  0  0  0  0  0  0  0  0  0
   -2.2663   -1.0539    5.5322 C   0  0  0  0  0  0  0  0  0  0  0  0
   -3.5754   -0.8581    5.3714 C   0  0  0  0  0  0  0  0  0  0  0  0
   -4.4488   -1.8273    5.1378 C   0  0  0  0  0  0  0  0  0  0  0  0
   -6.1800   -1.9881    4.8277 S   0  0  0  0  0  0  0  0  0  0  0  0
   -6.5393   -2.0163    3.0430 C   0  0  0  0  0  0  0  0  0  0  0  0
   -8.0127   -2.2149    2.7982 C   0  0  0  0  0  0  0  0  0  0  0  0
   -3.2338   -3.3656    5.1369 Se  0  0  0  0  0  2  0  0  0  0  0  0
   -0.2810   -4.1637    5.9470 C   0  0  0  0  0  0  0  0  0  0  0  0
   -1.5452   -5.2692    6.1497 S   0  0  0  0  0  0  0  0  0  0  0  0
    0.9526   -0.9814    4.5424 C   0  0  0  0  0  0  0  0  0  0  0  0
    2.2182   -0.6171    4.1304 C   0  0  0  0  0  0  0  0  0  0  0  0
    3.1785   -1.8636    4.7023 S   0  0  0  0  0  0  0  0  0  0  0  0
    2.4494    0.5399    3.2233 C   0  0  0  0  0  0  0  0  0  0  0  0
    1.6536    1.5454    2.9590 C   0  0  0  0  0  0  0  0  0  0  0  0
    0.2606    1.8235    3.3424 N   0  0  0  0  0  0  0  0  0  0  0  0
   -0.0740    2.5336    4.4809 C   0  0  0  0  0  0  0  0  0  0  0  0
    0.5028    2.3407    5.7252 C   0  0  0  0  0  0  0  0  0  0  0  0
    0.0685    3.0759    6.7953 C   0  0  0  0  0  0  0  0  0  0  0  0
   -0.9449    4.0313    6.6988 C   0  0  0  0  0  0  0  0  0  0  0  0
   -1.5273    4.9861    8.0849 S   0  0  0  0  0  0  0  0  0  0  0  0
   -2.8794    6.0703    7.5275 C   0  0  0  0  0  0  0  0  0  0  0  0
   -1.5304    4.2438    5.4787 C   0  0  0  0  0  0  0  0  0  0  0  0
   -1.0909    3.5070    4.4209 C   0  0  0  0  0  0  0  0  0  0  0  0
   -0.7795    1.3388    2.4649 C   0  0  0  0  0  0  0  0  0  0  0  0
   -2.0041    0.9436    2.8791 C   0  0  0  0  0  0  0  0  0  0  0  0
   -2.9271    0.3441    2.0289 C   0  0  0  0  0  0  0  0  0  0  0  0
   -2.6005    0.1337    0.6975 C   0  0  0  0  0  0  0  0  0  0  0  0
   -3.7161   -0.5743   -0.5095 S   0  0  0  0  0  0  0  0  0  0  0  0
   -4.5547    0.7046   -1.4508 C   0  0  0  0  0  0  0  0  0  0  0  0
   -1.3723    0.5207    0.2428 C   0  0  0  0  0  0  0  0  0  0  0  0
   -0.4811    1.1135    1.1262 C   0  0  0  0  0  0  0  0  0  0  0  0
    2.1324    2.4362    1.9545 C   0  0  0  0  0  0  0  0  0  0  0  0
    1.4344    3.7709    1.1924 S   0  0  0  0  0  0  0  0  0  0  0  0
    2.6881    4.0773   -0.0370 C   0  0  0  0  0  0  0  0  0  0  0  0
    3.5703    3.1126    0.2653 C   0  0  0  0  0  0  0  0  0  0  0  0
    4.7186    3.0068   -0.5726 N   0  0  0  0  0  0  0  0  0  0  0  0
    6.0773    2.9707   -0.2009 C   0  0  0  0  0  0  0  0  0  0  0  0
    7.0296    3.8524   -0.5790 C   0  0  0  0  0  0  0  0  0  0  0  0
    8.4004    3.6162   -0.5009 C   0  0  0  0  0  0  0  0  0  0  0  0
    8.8665    2.4153   -0.0121 C   0  0  0  0  0  0  0  0  0  0  0  0
   10.6247    2.0492    0.0630 S   0  0  0  0  0  0  0  0  0  0  0  0
   11.3536    2.4108    1.6472 C   0  0  0  0  0  0  0  0  0  0  0  0
    7.9367    1.4857    0.3904 C   0  0  0  0  0  0  0  0  0  0  0  0
    6.5855    1.7399    0.3045 C   0  0  0  0  0  0  0  0  0  0  0  0
    4.5834    2.6407   -1.9785 C   0  0  0  0  0  0  0  0  0  0  0  0
    5.2716    3.2928   -2.9333 C   0  0  0  0  0  0  0  0  0  0  0  0
    5.2776    2.8736   -4.2731 C   0  0  0  0  0  0  0  0  0  0  0  0
    4.5463    1.7551   -4.5847 C   0  0  0  0  0  0  0  0  0  0  0  0
    4.5770    1.0840   -6.2536 S   0  0  0  0  0  0  0  0  0  0  0  0
    3.2422    1.8245   -7.2093 C   0  0  0  0  0  0  0  0  0  0  0  0
    3.8323    1.0846   -3.6125 C   0  0  0  0  0  0  0  0  0  0  0  0
    3.8529    1.5249   -2.3235 C   0  0  0  0  0  0  0  0  0  0  0  0
    3.2462    2.2547    1.3335 C   0  0  0  0  0  0  0  0  0  0  0  0
    3.7790    0.8264    2.1237 S   0  0  0  0  0  0  0  0  0  0  0  0
    2.1974    4.9158   -1.2050 C   0  0  0  0  0  0  0  0  0  0  0  0
    0.9874    5.5939   -1.1093 C   0  0  0  0  0  0  0  0  0  0  0  0
    0.3280    5.9088   -2.2444 C   0  0  0  0  0  0  0  0  0  0  0  0
   -1.1057    6.1692   -2.2814 C   0  0  0  0  0  0  0  0  0  0  0  0
   -1.7353    6.7560   -1.1510 C   0  0  0  0  0  0  0  0  0  0  0  0
   -2.9511    6.9274   -0.6585 C   0  0  0  0  0  0  0  0  0  0  0  0
   -3.2587    7.6693    0.4090 C   0  0  0  0  0  0  0  0  0  0  0  0
   -2.3219    8.3398    1.1087 C   0  0  0  0  0  0  0  0  0  0  0  0
   -2.2761    9.3802    2.5373 S   0  0  0  0  0  0  0  0  0  0  0  0
   -1.8260    8.5541    4.0563 C   0  0  0  0  0  0  0  0  0  0  0  0
   -0.3588    8.1129    3.9502 C   0  0  0  0  0  0  0  0  0  0  0  0
   -0.7128    7.8567    0.1088 Se  0  0  0  0  0  2  0  0  0  0  0  0
   -1.7882    6.0258   -3.4568 C   0  0  0  0  0  0  0  0  0  0  0  0
   -1.2237    5.6666   -4.6399 C   0  0  0  0  0  0  0  0  0  0  0  0
    0.2026    5.4520   -4.5936 C   0  0  0  0  0  0  0  0  0  0  0  0
    0.9270    5.2899   -5.8371 C   0  0  0  0  0  0  0  0  0  0  0  0
    2.2304    5.2188   -6.1641 C   0  0  0  0  0  0  0  0  0  0  0  0
    2.6511    5.1089   -7.4349 C   0  0  0  0  0  0  0  0  0  0  0  0
    1.8526    5.0537   -8.4852 C   0  0  0  0  0  0  0  0  0  0  0  0
    1.8644    5.0005  -10.2490 S   0  0  0  0  0  0  0  0  0  0  0  0
    1.3468    6.6066  -10.9394 C   0  0  0  0  0  0  0  0  0  0  0  0
   -0.1245    6.8740  -10.5324 C   0  0  0  0  0  0  0  0  0  0  0  0
    0.0952    5.1844   -7.5336 Se  0  0  0  0  0  2  0  0  0  0  0  0
    0.8896    5.5675   -3.4156 C   0  0  0  0  0  0  0  0  0  0  0  0
    2.3790    4.7988   -2.8790 S   0  0  0  0  0  0  0  0  0  0  0  0
   -2.0536    5.2617   -5.6025 C   0  0  0  0  0  0  0  0  0  0  0  0
   -3.4486    5.2325   -5.2984 C   0  0  0  0  0  0  0  0  0  0  0  0
   -3.5022    5.7800   -3.7564 S   0  0  0  0  0  0  0  0  0  0  0  0
   -4.3160    4.4285   -6.2883 C   0  0  0  0  0  0  0  0  0  0  0  0
   -3.9653    3.1104   -6.2322 C   0  0  0  0  0  0  0  0  0  0  0  0
   -2.9622    2.5664   -5.3238 C   0  0  0  0  0  0  0  0  0  0  0  0
   -2.5520    3.0557   -4.2350 O   0  0  0  0  0  0  0  0  0  0  0  0
   -2.4430    1.3052   -5.8002 C   0  0  0  0  0  0  0  0  0  0  0  0
   -1.4858    0.4777   -5.2722 C   0  0  0  0  0  0  0  0  0  0  0  0
   -1.1214   -0.6850   -5.9073 C   0  0  0  0  0  0  0  0  0  0  0  0
   -1.7647   -0.9635   -7.0876 C   0  0  0  0  0  0  0  0  0  0  0  0
   -2.7363   -0.1407   -7.6423 C   0  0  0  0  0  0  0  0  0  0  0  0
   -3.0914    1.0169   -6.9869 C   0  0  0  0  0  0  0  0  0  0  0  0
   -4.0464    2.0976   -7.2878 C   0  0  0  0  0  0  0  0  0  0  0  0
   -4.9228    2.2912   -8.2977 C   0  0  0  0  0  0  0  0  0  0  0  0
   -5.6015    2.1749   -9.3382 C   0  0  0  0  0  0  0  0  0  0  0  0
   -6.2623    2.0539  -10.3276 N   0  0  0  0  0  0  0  0  0  0  0  0
   -5.3162    0.4205   -8.0226 C   0  0  0  0  0  0  0  0  0  0  0  0
   -5.5553   -0.6566   -7.8526 N   0  0  0  0  0  0  0  0  0  0  0  0
   -0.9914   -2.2594   -7.2077 C   0  0  0  0  0  0  0  0  0  0  0  0
   -1.7896   -3.4585   -6.7845 C   0  0  0  0  0  0  0  0  0  0  0  0
   -2.7532   -3.0168   -5.7749 C   0  0  0  0  0  0  0  0  0  0  0  0
   -2.1194   -2.7922   -4.6464 C   0  0  0  0  0  0  0  0  0  0  0  0
   -0.6595   -2.9451   -4.9242 C   0  0  0  0  0  0  0  0  0  0  0  0
   -0.7542   -4.1527   -5.8773 C   0  0  0  0  0  0  0  0  0  0  0  0
   -0.2735   -1.8863   -5.9261 C   0  0  0  0  0  0  0  0  0  0  0  0
   -1.7651   -8.3773    7.3759 H   0  0  0  0  0  0  0  0  0  0  0  0
   -0.2832   -7.8965    1.3202 H   0  0  0  0  0  0  0  0  0  0  0  0
   -3.4894  -11.2999    2.6651 H   0  0  0  0  0  0  0  0  0  0  0  0
   -2.5588  -11.8232   -0.5637 H   0  0  0  0  0  0  0  0  0  0  0  0
   -4.9770  -10.5796   -0.6014 H   0  0  0  0  0  0  0  0  0  0  0  0
   -4.4496  -10.9665   -3.1074 H   0  0  0  0  0  0  0  0  0  0  0  0
   -2.6538   -9.1211   -3.8136 H   0  0  0  0  0  0  0  0  0  0  0  0
   -2.0537   -7.7559   -1.7100 H   0  0  0  0  0  0  0  0  0  0  0  0
   -4.5832   -8.1108   -1.2570 H   0  0  0  0  0  0  0  0  0  0  0  0
   -3.6329   -8.4558    0.2755 H   0  0  0  0  0  0  0  0  0  0  0  0
   -0.8105  -10.1652   -1.2302 H   0  0  0  0  0  0  0  0  0  0  0  0
    1.4787   -6.9206    6.7144 H   0  0  0  0  0  0  0  0  0  0  0  0
    3.4248   -6.8159    6.0358 H   0  0  0  0  0  0  0  0  0  0  0  0
    5.6595   -7.0370    7.0420 H   0  0  0  0  0  0  0  0  0  0  0  0
    7.0515   -5.8097   10.1902 H   0  0  0  0  0  0  0  0  0  0  0  0
    8.5728   -4.7687   10.1817 H   0  0  0  0  0  0  0  0  0  0  0  0
    5.6641   -3.7363   10.2039 H   0  0  0  0  0  0  0  0  0  0  0  0
    6.7599   -3.9162   11.5988 H   0  0  0  0  0  0  0  0  0  0  0  0
    7.2001   -2.7448   10.3253 H   0  0  0  0  0  0  0  0  0  0  0  0
   -1.5861   -0.1469    5.7684 H   0  0  0  0  0  0  0  0  0  0  0  0
   -3.9969    0.2131    5.4329 H   0  0  0  0  0  0  0  0  0  0  0  0
   -6.2890   -1.0323    2.6205 H   0  0  0  0  0  0  0  0  0  0  0  0
   -5.9324   -2.8447    2.6244 H   0  0  0  0  0  0  0  0  0  0  0  0
   -8.1986   -1.8650    1.7413 H   0  0  0  0  0  0  0  0  0  0  0  0
   -8.2876   -3.3001    2.7930 H   0  0  0  0  0  0  0  0  0  0  0  0
   -8.6228   -1.5997    3.4635 H   0  0  0  0  0  0  0  0  0  0  0  0
    0.0695   -0.3382    4.3334 H   0  0  0  0  0  0  0  0  0  0  0  0
    1.2960    1.5993    5.8283 H   0  0  0  0  0  0  0  0  0  0  0  0
    0.5090    2.9454    7.8078 H   0  0  0  0  0  0  0  0  0  0  0  0
   -2.5731    6.6094    6.5915 H   0  0  0  0  0  0  0  0  0  0  0  0
   -3.1614    6.8264    8.2881 H   0  0  0  0  0  0  0  0  0  0  0  0
   -3.7391    5.3997    7.3028 H   0  0  0  0  0  0  0  0  0  0  0  0
   -2.3365    4.9784    5.3107 H   0  0  0  0  0  0  0  0  0  0  0  0
   -1.5394    3.6506    3.4158 H   0  0  0  0  0  0  0  0  0  0  0  0
   -2.2739    1.1460    3.8951 H   0  0  0  0  0  0  0  0  0  0  0  0
   -3.8998    0.0359    2.3631 H   0  0  0  0  0  0  0  0  0  0  0  0
   -4.4208    1.6731   -0.9363 H   0  0  0  0  0  0  0  0  0  0  0  0
   -4.1319    0.7876   -2.4916 H   0  0  0  0  0  0  0  0  0  0  0  0
   -5.6076    0.4120   -1.5544 H   0  0  0  0  0  0  0  0  0  0  0  0
   -1.0983    0.3608   -0.8105 H   0  0  0  0  0  0  0  0  0  0  0  0
    0.4707    1.3354    0.6905 H   0  0  0  0  0  0  0  0  0  0  0  0
    6.7067    4.8480   -0.9198 H   0  0  0  0  0  0  0  0  0  0  0  0
    9.0985    4.3828   -0.8258 H   0  0  0  0  0  0  0  0  0  0  0  0
   12.0185    3.2733    1.5416 H   0  0  0  0  0  0  0  0  0  0  0  0
   11.9780    1.5099    1.9265 H   0  0  0  0  0  0  0  0  0  0  0  0
   10.5992    2.5956    2.4394 H   0  0  0  0  0  0  0  0  0  0  0  0
    8.2768    0.5426    0.7667 H   0  0  0  0  0  0  0  0  0  0  0  0
    5.8489    1.0123    0.5691 H   0  0  0  0  0  0  0  0  0  0  0  0
    5.8527    4.1870   -2.7702 H   0  0  0  0  0  0  0  0  0  0  0  0
    5.8489    3.4290   -5.0147 H   0  0  0  0  0  0  0  0  0  0  0  0
    3.7536    2.5398   -7.9312 H   0  0  0  0  0  0  0  0  0  0  0  0
    2.6862    1.0553   -7.8046 H   0  0  0  0  0  0  0  0  0  0  0  0
    2.5583    2.3554   -6.5326 H   0  0  0  0  0  0  0  0  0  0  0  0
    3.2568    0.1863   -3.9190 H   0  0  0  0  0  0  0  0  0  0  0  0
    3.3089    1.0246   -1.5440 H   0  0  0  0  0  0  0  0  0  0  0  0
    0.6294    5.8720   -0.0987 H   0  0  0  0  0  0  0  0  0  0  0  0
   -3.8163    6.3908   -1.1949 H   0  0  0  0  0  0  0  0  0  0  0  0
   -4.3290    7.7878    0.7950 H   0  0  0  0  0  0  0  0  0  0  0  0
   -2.4824    7.7399    4.3539 H   0  0  0  0  0  0  0  0  0  0  0  0
   -1.8418    9.3006    4.8910 H   0  0  0  0  0  0  0  0  0  0  0  0
   -0.1620    7.5648    4.9215 H   0  0  0  0  0  0  0  0  0  0  0  0
    0.2676    9.0118    3.9702 H   0  0  0  0  0  0  0  0  0  0  0  0
   -0.1835    7.4136    3.1156 H   0  0  0  0  0  0  0  0  0  0  0  0
    2.9664    5.2633   -5.3048 H   0  0  0  0  0  0  0  0  0  0  0  0
    3.7729    5.0616   -7.6570 H   0  0  0  0  0  0  0  0  0  0  0  0
    1.3104    6.4893  -12.0349 H   0  0  0  0  0  0  0  0  0  0  0  0
    2.0008    7.4315  -10.6665 H   0  0  0  0  0  0  0  0  0  0  0  0
   -0.1650    7.2308   -9.4774 H   0  0  0  0  0  0  0  0  0  0  0  0
   -0.7172    5.9822  -10.7059 H   0  0  0  0  0  0  0  0  0  0  0  0
   -0.4830    7.6658  -11.2016 H   0  0  0  0  0  0  0  0  0  0  0  0
   -1.7898    4.9369   -6.6010 H   0  0  0  0  0  0  0  0  0  0  0  0
   -5.0135    4.8341   -6.8705 H   0  0  0  0  0  0  0  0  0  0  0  0
   -0.9938    0.7218   -4.3433 H   0  0  0  0  0  0  0  0  0  0  0  0
   -3.1690   -0.3688   -8.6134 H   0  0  0  0  0  0  0  0  0  0  0  0
   -0.3570   -2.3538   -8.0781 H   0  0  0  0  0  0  0  0  0  0  0  0
   -2.1405   -4.1118   -7.5650 H   0  0  0  0  0  0  0  0  0  0  0  0
   -3.8281   -2.8931   -5.9416 H   0  0  0  0  0  0  0  0  0  0  0  0
   -2.5121   -2.5385   -3.6650 H   0  0  0  0  0  0  0  0  0  0  0  0
   -0.0197   -3.0860   -4.0809 H   0  0  0  0  0  0  0  0  0  0  0  0
    0.2039   -4.2949   -6.3912 H   0  0  0  0  0  0  0  0  0  0  0  0
   -1.1779   -5.0159   -5.3734 H   0  0  0  0  0  0  0  0  0  0  0  0
    0.8123   -1.7411   -5.9713 H   0  0  0  0  0  0  0  0  0  0  0  0
  1  2  2  3
  2  3  1  0
  3  4  2  0
  3  5  1  0
  5  6  2  0
  6  7  1  0
  7  8  2  0
  8  9  1  0
  9 10  2  0
 10 11  1  0
 11 12  2  3
 12 13  1  0
 13 14  3  0
 12 15  1  0
 15 16  3  0
  8 17  1  0
 17 18  1  0
 18 19  1  0
 19 20  2  0
 20 21  1  0
 21 22  1  0
 21 23  1  0
  1 24  1  0
 24 25  2  0
 25 26  1  0
 26 27  2  0
 27 28  1  0
 28 29  2  0
 29 30  1  0
 30 31  2  0
 31 32  1  0
 32 33  1  0
 33 34  1  0
 31 35  1  0
 27 36  1  0
 36 37  2  0
 37 38  1  0
 38 39  1  0
 39 40  2  0
 40 41  1  0
 41 42  2  0
 42 43  1  0
 43 44  1  0
 44 45  1  0
 42 46  1  0
 38 47  2  0
 47 48  1  0
 37 49  1  0
 49 50  2  0
 50 51  1  0
 50 52  1  0
 52 53  2  0
 53 54  1  0
 54 55  1  0
 55 56  2  0
 56 57  1  0
 57 58  2  0
 58 59  1  0
 59 60  1  0
 58 61  1  0
 61 62  2  0
 54 63  1  0
 63 64  2  0
 64 65  1  0
 65 66  2  0
 66 67  1  0
 67 68  1  0
 66 69  1  0
 69 70  2  0
 53 71  1  0
 71 72  1  0
 72 73  1  0
 73 74  2  0
 74 75  1  0
 75 76  1  0
 76 77  2  0
 77 78  1  0
 78 79  2  0
 79 80  1  0
 80 81  1  0
 79 82  1  0
 82 83  2  0
 75 84  1  0
 84 85  2  0
 85 86  1  0
 86 87  2  0
 87 88  1  0
 88 89  1  0
 87 90  1  0
 90 91  2  0
 74 92  1  0
 92 93  1  0
 73 94  1  0
 94 95  2  0
 95 96  1  0
 96 97  2  0
 97 98  1  0
 98 99  2  0
 99100  1  0
100101  2  0
101102  1  0
102103  1  0
103104  1  0
101105  1  0
 97106  1  0
106107  2  0
107108  1  0
108109  1  0
109110  2  0
110111  1  0
111112  2  0
112113  1  0
113114  1  0
114115  1  0
112116  1  0
108117  2  0
117118  1  0
107119  1  0
119120  2  0
120121  1  0
120122  1  0
122123  2  3
123124  1  0
124125  2  0
124126  1  0
126127  2  0
127128  1  0
128129  2  0
129130  1  0
130131  2  0
131132  1  0
132133  2  3
133134  1  0
134135  3  0
133136  1  0
136137  3  0
129138  1  0
138139  1  0
139140  1  0
140141  2  0
141142  1  0
142143  1  0
142144  1  0
 11  2  1  0
 23 17  1  0
 48 24  1  0
 93 52  1  0
118 94  1  0
132123  1  0
144138  1  0
 10  5  1  0
 22 18  1  0
 47 26  1  0
 62 55  1  0
 70 63  1  0
 92 71  2  0
117 96  1  0
131126  1  0
143139  1  0
 23  7  1  0
 35 28  1  0
 51 36  1  0
 83 76  1  0
 91 84  1  0
105 98  1  0
121106  1  0
144128  1  0
 46 39  1  0
116109  1  0
  1145  1  0
  6146  1  0
  9147  1  0
 17148  1  0
 18149  1  0
 19150  1  0
 20151  1  0
 21152  1  0
 22153  1  0
 22154  1  0
 23155  1  0
 25156  1  0
 29157  1  0
 30158  1  0
 33159  1  0
 33160  1  0
 34161  1  0
 34162  1  0
 34163  1  0
 40164  1  0
 41165  1  0
 44166  1  0
 44167  1  0
 45168  1  0
 45169  1  0
 45170  1  0
 49171  1  0
 56172  1  0
 57173  1  0
 60174  1  0
 60175  1  0
 60176  1  0
 61177  1  0
 62178  1  0
 64179  1  0
 65180  1  0
 68181  1  0
 68182  1  0
 68183  1  0
 69184  1  0
 70185  1  0
 77186  1  0
 78187  1  0
 81188  1  0
 81189  1  0
 81190  1  0
 82191  1  0
 83192  1  0
 85193  1  0
 86194  1  0
 89195  1  0
 89196  1  0
 89197  1  0
 90198  1  0
 91199  1  0
 95200  1  0
 99201  1  0
100202  1  0
103203  1  0
103204  1  0
104205  1  0
104206  1  0
104207  1  0
110208  1  0
111209  1  0
114210  1  0
114211  1  0
115212  1  0
115213  1  0
115214  1  0
119215  1  0
122216  1  0
127217  1  0
130218  1  0
138219  1  0
139220  1  0
140221  1  0
141222  1  0
142223  1  0
143224  1  0
143225  1  0
144226  1  0
M  END

