
     RDKit          3D

238260  0  0  0  0  0  0  0  0999 V2000
   -3.5765   -0.5812    7.8016 C   0  0  0  0  0  0  0  0  0  0  0  0
   -4.8226   -0.6869    7.3036 C   0  0  0  0  0  0  0  0  0  0  0  0
   -5.9177   -1.2638    8.0865 C   0  0  0  0  0  0  0  0  0  0  0  0
   -6.0048   -1.2674    9.3468 O   0  0  0  0  0  0  0  0  0  0  0  0
   -6.8140   -1.9570    7.1754 C   0  0  0  0  0  0  0  0  0  0  0  0
   -7.8911   -2.8096    7.5118 C   0  0  0  0  0  0  0  0  0  0  0  0
   -8.4761   -3.4315    6.4227 C   0  0  0  0  0  0  0  0  0  0  0  0
   -8.0104   -3.2526    5.0791 C   0  0  0  0  0  0  0  0  0  0  0  0
   -6.9429   -2.4430    4.7456 C   0  0  0  0  0  0  0  0  0  0  0  0
   -6.3610   -1.7573    5.8459 C   0  0  0  0  0  0  0  0  0  0  0  0
   -5.2131   -0.8260    5.8655 C   0  0  0  0  0  0  0  0  0  0  0  0
   -4.8454   -0.0008    4.8530 C   0  0  0  0  0  0  0  0  0  0  0  0
   -5.3842   -0.1186    3.5249 C   0  0  0  0  0  0  0  0  0  0  0  0
   -5.8307   -0.1901    2.4606 N   0  0  0  0  0  0  0  0  0  0  0  0
   -4.0618    1.1861    5.0835 C   0  0  0  0  0  0  0  0  0  0  0  0
   -3.4456    2.1498    5.2619 N   0  0  0  0  0  0  0  0  0  0  0  0
   -9.0647   -4.1844    4.5641 C   0  0  0  0  0  0  0  0  0  0  0  0
  -10.2923   -3.5688    3.8304 C   0  0  0  0  0  0  0  0  0  0  0  0
  -10.5878   -2.1926    4.3813 C   0  0  0  0  0  0  0  0  0  0  0  0
  -11.0179   -2.3643    5.6314 C   0  0  0  0  0  0  0  0  0  0  0  0
  -11.0048   -3.8497    5.8917 C   0  0  0  0  0  0  0  0  0  0  0  0
  -11.4066   -4.3374    4.5086 C   0  0  0  0  0  0  0  0  0  0  0  0
   -9.5391   -4.3721    5.9415 C   0  0  0  0  0  0  0  0  0  0  0  0
   -2.3917   -0.7641    6.9545 C   0  0  0  0  0  0  0  0  0  0  0  0
   -1.4502    0.2226    6.5829 C   0  0  0  0  0  0  0  0  0  0  0  0
   -1.0299    1.3661    7.3653 N   0  0  0  0  0  0  0  0  0  0  0  0
   -1.8407    1.9768    8.3752 C   0  0  0  0  0  0  0  0  0  0  0  0
   -2.3862    3.2492    8.1542 C   0  0  0  0  0  0  0  0  0  0  0  0
   -3.0744    3.9054    9.1798 C   0  0  0  0  0  0  0  0  0  0  0  0
   -3.2234    3.2963   10.4290 C   0  0  0  0  0  0  0  0  0  0  0  0
   -4.0826    4.1480   11.7552 S   0  0  0  0  0  0  0  0  0  0  0  0
   -2.5450    4.6786   12.5661 C   0  0  0  0  0  0  0  0  0  0  0  0
   -2.6752    2.0273   10.6544 C   0  0  0  0  0  0  0  0  0  0  0  0
   -1.9533    1.3913    9.6447 C   0  0  0  0  0  0  0  0  0  0  0  0
    0.3741    1.6739    7.3603 C   0  0  0  0  0  0  0  0  0  0  0  0
    1.2947    0.7201    7.8232 C   0  0  0  0  0  0  0  0  0  0  0  0
    2.6590    0.8813    7.5746 C   0  0  0  0  0  0  0  0  0  0  0  0
    3.1094    1.9964    6.8591 C   0  0  0  0  0  0  0  0  0  0  0  0
    4.8331    2.1021    6.3890 S   0  0  0  0  0  0  0  0  0  0  0  0
    4.5624    1.1956    4.8285 C   0  0  0  0  0  0  0  0  0  0  0  0
    2.2051    2.9932    6.4726 C   0  0  0  0  0  0  0  0  0  0  0  0
    0.8394    2.8340    6.7256 C   0  0  0  0  0  0  0  0  0  0  0  0
   -0.8190   -0.1425    5.3906 C   0  0  0  0  0  0  0  0  0  0  0  0
    0.0116    0.7210    4.2211 S   0  0  0  0  0  0  0  0  0  0  0  0
    0.0023   -0.5253    3.0612 C   0  0  0  0  0  0  0  0  0  0  0  0
   -0.6373   -1.6481    3.6260 C   0  0  0  0  0  0  0  0  0  0  0  0
   -0.6221   -2.9757    3.0712 N   0  0  0  0  0  0  0  0  0  0  0  0
    0.6462   -3.6371    2.8464 C   0  0  0  0  0  0  0  0  0  0  0  0
    1.7773   -3.3105    3.6208 C   0  0  0  0  0  0  0  0  0  0  0  0
    2.9930   -3.9654    3.4108 C   0  0  0  0  0  0  0  0  0  0  0  0
    3.0995   -4.9467    2.4205 C   0  0  0  0  0  0  0  0  0  0  0  0
    4.6576   -5.8033    2.1703 S   0  0  0  0  0  0  0  0  0  0  0  0
    5.2899   -4.5431    1.0163 C   0  0  0  0  0  0  0  0  0  0  0  0
    1.9854   -5.2699    1.6376 C   0  0  0  0  0  0  0  0  0  0  0  0
    0.7657   -4.6249    1.8497 C   0  0  0  0  0  0  0  0  0  0  0  0
   -1.8282   -3.7576    3.1094 C   0  0  0  0  0  0  0  0  0  0  0  0
   -2.9788   -3.3199    2.4389 C   0  0  0  0  0  0  0  0  0  0  0  0
   -4.1660   -4.0507    2.5363 C   0  0  0  0  0  0  0  0  0  0  0  0
   -4.2225   -5.1989    3.3365 C   0  0  0  0  0  0  0  0  0  0  0  0
   -5.7480   -6.1303    3.4769 S   0  0  0  0  0  0  0  0  0  0  0  0
   -5.3124   -7.2783    2.1296 C   0  0  0  0  0  0  0  0  0  0  0  0
   -3.0789   -5.6299    4.0186 C   0  0  0  0  0  0  0  0  0  0  0  0
   -1.8861   -4.9228    3.8981 C   0  0  0  0  0  0  0  0  0  0  0  0
   -1.1291   -1.3635    4.9005 C   0  0  0  0  0  0  0  0  0  0  0  0
   -2.2612   -2.0925    5.8902 S   0  0  0  0  0  0  0  0  0  0  0  0
    0.1777   -0.2938    1.6110 C   0  0  0  0  0  0  0  0  0  0  0  0
   -0.0114    0.9331    0.9466 C   0  0  0  0  0  0  0  0  0  0  0  0
   -0.0580    2.2249    1.5759 N   0  0  0  0  0  0  0  0  0  0  0  0
    1.1740    2.9105    1.9223 C   0  0  0  0  0  0  0  0  0  0  0  0
    1.1621    3.9540    2.8691 C   0  0  0  0  0  0  0  0  0  0  0  0
    2.3019    4.7344    3.0805 C   0  0  0  0  0  0  0  0  0  0  0  0
    3.4835    4.4559    2.3890 C   0  0  0  0  0  0  0  0  0  0  0  0
    4.8976    5.5451    2.5459 S   0  0  0  0  0  0  0  0  0  0  0  0
    5.5861    4.6725    3.9853 C   0  0  0  0  0  0  0  0  0  0  0  0
    3.5329    3.3686    1.5120 C   0  0  0  0  0  0  0  0  0  0  0  0
    2.3865    2.6006    1.2781 C   0  0  0  0  0  0  0  0  0  0  0  0
   -1.3097    2.9420    1.5131 C   0  0  0  0  0  0  0  0  0  0  0  0
   -1.3578    4.2623    1.0304 C   0  0  0  0  0  0  0  0  0  0  0  0
   -2.5744    4.9483    0.9575 C   0  0  0  0  0  0  0  0  0  0  0  0
   -3.7608    4.3176    1.3434 C   0  0  0  0  0  0  0  0  0  0  0  0
   -5.3232    5.1924    1.2368 S   0  0  0  0  0  0  0  0  0  0  0  0
   -5.6315    4.6768   -0.4842 C   0  0  0  0  0  0  0  0  0  0  0  0
   -3.7258    2.9945    1.8025 C   0  0  0  0  0  0  0  0  0  0  0  0
   -2.5085    2.3074    1.8815 C   0  0  0  0  0  0  0  0  0  0  0  0
   -0.0423    0.7727   -0.4287 C   0  0  0  0  0  0  0  0  0  0  0  0
   -0.0169    1.8518   -1.7053 S   0  0  0  0  0  0  0  0  0  0  0  0
    0.2631    0.6458   -2.8724 C   0  0  0  0  0  0  0  0  0  0  0  0
    0.3610   -0.6126   -2.2457 C   0  0  0  0  0  0  0  0  0  0  0  0
    1.0001   -1.7668   -2.8173 N   0  0  0  0  0  0  0  0  0  0  0  0
    2.3832   -1.6961   -3.2318 C   0  0  0  0  0  0  0  0  0  0  0  0
    2.8224   -2.4175   -4.3545 C   0  0  0  0  0  0  0  0  0  0  0  0
    4.1455   -2.2999   -4.7977 C   0  0  0  0  0  0  0  0  0  0  0  0
    5.0394   -1.4663   -4.1178 C   0  0  0  0  0  0  0  0  0  0  0  0
    6.7249   -1.2763   -4.7084 S   0  0  0  0  0  0  0  0  0  0  0  0
    6.3313    0.2095   -5.6853 C   0  0  0  0  0  0  0  0  0  0  0  0
    4.6179   -0.7721   -2.9798 C   0  0  0  0  0  0  0  0  0  0  0  0
    3.2930   -0.8723   -2.5478 C   0  0  0  0  0  0  0  0  0  0  0  0
    0.3379   -3.0407   -2.7202 C   0  0  0  0  0  0  0  0  0  0  0  0
   -0.9907   -3.1843   -3.1518 C   0  0  0  0  0  0  0  0  0  0  0  0
   -1.6514   -4.4076   -3.0098 C   0  0  0  0  0  0  0  0  0  0  0  0
   -0.9946   -5.4956   -2.4183 C   0  0  0  0  0  0  0  0  0  0  0  0
   -1.8430   -7.0599   -2.1981 S   0  0  0  0  0  0  0  0  0  0  0  0
   -2.6474   -6.5705   -0.6375 C   0  0  0  0  0  0  0  0  0  0  0  0
    0.3325   -5.3584   -1.9919 C   0  0  0  0  0  0  0  0  0  0  0  0
    0.9967   -4.1410   -2.1459 C   0  0  0  0  0  0  0  0  0  0  0  0
    0.1514   -0.4891   -0.8768 C   0  0  0  0  0  0  0  0  0  0  0  0
    0.3426   -1.5204    0.4303 S   0  0  0  0  0  0  0  0  0  0  0  0
    0.6676    0.9780   -4.2412 C   0  0  0  0  0  0  0  0  0  0  0  0
    0.8098    0.0933   -5.3052 C   0  0  0  0  0  0  0  0  0  0  0  0
    1.4146    0.8361   -6.2938 C   0  0  0  0  0  0  0  0  0  0  0  0
    1.9896    0.4366   -7.5108 C   0  0  0  0  0  0  0  0  0  0  0  0
    1.9243   -0.9580   -7.9795 C   0  0  0  0  0  0  0  0  0  0  0  0
    3.0949   -1.6780   -8.2441 C   0  0  0  0  0  0  0  0  0  0  0  0
    3.0289   -3.0213   -8.6250 C   0  0  0  0  0  0  0  0  0  0  0  0
    1.7851   -3.6518   -8.7773 C   0  0  0  0  0  0  0  0  0  0  0  0
    1.7034   -5.1115   -9.1411 C   0  0  0  0  0  0  0  0  0  0  0  0
    1.4909   -5.9636   -7.8930 C   0  0  0  0  0  0  0  0  0  0  0  0
    0.6078   -2.9286   -8.5250 C   0  0  0  0  0  0  0  0  0  0  0  0
    0.6773   -1.5914   -8.1222 C   0  0  0  0  0  0  0  0  0  0  0  0
    2.7295    1.4287   -8.1797 C   0  0  0  0  0  0  0  0  0  0  0  0
    2.8027    2.7319   -7.7138 C   0  0  0  0  0  0  0  0  0  0  0  0
    2.1860    3.1425   -6.5145 C   0  0  0  0  0  0  0  0  0  0  0  0
    2.2304    4.5387   -6.0212 C   0  0  0  0  0  0  0  0  0  0  0  0
    1.9036    5.5975   -6.8858 C   0  0  0  0  0  0  0  0  0  0  0  0
    1.9079    6.9154   -6.4244 C   0  0  0  0  0  0  0  0  0  0  0  0
    2.2157    7.1923   -5.0848 C   0  0  0  0  0  0  0  0  0  0  0  0
    2.2348    8.6175   -4.5969 C   0  0  0  0  0  0  0  0  0  0  0  0
    3.5949    9.2588   -4.8471 C   0  0  0  0  0  0  0  0  0  0  0  0
    2.5482    6.1390   -4.2167 C   0  0  0  0  0  0  0  0  0  0  0  0
    2.5463    4.8204   -4.6798 C   0  0  0  0  0  0  0  0  0  0  0  0
    1.5398    2.1230   -5.8004 C   0  0  0  0  0  0  0  0  0  0  0  0
    1.0622    2.1882   -4.5856 O   0  0  0  0  0  0  0  0  0  0  0  0
    3.6575    3.4010   -8.5604 C   0  0  0  0  0  0  0  0  0  0  0  0
    4.0615    2.4418   -9.4844 C   0  0  0  0  0  0  0  0  0  0  0  0
    3.4698    1.2855   -9.2525 O   0  0  0  0  0  0  0  0  0  0  0  0
    5.0160    2.6503  -10.5834 C   0  0  0  0  0  0  0  0  0  0  0  0
    6.2146    3.2346  -10.4502 C   0  0  0  0  0  0  0  0  0  0  0  0
    7.2676    3.5014  -11.8866 S   0  0  0  0  0  0  0  0  0  0  0  0
    8.5028    4.1874  -10.7849 C   0  0  0  0  0  0  0  0  0  0  0  0
    9.6147    4.6006  -11.2080 O   0  0  0  0  0  0  0  0  0  0  0  0
    8.1565    4.2205   -9.4038 N   0  0  0  0  0  0  0  0  0  0  0  0
    9.0699    4.6139   -8.3279 C   0  0  0  0  0  0  0  0  0  0  0  0
    9.8948    3.4205   -7.8619 C   0  0  0  0  0  0  0  0  0  0  0  0
    6.8839    3.6281   -9.1997 C   0  0  0  0  0  0  0  0  0  0  0  0
    6.4402    3.3827   -8.0456 O   0  0  0  0  0  0  0  0  0  0  0  0
   -3.4378   -0.6687    8.8733 H   0  0  0  0  0  0  0  0  0  0  0  0
   -8.2245   -2.9767    8.5280 H   0  0  0  0  0  0  0  0  0  0  0  0
   -6.5880   -2.3760    3.7286 H   0  0  0  0  0  0  0  0  0  0  0  0
   -8.6623   -5.1153    4.1053 H   0  0  0  0  0  0  0  0  0  0  0  0
  -10.2651   -3.6383    2.7241 H   0  0  0  0  0  0  0  0  0  0  0  0
  -10.5321   -1.2465    3.8575 H   0  0  0  0  0  0  0  0  0  0  0  0
  -11.3744   -1.5874    6.2936 H   0  0  0  0  0  0  0  0  0  0  0  0
  -11.6516   -4.1900    6.7234 H   0  0  0  0  0  0  0  0  0  0  0  0
  -11.3260   -5.4437    4.3890 H   0  0  0  0  0  0  0  0  0  0  0  0
  -12.4283   -4.0049    4.2029 H   0  0  0  0  0  0  0  0  0  0  0  0
   -9.4180   -5.4075    6.3174 H   0  0  0  0  0  0  0  0  0  0  0  0
   -2.2521    3.7405    7.2000 H   0  0  0  0  0  0  0  0  0  0  0  0
   -3.4792    4.8939    8.9997 H   0  0  0  0  0  0  0  0  0  0  0  0
   -2.7980    5.3182   13.4362 H   0  0  0  0  0  0  0  0  0  0  0  0
   -1.9153    5.2583   11.8594 H   0  0  0  0  0  0  0  0  0  0  0  0
   -1.9885    3.7920   12.9271 H   0  0  0  0  0  0  0  0  0  0  0  0
   -2.7731    1.5540   11.6225 H   0  0  0  0  0  0  0  0  0  0  0  0
   -1.4847    0.4311    9.8435 H   0  0  0  0  0  0  0  0  0  0  0  0
    0.9437   -0.1822    8.3072 H   0  0  0  0  0  0  0  0  0  0  0  0
    3.3541    0.1092    7.8845 H   0  0  0  0  0  0  0  0  0  0  0  0
    4.1843    0.1757    5.0419 H   0  0  0  0  0  0  0  0  0  0  0  0
    3.8321    1.7384    4.1898 H   0  0  0  0  0  0  0  0  0  0  0  0
    5.5226    1.1071    4.2812 H   0  0  0  0  0  0  0  0  0  0  0  0
    2.5492    3.8626    5.9250 H   0  0  0  0  0  0  0  0  0  0  0  0
    0.1385    3.5679    6.3528 H   0  0  0  0  0  0  0  0  0  0  0  0
    1.7213   -2.5595    4.3985 H   0  0  0  0  0  0  0  0  0  0  0  0
    3.8520   -3.7091    4.0190 H   0  0  0  0  0  0  0  0  0  0  0  0
    6.2927   -4.8599    0.6598 H   0  0  0  0  0  0  0  0  0  0  0  0
    5.3829   -3.5642    1.5305 H   0  0  0  0  0  0  0  0  0  0  0  0
    4.6103   -4.4455    0.1459 H   0  0  0  0  0  0  0  0  0  0  0  0
    2.0657   -6.0303    0.8715 H   0  0  0  0  0  0  0  0  0  0  0  0
   -0.0841   -4.8833    1.2314 H   0  0  0  0  0  0  0  0  0  0  0  0
   -2.9483   -2.4180    1.8378 H   0  0  0  0  0  0  0  0  0  0  0  0
   -5.0486   -3.7144    2.0030 H   0  0  0  0  0  0  0  0  0  0  0  0
   -4.3323   -7.7618    2.3289 H   0  0  0  0  0  0  0  0  0  0  0  0
   -5.2680   -6.7226    1.1705 H   0  0  0  0  0  0  0  0  0  0  0  0
   -6.0916   -8.0680    2.0522 H   0  0  0  0  0  0  0  0  0  0  0  0
   -3.1164   -6.5157    4.6370 H   0  0  0  0  0  0  0  0  0  0  0  0
   -1.0069   -5.2543    4.4413 H   0  0  0  0  0  0  0  0  0  0  0  0
    0.2526    4.1933    3.4064 H   0  0  0  0  0  0  0  0  0  0  0  0
    2.2551    5.5719    3.7631 H   0  0  0  0  0  0  0  0  0  0  0  0
    4.8560    4.6908    4.8193 H   0  0  0  0  0  0  0  0  0  0  0  0
    6.5136    5.1893    4.3138 H   0  0  0  0  0  0  0  0  0  0  0  0
    5.8369    3.6282    3.7153 H   0  0  0  0  0  0  0  0  0  0  0  0
    4.4468    3.1408    0.9732 H   0  0  0  0  0  0  0  0  0  0  0  0
    2.4494    1.7964    0.5545 H   0  0  0  0  0  0  0  0  0  0  0  0
   -0.4531    4.7626    0.7016 H   0  0  0  0  0  0  0  0  0  0  0  0
   -2.5898    5.9673    0.5856 H   0  0  0  0  0  0  0  0  0  0  0  0
   -5.5596    3.5722   -0.5721 H   0  0  0  0  0  0  0  0  0  0  0  0
   -6.6511    4.9969   -0.7853 H   0  0  0  0  0  0  0  0  0  0  0  0
   -4.8894    5.1568   -1.1582 H   0  0  0  0  0  0  0  0  0  0  0  0
   -4.6434    2.4966    2.0915 H   0  0  0  0  0  0  0  0  0  0  0  0
   -2.5007    1.2869    2.2408 H   0  0  0  0  0  0  0  0  0  0  0  0
    2.1374   -3.0516   -4.9063 H   0  0  0  0  0  0  0  0  0  0  0  0
    4.4638   -2.8498   -5.6746 H   0  0  0  0  0  0  0  0  0  0  0  0
    7.2532    0.5691   -6.1837 H   0  0  0  0  0  0  0  0  0  0  0  0
    5.9455    1.0120   -5.0231 H   0  0  0  0  0  0  0  0  0  0  0  0
    5.5751   -0.0308   -6.4560 H   0  0  0  0  0  0  0  0  0  0  0  0
    5.3066   -0.1306   -2.4452 H   0  0  0  0  0  0  0  0  0  0  0  0
    2.9835   -0.3198   -1.6713 H   0  0  0  0  0  0  0  0  0  0  0  0
   -1.5057   -2.3489   -3.6042 H   0  0  0  0  0  0  0  0  0  0  0  0
   -2.6768   -4.5067   -3.3471 H   0  0  0  0  0  0  0  0  0  0  0  0
   -1.9631   -5.9708   -0.0006 H   0  0  0  0  0  0  0  0  0  0  0  0
   -3.5538   -5.9756   -0.8700 H   0  0  0  0  0  0  0  0  0  0  0  0
   -2.9500   -7.4809   -0.0802 H   0  0  0  0  0  0  0  0  0  0  0  0
    0.8509   -6.1962   -1.5385 H   0  0  0  0  0  0  0  0  0  0  0  0
    2.0172   -4.0461   -1.7956 H   0  0  0  0  0  0  0  0  0  0  0  0
    0.5850   -0.9649   -5.3216 H   0  0  0  0  0  0  0  0  0  0  0  0
    4.0650   -1.2123   -8.1225 H   0  0  0  0  0  0  0  0  0  0  0  0
    3.9500   -3.5708   -8.7915 H   0  0  0  0  0  0  0  0  0  0  0  0
    2.6370   -5.4366   -9.6501 H   0  0  0  0  0  0  0  0  0  0  0  0
    0.8635   -5.2786   -9.8486 H   0  0  0  0  0  0  0  0  0  0  0  0
    2.3303   -5.8237   -7.1784 H   0  0  0  0  0  0  0  0  0  0  0  0
    0.5412   -5.6788   -7.3909 H   0  0  0  0  0  0  0  0  0  0  0  0
    1.4292   -7.0352   -8.1765 H   0  0  0  0  0  0  0  0  0  0  0  0
   -0.3610   -3.4050   -8.6214 H   0  0  0  0  0  0  0  0  0  0  0  0
   -0.2394   -1.0546   -7.9159 H   0  0  0  0  0  0  0  0  0  0  0  0
    1.6330    5.4010   -7.9153 H   0  0  0  0  0  0  0  0  0  0  0  0
    1.6578    7.7156   -7.1079 H   0  0  0  0  0  0  0  0  0  0  0  0
    2.0077    8.6564   -3.5113 H   0  0  0  0  0  0  0  0  0  0  0  0
    1.4491    9.2078   -5.1177 H   0  0  0  0  0  0  0  0  0  0  0  0
    3.5731   10.3185   -4.5188 H   0  0  0  0  0  0  0  0  0  0  0  0
    3.8469    9.2312   -5.9326 H   0  0  0  0  0  0  0  0  0  0  0  0
    4.3837    8.7242   -4.2735 H   0  0  0  0  0  0  0  0  0  0  0  0
    2.7972    6.3418   -3.1852 H   0  0  0  0  0  0  0  0  0  0  0  0
    2.8036    4.0288   -3.9931 H   0  0  0  0  0  0  0  0  0  0  0  0
    3.9901    4.4289   -8.4856 H   0  0  0  0  0  0  0  0  0  0  0  0
    4.7272    2.2782  -11.5530 H   0  0  0  0  0  0  0  0  0  0  0  0
    8.4916    5.0174   -7.4710 H   0  0  0  0  0  0  0  0  0  0  0  0
    9.7502    5.4176   -8.6807 H   0  0  0  0  0  0  0  0  0  0  0  0
    9.2298    2.6221   -7.4668 H   0  0  0  0  0  0  0  0  0  0  0  0
   10.5906    3.7378   -7.0570 H   0  0  0  0  0  0  0  0  0  0  0  0
   10.4898    3.0138   -8.7090 H   0  0  0  0  0  0  0  0  0  0  0  0
  1  2  2  3
  2  3  1  0
  3  4  2  0
  3  5  1  0
  5  6  2  0
  6  7  1  0
  7  8  2  0
  8  9  1  0
  9 10  2  0
 10 11  1  0
 11 12  2  3
 12 13  1  0
 13 14  3  0
 12 15  1  0
 15 16  3  0
  8 17  1  0
 17 18  1  0
 18 19  1  0
 19 20  2  0
 20 21  1  0
 21 22  1  0
 21 23  1  0
  1 24  1  0
 24 25  2  0
 25 26  1  0
 26 27  1  0
 27 28  2  0
 28 29  1  0
 29 30  2  0
 30 31  1  0
 31 32  1  0
 30 33  1  0
 33 34  2  0
 26 35  1  0
 35 36  2  0
 36 37  1  0
 37 38  2  0
 38 39  1  0
 39 40  1  0
 38 41  1  0
 41 42  2  0
 25 43  1  0
 43 44  1  0
 44 45  1  0
 45 46  2  0
 46 47  1  0
 47 48  1  0
 48 49  2  0
 49 50  1  0
 50 51  2  0
 51 52  1  0
 52 53  1  0
 51 54  1  0
 54 55  2  0
 47 56  1  0
 56 57  2  0
 57 58  1  0
 58 59  2  0
 59 60  1  0
 60 61  1  0
 59 62  1  0
 62 63  2  0
 46 64  1  0
 64 65  1  0
 45 66  1  0
 66 67  2  0
 67 68  1  0
 68 69  1  0
 69 70  2  0
 70 71  1  0
 71 72  2  0
 72 73  1  0
 73 74  1  0
 72 75  1  0
 75 76  2  0
 68 77  1  0
 77 78  2  0
 78 79  1  0
 79 80  2  0
 80 81  1  0
 81 82  1  0
 80 83  1  0
 83 84  2  0
 67 85  1  0
 85 86  1  0
 86 87  1  0
 87 88  2  0
 88 89  1  0
 89 90  1  0
 90 91  2  0
 91 92  1  0
 92 93  2  0
 93 94  1  0
 94 95  1  0
 93 96  1  0
 96 97  2  0
 89 98  1  0
 98 99  2  0
 99100  1  0
100101  2  0
101102  1  0
102103  1  0
101104  1  0
104105  2  0
 88106  1  0
106107  1  0
 87108  1  0
108109  2  0
109110  1  0
110111  2  0
111112  1  0
112113  2  0
113114  1  0
114115  2  0
115116  1  0
116117  1  0
115118  1  0
118119  2  0
111120  1  0
120121  2  0
121122  1  0
122123  1  0
123124  2  0
124125  1  0
125126  2  0
126127  1  0
127128  1  0
126129  1  0
129130  2  0
122131  2  0
131132  1  0
121133  1  0
133134  2  0
134135  1  0
134136  1  0
136137  2  3
137138  1  0
138139  1  0
139140  2  0
139141  1  0
141142  1  0
142143  1  0
141144  1  0
144145  2  0
 11  2  1  0
 23 17  1  0
 65 24  1  0
107 66  1  0
132108  1  0
144137  1  0
 10  5  1  0
 22 18  1  0
 34 27  1  0
 42 35  1  0
 64 43  2  0
 76 69  1  0
 84 77  1  0
106 85  2  0
131110  1  0
 23  7  1  0
 55 48  1  0
 63 56  1  0
 97 90  1  0
105 98  1  0
119112  1  0
135120  1  0
130123  1  0
  1146  1  0
  6147  1  0
  9148  1  0
 17149  1  0
 18150  1  0
 19151  1  0
 20152  1  0
 21153  1  0
 22154  1  0
 22155  1  0
 23156  1  0
 28157  1  0
 29158  1  0
 32159  1  0
 32160  1  0
 32161  1  0
 33162  1  0
 34163  1  0
 36164  1  0
 37165  1  0
 40166  1  0
 40167  1  0
 40168  1  0
 41169  1  0
 42170  1  0
 49171  1  0
 50172  1  0
 53173  1  0
 53174  1  0
 53175  1  0
 54176  1  0
 55177  1  0
 57178  1  0
 58179  1  0
 61180  1  0
 61181  1  0
 61182  1  0
 62183  1  0
 63184  1  0
 70185  1  0
 71186  1  0
 74187  1  0
 74188  1  0
 74189  1  0
 75190  1  0
 76191  1  0
 78192  1  0
 79193  1  0
 82194  1  0
 82195  1  0
 82196  1  0
 83197  1  0
 84198  1  0
 91199  1  0
 92200  1  0
 95201  1  0
 95202  1  0
 95203  1  0
 96204  1  0
 97205  1  0
 99206  1  0
100207  1  0
103208  1  0
103209  1  0
103210  1  0
104211  1  0
105212  1  0
109213  1  0
113214  1  0
114215  1  0
116216  1  0
116217  1  0
117218  1  0
117219  1  0
117220  1  0
118221  1  0
119222  1  0
124223  1  0
125224  1  0
127225  1  0
127226  1  0
128227  1  0
128228  1  0
128229  1  0
129230  1  0
130231  1  0
133232  1  0
136233  1  0
142234  1  0
142235  1  0
143236  1  0
143237  1  0
143238  1  0
M  END

