
     RDKit          3D

206229  0  0  0  0  0  0  0  0999 V2000
    6.8623   -6.0139   -0.5848 C   0  0  0  0  0  0  0  0  0  0  0  0
    7.1483   -4.7383   -0.2589 C   0  0  0  0  0  0  0  0  0  0  0  0
    8.5096   -4.2101   -0.2340 C   0  0  0  0  0  0  0  0  0  0  0  0
    9.5361   -4.7944   -0.6740 O   0  0  0  0  0  0  0  0  0  0  0  0
    8.4893   -2.9067    0.3921 C   0  0  0  0  0  0  0  0  0  0  0  0
    9.5662   -1.9927    0.4808 C   0  0  0  0  0  0  0  0  0  0  0  0
    9.2112   -0.7497    0.9684 C   0  0  0  0  0  0  0  0  0  0  0  0
    7.8767   -0.4219    1.3662 C   0  0  0  0  0  0  0  0  0  0  0  0
    6.8180   -1.3094    1.2864 C   0  0  0  0  0  0  0  0  0  0  0  0
    7.1566   -2.5921    0.7708 C   0  0  0  0  0  0  0  0  0  0  0  0
    6.2529   -3.6778    0.3018 C   0  0  0  0  0  0  0  0  0  0  0  0
    4.9582   -3.4750   -0.0322 C   0  0  0  0  0  0  0  0  0  0  0  0
    4.0761   -2.6759    0.7796 C   0  0  0  0  0  0  0  0  0  0  0  0
    3.3576   -2.0457    1.4332 N   0  0  0  0  0  0  0  0  0  0  0  0
    4.4374   -3.9039   -1.3040 C   0  0  0  0  0  0  0  0  0  0  0  0
    4.0087   -4.2088   -2.3342 N   0  0  0  0  0  0  0  0  0  0  0  0
    8.2904    0.9912    1.6577 C   0  0  0  0  0  0  0  0  0  0  0  0
    7.8578    2.0933    0.6416 C   0  0  0  0  0  0  0  0  0  0  0  0
    7.7512    1.5062   -0.7478 C   0  0  0  0  0  0  0  0  0  0  0  0
    8.9906    1.1956   -1.1249 C   0  0  0  0  0  0  0  0  0  0  0  0
    9.9030    1.5879    0.0173 C   0  0  0  0  0  0  0  0  0  0  0  0
    9.1738    2.8343    0.4820 C   0  0  0  0  0  0  0  0  0  0  0  0
    9.6573    0.6564    1.2446 C   0  0  0  0  0  0  0  0  0  0  0  0
    5.5389   -6.6310   -0.4270 C   0  0  0  0  0  0  0  0  0  0  0  0
    4.7691   -7.0780   -1.4947 C   0  0  0  0  0  0  0  0  0  0  0  0
    3.4266   -7.2921   -1.1416 C   0  0  0  0  0  0  0  0  0  0  0  0
    2.3639   -7.4560   -2.0487 C   0  0  0  0  0  0  0  0  0  0  0  0
    2.6021   -7.5166   -3.5067 C   0  0  0  0  0  0  0  0  0  0  0  0
    3.1417   -8.6730   -4.0852 C   0  0  0  0  0  0  0  0  0  0  0  0
    3.4484   -8.7002   -5.4507 C   0  0  0  0  0  0  0  0  0  0  0  0
    3.9629   -9.8362   -5.9884 F   0  0  0  0  0  0  0  0  0  0  0  0
    3.2435   -7.5568   -6.2460 C   0  0  0  0  0  0  0  0  0  0  0  0
    3.5809   -7.5725   -7.7156 C   0  0  0  0  0  0  0  0  0  0  0  0
    2.3497   -7.9019   -8.5534 C   0  0  0  0  0  0  0  0  0  0  0  0
    2.6803   -6.4057   -5.6632 C   0  0  0  0  0  0  0  0  0  0  0  0
    2.4575   -5.2943   -6.4089 F   0  0  0  0  0  0  0  0  0  0  0  0
    2.3605   -6.3889   -4.3040 C   0  0  0  0  0  0  0  0  0  0  0  0
    1.0667   -7.3595   -1.5237 C   0  0  0  0  0  0  0  0  0  0  0  0
    0.8112   -7.1702   -0.1618 C   0  0  0  0  0  0  0  0  0  0  0  0
    1.8782   -7.0801    0.7576 C   0  0  0  0  0  0  0  0  0  0  0  0
    1.6675   -6.8758    2.2046 C   0  0  0  0  0  0  0  0  0  0  0  0
    2.0252   -7.8875    3.1065 C   0  0  0  0  0  0  0  0  0  0  0  0
    1.8574   -7.7004    4.4823 C   0  0  0  0  0  0  0  0  0  0  0  0
    1.3525   -6.4841    4.9749 C   0  0  0  0  0  0  0  0  0  0  0  0
    1.1478   -6.2817    6.4570 C   0  0  0  0  0  0  0  0  0  0  0  0
   -0.2679   -6.6761    6.8683 C   0  0  0  0  0  0  0  0  0  0  0  0
    0.9873   -5.4738    4.0664 C   0  0  0  0  0  0  0  0  0  0  0  0
    1.1481   -5.6672    2.6897 C   0  0  0  0  0  0  0  0  0  0  0  0
    0.4742   -4.3016    4.5174 F   0  0  0  0  0  0  0  0  0  0  0  0
    2.1878   -8.7077    5.3304 F   0  0  0  0  0  0  0  0  0  0  0  0
    3.1770   -7.1048    0.2216 C   0  0  0  0  0  0  0  0  0  0  0  0
    4.5996   -6.6159    0.9786 S   0  0  0  0  0  0  0  0  0  0  0  0
   -0.5474   -6.9398    0.1186 C   0  0  0  0  0  0  0  0  0  0  0  0
   -1.3399   -6.8989   -1.0312 C   0  0  0  0  0  0  0  0  0  0  0  0
   -0.3693   -7.2146   -2.3768 S   0  0  0  0  0  0  0  0  0  0  0  0
   -2.6770   -6.2886   -1.1212 C   0  0  0  0  0  0  0  0  0  0  0  0
   -3.2324   -5.5129   -2.5334 S   0  0  0  0  0  0  0  0  0  0  0  0
   -4.4862   -4.7248   -1.7634 C   0  0  0  0  0  0  0  0  0  0  0  0
   -4.9797   -3.4564   -1.9078 C   0  0  0  0  0  0  0  0  0  0  0  0
   -5.2544   -3.0033   -0.6491 C   0  0  0  0  0  0  0  0  0  0  0  0
   -4.9536   -3.9324    0.2971 N   0  0  0  0  0  0  0  0  0  0  0  0
   -4.7036   -3.6643    1.7163 C   0  0  0  0  0  0  0  0  0  0  0  0
   -3.3184   -3.0521    1.9264 C   0  0  0  0  0  0  0  0  0  0  0  0
   -4.4497   -4.9740   -0.4184 C   0  0  0  0  0  0  0  0  0  0  0  0
   -3.4528   -5.8761   -0.0270 C   0  0  0  0  0  0  0  0  0  0  0  0
   -5.2347   -1.6123   -0.5175 C   0  0  0  0  0  0  0  0  0  0  0  0
   -4.8311   -0.9884   -1.7090 C   0  0  0  0  0  0  0  0  0  0  0  0
   -4.5194   -2.1781   -2.8908 S   0  0  0  0  0  0  0  0  0  0  0  0
   -4.5314    0.4477   -1.8983 C   0  0  0  0  0  0  0  0  0  0  0  0
   -4.8048    1.5175   -1.0235 C   0  0  0  0  0  0  0  0  0  0  0  0
   -5.0764    1.3800    0.3811 N   0  0  0  0  0  0  0  0  0  0  0  0
   -3.9876    1.0668    1.2867 C   0  0  0  0  0  0  0  0  0  0  0  0
   -2.6504    1.3705    0.9522 C   0  0  0  0  0  0  0  0  0  0  0  0
   -1.6126    1.0852    1.8371 C   0  0  0  0  0  0  0  0  0  0  0  0
   -1.8817    0.4640    3.0591 C   0  0  0  0  0  0  0  0  0  0  0  0
   -0.5291    0.0906    4.1709 S   0  0  0  0  0  0  0  0  0  0  0  0
   -0.1499   -1.5007    3.3778 C   0  0  0  0  0  0  0  0  0  0  0  0
   -3.2020    0.1482    3.4041 C   0  0  0  0  0  0  0  0  0  0  0  0
   -4.2491    0.4481    2.5254 C   0  0  0  0  0  0  0  0  0  0  0  0
   -6.3092    1.9327    0.8785 C   0  0  0  0  0  0  0  0  0  0  0  0
   -6.3013    2.8808    1.9176 C   0  0  0  0  0  0  0  0  0  0  0  0
   -7.4963    3.4505    2.3635 C   0  0  0  0  0  0  0  0  0  0  0  0
   -8.7113    3.0798    1.7760 C   0  0  0  0  0  0  0  0  0  0  0  0
  -10.2426    3.8150    2.3494 S   0  0  0  0  0  0  0  0  0  0  0  0
  -10.4954    2.5653    3.6477 C   0  0  0  0  0  0  0  0  0  0  0  0
   -8.7281    2.1414    0.7381 C   0  0  0  0  0  0  0  0  0  0  0  0
   -7.5312    1.5728    0.2869 C   0  0  0  0  0  0  0  0  0  0  0  0
   -4.3479    2.7242   -1.5445 C   0  0  0  0  0  0  0  0  0  0  0  0
   -4.2401    4.2451   -0.8827 S   0  0  0  0  0  0  0  0  0  0  0  0
   -3.2003    4.8448   -2.0897 C   0  0  0  0  0  0  0  0  0  0  0  0
   -2.9144    3.8234   -3.0317 C   0  0  0  0  0  0  0  0  0  0  0  0
   -1.8804    3.8956   -4.0537 N   0  0  0  0  0  0  0  0  0  0  0  0
   -0.9665    4.9995   -4.1136 C   0  0  0  0  0  0  0  0  0  0  0  0
   -0.9196    5.8133   -5.2553 C   0  0  0  0  0  0  0  0  0  0  0  0
    0.0048    6.8598   -5.3308 C   0  0  0  0  0  0  0  0  0  0  0  0
    0.8903    7.0954   -4.2719 C   0  0  0  0  0  0  0  0  0  0  0  0
    2.0374    8.4733   -4.3423 S   0  0  0  0  0  0  0  0  0  0  0  0
    3.3340    7.5137   -5.1816 C   0  0  0  0  0  0  0  0  0  0  0  0
    0.8573    6.2697   -3.1394 C   0  0  0  0  0  0  0  0  0  0  0  0
   -0.0551    5.2165   -3.0681 C   0  0  0  0  0  0  0  0  0  0  0  0
   -1.4330    2.7067   -4.7198 C   0  0  0  0  0  0  0  0  0  0  0  0
   -1.8487    2.4268   -6.0289 C   0  0  0  0  0  0  0  0  0  0  0  0
   -1.3843    1.2776   -6.6777 C   0  0  0  0  0  0  0  0  0  0  0  0
   -0.4969    0.4099   -6.0263 C   0  0  0  0  0  0  0  0  0  0  0  0
    0.1272   -1.0477   -6.8599 S   0  0  0  0  0  0  0  0  0  0  0  0
    1.5427   -0.1730   -7.5976 C   0  0  0  0  0  0  0  0  0  0  0  0
   -0.0817    0.6917   -4.7203 C   0  0  0  0  0  0  0  0  0  0  0  0
   -0.5420    1.8377   -4.0700 C   0  0  0  0  0  0  0  0  0  0  0  0
   -3.6267    2.6544   -2.6947 C   0  0  0  0  0  0  0  0  0  0  0  0
   -3.6478    1.0588   -3.2230 S   0  0  0  0  0  0  0  0  0  0  0  0
   -2.8234    6.2667   -2.1554 C   0  0  0  0  0  0  0  0  0  0  0  0
   -2.3531    6.9471   -1.0899 C   0  0  0  0  0  0  0  0  0  0  0  0
   -1.9725    6.3483    0.1979 C   0  0  0  0  0  0  0  0  0  0  0  0
   -1.6300    5.1508    0.3901 O   0  0  0  0  0  0  0  0  0  0  0  0
   -2.0004    7.3745    1.2168 C   0  0  0  0  0  0  0  0  0  0  0  0
   -1.9199    7.1843    2.6167 C   0  0  0  0  0  0  0  0  0  0  0  0
   -2.1924    8.3222    3.3528 C   0  0  0  0  0  0  0  0  0  0  0  0
   -2.5190    9.5786    2.7535 C   0  0  0  0  0  0  0  0  0  0  0  0
   -2.5847    9.7761    1.3831 C   0  0  0  0  0  0  0  0  0  0  0  0
   -2.2910    8.6194    0.6039 C   0  0  0  0  0  0  0  0  0  0  0  0
   -2.3755    8.4284   -0.8730 C   0  0  0  0  0  0  0  0  0  0  0  0
   -2.3109    9.4030   -1.8168 C   0  0  0  0  0  0  0  0  0  0  0  0
   -2.2693    9.1219   -3.2273 C   0  0  0  0  0  0  0  0  0  0  0  0
   -2.2404    8.9175   -4.3652 N   0  0  0  0  0  0  0  0  0  0  0  0
   -2.1569   10.7931   -1.4757 C   0  0  0  0  0  0  0  0  0  0  0  0
   -2.0275   11.9132   -1.2122 N   0  0  0  0  0  0  0  0  0  0  0  0
   -2.7060   10.1967    4.1086 C   0  0  0  0  0  0  0  0  0  0  0  0
   -1.5960   11.1531    4.6372 C   0  0  0  0  0  0  0  0  0  0  0  0
   -0.2526   10.7425    4.0801 C   0  0  0  0  0  0  0  0  0  0  0  0
    0.0541    9.5751    4.6426 C   0  0  0  0  0  0  0  0  0  0  0  0
   -1.0921    9.2266    5.5622 C   0  0  0  0  0  0  0  0  0  0  0  0
   -1.4408   10.6199    6.0501 C   0  0  0  0  0  0  0  0  0  0  0  0
   -2.3689    8.9091    4.7241 C   0  0  0  0  0  0  0  0  0  0  0  0
    7.6441   -6.6367   -0.9989 H   0  0  0  0  0  0  0  0  0  0  0  0
   10.5644   -2.2148    0.1294 H   0  0  0  0  0  0  0  0  0  0  0  0
    5.8218   -0.9920    1.5348 H   0  0  0  0  0  0  0  0  0  0  0  0
    8.2062    1.2768    2.7275 H   0  0  0  0  0  0  0  0  0  0  0  0
    6.9941    2.7181    0.9570 H   0  0  0  0  0  0  0  0  0  0  0  0
    6.8634    1.4257   -1.3601 H   0  0  0  0  0  0  0  0  0  0  0  0
    9.2803    0.8169   -2.0987 H   0  0  0  0  0  0  0  0  0  0  0  0
   10.9655    1.7379   -0.2644 H   0  0  0  0  0  0  0  0  0  0  0  0
    9.1308    3.6422   -0.2924 H   0  0  0  0  0  0  0  0  0  0  0  0
    9.5726    3.2536    1.4370 H   0  0  0  0  0  0  0  0  0  0  0  0
   10.4086    0.7457    2.0599 H   0  0  0  0  0  0  0  0  0  0  0  0
    5.1348   -7.0952   -2.5126 H   0  0  0  0  0  0  0  0  0  0  0  0
    3.3338   -9.5487   -3.4764 H   0  0  0  0  0  0  0  0  0  0  0  0
    3.9806   -6.5822   -8.0236 H   0  0  0  0  0  0  0  0  0  0  0  0
    4.3785   -8.3167   -7.9292 H   0  0  0  0  0  0  0  0  0  0  0  0
    2.6142   -7.8794   -9.6301 H   0  0  0  0  0  0  0  0  0  0  0  0
    1.9718   -8.9172   -8.2993 H   0  0  0  0  0  0  0  0  0  0  0  0
    1.5448   -7.1562   -8.3710 H   0  0  0  0  0  0  0  0  0  0  0  0
    1.9486   -5.4876   -3.8668 H   0  0  0  0  0  0  0  0  0  0  0  0
    2.4249   -8.8255    2.7422 H   0  0  0  0  0  0  0  0  0  0  0  0
    1.8791   -6.8836    7.0377 H   0  0  0  0  0  0  0  0  0  0  0  0
    1.3252   -5.2182    6.7261 H   0  0  0  0  0  0  0  0  0  0  0  0
   -1.0144   -6.0953    6.2857 H   0  0  0  0  0  0  0  0  0  0  0  0
   -0.4135   -6.4629    7.9472 H   0  0  0  0  0  0  0  0  0  0  0  0
   -0.4292   -7.7605    6.6912 H   0  0  0  0  0  0  0  0  0  0  0  0
    0.8744   -4.8733    2.0030 H   0  0  0  0  0  0  0  0  0  0  0  0
   -0.9190   -6.6959    1.1027 H   0  0  0  0  0  0  0  0  0  0  0  0
   -4.7823   -4.6093    2.2940 H   0  0  0  0  0  0  0  0  0  0  0  0
   -5.4795   -2.9713    2.1097 H   0  0  0  0  0  0  0  0  0  0  0  0
   -2.5297   -3.6950    1.4871 H   0  0  0  0  0  0  0  0  0  0  0  0
   -3.1248   -2.9413    3.0103 H   0  0  0  0  0  0  0  0  0  0  0  0
   -3.2609   -2.0534    1.4493 H   0  0  0  0  0  0  0  0  0  0  0  0
   -3.1898   -6.0645    1.0032 H   0  0  0  0  0  0  0  0  0  0  0  0
   -5.3614   -1.1165    0.4285 H   0  0  0  0  0  0  0  0  0  0  0  0
   -2.3960    1.8437    0.0160 H   0  0  0  0  0  0  0  0  0  0  0  0
   -0.5964    1.3369    1.5642 H   0  0  0  0  0  0  0  0  0  0  0  0
   -0.8827   -2.2578    3.7137 H   0  0  0  0  0  0  0  0  0  0  0  0
   -0.1781   -1.4216    2.2725 H   0  0  0  0  0  0  0  0  0  0  0  0
    0.8672   -1.8180    3.6768 H   0  0  0  0  0  0  0  0  0  0  0  0
   -3.4153   -0.3409    4.3452 H   0  0  0  0  0  0  0  0  0  0  0  0
   -5.2627    0.1852    2.8029 H   0  0  0  0  0  0  0  0  0  0  0  0
   -5.3686    3.1928    2.3683 H   0  0  0  0  0  0  0  0  0  0  0  0
   -7.4748    4.1805    3.1607 H   0  0  0  0  0  0  0  0  0  0  0  0
  -10.6146    1.5605    3.1886 H   0  0  0  0  0  0  0  0  0  0  0  0
   -9.6310    2.5601    4.3464 H   0  0  0  0  0  0  0  0  0  0  0  0
  -11.4148    2.8165    4.2154 H   0  0  0  0  0  0  0  0  0  0  0  0
   -9.6652    1.8541    0.2781 H   0  0  0  0  0  0  0  0  0  0  0  0
   -7.5559    0.8490   -0.5172 H   0  0  0  0  0  0  0  0  0  0  0  0
   -1.6004    5.6366   -6.0781 H   0  0  0  0  0  0  0  0  0  0  0  0
    0.0302    7.4908   -6.2097 H   0  0  0  0  0  0  0  0  0  0  0  0
    2.9759    7.1989   -6.1834 H   0  0  0  0  0  0  0  0  0  0  0  0
    4.2328    8.1505   -5.3036 H   0  0  0  0  0  0  0  0  0  0  0  0
    3.6031    6.6199   -4.5815 H   0  0  0  0  0  0  0  0  0  0  0  0
    1.5409    6.4397   -2.3199 H   0  0  0  0  0  0  0  0  0  0  0  0
   -0.0693    4.5755   -2.1951 H   0  0  0  0  0  0  0  0  0  0  0  0
   -2.5251    3.0997   -6.5417 H   0  0  0  0  0  0  0  0  0  0  0  0
   -1.7063    1.0644   -7.6900 H   0  0  0  0  0  0  0  0  0  0  0  0
    2.2280   -0.9110   -8.0636 H   0  0  0  0  0  0  0  0  0  0  0  0
    2.0998    0.3913   -6.8222 H   0  0  0  0  0  0  0  0  0  0  0  0
    1.1783    0.5254   -8.3777 H   0  0  0  0  0  0  0  0  0  0  0  0
    0.6041    0.0257   -4.2131 H   0  0  0  0  0  0  0  0  0  0  0  0
   -0.2139    2.0484   -3.0608 H   0  0  0  0  0  0  0  0  0  0  0  0
   -3.1022    6.7754   -3.0624 H   0  0  0  0  0  0  0  0  0  0  0  0
   -1.7311    6.2226    3.0731 H   0  0  0  0  0  0  0  0  0  0  0  0
   -2.9021   10.7221    0.9787 H   0  0  0  0  0  0  0  0  0  0  0  0
   -3.7457   10.5206    4.3173 H   0  0  0  0  0  0  0  0  0  0  0  0
   -1.8301   12.2368    4.5602 H   0  0  0  0  0  0  0  0  0  0  0  0
    0.3903   11.3188    3.4223 H   0  0  0  0  0  0  0  0  0  0  0  0
    0.9865    9.0364    4.5223 H   0  0  0  0  0  0  0  0  0  0  0  0
   -0.8503    8.4888    6.3560 H   0  0  0  0  0  0  0  0  0  0  0  0
   -2.3814   10.6630    6.6480 H   0  0  0  0  0  0  0  0  0  0  0  0
   -0.6153   11.1070    6.6207 H   0  0  0  0  0  0  0  0  0  0  0  0
   -3.2057    8.4554    5.3003 H   0  0  0  0  0  0  0  0  0  0  0  0
  1  2  2  3
  2  3  1  0
  3  4  2  0
  3  5  1  0
  5  6  2  0
  6  7  1  0
  7  8  2  0
  8  9  1  0
  9 10  2  0
 10 11  1  0
 11 12  2  3
 12 13  1  0
 13 14  3  0
 12 15  1  0
 15 16  3  0
  8 17  1  0
 17 18  1  0
 18 19  1  0
 19 20  2  0
 20 21  1  0
 21 22  1  0
 21 23  1  0
  1 24  1  0
 24 25  2  0
 25 26  1  0
 26 27  2  0
 27 28  1  0
 28 29  2  0
 29 30  1  0
 30 31  1  0
 30 32  2  0
 32 33  1  0
 33 34  1  0
 32 35  1  0
 35 36  1  0
 35 37  2  0
 27 38  1  0
 38 39  2  0
 39 40  1  0
 40 41  1  0
 41 42  2  0
 42 43  1  0
 43 44  2  0
 44 45  1  0
 45 46  1  0
 44 47  1  0
 47 48  2  0
 47 49  1  0
 43 50  1  0
 40 51  2  0
 51 52  1  0
 39 53  1  0
 53 54  2  0
 54 55  1  0
 54 56  1  0
 56 57  1  0
 57 58  1  0
 58 59  1  0
 59 60  2  0
 60 61  1  0
 61 62  1  0
 62 63  1  0
 61 64  1  0
 64 65  1  0
 60 66  1  0
 66 67  2  0
 67 68  1  0
 67 69  1  0
 69 70  2  0
 70 71  1  0
 71 72  1  0
 72 73  2  0
 73 74  1  0
 74 75  2  0
 75 76  1  0
 76 77  1  0
 75 78  1  0
 78 79  2  0
 71 80  1  0
 80 81  2  0
 81 82  1  0
 82 83  2  0
 83 84  1  0
 84 85  1  0
 83 86  1  0
 86 87  2  0
 70 88  1  0
 88 89  1  0
 89 90  1  0
 90 91  2  0
 91 92  1  0
 92 93  1  0
 93 94  2  0
 94 95  1  0
 95 96  2  0
 96 97  1  0
 97 98  1  0
 96 99  1  0
 99100  2  0
 92101  1  0
101102  2  0
102103  1  0
103104  2  0
104105  1  0
105106  1  0
104107  1  0
107108  2  0
 91109  1  0
109110  1  0
 90111  1  0
111112  2  3
112113  1  0
113114  2  0
113115  1  0
115116  2  0
116117  1  0
117118  2  0
118119  1  0
119120  2  0
120121  1  0
121122  2  3
122123  1  0
123124  3  0
122125  1  0
125126  3  0
118127  1  0
127128  1  0
128129  1  0
129130  2  0
130131  1  0
131132  1  0
131133  1  0
 11  2  1  0
 23 17  1  0
 52 24  1  0
 65 56  2  0
110 69  1  0
121112  1  0
133127  1  0
 10  5  1  0
 22 18  1  0
 51 26  1  0
 64 58  2  0
 79 72  1  0
 87 80  1  0
109 88  2  0
120115  1  0
132128  1  0
 23  7  1  0
 37 28  1  0
 55 38  1  0
 68 59  1  0
100 93  1  0
108101  1  0
133117  1  0
 48 41  1  0
  1134  1  0
  6135  1  0
  9136  1  0
 17137  1  0
 18138  1  0
 19139  1  0
 20140  1  0
 21141  1  0
 22142  1  0
 22143  1  0
 23144  1  0
 25145  1  0
 29146  1  0
 33147  1  0
 33148  1  0
 34149  1  0
 34150  1  0
 34151  1  0
 37152  1  0
 42153  1  0
 45154  1  0
 45155  1  0
 46156  1  0
 46157  1  0
 46158  1  0
 48159  1  0
 53160  1  0
 62161  1  0
 62162  1  0
 63163  1  0
 63164  1  0
 63165  1  0
 65166  1  0
 66167  1  0
 73168  1  0
 74169  1  0
 77170  1  0
 77171  1  0
 77172  1  0
 78173  1  0
 79174  1  0
 81175  1  0
 82176  1  0
 85177  1  0
 85178  1  0
 85179  1  0
 86180  1  0
 87181  1  0
 94182  1  0
 95183  1  0
 98184  1  0
 98185  1  0
 98186  1  0
 99187  1  0
100188  1  0
102189  1  0
103190  1  0
106191  1  0
106192  1  0
106193  1  0
107194  1  0
108195  1  0
111196  1  0
116197  1  0
119198  1  0
127199  1  0
128200  1  0
129201  1  0
130202  1  0
131203  1  0
132204  1  0
132205  1  0
133206  1  0
M  END

