
     RDKit          3D

216237  0  0  0  0  0  0  0  0999 V2000
   -3.6200   -1.3955    6.1955 C   0  0  0  0  0  0  0  0  0  0  0  0
   -2.3708   -1.9064    6.2587 C   0  0  0  0  0  0  0  0  0  0  0  0
   -1.9256   -3.0699    5.4906 C   0  0  0  0  0  0  0  0  0  0  0  0
   -2.5339   -4.1665    5.4259 O   0  0  0  0  0  0  0  0  0  0  0  0
   -0.5803   -2.8591    5.0210 C   0  0  0  0  0  0  0  0  0  0  0  0
    0.1618   -3.6886    4.1505 C   0  0  0  0  0  0  0  0  0  0  0  0
    1.4081   -3.1910    3.8286 C   0  0  0  0  0  0  0  0  0  0  0  0
    1.9115   -1.9553    4.3380 C   0  0  0  0  0  0  0  0  0  0  0  0
    1.1910   -1.1420    5.2015 C   0  0  0  0  0  0  0  0  0  0  0  0
   -0.0918   -1.6483    5.5626 C   0  0  0  0  0  0  0  0  0  0  0  0
   -1.1374   -1.0730    6.4622 C   0  0  0  0  0  0  0  0  0  0  0  0
   -0.9528   -0.1105    7.4027 C   0  0  0  0  0  0  0  0  0  0  0  0
   -1.9877    0.2479    8.3400 C   0  0  0  0  0  0  0  0  0  0  0  0
   -2.8182    0.5426    9.0965 N   0  0  0  0  0  0  0  0  0  0  0  0
    0.3273    0.5067    7.6461 C   0  0  0  0  0  0  0  0  0  0  0  0
    1.3521    1.0008    7.8507 N   0  0  0  0  0  0  0  0  0  0  0  0
    3.1970   -2.1510    3.5815 C   0  0  0  0  0  0  0  0  0  0  0  0
    4.4621   -2.5890    4.3847 C   0  0  0  0  0  0  0  0  0  0  0  0
    4.0510   -3.4060    5.5900 C   0  0  0  0  0  0  0  0  0  0  0  0
    3.5714   -4.5596    5.1237 C   0  0  0  0  0  0  0  0  0  0  0  0
    3.6698   -4.4857    3.6146 C   0  0  0  0  0  0  0  0  0  0  0  0
    4.9661   -3.7151    3.4982 C   0  0  0  0  0  0  0  0  0  0  0  0
    2.6765   -3.4178    3.0618 C   0  0  0  0  0  0  0  0  0  0  0  0
   -4.3022   -1.1858    4.9041 C   0  0  0  0  0  0  0  0  0  0  0  0
   -4.4065   -2.0657    3.7975 C   0  0  0  0  0  0  0  0  0  0  0  0
   -4.7250   -3.4765    3.9058 N   0  0  0  0  0  0  0  0  0  0  0  0
   -4.5639   -4.3358    2.7619 C   0  0  0  0  0  0  0  0  0  0  0  0
   -5.6925   -4.7912    2.0652 C   0  0  0  0  0  0  0  0  0  0  0  0
   -5.5444   -5.6416    0.9666 C   0  0  0  0  0  0  0  0  0  0  0  0
   -4.2667   -6.0667    0.5740 C   0  0  0  0  0  0  0  0  0  0  0  0
   -4.0842   -7.1829   -0.8218 S   0  0  0  0  0  0  0  0  0  0  0  0
   -3.8020   -5.8337   -2.0137 C   0  0  0  0  0  0  0  0  0  0  0  0
   -3.1381   -5.6083    1.2648 C   0  0  0  0  0  0  0  0  0  0  0  0
   -3.2852   -4.7338    2.3436 C   0  0  0  0  0  0  0  0  0  0  0  0
   -5.5293   -3.9760    5.0005 C   0  0  0  0  0  0  0  0  0  0  0  0
   -6.5742   -3.2046    5.5472 C   0  0  0  0  0  0  0  0  0  0  0  0
   -7.3470   -3.7030    6.5995 C   0  0  0  0  0  0  0  0  0  0  0  0
   -7.1083   -4.9855    7.1019 C   0  0  0  0  0  0  0  0  0  0  0  0
   -8.0915   -5.6180    8.4636 S   0  0  0  0  0  0  0  0  0  0  0  0
   -6.8725   -5.1461    9.7262 C   0  0  0  0  0  0  0  0  0  0  0  0
   -6.1045   -5.7780    6.5372 C   0  0  0  0  0  0  0  0  0  0  0  0
   -5.3268   -5.2808    5.4889 C   0  0  0  0  0  0  0  0  0  0  0  0
   -4.5801   -1.3383    2.6103 C   0  0  0  0  0  0  0  0  0  0  0  0
   -4.1380   -1.6573    1.0234 S   0  0  0  0  0  0  0  0  0  0  0  0
   -4.2417   -0.0416    0.5055 C   0  0  0  0  0  0  0  0  0  0  0  0
   -4.7111    0.7605    1.5732 C   0  0  0  0  0  0  0  0  0  0  0  0
   -5.1148    2.1521    1.4668 N   0  0  0  0  0  0  0  0  0  0  0  0
   -5.4685    2.8904    2.6449 C   0  0  0  0  0  0  0  0  0  0  0  0
   -6.7959    2.8923    3.0967 C   0  0  0  0  0  0  0  0  0  0  0  0
   -7.1280    3.5309    4.2948 C   0  0  0  0  0  0  0  0  0  0  0  0
   -6.1388    4.1910    5.0355 C   0  0  0  0  0  0  0  0  0  0  0  0
   -6.5570    4.9790    6.5908 S   0  0  0  0  0  0  0  0  0  0  0  0
   -6.0914    3.5257    7.5809 C   0  0  0  0  0  0  0  0  0  0  0  0
   -4.8164    4.2172    4.5693 C   0  0  0  0  0  0  0  0  0  0  0  0
   -4.4797    3.5658    3.3786 C   0  0  0  0  0  0  0  0  0  0  0  0
   -5.4168    2.7653    0.1975 C   0  0  0  0  0  0  0  0  0  0  0  0
   -4.9283    4.0480   -0.0968 C   0  0  0  0  0  0  0  0  0  0  0  0
   -5.1973    4.6409   -1.3332 C   0  0  0  0  0  0  0  0  0  0  0  0
   -5.9671    3.9604   -2.2855 C   0  0  0  0  0  0  0  0  0  0  0  0
   -6.2739    4.7048   -3.8879 S   0  0  0  0  0  0  0  0  0  0  0  0
   -7.8041    5.5288   -3.3506 C   0  0  0  0  0  0  0  0  0  0  0  0
   -6.4841    2.6950   -1.9862 C   0  0  0  0  0  0  0  0  0  0  0  0
   -6.2275    2.1072   -0.7430 C   0  0  0  0  0  0  0  0  0  0  0  0
   -4.7788    0.0014    2.7493 C   0  0  0  0  0  0  0  0  0  0  0  0
   -4.6075    0.3981    4.3656 S   0  0  0  0  0  0  0  0  0  0  0  0
   -3.6324    0.3940   -0.7715 C   0  0  0  0  0  0  0  0  0  0  0  0
   -2.6080    1.2654   -0.8750 C   0  0  0  0  0  0  0  0  0  0  0  0
   -2.0609    2.0317    0.2654 C   0  0  0  0  0  0  0  0  0  0  0  0
   -0.8847    2.6692    0.3071 C   0  0  0  0  0  0  0  0  0  0  0  0
    0.2725    2.4868   -0.5974 C   0  0  0  0  0  0  0  0  0  0  0  0
    1.4456    3.2768   -0.5726 C   0  0  0  0  0  0  0  0  0  0  0  0
    1.6837    4.4117    0.2843 N   0  0  0  0  0  0  0  0  0  0  0  0
    2.2358    5.6137   -0.2932 C   0  0  0  0  0  0  0  0  0  0  0  0
    1.7153    6.1350   -1.4922 C   0  0  0  0  0  0  0  0  0  0  0  0
    2.2750    7.2818   -2.0630 C   0  0  0  0  0  0  0  0  0  0  0  0
    3.3564    7.9182   -1.4422 C   0  0  0  0  0  0  0  0  0  0  0  0
    4.0606    9.3950   -2.1705 S   0  0  0  0  0  0  0  0  0  0  0  0
    2.9989   10.5172   -1.2098 C   0  0  0  0  0  0  0  0  0  0  0  0
    3.8898    7.3983   -0.2564 C   0  0  0  0  0  0  0  0  0  0  0  0
    3.3314    6.2542    0.3146 C   0  0  0  0  0  0  0  0  0  0  0  0
    1.4766    4.3242    1.7101 C   0  0  0  0  0  0  0  0  0  0  0  0
    0.9551    5.4247    2.4144 C   0  0  0  0  0  0  0  0  0  0  0  0
    0.6600    5.3165    3.7774 C   0  0  0  0  0  0  0  0  0  0  0  0
    0.8787    4.1129    4.4515 C   0  0  0  0  0  0  0  0  0  0  0  0
    0.4239    3.9616    6.1786 S   0  0  0  0  0  0  0  0  0  0  0  0
    2.0689    4.4428    6.7794 C   0  0  0  0  0  0  0  0  0  0  0  0
    1.4155    3.0171    3.7633 C   0  0  0  0  0  0  0  0  0  0  0  0
    1.7257    3.1229    2.4035 C   0  0  0  0  0  0  0  0  0  0  0  0
    2.3911    2.8035   -1.4786 C   0  0  0  0  0  0  0  0  0  0  0  0
    3.9845    3.2204   -1.8246 S   0  0  0  0  0  0  0  0  0  0  0  0
    4.2002    1.9511   -2.9326 C   0  0  0  0  0  0  0  0  0  0  0  0
    3.0290    1.1749   -3.0039 C   0  0  0  0  0  0  0  0  0  0  0  0
    2.9309   -0.0961   -3.6634 N   0  0  0  0  0  0  0  0  0  0  0  0
    2.2568   -0.2396   -4.9368 C   0  0  0  0  0  0  0  0  0  0  0  0
    2.5039   -1.3626   -5.7515 C   0  0  0  0  0  0  0  0  0  0  0  0
    1.8623   -1.5034   -6.9882 C   0  0  0  0  0  0  0  0  0  0  0  0
    0.9695   -0.5240   -7.4317 C   0  0  0  0  0  0  0  0  0  0  0  0
    0.1507   -0.7055   -9.0184 S   0  0  0  0  0  0  0  0  0  0  0  0
   -1.3205   -1.4975   -8.3028 C   0  0  0  0  0  0  0  0  0  0  0  0
    0.7235    0.5982   -6.6400 C   0  0  0  0  0  0  0  0  0  0  0  0
    1.3552    0.7387   -5.4005 C   0  0  0  0  0  0  0  0  0  0  0  0
    3.3642   -1.2514   -2.9293 C   0  0  0  0  0  0  0  0  0  0  0  0
    4.7086   -1.6484   -2.9562 C   0  0  0  0  0  0  0  0  0  0  0  0
    5.1388   -2.7292   -2.1819 C   0  0  0  0  0  0  0  0  0  0  0  0
    4.2238   -3.4261   -1.3805 C   0  0  0  0  0  0  0  0  0  0  0  0
    4.7744   -4.7946   -0.3597 S   0  0  0  0  0  0  0  0  0  0  0  0
    4.6196   -6.0151   -1.7001 C   0  0  0  0  0  0  0  0  0  0  0  0
    2.8755   -3.0466   -1.3718 C   0  0  0  0  0  0  0  0  0  0  0  0
    2.4460   -1.9639   -2.1449 C   0  0  0  0  0  0  0  0  0  0  0  0
    2.0384    1.6912   -2.1709 C   0  0  0  0  0  0  0  0  0  0  0  0
    0.5033    1.2005   -1.7067 S   0  0  0  0  0  0  0  0  0  0  0  0
    5.4829    1.6261   -3.5615 C   0  0  0  0  0  0  0  0  0  0  0  0
    5.6407    1.5713   -4.8944 C   0  0  0  0  0  0  0  0  0  0  0  0
    4.6154    1.9125   -5.8825 C   0  0  0  0  0  0  0  0  0  0  0  0
    3.6676    2.7287   -5.7212 O   0  0  0  0  0  0  0  0  0  0  0  0
    4.8845    1.1736   -7.0951 C   0  0  0  0  0  0  0  0  0  0  0  0
    4.0596    1.0802   -8.2402 C   0  0  0  0  0  0  0  0  0  0  0  0
    4.5235    0.1867   -9.1864 C   0  0  0  0  0  0  0  0  0  0  0  0
    5.7241   -0.5760   -9.0211 C   0  0  0  0  0  0  0  0  0  0  0  0
    6.5424   -0.4789   -7.9071 C   0  0  0  0  0  0  0  0  0  0  0  0
    6.0958    0.4510   -6.9316 C   0  0  0  0  0  0  0  0  0  0  0  0
    6.6914    0.8006   -5.6163 C   0  0  0  0  0  0  0  0  0  0  0  0
    7.9839    0.6513   -5.2299 C   0  0  0  0  0  0  0  0  0  0  0  0
    8.5148    1.3264   -4.0746 C   0  0  0  0  0  0  0  0  0  0  0  0
    8.9441    1.8648   -3.1452 N   0  0  0  0  0  0  0  0  0  0  0  0
    8.9483   -0.0583   -6.0251 C   0  0  0  0  0  0  0  0  0  0  0  0
    9.7335   -0.6327   -6.6487 N   0  0  0  0  0  0  0  0  0  0  0  0
    5.5046   -1.2380  -10.3486 C   0  0  0  0  0  0  0  0  0  0  0  0
    6.4177   -0.7647  -11.5168 C   0  0  0  0  0  0  0  0  0  0  0  0
    5.7543   -1.2525  -12.7840 C   0  0  0  0  0  0  0  0  0  0  0  0
    4.6487   -0.5175  -12.9366 C   0  0  0  0  0  0  0  0  0  0  0  0
    4.5973    0.4332  -11.7713 C   0  0  0  0  0  0  0  0  0  0  0  0
    6.0840    0.7140  -11.6350 C   0  0  0  0  0  0  0  0  0  0  0  0
    4.2827   -0.4431  -10.5229 C   0  0  0  0  0  0  0  0  0  0  0  0
   -3.8636   -0.6051    6.8841 H   0  0  0  0  0  0  0  0  0  0  0  0
   -0.2082   -4.6307    3.7639 H   0  0  0  0  0  0  0  0  0  0  0  0
    1.5942   -0.1981    5.5256 H   0  0  0  0  0  0  0  0  0  0  0  0
    3.3822   -1.3891    2.7901 H   0  0  0  0  0  0  0  0  0  0  0  0
    5.2000   -1.7853    4.5921 H   0  0  0  0  0  0  0  0  0  0  0  0
    4.1729   -3.1375    6.6359 H   0  0  0  0  0  0  0  0  0  0  0  0
    3.2370   -5.3986    5.7267 H   0  0  0  0  0  0  0  0  0  0  0  0
    3.6429   -5.4659    3.0957 H   0  0  0  0  0  0  0  0  0  0  0  0
    5.8454   -4.2586    3.9213 H   0  0  0  0  0  0  0  0  0  0  0  0
    5.2013   -3.3913    2.4572 H   0  0  0  0  0  0  0  0  0  0  0  0
    2.5433   -3.4305    1.9573 H   0  0  0  0  0  0  0  0  0  0  0  0
   -6.6846   -4.4718    2.3629 H   0  0  0  0  0  0  0  0  0  0  0  0
   -6.4214   -5.9758    0.4238 H   0  0  0  0  0  0  0  0  0  0  0  0
   -4.6638   -5.1321   -2.0073 H   0  0  0  0  0  0  0  0  0  0  0  0
   -2.8733   -5.2855   -1.7525 H   0  0  0  0  0  0  0  0  0  0  0  0
   -3.6921   -6.2640   -3.0276 H   0  0  0  0  0  0  0  0  0  0  0  0
   -2.1467   -5.9226    0.9593 H   0  0  0  0  0  0  0  0  0  0  0  0
   -2.4063   -4.3649    2.8523 H   0  0  0  0  0  0  0  0  0  0  0  0
   -6.7999   -2.2223    5.1512 H   0  0  0  0  0  0  0  0  0  0  0  0
   -8.1409   -3.0942    7.0176 H   0  0  0  0  0  0  0  0  0  0  0  0
   -5.9108   -5.6749    9.5471 H   0  0  0  0  0  0  0  0  0  0  0  0
   -7.2597   -5.4202   10.7313 H   0  0  0  0  0  0  0  0  0  0  0  0
   -6.6979   -4.0493    9.6976 H   0  0  0  0  0  0  0  0  0  0  0  0
   -5.9190   -6.7758    6.9173 H   0  0  0  0  0  0  0  0  0  0  0  0
   -4.5526   -5.9075    5.0652 H   0  0  0  0  0  0  0  0  0  0  0  0
   -7.5577    2.3644    2.5386 H   0  0  0  0  0  0  0  0  0  0  0  0
   -8.1469    3.4974    4.6529 H   0  0  0  0  0  0  0  0  0  0  0  0
   -6.7474    2.6732    7.3103 H   0  0  0  0  0  0  0  0  0  0  0  0
   -6.2269    3.7606    8.6572 H   0  0  0  0  0  0  0  0  0  0  0  0
   -5.0285    3.2667    7.3982 H   0  0  0  0  0  0  0  0  0  0  0  0
   -4.0456    4.7229    5.1375 H   0  0  0  0  0  0  0  0  0  0  0  0
   -3.4526    3.5642    3.0378 H   0  0  0  0  0  0  0  0  0  0  0  0
   -4.3207    4.5779    0.6268 H   0  0  0  0  0  0  0  0  0  0  0  0
   -4.8039    5.6260   -1.5460 H   0  0  0  0  0  0  0  0  0  0  0  0
   -8.2085    6.1220   -4.1940 H   0  0  0  0  0  0  0  0  0  0  0  0
   -7.5926    6.2071   -2.4974 H   0  0  0  0  0  0  0  0  0  0  0  0
   -8.5579    4.7702   -3.0485 H   0  0  0  0  0  0  0  0  0  0  0  0
   -7.0913    2.1714   -2.7150 H   0  0  0  0  0  0  0  0  0  0  0  0
   -6.6428    1.1304   -0.5208 H   0  0  0  0  0  0  0  0  0  0  0  0
   -3.9194   -0.1519   -1.6657 H   0  0  0  0  0  0  0  0  0  0  0  0
   -2.2044    1.4394   -1.8628 H   0  0  0  0  0  0  0  0  0  0  0  0
   -2.6881    2.2008    1.1186 H   0  0  0  0  0  0  0  0  0  0  0  0
   -0.7643    3.3285    1.1465 H   0  0  0  0  0  0  0  0  0  0  0  0
    0.8749    5.6564   -1.9781 H   0  0  0  0  0  0  0  0  0  0  0  0
    1.8627    7.6679   -2.9853 H   0  0  0  0  0  0  0  0  0  0  0  0
    3.1454   10.3477   -0.1213 H   0  0  0  0  0  0  0  0  0  0  0  0
    1.9341   10.3358   -1.4683 H   0  0  0  0  0  0  0  0  0  0  0  0
    3.2578   11.5706   -1.4458 H   0  0  0  0  0  0  0  0  0  0  0  0
    4.7335    7.8776    0.2225 H   0  0  0  0  0  0  0  0  0  0  0  0
    3.7611    5.8533    1.2254 H   0  0  0  0  0  0  0  0  0  0  0  0
    0.7436    6.3547    1.9040 H   0  0  0  0  0  0  0  0  0  0  0  0
    0.2400    6.1647    4.3022 H   0  0  0  0  0  0  0  0  0  0  0  0
    2.8266    3.7228    6.4042 H   0  0  0  0  0  0  0  0  0  0  0  0
    2.3206    5.4696    6.4286 H   0  0  0  0  0  0  0  0  0  0  0  0
    2.0615    4.4203    7.8870 H   0  0  0  0  0  0  0  0  0  0  0  0
    1.5839    2.0826    4.2804 H   0  0  0  0  0  0  0  0  0  0  0  0
    2.1385    2.2633    1.8849 H   0  0  0  0  0  0  0  0  0  0  0  0
    3.2013   -2.1302   -5.4433 H   0  0  0  0  0  0  0  0  0  0  0  0
    2.0661   -2.3717   -7.6056 H   0  0  0  0  0  0  0  0  0  0  0  0
   -2.0446   -1.7297   -9.1140 H   0  0  0  0  0  0  0  0  0  0  0  0
   -1.0393   -2.4450   -7.7961 H   0  0  0  0  0  0  0  0  0  0  0  0
   -1.8082   -0.8179   -7.5733 H   0  0  0  0  0  0  0  0  0  0  0  0
    0.0369    1.3637   -6.9795 H   0  0  0  0  0  0  0  0  0  0  0  0
    1.1341    1.6170   -4.8074 H   0  0  0  0  0  0  0  0  0  0  0  0
    5.4210   -1.1213   -3.5763 H   0  0  0  0  0  0  0  0  0  0  0  0
    6.1796   -3.0229   -2.2064 H   0  0  0  0  0  0  0  0  0  0  0  0
    4.8552   -7.0226   -1.2990 H   0  0  0  0  0  0  0  0  0  0  0  0
    5.3317   -5.7773   -2.5185 H   0  0  0  0  0  0  0  0  0  0  0  0
    3.5806   -6.0211   -2.0938 H   0  0  0  0  0  0  0  0  0  0  0  0
    2.1647   -3.5789   -0.7523 H   0  0  0  0  0  0  0  0  0  0  0  0
    1.4050   -1.6678   -2.1223 H   0  0  0  0  0  0  0  0  0  0  0  0
    6.2505    1.2571   -2.9018 H   0  0  0  0  0  0  0  0  0  0  0  0
    3.1366    1.6292   -8.3556 H   0  0  0  0  0  0  0  0  0  0  0  0
    7.4145   -1.1065   -7.8085 H   0  0  0  0  0  0  0  0  0  0  0  0
    5.3315   -2.3352  -10.2773 H   0  0  0  0  0  0  0  0  0  0  0  0
    7.4990   -1.0109  -11.4141 H   0  0  0  0  0  0  0  0  0  0  0  0
    6.1392   -1.9810  -13.4883 H   0  0  0  0  0  0  0  0  0  0  0  0
    3.9759   -0.5468  -13.7863 H   0  0  0  0  0  0  0  0  0  0  0  0
    3.9444    1.3228  -11.9105 H   0  0  0  0  0  0  0  0  0  0  0  0
    6.3570    1.3191  -10.7423 H   0  0  0  0  0  0  0  0  0  0  0  0
    6.5272    1.1985  -12.5389 H   0  0  0  0  0  0  0  0  0  0  0  0
    3.3437   -1.0376  -10.5700 H   0  0  0  0  0  0  0  0  0  0  0  0
  1  2  2  3
  2  3  1  0
  3  4  2  0
  3  5  1  0
  5  6  2  0
  6  7  1  0
  7  8  2  0
  8  9  1  0
  9 10  2  0
 10 11  1  0
 11 12  2  3
 12 13  1  0
 13 14  3  0
 12 15  1  0
 15 16  3  0
  8 17  1  0
 17 18  1  0
 18 19  1  0
 19 20  2  0
 20 21  1  0
 21 22  1  0
 21 23  1  0
  1 24  1  0
 24 25  2  0
 25 26  1  0
 26 27  1  0
 27 28  2  0
 28 29  1  0
 29 30  2  0
 30 31  1  0
 31 32  1  0
 30 33  1  0
 33 34  2  0
 26 35  1  0
 35 36  2  0
 36 37  1  0
 37 38  2  0
 38 39  1  0
 39 40  1  0
 38 41  1  0
 41 42  2  0
 25 43  1  0
 43 44  1  0
 44 45  1  0
 45 46  2  0
 46 47  1  0
 47 48  1  0
 48 49  2  0
 49 50  1  0
 50 51  2  0
 51 52  1  0
 52 53  1  0
 51 54  1  0
 54 55  2  0
 47 56  1  0
 56 57  2  0
 57 58  1  0
 58 59  2  0
 59 60  1  0
 60 61  1  0
 59 62  1  0
 62 63  2  0
 46 64  1  0
 64 65  1  0
 45 66  1  0
 66 67  2  3
 67 68  1  0
 68 69  2  3
 69 70  1  0
 70 71  2  0
 71 72  1  0
 72 73  1  0
 73 74  2  0
 74 75  1  0
 75 76  2  0
 76 77  1  0
 77 78  1  0
 76 79  1  0
 79 80  2  0
 72 81  1  0
 81 82  2  0
 82 83  1  0
 83 84  2  0
 84 85  1  0
 85 86  1  0
 84 87  1  0
 87 88  2  0
 71 89  1  0
 89 90  1  0
 90 91  1  0
 91 92  2  0
 92 93  1  0
 93 94  1  0
 94 95  2  0
 95 96  1  0
 96 97  2  0
 97 98  1  0
 98 99  1  0
 97100  1  0
100101  2  0
 93102  1  0
102103  2  0
103104  1  0
104105  2  0
105106  1  0
106107  1  0
105108  1  0
108109  2  0
 92110  1  0
110111  1  0
 91112  1  0
112113  2  3
113114  1  0
114115  2  0
114116  1  0
116117  2  0
117118  1  0
118119  2  0
119120  1  0
120121  2  0
121122  1  0
122123  2  3
123124  1  0
124125  3  0
123126  1  0
126127  3  0
119128  1  0
128129  1  0
129130  1  0
130131  2  0
131132  1  0
132133  1  0
132134  1  0
 11  2  1  0
 23 17  1  0
 65 24  1  0
111 70  1  0
122113  1  0
134128  1  0
 10  5  1  0
 22 18  1  0
 34 27  1  0
 42 35  1  0
 64 43  2  0
 80 73  1  0
 88 81  1  0
110 89  2  0
121116  1  0
133129  1  0
 23  7  1  0
 55 48  1  0
 63 56  1  0
101 94  1  0
109102  1  0
134118  1  0
  1135  1  0
  6136  1  0
  9137  1  0
 17138  1  0
 18139  1  0
 19140  1  0
 20141  1  0
 21142  1  0
 22143  1  0
 22144  1  0
 23145  1  0
 28146  1  0
 29147  1  0
 32148  1  0
 32149  1  0
 32150  1  0
 33151  1  0
 34152  1  0
 36153  1  0
 37154  1  0
 40155  1  0
 40156  1  0
 40157  1  0
 41158  1  0
 42159  1  0
 49160  1  0
 50161  1  0
 53162  1  0
 53163  1  0
 53164  1  0
 54165  1  0
 55166  1  0
 57167  1  0
 58168  1  0
 61169  1  0
 61170  1  0
 61171  1  0
 62172  1  0
 63173  1  0
 66174  1  0
 67175  1  0
 68176  1  0
 69177  1  0
 74178  1  0
 75179  1  0
 78180  1  0
 78181  1  0
 78182  1  0
 79183  1  0
 80184  1  0
 82185  1  0
 83186  1  0
 86187  1  0
 86188  1  0
 86189  1  0
 87190  1  0
 88191  1  0
 95192  1  0
 96193  1  0
 99194  1  0
 99195  1  0
 99196  1  0
100197  1  0
101198  1  0
103199  1  0
104200  1  0
107201  1  0
107202  1  0
107203  1  0
108204  1  0
109205  1  0
112206  1  0
117207  1  0
120208  1  0
128209  1  0
129210  1  0
130211  1  0
131212  1  0
132213  1  0
133214  1  0
133215  1  0
134216  1  0
M  END

