
     RDKit          3D

258284  0  0  0  0  0  0  0  0999 V2000
   -5.7468    4.4353   -1.3426 C   0  0  0  0  0  0  0  0  0  0  0  0
   -5.8070    4.4617   -2.6943 C   0  0  0  0  0  0  0  0  0  0  0  0
   -4.6896    4.5043   -3.6412 C   0  0  0  0  0  0  0  0  0  0  0  0
   -3.5672    5.0398   -3.4440 O   0  0  0  0  0  0  0  0  0  0  0  0
   -5.1422    3.9741   -4.9135 C   0  0  0  0  0  0  0  0  0  0  0  0
   -4.3597    3.7325   -6.0684 C   0  0  0  0  0  0  0  0  0  0  0  0
   -5.0663    3.1496   -7.1057 C   0  0  0  0  0  0  0  0  0  0  0  0
   -6.4550    2.8065   -7.0140 C   0  0  0  0  0  0  0  0  0  0  0  0
   -7.2256    3.0458   -5.8870 C   0  0  0  0  0  0  0  0  0  0  0  0
   -6.5303    3.6887   -4.8262 C   0  0  0  0  0  0  0  0  0  0  0  0
   -7.0287    4.1409   -3.4981 C   0  0  0  0  0  0  0  0  0  0  0  0
   -8.3198    4.4227   -3.1761 C   0  0  0  0  0  0  0  0  0  0  0  0
   -9.4205    4.1384   -4.0580 C   0  0  0  0  0  0  0  0  0  0  0  0
  -10.3188    3.9009   -4.7555 N   0  0  0  0  0  0  0  0  0  0  0  0
   -8.6841    5.1531   -1.9901 C   0  0  0  0  0  0  0  0  0  0  0  0
   -8.9859    5.7470   -1.0415 N   0  0  0  0  0  0  0  0  0  0  0  0
   -6.4312    2.2643   -8.4135 C   0  0  0  0  0  0  0  0  0  0  0  0
   -7.1098    3.1098   -9.5353 C   0  0  0  0  0  0  0  0  0  0  0  0
   -7.0246    4.5799   -9.1990 C   0  0  0  0  0  0  0  0  0  0  0  0
   -5.7369    4.9145   -9.2795 C   0  0  0  0  0  0  0  0  0  0  0  0
   -4.9879    3.6629   -9.6823 C   0  0  0  0  0  0  0  0  0  0  0  0
   -6.0297    3.0471  -10.5998 C   0  0  0  0  0  0  0  0  0  0  0  0
   -5.0125    2.6277   -8.5128 C   0  0  0  0  0  0  0  0  0  0  0  0
   -4.5311    4.3249   -0.4982 C   0  0  0  0  0  0  0  0  0  0  0  0
   -4.5018    4.4962    0.9075 C   0  0  0  0  0  0  0  0  0  0  0  0
   -5.6292    4.8465    1.7369 N   0  0  0  0  0  0  0  0  0  0  0  0
   -5.4207    5.8387    2.7668 C   0  0  0  0  0  0  0  0  0  0  0  0
   -5.8330    5.5958    4.0891 C   0  0  0  0  0  0  0  0  0  0  0  0
   -5.4671    6.4680    5.1190 C   0  0  0  0  0  0  0  0  0  0  0  0
   -4.6869    7.5925    4.8414 C   0  0  0  0  0  0  0  0  0  0  0  0
   -4.1218    8.6494    6.1725 S   0  0  0  0  0  0  0  0  0  0  0  0
   -2.5996    7.6768    6.4381 C   0  0  0  0  0  0  0  0  0  0  0  0
   -4.3150    7.8709    3.5226 C   0  0  0  0  0  0  0  0  0  0  0  0
   -4.6804    7.0016    2.4894 C   0  0  0  0  0  0  0  0  0  0  0  0
   -6.8303    4.0382    1.7263 C   0  0  0  0  0  0  0  0  0  0  0  0
   -6.7748    2.6722    1.3848 C   0  0  0  0  0  0  0  0  0  0  0  0
   -7.9452    1.9146    1.3014 C   0  0  0  0  0  0  0  0  0  0  0  0
   -9.1824    2.4997    1.5808 C   0  0  0  0  0  0  0  0  0  0  0  0
  -10.6883    1.5332    1.4352 S   0  0  0  0  0  0  0  0  0  0  0  0
  -10.9616    2.0195   -0.2959 C   0  0  0  0  0  0  0  0  0  0  0  0
   -9.2486    3.8448    1.9565 C   0  0  0  0  0  0  0  0  0  0  0  0
   -8.0792    4.6127    2.0182 C   0  0  0  0  0  0  0  0  0  0  0  0
   -3.2702    4.1212    1.4446 C   0  0  0  0  0  0  0  0  0  0  0  0
   -2.7031    3.9025    3.0068 S   0  0  0  0  0  0  0  0  0  0  0  0
   -1.2493    3.1462    2.5381 C   0  0  0  0  0  0  0  0  0  0  0  0
   -1.2120    3.0843    1.1239 C   0  0  0  0  0  0  0  0  0  0  0  0
   -0.1419    2.5119    0.3469 N   0  0  0  0  0  0  0  0  0  0  0  0
    1.1812    3.0809    0.4694 C   0  0  0  0  0  0  0  0  0  0  0  0
    2.3128    2.2477    0.5120 C   0  0  0  0  0  0  0  0  0  0  0  0
    3.5845    2.7984    0.6941 C   0  0  0  0  0  0  0  0  0  0  0  0
    3.7522    4.1819    0.7829 C   0  0  0  0  0  0  0  0  0  0  0  0
    5.3963    4.8782    0.9630 S   0  0  0  0  0  0  0  0  0  0  0  0
    5.6597    5.0057   -0.8332 C   0  0  0  0  0  0  0  0  0  0  0  0
    2.6331    5.0182    0.7325 C   0  0  0  0  0  0  0  0  0  0  0  0
    1.3547    4.4729    0.5738 C   0  0  0  0  0  0  0  0  0  0  0  0
   -0.4457    1.5846   -0.7215 C   0  0  0  0  0  0  0  0  0  0  0  0
   -1.5078    0.6723   -0.5892 C   0  0  0  0  0  0  0  0  0  0  0  0
   -1.8734   -0.1576   -1.6526 C   0  0  0  0  0  0  0  0  0  0  0  0
   -1.1937   -0.0754   -2.8715 C   0  0  0  0  0  0  0  0  0  0  0  0
   -1.7342   -1.0544   -4.2730 S   0  0  0  0  0  0  0  0  0  0  0  0
   -2.9476    0.1894   -4.8079 C   0  0  0  0  0  0  0  0  0  0  0  0
   -0.1279    0.8187   -3.0140 C   0  0  0  0  0  0  0  0  0  0  0  0
    0.2502    1.6369   -1.9465 C   0  0  0  0  0  0  0  0  0  0  0  0
   -2.3706    3.6309    0.5629 C   0  0  0  0  0  0  0  0  0  0  0  0
   -3.0383    3.6520   -0.9761 S   0  0  0  0  0  0  0  0  0  0  0  0
   -0.4321    2.3103    3.4428 C   0  0  0  0  0  0  0  0  0  0  0  0
   -0.8108    1.0302    3.9008 C   0  0  0  0  0  0  0  0  0  0  0  0
   -2.1699    0.5320    3.9145 N   0  0  0  0  0  0  0  0  0  0  0  0
   -2.4565   -0.8176    3.4772 C   0  0  0  0  0  0  0  0  0  0  0  0
   -3.3322   -1.6325    4.2185 C   0  0  0  0  0  0  0  0  0  0  0  0
   -3.4219   -2.9989    3.9606 C   0  0  0  0  0  0  0  0  0  0  0  0
   -2.6206   -3.5740    2.9721 C   0  0  0  0  0  0  0  0  0  0  0  0
   -2.4196   -5.3475    2.9361 S   0  0  0  0  0  0  0  0  0  0  0  0
   -1.2260   -5.2957    4.3199 C   0  0  0  0  0  0  0  0  0  0  0  0
   -1.8273   -2.7639    2.1536 C   0  0  0  0  0  0  0  0  0  0  0  0
   -1.7660   -1.3869    2.3887 C   0  0  0  0  0  0  0  0  0  0  0  0
   -3.1796    1.2619    4.6422 C   0  0  0  0  0  0  0  0  0  0  0  0
   -2.8775    1.8683    5.8755 C   0  0  0  0  0  0  0  0  0  0  0  0
   -3.8783    2.5151    6.6130 C   0  0  0  0  0  0  0  0  0  0  0  0
   -5.1875    2.5677    6.1278 C   0  0  0  0  0  0  0  0  0  0  0  0
   -6.4641    3.3990    7.0761 S   0  0  0  0  0  0  0  0  0  0  0  0
   -7.0187    1.8851    7.9159 C   0  0  0  0  0  0  0  0  0  0  0  0
   -5.4926    1.9873    4.8908 C   0  0  0  0  0  0  0  0  0  0  0  0
   -4.4994    1.3303    4.1585 C   0  0  0  0  0  0  0  0  0  0  0  0
    0.3136    0.2729    4.2754 C   0  0  0  0  0  0  0  0  0  0  0  0
    0.5882   -1.3681    4.4493 S   0  0  0  0  0  0  0  0  0  0  0  0
    2.2834   -1.3030    4.2715 C   0  0  0  0  0  0  0  0  0  0  0  0
    2.6558    0.0709    4.1886 C   0  0  0  0  0  0  0  0  0  0  0  0
    4.0122    0.6042    4.2226 N   0  0  0  0  0  0  0  0  0  0  0  0
    4.2420    1.9175    4.7693 C   0  0  0  0  0  0  0  0  0  0  0  0
    3.6942    2.2728    6.0162 C   0  0  0  0  0  0  0  0  0  0  0  0
    3.9122    3.5438    6.5487 C   0  0  0  0  0  0  0  0  0  0  0  0
    4.6856    4.4770    5.8495 C   0  0  0  0  0  0  0  0  0  0  0  0
    4.9805    6.1078    6.5367 S   0  0  0  0  0  0  0  0  0  0  0  0
    3.4781    6.8239    5.7931 C   0  0  0  0  0  0  0  0  0  0  0  0
    5.2503    4.1259    4.6184 C   0  0  0  0  0  0  0  0  0  0  0  0
    5.0291    2.8540    4.0802 C   0  0  0  0  0  0  0  0  0  0  0  0
    5.1626   -0.2456    4.1125 C   0  0  0  0  0  0  0  0  0  0  0  0
    5.4963   -1.1146    5.1623 C   0  0  0  0  0  0  0  0  0  0  0  0
    6.6331   -1.9253    5.0719 C   0  0  0  0  0  0  0  0  0  0  0  0
    7.4436   -1.8688    3.9335 C   0  0  0  0  0  0  0  0  0  0  0  0
    8.8946   -2.9053    3.8103 S   0  0  0  0  0  0  0  0  0  0  0  0
    8.0008   -4.2807    3.0212 C   0  0  0  0  0  0  0  0  0  0  0  0
    7.1332   -0.9801    2.8997 C   0  0  0  0  0  0  0  0  0  0  0  0
    6.0014   -0.1666    2.9904 C   0  0  0  0  0  0  0  0  0  0  0  0
    1.5130    0.8967    4.1520 C   0  0  0  0  0  0  0  0  0  0  0  0
    1.2562    2.4533    3.5828 S   0  0  0  0  0  0  0  0  0  0  0  0
    2.9573   -2.4368    3.5944 C   0  0  0  0  0  0  0  0  0  0  0  0
    2.5834   -3.7859    3.7236 C   0  0  0  0  0  0  0  0  0  0  0  0
    2.9686   -4.5955    2.6300 C   0  0  0  0  0  0  0  0  0  0  0  0
    2.6422   -5.9639    2.4159 C   0  0  0  0  0  0  0  0  0  0  0  0
    2.0664   -6.8279    3.4840 C   0  0  0  0  0  0  0  0  0  0  0  0
    2.6757   -6.8423    4.7521 C   0  0  0  0  0  0  0  0  0  0  0  0
    2.2589   -7.7413    5.7294 C   0  0  0  0  0  0  0  0  0  0  0  0
    1.2583   -8.6709    5.4453 C   0  0  0  0  0  0  0  0  0  0  0  0
    0.6406   -8.6831    4.1893 C   0  0  0  0  0  0  0  0  0  0  0  0
   -0.4850  -10.0215    3.7602 S   0  0  0  0  0  0  0  0  0  0  0  0
   -2.0204   -9.2120    4.3279 C   0  0  0  0  0  0  0  0  0  0  0  0
   -2.1574   -9.2600    5.8469 C   0  0  0  0  0  0  0  0  0  0  0  0
    1.0148   -7.7372    3.2235 C   0  0  0  0  0  0  0  0  0  0  0  0
    2.9659   -6.4894    1.1404 C   0  0  0  0  0  0  0  0  0  0  0  0
    3.6513   -5.7499    0.1703 C   0  0  0  0  0  0  0  0  0  0  0  0
    4.0578   -4.4333    0.4302 C   0  0  0  0  0  0  0  0  0  0  0  0
    4.9156   -3.7001   -0.5209 C   0  0  0  0  0  0  0  0  0  0  0  0
    6.2371   -4.1338   -0.7288 C   0  0  0  0  0  0  0  0  0  0  0  0
    7.0604   -3.4617   -1.6348 C   0  0  0  0  0  0  0  0  0  0  0  0
    6.5699   -2.3641   -2.3445 C   0  0  0  0  0  0  0  0  0  0  0  0
    5.2597   -1.9218   -2.1371 C   0  0  0  0  0  0  0  0  0  0  0  0
    4.6540   -0.4750   -3.0065 S   0  0  0  0  0  0  0  0  0  0  0  0
    4.9782    0.6772   -1.6279 C   0  0  0  0  0  0  0  0  0  0  0  0
    6.4627    1.0023   -1.5024 C   0  0  0  0  0  0  0  0  0  0  0  0
    4.4303   -2.5915   -1.2291 C   0  0  0  0  0  0  0  0  0  0  0  0
    3.6521   -3.8710    1.6474 C   0  0  0  0  0  0  0  0  0  0  0  0
    3.7510   -2.2675    2.1156 S   0  0  0  0  0  0  0  0  0  0  0  0
    3.8055   -6.4198   -1.0564 C   0  0  0  0  0  0  0  0  0  0  0  0
    3.2597   -7.7033   -1.0492 C   0  0  0  0  0  0  0  0  0  0  0  0
    2.5843   -7.9897    0.4678 S   0  0  0  0  0  0  0  0  0  0  0  0
    3.0312   -8.5535   -2.2292 C   0  0  0  0  0  0  0  0  0  0  0  0
    3.7720   -8.5258   -3.3543 C   0  0  0  0  0  0  0  0  0  0  0  0
    3.2249   -8.8631   -4.6704 C   0  0  0  0  0  0  0  0  0  0  0  0
    2.1089   -9.4052   -4.8899 O   0  0  0  0  0  0  0  0  0  0  0  0
    4.1348   -8.3853   -5.6909 C   0  0  0  0  0  0  0  0  0  0  0  0
    3.9534   -8.4337   -7.0986 C   0  0  0  0  0  0  0  0  0  0  0  0
    5.0183   -7.9185   -7.8164 C   0  0  0  0  0  0  0  0  0  0  0  0
    6.1794   -7.3508   -7.1952 C   0  0  0  0  0  0  0  0  0  0  0  0
    6.3357   -7.2418   -5.8213 C   0  0  0  0  0  0  0  0  0  0  0  0
    5.2768   -7.8207   -5.0623 C   0  0  0  0  0  0  0  0  0  0  0  0
    5.1523   -7.9956   -3.5865 C   0  0  0  0  0  0  0  0  0  0  0  0
    6.1899   -8.0888   -2.7147 C   0  0  0  0  0  0  0  0  0  0  0  0
    7.5439   -7.7611   -3.0797 C   0  0  0  0  0  0  0  0  0  0  0  0
    8.6357   -7.5126   -3.3639 N   0  0  0  0  0  0  0  0  0  0  0  0
    6.0453   -8.7193   -1.4266 C   0  0  0  0  0  0  0  0  0  0  0  0
    5.9404   -9.2371   -0.3931 N   0  0  0  0  0  0  0  0  0  0  0  0
    6.8037   -7.1088   -8.5394 C   0  0  0  0  0  0  0  0  0  0  0  0
    6.8329   -5.6380   -9.0471 C   0  0  0  0  0  0  0  0  0  0  0  0
    7.1110   -5.7178  -10.5267 C   0  0  0  0  0  0  0  0  0  0  0  0
    6.0031   -6.2083  -11.0942 C   0  0  0  0  0  0  0  0  0  0  0  0
    5.0206   -6.4588   -9.9759 C   0  0  0  0  0  0  0  0  0  0  0  0
    5.3601   -5.2619   -9.1004 C   0  0  0  0  0  0  0  0  0  0  0  0
    5.6002   -7.6637   -9.1743 C   0  0  0  0  0  0  0  0  0  0  0  0
   -6.6716    4.3428   -0.8046 H   0  0  0  0  0  0  0  0  0  0  0  0
   -3.2994    3.9587   -6.1340 H   0  0  0  0  0  0  0  0  0  0  0  0
   -8.2533    2.7335   -5.8502 H   0  0  0  0  0  0  0  0  0  0  0  0
   -6.6098    1.1664   -8.4815 H   0  0  0  0  0  0  0  0  0  0  0  0
   -8.1154    2.7635   -9.8521 H   0  0  0  0  0  0  0  0  0  0  0  0
   -7.8458    5.2612   -8.9981 H   0  0  0  0  0  0  0  0  0  0  0  0
   -5.3332    5.9142   -9.1505 H   0  0  0  0  0  0  0  0  0  0  0  0
   -3.9907    3.8374  -10.1400 H   0  0  0  0  0  0  0  0  0  0  0  0
   -5.7751    2.0076  -10.9230 H   0  0  0  0  0  0  0  0  0  0  0  0
   -6.2555    3.6672  -11.4968 H   0  0  0  0  0  0  0  0  0  0  0  0
   -4.3338    1.7548   -8.6451 H   0  0  0  0  0  0  0  0  0  0  0  0
   -6.3880    4.7019    4.3375 H   0  0  0  0  0  0  0  0  0  0  0  0
   -5.7674    6.2553    6.1353 H   0  0  0  0  0  0  0  0  0  0  0  0
   -1.9770    8.1769    7.2093 H   0  0  0  0  0  0  0  0  0  0  0  0
   -2.0289    7.6016    5.4849 H   0  0  0  0  0  0  0  0  0  0  0  0
   -2.8608    6.6544    6.7896 H   0  0  0  0  0  0  0  0  0  0  0  0
   -3.7111    8.7434    3.2965 H   0  0  0  0  0  0  0  0  0  0  0  0
   -4.3484    7.2083    1.4789 H   0  0  0  0  0  0  0  0  0  0  0  0
   -5.8279    2.1957    1.1669 H   0  0  0  0  0  0  0  0  0  0  0  0
   -7.8870    0.8697    1.0164 H   0  0  0  0  0  0  0  0  0  0  0  0
  -11.0150    3.1247   -0.3861 H   0  0  0  0  0  0  0  0  0  0  0  0
  -11.9279    1.5918   -0.6513 H   0  0  0  0  0  0  0  0  0  0  0  0
  -10.1385    1.6236   -0.9370 H   0  0  0  0  0  0  0  0  0  0  0  0
  -10.2042    4.3025    2.1827 H   0  0  0  0  0  0  0  0  0  0  0  0
   -8.1539    5.6620    2.2722 H   0  0  0  0  0  0  0  0  0  0  0  0
    2.2003    1.1728    0.4470 H   0  0  0  0  0  0  0  0  0  0  0  0
    4.4432    2.1484    0.7652 H   0  0  0  0  0  0  0  0  0  0  0  0
    6.6610    5.4405   -1.0255 H   0  0  0  0  0  0  0  0  0  0  0  0
    4.8905    5.6673   -1.2851 H   0  0  0  0  0  0  0  0  0  0  0  0
    5.6054    4.0002   -1.3011 H   0  0  0  0  0  0  0  0  0  0  0  0
    2.7547    6.0904    0.8066 H   0  0  0  0  0  0  0  0  0  0  0  0
    0.4993    5.1383    0.5292 H   0  0  0  0  0  0  0  0  0  0  0  0
   -2.0888    0.6377    0.3231 H   0  0  0  0  0  0  0  0  0  0  0  0
   -2.7070   -0.8381   -1.5358 H   0  0  0  0  0  0  0  0  0  0  0  0
   -2.4349    1.1407   -5.0650 H   0  0  0  0  0  0  0  0  0  0  0  0
   -3.6949    0.3730   -4.0101 H   0  0  0  0  0  0  0  0  0  0  0  0
   -3.4816   -0.1782   -5.7096 H   0  0  0  0  0  0  0  0  0  0  0  0
    0.3939    0.8932   -3.9597 H   0  0  0  0  0  0  0  0  0  0  0  0
    1.0533    2.3424   -2.1014 H   0  0  0  0  0  0  0  0  0  0  0  0
   -3.8708   -1.2416    5.0710 H   0  0  0  0  0  0  0  0  0  0  0  0
   -4.0385   -3.6175    4.6004 H   0  0  0  0  0  0  0  0  0  0  0  0
   -0.8943   -6.3137    4.5817 H   0  0  0  0  0  0  0  0  0  0  0  0
   -0.3386   -4.6877    4.0407 H   0  0  0  0  0  0  0  0  0  0  0  0
   -1.7053   -4.8613    5.2238 H   0  0  0  0  0  0  0  0  0  0  0  0
   -1.1992   -3.2063    1.3921 H   0  0  0  0  0  0  0  0  0  0  0  0
   -1.0694   -0.7930    1.8128 H   0  0  0  0  0  0  0  0  0  0  0  0
   -1.8728    1.8295    6.2836 H   0  0  0  0  0  0  0  0  0  0  0  0
   -3.6369    2.9587    7.5710 H   0  0  0  0  0  0  0  0  0  0  0  0
   -7.3716    1.1414    7.1737 H   0  0  0  0  0  0  0  0  0  0  0  0
   -7.8574    2.1320    8.5972 H   0  0  0  0  0  0  0  0  0  0  0  0
   -6.1978    1.4562    8.5198 H   0  0  0  0  0  0  0  0  0  0  0  0
   -6.5001    2.0348    4.5028 H   0  0  0  0  0  0  0  0  0  0  0  0
   -4.7598    0.8781    3.2142 H   0  0  0  0  0  0  0  0  0  0  0  0
    3.0996    1.5594    6.5726 H   0  0  0  0  0  0  0  0  0  0  0  0
    3.4795    3.8042    7.5050 H   0  0  0  0  0  0  0  0  0  0  0  0
    3.4502    7.9088    6.0191 H   0  0  0  0  0  0  0  0  0  0  0  0
    3.4947    6.6868    4.6921 H   0  0  0  0  0  0  0  0  0  0  0  0
    2.5764    6.3369    6.2195 H   0  0  0  0  0  0  0  0  0  0  0  0
    5.8656    4.8386    4.0795 H   0  0  0  0  0  0  0  0  0  0  0  0
    5.4707    2.6054    3.1264 H   0  0  0  0  0  0  0  0  0  0  0  0
    4.8623   -1.1771    6.0427 H   0  0  0  0  0  0  0  0  0  0  0  0
    6.8754   -2.6019    5.8810 H   0  0  0  0  0  0  0  0  0  0  0  0
    8.7217   -5.0792    2.7495 H   0  0  0  0  0  0  0  0  0  0  0  0
    7.4899   -3.9289    2.1031 H   0  0  0  0  0  0  0  0  0  0  0  0
    7.2517   -4.6954    3.7272 H   0  0  0  0  0  0  0  0  0  0  0  0
    7.7590   -0.9290    2.0204 H   0  0  0  0  0  0  0  0  0  0  0  0
    5.7544    0.4913    2.1716 H   0  0  0  0  0  0  0  0  0  0  0  0
    1.9662   -4.1394    4.5405 H   0  0  0  0  0  0  0  0  0  0  0  0
    3.5041   -6.1792    4.9662 H   0  0  0  0  0  0  0  0  0  0  0  0
    2.7430   -7.7488    6.6941 H   0  0  0  0  0  0  0  0  0  0  0  0
    0.9895   -9.4066    6.1916 H   0  0  0  0  0  0  0  0  0  0  0  0
   -2.0741   -8.1685    3.9654 H   0  0  0  0  0  0  0  0  0  0  0  0
   -2.8763   -9.7648    3.8825 H   0  0  0  0  0  0  0  0  0  0  0  0
   -3.1736   -8.9166    6.1375 H   0  0  0  0  0  0  0  0  0  0  0  0
   -1.4156   -8.5918    6.3306 H   0  0  0  0  0  0  0  0  0  0  0  0
   -2.0148  -10.3004    6.2155 H   0  0  0  0  0  0  0  0  0  0  0  0
    0.5160   -7.7387    2.2647 H   0  0  0  0  0  0  0  0  0  0  0  0
    6.6244   -4.9841   -0.1841 H   0  0  0  0  0  0  0  0  0  0  0  0
    8.0825   -3.7830   -1.7776 H   0  0  0  0  0  0  0  0  0  0  0  0
    7.2106   -1.8500   -3.0473 H   0  0  0  0  0  0  0  0  0  0  0  0
    4.4161    1.6126   -1.8290 H   0  0  0  0  0  0  0  0  0  0  0  0
    4.6121    0.2407   -0.6787 H   0  0  0  0  0  0  0  0  0  0  0  0
    6.6047    1.7979   -0.7430 H   0  0  0  0  0  0  0  0  0  0  0  0
    7.0288    0.1087   -1.1686 H   0  0  0  0  0  0  0  0  0  0  0  0
    6.8685    1.3608   -2.4753 H   0  0  0  0  0  0  0  0  0  0  0  0
    3.4144   -2.2487   -1.0690 H   0  0  0  0  0  0  0  0  0  0  0  0
    4.2330   -5.9633   -1.9401 H   0  0  0  0  0  0  0  0  0  0  0  0
    2.0806   -9.0711   -2.2612 H   0  0  0  0  0  0  0  0  0  0  0  0
    3.0923   -8.8808   -7.5764 H   0  0  0  0  0  0  0  0  0  0  0  0
    7.2009   -6.7544   -5.4010 H   0  0  0  0  0  0  0  0  0  0  0  0
    7.7312   -7.7017   -8.7167 H   0  0  0  0  0  0  0  0  0  0  0  0
    7.4900   -4.9472   -8.4851 H   0  0  0  0  0  0  0  0  0  0  0  0
    7.9896   -5.3678  -11.0575 H   0  0  0  0  0  0  0  0  0  0  0  0
    5.8304   -6.3101  -12.1601 H   0  0  0  0  0  0  0  0  0  0  0  0
    3.9594   -6.5525  -10.2975 H   0  0  0  0  0  0  0  0  0  0  0  0
    4.8521   -5.2546   -8.1087 H   0  0  0  0  0  0  0  0  0  0  0  0
    5.1740   -4.2792   -9.6025 H   0  0  0  0  0  0  0  0  0  0  0  0
    5.7734   -8.5927   -9.7596 H   0  0  0  0  0  0  0  0  0  0  0  0
  1  2  2  3
  2  3  1  0
  3  4  2  0
  3  5  1  0
  5  6  2  0
  6  7  1  0
  7  8  2  0
  8  9  1  0
  9 10  2  0
 10 11  1  0
 11 12  2  3
 12 13  1  0
 13 14  3  0
 12 15  1  0
 15 16  3  0
  8 17  1  0
 17 18  1  0
 18 19  1  0
 19 20  2  0
 20 21  1  0
 21 22  1  0
 21 23  1  0
  1 24  1  0
 24 25  2  0
 25 26  1  0
 26 27  1  0
 27 28  2  0
 28 29  1  0
 29 30  2  0
 30 31  1  0
 31 32  1  0
 30 33  1  0
 33 34  2  0
 26 35  1  0
 35 36  2  0
 36 37  1  0
 37 38  2  0
 38 39  1  0
 39 40  1  0
 38 41  1  0
 41 42  2  0
 25 43  1  0
 43 44  1  0
 44 45  1  0
 45 46  2  0
 46 47  1  0
 47 48  1  0
 48 49  2  0
 49 50  1  0
 50 51  2  0
 51 52  1  0
 52 53  1  0
 51 54  1  0
 54 55  2  0
 47 56  1  0
 56 57  2  0
 57 58  1  0
 58 59  2  0
 59 60  1  0
 60 61  1  0
 59 62  1  0
 62 63  2  0
 46 64  1  0
 64 65  1  0
 45 66  1  0
 66 67  2  0
 67 68  1  0
 68 69  1  0
 69 70  2  0
 70 71  1  0
 71 72  2  0
 72 73  1  0
 73 74  1  0
 72 75  1  0
 75 76  2  0
 68 77  1  0
 77 78  2  0
 78 79  1  0
 79 80  2  0
 80 81  1  0
 81 82  1  0
 80 83  1  0
 83 84  2  0
 67 85  1  0
 85 86  1  0
 86 87  1  0
 87 88  2  0
 88 89  1  0
 89 90  1  0
 90 91  2  0
 91 92  1  0
 92 93  2  0
 93 94  1  0
 94 95  1  0
 93 96  1  0
 96 97  2  0
 89 98  1  0
 98 99  2  0
 99100  1  0
100101  2  0
101102  1  0
102103  1  0
101104  1  0
104105  2  0
 88106  1  0
106107  1  0
 87108  1  0
108109  2  0
109110  1  0
110111  2  0
111112  1  0
112113  2  0
113114  1  0
114115  2  0
115116  1  0
116117  1  0
117118  1  0
118119  1  0
116120  2  0
111121  1  0
121122  2  0
122123  1  0
123124  1  0
124125  2  0
125126  1  0
126127  2  0
127128  1  0
128129  1  0
129130  1  0
130131  1  0
128132  2  0
123133  2  0
133134  1  0
122135  1  0
135136  2  0
136137  1  0
136138  1  0
138139  2  3
139140  1  0
140141  2  0
140142  1  0
142143  2  0
143144  1  0
144145  2  0
145146  1  0
146147  2  0
147148  1  0
148149  2  3
149150  1  0
150151  3  0
149152  1  0
152153  3  0
145154  1  0
154155  1  0
155156  1  0
156157  2  0
157158  1  0
158159  1  0
158160  1  0
 11  2  1  0
 23 17  1  0
 65 24  1  0
107 66  1  0
134108  1  0
148139  1  0
160154  1  0
 10  5  1  0
 22 18  1  0
 34 27  1  0
 42 35  1  0
 64 43  2  0
 76 69  1  0
 84 77  1  0
106 85  2  0
133110  1  0
147142  1  0
159155  1  0
 23  7  1  0
 55 48  1  0
 63 56  1  0
 97 90  1  0
105 98  1  0
120112  1  0
137121  1  0
160144  1  0
132124  1  0
  1161  1  0
  6162  1  0
  9163  1  0
 17164  1  0
 18165  1  0
 19166  1  0
 20167  1  0
 21168  1  0
 22169  1  0
 22170  1  0
 23171  1  0
 28172  1  0
 29173  1  0
 32174  1  0
 32175  1  0
 32176  1  0
 33177  1  0
 34178  1  0
 36179  1  0
 37180  1  0
 40181  1  0
 40182  1  0
 40183  1  0
 41184  1  0
 42185  1  0
 49186  1  0
 50187  1  0
 53188  1  0
 53189  1  0
 53190  1  0
 54191  1  0
 55192  1  0
 57193  1  0
 58194  1  0
 61195  1  0
 61196  1  0
 61197  1  0
 62198  1  0
 63199  1  0
 70200  1  0
 71201  1  0
 74202  1  0
 74203  1  0
 74204  1  0
 75205  1  0
 76206  1  0
 78207  1  0
 79208  1  0
 82209  1  0
 82210  1  0
 82211  1  0
 83212  1  0
 84213  1  0
 91214  1  0
 92215  1  0
 95216  1  0
 95217  1  0
 95218  1  0
 96219  1  0
 97220  1  0
 99221  1  0
100222  1  0
103223  1  0
103224  1  0
103225  1  0
104226  1  0
105227  1  0
109228  1  0
113229  1  0
114230  1  0
115231  1  0
118232  1  0
118233  1  0
119234  1  0
119235  1  0
119236  1  0
120237  1  0
125238  1  0
126239  1  0
127240  1  0
130241  1  0
130242  1  0
131243  1  0
131244  1  0
131245  1  0
132246  1  0
135247  1  0
138248  1  0
143249  1  0
146250  1  0
154251  1  0
155252  1  0
156253  1  0
157254  1  0
158255  1  0
159256  1  0
159257  1  0
160258  1  0
M  END

