
     RDKit          3D

209231  0  0  0  0  0  0  0  0999 V2000
    1.2979    4.2615   -7.9962 C   0  0  0  0  0  0  0  0  0  0  0  0
    2.3411    3.5046   -7.5867 C   0  0  0  0  0  0  0  0  0  0  0  0
    2.2830    2.5347   -6.4826 C   0  0  0  0  0  0  0  0  0  0  0  0
    1.2533    1.9196   -6.0878 O   0  0  0  0  0  0  0  0  0  0  0  0
    3.6062    2.3606   -5.9388 C   0  0  0  0  0  0  0  0  0  0  0  0
    3.9415    1.6969   -4.7397 C   0  0  0  0  0  0  0  0  0  0  0  0
    5.2669    1.8400   -4.3716 C   0  0  0  0  0  0  0  0  0  0  0  0
    6.2152    2.5818   -5.1428 C   0  0  0  0  0  0  0  0  0  0  0  0
    5.8904    3.2274   -6.3242 C   0  0  0  0  0  0  0  0  0  0  0  0
    4.5274    3.1029   -6.7241 C   0  0  0  0  0  0  0  0  0  0  0  0
    3.7926    3.7465   -7.8609 C   0  0  0  0  0  0  0  0  0  0  0  0
    4.3286    4.3261   -8.9649 C   0  0  0  0  0  0  0  0  0  0  0  0
    3.5206    4.7369  -10.0844 C   0  0  0  0  0  0  0  0  0  0  0  0
    2.8602    5.1014  -10.9637 N   0  0  0  0  0  0  0  0  0  0  0  0
    5.7441    4.4940   -9.1438 C   0  0  0  0  0  0  0  0  0  0  0  0
    6.8841    4.6542   -9.2867 N   0  0  0  0  0  0  0  0  0  0  0  0
    7.2829    2.3129   -4.1205 C   0  0  0  0  0  0  0  0  0  0  0  0
    8.3505    1.2450   -4.4932 C   0  0  0  0  0  0  0  0  0  0  0  0
    9.0436    0.8889   -3.2009 C   0  0  0  0  0  0  0  0  0  0  0  0
    8.1534    0.2060   -2.4666 C   0  0  0  0  0  0  0  0  0  0  0  0
    6.8919    0.1186   -3.2924 C   0  0  0  0  0  0  0  0  0  0  0  0
    7.5242   -0.0197   -4.6688 C   0  0  0  0  0  0  0  0  0  0  0  0
    6.3059    1.5594   -3.3273 C   0  0  0  0  0  0  0  0  0  0  0  0
    0.0495    4.3144   -7.2213 C   0  0  0  0  0  0  0  0  0  0  0  0
    0.0202    4.6295   -5.8753 C   0  0  0  0  0  0  0  0  0  0  0  0
   -1.1577    4.2271   -5.2419 C   0  0  0  0  0  0  0  0  0  0  0  0
   -1.3737    4.2773   -3.8574 C   0  0  0  0  0  0  0  0  0  0  0  0
   -0.3249    4.7270   -2.9171 C   0  0  0  0  0  0  0  0  0  0  0  0
    0.9400    4.1602   -2.7884 C   0  0  0  0  0  0  0  0  0  0  0  0
    1.7087    4.7712   -1.7952 C   0  0  0  0  0  0  0  0  0  0  0  0
    2.9708    4.3696   -1.4964 F   0  0  0  0  0  0  0  0  0  0  0  0
    1.0610    5.8167   -1.1525 C   0  0  0  0  0  0  0  0  0  0  0  0
    1.6005    6.6007    0.0045 C   0  0  0  0  0  0  0  0  0  0  0  0
    1.2419    5.9239    1.3210 C   0  0  0  0  0  0  0  0  0  0  0  0
   -0.4948    5.9658   -1.7868 S   0  0  0  0  0  0  0  0  0  0  0  0
   -2.5441    3.6728   -3.3891 C   0  0  0  0  0  0  0  0  0  0  0  0
   -3.4800    3.0520   -4.2261 C   0  0  0  0  0  0  0  0  0  0  0  0
   -3.3284    3.1118   -5.6338 C   0  0  0  0  0  0  0  0  0  0  0  0
   -4.4460    2.7406   -6.5382 C   0  0  0  0  0  0  0  0  0  0  0  0
   -6.0688    3.1078   -6.2414 S   0  0  0  0  0  0  0  0  0  0  0  0
   -6.6697    2.5962   -7.7217 C   0  0  0  0  0  0  0  0  0  0  0  0
   -8.0799    2.7667   -8.1850 C   0  0  0  0  0  0  0  0  0  0  0  0
   -8.2614    4.1077   -8.8859 C   0  0  0  0  0  0  0  0  0  0  0  0
   -5.5978    2.1690   -8.4936 C   0  0  0  0  0  0  0  0  0  0  0  0
   -4.3641    2.2456   -7.8391 C   0  0  0  0  0  0  0  0  0  0  0  0
   -5.7213    1.7570   -9.7804 F   0  0  0  0  0  0  0  0  0  0  0  0
   -2.1071    3.6639   -6.1058 C   0  0  0  0  0  0  0  0  0  0  0  0
   -1.4260    3.6267   -7.6548 S   0  0  0  0  0  0  0  0  0  0  0  0
   -4.3999    2.2484   -3.5096 C   0  0  0  0  0  0  0  0  0  0  0  0
   -4.1745    2.2598   -2.1255 C   0  0  0  0  0  0  0  0  0  0  0  0
   -2.8779    3.2827   -1.8048 S   0  0  0  0  0  0  0  0  0  0  0  0
   -4.5497    1.2318   -1.1404 C   0  0  0  0  0  0  0  0  0  0  0  0
   -4.3498   -0.1492   -1.3529 C   0  0  0  0  0  0  0  0  0  0  0  0
   -4.8058   -0.8846   -2.5058 N   0  0  0  0  0  0  0  0  0  0  0  0
   -5.7855   -1.9104   -2.2228 C   0  0  0  0  0  0  0  0  0  0  0  0
   -6.9075   -1.6070   -1.4245 C   0  0  0  0  0  0  0  0  0  0  0  0
   -7.6775   -2.6287   -0.8599 C   0  0  0  0  0  0  0  0  0  0  0  0
   -7.3471   -3.9683   -1.0972 C   0  0  0  0  0  0  0  0  0  0  0  0
   -8.1862   -5.2751   -0.2053 S   0  0  0  0  0  0  0  0  0  0  0  0
   -6.9873   -5.2506    1.1713 C   0  0  0  0  0  0  0  0  0  0  0  0
   -6.2952   -4.2799   -1.9680 C   0  0  0  0  0  0  0  0  0  0  0  0
   -5.5114   -3.2603   -2.5171 C   0  0  0  0  0  0  0  0  0  0  0  0
   -4.0237   -0.9438   -3.7203 C   0  0  0  0  0  0  0  0  0  0  0  0
   -2.6366   -0.6761   -3.7105 C   0  0  0  0  0  0  0  0  0  0  0  0
   -1.8679   -0.8938   -4.8598 C   0  0  0  0  0  0  0  0  0  0  0  0
   -2.4660   -1.3882   -6.0241 C   0  0  0  0  0  0  0  0  0  0  0  0
   -1.4449   -1.8601   -7.4265 S   0  0  0  0  0  0  0  0  0  0  0  0
   -1.6711   -0.2879   -8.3031 C   0  0  0  0  0  0  0  0  0  0  0  0
   -3.8488   -1.5984   -6.0610 C   0  0  0  0  0  0  0  0  0  0  0  0
   -4.6235   -1.3617   -4.9218 C   0  0  0  0  0  0  0  0  0  0  0  0
   -3.9483   -0.7998   -0.1856 C   0  0  0  0  0  0  0  0  0  0  0  0
   -3.2947   -2.3169    0.1159 S   0  0  0  0  0  0  0  0  0  0  0  0
   -2.9118   -1.9576    1.7404 C   0  0  0  0  0  0  0  0  0  0  0  0
   -3.2797   -0.6312    2.0270 C   0  0  0  0  0  0  0  0  0  0  0  0
   -2.9780    0.0591    3.2511 N   0  0  0  0  0  0  0  0  0  0  0  0
   -1.7181    0.7494    3.3550 C   0  0  0  0  0  0  0  0  0  0  0  0
   -1.5791    2.0451    2.8344 C   0  0  0  0  0  0  0  0  0  0  0  0
   -0.4083    2.7770    3.0570 C   0  0  0  0  0  0  0  0  0  0  0  0
    0.6297    2.2280    3.8197 C   0  0  0  0  0  0  0  0  0  0  0  0
    2.0912    3.2001    4.1792 S   0  0  0  0  0  0  0  0  0  0  0  0
    1.4191    3.8453    5.7435 C   0  0  0  0  0  0  0  0  0  0  0  0
    0.4992    0.9367    4.3451 C   0  0  0  0  0  0  0  0  0  0  0  0
   -0.6723    0.2057    4.1216 C   0  0  0  0  0  0  0  0  0  0  0  0
   -4.0067    0.2423    4.2595 C   0  0  0  0  0  0  0  0  0  0  0  0
   -3.6966    0.8226    5.5076 C   0  0  0  0  0  0  0  0  0  0  0  0
   -4.6920    1.0176    6.4718 C   0  0  0  0  0  0  0  0  0  0  0  0
   -6.0144    0.6607    6.1940 C   0  0  0  0  0  0  0  0  0  0  0  0
   -7.3051    0.9764    7.4000 S   0  0  0  0  0  0  0  0  0  0  0  0
   -7.5716    2.6877    6.8388 C   0  0  0  0  0  0  0  0  0  0  0  0
   -6.3325    0.0594    4.9757 C   0  0  0  0  0  0  0  0  0  0  0  0
   -5.3415   -0.1563    4.0178 C   0  0  0  0  0  0  0  0  0  0  0  0
   -3.8657   -0.0278    0.9195 C   0  0  0  0  0  0  0  0  0  0  0  0
   -4.2841    1.5343    0.5225 S   0  0  0  0  0  0  0  0  0  0  0  0
   -2.0113   -2.7667    2.5557 C   0  0  0  0  0  0  0  0  0  0  0  0
   -0.7110   -3.0696    2.1745 C   0  0  0  0  0  0  0  0  0  0  0  0
    0.0879   -3.4886    3.2505 C   0  0  0  0  0  0  0  0  0  0  0  0
    1.4742   -3.7403    3.2024 C   0  0  0  0  0  0  0  0  0  0  0  0
    2.2422   -3.5795    1.9589 C   0  0  0  0  0  0  0  0  0  0  0  0
    2.3804   -2.3890    1.2381 C   0  0  0  0  0  0  0  0  0  0  0  0
    3.0797   -2.5552    0.0414 C   0  0  0  0  0  0  0  0  0  0  0  0
    3.3129   -1.5347   -0.8266 F   0  0  0  0  0  0  0  0  0  0  0  0
    3.4992   -3.8639   -0.1863 C   0  0  0  0  0  0  0  0  0  0  0  0
    4.1770   -4.3671   -1.4223 C   0  0  0  0  0  0  0  0  0  0  0  0
    3.1570   -4.9307   -2.4072 C   0  0  0  0  0  0  0  0  0  0  0  0
    2.9818   -4.8274    1.0968 S   0  0  0  0  0  0  0  0  0  0  0  0
    2.1086   -4.0334    4.4193 C   0  0  0  0  0  0  0  0  0  0  0  0
    1.4186   -4.0685    5.6390 C   0  0  0  0  0  0  0  0  0  0  0  0
    0.0250   -3.8324    5.6838 C   0  0  0  0  0  0  0  0  0  0  0  0
   -0.7224   -3.7960    6.9564 C   0  0  0  0  0  0  0  0  0  0  0  0
   -0.7925   -5.0451    8.0812 S   0  0  0  0  0  0  0  0  0  0  0  0
   -1.8739   -4.2812    9.1228 C   0  0  0  0  0  0  0  0  0  0  0  0
   -2.4784   -4.9005   10.3432 C   0  0  0  0  0  0  0  0  0  0  0  0
   -3.6240   -5.8322    9.9625 C   0  0  0  0  0  0  0  0  0  0  0  0
   -2.2082   -3.0436    8.5830 C   0  0  0  0  0  0  0  0  0  0  0  0
   -1.5603   -2.7663    7.3750 C   0  0  0  0  0  0  0  0  0  0  0  0
   -3.1006   -2.1937    9.1509 F   0  0  0  0  0  0  0  0  0  0  0  0
   -0.6085   -3.5522    4.4627 C   0  0  0  0  0  0  0  0  0  0  0  0
   -2.2079   -3.0774    4.1997 S   0  0  0  0  0  0  0  0  0  0  0  0
    2.2692   -4.2380    6.7458 C   0  0  0  0  0  0  0  0  0  0  0  0
    3.6126   -4.3069    6.3855 C   0  0  0  0  0  0  0  0  0  0  0  0
    3.7585   -4.2037    4.7066 S   0  0  0  0  0  0  0  0  0  0  0  0
    4.7251   -4.4511    7.3353 C   0  0  0  0  0  0  0  0  0  0  0  0
    5.7451   -3.5781    7.4241 C   0  0  0  0  0  0  0  0  0  0  0  0
    5.7935   -2.2344    6.8338 C   0  0  0  0  0  0  0  0  0  0  0  0
    4.9588   -1.7506    6.0201 O   0  0  0  0  0  0  0  0  0  0  0  0
    6.8532   -1.4833    7.4880 C   0  0  0  0  0  0  0  0  0  0  0  0
    7.1972   -0.1367    7.3371 C   0  0  0  0  0  0  0  0  0  0  0  0
    6.4600    0.8439    6.0706 Cl  0  0  0  0  0  0  0  0  0  0  0  0
    8.1391    0.4175    8.2255 C   0  0  0  0  0  0  0  0  0  0  0  0
    8.6241    2.1059    8.0418 Cl  0  0  0  0  0  0  0  0  0  0  0  0
    8.6588   -0.3608    9.2861 C   0  0  0  0  0  0  0  0  0  0  0  0
    9.7717    0.3655   10.4504 Cl  0  0  0  0  0  0  0  0  0  0  0  0
    8.2705   -1.7096    9.4347 C   0  0  0  0  0  0  0  0  0  0  0  0
    8.6358   -2.5551   10.9388 Cl  0  0  0  0  0  0  0  0  0  0  0  0
    7.4438   -2.2866    8.4497 C   0  0  0  0  0  0  0  0  0  0  0  0
    6.9133   -3.6724    8.3427 C   0  0  0  0  0  0  0  0  0  0  0  0
    7.6263   -4.8044    8.5710 C   0  0  0  0  0  0  0  0  0  0  0  0
    7.0920   -6.1136    8.3012 C   0  0  0  0  0  0  0  0  0  0  0  0
    6.6912   -7.1814    8.0878 N   0  0  0  0  0  0  0  0  0  0  0  0
    9.0285   -4.7776    8.8996 C   0  0  0  0  0  0  0  0  0  0  0  0
   10.1614   -4.7599    9.1436 N   0  0  0  0  0  0  0  0  0  0  0  0
    1.4196    5.0379   -8.7315 H   0  0  0  0  0  0  0  0  0  0  0  0
    3.2190    1.1714   -4.1292 H   0  0  0  0  0  0  0  0  0  0  0  0
    6.6204    3.8306   -6.8327 H   0  0  0  0  0  0  0  0  0  0  0  0
    7.6671    3.2299   -3.6240 H   0  0  0  0  0  0  0  0  0  0  0  0
    9.0264    1.5055   -5.3352 H   0  0  0  0  0  0  0  0  0  0  0  0
   10.0830    1.0558   -2.9397 H   0  0  0  0  0  0  0  0  0  0  0  0
    8.3525   -0.2613   -1.5085 H   0  0  0  0  0  0  0  0  0  0  0  0
    6.1833   -0.6871   -2.9957 H   0  0  0  0  0  0  0  0  0  0  0  0
    6.7992    0.0247   -5.5107 H   0  0  0  0  0  0  0  0  0  0  0  0
    8.1466   -0.9439   -4.7818 H   0  0  0  0  0  0  0  0  0  0  0  0
    6.0675    2.0087   -2.3384 H   0  0  0  0  0  0  0  0  0  0  0  0
    0.8768    5.0435   -5.3609 H   0  0  0  0  0  0  0  0  0  0  0  0
    1.2810    3.3188   -3.3762 H   0  0  0  0  0  0  0  0  0  0  0  0
    1.1732    7.6249   -0.0091 H   0  0  0  0  0  0  0  0  0  0  0  0
    2.7077    6.6875   -0.0801 H   0  0  0  0  0  0  0  0  0  0  0  0
    1.6887    6.4880    2.1677 H   0  0  0  0  0  0  0  0  0  0  0  0
    1.6355    4.8844    1.3419 H   0  0  0  0  0  0  0  0  0  0  0  0
    0.1368    5.9006    1.4509 H   0  0  0  0  0  0  0  0  0  0  0  0
   -8.7648    2.7156   -7.3156 H   0  0  0  0  0  0  0  0  0  0  0  0
   -8.3439    1.9451   -8.8845 H   0  0  0  0  0  0  0  0  0  0  0  0
   -8.0419    4.9432   -8.1811 H   0  0  0  0  0  0  0  0  0  0  0  0
   -7.5832    4.1872   -9.7664 H   0  0  0  0  0  0  0  0  0  0  0  0
   -9.3109    4.2068   -9.2384 H   0  0  0  0  0  0  0  0  0  0  0  0
   -3.4451    1.9687   -8.3286 H   0  0  0  0  0  0  0  0  0  0  0  0
   -5.1135    1.5847   -3.9794 H   0  0  0  0  0  0  0  0  0  0  0  0
   -7.1283   -0.5778   -1.1726 H   0  0  0  0  0  0  0  0  0  0  0  0
   -8.4901   -2.3751   -0.1866 H   0  0  0  0  0  0  0  0  0  0  0  0
   -5.9517   -5.3860    0.7857 H   0  0  0  0  0  0  0  0  0  0  0  0
   -7.0528   -4.2850    1.7232 H   0  0  0  0  0  0  0  0  0  0  0  0
   -7.2134   -6.0798    1.8728 H   0  0  0  0  0  0  0  0  0  0  0  0
   -6.0337   -5.3136   -2.1591 H   0  0  0  0  0  0  0  0  0  0  0  0
   -4.6406   -3.5308   -3.1000 H   0  0  0  0  0  0  0  0  0  0  0  0
   -2.1419   -0.3525   -2.8032 H   0  0  0  0  0  0  0  0  0  0  0  0
   -0.7952   -0.7257   -4.8287 H   0  0  0  0  0  0  0  0  0  0  0  0
   -2.7263   -0.2038   -8.6385 H   0  0  0  0  0  0  0  0  0  0  0  0
   -1.0053   -0.2683   -9.1902 H   0  0  0  0  0  0  0  0  0  0  0  0
   -1.4081    0.5661   -7.6412 H   0  0  0  0  0  0  0  0  0  0  0  0
   -4.3188   -1.9747   -6.9591 H   0  0  0  0  0  0  0  0  0  0  0  0
   -5.6872   -1.5625   -4.9622 H   0  0  0  0  0  0  0  0  0  0  0  0
   -2.3924    2.5109    2.2985 H   0  0  0  0  0  0  0  0  0  0  0  0
   -0.3325    3.7851    2.6783 H   0  0  0  0  0  0  0  0  0  0  0  0
    1.2731    3.0146    6.4660 H   0  0  0  0  0  0  0  0  0  0  0  0
    0.4489    4.3567    5.5623 H   0  0  0  0  0  0  0  0  0  0  0  0
    2.1334    4.5754    6.1745 H   0  0  0  0  0  0  0  0  0  0  0  0
    1.2829    0.5158    4.9663 H   0  0  0  0  0  0  0  0  0  0  0  0
   -0.7806   -0.7539    4.5934 H   0  0  0  0  0  0  0  0  0  0  0  0
   -2.6929    1.1337    5.7531 H   0  0  0  0  0  0  0  0  0  0  0  0
   -4.4405    1.4759    7.4193 H   0  0  0  0  0  0  0  0  0  0  0  0
   -7.8517    2.7026    5.7632 H   0  0  0  0  0  0  0  0  0  0  0  0
   -6.6470    3.2848    6.9891 H   0  0  0  0  0  0  0  0  0  0  0  0
   -8.3877    3.1457    7.4326 H   0  0  0  0  0  0  0  0  0  0  0  0
   -7.3501   -0.2396    4.7633 H   0  0  0  0  0  0  0  0  0  0  0  0
   -5.6224   -0.6256    3.0857 H   0  0  0  0  0  0  0  0  0  0  0  0
   -0.3384   -2.8959    1.1726 H   0  0  0  0  0  0  0  0  0  0  0  0
    1.9728   -1.4403    1.5668 H   0  0  0  0  0  0  0  0  0  0  0  0
    4.7393   -3.5371   -1.9078 H   0  0  0  0  0  0  0  0  0  0  0  0
    4.9065   -5.1622   -1.1512 H   0  0  0  0  0  0  0  0  0  0  0  0
    3.6742   -5.2568   -3.3327 H   0  0  0  0  0  0  0  0  0  0  0  0
    2.6326   -5.8059   -1.9677 H   0  0  0  0  0  0  0  0  0  0  0  0
    2.4032   -4.1588   -2.6798 H   0  0  0  0  0  0  0  0  0  0  0  0
   -2.8551   -4.1062   11.0257 H   0  0  0  0  0  0  0  0  0  0  0  0
   -1.6987   -5.4772   10.8867 H   0  0  0  0  0  0  0  0  0  0  0  0
   -3.2503   -6.6564    9.3187 H   0  0  0  0  0  0  0  0  0  0  0  0
   -4.4122   -5.2629    9.4198 H   0  0  0  0  0  0  0  0  0  0  0  0
   -4.0626   -6.2708   10.8816 H   0  0  0  0  0  0  0  0  0  0  0  0
   -1.7138   -1.8491    6.8231 H   0  0  0  0  0  0  0  0  0  0  0  0
    1.9370   -4.2433    7.7783 H   0  0  0  0  0  0  0  0  0  0  0  0
    4.6658   -5.2789    8.0267 H   0  0  0  0  0  0  0  0  0  0  0  0
  1  2  2  3
  2  3  1  0
  3  4  2  0
  3  5  1  0
  5  6  2  0
  6  7  1  0
  7  8  2  0
  8  9  1  0
  9 10  2  0
 10 11  1  0
 11 12  2  3
 12 13  1  0
 13 14  3  0
 12 15  1  0
 15 16  3  0
  8 17  1  0
 17 18  1  0
 18 19  1  0
 19 20  2  0
 20 21  1  0
 21 22  1  0
 21 23  1  0
  1 24  1  0
 24 25  2  0
 25 26  1  0
 26 27  2  0
 27 28  1  0
 28 29  2  0
 29 30  1  0
 30 31  1  0
 30 32  2  0
 32 33  1  0
 33 34  1  0
 32 35  1  0
 27 36  1  0
 36 37  2  0
 37 38  1  0
 38 39  1  0
 39 40  1  0
 40 41  1  0
 41 42  1  0
 42 43  1  0
 41 44  2  0
 44 45  1  0
 44 46  1  0
 38 47  2  0
 47 48  1  0
 37 49  1  0
 49 50  2  0
 50 51  1  0
 50 52  1  0
 52 53  2  0
 53 54  1  0
 54 55  1  0
 55 56  2  0
 56 57  1  0
 57 58  2  0
 58 59  1  0
 59 60  1  0
 58 61  1  0
 61 62  2  0
 54 63  1  0
 63 64  2  0
 64 65  1  0
 65 66  2  0
 66 67  1  0
 67 68  1  0
 66 69  1  0
 69 70  2  0
 53 71  1  0
 71 72  1  0
 72 73  1  0
 73 74  2  0
 74 75  1  0
 75 76  1  0
 76 77  2  0
 77 78  1  0
 78 79  2  0
 79 80  1  0
 80 81  1  0
 79 82  1  0
 82 83  2  0
 75 84  1  0
 84 85  2  0
 85 86  1  0
 86 87  2  0
 87 88  1  0
 88 89  1  0
 87 90  1  0
 90 91  2  0
 74 92  1  0
 92 93  1  0
 73 94  1  0
 94 95  2  0
 95 96  1  0
 96 97  2  0
 97 98  1  0
 98 99  2  0
 99100  1  0
100101  1  0
100102  2  0
102103  1  0
103104  1  0
102105  1  0
 97106  1  0
106107  2  0
107108  1  0
108109  1  0
109110  1  0
110111  1  0
111112  1  0
112113  1  0
111114  2  0
114115  1  0
114116  1  0
108117  2  0
117118  1  0
107119  1  0
119120  2  0
120121  1  0
120122  1  0
122123  2  3
123124  1  0
124125  2  0
124126  1  0
126127  2  0
127128  1  0
127129  1  0
129130  1  0
129131  2  0
131132  1  0
131133  1  0
133134  1  0
133135  2  0
135136  1  0
136137  2  3
137138  1  0
138139  3  0
137140  1  0
140141  3  0
 11  2  1  0
 23 17  1  0
 48 24  1  0
 93 52  1  0
118 94  1  0
136123  1  0
 10  5  1  0
 22 18  1  0
 47 26  1  0
 62 55  1  0
 70 63  1  0
 92 71  2  0
117 96  1  0
135126  1  0
 23  7  1  0
 35 28  1  0
 51 36  1  0
 83 76  1  0
 91 84  1  0
105 98  1  0
121106  1  0
 45 39  2  0
115109  2  0
  1142  1  0
  6143  1  0
  9144  1  0
 17145  1  0
 18146  1  0
 19147  1  0
 20148  1  0
 21149  1  0
 22150  1  0
 22151  1  0
 23152  1  0
 25153  1  0
 29154  1  0
 33155  1  0
 33156  1  0
 34157  1  0
 34158  1  0
 34159  1  0
 42160  1  0
 42161  1  0
 43162  1  0
 43163  1  0
 43164  1  0
 45165  1  0
 49166  1  0
 56167  1  0
 57168  1  0
 60169  1  0
 60170  1  0
 60171  1  0
 61172  1  0
 62173  1  0
 64174  1  0
 65175  1  0
 68176  1  0
 68177  1  0
 68178  1  0
 69179  1  0
 70180  1  0
 77181  1  0
 78182  1  0
 81183  1  0
 81184  1  0
 81185  1  0
 82186  1  0
 83187  1  0
 85188  1  0
 86189  1  0
 89190  1  0
 89191  1  0
 89192  1  0
 90193  1  0
 91194  1  0
 95195  1  0
 99196  1  0
103197  1  0
103198  1  0
104199  1  0
104200  1  0
104201  1  0
112202  1  0
112203  1  0
113204  1  0
113205  1  0
113206  1  0
115207  1  0
119208  1  0
122209  1  0
M  END

