
     RDKit          3D

206227  0  0  0  0  0  0  0  0999 V2000
    1.4930    6.9481   -2.0692 C   0  0  0  0  0  0  0  0  0  0  0  0
    2.1136    7.3177   -0.9345 C   0  0  0  0  0  0  0  0  0  0  0  0
    2.1168    8.7057   -0.4738 C   0  0  0  0  0  0  0  0  0  0  0  0
    1.8415    9.7147   -1.1772 O   0  0  0  0  0  0  0  0  0  0  0  0
    2.3721    8.7199    0.9512 C   0  0  0  0  0  0  0  0  0  0  0  0
    2.2998    9.8368    1.8178 C   0  0  0  0  0  0  0  0  0  0  0  0
    2.4431    9.5138    3.1557 C   0  0  0  0  0  0  0  0  0  0  0  0
    2.6342    8.1719    3.6177 C   0  0  0  0  0  0  0  0  0  0  0  0
    2.7118    7.0768    2.7767 C   0  0  0  0  0  0  0  0  0  0  0  0
    2.5895    7.3882    1.3939 C   0  0  0  0  0  0  0  0  0  0  0  0
    2.5754    6.4798    0.2130 C   0  0  0  0  0  0  0  0  0  0  0  0
    3.2118    5.2833    0.1391 C   0  0  0  0  0  0  0  0  0  0  0  0
    3.7467    4.7805   -1.0973 C   0  0  0  0  0  0  0  0  0  0  0  0
    4.2154    4.3647   -2.0693 N   0  0  0  0  0  0  0  0  0  0  0  0
    3.6043    4.5380    1.3058 C   0  0  0  0  0  0  0  0  0  0  0  0
    3.9222    3.9255    2.2365 N   0  0  0  0  0  0  0  0  0  0  0  0
    2.6137    8.6385    5.0388 C   0  0  0  0  0  0  0  0  0  0  0  0
    1.3217    8.3675    5.8731 C   0  0  0  0  0  0  0  0  0  0  0  0
    0.1045    8.3851    4.9773 C   0  0  0  0  0  0  0  0  0  0  0  0
   -0.0492    9.6414    4.5586 C   0  0  0  0  0  0  0  0  0  0  0  0
    1.0717   10.4398    5.1876 C   0  0  0  0  0  0  0  0  0  0  0  0
    1.1503    9.7273    6.5283 C   0  0  0  0  0  0  0  0  0  0  0  0
    2.4392   10.0180    4.5701 C   0  0  0  0  0  0  0  0  0  0  0  0
    1.1060    5.5761   -2.4096 C   0  0  0  0  0  0  0  0  0  0  0  0
    0.0505    4.8300   -1.8448 C   0  0  0  0  0  0  0  0  0  0  0  0
   -0.9072    5.3482   -0.8971 N   0  0  0  0  0  0  0  0  0  0  0  0
   -0.8741    4.8319    0.4460 C   0  0  0  0  0  0  0  0  0  0  0  0
   -1.4491    3.5883    0.7509 C   0  0  0  0  0  0  0  0  0  0  0  0
   -1.3775    3.0774    2.0503 C   0  0  0  0  0  0  0  0  0  0  0  0
   -0.7479    3.8100    3.0614 C   0  0  0  0  0  0  0  0  0  0  0  0
   -0.6833    3.1656    4.7363 S   0  0  0  0  0  0  0  0  0  0  0  0
    0.9186    2.3400    4.4947 C   0  0  0  0  0  0  0  0  0  0  0  0
   -0.2197    5.0714    2.7754 C   0  0  0  0  0  0  0  0  0  0  0  0
   -0.3064    5.5893    1.4770 C   0  0  0  0  0  0  0  0  0  0  0  0
   -1.9076    6.3209   -1.3045 C   0  0  0  0  0  0  0  0  0  0  0  0
   -2.7598    6.9293   -0.3577 C   0  0  0  0  0  0  0  0  0  0  0  0
   -3.7365    7.8460   -0.7607 C   0  0  0  0  0  0  0  0  0  0  0  0
   -3.8887    8.1638   -2.1134 C   0  0  0  0  0  0  0  0  0  0  0  0
   -5.1457    9.3384   -2.6279 S   0  0  0  0  0  0  0  0  0  0  0  0
   -6.3984    8.0535   -2.9331 C   0  0  0  0  0  0  0  0  0  0  0  0
   -3.0480    7.5770   -3.0621 C   0  0  0  0  0  0  0  0  0  0  0  0
   -2.0743    6.6587   -2.6662 C   0  0  0  0  0  0  0  0  0  0  0  0
   -0.1371    3.6409   -2.5501 C   0  0  0  0  0  0  0  0  0  0  0  0
   -1.2283    2.3717   -2.4764 S   0  0  0  0  0  0  0  0  0  0  0  0
   -0.5531    1.5129   -3.7840 C   0  0  0  0  0  0  0  0  0  0  0  0
    0.5251    2.2542   -4.2956 C   0  0  0  0  0  0  0  0  0  0  0  0
    1.2928    1.9062   -5.4541 N   0  0  0  0  0  0  0  0  0  0  0  0
    1.0134    2.6202   -6.6746 C   0  0  0  0  0  0  0  0  0  0  0  0
    2.0387    3.2850   -7.3648 C   0  0  0  0  0  0  0  0  0  0  0  0
    1.7545    4.0313   -8.5106 C   0  0  0  0  0  0  0  0  0  0  0  0
    0.4430    4.0955   -8.9954 C   0  0  0  0  0  0  0  0  0  0  0  0
    0.0659    5.0596  -10.4616 S   0  0  0  0  0  0  0  0  0  0  0  0
    0.4203    3.6925  -11.6082 C   0  0  0  0  0  0  0  0  0  0  0  0
   -0.5830    3.4312   -8.3160 C   0  0  0  0  0  0  0  0  0  0  0  0
   -0.3030    2.6868   -7.1683 C   0  0  0  0  0  0  0  0  0  0  0  0
    2.4940    1.1184   -5.3215 C   0  0  0  0  0  0  0  0  0  0  0  0
    3.2826    1.1856   -4.1569 C   0  0  0  0  0  0  0  0  0  0  0  0
    4.4938    0.4968   -4.0819 C   0  0  0  0  0  0  0  0  0  0  0  0
    4.9306   -0.2749   -5.1654 C   0  0  0  0  0  0  0  0  0  0  0  0
    6.5298   -1.0740   -5.1132 S   0  0  0  0  0  0  0  0  0  0  0  0
    7.3829    0.3380   -5.8830 C   0  0  0  0  0  0  0  0  0  0  0  0
    4.1254   -0.3977   -6.3010 C   0  0  0  0  0  0  0  0  0  0  0  0
    2.9204    0.3000   -6.3852 C   0  0  0  0  0  0  0  0  0  0  0  0
    0.6960    3.4444   -3.5980 C   0  0  0  0  0  0  0  0  0  0  0  0
    1.6994    4.7674   -3.7882 S   0  0  0  0  0  0  0  0  0  0  0  0
   -0.9289    0.1357   -4.1190 C   0  0  0  0  0  0  0  0  0  0  0  0
   -2.1548   -0.4436   -3.7849 C   0  0  0  0  0  0  0  0  0  0  0  0
   -2.1184   -1.8480   -3.7488 C   0  0  0  0  0  0  0  0  0  0  0  0
   -3.1317   -2.6822   -3.2319 C   0  0  0  0  0  0  0  0  0  0  0  0
   -4.4723   -2.1580   -2.8981 C   0  0  0  0  0  0  0  0  0  0  0  0
   -5.3084   -1.4892   -3.7842 C   0  0  0  0  0  0  0  0  0  0  0  0
   -6.4967   -1.0506   -3.1905 C   0  0  0  0  0  0  0  0  0  0  0  0
   -7.7400   -0.1829   -4.0753 Cl  0  0  0  0  0  0  0  0  0  0  0  0
   -6.5806   -1.3520   -1.8388 C   0  0  0  0  0  0  0  0  0  0  0  0
   -7.9358   -0.9331   -0.7416 S   0  0  0  0  0  0  0  0  0  0  0  0
   -7.3245    0.7466   -0.3692 C   0  0  0  0  0  0  0  0  0  0  0  0
   -6.3680    0.7193    0.8166 C   0  0  0  0  0  0  0  0  0  0  0  0
   -5.1988   -2.1910   -1.3755 S   0  0  0  0  0  0  0  0  0  0  0  0
   -2.7814   -4.0198   -2.9848 C   0  0  0  0  0  0  0  0  0  0  0  0
   -1.5187   -4.5352   -3.2835 C   0  0  0  0  0  0  0  0  0  0  0  0
   -0.5132   -3.7103   -3.8399 C   0  0  0  0  0  0  0  0  0  0  0  0
    0.8997   -4.1492   -3.9322 C   0  0  0  0  0  0  0  0  0  0  0  0
    1.7847   -4.8045   -2.6579 S   0  0  0  0  0  0  0  0  0  0  0  0
    3.2569   -4.8283   -3.4613 C   0  0  0  0  0  0  0  0  0  0  0  0
    4.7913   -5.4108   -2.7420 S   0  0  0  0  0  0  0  0  0  0  0  0
    5.1721   -3.8208   -1.9352 C   0  0  0  0  0  0  0  0  0  0  0  0
    6.1689   -4.0498   -0.8038 C   0  0  0  0  0  0  0  0  0  0  0  0
    3.0829   -4.3076   -4.7389 C   0  0  0  0  0  0  0  0  0  0  0  0
    1.7631   -3.9195   -5.0031 C   0  0  0  0  0  0  0  0  0  0  0  0
    4.3802   -4.1437   -5.9143 Cl  0  0  0  0  0  0  0  0  0  0  0  0
   -0.8543   -2.3684   -4.0617 C   0  0  0  0  0  0  0  0  0  0  0  0
    0.1907   -1.0909   -4.3816 S   0  0  0  0  0  0  0  0  0  0  0  0
   -1.3515   -5.8645   -2.8722 C   0  0  0  0  0  0  0  0  0  0  0  0
   -2.4366   -6.3888   -2.1529 C   0  0  0  0  0  0  0  0  0  0  0  0
   -3.6448   -5.1955   -2.1513 S   0  0  0  0  0  0  0  0  0  0  0  0
   -2.4328   -7.5858   -1.2503 C   0  0  0  0  0  0  0  0  0  0  0  0
   -1.2625   -8.3512   -0.9945 C   0  0  0  0  0  0  0  0  0  0  0  0
   -0.1370   -8.2207   -1.8117 O   0  0  0  0  0  0  0  0  0  0  0  0
    0.4773   -9.3052   -2.5045 C   0  0  0  0  0  0  0  0  0  0  0  0
    1.6110   -8.7665   -3.3653 C   0  0  0  0  0  0  0  0  0  0  0  0
   -1.2055   -9.1905    0.1315 C   0  0  0  0  0  0  0  0  0  0  0  0
   -0.0005   -9.8100    0.4745 O   0  0  0  0  0  0  0  0  0  0  0  0
    0.9377   -9.2321    1.3834 C   0  0  0  0  0  0  0  0  0  0  0  0
    1.5701   -7.9696    0.8056 C   0  0  0  0  0  0  0  0  0  0  0  0
   -2.3357   -9.3552    0.9440 C   0  0  0  0  0  0  0  0  0  0  0  0
   -3.5434   -8.7525    0.5819 C   0  0  0  0  0  0  0  0  0  0  0  0
   -3.5878   -7.8643   -0.4939 C   0  0  0  0  0  0  0  0  0  0  0  0
   -2.2184  -10.0612    2.2345 C   0  0  0  0  0  0  0  0  0  0  0  0
   -2.0979   -9.3918    3.3993 C   0  0  0  0  0  0  0  0  0  0  0  0
   -2.1104   -7.9251    3.5443 C   0  0  0  0  0  0  0  0  0  0  0  0
   -2.6841   -7.1014    2.7846 O   0  0  0  0  0  0  0  0  0  0  0  0
   -1.3102   -7.5680    4.6980 C   0  0  0  0  0  0  0  0  0  0  0  0
   -0.8994   -6.2700    5.0765 C   0  0  0  0  0  0  0  0  0  0  0  0
    0.0353   -6.2556    6.0925 C   0  0  0  0  0  0  0  0  0  0  0  0
    0.5586   -7.4465    6.6956 C   0  0  0  0  0  0  0  0  0  0  0  0
    0.1483   -8.7221    6.3396 C   0  0  0  0  0  0  0  0  0  0  0  0
   -0.8481   -8.7529    5.3211 C   0  0  0  0  0  0  0  0  0  0  0  0
   -1.4523   -9.9255    4.6327 C   0  0  0  0  0  0  0  0  0  0  0  0
   -1.5834  -11.1796    5.1283 C   0  0  0  0  0  0  0  0  0  0  0  0
   -1.0460  -11.5574    6.4066 C   0  0  0  0  0  0  0  0  0  0  0  0
   -0.6111  -11.8747    7.4333 N   0  0  0  0  0  0  0  0  0  0  0  0
   -2.3677  -12.1862    4.4608 C   0  0  0  0  0  0  0  0  0  0  0  0
   -2.9928  -13.0027    3.9255 N   0  0  0  0  0  0  0  0  0  0  0  0
    1.4770   -6.6264    7.5547 C   0  0  0  0  0  0  0  0  0  0  0  0
    1.1300   -6.4753    9.0661 C   0  0  0  0  0  0  0  0  0  0  0  0
   -0.3669   -6.5617    9.2555 C   0  0  0  0  0  0  0  0  0  0  0  0
   -0.8819   -5.4599    8.7066 C   0  0  0  0  0  0  0  0  0  0  0  0
    0.2815   -4.6609    8.1617 C   0  0  0  0  0  0  0  0  0  0  0  0
    1.3099   -4.9754    9.2308 C   0  0  0  0  0  0  0  0  0  0  0  0
    0.9229   -5.4086    6.9513 C   0  0  0  0  0  0  0  0  0  0  0  0
    1.1866    7.7141   -2.7733 H   0  0  0  0  0  0  0  0  0  0  0  0
    2.1016   10.8415    1.4757 H   0  0  0  0  0  0  0  0  0  0  0  0
    2.7935    6.0779    3.1791 H   0  0  0  0  0  0  0  0  0  0  0  0
    3.5645    8.4705    5.5876 H   0  0  0  0  0  0  0  0  0  0  0  0
    1.3803    7.5080    6.5727 H   0  0  0  0  0  0  0  0  0  0  0  0
   -0.5804    7.5671    4.7821 H   0  0  0  0  0  0  0  0  0  0  0  0
   -0.8755   10.0168    3.9673 H   0  0  0  0  0  0  0  0  0  0  0  0
    0.8966   11.5352    5.2389 H   0  0  0  0  0  0  0  0  0  0  0  0
    0.2148    9.8141    7.1326 H   0  0  0  0  0  0  0  0  0  0  0  0
    2.0239   10.0414    7.1470 H   0  0  0  0  0  0  0  0  0  0  0  0
    3.2978   10.6881    4.8159 H   0  0  0  0  0  0  0  0  0  0  0  0
   -1.9796    3.0238    0.0023 H   0  0  0  0  0  0  0  0  0  0  0  0
   -1.8227    2.1199    2.2733 H   0  0  0  0  0  0  0  0  0  0  0  0
    1.2019    1.8212    5.4342 H   0  0  0  0  0  0  0  0  0  0  0  0
    0.8445    1.5921    3.6758 H   0  0  0  0  0  0  0  0  0  0  0  0
    1.6971    3.0937    4.2487 H   0  0  0  0  0  0  0  0  0  0  0  0
    0.2484    5.6578    3.5505 H   0  0  0  0  0  0  0  0  0  0  0  0
    0.0483    6.5881    1.2717 H   0  0  0  0  0  0  0  0  0  0  0  0
   -2.6786    6.7055    0.6970 H   0  0  0  0  0  0  0  0  0  0  0  0
   -4.3757    8.3070   -0.0180 H   0  0  0  0  0  0  0  0  0  0  0  0
   -7.3243    8.5353   -3.3073 H   0  0  0  0  0  0  0  0  0  0  0  0
   -6.6252    7.5112   -1.9902 H   0  0  0  0  0  0  0  0  0  0  0  0
   -6.0316    7.3372   -3.6984 H   0  0  0  0  0  0  0  0  0  0  0  0
   -3.1474    7.8344   -4.1066 H   0  0  0  0  0  0  0  0  0  0  0  0
   -1.4586    6.2116   -3.4368 H   0  0  0  0  0  0  0  0  0  0  0  0
    3.0563    3.2570   -6.9956 H   0  0  0  0  0  0  0  0  0  0  0  0
    2.5514    4.5510   -9.0277 H   0  0  0  0  0  0  0  0  0  0  0  0
   -0.0531    2.7529  -11.2564 H   0  0  0  0  0  0  0  0  0  0  0  0
    0.0159    3.9430  -12.6059 H   0  0  0  0  0  0  0  0  0  0  0  0
    1.5169    3.5545  -11.6834 H   0  0  0  0  0  0  0  0  0  0  0  0
   -1.6000    3.4709   -8.6876 H   0  0  0  0  0  0  0  0  0  0  0  0
   -1.1096    2.1786   -6.6530 H   0  0  0  0  0  0  0  0  0  0  0  0
    2.9782    1.7928   -3.3118 H   0  0  0  0  0  0  0  0  0  0  0  0
    5.1081    0.5844   -3.1928 H   0  0  0  0  0  0  0  0  0  0  0  0
    8.4425    0.0697   -6.0626 H   0  0  0  0  0  0  0  0  0  0  0  0
    6.9108    0.5912   -6.8552 H   0  0  0  0  0  0  0  0  0  0  0  0
    7.3420    1.2191   -5.2089 H   0  0  0  0  0  0  0  0  0  0  0  0
    4.4494   -1.0014   -7.1415 H   0  0  0  0  0  0  0  0  0  0  0  0
    2.3201    0.2179   -7.2845 H   0  0  0  0  0  0  0  0  0  0  0  0
   -3.0066    0.1422   -3.4600 H   0  0  0  0  0  0  0  0  0  0  0  0
   -5.0714   -1.3280   -4.8296 H   0  0  0  0  0  0  0  0  0  0  0  0
   -8.1963    1.3864   -0.1167 H   0  0  0  0  0  0  0  0  0  0  0  0
   -6.8089    1.1931   -1.2503 H   0  0  0  0  0  0  0  0  0  0  0  0
   -5.9797    1.7427    1.0007 H   0  0  0  0  0  0  0  0  0  0  0  0
   -6.9049    0.3676    1.7252 H   0  0  0  0  0  0  0  0  0  0  0  0
   -5.5120    0.0400    0.6134 H   0  0  0  0  0  0  0  0  0  0  0  0
    4.2486   -3.3689   -1.5038 H   0  0  0  0  0  0  0  0  0  0  0  0
    5.5969   -3.1174   -2.6814 H   0  0  0  0  0  0  0  0  0  0  0  0
    5.7286   -4.7361   -0.0502 H   0  0  0  0  0  0  0  0  0  0  0  0
    7.1061   -4.4905   -1.2018 H   0  0  0  0  0  0  0  0  0  0  0  0
    6.4062   -3.0829   -0.3101 H   0  0  0  0  0  0  0  0  0  0  0  0
    1.4486   -3.4772   -5.9391 H   0  0  0  0  0  0  0  0  0  0  0  0
   -0.4376   -6.3902   -3.0768 H   0  0  0  0  0  0  0  0  0  0  0  0
   -0.2727   -9.8084   -3.1562 H   0  0  0  0  0  0  0  0  0  0  0  0
    0.8863  -10.0522   -1.7902 H   0  0  0  0  0  0  0  0  0  0  0  0
    2.3432   -8.2237   -2.7354 H   0  0  0  0  0  0  0  0  0  0  0  0
    2.1267   -9.6018   -3.8844 H   0  0  0  0  0  0  0  0  0  0  0  0
    1.2082   -8.0635   -4.1221 H   0  0  0  0  0  0  0  0  0  0  0  0
    0.4479   -8.9949    2.3484 H   0  0  0  0  0  0  0  0  0  0  0  0
    1.7420   -9.9720    1.5825 H   0  0  0  0  0  0  0  0  0  0  0  0
    2.0824   -8.1984   -0.1522 H   0  0  0  0  0  0  0  0  0  0  0  0
    2.3170   -7.5651    1.5222 H   0  0  0  0  0  0  0  0  0  0  0  0
    0.7971   -7.1936    0.6376 H   0  0  0  0  0  0  0  0  0  0  0  0
   -4.4328   -8.9001    1.1883 H   0  0  0  0  0  0  0  0  0  0  0  0
   -4.5198   -7.3491   -0.6868 H   0  0  0  0  0  0  0  0  0  0  0  0
   -1.9308  -11.1050    2.1755 H   0  0  0  0  0  0  0  0  0  0  0  0
   -1.2385   -5.3712    4.5790 H   0  0  0  0  0  0  0  0  0  0  0  0
    0.6157   -9.5968    6.7637 H   0  0  0  0  0  0  0  0  0  0  0  0
    2.5576   -6.7783    7.3369 H   0  0  0  0  0  0  0  0  0  0  0  0
    1.7246   -7.1036    9.7598 H   0  0  0  0  0  0  0  0  0  0  0  0
   -0.9186   -7.3288    9.7904 H   0  0  0  0  0  0  0  0  0  0  0  0
   -1.9284   -5.1728    8.7228 H   0  0  0  0  0  0  0  0  0  0  0  0
    0.0733   -3.5842    7.9949 H   0  0  0  0  0  0  0  0  0  0  0  0
    2.3380   -4.6189    8.9756 H   0  0  0  0  0  0  0  0  0  0  0  0
    1.0268   -4.6003   10.2444 H   0  0  0  0  0  0  0  0  0  0  0  0
    1.6642   -4.8126    6.3723 H   0  0  0  0  0  0  0  0  0  0  0  0
  1  2  2  3
  2  3  1  0
  3  4  2  0
  3  5  1  0
  5  6  2  0
  6  7  1  0
  7  8  2  0
  8  9  1  0
  9 10  2  0
 10 11  1  0
 11 12  2  3
 12 13  1  0
 13 14  3  0
 12 15  1  0
 15 16  3  0
  8 17  1  0
 17 18  1  0
 18 19  1  0
 19 20  2  0
 20 21  1  0
 21 22  1  0
 21 23  1  0
  1 24  1  0
 24 25  2  0
 25 26  1  0
 26 27  1  0
 27 28  2  0
 28 29  1  0
 29 30  2  0
 30 31  1  0
 31 32  1  0
 30 33  1  0
 33 34  2  0
 26 35  1  0
 35 36  2  0
 36 37  1  0
 37 38  2  0
 38 39  1  0
 39 40  1  0
 38 41  1  0
 41 42  2  0
 25 43  1  0
 43 44  1  0
 44 45  1  0
 45 46  2  0
 46 47  1  0
 47 48  1  0
 48 49  2  0
 49 50  1  0
 50 51  2  0
 51 52  1  0
 52 53  1  0
 51 54  1  0
 54 55  2  0
 47 56  1  0
 56 57  2  0
 57 58  1  0
 58 59  2  0
 59 60  1  0
 60 61  1  0
 59 62  1  0
 62 63  2  0
 46 64  1  0
 64 65  1  0
 45 66  1  0
 66 67  2  0
 67 68  1  0
 68 69  2  0
 69 70  1  0
 70 71  2  0
 71 72  1  0
 72 73  1  0
 72 74  2  0
 74 75  1  0
 75 76  1  0
 76 77  1  0
 74 78  1  0
 69 79  1  0
 79 80  2  0
 80 81  1  0
 81 82  1  0
 82 83  1  0
 83 84  1  0
 84 85  1  0
 85 86  1  0
 86 87  1  0
 84 88  2  0
 88 89  1  0
 88 90  1  0
 81 91  2  0
 91 92  1  0
 80 93  1  0
 93 94  2  0
 94 95  1  0
 94 96  1  0
 96 97  2  0
 97 98  1  0
 98 99  1  0
 99100  1  0
 97101  1  0
101102  1  0
102103  1  0
103104  1  0
101105  2  0
105106  1  0
106107  2  0
105108  1  0
108109  2  3
109110  1  0
110111  2  0
110112  1  0
112113  2  0
113114  1  0
114115  2  0
115116  1  0
116117  2  0
117118  1  0
118119  2  3
119120  1  0
120121  3  0
119122  1  0
122123  3  0
115124  1  0
124125  1  0
125126  1  0
126127  2  0
127128  1  0
128129  1  0
128130  1  0
 11  2  1  0
 23 17  1  0
 65 24  1  0
 92 66  1  0
107 96  1  0
118109  1  0
130124  1  0
 10  5  1  0
 22 18  1  0
 34 27  1  0
 42 35  1  0
 64 43  2  0
 91 68  1  0
117112  1  0
129125  1  0
 23  7  1  0
 55 48  1  0
 63 56  1  0
 78 70  1  0
 95 79  1  0
130114  1  0
 89 82  2  0
  1131  1  0
  6132  1  0
  9133  1  0
 17134  1  0
 18135  1  0
 19136  1  0
 20137  1  0
 21138  1  0
 22139  1  0
 22140  1  0
 23141  1  0
 28142  1  0
 29143  1  0
 32144  1  0
 32145  1  0
 32146  1  0
 33147  1  0
 34148  1  0
 36149  1  0
 37150  1  0
 40151  1  0
 40152  1  0
 40153  1  0
 41154  1  0
 42155  1  0
 49156  1  0
 50157  1  0
 53158  1  0
 53159  1  0
 53160  1  0
 54161  1  0
 55162  1  0
 57163  1  0
 58164  1  0
 61165  1  0
 61166  1  0
 61167  1  0
 62168  1  0
 63169  1  0
 67170  1  0
 71171  1  0
 76172  1  0
 76173  1  0
 77174  1  0
 77175  1  0
 77176  1  0
 86177  1  0
 86178  1  0
 87179  1  0
 87180  1  0
 87181  1  0
 89182  1  0
 93183  1  0
 99184  1  0
 99185  1  0
100186  1  0
100187  1  0
100188  1  0
103189  1  0
103190  1  0
104191  1  0
104192  1  0
104193  1  0
106194  1  0
107195  1  0
108196  1  0
113197  1  0
116198  1  0
124199  1  0
125200  1  0
126201  1  0
127202  1  0
128203  1  0
129204  1  0
129205  1  0
130206  1  0
M  END

