
     RDKit          3D

184204  0  0  0  0  0  0  0  0999 V2000
    4.9898   -2.5760   -0.1193 C   0  0  0  0  0  0  0  0  0  0  0  0
    5.4361   -3.6590   -0.8239 C   0  0  0  0  0  0  0  0  0  0  0  0
    5.0647   -5.0517   -0.4914 C   0  0  0  0  0  0  0  0  0  0  0  0
    4.2713   -5.4886    0.4162 O   0  0  0  0  0  0  0  0  0  0  0  0
    5.7253   -5.9550   -1.3969 C   0  0  0  0  0  0  0  0  0  0  0  0
    5.5211   -7.3917   -1.4234 C   0  0  0  0  0  0  0  0  0  0  0  0
    6.3185   -7.9682   -2.3949 C   0  0  0  0  0  0  0  0  0  0  0  0
    7.1981   -7.2152   -3.2721 C   0  0  0  0  0  0  0  0  0  0  0  0
    7.3700   -5.8170   -3.2660 C   0  0  0  0  0  0  0  0  0  0  0  0
    6.5737   -5.2101   -2.2524 C   0  0  0  0  0  0  0  0  0  0  0  0
    6.4833   -3.7780   -1.9037 C   0  0  0  0  0  0  0  0  0  0  0  0
    7.2806   -2.7560   -2.3282 C   0  0  0  0  0  0  0  0  0  0  0  0
    7.2684   -1.4331   -1.8213 C   0  0  0  0  0  0  0  0  0  0  0  0
    7.3151   -0.3435   -1.4065 N   0  0  0  0  0  0  0  0  0  0  0  0
    8.3699   -2.9273   -3.3088 C   0  0  0  0  0  0  0  0  0  0  0  0
    9.2265   -3.0750   -4.0685 N   0  0  0  0  0  0  0  0  0  0  0  0
    7.9643   -8.4529   -3.5558 C   0  0  0  0  0  0  0  0  0  0  0  0
    9.3688   -8.6424   -2.8244 C   0  0  0  0  0  0  0  0  0  0  0  0
    9.4129   -8.0990   -1.3736 C   0  0  0  0  0  0  0  0  0  0  0  0
    8.5936   -8.9105   -0.6432 C   0  0  0  0  0  0  0  0  0  0  0  0
    7.9930   -9.9076   -1.6494 C   0  0  0  0  0  0  0  0  0  0  0  0
    9.2302  -10.1184   -2.4863 C   0  0  0  0  0  0  0  0  0  0  0  0
    7.0319   -9.2348   -2.7075 C   0  0  0  0  0  0  0  0  0  0  0  0
    4.1362   -1.5585   -0.7042 C   0  0  0  0  0  0  0  0  0  0  0  0
    2.7611   -1.6629   -0.2903 C   0  0  0  0  0  0  0  0  0  0  0  0
    1.9395   -2.8536   -0.4449 N   0  0  0  0  0  0  0  0  0  0  0  0
    1.6351   -3.6975    0.7186 C   0  0  0  0  0  0  0  0  0  0  0  0
    1.4376   -5.1010    0.6340 C   0  0  0  0  0  0  0  0  0  0  0  0
    0.8836   -5.8104    1.7059 C   0  0  0  0  0  0  0  0  0  0  0  0
    0.5611   -5.1648    2.9169 C   0  0  0  0  0  0  0  0  0  0  0  0
    0.0031   -6.1390    4.3146 S   0  0  0  0  0  0  0  0  0  0  0  0
   -1.7661   -6.2861    3.8347 C   0  0  0  0  0  0  0  0  0  0  0  0
    0.9085   -3.8034    3.0684 C   0  0  0  0  0  0  0  0  0  0  0  0
    1.4783   -3.0959    1.9902 C   0  0  0  0  0  0  0  0  0  0  0  0
    1.1862   -2.9834   -1.6953 C   0  0  0  0  0  0  0  0  0  0  0  0
    0.6475   -1.8131   -2.3044 C   0  0  0  0  0  0  0  0  0  0  0  0
   -0.1933   -1.8620   -3.4147 C   0  0  0  0  0  0  0  0  0  0  0  0
   -0.5111   -3.0625   -4.0248 C   0  0  0  0  0  0  0  0  0  0  0  0
   -1.3488   -3.1080   -5.6072 S   0  0  0  0  0  0  0  0  0  0  0  0
   -3.0736   -2.8182   -5.0388 C   0  0  0  0  0  0  0  0  0  0  0  0
    0.0513   -4.2676   -3.4927 C   0  0  0  0  0  0  0  0  0  0  0  0
    0.9364   -4.2198   -2.3758 C   0  0  0  0  0  0  0  0  0  0  0  0
    2.2294   -0.4388    0.1151 C   0  0  0  0  0  0  0  0  0  0  0  0
    0.7733    0.0345    0.7370 S   0  0  0  0  0  0  0  0  0  0  0  0
    1.2813    1.6254    1.0173 C   0  0  0  0  0  0  0  0  0  0  0  0
    2.6214    1.8679    0.4692 C   0  0  0  0  0  0  0  0  0  0  0  0
    3.1983    3.1772    0.2177 N   0  0  0  0  0  0  0  0  0  0  0  0
    2.3886    4.1733   -0.3886 C   0  0  0  0  0  0  0  0  0  0  0  0
    2.5826    5.5450   -0.0635 C   0  0  0  0  0  0  0  0  0  0  0  0
    2.0643    6.5873   -0.9128 C   0  0  0  0  0  0  0  0  0  0  0  0
    1.3289    6.2477   -2.0777 C   0  0  0  0  0  0  0  0  0  0  0  0
    0.4198    7.5099   -2.9787 S   0  0  0  0  0  0  0  0  0  0  0  0
    1.6544    7.8491   -4.3040 C   0  0  0  0  0  0  0  0  0  0  0  0
    1.1398    4.9002   -2.3926 C   0  0  0  0  0  0  0  0  0  0  0  0
    1.6631    3.8573   -1.5783 C   0  0  0  0  0  0  0  0  0  0  0  0
    4.6346    3.2981    0.0659 C   0  0  0  0  0  0  0  0  0  0  0  0
    5.5509    2.8110    1.0568 C   0  0  0  0  0  0  0  0  0  0  0  0
    6.9643    2.9450    0.8686 C   0  0  0  0  0  0  0  0  0  0  0  0
    7.4815    3.5666   -0.3029 C   0  0  0  0  0  0  0  0  0  0  0  0
    9.2268    3.8977   -0.5010 S   0  0  0  0  0  0  0  0  0  0  0  0
    9.5549    2.5370   -1.6795 C   0  0  0  0  0  0  0  0  0  0  0  0
    6.5727    4.0462   -1.2725 C   0  0  0  0  0  0  0  0  0  0  0  0
    5.1728    3.9010   -1.1127 C   0  0  0  0  0  0  0  0  0  0  0  0
    3.1087    0.6503   -0.0133 C   0  0  0  0  0  0  0  0  0  0  0  0
    4.5434    0.0630   -0.6213 S   0  0  0  0  0  0  0  0  0  0  0  0
    0.3522    2.6323    1.5438 C   0  0  0  0  0  0  0  0  0  0  0  0
    0.2718    2.9368    2.9372 C   0  0  0  0  0  0  0  0  0  0  0  0
    1.1627    2.7310    3.9038 N   0  0  0  0  0  0  0  0  0  0  0  0
    0.4956    3.0733    5.0632 N   0  0  0  0  0  0  0  0  0  0  0  0
    1.1929    3.3012    6.3259 C   0  0  0  0  0  0  0  0  0  0  0  0
    1.1789    2.0232    7.1958 C   0  0  0  0  0  0  0  0  0  0  0  0
   -0.7388    3.4411    4.8154 N   0  0  0  0  0  0  0  0  0  0  0  0
   -0.8908    3.4090    3.4747 C   0  0  0  0  0  0  0  0  0  0  0  0
   -2.0699    3.6590    2.7217 C   0  0  0  0  0  0  0  0  0  0  0  0
   -1.8907    3.6526    1.3072 C   0  0  0  0  0  0  0  0  0  0  0  0
   -0.7194    3.0968    0.7439 C   0  0  0  0  0  0  0  0  0  0  0  0
   -0.7561    2.8601   -0.5747 F   0  0  0  0  0  0  0  0  0  0  0  0
   -2.9183    3.9545    0.4694 F   0  0  0  0  0  0  0  0  0  0  0  0
   -3.4810    3.4197    3.2524 C   0  0  0  0  0  0  0  0  0  0  0  0
   -3.8605    2.0657    3.4846 C   0  0  0  0  0  0  0  0  0  0  0  0
   -2.9843    1.0356    3.7303 C   0  0  0  0  0  0  0  0  0  0  0  0
   -3.5596   -0.2538    3.7548 C   0  0  0  0  0  0  0  0  0  0  0  0
   -2.8670   -1.5116    4.2330 C   0  0  0  0  0  0  0  0  0  0  0  0
   -1.3754   -1.2959    4.5521 C   0  0  0  0  0  0  0  0  0  0  0  0
   -5.2013   -0.0986    3.3463 S   0  0  0  0  0  0  0  0  0  0  0  0
   -5.1992    1.6068    3.2638 C   0  0  0  0  0  0  0  0  0  0  0  0
   -6.1866    2.4603    2.7987 C   0  0  0  0  0  0  0  0  0  0  0  0
   -5.8367    3.8522    2.7257 C   0  0  0  0  0  0  0  0  0  0  0  0
   -4.5118    4.2964    2.9549 C   0  0  0  0  0  0  0  0  0  0  0  0
   -4.3940    5.9344    2.5158 S   0  0  0  0  0  0  0  0  0  0  0  0
   -6.0105    6.0883    2.0411 C   0  0  0  0  0  0  0  0  0  0  0  0
   -6.6658    7.3817    1.5895 C   0  0  0  0  0  0  0  0  0  0  0  0
   -7.4489    8.0826    2.7153 C   0  0  0  0  0  0  0  0  0  0  0  0
   -6.6658    4.8604    2.1679 C   0  0  0  0  0  0  0  0  0  0  0  0
   -7.2760    1.9093    1.9732 C   0  0  0  0  0  0  0  0  0  0  0  0
   -7.1679    1.9158    0.6015 C   0  0  0  0  0  0  0  0  0  0  0  0
   -5.9440    2.3448   -0.1227 C   0  0  0  0  0  0  0  0  0  0  0  0
   -4.7447    2.2735    0.2734 O   0  0  0  0  0  0  0  0  0  0  0  0
   -6.3173    2.7724   -1.4530 C   0  0  0  0  0  0  0  0  0  0  0  0
   -5.3832    3.2256   -2.3929 C   0  0  0  0  0  0  0  0  0  0  0  0
   -6.0041    3.4393   -3.5960 C   0  0  0  0  0  0  0  0  0  0  0  0
   -7.4306    3.2297   -3.8652 C   0  0  0  0  0  0  0  0  0  0  0  0
   -8.3478    2.7554   -2.9267 C   0  0  0  0  0  0  0  0  0  0  0  0
   -7.7299    2.5472   -1.6500 C   0  0  0  0  0  0  0  0  0  0  0  0
   -8.2687    1.8721   -0.4117 C   0  0  0  0  0  0  0  0  0  0  0  0
   -9.4908    1.2901   -0.3132 C   0  0  0  0  0  0  0  0  0  0  0  0
   -9.6751    0.0968    0.4937 C   0  0  0  0  0  0  0  0  0  0  0  0
   -9.8371   -0.8814    1.0704 N   0  0  0  0  0  0  0  0  0  0  0  0
  -10.5856    1.6928   -1.1676 C   0  0  0  0  0  0  0  0  0  0  0  0
  -11.4612    2.0521   -1.8585 N   0  0  0  0  0  0  0  0  0  0  0  0
   -7.2157    3.4978   -5.3146 C   0  0  0  0  0  0  0  0  0  0  0  0
   -7.2770    2.2932   -6.3160 C   0  0  0  0  0  0  0  0  0  0  0  0
   -6.5536    2.7682   -7.5770 C   0  0  0  0  0  0  0  0  0  0  0  0
   -5.2368    2.7965   -7.2734 C   0  0  0  0  0  0  0  0  0  0  0  0
   -5.1300    2.4365   -5.8119 C   0  0  0  0  0  0  0  0  0  0  0  0
   -6.1967    1.3489   -5.7707 C   0  0  0  0  0  0  0  0  0  0  0  0
   -5.7803    3.6445   -5.0358 C   0  0  0  0  0  0  0  0  0  0  0  0
    4.5708   -2.7393    0.8793 H   0  0  0  0  0  0  0  0  0  0  0  0
    4.9357   -7.9861   -0.6525 H   0  0  0  0  0  0  0  0  0  0  0  0
    8.2173   -5.3987   -3.8359 H   0  0  0  0  0  0  0  0  0  0  0  0
    7.9388   -8.7040   -4.6624 H   0  0  0  0  0  0  0  0  0  0  0  0
   10.2249   -8.3668   -3.4489 H   0  0  0  0  0  0  0  0  0  0  0  0
    9.6923   -7.0729   -1.0927 H   0  0  0  0  0  0  0  0  0  0  0  0
    8.1439   -8.6800    0.3447 H   0  0  0  0  0  0  0  0  0  0  0  0
    7.5889  -10.8311   -1.1799 H   0  0  0  0  0  0  0  0  0  0  0  0
   10.1293  -10.5170   -1.9114 H   0  0  0  0  0  0  0  0  0  0  0  0
    9.1300  -10.8168   -3.3870 H   0  0  0  0  0  0  0  0  0  0  0  0
    6.3597   -9.9143   -3.2880 H   0  0  0  0  0  0  0  0  0  0  0  0
    1.7640   -5.7178   -0.2194 H   0  0  0  0  0  0  0  0  0  0  0  0
    0.7643   -6.9030    1.5932 H   0  0  0  0  0  0  0  0  0  0  0  0
   -2.0919   -7.3471    3.9227 H   0  0  0  0  0  0  0  0  0  0  0  0
   -1.9927   -5.9684    2.7990 H   0  0  0  0  0  0  0  0  0  0  0  0
   -2.4015   -5.6959    4.5259 H   0  0  0  0  0  0  0  0  0  0  0  0
    0.7877   -3.3068    4.0322 H   0  0  0  0  0  0  0  0  0  0  0  0
    1.7131   -2.0359    2.1423 H   0  0  0  0  0  0  0  0  0  0  0  0
    0.8138   -0.7848   -1.9173 H   0  0  0  0  0  0  0  0  0  0  0  0
   -0.5120   -0.8921   -3.8093 H   0  0  0  0  0  0  0  0  0  0  0  0
   -3.4399   -3.5280   -4.2660 H   0  0  0  0  0  0  0  0  0  0  0  0
   -3.7360   -3.0023   -5.9176 H   0  0  0  0  0  0  0  0  0  0  0  0
   -3.2734   -1.7628   -4.7345 H   0  0  0  0  0  0  0  0  0  0  0  0
   -0.0762   -5.2116   -4.0026 H   0  0  0  0  0  0  0  0  0  0  0  0
    1.4246   -5.1605   -2.1621 H   0  0  0  0  0  0  0  0  0  0  0  0
    3.2192    5.8057    0.7535 H   0  0  0  0  0  0  0  0  0  0  0  0
    2.1984    7.6179   -0.5585 H   0  0  0  0  0  0  0  0  0  0  0  0
    1.1061    8.0487   -5.2498 H   0  0  0  0  0  0  0  0  0  0  0  0
    2.2077    8.7855   -4.1081 H   0  0  0  0  0  0  0  0  0  0  0  0
    2.4070    7.0495   -4.4878 H   0  0  0  0  0  0  0  0  0  0  0  0
    0.4992    4.6207   -3.2432 H   0  0  0  0  0  0  0  0  0  0  0  0
    1.5793    2.8028   -1.9172 H   0  0  0  0  0  0  0  0  0  0  0  0
    5.1590    2.3566    1.9634 H   0  0  0  0  0  0  0  0  0  0  0  0
    7.6397    2.6260    1.6789 H   0  0  0  0  0  0  0  0  0  0  0  0
    9.1273    1.5589   -1.3420 H   0  0  0  0  0  0  0  0  0  0  0  0
   10.6549    2.4343   -1.7723 H   0  0  0  0  0  0  0  0  0  0  0  0
    9.2012    2.7701   -2.7041 H   0  0  0  0  0  0  0  0  0  0  0  0
    6.8958    4.5923   -2.1745 H   0  0  0  0  0  0  0  0  0  0  0  0
    4.5666    4.2940   -1.9460 H   0  0  0  0  0  0  0  0  0  0  0  0
    2.2308    3.6025    6.1524 H   0  0  0  0  0  0  0  0  0  0  0  0
    0.6999    4.1204    6.8882 H   0  0  0  0  0  0  0  0  0  0  0  0
    1.4276    2.3118    8.2446 H   0  0  0  0  0  0  0  0  0  0  0  0
    0.1750    1.5731    7.1931 H   0  0  0  0  0  0  0  0  0  0  0  0
    1.9373    1.3022    6.8148 H   0  0  0  0  0  0  0  0  0  0  0  0
   -1.9608    1.2252    3.9660 H   0  0  0  0  0  0  0  0  0  0  0  0
   -2.9819   -2.2925    3.4497 H   0  0  0  0  0  0  0  0  0  0  0  0
   -3.3441   -1.9188    5.1593 H   0  0  0  0  0  0  0  0  0  0  0  0
   -1.2236   -0.5247    5.3589 H   0  0  0  0  0  0  0  0  0  0  0  0
   -0.9238   -2.1962    4.9734 H   0  0  0  0  0  0  0  0  0  0  0  0
   -0.8249   -1.0615    3.6069 H   0  0  0  0  0  0  0  0  0  0  0  0
   -5.9395    8.0944    1.1284 H   0  0  0  0  0  0  0  0  0  0  0  0
   -7.3880    7.1409    0.8023 H   0  0  0  0  0  0  0  0  0  0  0  0
   -6.7180    8.5394    3.4100 H   0  0  0  0  0  0  0  0  0  0  0  0
   -8.0678    8.9041    2.2914 H   0  0  0  0  0  0  0  0  0  0  0  0
   -8.1077    7.3790    3.2711 H   0  0  0  0  0  0  0  0  0  0  0  0
   -7.6863    4.6936    1.8347 H   0  0  0  0  0  0  0  0  0  0  0  0
   -8.2236    1.7065    2.5046 H   0  0  0  0  0  0  0  0  0  0  0  0
   -4.2854    3.2966   -2.2078 H   0  0  0  0  0  0  0  0  0  0  0  0
   -9.3633    2.4749   -3.2269 H   0  0  0  0  0  0  0  0  0  0  0  0
   -7.7633    4.4312   -5.6290 H   0  0  0  0  0  0  0  0  0  0  0  0
   -8.2621    1.8569   -6.4945 H   0  0  0  0  0  0  0  0  0  0  0  0
   -6.9871    3.1047   -8.5434 H   0  0  0  0  0  0  0  0  0  0  0  0
   -4.4195    2.9172   -7.9995 H   0  0  0  0  0  0  0  0  0  0  0  0
   -4.1167    2.1306   -5.4666 H   0  0  0  0  0  0  0  0  0  0  0  0
   -6.3928    0.9171   -4.7479 H   0  0  0  0  0  0  0  0  0  0  0  0
   -5.9883    0.4288   -6.4300 H   0  0  0  0  0  0  0  0  0  0  0  0
   -5.3864    4.6575   -5.2587 H   0  0  0  0  0  0  0  0  0  0  0  0
  1  2  2  3
  2  3  1  0
  3  4  2  0
  3  5  1  0
  5  6  2  0
  6  7  1  0
  7  8  2  0
  8  9  1  0
  9 10  2  0
 10 11  1  0
 11 12  2  3
 12 13  1  0
 13 14  3  0
 12 15  1  0
 15 16  3  0
  8 17  1  0
 17 18  1  0
 18 19  1  0
 19 20  2  0
 20 21  1  0
 21 22  1  0
 21 23  1  0
  1 24  1  0
 24 25  2  0
 25 26  1  0
 26 27  1  0
 27 28  2  0
 28 29  1  0
 29 30  2  0
 30 31  1  0
 31 32  1  0
 30 33  1  0
 33 34  2  0
 26 35  1  0
 35 36  2  0
 36 37  1  0
 37 38  2  0
 38 39  1  0
 39 40  1  0
 38 41  1  0
 41 42  2  0
 25 43  1  0
 43 44  1  0
 44 45  1  0
 45 46  2  0
 46 47  1  0
 47 48  1  0
 48 49  2  0
 49 50  1  0
 50 51  2  0
 51 52  1  0
 52 53  1  0
 51 54  1  0
 54 55  2  0
 47 56  1  0
 56 57  2  0
 57 58  1  0
 58 59  2  0
 59 60  1  0
 60 61  1  0
 59 62  1  0
 62 63  2  0
 46 64  1  0
 64 65  1  0
 45 66  1  0
 66 67  1  0
 67 68  2  0
 68 69  1  0
 69 70  1  0
 70 71  1  0
 69 72  1  0
 72 73  2  0
 73 74  1  0
 74 75  2  0
 75 76  1  0
 76 77  1  0
 75 78  1  0
 74 79  1  0
 79 80  2  0
 80 81  1  0
 81 82  2  0
 82 83  1  0
 83 84  1  0
 82 85  1  0
 85 86  1  0
 86 87  2  0
 87 88  1  0
 88 89  2  0
 89 90  1  0
 90 91  1  0
 91 92  1  0
 92 93  1  0
 91 94  2  0
 87 95  1  0
 95 96  2  3
 96 97  1  0
 97 98  2  0
 97 99  1  0
 99100  2  0
100101  1  0
101102  2  0
102103  1  0
103104  2  0
104105  1  0
105106  2  3
106107  1  0
107108  3  0
106109  1  0
109110  3  0
102111  1  0
111112  1  0
112113  1  0
113114  2  0
114115  1  0
115116  1  0
115117  1  0
 11  2  1  0
 23 17  1  0
 65 24  1  0
 76 66  2  0
 89 79  1  0
105 96  1  0
117111  1  0
 10  5  1  0
 22 18  1  0
 34 27  1  0
 42 35  1  0
 64 43  2  0
 73 67  1  0
 86 80  1  0
 94 88  1  0
104 99  1  0
116112  1  0
 23  7  1  0
 55 48  1  0
 63 56  1  0
117101  1  0
  1118  1  0
  6119  1  0
  9120  1  0
 17121  1  0
 18122  1  0
 19123  1  0
 20124  1  0
 21125  1  0
 22126  1  0
 22127  1  0
 23128  1  0
 28129  1  0
 29130  1  0
 32131  1  0
 32132  1  0
 32133  1  0
 33134  1  0
 34135  1  0
 36136  1  0
 37137  1  0
 40138  1  0
 40139  1  0
 40140  1  0
 41141  1  0
 42142  1  0
 49143  1  0
 50144  1  0
 53145  1  0
 53146  1  0
 53147  1  0
 54148  1  0
 55149  1  0
 57150  1  0
 58151  1  0
 61152  1  0
 61153  1  0
 61154  1  0
 62155  1  0
 63156  1  0
 70157  1  0
 70158  1  0
 71159  1  0
 71160  1  0
 71161  1  0
 81162  1  0
 83163  1  0
 83164  1  0
 84165  1  0
 84166  1  0
 84167  1  0
 92168  1  0
 92169  1  0
 93170  1  0
 93171  1  0
 93172  1  0
 94173  1  0
 95174  1  0
100175  1  0
103176  1  0
111177  1  0
112178  1  0
113179  1  0
114180  1  0
115181  1  0
116182  1  0
116183  1  0
117184  1  0
M  END

