
     RDKit          3D

184203  0  0  0  0  0  0  0  0999 V2000
    1.1153   -3.3258    4.5720 C   0  0  0  0  0  0  0  0  0  0  0  0
    1.6279   -4.5223    4.0500 C   0  0  0  0  0  0  0  0  0  0  0  0
    3.0275   -5.0243    4.2035 C   0  0  0  0  0  0  0  0  0  0  0  0
    3.9969   -4.5176    4.7952 O   0  0  0  0  0  0  0  0  0  0  0  0
    2.9727   -6.4105    3.7002 C   0  0  0  0  0  0  0  0  0  0  0  0
    4.0772   -7.3460    3.5226 C   0  0  0  0  0  0  0  0  0  0  0  0
    3.7033   -8.4557    2.7142 C   0  0  0  0  0  0  0  0  0  0  0  0
    2.3977   -8.6208    2.1673 C   0  0  0  0  0  0  0  0  0  0  0  0
    1.2811   -7.7540    2.4085 C   0  0  0  0  0  0  0  0  0  0  0  0
    1.6604   -6.7622    3.2813 C   0  0  0  0  0  0  0  0  0  0  0  0
    0.7445   -5.7647    3.7851 C   0  0  0  0  0  0  0  0  0  0  0  0
   -0.3909   -6.0517    4.4765 C   0  0  0  0  0  0  0  0  0  0  0  0
   -1.4366   -6.9050    3.8681 C   0  0  0  0  0  0  0  0  0  0  0  0
   -2.2837   -7.5219    3.3586 N   0  0  0  0  0  0  0  0  0  0  0  0
   -0.5795   -5.4639    5.7658 C   0  0  0  0  0  0  0  0  0  0  0  0
   -0.6989   -5.0851    6.8470 N   0  0  0  0  0  0  0  0  0  0  0  0
    2.7927   -9.8640    1.4517 C   0  0  0  0  0  0  0  0  0  0  0  0
    2.1461  -11.2331    1.8555 C   0  0  0  0  0  0  0  0  0  0  0  0
    1.5809  -11.1809    3.2386 C   0  0  0  0  0  0  0  0  0  0  0  0
    2.6416  -10.9917    4.0321 C   0  0  0  0  0  0  0  0  0  0  0  0
    3.8726  -11.1112    3.2074 C   0  0  0  0  0  0  0  0  0  0  0  0
    3.3639  -12.0716    2.1733 C   0  0  0  0  0  0  0  0  0  0  0  0
    4.0462   -9.8770    2.2662 C   0  0  0  0  0  0  0  0  0  0  0  0
    1.0905   -1.9075    4.0012 C   0  0  0  0  0  0  0  0  0  0  0  0
   -0.2384   -1.3481    3.6235 C   0  0  0  0  0  0  0  0  0  0  0  0
   -1.3213   -2.1562    3.2408 F   0  0  0  0  0  0  0  0  0  0  0  0
   -0.3560   -0.0669    3.1988 C   0  0  0  0  0  0  0  0  0  0  0  0
   -1.5041    0.2074    2.4522 F   0  0  0  0  0  0  0  0  0  0  0  0
    0.8168    0.8177    3.1325 C   0  0  0  0  0  0  0  0  0  0  0  0
    1.9543    0.3183    3.7534 C   0  0  0  0  0  0  0  0  0  0  0  0
    3.0701    1.1547    3.7874 N   0  0  0  0  0  0  0  0  0  0  0  0
    4.1978    0.7796    4.3476 C   0  0  0  0  0  0  0  0  0  0  0  0
    5.3700    1.7255    4.1542 C   0  0  0  0  0  0  0  0  0  0  0  0
    6.2580    1.1964    3.0233 C   0  0  0  0  0  0  0  0  0  0  0  0
    4.3155   -0.4803    4.9343 C   0  0  0  0  0  0  0  0  0  0  0  0
    3.2499   -1.3635    4.8383 N   0  0  0  0  0  0  0  0  0  0  0  0
    2.0895   -0.9493    4.2461 C   0  0  0  0  0  0  0  0  0  0  0  0
    5.5777   -0.9461    5.6108 C   0  0  0  0  0  0  0  0  0  0  0  0
    5.8126   -0.1704    6.9215 C   0  0  0  0  0  0  0  0  0  0  0  0
    1.0470    1.6284    1.9022 C   0  0  0  0  0  0  0  0  0  0  0  0
    0.8108    2.9519    1.3906 C   0  0  0  0  0  0  0  0  0  0  0  0
    0.1457    3.9297    2.2399 N   0  0  0  0  0  0  0  0  0  0  0  0
   -1.1427    4.4774    1.7685 C   0  0  0  0  0  0  0  0  0  0  0  0
   -1.4196    5.8348    1.8728 C   0  0  0  0  0  0  0  0  0  0  0  0
   -2.4707    6.4198    1.0791 C   0  0  0  0  0  0  0  0  0  0  0  0
   -3.2748    5.6625    0.2489 C   0  0  0  0  0  0  0  0  0  0  0  0
   -4.6266    6.3496   -0.5773 S   0  0  0  0  0  0  0  0  0  0  0  0
   -3.7486    7.0635   -1.9970 C   0  0  0  0  0  0  0  0  0  0  0  0
   -3.0534    4.2580    0.1783 C   0  0  0  0  0  0  0  0  0  0  0  0
   -1.9994    3.6671    0.9884 C   0  0  0  0  0  0  0  0  0  0  0  0
    0.8468    4.4316    3.3683 C   0  0  0  0  0  0  0  0  0  0  0  0
    1.1161    3.6410    4.4807 C   0  0  0  0  0  0  0  0  0  0  0  0
    1.9190    4.1072    5.5610 C   0  0  0  0  0  0  0  0  0  0  0  0
    2.4332    5.4022    5.5148 C   0  0  0  0  0  0  0  0  0  0  0  0
    3.6396    5.9237    6.7260 S   0  0  0  0  0  0  0  0  0  0  0  0
    2.5409    6.5076    8.0493 C   0  0  0  0  0  0  0  0  0  0  0  0
    2.1677    6.2120    4.4077 C   0  0  0  0  0  0  0  0  0  0  0  0
    1.4707    5.6860    3.2949 C   0  0  0  0  0  0  0  0  0  0  0  0
    0.7437    2.9212   -0.0487 C   0  0  0  0  0  0  0  0  0  0  0  0
    0.3861    3.9879   -1.2918 S   0  0  0  0  0  0  0  0  0  0  0  0
    0.3970    2.7663   -2.5634 C   0  0  0  0  0  0  0  0  0  0  0  0
    0.3668    1.4916   -2.0519 C   0  0  0  0  0  0  0  0  0  0  0  0
    0.5372    0.1665   -2.6752 N   0  0  0  0  0  0  0  0  0  0  0  0
    1.3634   -0.7258   -1.9099 C   0  0  0  0  0  0  0  0  0  0  0  0
    0.7943   -1.7785   -1.1849 C   0  0  0  0  0  0  0  0  0  0  0  0
    1.5868   -2.6945   -0.4912 C   0  0  0  0  0  0  0  0  0  0  0  0
    3.0018   -2.6277   -0.5508 C   0  0  0  0  0  0  0  0  0  0  0  0
    3.9702   -3.9480   -0.0524 S   0  0  0  0  0  0  0  0  0  0  0  0
    4.4545   -3.3477    1.5921 C   0  0  0  0  0  0  0  0  0  0  0  0
    3.5678   -1.4247   -1.1480 C   0  0  0  0  0  0  0  0  0  0  0  0
    2.7495   -0.4869   -1.7602 C   0  0  0  0  0  0  0  0  0  0  0  0
   -0.0124   -0.6044   -3.8350 C   0  0  0  0  0  0  0  0  0  0  0  0
    0.6887   -1.7192   -4.4237 C   0  0  0  0  0  0  0  0  0  0  0  0
    0.0426   -2.9233   -4.8263 C   0  0  0  0  0  0  0  0  0  0  0  0
   -1.3117   -2.7606   -5.1796 C   0  0  0  0  0  0  0  0  0  0  0  0
   -2.1678   -4.1126   -6.0448 S   0  0  0  0  0  0  0  0  0  0  0  0
   -1.2285   -5.5849   -5.3350 C   0  0  0  0  0  0  0  0  0  0  0  0
   -2.0034   -1.4995   -5.0192 C   0  0  0  0  0  0  0  0  0  0  0  0
   -1.4349   -0.4784   -4.1968 C   0  0  0  0  0  0  0  0  0  0  0  0
    0.6532    1.6923   -0.6446 C   0  0  0  0  0  0  0  0  0  0  0  0
    0.8051    0.6535    0.6104 S   0  0  0  0  0  0  0  0  0  0  0  0
    0.3229    2.9813   -3.9748 C   0  0  0  0  0  0  0  0  0  0  0  0
    1.2150    3.4779   -4.9727 C   0  0  0  0  0  0  0  0  0  0  0  0
    2.5622    3.9504   -4.6527 C   0  0  0  0  0  0  0  0  0  0  0  0
    3.7588    3.2849   -4.9255 C   0  0  0  0  0  0  0  0  0  0  0  0
    4.7683    3.8122   -4.1391 C   0  0  0  0  0  0  0  0  0  0  0  0
    4.3638    4.8386   -3.2308 C   0  0  0  0  0  0  0  0  0  0  0  0
    5.1291    5.5787   -2.2481 C   0  0  0  0  0  0  0  0  0  0  0  0
    4.3111    5.8465   -0.9730 C   0  0  0  0  0  0  0  0  0  0  0  0
    2.7257    5.1318   -3.5140 S   0  0  0  0  0  0  0  0  0  0  0  0
    0.7277    3.4360   -6.3144 C   0  0  0  0  0  0  0  0  0  0  0  0
   -0.6606    3.2373   -6.3534 C   0  0  0  0  0  0  0  0  0  0  0  0
   -0.9636    2.5671   -4.8757 S   0  0  0  0  0  0  0  0  0  0  0  0
   -1.7246    2.9885   -7.3960 C   0  0  0  0  0  0  0  0  0  0  0  0
   -3.0327    3.2048   -7.2374 C   0  0  0  0  0  0  0  0  0  0  0  0
   -3.5232    4.0260   -6.1011 C   0  0  0  0  0  0  0  0  0  0  0  0
   -3.0471    5.1442   -5.7213 O   0  0  0  0  0  0  0  0  0  0  0  0
   -4.5786    3.3100   -5.3908 C   0  0  0  0  0  0  0  0  0  0  0  0
   -4.9567    3.6250   -4.0469 C   0  0  0  0  0  0  0  0  0  0  0  0
   -6.0310    2.8227   -3.6665 C   0  0  0  0  0  0  0  0  0  0  0  0
   -6.5988    1.7727   -4.4557 C   0  0  0  0  0  0  0  0  0  0  0  0
   -6.1403    1.3893   -5.7389 C   0  0  0  0  0  0  0  0  0  0  0  0
   -4.9632    2.1727   -6.1347 C   0  0  0  0  0  0  0  0  0  0  0  0
   -4.0416    2.0644   -7.3515 C   0  0  0  0  0  0  0  0  0  0  0  0
   -4.1506    1.1427   -8.3088 C   0  0  0  0  0  0  0  0  0  0  0  0
   -5.2659    0.1498   -8.4045 C   0  0  0  0  0  0  0  0  0  0  0  0
   -6.1268   -0.6149   -8.4760 N   0  0  0  0  0  0  0  0  0  0  0  0
   -3.1598    0.9946   -9.3817 C   0  0  0  0  0  0  0  0  0  0  0  0
   -2.3831    0.8765  -10.1976 N   0  0  0  0  0  0  0  0  0  0  0  0
   -7.5829    1.4863   -3.3198 C   0  0  0  0  0  0  0  0  0  0  0  0
   -7.3837    0.1761   -2.5025 C   0  0  0  0  0  0  0  0  0  0  0  0
   -5.9363   -0.2516   -2.4306 C   0  0  0  0  0  0  0  0  0  0  0  0
   -5.2827    0.7171   -1.7816 C   0  0  0  0  0  0  0  0  0  0  0  0
   -6.3129    1.7314   -1.3249 C   0  0  0  0  0  0  0  0  0  0  0  0
   -7.4565    0.7640   -1.1049 C   0  0  0  0  0  0  0  0  0  0  0  0
   -6.9168    2.5217   -2.5210 C   0  0  0  0  0  0  0  0  0  0  0  0
    0.0460   -3.4637    4.6916 H   0  0  0  0  0  0  0  0  0  0  0  0
    5.0998   -7.2155    3.9349 H   0  0  0  0  0  0  0  0  0  0  0  0
    0.2430   -8.0756    2.1349 H   0  0  0  0  0  0  0  0  0  0  0  0
    2.9946   -9.7024    0.3299 H   0  0  0  0  0  0  0  0  0  0  0  0
    1.4916  -11.6500    1.0997 H   0  0  0  0  0  0  0  0  0  0  0  0
    0.5212  -11.1080    3.5048 H   0  0  0  0  0  0  0  0  0  0  0  0
    2.5292  -10.5726    5.0317 H   0  0  0  0  0  0  0  0  0  0  0  0
    4.7899  -11.4076    3.7157 H   0  0  0  0  0  0  0  0  0  0  0  0
    3.1167  -13.1050    2.5738 H   0  0  0  0  0  0  0  0  0  0  0  0
    4.0459  -12.2583    1.2742 H   0  0  0  0  0  0  0  0  0  0  0  0
    4.9548   -9.8204    1.6446 H   0  0  0  0  0  0  0  0  0  0  0  0
    5.0292    2.7741    3.9253 H   0  0  0  0  0  0  0  0  0  0  0  0
    5.9623    1.8301    5.0653 H   0  0  0  0  0  0  0  0  0  0  0  0
    7.3211    1.0699    3.3799 H   0  0  0  0  0  0  0  0  0  0  0  0
    5.9238    0.1823    2.6243 H   0  0  0  0  0  0  0  0  0  0  0  0
    6.2523    1.8988    2.1537 H   0  0  0  0  0  0  0  0  0  0  0  0
    5.5984   -2.0230    5.7848 H   0  0  0  0  0  0  0  0  0  0  0  0
    6.4581   -0.7739    4.9371 H   0  0  0  0  0  0  0  0  0  0  0  0
    6.8313    0.3037    6.9292 H   0  0  0  0  0  0  0  0  0  0  0  0
    5.7114   -0.8693    7.7857 H   0  0  0  0  0  0  0  0  0  0  0  0
    5.0645    0.6576    7.0605 H   0  0  0  0  0  0  0  0  0  0  0  0
   -0.8729    6.5008    2.5366 H   0  0  0  0  0  0  0  0  0  0  0  0
   -2.6429    7.4999    1.2672 H   0  0  0  0  0  0  0  0  0  0  0  0
   -3.3583    8.0679   -1.7512 H   0  0  0  0  0  0  0  0  0  0  0  0
   -2.9433    6.4223   -2.3652 H   0  0  0  0  0  0  0  0  0  0  0  0
   -4.4808    7.2010   -2.8238 H   0  0  0  0  0  0  0  0  0  0  0  0
   -3.6739    3.5966   -0.4140 H   0  0  0  0  0  0  0  0  0  0  0  0
   -1.9357    2.6003    0.8800 H   0  0  0  0  0  0  0  0  0  0  0  0
    0.6631    2.6785    4.5607 H   0  0  0  0  0  0  0  0  0  0  0  0
    2.1859    3.4001    6.3636 H   0  0  0  0  0  0  0  0  0  0  0  0
    1.7547    7.1715    7.7020 H   0  0  0  0  0  0  0  0  0  0  0  0
    3.1454    7.0929    8.7710 H   0  0  0  0  0  0  0  0  0  0  0  0
    2.1238    5.6740    8.6327 H   0  0  0  0  0  0  0  0  0  0  0  0
    2.5505    7.2153    4.3289 H   0  0  0  0  0  0  0  0  0  0  0  0
    1.3877    6.3248    2.4095 H   0  0  0  0  0  0  0  0  0  0  0  0
   -0.3051   -1.9144   -1.2225 H   0  0  0  0  0  0  0  0  0  0  0  0
    1.0940   -3.6574   -0.2481 H   0  0  0  0  0  0  0  0  0  0  0  0
    5.0354   -4.1369    2.0961 H   0  0  0  0  0  0  0  0  0  0  0  0
    5.0955   -2.4607    1.5515 H   0  0  0  0  0  0  0  0  0  0  0  0
    3.5966   -3.1540    2.2315 H   0  0  0  0  0  0  0  0  0  0  0  0
    4.6534   -1.3509   -1.3190 H   0  0  0  0  0  0  0  0  0  0  0  0
    3.1782    0.3390   -2.3021 H   0  0  0  0  0  0  0  0  0  0  0  0
    1.7399   -2.1337   -4.4720 H   0  0  0  0  0  0  0  0  0  0  0  0
    0.7217   -3.9114   -4.7286 H   0  0  0  0  0  0  0  0  0  0  0  0
   -0.2158   -5.6749   -5.7710 H   0  0  0  0  0  0  0  0  0  0  0  0
   -1.2104   -5.6840   -4.2068 H   0  0  0  0  0  0  0  0  0  0  0  0
   -1.6920   -6.4904   -5.7761 H   0  0  0  0  0  0  0  0  0  0  0  0
   -2.9428   -1.3532   -5.4635 H   0  0  0  0  0  0  0  0  0  0  0  0
   -2.1125    0.4267   -3.9500 H   0  0  0  0  0  0  0  0  0  0  0  0
    3.8666    2.4592   -5.6309 H   0  0  0  0  0  0  0  0  0  0  0  0
    5.8086    3.4766   -4.1940 H   0  0  0  0  0  0  0  0  0  0  0  0
    5.4249    6.5245   -2.7120 H   0  0  0  0  0  0  0  0  0  0  0  0
    6.0492    5.0365   -1.9922 H   0  0  0  0  0  0  0  0  0  0  0  0
    3.6638    4.9725   -0.6729 H   0  0  0  0  0  0  0  0  0  0  0  0
    3.6776    6.7411   -1.1495 H   0  0  0  0  0  0  0  0  0  0  0  0
    4.9612    6.0481   -0.1174 H   0  0  0  0  0  0  0  0  0  0  0  0
    1.3192    3.6268   -7.1938 H   0  0  0  0  0  0  0  0  0  0  0  0
   -1.3137    2.4003   -8.1845 H   0  0  0  0  0  0  0  0  0  0  0  0
   -4.3966    4.3537   -3.3217 H   0  0  0  0  0  0  0  0  0  0  0  0
   -6.5674    0.5382   -6.2280 H   0  0  0  0  0  0  0  0  0  0  0  0
   -8.6257    1.7178   -3.5779 H   0  0  0  0  0  0  0  0  0  0  0  0
   -8.0980   -0.6509   -2.6545 H   0  0  0  0  0  0  0  0  0  0  0  0
   -5.4810   -1.1033   -2.9602 H   0  0  0  0  0  0  0  0  0  0  0  0
   -4.1879    0.7562   -1.6998 H   0  0  0  0  0  0  0  0  0  0  0  0
   -6.0062    2.3314   -0.4697 H   0  0  0  0  0  0  0  0  0  0  0  0
   -7.2632    0.0258   -0.2287 H   0  0  0  0  0  0  0  0  0  0  0  0
   -8.4325    1.2659   -0.8242 H   0  0  0  0  0  0  0  0  0  0  0  0
   -7.6053    3.3502   -2.2712 H   0  0  0  0  0  0  0  0  0  0  0  0
  1  2  2  3
  2  3  1  0
  3  4  2  0
  3  5  1  0
  5  6  2  0
  6  7  1  0
  7  8  2  0
  8  9  1  0
  9 10  2  0
 10 11  1  0
 11 12  2  3
 12 13  1  0
 13 14  3  0
 12 15  1  0
 15 16  3  0
  8 17  1  0
 17 18  1  0
 18 19  1  0
 19 20  2  0
 20 21  1  0
 21 22  1  0
 21 23  1  0
  1 24  1  0
 24 25  2  0
 25 26  1  0
 25 27  1  0
 27 28  1  0
 27 29  2  0
 29 30  1  0
 30 31  2  0
 31 32  1  0
 32 33  1  0
 33 34  1  0
 32 35  2  0
 35 36  1  0
 36 37  2  0
 35 38  1  0
 38 39  1  0
 29 40  1  0
 40 41  2  0
 41 42  1  0
 42 43  1  0
 43 44  2  0
 44 45  1  0
 45 46  2  0
 46 47  1  0
 47 48  1  0
 46 49  1  0
 49 50  2  0
 42 51  1  0
 51 52  2  0
 52 53  1  0
 53 54  2  0
 54 55  1  0
 55 56  1  0
 54 57  1  0
 57 58  2  0
 41 59  1  0
 59 60  1  0
 60 61  1  0
 61 62  2  0
 62 63  1  0
 63 64  1  0
 64 65  2  0
 65 66  1  0
 66 67  2  0
 67 68  1  0
 68 69  1  0
 67 70  1  0
 70 71  2  0
 63 72  1  0
 72 73  2  0
 73 74  1  0
 74 75  2  0
 75 76  1  0
 76 77  1  0
 75 78  1  0
 78 79  2  0
 62 80  1  0
 80 81  1  0
 61 82  1  0
 82 83  2  0
 83 84  1  0
 84 85  2  0
 85 86  1  0
 86 87  2  0
 87 88  1  0
 88 89  1  0
 87 90  1  0
 83 91  1  0
 91 92  2  0
 92 93  1  0
 92 94  1  0
 94 95  2  3
 95 96  1  0
 96 97  2  0
 96 98  1  0
 98 99  2  0
 99100  1  0
100101  2  0
101102  1  0
102103  2  0
103104  1  0
104105  2  3
105106  1  0
106107  3  0
105108  1  0
108109  3  0
101110  1  0
110111  1  0
111112  1  0
112113  2  0
113114  1  0
114115  1  0
114116  1  0
 11  2  1  0
 23 17  1  0
 37 24  1  0
 81 40  1  0
 93 82  1  0
104 95  1  0
116110  1  0
 10  5  1  0
 22 18  1  0
 37 30  1  0
 50 43  1  0
 58 51  1  0
 80 59  2  0
 90 84  1  0
103 98  1  0
115111  1  0
 23  7  1  0
 71 64  1  0
 79 72  1  0
116100  1  0
  1117  1  0
  6118  1  0
  9119  1  0
 17120  1  0
 18121  1  0
 19122  1  0
 20123  1  0
 21124  1  0
 22125  1  0
 22126  1  0
 23127  1  0
 33128  1  0
 33129  1  0
 34130  1  0
 34131  1  0
 34132  1  0
 38133  1  0
 38134  1  0
 39135  1  0
 39136  1  0
 39137  1  0
 44138  1  0
 45139  1  0
 48140  1  0
 48141  1  0
 48142  1  0
 49143  1  0
 50144  1  0
 52145  1  0
 53146  1  0
 56147  1  0
 56148  1  0
 56149  1  0
 57150  1  0
 58151  1  0
 65152  1  0
 66153  1  0
 69154  1  0
 69155  1  0
 69156  1  0
 70157  1  0
 71158  1  0
 73159  1  0
 74160  1  0
 77161  1  0
 77162  1  0
 77163  1  0
 78164  1  0
 79165  1  0
 85166  1  0
 86167  1  0
 88168  1  0
 88169  1  0
 89170  1  0
 89171  1  0
 89172  1  0
 91173  1  0
 94174  1  0
 99175  1  0
102176  1  0
110177  1  0
111178  1  0
112179  1  0
113180  1  0
114181  1  0
115182  1  0
115183  1  0
116184  1  0
M  END

