
     RDKit          3D

165183  0  0  0  0  0  0  0  0999 V2000
   -2.8107    2.8534    0.9976 C   0  0  0  0  0  0  0  0  0  0  0  0
   -3.9146    3.5954    1.1777 C   0  0  0  0  0  0  0  0  0  0  0  0
   -4.7602    4.1313    0.1060 C   0  0  0  0  0  0  0  0  0  0  0  0
   -4.4738    4.1754   -1.1209 O   0  0  0  0  0  0  0  0  0  0  0  0
   -6.0290    4.5357    0.6736 C   0  0  0  0  0  0  0  0  0  0  0  0
   -7.1849    4.9638   -0.0232 C   0  0  0  0  0  0  0  0  0  0  0  0
   -8.2956    5.1454    0.7841 C   0  0  0  0  0  0  0  0  0  0  0  0
   -8.2822    4.9011    2.1926 C   0  0  0  0  0  0  0  0  0  0  0  0
   -7.1595    4.4710    2.8796 C   0  0  0  0  0  0  0  0  0  0  0  0
   -5.9929    4.3214    2.0766 C   0  0  0  0  0  0  0  0  0  0  0  0
   -4.6376    3.8380    2.4646 C   0  0  0  0  0  0  0  0  0  0  0  0
   -4.1121    3.8465    3.7187 C   0  0  0  0  0  0  0  0  0  0  0  0
   -2.7496    3.4717    4.0052 C   0  0  0  0  0  0  0  0  0  0  0  0
   -1.6684    3.1555    4.2606 N   0  0  0  0  0  0  0  0  0  0  0  0
   -4.8365    4.3599    4.8537 C   0  0  0  0  0  0  0  0  0  0  0  0
   -5.4046    4.7810    5.7708 N   0  0  0  0  0  0  0  0  0  0  0  0
   -9.7386    5.2462    2.2808 C   0  0  0  0  0  0  0  0  0  0  0  0
  -10.7570    4.0769    2.4486 C   0  0  0  0  0  0  0  0  0  0  0  0
  -10.2443    2.8307    1.7672 C   0  0  0  0  0  0  0  0  0  0  0  0
  -10.2684    3.0773    0.4582 C   0  0  0  0  0  0  0  0  0  0  0  0
  -10.7873    4.4854    0.2921 C   0  0  0  0  0  0  0  0  0  0  0  0
  -11.7953    4.4986    1.4261 C   0  0  0  0  0  0  0  0  0  0  0  0
   -9.7503    5.5091    0.8412 C   0  0  0  0  0  0  0  0  0  0  0  0
   -2.2488    2.5521   -0.3193 C   0  0  0  0  0  0  0  0  0  0  0  0
   -2.5986    1.4353   -1.0933 C   0  0  0  0  0  0  0  0  0  0  0  0
   -3.5568    0.4584   -0.6582 N   0  0  0  0  0  0  0  0  0  0  0  0
   -4.8219    0.4317   -1.3327 C   0  0  0  0  0  0  0  0  0  0  0  0
   -5.9304    1.0701   -0.7646 C   0  0  0  0  0  0  0  0  0  0  0  0
   -7.1676    1.0335   -1.4117 C   0  0  0  0  0  0  0  0  0  0  0  0
   -7.3138    0.3352   -2.6141 C   0  0  0  0  0  0  0  0  0  0  0  0
   -8.9113    0.2534   -3.4210 S   0  0  0  0  0  0  0  0  0  0  0  0
   -9.4241   -1.2428   -2.5134 C   0  0  0  0  0  0  0  0  0  0  0  0
   -6.2082   -0.3068   -3.1825 C   0  0  0  0  0  0  0  0  0  0  0  0
   -4.9656   -0.2617   -2.5439 C   0  0  0  0  0  0  0  0  0  0  0  0
   -3.2228   -0.5196    0.3602 C   0  0  0  0  0  0  0  0  0  0  0  0
   -4.2282   -1.2857    0.9859 C   0  0  0  0  0  0  0  0  0  0  0  0
   -3.9042   -2.2385    1.9548 C   0  0  0  0  0  0  0  0  0  0  0  0
   -2.5678   -2.4543    2.3020 C   0  0  0  0  0  0  0  0  0  0  0  0
   -2.1457   -3.6852    3.5382 S   0  0  0  0  0  0  0  0  0  0  0  0
   -1.9916   -5.0292    2.3195 C   0  0  0  0  0  0  0  0  0  0  0  0
   -1.5584   -1.6973    1.7022 C   0  0  0  0  0  0  0  0  0  0  0  0
   -1.8813   -0.7387    0.7426 C   0  0  0  0  0  0  0  0  0  0  0  0
   -1.6298    1.1666   -2.0619 C   0  0  0  0  0  0  0  0  0  0  0  0
   -1.2641   -0.2435   -2.8676 S   0  0  0  0  0  0  0  0  0  0  0  0
    0.3483    0.1622   -3.2139 C   0  0  0  0  0  0  0  0  0  0  0  0
    0.6210    1.4443   -2.6575 C   0  0  0  0  0  0  0  0  0  0  0  0
    1.9164    2.0989   -2.5803 N   0  0  0  0  0  0  0  0  0  0  0  0
    3.1588    1.3807   -2.6477 C   0  0  0  0  0  0  0  0  0  0  0  0
    4.0822    1.6797   -3.6602 C   0  0  0  0  0  0  0  0  0  0  0  0
    5.2951    0.9914   -3.7306 C   0  0  0  0  0  0  0  0  0  0  0  0
    5.5999    0.0068   -2.7870 C   0  0  0  0  0  0  0  0  0  0  0  0
    7.1124   -0.9351   -2.9444 S   0  0  0  0  0  0  0  0  0  0  0  0
    8.1349    0.3229   -2.1104 C   0  0  0  0  0  0  0  0  0  0  0  0
    4.7073   -0.2559   -1.7445 C   0  0  0  0  0  0  0  0  0  0  0  0
    3.4969    0.4405   -1.6639 C   0  0  0  0  0  0  0  0  0  0  0  0
    1.9916    3.5304   -2.4252 C   0  0  0  0  0  0  0  0  0  0  0  0
    1.3300    4.3788   -3.3295 C   0  0  0  0  0  0  0  0  0  0  0  0
    1.3556    5.7604   -3.1394 C   0  0  0  0  0  0  0  0  0  0  0  0
    2.0416    6.3081   -2.0469 C   0  0  0  0  0  0  0  0  0  0  0  0
    2.0082    8.0805   -1.7677 S   0  0  0  0  0  0  0  0  0  0  0  0
    3.6037    8.3742   -2.5889 C   0  0  0  0  0  0  0  0  0  0  0  0
    2.7100    5.4684   -1.1500 C   0  0  0  0  0  0  0  0  0  0  0  0
    2.6959    4.0850   -1.3481 C   0  0  0  0  0  0  0  0  0  0  0  0
   -0.5287    1.9664   -2.0327 C   0  0  0  0  0  0  0  0  0  0  0  0
   -0.7148    3.0925   -0.7980 S   0  0  0  0  0  0  0  0  0  0  0  0
    1.3090   -0.9300   -3.3829 C   0  0  0  0  0  0  0  0  0  0  0  0
    1.4584   -2.1757   -2.2627 S   0  0  0  0  0  0  0  0  0  0  0  0
    2.6862   -3.0208   -3.0425 C   0  0  0  0  0  0  0  0  0  0  0  0
    2.9725   -2.3405   -4.2244 C   0  0  0  0  0  0  0  0  0  0  0  0
    2.2105   -1.1827   -4.4114 C   0  0  0  0  0  0  0  0  0  0  0  0
    2.3824   -0.4063   -5.5569 O   0  0  0  0  0  0  0  0  0  0  0  0
    3.4991   -0.6425   -6.4239 C   0  0  0  0  0  0  0  0  0  0  0  0
    3.8563   -2.1447   -6.4953 C   0  0  0  0  0  0  0  0  0  0  0  0
    3.8984   -2.7324   -5.1928 O   0  0  0  0  0  0  0  0  0  0  0  0
    3.3539   -4.1962   -2.4727 C   0  0  0  0  0  0  0  0  0  0  0  0
    2.8944   -4.8933   -1.3589 C   0  0  0  0  0  0  0  0  0  0  0  0
    3.8230   -5.8045   -0.8480 C   0  0  0  0  0  0  0  0  0  0  0  0
    3.4881   -6.8013    0.6156 S   0  0  0  0  0  0  0  0  0  0  0  0
    4.2453   -5.6427    1.8027 C   0  0  0  0  0  0  0  0  0  0  0  0
    3.2660   -4.5512    2.2109 C   0  0  0  0  0  0  0  0  0  0  0  0
    5.0266   -5.8300   -1.5487 C   0  0  0  0  0  0  0  0  0  0  0  0
    4.9187   -4.7239   -2.8221 S   0  0  0  0  0  0  0  0  0  0  0  0
    6.2256   -6.5386   -1.0660 C   0  0  0  0  0  0  0  0  0  0  0  0
    7.2571   -5.8818   -0.4989 C   0  0  0  0  0  0  0  0  0  0  0  0
    7.4774   -4.4342   -0.5907 C   0  0  0  0  0  0  0  0  0  0  0  0
    7.3859   -3.7392   -1.6330 O   0  0  0  0  0  0  0  0  0  0  0  0
    7.9374   -3.9444    0.6844 C   0  0  0  0  0  0  0  0  0  0  0  0
    8.0450   -2.5945    1.0879 C   0  0  0  0  0  0  0  0  0  0  0  0
    8.3673   -2.4311    2.4211 C   0  0  0  0  0  0  0  0  0  0  0  0
    8.5490   -3.5327    3.3187 C   0  0  0  0  0  0  0  0  0  0  0  0
    8.4306   -4.8597    2.9338 C   0  0  0  0  0  0  0  0  0  0  0  0
    8.1360   -5.0460    1.5537 C   0  0  0  0  0  0  0  0  0  0  0  0
    7.8717   -6.3016    0.7978 C   0  0  0  0  0  0  0  0  0  0  0  0
    8.2396   -7.5597    1.1323 C   0  0  0  0  0  0  0  0  0  0  0  0
    8.8172   -7.8835    2.4093 C   0  0  0  0  0  0  0  0  0  0  0  0
    9.2594   -8.1614    3.4454 N   0  0  0  0  0  0  0  0  0  0  0  0
    8.1575   -8.6491    0.1924 C   0  0  0  0  0  0  0  0  0  0  0  0
    8.0919   -9.5256   -0.5605 N   0  0  0  0  0  0  0  0  0  0  0  0
    8.7833   -2.5844    4.4543 C   0  0  0  0  0  0  0  0  0  0  0  0
    7.6099   -2.4101    5.4653 C   0  0  0  0  0  0  0  0  0  0  0  0
    7.9258   -1.1569    6.2514 C   0  0  0  0  0  0  0  0  0  0  0  0
    7.7684   -0.1308    5.4072 C   0  0  0  0  0  0  0  0  0  0  0  0
    7.3536   -0.7236    4.0846 C   0  0  0  0  0  0  0  0  0  0  0  0
    6.4831   -1.8629    4.5983 C   0  0  0  0  0  0  0  0  0  0  0  0
    8.6056   -1.4567    3.5341 C   0  0  0  0  0  0  0  0  0  0  0  0
   -2.3281    2.3664    1.8228 H   0  0  0  0  0  0  0  0  0  0  0  0
   -7.2116    5.1105   -1.0939 H   0  0  0  0  0  0  0  0  0  0  0  0
   -7.2122    4.2230    3.9278 H   0  0  0  0  0  0  0  0  0  0  0  0
   -9.9515    6.1473    2.9033 H   0  0  0  0  0  0  0  0  0  0  0  0
  -11.1373    3.9208    3.4791 H   0  0  0  0  0  0  0  0  0  0  0  0
  -10.0165    1.8743    2.2260 H   0  0  0  0  0  0  0  0  0  0  0  0
  -10.0826    2.3539   -0.3258 H   0  0  0  0  0  0  0  0  0  0  0  0
  -11.1864    4.7244   -0.7134 H   0  0  0  0  0  0  0  0  0  0  0  0
  -12.2292    5.5091    1.6221 H   0  0  0  0  0  0  0  0  0  0  0  0
  -12.6213    3.7617    1.2975 H   0  0  0  0  0  0  0  0  0  0  0  0
   -9.9554    6.5718    0.5817 H   0  0  0  0  0  0  0  0  0  0  0  0
   -5.8390    1.5752    0.1856 H   0  0  0  0  0  0  0  0  0  0  0  0
   -8.0128    1.5380   -0.9648 H   0  0  0  0  0  0  0  0  0  0  0  0
  -10.3999   -1.5961   -2.9176 H   0  0  0  0  0  0  0  0  0  0  0  0
   -8.6715   -2.0453   -2.6364 H   0  0  0  0  0  0  0  0  0  0  0  0
   -9.5494   -1.0056   -1.4393 H   0  0  0  0  0  0  0  0  0  0  0  0
   -6.3132   -0.8504   -4.1151 H   0  0  0  0  0  0  0  0  0  0  0  0
   -4.1244   -0.7772   -2.9836 H   0  0  0  0  0  0  0  0  0  0  0  0
   -5.2729   -1.1466    0.7387 H   0  0  0  0  0  0  0  0  0  0  0  0
   -4.6922   -2.8206    2.4205 H   0  0  0  0  0  0  0  0  0  0  0  0
   -1.6975   -5.9617    2.8396 H   0  0  0  0  0  0  0  0  0  0  0  0
   -1.2159   -4.7771    1.5672 H   0  0  0  0  0  0  0  0  0  0  0  0
   -2.9675   -5.1935    1.8147 H   0  0  0  0  0  0  0  0  0  0  0  0
   -0.5254   -1.8569    1.9785 H   0  0  0  0  0  0  0  0  0  0  0  0
   -1.0749   -0.1795    0.2945 H   0  0  0  0  0  0  0  0  0  0  0  0
    3.8474    2.4242   -4.4110 H   0  0  0  0  0  0  0  0  0  0  0  0
    5.9901    1.2118   -4.5345 H   0  0  0  0  0  0  0  0  0  0  0  0
    9.1776   -0.0480   -2.0301 H   0  0  0  0  0  0  0  0  0  0  0  0
    8.1366    1.2637   -2.7011 H   0  0  0  0  0  0  0  0  0  0  0  0
    7.7482    0.5113   -1.0878 H   0  0  0  0  0  0  0  0  0  0  0  0
    4.9363   -1.0169   -1.0038 H   0  0  0  0  0  0  0  0  0  0  0  0
    2.8095    0.2380   -0.8502 H   0  0  0  0  0  0  0  0  0  0  0  0
    0.7828    3.9597   -4.1644 H   0  0  0  0  0  0  0  0  0  0  0  0
    0.8312    6.4088   -3.8284 H   0  0  0  0  0  0  0  0  0  0  0  0
    3.5831    8.0055   -3.6364 H   0  0  0  0  0  0  0  0  0  0  0  0
    4.4221    7.8650   -2.0388 H   0  0  0  0  0  0  0  0  0  0  0  0
    3.8064    9.4682   -2.5959 H   0  0  0  0  0  0  0  0  0  0  0  0
    3.2402    5.8845   -0.3042 H   0  0  0  0  0  0  0  0  0  0  0  0
    3.2049    3.4399   -0.6419 H   0  0  0  0  0  0  0  0  0  0  0  0
    3.2708   -0.2584   -7.4428 H   0  0  0  0  0  0  0  0  0  0  0  0
    4.3818   -0.0931   -6.0463 H   0  0  0  0  0  0  0  0  0  0  0  0
    3.0865   -2.6668   -7.1024 H   0  0  0  0  0  0  0  0  0  0  0  0
    4.8413   -2.2799   -6.9874 H   0  0  0  0  0  0  0  0  0  0  0  0
    1.9324   -4.7230   -0.8939 H   0  0  0  0  0  0  0  0  0  0  0  0
    5.1692   -5.1803    1.3965 H   0  0  0  0  0  0  0  0  0  0  0  0
    4.5325   -6.2246    2.7114 H   0  0  0  0  0  0  0  0  0  0  0  0
    2.2847   -4.9841    2.4859 H   0  0  0  0  0  0  0  0  0  0  0  0
    3.6670   -4.0117    3.0950 H   0  0  0  0  0  0  0  0  0  0  0  0
    3.1416   -3.8160    1.3940 H   0  0  0  0  0  0  0  0  0  0  0  0
    6.0420   -7.5569   -0.7640 H   0  0  0  0  0  0  0  0  0  0  0  0
    7.8470   -1.7583    0.4291 H   0  0  0  0  0  0  0  0  0  0  0  0
    8.5095   -5.6514    3.6591 H   0  0  0  0  0  0  0  0  0  0  0  0
    9.7983   -2.6636    4.9011 H   0  0  0  0  0  0  0  0  0  0  0  0
    7.3674   -3.3019    6.0775 H   0  0  0  0  0  0  0  0  0  0  0  0
    8.1552   -1.0820    7.3090 H   0  0  0  0  0  0  0  0  0  0  0  0
    7.8455    0.9237    5.6600 H   0  0  0  0  0  0  0  0  0  0  0  0
    6.8616   -0.0237    3.3791 H   0  0  0  0  0  0  0  0  0  0  0  0
    6.1295   -2.5598    3.8121 H   0  0  0  0  0  0  0  0  0  0  0  0
    5.6008   -1.5110    5.1880 H   0  0  0  0  0  0  0  0  0  0  0  0
    9.5107   -0.8296    3.3855 H   0  0  0  0  0  0  0  0  0  0  0  0
  1  2  2  3
  2  3  1  0
  3  4  2  0
  3  5  1  0
  5  6  2  0
  6  7  1  0
  7  8  2  0
  8  9  1  0
  9 10  2  0
 10 11  1  0
 11 12  2  3
 12 13  1  0
 13 14  3  0
 12 15  1  0
 15 16  3  0
  8 17  1  0
 17 18  1  0
 18 19  1  0
 19 20  2  0
 20 21  1  0
 21 22  1  0
 21 23  1  0
  1 24  1  0
 24 25  2  0
 25 26  1  0
 26 27  1  0
 27 28  2  0
 28 29  1  0
 29 30  2  0
 30 31  1  0
 31 32  1  0
 30 33  1  0
 33 34  2  0
 26 35  1  0
 35 36  2  0
 36 37  1  0
 37 38  2  0
 38 39  1  0
 39 40  1  0
 38 41  1  0
 41 42  2  0
 25 43  1  0
 43 44  1  0
 44 45  1  0
 45 46  2  0
 46 47  1  0
 47 48  1  0
 48 49  2  0
 49 50  1  0
 50 51  2  0
 51 52  1  0
 52 53  1  0
 51 54  1  0
 54 55  2  0
 47 56  1  0
 56 57  2  0
 57 58  1  0
 58 59  2  0
 59 60  1  0
 60 61  1  0
 59 62  1  0
 62 63  2  0
 46 64  1  0
 64 65  1  0
 45 66  1  0
 66 67  1  0
 67 68  1  0
 68 69  2  0
 69 70  1  0
 70 71  1  0
 71 72  1  0
 72 73  1  0
 73 74  1  0
 68 75  1  0
 75 76  2  0
 76 77  1  0
 77 78  1  0
 78 79  1  0
 79 80  1  0
 77 81  2  0
 81 82  1  0
 81 83  1  0
 83 84  2  3
 84 85  1  0
 85 86  2  0
 85 87  1  0
 87 88  2  0
 88 89  1  0
 89 90  2  0
 90 91  1  0
 91 92  2  0
 92 93  1  0
 93 94  2  3
 94 95  1  0
 95 96  3  0
 94 97  1  0
 97 98  3  0
 90 99  1  0
 99100  1  0
100101  1  0
101102  2  0
102103  1  0
103104  1  0
103105  1  0
 11  2  1  0
 23 17  1  0
 65 24  1  0
 70 66  2  0
 82 75  1  0
 93 84  1  0
105 99  1  0
 10  5  1  0
 22 18  1  0
 34 27  1  0
 42 35  1  0
 64 43  2  0
 74 69  1  0
 92 87  1  0
104100  1  0
 23  7  1  0
 55 48  1  0
 63 56  1  0
105 89  1  0
  1106  1  0
  6107  1  0
  9108  1  0
 17109  1  0
 18110  1  0
 19111  1  0
 20112  1  0
 21113  1  0
 22114  1  0
 22115  1  0
 23116  1  0
 28117  1  0
 29118  1  0
 32119  1  0
 32120  1  0
 32121  1  0
 33122  1  0
 34123  1  0
 36124  1  0
 37125  1  0
 40126  1  0
 40127  1  0
 40128  1  0
 41129  1  0
 42130  1  0
 49131  1  0
 50132  1  0
 53133  1  0
 53134  1  0
 53135  1  0
 54136  1  0
 55137  1  0
 57138  1  0
 58139  1  0
 61140  1  0
 61141  1  0
 61142  1  0
 62143  1  0
 63144  1  0
 72145  1  0
 72146  1  0
 73147  1  0
 73148  1  0
 76149  1  0
 79150  1  0
 79151  1  0
 80152  1  0
 80153  1  0
 80154  1  0
 83155  1  0
 88156  1  0
 91157  1  0
 99158  1  0
100159  1  0
101160  1  0
102161  1  0
103162  1  0
104163  1  0
104164  1  0
105165  1  0
M  END

