
     RDKit          3D

262286  0  0  0  0  0  0  0  0999 V2000
   -5.6824   -3.1687    3.4618 C   0  0  0  0  0  0  0  0  0  0  0  0
   -6.1913   -4.1775    2.7267 C   0  0  0  0  0  0  0  0  0  0  0  0
   -6.1863   -4.2320    1.2690 C   0  0  0  0  0  0  0  0  0  0  0  0
   -6.4214   -3.2576    0.5149 O   0  0  0  0  0  0  0  0  0  0  0  0
   -6.1837   -5.6119    0.8455 C   0  0  0  0  0  0  0  0  0  0  0  0
   -6.0523   -6.0878   -0.4767 C   0  0  0  0  0  0  0  0  0  0  0  0
   -5.9986   -7.4616   -0.5755 C   0  0  0  0  0  0  0  0  0  0  0  0
   -6.0602   -8.3239    0.5604 C   0  0  0  0  0  0  0  0  0  0  0  0
   -6.1845   -7.8629    1.8618 C   0  0  0  0  0  0  0  0  0  0  0  0
   -6.2820   -6.4460    1.9834 C   0  0  0  0  0  0  0  0  0  0  0  0
   -6.4161   -5.5876    3.1994 C   0  0  0  0  0  0  0  0  0  0  0  0
   -6.8021   -6.0043    4.4325 C   0  0  0  0  0  0  0  0  0  0  0  0
   -7.1067   -7.3841    4.7294 C   0  0  0  0  0  0  0  0  0  0  0  0
   -7.3630   -8.4831    4.9838 N   0  0  0  0  0  0  0  0  0  0  0  0
   -7.0573   -5.0964    5.5226 C   0  0  0  0  0  0  0  0  0  0  0  0
   -7.2669   -4.3850    6.4043 N   0  0  0  0  0  0  0  0  0  0  0  0
   -5.9068   -9.5205   -0.3275 C   0  0  0  0  0  0  0  0  0  0  0  0
   -4.5112  -10.2134   -0.3167 C   0  0  0  0  0  0  0  0  0  0  0  0
   -4.4821  -11.1048   -1.5393 C   0  0  0  0  0  0  0  0  0  0  0  0
   -4.4332  -10.2916   -2.5999 C   0  0  0  0  0  0  0  0  0  0  0  0
   -4.4209   -8.8845   -2.0593 C   0  0  0  0  0  0  0  0  0  0  0  0
   -3.5851   -9.1198   -0.8128 C   0  0  0  0  0  0  0  0  0  0  0  0
   -5.8415   -8.6380   -1.4889 C   0  0  0  0  0  0  0  0  0  0  0  0
   -4.2938   -2.6659    3.2968 C   0  0  0  0  0  0  0  0  0  0  0  0
   -3.6421   -2.0440    2.2028 C   0  0  0  0  0  0  0  0  0  0  0  0
   -4.2807   -1.5348    1.0168 N   0  0  0  0  0  0  0  0  0  0  0  0
   -3.9237   -2.1147   -0.2741 C   0  0  0  0  0  0  0  0  0  0  0  0
   -4.0879   -1.3886   -1.4741 C   0  0  0  0  0  0  0  0  0  0  0  0
   -3.9655   -2.0234   -2.7113 C   0  0  0  0  0  0  0  0  0  0  0  0
   -3.6323   -3.3784   -2.7797 C   0  0  0  0  0  0  0  0  0  0  0  0
   -3.7397   -4.2543   -4.3443 S   0  0  0  0  0  0  0  0  0  0  0  0
   -2.0206   -3.9266   -4.8389 C   0  0  0  0  0  0  0  0  0  0  0  0
   -3.3385   -4.0763   -1.6058 C   0  0  0  0  0  0  0  0  0  0  0  0
   -3.4680   -3.4471   -0.3641 C   0  0  0  0  0  0  0  0  0  0  0  0
   -5.0452   -0.3036    1.1243 C   0  0  0  0  0  0  0  0  0  0  0  0
   -4.6011    0.7470    1.9511 C   0  0  0  0  0  0  0  0  0  0  0  0
   -5.2919    1.9589    2.0012 C   0  0  0  0  0  0  0  0  0  0  0  0
   -6.4643    2.1271    1.2641 C   0  0  0  0  0  0  0  0  0  0  0  0
   -7.3433    3.6891    1.3433 S   0  0  0  0  0  0  0  0  0  0  0  0
   -8.3204    3.2074    2.8005 C   0  0  0  0  0  0  0  0  0  0  0  0
   -6.9371    1.0859    0.4609 C   0  0  0  0  0  0  0  0  0  0  0  0
   -6.2365   -0.1243    0.3937 C   0  0  0  0  0  0  0  0  0  0  0  0
   -2.3434   -1.6715    2.5412 C   0  0  0  0  0  0  0  0  0  0  0  0
   -1.2714   -0.5938    1.8466 S   0  0  0  0  0  0  0  0  0  0  0  0
   -0.2759   -0.4596    3.2198 C   0  0  0  0  0  0  0  0  0  0  0  0
   -0.8073   -1.2583    4.2512 C   0  0  0  0  0  0  0  0  0  0  0  0
   -0.3479   -1.2715    5.6164 N   0  0  0  0  0  0  0  0  0  0  0  0
   -0.3302   -2.5198    6.3382 C   0  0  0  0  0  0  0  0  0  0  0  0
   -0.8198   -2.5987    7.6546 C   0  0  0  0  0  0  0  0  0  0  0  0
   -0.8674   -3.8290    8.3185 C   0  0  0  0  0  0  0  0  0  0  0  0
   -0.4353   -4.9935    7.6719 C   0  0  0  0  0  0  0  0  0  0  0  0
   -0.5497   -6.5778    8.4994 S   0  0  0  0  0  0  0  0  0  0  0  0
   -2.2170   -6.9226    7.8587 C   0  0  0  0  0  0  0  0  0  0  0  0
    0.0707   -4.9170    6.3714 C   0  0  0  0  0  0  0  0  0  0  0  0
    0.1255   -3.6902    5.7082 C   0  0  0  0  0  0  0  0  0  0  0  0
   -0.0091   -0.0383    6.2830 C   0  0  0  0  0  0  0  0  0  0  0  0
    1.1102    0.0198    7.1276 C   0  0  0  0  0  0  0  0  0  0  0  0
    1.5102    1.2338    7.6941 C   0  0  0  0  0  0  0  0  0  0  0  0
    0.7788    2.3963    7.4436 C   0  0  0  0  0  0  0  0  0  0  0  0
    1.3312    3.9673    8.1064 S   0  0  0  0  0  0  0  0  0  0  0  0
    2.3156    4.3745    6.6290 C   0  0  0  0  0  0  0  0  0  0  0  0
   -0.3868    2.3337    6.6662 C   0  0  0  0  0  0  0  0  0  0  0  0
   -0.7829    1.1225    6.0905 C   0  0  0  0  0  0  0  0  0  0  0  0
   -1.9643   -1.9153    3.8179 C   0  0  0  0  0  0  0  0  0  0  0  0
   -3.2216   -2.6582    4.6296 S   0  0  0  0  0  0  0  0  0  0  0  0
    0.7964    0.5394    3.2822 C   0  0  0  0  0  0  0  0  0  0  0  0
    2.0704    0.2739    2.7520 C   0  0  0  0  0  0  0  0  0  0  0  0
    2.8046   -0.9290    3.0254 N   0  0  0  0  0  0  0  0  0  0  0  0
    3.3146   -1.1624    4.3564 C   0  0  0  0  0  0  0  0  0  0  0  0
    3.8262   -0.0982    5.1204 C   0  0  0  0  0  0  0  0  0  0  0  0
    4.4005   -0.3331    6.3762 C   0  0  0  0  0  0  0  0  0  0  0  0
    4.4319   -1.6348    6.8950 C   0  0  0  0  0  0  0  0  0  0  0  0
    5.2004   -1.9557    8.4829 S   0  0  0  0  0  0  0  0  0  0  0  0
    3.6387   -1.8839    9.4108 C   0  0  0  0  0  0  0  0  0  0  0  0
    3.8952   -2.6946    6.1552 C   0  0  0  0  0  0  0  0  0  0  0  0
    3.3411   -2.4620    4.8949 C   0  0  0  0  0  0  0  0  0  0  0  0
    3.1050   -1.8676    1.9805 C   0  0  0  0  0  0  0  0  0  0  0  0
    4.4395   -2.1133    1.6224 C   0  0  0  0  0  0  0  0  0  0  0  0
    4.7432   -3.0845    0.6657 C   0  0  0  0  0  0  0  0  0  0  0  0
    3.7180   -3.8394    0.0843 C   0  0  0  0  0  0  0  0  0  0  0  0
    4.1055   -5.1115   -1.1248 S   0  0  0  0  0  0  0  0  0  0  0  0
    4.2730   -6.4219    0.1263 C   0  0  0  0  0  0  0  0  0  0  0  0
    2.3856   -3.6103    0.4545 C   0  0  0  0  0  0  0  0  0  0  0  0
    2.0806   -2.6376    1.4059 C   0  0  0  0  0  0  0  0  0  0  0  0
    2.5883    1.3667    2.0511 C   0  0  0  0  0  0  0  0  0  0  0  0
    3.7038    1.4941    0.8041 S   0  0  0  0  0  0  0  0  0  0  0  0
    3.1763    3.0285    0.2670 C   0  0  0  0  0  0  0  0  0  0  0  0
    2.1130    3.4401    1.0893 C   0  0  0  0  0  0  0  0  0  0  0  0
    1.4025    4.6897    0.9418 N   0  0  0  0  0  0  0  0  0  0  0  0
    1.7617    5.8261    1.7696 C   0  0  0  0  0  0  0  0  0  0  0  0
    1.2607    7.1132    1.4733 C   0  0  0  0  0  0  0  0  0  0  0  0
    1.5374    8.1985    2.3082 C   0  0  0  0  0  0  0  0  0  0  0  0
    2.3211    8.0191    3.4501 C   0  0  0  0  0  0  0  0  0  0  0  0
    2.6288    9.3876    4.5652 S   0  0  0  0  0  0  0  0  0  0  0  0
    1.1876    9.0137    5.6122 C   0  0  0  0  0  0  0  0  0  0  0  0
    2.8575    6.7626    3.7361 C   0  0  0  0  0  0  0  0  0  0  0  0
    2.5860    5.6767    2.9058 C   0  0  0  0  0  0  0  0  0  0  0  0
    0.1623    4.7022    0.2061 C   0  0  0  0  0  0  0  0  0  0  0  0
    0.1533    5.0312   -1.1570 C   0  0  0  0  0  0  0  0  0  0  0  0
   -1.0192    4.9040   -1.9061 C   0  0  0  0  0  0  0  0  0  0  0  0
   -2.2080    4.5070   -1.2797 C   0  0  0  0  0  0  0  0  0  0  0  0
   -3.6999    4.2624   -2.2500 S   0  0  0  0  0  0  0  0  0  0  0  0
   -3.4059    2.4744   -2.4564 C   0  0  0  0  0  0  0  0  0  0  0  0
   -2.2310    4.2962    0.1042 C   0  0  0  0  0  0  0  0  0  0  0  0
   -1.0549    4.4084    0.8442 C   0  0  0  0  0  0  0  0  0  0  0  0
    1.8128    2.4806    2.0587 C   0  0  0  0  0  0  0  0  0  0  0  0
    0.4143    2.1510    2.9110 S   0  0  0  0  0  0  0  0  0  0  0  0
    3.2223    3.3678   -1.1556 C   0  0  0  0  0  0  0  0  0  0  0  0
    4.2922    3.9187   -1.8806 C   0  0  0  0  0  0  0  0  0  0  0  0
    5.5097    4.4065   -1.3052 N   0  0  0  0  0  0  0  0  0  0  0  0
    6.7198    3.7208   -1.6781 C   0  0  0  0  0  0  0  0  0  0  0  0
    6.8431    2.3439   -1.4424 C   0  0  0  0  0  0  0  0  0  0  0  0
    7.9576    1.6439   -1.9058 C   0  0  0  0  0  0  0  0  0  0  0  0
    8.9585    2.3095   -2.6202 C   0  0  0  0  0  0  0  0  0  0  0  0
   10.3677    1.3921   -3.2612 S   0  0  0  0  0  0  0  0  0  0  0  0
    9.5761    1.0517   -4.8636 C   0  0  0  0  0  0  0  0  0  0  0  0
    8.8539    3.6860   -2.8496 C   0  0  0  0  0  0  0  0  0  0  0  0
    7.7401    4.3912   -2.3820 C   0  0  0  0  0  0  0  0  0  0  0  0
    5.5588    5.7381   -0.7361 C   0  0  0  0  0  0  0  0  0  0  0  0
    4.5780    6.7031   -1.0496 C   0  0  0  0  0  0  0  0  0  0  0  0
    4.7138    8.0243   -0.6148 C   0  0  0  0  0  0  0  0  0  0  0  0
    5.8160    8.3977    0.1535 C   0  0  0  0  0  0  0  0  0  0  0  0
    6.0777   10.1187    0.6041 S   0  0  0  0  0  0  0  0  0  0  0  0
    5.0381   10.0358    2.0894 C   0  0  0  0  0  0  0  0  0  0  0  0
    6.7613    7.4382    0.5277 C   0  0  0  0  0  0  0  0  0  0  0  0
    6.6308    6.1166    0.0933 C   0  0  0  0  0  0  0  0  0  0  0  0
    4.0466    3.8623   -3.2533 C   0  0  0  0  0  0  0  0  0  0  0  0
    4.9639    4.1497   -4.6202 S   0  0  0  0  0  0  0  0  0  0  0  0
    3.7997    3.5504   -5.7239 C   0  0  0  0  0  0  0  0  0  0  0  0
    2.6753    3.1074   -4.9820 C   0  0  0  0  0  0  0  0  0  0  0  0
    1.5299    2.4132   -5.5088 N   0  0  0  0  0  0  0  0  0  0  0  0
    1.2082    1.1160   -4.9505 C   0  0  0  0  0  0  0  0  0  0  0  0
   -0.1205    0.7959   -4.6029 C   0  0  0  0  0  0  0  0  0  0  0  0
   -0.4092   -0.3863   -3.9218 C   0  0  0  0  0  0  0  0  0  0  0  0
    0.6220   -1.2512   -3.5472 C   0  0  0  0  0  0  0  0  0  0  0  0
    0.2559   -2.7005   -2.5595 S   0  0  0  0  0  0  0  0  0  0  0  0
   -0.0099   -1.7376   -1.0449 C   0  0  0  0  0  0  0  0  0  0  0  0
    1.9438   -0.9573   -3.9030 C   0  0  0  0  0  0  0  0  0  0  0  0
    2.2350    0.2096   -4.6175 C   0  0  0  0  0  0  0  0  0  0  0  0
    0.5212    3.1505   -6.2311 C   0  0  0  0  0  0  0  0  0  0  0  0
   -0.1838    2.5402   -7.2822 C   0  0  0  0  0  0  0  0  0  0  0  0
   -1.1302    3.2586   -8.0135 C   0  0  0  0  0  0  0  0  0  0  0  0
   -1.3921    4.5994   -7.7006 C   0  0  0  0  0  0  0  0  0  0  0  0
   -2.5686    5.5361   -8.6745 S   0  0  0  0  0  0  0  0  0  0  0  0
   -3.9674    5.1678   -7.5727 C   0  0  0  0  0  0  0  0  0  0  0  0
   -0.7136    5.2100   -6.6375 C   0  0  0  0  0  0  0  0  0  0  0  0
    0.2266    4.4882   -5.8978 C   0  0  0  0  0  0  0  0  0  0  0  0
    2.8748    3.2919   -3.6159 C   0  0  0  0  0  0  0  0  0  0  0  0
    2.0645    2.7647   -2.2551 S   0  0  0  0  0  0  0  0  0  0  0  0
    4.1802    3.1752   -7.1073 C   0  0  0  0  0  0  0  0  0  0  0  0
    3.2948    2.8669   -8.0556 C   0  0  0  0  0  0  0  0  0  0  0  0
    2.3418    3.8591   -8.5914 C   0  0  0  0  0  0  0  0  0  0  0  0
    2.1203    5.0168   -8.1394 O   0  0  0  0  0  0  0  0  0  0  0  0
    1.9040    3.3886   -9.8860 C   0  0  0  0  0  0  0  0  0  0  0  0
    0.9688    3.8422  -10.8018 C   0  0  0  0  0  0  0  0  0  0  0  0
    0.9922    2.6996  -12.0588 S   0  0  0  0  0  0  0  0  0  0  0  0
    2.1790    1.6657  -11.4282 C   0  0  0  0  0  0  0  0  0  0  0  0
    2.5625    2.2276  -10.2108 C   0  0  0  0  0  0  0  0  0  0  0  0
    3.4835    1.8379   -9.1204 C   0  0  0  0  0  0  0  0  0  0  0  0
    4.2173    0.7050   -9.0342 C   0  0  0  0  0  0  0  0  0  0  0  0
    4.3501   -0.1994  -10.1451 C   0  0  0  0  0  0  0  0  0  0  0  0
    4.4768   -0.9346  -11.0282 N   0  0  0  0  0  0  0  0  0  0  0  0
    4.9325    0.3590   -7.8295 C   0  0  0  0  0  0  0  0  0  0  0  0
    5.5106    0.0824   -6.8632 N   0  0  0  0  0  0  0  0  0  0  0  0
   -5.9430   -3.1542    4.5047 H   0  0  0  0  0  0  0  0  0  0  0  0
   -5.9704   -5.4297   -1.3344 H   0  0  0  0  0  0  0  0  0  0  0  0
   -6.1615   -8.5561    2.6878 H   0  0  0  0  0  0  0  0  0  0  0  0
   -6.7828  -10.2102   -0.3276 H   0  0  0  0  0  0  0  0  0  0  0  0
   -4.2231  -10.7070    0.6374 H   0  0  0  0  0  0  0  0  0  0  0  0
   -4.4271  -12.1898   -1.5651 H   0  0  0  0  0  0  0  0  0  0  0  0
   -4.3102  -10.5963   -3.6337 H   0  0  0  0  0  0  0  0  0  0  0  0
   -4.0414   -8.1080   -2.7551 H   0  0  0  0  0  0  0  0  0  0  0  0
   -2.5528   -9.4815   -1.0344 H   0  0  0  0  0  0  0  0  0  0  0  0
   -3.5091   -8.2401   -0.1343 H   0  0  0  0  0  0  0  0  0  0  0  0
   -6.6785   -8.7506   -2.2143 H   0  0  0  0  0  0  0  0  0  0  0  0
   -4.3564   -0.3455   -1.4593 H   0  0  0  0  0  0  0  0  0  0  0  0
   -4.1722   -1.4658   -3.6195 H   0  0  0  0  0  0  0  0  0  0  0  0
   -1.8134   -2.8387   -4.8054 H   0  0  0  0  0  0  0  0  0  0  0  0
   -1.3342   -4.4754   -4.1671 H   0  0  0  0  0  0  0  0  0  0  0  0
   -1.8620   -4.2913   -5.8697 H   0  0  0  0  0  0  0  0  0  0  0  0
   -3.0806   -5.1272   -1.6517 H   0  0  0  0  0  0  0  0  0  0  0  0
   -3.2998   -4.0377    0.5277 H   0  0  0  0  0  0  0  0  0  0  0  0
   -3.6973    0.6541    2.5322 H   0  0  0  0  0  0  0  0  0  0  0  0
   -4.9144    2.7622    2.6227 H   0  0  0  0  0  0  0  0  0  0  0  0
   -8.9098    4.0808    3.1519 H   0  0  0  0  0  0  0  0  0  0  0  0
   -9.0141    2.3848    2.5304 H   0  0  0  0  0  0  0  0  0  0  0  0
   -7.6483    2.8734    3.6202 H   0  0  0  0  0  0  0  0  0  0  0  0
   -7.8451    1.2135   -0.1163 H   0  0  0  0  0  0  0  0  0  0  0  0
   -6.6217   -0.9039   -0.2528 H   0  0  0  0  0  0  0  0  0  0  0  0
   -1.1992   -1.7165    8.1595 H   0  0  0  0  0  0  0  0  0  0  0  0
   -1.2694   -3.8735    9.3249 H   0  0  0  0  0  0  0  0  0  0  0  0
   -2.5820   -7.8790    8.2862 H   0  0  0  0  0  0  0  0  0  0  0  0
   -2.1749   -7.0151    6.7532 H   0  0  0  0  0  0  0  0  0  0  0  0
   -2.9168   -6.1081    8.1413 H   0  0  0  0  0  0  0  0  0  0  0  0
    0.4127   -5.8100    5.8591 H   0  0  0  0  0  0  0  0  0  0  0  0
    0.4983   -3.6506    4.6963 H   0  0  0  0  0  0  0  0  0  0  0  0
    1.6927   -0.8728    7.3083 H   0  0  0  0  0  0  0  0  0  0  0  0
    2.3969    1.2703    8.3088 H   0  0  0  0  0  0  0  0  0  0  0  0
    2.7349    5.3934    6.7429 H   0  0  0  0  0  0  0  0  0  0  0  0
    1.6751    4.3450    5.7217 H   0  0  0  0  0  0  0  0  0  0  0  0
    3.1449    3.6470    6.5120 H   0  0  0  0  0  0  0  0  0  0  0  0
   -0.9749    3.2244    6.4891 H   0  0  0  0  0  0  0  0  0  0  0  0
   -1.6779    1.0904    5.4791 H   0  0  0  0  0  0  0  0  0  0  0  0
    3.8295    0.9109    4.7273 H   0  0  0  0  0  0  0  0  0  0  0  0
    4.8244    0.4918    6.9420 H   0  0  0  0  0  0  0  0  0  0  0  0
    3.1236   -0.9194    9.2173 H   0  0  0  0  0  0  0  0  0  0  0  0
    2.9836   -2.7369    9.1205 H   0  0  0  0  0  0  0  0  0  0  0  0
    3.8636   -1.9477   10.4983 H   0  0  0  0  0  0  0  0  0  0  0  0
    3.9200   -3.7032    6.5471 H   0  0  0  0  0  0  0  0  0  0  0  0
    2.9482   -3.2925    4.3345 H   0  0  0  0  0  0  0  0  0  0  0  0
    5.2374   -1.5350    2.0743 H   0  0  0  0  0  0  0  0  0  0  0  0
    5.7725   -3.2636    0.3977 H   0  0  0  0  0  0  0  0  0  0  0  0
    5.0911   -6.1663    0.8305 H   0  0  0  0  0  0  0  0  0  0  0  0
    4.5199   -7.3757   -0.3788 H   0  0  0  0  0  0  0  0  0  0  0  0
    3.3188   -6.5439    0.6843 H   0  0  0  0  0  0  0  0  0  0  0  0
    1.5862   -4.1978    0.0188 H   0  0  0  0  0  0  0  0  0  0  0  0
    1.0561   -2.5005    1.7188 H   0  0  0  0  0  0  0  0  0  0  0  0
    0.6566    7.2881    0.5865 H   0  0  0  0  0  0  0  0  0  0  0  0
    1.1441    9.1799    2.0675 H   0  0  0  0  0  0  0  0  0  0  0  0
    1.1246    9.7629    6.4285 H   0  0  0  0  0  0  0  0  0  0  0  0
    1.2958    8.0006    6.0576 H   0  0  0  0  0  0  0  0  0  0  0  0
    0.2602    9.0580    5.0015 H   0  0  0  0  0  0  0  0  0  0  0  0
    3.4726    6.6186    4.6140 H   0  0  0  0  0  0  0  0  0  0  0  0
    3.0007    4.7163    3.1679 H   0  0  0  0  0  0  0  0  0  0  0  0
    1.0635    5.3533   -1.6462 H   0  0  0  0  0  0  0  0  0  0  0  0
   -1.0009    5.1039   -2.9719 H   0  0  0  0  0  0  0  0  0  0  0  0
   -2.3995    2.3044   -2.8920 H   0  0  0  0  0  0  0  0  0  0  0  0
   -3.4771    1.9705   -1.4678 H   0  0  0  0  0  0  0  0  0  0  0  0
   -4.1685    2.0529   -3.1424 H   0  0  0  0  0  0  0  0  0  0  0  0
   -3.1574    4.0337    0.6039 H   0  0  0  0  0  0  0  0  0  0  0  0
   -1.0926    4.2616    1.9118 H   0  0  0  0  0  0  0  0  0  0  0  0
    6.0645    1.8086   -0.9140 H   0  0  0  0  0  0  0  0  0  0  0  0
    8.0265    0.5781   -1.7267 H   0  0  0  0  0  0  0  0  0  0  0  0
   10.2878    0.4923   -5.4996 H   0  0  0  0  0  0  0  0  0  0  0  0
    8.6605    0.4439   -4.7129 H   0  0  0  0  0  0  0  0  0  0  0  0
    9.3147    2.0046   -5.3656 H   0  0  0  0  0  0  0  0  0  0  0  0
    9.6187    4.2073   -3.4142 H   0  0  0  0  0  0  0  0  0  0  0  0
    7.6520    5.4481   -2.6047 H   0  0  0  0  0  0  0  0  0  0  0  0
    3.7280    6.4566   -1.6771 H   0  0  0  0  0  0  0  0  0  0  0  0
    3.9778    8.7653   -0.8998 H   0  0  0  0  0  0  0  0  0  0  0  0
    3.9934    9.8060    1.7933 H   0  0  0  0  0  0  0  0  0  0  0  0
    5.0556   11.0273    2.5930 H   0  0  0  0  0  0  0  0  0  0  0  0
    5.4152    9.2634    2.7936 H   0  0  0  0  0  0  0  0  0  0  0  0
    7.6200    7.7166    1.1301 H   0  0  0  0  0  0  0  0  0  0  0  0
    7.3890    5.3953    0.3737 H   0  0  0  0  0  0  0  0  0  0  0  0
   -0.9312    1.4823   -4.8095 H   0  0  0  0  0  0  0  0  0  0  0  0
   -1.4331   -0.6073   -3.6385 H   0  0  0  0  0  0  0  0  0  0  0  0
    0.9409   -1.2512   -0.7345 H   0  0  0  0  0  0  0  0  0  0  0  0
   -0.7950   -0.9656   -1.1896 H   0  0  0  0  0  0  0  0  0  0  0  0
   -0.3563   -2.4349   -0.2528 H   0  0  0  0  0  0  0  0  0  0  0  0
    2.7489   -1.6180   -3.6076 H   0  0  0  0  0  0  0  0  0  0  0  0
    3.2658    0.4348   -4.8601 H   0  0  0  0  0  0  0  0  0  0  0  0
    0.0208    1.5138   -7.5595 H   0  0  0  0  0  0  0  0  0  0  0  0
   -1.6492    2.7767   -8.8326 H   0  0  0  0  0  0  0  0  0  0  0  0
   -3.7933    5.6183   -6.5756 H   0  0  0  0  0  0  0  0  0  0  0  0
   -4.0913    4.0707   -7.4719 H   0  0  0  0  0  0  0  0  0  0  0  0
   -4.8952    5.6003   -7.9950 H   0  0  0  0  0  0  0  0  0  0  0  0
   -0.9071    6.2455   -6.3927 H   0  0  0  0  0  0  0  0  0  0  0  0
    0.7417    4.9745   -5.0828 H   0  0  0  0  0  0  0  0  0  0  0  0
    5.2142    2.8971   -7.2631 H   0  0  0  0  0  0  0  0  0  0  0  0
    0.3245    4.7047  -10.7082 H   0  0  0  0  0  0  0  0  0  0  0  0
    2.5309    0.7530  -11.8868 H   0  0  0  0  0  0  0  0  0  0  0  0
  1  2  2  3
  2  3  1  0
  3  4  2  0
  3  5  1  0
  5  6  2  0
  6  7  1  0
  7  8  2  0
  8  9  1  0
  9 10  2  0
 10 11  1  0
 11 12  2  3
 12 13  1  0
 13 14  3  0
 12 15  1  0
 15 16  3  0
  8 17  1  0
 17 18  1  0
 18 19  1  0
 19 20  2  0
 20 21  1  0
 21 22  1  0
 21 23  1  0
  1 24  1  0
 24 25  2  0
 25 26  1  0
 26 27  1  0
 27 28  2  0
 28 29  1  0
 29 30  2  0
 30 31  1  0
 31 32  1  0
 30 33  1  0
 33 34  2  0
 26 35  1  0
 35 36  2  0
 36 37  1  0
 37 38  2  0
 38 39  1  0
 39 40  1  0
 38 41  1  0
 41 42  2  0
 25 43  1  0
 43 44  1  0
 44 45  1  0
 45 46  2  0
 46 47  1  0
 47 48  1  0
 48 49  2  0
 49 50  1  0
 50 51  2  0
 51 52  1  0
 52 53  1  0
 51 54  1  0
 54 55  2  0
 47 56  1  0
 56 57  2  0
 57 58  1  0
 58 59  2  0
 59 60  1  0
 60 61  1  0
 59 62  1  0
 62 63  2  0
 46 64  1  0
 64 65  1  0
 45 66  1  0
 66 67  2  0
 67 68  1  0
 68 69  1  0
 69 70  2  0
 70 71  1  0
 71 72  2  0
 72 73  1  0
 73 74  1  0
 72 75  1  0
 75 76  2  0
 68 77  1  0
 77 78  2  0
 78 79  1  0
 79 80  2  0
 80 81  1  0
 81 82  1  0
 80 83  1  0
 83 84  2  0
 67 85  1  0
 85 86  1  0
 86 87  1  0
 87 88  2  0
 88 89  1  0
 89 90  1  0
 90 91  2  0
 91 92  1  0
 92 93  2  0
 93 94  1  0
 94 95  1  0
 93 96  1  0
 96 97  2  0
 89 98  1  0
 98 99  2  0
 99100  1  0
100101  2  0
101102  1  0
102103  1  0
101104  1  0
104105  2  0
 88106  1  0
106107  1  0
 87108  1  0
108109  2  0
109110  1  0
110111  1  0
111112  2  0
112113  1  0
113114  2  0
114115  1  0
115116  1  0
114117  1  0
117118  2  0
110119  1  0
119120  2  0
120121  1  0
121122  2  0
122123  1  0
123124  1  0
122125  1  0
125126  2  0
109127  1  0
127128  1  0
128129  1  0
129130  2  0
130131  1  0
131132  1  0
132133  2  0
133134  1  0
134135  2  0
135136  1  0
136137  1  0
135138  1  0
138139  2  0
131140  1  0
140141  2  0
141142  1  0
142143  2  0
143144  1  0
144145  1  0
143146  1  0
146147  2  0
130148  1  0
148149  1  0
129150  1  0
150151  2  3
151152  1  0
152153  2  0
152154  1  0
154155  2  0
155156  1  0
156157  1  0
157158  2  0
158159  1  0
159160  2  3
160161  1  0
161162  3  0
160163  1  0
163164  3  0
 11  2  1  0
 23 17  1  0
 65 24  1  0
107 66  1  0
149108  1  0
159151  1  0
 10  5  1  0
 22 18  1  0
 34 27  1  0
 42 35  1  0
 64 43  2  0
 76 69  1  0
 84 77  1  0
106 85  2  0
118111  1  0
126119  1  0
148127  2  0
158154  1  0
 23  7  1  0
 55 48  1  0
 63 56  1  0
 97 90  1  0
105 98  1  0
139132  1  0
147140  1  0
  1165  1  0
  6166  1  0
  9167  1  0
 17168  1  0
 18169  1  0
 19170  1  0
 20171  1  0
 21172  1  0
 22173  1  0
 22174  1  0
 23175  1  0
 28176  1  0
 29177  1  0
 32178  1  0
 32179  1  0
 32180  1  0
 33181  1  0
 34182  1  0
 36183  1  0
 37184  1  0
 40185  1  0
 40186  1  0
 40187  1  0
 41188  1  0
 42189  1  0
 49190  1  0
 50191  1  0
 53192  1  0
 53193  1  0
 53194  1  0
 54195  1  0
 55196  1  0
 57197  1  0
 58198  1  0
 61199  1  0
 61200  1  0
 61201  1  0
 62202  1  0
 63203  1  0
 70204  1  0
 71205  1  0
 74206  1  0
 74207  1  0
 74208  1  0
 75209  1  0
 76210  1  0
 78211  1  0
 79212  1  0
 82213  1  0
 82214  1  0
 82215  1  0
 83216  1  0
 84217  1  0
 91218  1  0
 92219  1  0
 95220  1  0
 95221  1  0
 95222  1  0
 96223  1  0
 97224  1  0
 99225  1  0
100226  1  0
103227  1  0
103228  1  0
103229  1  0
104230  1  0
105231  1  0
112232  1  0
113233  1  0
116234  1  0
116235  1  0
116236  1  0
117237  1  0
118238  1  0
120239  1  0
121240  1  0
124241  1  0
124242  1  0
124243  1  0
125244  1  0
126245  1  0
133246  1  0
134247  1  0
137248  1  0
137249  1  0
137250  1  0
138251  1  0
139252  1  0
141253  1  0
142254  1  0
145255  1  0
145256  1  0
145257  1  0
146258  1  0
147259  1  0
150260  1  0
155261  1  0
157262  1  0
M  END

