
     RDKit          3D

214236  0  0  0  0  0  0  0  0999 V2000
   -1.3938    1.2950   -9.6254 C   0  0  0  0  0  0  0  0  0  0  0  0
   -1.9298    2.3109   -8.9185 C   0  0  0  0  0  0  0  0  0  0  0  0
   -1.5245    2.7037   -7.5577 C   0  0  0  0  0  0  0  0  0  0  0  0
   -0.9502    1.9753   -6.7039 O   0  0  0  0  0  0  0  0  0  0  0  0
   -1.8479    4.0975   -7.3653 C   0  0  0  0  0  0  0  0  0  0  0  0
   -1.4272    4.9227   -6.2973 C   0  0  0  0  0  0  0  0  0  0  0  0
   -1.6888    6.2632   -6.4939 C   0  0  0  0  0  0  0  0  0  0  0  0
   -2.3347    6.7768   -7.6664 C   0  0  0  0  0  0  0  0  0  0  0  0
   -2.7660    5.9711   -8.7071 C   0  0  0  0  0  0  0  0  0  0  0  0
   -2.5201    4.5795   -8.5179 C   0  0  0  0  0  0  0  0  0  0  0  0
   -2.7198    3.4500   -9.4685 C   0  0  0  0  0  0  0  0  0  0  0  0
   -3.6177    3.3907  -10.4858 C   0  0  0  0  0  0  0  0  0  0  0  0
   -4.4773    4.4987  -10.8209 C   0  0  0  0  0  0  0  0  0  0  0  0
   -5.1797    5.3759  -11.0979 N   0  0  0  0  0  0  0  0  0  0  0  0
   -3.8945    2.1604  -11.1833 C   0  0  0  0  0  0  0  0  0  0  0  0
   -4.1200    1.1731  -11.7463 N   0  0  0  0  0  0  0  0  0  0  0  0
   -2.1732    8.1806   -7.1584 C   0  0  0  0  0  0  0  0  0  0  0  0
   -3.4462    8.8797   -6.5953 C   0  0  0  0  0  0  0  0  0  0  0  0
   -2.9457   10.0715   -5.8117 C   0  0  0  0  0  0  0  0  0  0  0  0
   -2.3494    9.5847   -4.7172 C   0  0  0  0  0  0  0  0  0  0  0  0
   -2.4606    8.0811   -4.8016 C   0  0  0  0  0  0  0  0  0  0  0  0
   -3.8426    7.9839   -5.4316 C   0  0  0  0  0  0  0  0  0  0  0  0
   -1.5132    7.6526   -5.9613 C   0  0  0  0  0  0  0  0  0  0  0  0
   -0.3712    0.4115   -9.0403 C   0  0  0  0  0  0  0  0  0  0  0  0
    0.9827    0.7578   -9.1789 C   0  0  0  0  0  0  0  0  0  0  0  0
    1.3469    1.7664  -10.0100 F   0  0  0  0  0  0  0  0  0  0  0  0
    1.9461    0.1671   -8.3561 C   0  0  0  0  0  0  0  0  0  0  0  0
    3.2231    0.6269   -8.3998 F   0  0  0  0  0  0  0  0  0  0  0  0
    1.5772   -0.8033   -7.4104 C   0  0  0  0  0  0  0  0  0  0  0  0
    0.2420   -1.2622   -7.3823 C   0  0  0  0  0  0  0  0  0  0  0  0
   -0.1460   -2.2216   -6.5046 N   0  0  0  0  0  0  0  0  0  0  0  0
   -1.4437   -2.5977   -6.3518 C   0  0  0  0  0  0  0  0  0  0  0  0
   -1.7354   -3.7032   -5.3646 C   0  0  0  0  0  0  0  0  0  0  0  0
   -1.2392   -3.3333   -3.9669 C   0  0  0  0  0  0  0  0  0  0  0  0
   -2.4331   -1.9351   -7.1194 C   0  0  0  0  0  0  0  0  0  0  0  0
   -2.0411   -0.9752   -8.0016 N   0  0  0  0  0  0  0  0  0  0  0  0
   -0.7356   -0.6355   -8.1756 C   0  0  0  0  0  0  0  0  0  0  0  0
   -3.9130   -2.1559   -6.9411 C   0  0  0  0  0  0  0  0  0  0  0  0
   -4.4246   -1.4301   -5.6981 C   0  0  0  0  0  0  0  0  0  0  0  0
    2.4383   -1.0249   -6.2361 C   0  0  0  0  0  0  0  0  0  0  0  0
    2.6314   -2.2468   -5.5861 C   0  0  0  0  0  0  0  0  0  0  0  0
    2.9811   -2.1038   -4.2283 C   0  0  0  0  0  0  0  0  0  0  0  0
    3.0889   -3.1440   -3.2759 C   0  0  0  0  0  0  0  0  0  0  0  0
    3.1194   -4.5640   -3.6916 C   0  0  0  0  0  0  0  0  0  0  0  0
    2.2265   -5.5048   -3.1531 C   0  0  0  0  0  0  0  0  0  0  0  0
    2.2847   -6.8405   -3.5689 C   0  0  0  0  0  0  0  0  0  0  0  0
    3.2256   -7.2462   -4.5179 C   0  0  0  0  0  0  0  0  0  0  0  0
    4.1183   -6.3121   -5.0627 C   0  0  0  0  0  0  0  0  0  0  0  0
    5.2869   -6.8104   -6.3320 S   0  0  0  0  0  0  0  0  0  0  0  0
    6.6654   -7.1637   -5.1867 C   0  0  0  0  0  0  0  0  0  0  0  0
    7.4516   -5.8954   -4.8634 C   0  0  0  0  0  0  0  0  0  0  0  0
    4.0580   -4.9765   -4.6537 C   0  0  0  0  0  0  0  0  0  0  0  0
    3.1792   -2.7551   -1.9227 C   0  0  0  0  0  0  0  0  0  0  0  0
    3.2206   -1.4112   -1.5296 C   0  0  0  0  0  0  0  0  0  0  0  0
    3.1773   -0.3837   -2.4876 C   0  0  0  0  0  0  0  0  0  0  0  0
    3.0514    1.0318   -2.1031 C   0  0  0  0  0  0  0  0  0  0  0  0
    4.1926    1.8095   -1.8735 C   0  0  0  0  0  0  0  0  0  0  0  0
    4.0643    3.1708   -1.5840 C   0  0  0  0  0  0  0  0  0  0  0  0
    2.7951    3.7609   -1.5329 C   0  0  0  0  0  0  0  0  0  0  0  0
    1.6522    2.9853   -1.7622 C   0  0  0  0  0  0  0  0  0  0  0  0
    0.0249    3.7426   -1.7477 S   0  0  0  0  0  0  0  0  0  0  0  0
   -0.2587    3.3974    0.0169 C   0  0  0  0  0  0  0  0  0  0  0  0
   -1.6184    3.9370    0.4357 C   0  0  0  0  0  0  0  0  0  0  0  0
    1.7810    1.6208   -2.0474 C   0  0  0  0  0  0  0  0  0  0  0  0
    3.0560   -0.7669   -3.8282 C   0  0  0  0  0  0  0  0  0  0  0  0
    2.7166    0.2236   -5.1369 S   0  0  0  0  0  0  0  0  0  0  0  0
    3.1777   -1.2349   -0.1406 C   0  0  0  0  0  0  0  0  0  0  0  0
    3.1004   -2.4335    0.5576 C   0  0  0  0  0  0  0  0  0  0  0  0
    3.0826   -3.7143   -0.5396 S   0  0  0  0  0  0  0  0  0  0  0  0
    2.6631   -2.5159    1.9501 C   0  0  0  0  0  0  0  0  0  0  0  0
    3.4628   -2.2376    3.0673 C   0  0  0  0  0  0  0  0  0  0  0  0
    4.8952   -2.1323    3.0414 N   0  0  0  0  0  0  0  0  0  0  0  0
    5.6920   -3.2633    2.6196 C   0  0  0  0  0  0  0  0  0  0  0  0
    5.2145   -4.5786    2.7862 C   0  0  0  0  0  0  0  0  0  0  0  0
    5.9903   -5.6710    2.3966 C   0  0  0  0  0  0  0  0  0  0  0  0
    7.2592   -5.4708    1.8467 C   0  0  0  0  0  0  0  0  0  0  0  0
    8.2668   -6.8804    1.3796 S   0  0  0  0  0  0  0  0  0  0  0  0
    8.9387   -7.1075    3.0554 C   0  0  0  0  0  0  0  0  0  0  0  0
    7.7407   -4.1699    1.6606 C   0  0  0  0  0  0  0  0  0  0  0  0
    6.9602   -3.0715    2.0404 C   0  0  0  0  0  0  0  0  0  0  0  0
    5.4990   -0.9408    3.5811 C   0  0  0  0  0  0  0  0  0  0  0  0
    5.0099    0.3277    3.2165 C   0  0  0  0  0  0  0  0  0  0  0  0
    5.5176    1.4814    3.8194 C   0  0  0  0  0  0  0  0  0  0  0  0
    6.5105    1.3810    4.7992 C   0  0  0  0  0  0  0  0  0  0  0  0
    7.1148    2.8577    5.6198 S   0  0  0  0  0  0  0  0  0  0  0  0
    5.8656    2.7664    6.9427 C   0  0  0  0  0  0  0  0  0  0  0  0
    7.0203    0.1247    5.1482 C   0  0  0  0  0  0  0  0  0  0  0  0
    6.5211   -1.0305    4.5438 C   0  0  0  0  0  0  0  0  0  0  0  0
    2.6838   -2.0020    4.1978 C   0  0  0  0  0  0  0  0  0  0  0  0
    3.0124   -1.6089    5.7968 S   0  0  0  0  0  0  0  0  0  0  0  0
    1.3701   -1.4248    6.2188 C   0  0  0  0  0  0  0  0  0  0  0  0
    0.5625   -1.7288    5.1085 C   0  0  0  0  0  0  0  0  0  0  0  0
   -0.8610   -1.9042    5.1540 N   0  0  0  0  0  0  0  0  0  0  0  0
   -1.3196   -3.1579    5.6854 C   0  0  0  0  0  0  0  0  0  0  0  0
   -1.3844   -4.2873    4.8560 C   0  0  0  0  0  0  0  0  0  0  0  0
   -1.8753   -5.4985    5.3501 C   0  0  0  0  0  0  0  0  0  0  0  0
   -2.3061   -5.5893    6.6811 C   0  0  0  0  0  0  0  0  0  0  0  0
   -2.9696   -7.1323    7.3106 S   0  0  0  0  0  0  0  0  0  0  0  0
   -4.6705   -6.7649    6.7729 C   0  0  0  0  0  0  0  0  0  0  0  0
   -2.2323   -4.4653    7.5140 C   0  0  0  0  0  0  0  0  0  0  0  0
   -1.7469   -3.2516    7.0179 C   0  0  0  0  0  0  0  0  0  0  0  0
   -1.7494   -1.1114    4.3224 C   0  0  0  0  0  0  0  0  0  0  0  0
   -1.2527   -0.0929    3.4810 C   0  0  0  0  0  0  0  0  0  0  0  0
   -2.1057    0.6007    2.6192 C   0  0  0  0  0  0  0  0  0  0  0  0
   -3.4721    0.3160    2.5987 C   0  0  0  0  0  0  0  0  0  0  0  0
   -4.5522    1.1808    1.4561 S   0  0  0  0  0  0  0  0  0  0  0  0
   -4.3420   -0.0581    0.1366 C   0  0  0  0  0  0  0  0  0  0  0  0
   -3.9911   -0.6486    3.4651 C   0  0  0  0  0  0  0  0  0  0  0  0
   -3.1403   -1.3554    4.3216 C   0  0  0  0  0  0  0  0  0  0  0  0
    1.3453   -2.0522    4.0013 C   0  0  0  0  0  0  0  0  0  0  0  0
    1.0205   -2.4295    2.3995 S   0  0  0  0  0  0  0  0  0  0  0  0
    0.9239   -1.0651    7.5686 C   0  0  0  0  0  0  0  0  0  0  0  0
    0.0291   -0.1014    7.8604 C   0  0  0  0  0  0  0  0  0  0  0  0
   -0.6825   -0.0658    9.1373 C   0  0  0  0  0  0  0  0  0  0  0  0
   -0.3687   -0.7045   10.1791 O   0  0  0  0  0  0  0  0  0  0  0  0
   -1.8496    0.7752    8.9890 C   0  0  0  0  0  0  0  0  0  0  0  0
   -2.8379    1.0462    9.9640 C   0  0  0  0  0  0  0  0  0  0  0  0
   -3.8475    1.8777    9.5208 C   0  0  0  0  0  0  0  0  0  0  0  0
   -3.9054    2.3942    8.1858 C   0  0  0  0  0  0  0  0  0  0  0  0
   -2.9471    2.1274    7.2238 C   0  0  0  0  0  0  0  0  0  0  0  0
   -1.8726    1.3082    7.6743 C   0  0  0  0  0  0  0  0  0  0  0  0
   -0.6201    0.9113    6.9707 C   0  0  0  0  0  0  0  0  0  0  0  0
   -0.0036    1.6447    6.0062 C   0  0  0  0  0  0  0  0  0  0  0  0
    1.4077    1.5467    5.7467 C   0  0  0  0  0  0  0  0  0  0  0  0
    2.5436    1.5032    5.5263 N   0  0  0  0  0  0  0  0  0  0  0  0
   -0.6574    2.7183    5.3032 C   0  0  0  0  0  0  0  0  0  0  0  0
   -1.1532    3.5935    4.7302 N   0  0  0  0  0  0  0  0  0  0  0  0
   -5.1771    3.1273    8.5085 C   0  0  0  0  0  0  0  0  0  0  0  0
   -6.5195    2.5531    7.9580 C   0  0  0  0  0  0  0  0  0  0  0  0
   -6.4282    1.0510    7.8295 C   0  0  0  0  0  0  0  0  0  0  0  0
   -6.3696    0.5674    9.0704 C   0  0  0  0  0  0  0  0  0  0  0  0
   -6.4245    1.7587   10.0015 C   0  0  0  0  0  0  0  0  0  0  0  0
   -7.3739    2.6359    9.2098 C   0  0  0  0  0  0  0  0  0  0  0  0
   -5.1151    2.5953    9.8739 C   0  0  0  0  0  0  0  0  0  0  0  0
   -1.5563    1.2164  -10.6895 H   0  0  0  0  0  0  0  0  0  0  0  0
   -0.8753    4.5505   -5.4442 H   0  0  0  0  0  0  0  0  0  0  0  0
   -3.1866    6.4022   -9.6018 H   0  0  0  0  0  0  0  0  0  0  0  0
   -1.5214    8.8115   -7.8036 H   0  0  0  0  0  0  0  0  0  0  0  0
   -4.2449    9.1021   -7.3369 H   0  0  0  0  0  0  0  0  0  0  0  0
   -3.1010   11.1238   -6.0336 H   0  0  0  0  0  0  0  0  0  0  0  0
   -1.9403   10.1684   -3.9021 H   0  0  0  0  0  0  0  0  0  0  0  0
   -2.3222    7.5412   -3.8437 H   0  0  0  0  0  0  0  0  0  0  0  0
   -4.1354    6.9520   -5.7264 H   0  0  0  0  0  0  0  0  0  0  0  0
   -4.6523    8.4180   -4.7958 H   0  0  0  0  0  0  0  0  0  0  0  0
   -0.4480    7.9533   -5.8511 H   0  0  0  0  0  0  0  0  0  0  0  0
   -1.2118   -4.6242   -5.6988 H   0  0  0  0  0  0  0  0  0  0  0  0
   -2.8121   -3.9498   -5.2988 H   0  0  0  0  0  0  0  0  0  0  0  0
   -0.1444   -3.1397   -3.9726 H   0  0  0  0  0  0  0  0  0  0  0  0
   -1.7711   -2.4249   -3.6045 H   0  0  0  0  0  0  0  0  0  0  0  0
   -1.4426   -4.1692   -3.2642 H   0  0  0  0  0  0  0  0  0  0  0  0
   -4.4491   -1.7475   -7.8257 H   0  0  0  0  0  0  0  0  0  0  0  0
   -4.1557   -3.2381   -6.8934 H   0  0  0  0  0  0  0  0  0  0  0  0
   -4.1512   -0.3549   -5.7392 H   0  0  0  0  0  0  0  0  0  0  0  0
   -3.9904   -1.8748   -4.7765 H   0  0  0  0  0  0  0  0  0  0  0  0
   -5.5282   -1.5162   -5.6419 H   0  0  0  0  0  0  0  0  0  0  0  0
    2.3873   -3.1954   -6.0451 H   0  0  0  0  0  0  0  0  0  0  0  0
    1.4768   -5.2081   -2.4317 H   0  0  0  0  0  0  0  0  0  0  0  0
    1.5913   -7.5632   -3.1562 H   0  0  0  0  0  0  0  0  0  0  0  0
    3.2545   -8.2783   -4.8400 H   0  0  0  0  0  0  0  0  0  0  0  0
    7.3457   -7.8816   -5.6902 H   0  0  0  0  0  0  0  0  0  0  0  0
    6.2968   -7.6360   -4.2513 H   0  0  0  0  0  0  0  0  0  0  0  0
    7.7128   -5.3512   -5.7970 H   0  0  0  0  0  0  0  0  0  0  0  0
    6.8596   -5.2312   -4.2032 H   0  0  0  0  0  0  0  0  0  0  0  0
    8.3917   -6.1668   -4.3379 H   0  0  0  0  0  0  0  0  0  0  0  0
    4.7391   -4.2566   -5.0861 H   0  0  0  0  0  0  0  0  0  0  0  0
    5.1792    1.3657   -1.9296 H   0  0  0  0  0  0  0  0  0  0  0  0
    4.9470    3.7750   -1.4187 H   0  0  0  0  0  0  0  0  0  0  0  0
    2.7039    4.8207   -1.3283 H   0  0  0  0  0  0  0  0  0  0  0  0
    0.5341    3.8818    0.6217 H   0  0  0  0  0  0  0  0  0  0  0  0
   -0.2305    2.3023    0.1892 H   0  0  0  0  0  0  0  0  0  0  0  0
   -2.4263    3.4077   -0.1138 H   0  0  0  0  0  0  0  0  0  0  0  0
   -1.6819    5.0254    0.2260 H   0  0  0  0  0  0  0  0  0  0  0  0
   -1.7661    3.7774    1.5259 H   0  0  0  0  0  0  0  0  0  0  0  0
    0.8953    1.0254   -2.2285 H   0  0  0  0  0  0  0  0  0  0  0  0
    3.1089   -0.2666    0.3389 H   0  0  0  0  0  0  0  0  0  0  0  0
    4.2486   -4.7626    3.2378 H   0  0  0  0  0  0  0  0  0  0  0  0
    5.6113   -6.6745    2.5433 H   0  0  0  0  0  0  0  0  0  0  0  0
    8.1190   -7.3807    3.7530 H   0  0  0  0  0  0  0  0  0  0  0  0
    9.6843   -7.9293    3.0381 H   0  0  0  0  0  0  0  0  0  0  0  0
    9.4313   -6.1771    3.4026 H   0  0  0  0  0  0  0  0  0  0  0  0
    8.7187   -4.0080    1.2237 H   0  0  0  0  0  0  0  0  0  0  0  0
    7.3474   -2.0744    1.8788 H   0  0  0  0  0  0  0  0  0  0  0  0
    4.2251    0.4171    2.4778 H   0  0  0  0  0  0  0  0  0  0  0  0
    5.1256    2.4513    3.5381 H   0  0  0  0  0  0  0  0  0  0  0  0
    4.8450    2.8352    6.5143 H   0  0  0  0  0  0  0  0  0  0  0  0
    6.0204    3.6119    7.6446 H   0  0  0  0  0  0  0  0  0  0  0  0
    5.9698    1.8128    7.5013 H   0  0  0  0  0  0  0  0  0  0  0  0
    7.7946    0.0429    5.9029 H   0  0  0  0  0  0  0  0  0  0  0  0
    6.8983   -1.9971    4.8533 H   0  0  0  0  0  0  0  0  0  0  0  0
   -1.0731   -4.2216    3.8210 H   0  0  0  0  0  0  0  0  0  0  0  0
   -1.9342   -6.3607    4.7001 H   0  0  0  0  0  0  0  0  0  0  0  0
   -5.3558   -7.5400    7.1717 H   0  0  0  0  0  0  0  0  0  0  0  0
   -4.7266   -6.7696    5.6654 H   0  0  0  0  0  0  0  0  0  0  0  0
   -4.9957   -5.7767    7.1549 H   0  0  0  0  0  0  0  0  0  0  0  0
   -2.5654   -4.5300    8.5423 H   0  0  0  0  0  0  0  0  0  0  0  0
   -1.7186   -2.3848    7.6609 H   0  0  0  0  0  0  0  0  0  0  0  0
   -0.2046    0.1652    3.4698 H   0  0  0  0  0  0  0  0  0  0  0  0
   -1.7001    1.3520    1.9601 H   0  0  0  0  0  0  0  0  0  0  0  0
   -4.6472   -1.0622    0.5035 H   0  0  0  0  0  0  0  0  0  0  0  0
   -3.2832   -0.0851   -0.2005 H   0  0  0  0  0  0  0  0  0  0  0  0
   -4.9880    0.2153   -0.7233 H   0  0  0  0  0  0  0  0  0  0  0  0
   -5.0528   -0.8670    3.4602 H   0  0  0  0  0  0  0  0  0  0  0  0
   -3.5815   -2.1053    4.9660 H   0  0  0  0  0  0  0  0  0  0  0  0
    1.3064   -1.6795    8.3757 H   0  0  0  0  0  0  0  0  0  0  0  0
   -2.8091    0.6453   10.9691 H   0  0  0  0  0  0  0  0  0  0  0  0
   -3.0366    2.5258    6.2285 H   0  0  0  0  0  0  0  0  0  0  0  0
   -5.0837    4.2346    8.4589 H   0  0  0  0  0  0  0  0  0  0  0  0
   -6.9228    3.0748    7.0650 H   0  0  0  0  0  0  0  0  0  0  0  0
   -6.4858    0.4653    6.9166 H   0  0  0  0  0  0  0  0  0  0  0  0
   -6.3786   -0.4813    9.3437 H   0  0  0  0  0  0  0  0  0  0  0  0
   -6.7401    1.5262   11.0403 H   0  0  0  0  0  0  0  0  0  0  0  0
   -8.3925    2.1963    9.0875 H   0  0  0  0  0  0  0  0  0  0  0  0
   -7.4672    3.6649    9.6228 H   0  0  0  0  0  0  0  0  0  0  0  0
   -4.9830    3.3773   10.6572 H   0  0  0  0  0  0  0  0  0  0  0  0
  1  2  2  3
  2  3  1  0
  3  4  2  0
  3  5  1  0
  5  6  2  0
  6  7  1  0
  7  8  2  0
  8  9  1  0
  9 10  2  0
 10 11  1  0
 11 12  2  3
 12 13  1  0
 13 14  3  0
 12 15  1  0
 15 16  3  0
  8 17  1  0
 17 18  1  0
 18 19  1  0
 19 20  2  0
 20 21  1  0
 21 22  1  0
 21 23  1  0
  1 24  1  0
 24 25  2  0
 25 26  1  0
 25 27  1  0
 27 28  1  0
 27 29  2  0
 29 30  1  0
 30 31  2  0
 31 32  1  0
 32 33  1  0
 33 34  1  0
 32 35  2  0
 35 36  1  0
 36 37  2  0
 35 38  1  0
 38 39  1  0
 29 40  1  0
 40 41  2  0
 41 42  1  0
 42 43  2  0
 43 44  1  0
 44 45  2  0
 45 46  1  0
 46 47  2  0
 47 48  1  0
 48 49  1  0
 49 50  1  0
 50 51  1  0
 48 52  2  0
 43 53  1  0
 53 54  2  0
 54 55  1  0
 55 56  1  0
 56 57  2  0
 57 58  1  0
 58 59  2  0
 59 60  1  0
 60 61  1  0
 61 62  1  0
 62 63  1  0
 60 64  2  0
 55 65  2  0
 65 66  1  0
 54 67  1  0
 67 68  2  0
 68 69  1  0
 68 70  1  0
 70 71  2  0
 71 72  1  0
 72 73  1  0
 73 74  2  0
 74 75  1  0
 75 76  2  0
 76 77  1  0
 77 78  1  0
 76 79  1  0
 79 80  2  0
 72 81  1  0
 81 82  2  0
 82 83  1  0
 83 84  2  0
 84 85  1  0
 85 86  1  0
 84 87  1  0
 87 88  2  0
 71 89  1  0
 89 90  1  0
 90 91  1  0
 91 92  2  0
 92 93  1  0
 93 94  1  0
 94 95  2  0
 95 96  1  0
 96 97  2  0
 97 98  1  0
 98 99  1  0
 97100  1  0
100101  2  0
 93102  1  0
102103  2  0
103104  1  0
104105  2  0
105106  1  0
106107  1  0
105108  1  0
108109  2  0
 92110  1  0
110111  1  0
 91112  1  0
112113  2  3
113114  1  0
114115  2  0
114116  1  0
116117  2  0
117118  1  0
118119  2  0
119120  1  0
120121  2  0
121122  1  0
122123  2  3
123124  1  0
124125  3  0
123126  1  0
126127  3  0
119128  1  0
128129  1  0
129130  1  0
130131  2  0
131132  1  0
132133  1  0
132134  1  0
 11  2  1  0
 23 17  1  0
 37 24  1  0
 66 40  1  0
111 70  1  0
122113  1  0
134128  1  0
 10  5  1  0
 22 18  1  0
 37 30  1  0
 65 42  1  0
 80 73  1  0
 88 81  1  0
110 89  2  0
121116  1  0
133129  1  0
 23  7  1  0
 52 44  1  0
 69 53  1  0
101 94  1  0
109102  1  0
134118  1  0
 64 56  1  0
  1135  1  0
  6136  1  0
  9137  1  0
 17138  1  0
 18139  1  0
 19140  1  0
 20141  1  0
 21142  1  0
 22143  1  0
 22144  1  0
 23145  1  0
 33146  1  0
 33147  1  0
 34148  1  0
 34149  1  0
 34150  1  0
 38151  1  0
 38152  1  0
 39153  1  0
 39154  1  0
 39155  1  0
 41156  1  0
 45157  1  0
 46158  1  0
 47159  1  0
 50160  1  0
 50161  1  0
 51162  1  0
 51163  1  0
 51164  1  0
 52165  1  0
 57166  1  0
 58167  1  0
 59168  1  0
 62169  1  0
 62170  1  0
 63171  1  0
 63172  1  0
 63173  1  0
 64174  1  0
 67175  1  0
 74176  1  0
 75177  1  0
 78178  1  0
 78179  1  0
 78180  1  0
 79181  1  0
 80182  1  0
 82183  1  0
 83184  1  0
 86185  1  0
 86186  1  0
 86187  1  0
 87188  1  0
 88189  1  0
 95190  1  0
 96191  1  0
 99192  1  0
 99193  1  0
 99194  1  0
100195  1  0
101196  1  0
103197  1  0
104198  1  0
107199  1  0
107200  1  0
107201  1  0
108202  1  0
109203  1  0
112204  1  0
117205  1  0
120206  1  0
128207  1  0
129208  1  0
130209  1  0
131210  1  0
132211  1  0
133212  1  0
133213  1  0
134214  1  0
M  END

