
     RDKit          3D

262286  0  0  0  0  0  0  0  0999 V2000
    0.6327   -4.1559   -3.8619 C   0  0  0  0  0  0  0  0  0  0  0  0
   -0.3414   -5.0515   -4.0419 C   0  0  0  0  0  0  0  0  0  0  0  0
   -0.2110   -6.4698   -3.7279 C   0  0  0  0  0  0  0  0  0  0  0  0
    0.8265   -7.0397   -3.2910 O   0  0  0  0  0  0  0  0  0  0  0  0
   -1.4041   -7.1502   -4.1671 C   0  0  0  0  0  0  0  0  0  0  0  0
   -1.7059   -8.5255   -4.0026 C   0  0  0  0  0  0  0  0  0  0  0  0
   -2.9514   -8.8836   -4.4809 C   0  0  0  0  0  0  0  0  0  0  0  0
   -3.8479   -7.9555   -5.0981 C   0  0  0  0  0  0  0  0  0  0  0  0
   -3.5572   -6.6123   -5.2715 C   0  0  0  0  0  0  0  0  0  0  0  0
   -2.2810   -6.2142   -4.7773 C   0  0  0  0  0  0  0  0  0  0  0  0
   -1.6595   -4.8545   -4.7184 C   0  0  0  0  0  0  0  0  0  0  0  0
   -2.2566   -3.6651   -5.0120 C   0  0  0  0  0  0  0  0  0  0  0  0
   -1.6811   -2.3984   -4.6519 C   0  0  0  0  0  0  0  0  0  0  0  0
   -1.2300   -1.3737   -4.3589 N   0  0  0  0  0  0  0  0  0  0  0  0
   -3.5608   -3.5579   -5.6122 C   0  0  0  0  0  0  0  0  0  0  0  0
   -4.6060   -3.4428   -6.0949 N   0  0  0  0  0  0  0  0  0  0  0  0
   -4.8685   -9.0406   -5.2862 C   0  0  0  0  0  0  0  0  0  0  0  0
   -6.0915   -9.0085   -4.3294 C   0  0  0  0  0  0  0  0  0  0  0  0
   -6.7297  -10.3724   -4.4223 C   0  0  0  0  0  0  0  0  0  0  0  0
   -5.8908  -11.2285   -3.8272 C   0  0  0  0  0  0  0  0  0  0  0  0
   -4.7132  -10.4124   -3.3550 C   0  0  0  0  0  0  0  0  0  0  0  0
   -5.4530   -9.1439   -2.9561 C   0  0  0  0  0  0  0  0  0  0  0  0
   -3.9507   -9.9858   -4.6417 C   0  0  0  0  0  0  0  0  0  0  0  0
    1.5227   -4.1504   -2.6874 C   0  0  0  0  0  0  0  0  0  0  0  0
    1.0344   -3.8084   -1.4058 C   0  0  0  0  0  0  0  0  0  0  0  0
   -0.2610   -4.1861   -0.8964 N   0  0  0  0  0  0  0  0  0  0  0  0
   -1.0931   -3.2392   -0.2053 C   0  0  0  0  0  0  0  0  0  0  0  0
   -1.0438   -3.1603    1.1969 C   0  0  0  0  0  0  0  0  0  0  0  0
   -1.9397   -2.3393    1.8842 C   0  0  0  0  0  0  0  0  0  0  0  0
   -2.9423   -1.6570    1.1870 C   0  0  0  0  0  0  0  0  0  0  0  0
   -4.1309   -0.6616    2.0863 S   0  0  0  0  0  0  0  0  0  0  0  0
   -5.2348   -2.0681    2.4178 C   0  0  0  0  0  0  0  0  0  0  0  0
   -3.0171   -1.7608   -0.2095 C   0  0  0  0  0  0  0  0  0  0  0  0
   -2.0822   -2.5358   -0.9048 C   0  0  0  0  0  0  0  0  0  0  0  0
   -0.6051   -5.5816   -0.7473 C   0  0  0  0  0  0  0  0  0  0  0  0
   -1.9456   -5.9950   -0.8871 C   0  0  0  0  0  0  0  0  0  0  0  0
   -2.2989   -7.3343   -0.7038 C   0  0  0  0  0  0  0  0  0  0  0  0
   -1.3207   -8.2805   -0.3872 C   0  0  0  0  0  0  0  0  0  0  0  0
   -1.7850   -9.9984   -0.1674 S   0  0  0  0  0  0  0  0  0  0  0  0
   -1.9120   -9.8609    1.6430 C   0  0  0  0  0  0  0  0  0  0  0  0
    0.0147   -7.8861   -0.2504 C   0  0  0  0  0  0  0  0  0  0  0  0
    0.3712   -6.5421   -0.4150 C   0  0  0  0  0  0  0  0  0  0  0  0
    1.9672   -3.0497   -0.6981 C   0  0  0  0  0  0  0  0  0  0  0  0
    1.8520   -2.0060    0.5993 S   0  0  0  0  0  0  0  0  0  0  0  0
    3.4062   -1.3454    0.4147 C   0  0  0  0  0  0  0  0  0  0  0  0
    4.0075   -1.9192   -0.7110 C   0  0  0  0  0  0  0  0  0  0  0  0
    5.4086   -1.8323   -0.9869 N   0  0  0  0  0  0  0  0  0  0  0  0
    6.2436   -2.8244   -0.3607 C   0  0  0  0  0  0  0  0  0  0  0  0
    6.9518   -3.7456   -1.1484 C   0  0  0  0  0  0  0  0  0  0  0  0
    7.6657   -4.7856   -0.5426 C   0  0  0  0  0  0  0  0  0  0  0  0
    7.6836   -4.9066    0.8548 C   0  0  0  0  0  0  0  0  0  0  0  0
    8.6039   -6.2360    1.6294 S   0  0  0  0  0  0  0  0  0  0  0  0
    7.2038   -7.4069    1.5954 C   0  0  0  0  0  0  0  0  0  0  0  0
    6.9952   -3.9774    1.6459 C   0  0  0  0  0  0  0  0  0  0  0  0
    6.2763   -2.9416    1.0396 C   0  0  0  0  0  0  0  0  0  0  0  0
    5.9410   -0.9083   -1.9642 C   0  0  0  0  0  0  0  0  0  0  0  0
    7.2888   -0.5045   -1.8955 C   0  0  0  0  0  0  0  0  0  0  0  0
    7.8229    0.3593   -2.8548 C   0  0  0  0  0  0  0  0  0  0  0  0
    7.0192    0.8286   -3.9011 C   0  0  0  0  0  0  0  0  0  0  0  0
    7.7138    1.9123   -5.1493 S   0  0  0  0  0  0  0  0  0  0  0  0
    8.2741    0.5348   -6.2025 C   0  0  0  0  0  0  0  0  0  0  0  0
    5.6706    0.4601   -3.9621 C   0  0  0  0  0  0  0  0  0  0  0  0
    5.1311   -0.3969   -2.9978 C   0  0  0  0  0  0  0  0  0  0  0  0
    3.1709   -2.8681   -1.3006 C   0  0  0  0  0  0  0  0  0  0  0  0
    3.1194   -3.5567   -2.8263 S   0  0  0  0  0  0  0  0  0  0  0  0
    3.7432   -0.0422    1.0009 C   0  0  0  0  0  0  0  0  0  0  0  0
    3.3057    0.2766    2.2930 C   0  0  0  0  0  0  0  0  0  0  0  0
    3.7837   -0.4279    3.4486 N   0  0  0  0  0  0  0  0  0  0  0  0
    2.9090   -1.3596    4.1008 C   0  0  0  0  0  0  0  0  0  0  0  0
    2.8491   -2.6930    3.6669 C   0  0  0  0  0  0  0  0  0  0  0  0
    2.0385   -3.6142    4.3320 C   0  0  0  0  0  0  0  0  0  0  0  0
    1.3011   -3.2168    5.4532 C   0  0  0  0  0  0  0  0  0  0  0  0
    0.3307   -4.4295    6.3549 S   0  0  0  0  0  0  0  0  0  0  0  0
   -1.1726   -4.1775    5.3623 C   0  0  0  0  0  0  0  0  0  0  0  0
    1.3683   -1.8909    5.9015 C   0  0  0  0  0  0  0  0  0  0  0  0
    2.1721   -0.9635    5.2286 C   0  0  0  0  0  0  0  0  0  0  0  0
    5.1457   -0.2108    3.9095 C   0  0  0  0  0  0  0  0  0  0  0  0
    5.7495   -1.0962    4.8306 C   0  0  0  0  0  0  0  0  0  0  0  0
    7.0803   -0.9122    5.2229 C   0  0  0  0  0  0  0  0  0  0  0  0
    7.8259    0.1538    4.7094 C   0  0  0  0  0  0  0  0  0  0  0  0
    9.5440    0.3638    5.1674 S   0  0  0  0  0  0  0  0  0  0  0  0
   10.1516   -0.6667    3.7946 C   0  0  0  0  0  0  0  0  0  0  0  0
    7.2332    1.0513    3.8225 C   0  0  0  0  0  0  0  0  0  0  0  0
    5.9094    0.8719    3.4235 C   0  0  0  0  0  0  0  0  0  0  0  0
    2.8402    1.5851    2.3668 C   0  0  0  0  0  0  0  0  0  0  0  0
    1.7473    2.3090    3.3961 S   0  0  0  0  0  0  0  0  0  0  0  0
    1.3733    3.6119    2.3540 C   0  0  0  0  0  0  0  0  0  0  0  0
    2.2077    3.5072    1.2217 C   0  0  0  0  0  0  0  0  0  0  0  0
    2.3437    4.5431    0.2289 N   0  0  0  0  0  0  0  0  0  0  0  0
    2.5776    4.1981   -1.1474 C   0  0  0  0  0  0  0  0  0  0  0  0
    3.7244    4.6733   -1.8031 C   0  0  0  0  0  0  0  0  0  0  0  0
    3.9408    4.3722   -3.1491 C   0  0  0  0  0  0  0  0  0  0  0  0
    3.0070    3.6007   -3.8515 C   0  0  0  0  0  0  0  0  0  0  0  0
    3.2123    3.3329   -5.6109 S   0  0  0  0  0  0  0  0  0  0  0  0
    2.3582    4.8891   -6.0422 C   0  0  0  0  0  0  0  0  0  0  0  0
    1.8808    3.0926   -3.1933 C   0  0  0  0  0  0  0  0  0  0  0  0
    1.6647    3.3886   -1.8457 C   0  0  0  0  0  0  0  0  0  0  0  0
    2.3353    5.9352    0.6345 C   0  0  0  0  0  0  0  0  0  0  0  0
    1.7570    6.9132   -0.1988 C   0  0  0  0  0  0  0  0  0  0  0  0
    1.6532    8.2403    0.2339 C   0  0  0  0  0  0  0  0  0  0  0  0
    2.1217    8.6024    1.5013 C   0  0  0  0  0  0  0  0  0  0  0  0
    1.9407   10.2931    2.0827 S   0  0  0  0  0  0  0  0  0  0  0  0
    3.5780   10.8043    1.4776 C   0  0  0  0  0  0  0  0  0  0  0  0
    2.7114    7.6460    2.3301 C   0  0  0  0  0  0  0  0  0  0  0  0
    2.8326    6.3249    1.8952 C   0  0  0  0  0  0  0  0  0  0  0  0
    2.9472    2.3203    1.2348 C   0  0  0  0  0  0  0  0  0  0  0  0
    3.5957    1.3536    0.0320 S   0  0  0  0  0  0  0  0  0  0  0  0
    0.0204    4.2256    2.3061 C   0  0  0  0  0  0  0  0  0  0  0  0
   -1.0153    3.8933    3.1982 C   0  0  0  0  0  0  0  0  0  0  0  0
   -0.8106    3.6181    4.5984 N   0  0  0  0  0  0  0  0  0  0  0  0
    0.0132    4.5059    5.3906 C   0  0  0  0  0  0  0  0  0  0  0  0
    0.7805    4.0028    6.4598 C   0  0  0  0  0  0  0  0  0  0  0  0
    1.5918    4.8567    7.2112 C   0  0  0  0  0  0  0  0  0  0  0  0
    1.6436    6.2217    6.9105 C   0  0  0  0  0  0  0  0  0  0  0  0
    2.6852    7.3152    7.8799 S   0  0  0  0  0  0  0  0  0  0  0  0
    4.1236    7.1190    6.7789 C   0  0  0  0  0  0  0  0  0  0  0  0
    0.8790    6.7344    5.8564 C   0  0  0  0  0  0  0  0  0  0  0  0
    0.0673    5.8831    5.1025 C   0  0  0  0  0  0  0  0  0  0  0  0
   -1.5398    2.5616    5.2490 C   0  0  0  0  0  0  0  0  0  0  0  0
   -1.3019    1.2180    4.9076 C   0  0  0  0  0  0  0  0  0  0  0  0
   -1.9476    0.1948    5.6035 C   0  0  0  0  0  0  0  0  0  0  0  0
   -2.8590    0.4993    6.6223 C   0  0  0  0  0  0  0  0  0  0  0  0
   -3.6802   -0.8195    7.5174 S   0  0  0  0  0  0  0  0  0  0  0  0
   -4.9832   -1.0210    6.2638 C   0  0  0  0  0  0  0  0  0  0  0  0
   -3.1237    1.8399    6.9418 C   0  0  0  0  0  0  0  0  0  0  0  0
   -2.4559    2.8647    6.2665 C   0  0  0  0  0  0  0  0  0  0  0  0
   -2.2712    3.9453    2.5819 C   0  0  0  0  0  0  0  0  0  0  0  0
   -3.6250    2.9917    2.8277 S   0  0  0  0  0  0  0  0  0  0  0  0
   -4.2270    3.1905    1.2540 C   0  0  0  0  0  0  0  0  0  0  0  0
   -3.4081    4.0689    0.5293 C   0  0  0  0  0  0  0  0  0  0  0  0
   -3.9198    4.8750   -0.5524 N   0  0  0  0  0  0  0  0  0  0  0  0
   -4.9833    5.7946   -0.2519 C   0  0  0  0  0  0  0  0  0  0  0  0
   -4.7234    6.9185    0.5476 C   0  0  0  0  0  0  0  0  0  0  0  0
   -5.7592    7.7909    0.8906 C   0  0  0  0  0  0  0  0  0  0  0  0
   -7.0627    7.5486    0.4400 C   0  0  0  0  0  0  0  0  0  0  0  0
   -8.3874    8.6773    0.8798 S   0  0  0  0  0  0  0  0  0  0  0  0
   -8.8438    7.7470    2.3746 C   0  0  0  0  0  0  0  0  0  0  0  0
   -7.3256    6.4316   -0.3657 C   0  0  0  0  0  0  0  0  0  0  0  0
   -6.2924    5.5522   -0.7027 C   0  0  0  0  0  0  0  0  0  0  0  0
   -3.3196    4.9139   -1.8612 C   0  0  0  0  0  0  0  0  0  0  0  0
   -2.0956    5.5706   -2.0686 C   0  0  0  0  0  0  0  0  0  0  0  0
   -1.5344    5.6325   -3.3465 C   0  0  0  0  0  0  0  0  0  0  0  0
   -2.2201    5.1024   -4.4435 C   0  0  0  0  0  0  0  0  0  0  0  0
   -1.5252    5.2401   -6.0892 S   0  0  0  0  0  0  0  0  0  0  0  0
   -2.1088    6.9494   -6.3122 C   0  0  0  0  0  0  0  0  0  0  0  0
   -3.4692    4.5005   -4.2580 C   0  0  0  0  0  0  0  0  0  0  0  0
   -4.0154    4.4102   -2.9743 C   0  0  0  0  0  0  0  0  0  0  0  0
   -2.2927    4.4280    1.3001 C   0  0  0  0  0  0  0  0  0  0  0  0
   -0.7103    4.6645    0.8334 S   0  0  0  0  0  0  0  0  0  0  0  0
   -5.3476    2.3946    0.7396 C   0  0  0  0  0  0  0  0  0  0  0  0
   -5.3547    1.6896   -0.4108 C   0  0  0  0  0  0  0  0  0  0  0  0
   -6.6114    1.1532   -0.9621 C   0  0  0  0  0  0  0  0  0  0  0  0
   -7.6832    0.9552   -0.3360 O   0  0  0  0  0  0  0  0  0  0  0  0
   -6.3783    0.8809   -2.3565 C   0  0  0  0  0  0  0  0  0  0  0  0
   -7.2529    0.2320   -3.6281 S   0  0  0  0  0  0  0  0  0  0  0  0
   -5.9175    0.2604   -4.6790 C   0  0  0  0  0  0  0  0  0  0  0  0
   -4.7904    0.7570   -4.0134 C   0  0  0  0  0  0  0  0  0  0  0  0
   -5.0915    1.1212   -2.6938 C   0  0  0  0  0  0  0  0  0  0  0  0
   -4.3145    1.5558   -1.5001 C   0  0  0  0  0  0  0  0  0  0  0  0
   -2.9636    1.5431   -1.4222 C   0  0  0  0  0  0  0  0  0  0  0  0
   -2.1403    1.5778   -2.6062 C   0  0  0  0  0  0  0  0  0  0  0  0
   -1.4815    1.6217   -3.5531 N   0  0  0  0  0  0  0  0  0  0  0  0
   -2.2436    1.3886   -0.1881 C   0  0  0  0  0  0  0  0  0  0  0  0
   -1.6329    1.2460    0.7873 N   0  0  0  0  0  0  0  0  0  0  0  0
    0.6423   -3.2492   -4.4420 H   0  0  0  0  0  0  0  0  0  0  0  0
   -1.0357   -9.2286   -3.5240 H   0  0  0  0  0  0  0  0  0  0  0  0
   -4.2787   -5.9600   -5.7323 H   0  0  0  0  0  0  0  0  0  0  0  0
   -5.0906   -9.2706   -6.3522 H   0  0  0  0  0  0  0  0  0  0  0  0
   -6.7878   -8.1540   -4.4658 H   0  0  0  0  0  0  0  0  0  0  0  0
   -7.7113  -10.6128   -4.8089 H   0  0  0  0  0  0  0  0  0  0  0  0
   -6.0701  -12.2866   -3.6585 H   0  0  0  0  0  0  0  0  0  0  0  0
   -4.0968  -10.8857   -2.5620 H   0  0  0  0  0  0  0  0  0  0  0  0
   -4.7929   -8.2933   -2.6744 H   0  0  0  0  0  0  0  0  0  0  0  0
   -6.2003   -9.3032   -2.1412 H   0  0  0  0  0  0  0  0  0  0  0  0
   -3.5988  -10.8167   -5.2951 H   0  0  0  0  0  0  0  0  0  0  0  0
   -0.3087   -3.7348    1.7491 H   0  0  0  0  0  0  0  0  0  0  0  0
   -1.8774   -2.2627    2.9616 H   0  0  0  0  0  0  0  0  0  0  0  0
   -4.6843   -2.8660    2.9619 H   0  0  0  0  0  0  0  0  0  0  0  0
   -5.6375   -2.4691    1.4632 H   0  0  0  0  0  0  0  0  0  0  0  0
   -6.0781   -1.7250    3.0511 H   0  0  0  0  0  0  0  0  0  0  0  0
   -3.8051   -1.2556   -0.7521 H   0  0  0  0  0  0  0  0  0  0  0  0
   -2.1687   -2.6414   -1.9780 H   0  0  0  0  0  0  0  0  0  0  0  0
   -2.7114   -5.2788   -1.1564 H   0  0  0  0  0  0  0  0  0  0  0  0
   -3.3327   -7.6391   -0.8095 H   0  0  0  0  0  0  0  0  0  0  0  0
   -2.5156   -8.9778    1.9395 H   0  0  0  0  0  0  0  0  0  0  0  0
   -0.8893   -9.7752    2.0672 H   0  0  0  0  0  0  0  0  0  0  0  0
   -2.3926  -10.7768    2.0443 H   0  0  0  0  0  0  0  0  0  0  0  0
    0.7744   -8.6185   -0.0018 H   0  0  0  0  0  0  0  0  0  0  0  0
    1.4073   -6.2576   -0.2917 H   0  0  0  0  0  0  0  0  0  0  0  0
    6.9169   -3.6768   -2.2291 H   0  0  0  0  0  0  0  0  0  0  0  0
    8.1987   -5.5020   -1.1598 H   0  0  0  0  0  0  0  0  0  0  0  0
    7.5264   -8.3746    2.0333 H   0  0  0  0  0  0  0  0  0  0  0  0
    6.8732   -7.5776    0.5446 H   0  0  0  0  0  0  0  0  0  0  0  0
    6.3566   -7.0094    2.1930 H   0  0  0  0  0  0  0  0  0  0  0  0
    7.0189   -4.0557    2.7260 H   0  0  0  0  0  0  0  0  0  0  0  0
    5.7401   -2.2366    1.6625 H   0  0  0  0  0  0  0  0  0  0  0  0
    7.9284   -0.8520   -1.0929 H   0  0  0  0  0  0  0  0  0  0  0  0
    8.8653    0.6459   -2.7981 H   0  0  0  0  0  0  0  0  0  0  0  0
    8.9833   -0.1140   -5.6477 H   0  0  0  0  0  0  0  0  0  0  0  0
    7.4031   -0.0680   -6.5341 H   0  0  0  0  0  0  0  0  0  0  0  0
    8.7884    0.9444   -7.0961 H   0  0  0  0  0  0  0  0  0  0  0  0
    5.0427    0.8296   -4.7631 H   0  0  0  0  0  0  0  0  0  0  0  0
    4.0856   -0.6631   -3.0655 H   0  0  0  0  0  0  0  0  0  0  0  0
    3.4500   -3.0169    2.8279 H   0  0  0  0  0  0  0  0  0  0  0  0
    1.9920   -4.6368    3.9826 H   0  0  0  0  0  0  0  0  0  0  0  0
   -1.9212   -4.9489    5.6338 H   0  0  0  0  0  0  0  0  0  0  0  0
   -1.5947   -3.1784    5.5823 H   0  0  0  0  0  0  0  0  0  0  0  0
   -0.9449   -4.2552    4.2807 H   0  0  0  0  0  0  0  0  0  0  0  0
    0.8140   -1.5804    6.7766 H   0  0  0  0  0  0  0  0  0  0  0  0
    2.2372    0.0534    5.5910 H   0  0  0  0  0  0  0  0  0  0  0  0
    5.2032   -1.9403    5.2331 H   0  0  0  0  0  0  0  0  0  0  0  0
    7.5384   -1.6092    5.9125 H   0  0  0  0  0  0  0  0  0  0  0  0
    9.7961   -1.7086    3.9167 H   0  0  0  0  0  0  0  0  0  0  0  0
   11.2603   -0.6572    3.7952 H   0  0  0  0  0  0  0  0  0  0  0  0
    9.7953   -0.2561    2.8217 H   0  0  0  0  0  0  0  0  0  0  0  0
    7.8025    1.8833    3.4277 H   0  0  0  0  0  0  0  0  0  0  0  0
    5.4977    1.5834    2.7233 H   0  0  0  0  0  0  0  0  0  0  0  0
    4.4421    5.2883   -1.2701 H   0  0  0  0  0  0  0  0  0  0  0  0
    4.8142    4.7673   -3.6561 H   0  0  0  0  0  0  0  0  0  0  0  0
    2.9646    5.7619   -5.7248 H   0  0  0  0  0  0  0  0  0  0  0  0
    1.3696    4.9347   -5.5447 H   0  0  0  0  0  0  0  0  0  0  0  0
    2.2132    4.9377   -7.1419 H   0  0  0  0  0  0  0  0  0  0  0  0
    1.1588    2.4981   -3.7375 H   0  0  0  0  0  0  0  0  0  0  0  0
    0.7761    3.0121   -1.3501 H   0  0  0  0  0  0  0  0  0  0  0  0
    1.3566    6.6384   -1.1666 H   0  0  0  0  0  0  0  0  0  0  0  0
    1.1930    8.9814   -0.4098 H   0  0  0  0  0  0  0  0  0  0  0  0
    4.3683   10.2210    1.9964 H   0  0  0  0  0  0  0  0  0  0  0  0
    3.6456   10.6581    0.3774 H   0  0  0  0  0  0  0  0  0  0  0  0
    3.7260   11.8808    1.6988 H   0  0  0  0  0  0  0  0  0  0  0  0
    3.0729    7.9249    3.3128 H   0  0  0  0  0  0  0  0  0  0  0  0
    3.3082    5.6037    2.5482 H   0  0  0  0  0  0  0  0  0  0  0  0
    0.7657    2.9449    6.6954 H   0  0  0  0  0  0  0  0  0  0  0  0
    2.1885    4.4558    8.0218 H   0  0  0  0  0  0  0  0  0  0  0  0
    3.8875    7.5309    5.7754 H   0  0  0  0  0  0  0  0  0  0  0  0
    4.9862    7.6745    7.2035 H   0  0  0  0  0  0  0  0  0  0  0  0
    4.3960    6.0464    6.6893 H   0  0  0  0  0  0  0  0  0  0  0  0
    0.9173    7.7907    5.6152 H   0  0  0  0  0  0  0  0  0  0  0  0
   -0.5219    6.3037    4.2977 H   0  0  0  0  0  0  0  0  0  0  0  0
   -0.6129    0.9642    4.1149 H   0  0  0  0  0  0  0  0  0  0  0  0
   -1.7314   -0.8370    5.3561 H   0  0  0  0  0  0  0  0  0  0  0  0
   -4.5304   -1.3302    5.2994 H   0  0  0  0  0  0  0  0  0  0  0  0
   -5.6862   -1.8130    6.5977 H   0  0  0  0  0  0  0  0  0  0  0  0
   -5.5442   -0.0702    6.1360 H   0  0  0  0  0  0  0  0  0  0  0  0
   -3.8308    2.0846    7.7256 H   0  0  0  0  0  0  0  0  0  0  0  0
   -2.6608    3.8985    6.5214 H   0  0  0  0  0  0  0  0  0  0  0  0
   -3.7181    7.1083    0.9023 H   0  0  0  0  0  0  0  0  0  0  0  0
   -5.5457    8.6511    1.5148 H   0  0  0  0  0  0  0  0  0  0  0  0
   -9.1273    6.7069    2.1093 H   0  0  0  0  0  0  0  0  0  0  0  0
   -7.9920    7.7254    3.0875 H   0  0  0  0  0  0  0  0  0  0  0  0
   -9.7056    8.2455    2.8579 H   0  0  0  0  0  0  0  0  0  0  0  0
   -8.3319    6.2358   -0.7144 H   0  0  0  0  0  0  0  0  0  0  0  0
   -6.5174    4.6706   -1.2911 H   0  0  0  0  0  0  0  0  0  0  0  0
   -1.6049    6.0826   -1.2593 H   0  0  0  0  0  0  0  0  0  0  0  0
   -0.5836    6.1298   -3.4879 H   0  0  0  0  0  0  0  0  0  0  0  0
   -1.6279    7.6062   -5.5600 H   0  0  0  0  0  0  0  0  0  0  0  0
   -1.8313    7.3056   -7.3258 H   0  0  0  0  0  0  0  0  0  0  0  0
   -3.2094    7.0058   -6.1982 H   0  0  0  0  0  0  0  0  0  0  0  0
   -4.0132    4.0991   -5.1023 H   0  0  0  0  0  0  0  0  0  0  0  0
   -4.9839    3.9472   -2.8535 H   0  0  0  0  0  0  0  0  0  0  0  0
   -6.2211    2.3483    1.3754 H   0  0  0  0  0  0  0  0  0  0  0  0
   -5.9256   -0.0854   -5.7034 H   0  0  0  0  0  0  0  0  0  0  0  0
   -3.8192    0.8110   -4.4758 H   0  0  0  0  0  0  0  0  0  0  0  0
  1  2  2  3
  2  3  1  0
  3  4  2  0
  3  5  1  0
  5  6  2  0
  6  7  1  0
  7  8  2  0
  8  9  1  0
  9 10  2  0
 10 11  1  0
 11 12  2  3
 12 13  1  0
 13 14  3  0
 12 15  1  0
 15 16  3  0
  8 17  1  0
 17 18  1  0
 18 19  1  0
 19 20  2  0
 20 21  1  0
 21 22  1  0
 21 23  1  0
  1 24  1  0
 24 25  2  0
 25 26  1  0
 26 27  1  0
 27 28  2  0
 28 29  1  0
 29 30  2  0
 30 31  1  0
 31 32  1  0
 30 33  1  0
 33 34  2  0
 26 35  1  0
 35 36  2  0
 36 37  1  0
 37 38  2  0
 38 39  1  0
 39 40  1  0
 38 41  1  0
 41 42  2  0
 25 43  1  0
 43 44  1  0
 44 45  1  0
 45 46  2  0
 46 47  1  0
 47 48  1  0
 48 49  2  0
 49 50  1  0
 50 51  2  0
 51 52  1  0
 52 53  1  0
 51 54  1  0
 54 55  2  0
 47 56  1  0
 56 57  2  0
 57 58  1  0
 58 59  2  0
 59 60  1  0
 60 61  1  0
 59 62  1  0
 62 63  2  0
 46 64  1  0
 64 65  1  0
 45 66  1  0
 66 67  2  0
 67 68  1  0
 68 69  1  0
 69 70  2  0
 70 71  1  0
 71 72  2  0
 72 73  1  0
 73 74  1  0
 72 75  1  0
 75 76  2  0
 68 77  1  0
 77 78  2  0
 78 79  1  0
 79 80  2  0
 80 81  1  0
 81 82  1  0
 80 83  1  0
 83 84  2  0
 67 85  1  0
 85 86  1  0
 86 87  1  0
 87 88  2  0
 88 89  1  0
 89 90  1  0
 90 91  2  0
 91 92  1  0
 92 93  2  0
 93 94  1  0
 94 95  1  0
 93 96  1  0
 96 97  2  0
 89 98  1  0
 98 99  2  0
 99100  1  0
100101  2  0
101102  1  0
102103  1  0
101104  1  0
104105  2  0
 88106  1  0
106107  1  0
 87108  1  0
108109  2  0
109110  1  0
110111  1  0
111112  2  0
112113  1  0
113114  2  0
114115  1  0
115116  1  0
114117  1  0
117118  2  0
110119  1  0
119120  2  0
120121  1  0
121122  2  0
122123  1  0
123124  1  0
122125  1  0
125126  2  0
109127  1  0
127128  1  0
128129  1  0
129130  2  0
130131  1  0
131132  1  0
132133  2  0
133134  1  0
134135  2  0
135136  1  0
136137  1  0
135138  1  0
138139  2  0
131140  1  0
140141  2  0
141142  1  0
142143  2  0
143144  1  0
144145  1  0
143146  1  0
146147  2  0
130148  1  0
148149  1  0
129150  1  0
150151  2  3
151152  1  0
152153  2  0
152154  1  0
154155  1  0
155156  1  0
156157  2  0
157158  1  0
158159  1  0
159160  2  3
160161  1  0
161162  3  0
160163  1  0
163164  3  0
 11  2  1  0
 23 17  1  0
 65 24  1  0
107 66  1  0
149108  1  0
159151  1  0
 10  5  1  0
 22 18  1  0
 34 27  1  0
 42 35  1  0
 64 43  2  0
 76 69  1  0
 84 77  1  0
106 85  2  0
118111  1  0
126119  1  0
148127  2  0
158154  2  0
 23  7  1  0
 55 48  1  0
 63 56  1  0
 97 90  1  0
105 98  1  0
139132  1  0
147140  1  0
  1165  1  0
  6166  1  0
  9167  1  0
 17168  1  0
 18169  1  0
 19170  1  0
 20171  1  0
 21172  1  0
 22173  1  0
 22174  1  0
 23175  1  0
 28176  1  0
 29177  1  0
 32178  1  0
 32179  1  0
 32180  1  0
 33181  1  0
 34182  1  0
 36183  1  0
 37184  1  0
 40185  1  0
 40186  1  0
 40187  1  0
 41188  1  0
 42189  1  0
 49190  1  0
 50191  1  0
 53192  1  0
 53193  1  0
 53194  1  0
 54195  1  0
 55196  1  0
 57197  1  0
 58198  1  0
 61199  1  0
 61200  1  0
 61201  1  0
 62202  1  0
 63203  1  0
 70204  1  0
 71205  1  0
 74206  1  0
 74207  1  0
 74208  1  0
 75209  1  0
 76210  1  0
 78211  1  0
 79212  1  0
 82213  1  0
 82214  1  0
 82215  1  0
 83216  1  0
 84217  1  0
 91218  1  0
 92219  1  0
 95220  1  0
 95221  1  0
 95222  1  0
 96223  1  0
 97224  1  0
 99225  1  0
100226  1  0
103227  1  0
103228  1  0
103229  1  0
104230  1  0
105231  1  0
112232  1  0
113233  1  0
116234  1  0
116235  1  0
116236  1  0
117237  1  0
118238  1  0
120239  1  0
121240  1  0
124241  1  0
124242  1  0
124243  1  0
125244  1  0
126245  1  0
133246  1  0
134247  1  0
137248  1  0
137249  1  0
137250  1  0
138251  1  0
139252  1  0
141253  1  0
142254  1  0
145255  1  0
145256  1  0
145257  1  0
146258  1  0
147259  1  0
150260  1  0
156261  1  0
157262  1  0
M  END

