
     RDKit          3D

241265  0  0  0  0  0  0  0  0999 V2000
   -3.2984    0.3147   -5.2296 C   0  0  0  0  0  0  0  0  0  0  0  0
   -3.8392   -0.7897   -5.7924 C   0  0  0  0  0  0  0  0  0  0  0  0
   -3.8840   -2.1211   -5.1608 C   0  0  0  0  0  0  0  0  0  0  0  0
   -3.6405   -2.3903   -3.9553 O   0  0  0  0  0  0  0  0  0  0  0  0
   -4.2396   -3.1050   -6.1488 C   0  0  0  0  0  0  0  0  0  0  0  0
   -4.3296   -4.4975   -5.9415 C   0  0  0  0  0  0  0  0  0  0  0  0
   -4.6513   -5.2098   -7.0768 C   0  0  0  0  0  0  0  0  0  0  0  0
   -4.8539   -4.5960   -8.3550 C   0  0  0  0  0  0  0  0  0  0  0  0
   -4.7555   -3.2289   -8.5637 C   0  0  0  0  0  0  0  0  0  0  0  0
   -4.4571   -2.4641   -7.3930 C   0  0  0  0  0  0  0  0  0  0  0  0
   -4.2838   -0.9840   -7.2187 C   0  0  0  0  0  0  0  0  0  0  0  0
   -4.5874   -0.0195   -8.1258 C   0  0  0  0  0  0  0  0  0  0  0  0
   -4.9990   -0.3144   -9.4730 C   0  0  0  0  0  0  0  0  0  0  0  0
   -5.3199   -0.5353  -10.5668 N   0  0  0  0  0  0  0  0  0  0  0  0
   -4.5446    1.3853   -7.8215 C   0  0  0  0  0  0  0  0  0  0  0  0
   -4.5175    2.5172   -7.5831 N   0  0  0  0  0  0  0  0  0  0  0  0
   -5.1008   -5.9342   -8.9782 C   0  0  0  0  0  0  0  0  0  0  0  0
   -3.9542   -6.5262   -9.8485 C   0  0  0  0  0  0  0  0  0  0  0  0
   -4.2779   -7.9901  -10.0161 C   0  0  0  0  0  0  0  0  0  0  0  0
   -4.0902   -8.5616   -8.8207 C   0  0  0  0  0  0  0  0  0  0  0  0
   -3.6494   -7.4628   -7.8861 C   0  0  0  0  0  0  0  0  0  0  0  0
   -2.8056   -6.6565   -8.8610 C   0  0  0  0  0  0  0  0  0  0  0  0
   -4.8990   -6.5616   -7.6693 C   0  0  0  0  0  0  0  0  0  0  0  0
   -2.6096    0.2532   -3.9365 C   0  0  0  0  0  0  0  0  0  0  0  0
   -1.2864   -0.1859   -3.8156 C   0  0  0  0  0  0  0  0  0  0  0  0
   -0.2901    0.0377   -4.8244 N   0  0  0  0  0  0  0  0  0  0  0  0
   -0.0889    1.3919   -5.2688 C   0  0  0  0  0  0  0  0  0  0  0  0
    0.1964    2.4003   -4.3329 C   0  0  0  0  0  0  0  0  0  0  0  0
    0.4258    3.7128   -4.7577 C   0  0  0  0  0  0  0  0  0  0  0  0
    0.3569    4.0343   -6.1165 C   0  0  0  0  0  0  0  0  0  0  0  0
    0.7369    5.7044   -6.6632 S   0  0  0  0  0  0  0  0  0  0  0  0
   -0.9783    6.2912   -6.5294 C   0  0  0  0  0  0  0  0  0  0  0  0
    0.0424    3.0398   -7.0507 C   0  0  0  0  0  0  0  0  0  0  0  0
   -0.1800    1.7207   -6.6281 C   0  0  0  0  0  0  0  0  0  0  0  0
    0.5557   -1.0396   -5.2917 C   0  0  0  0  0  0  0  0  0  0  0  0
    1.8108   -0.7669   -5.8728 C   0  0  0  0  0  0  0  0  0  0  0  0
    2.6488   -1.8079   -6.2835 C   0  0  0  0  0  0  0  0  0  0  0  0
    2.2517   -3.1348   -6.1141 C   0  0  0  0  0  0  0  0  0  0  0  0
    3.3590   -4.4681   -6.5677 S   0  0  0  0  0  0  0  0  0  0  0  0
    4.1880   -4.4882   -4.9421 C   0  0  0  0  0  0  0  0  0  0  0  0
    0.9912   -3.4191   -5.5817 C   0  0  0  0  0  0  0  0  0  0  0  0
    0.1482   -2.3833   -5.1739 C   0  0  0  0  0  0  0  0  0  0  0  0
   -1.0242   -0.6456   -2.5281 C   0  0  0  0  0  0  0  0  0  0  0  0
    0.2930   -1.3172   -1.7495 S   0  0  0  0  0  0  0  0  0  0  0  0
   -0.4851   -1.4680   -0.2314 C   0  0  0  0  0  0  0  0  0  0  0  0
   -1.7885   -0.9141   -0.3355 C   0  0  0  0  0  0  0  0  0  0  0  0
   -2.6663   -0.5494    0.7524 N   0  0  0  0  0  0  0  0  0  0  0  0
   -4.0392   -0.9842    0.6194 C   0  0  0  0  0  0  0  0  0  0  0  0
   -5.0959   -0.0568    0.5044 C   0  0  0  0  0  0  0  0  0  0  0  0
   -6.4124   -0.4959    0.3423 C   0  0  0  0  0  0  0  0  0  0  0  0
   -6.6886   -1.8648    0.2601 C   0  0  0  0  0  0  0  0  0  0  0  0
   -8.3777   -2.4281    0.0418 S   0  0  0  0  0  0  0  0  0  0  0  0
   -8.3122   -2.3212   -1.7763 C   0  0  0  0  0  0  0  0  0  0  0  0
   -5.6435   -2.7913    0.3362 C   0  0  0  0  0  0  0  0  0  0  0  0
   -4.3306   -2.3461    0.5044 C   0  0  0  0  0  0  0  0  0  0  0  0
   -2.3569    0.5873    1.6109 C   0  0  0  0  0  0  0  0  0  0  0  0
   -3.2138    0.9299    2.6794 C   0  0  0  0  0  0  0  0  0  0  0  0
   -3.0851    2.1555    3.3382 C   0  0  0  0  0  0  0  0  0  0  0  0
   -2.0579    3.0326    2.9920 C   0  0  0  0  0  0  0  0  0  0  0  0
   -2.0160    4.6948    3.6804 S   0  0  0  0  0  0  0  0  0  0  0  0
   -1.6486    4.1864    5.3919 C   0  0  0  0  0  0  0  0  0  0  0  0
   -1.1250    2.6521    2.0262 C   0  0  0  0  0  0  0  0  0  0  0  0
   -1.2713    1.4473    1.3303 C   0  0  0  0  0  0  0  0  0  0  0  0
   -2.0536   -0.5169   -1.6511 C   0  0  0  0  0  0  0  0  0  0  0  0
   -3.3899    0.1477   -2.4297 S   0  0  0  0  0  0  0  0  0  0  0  0
    0.2464   -1.9051    0.9726 C   0  0  0  0  0  0  0  0  0  0  0  0
   -0.2704   -2.4972    2.1517 C   0  0  0  0  0  0  0  0  0  0  0  0
   -1.2188   -3.5886    2.0917 N   0  0  0  0  0  0  0  0  0  0  0  0
   -0.9721   -4.6635    1.1359 C   0  0  0  0  0  0  0  0  0  0  0  0
    0.3462   -5.0481    0.8081 C   0  0  0  0  0  0  0  0  0  0  0  0
    0.5913   -5.9618   -0.2197 C   0  0  0  0  0  0  0  0  0  0  0  0
   -0.4737   -6.5438   -0.9089 C   0  0  0  0  0  0  0  0  0  0  0  0
   -0.1623   -7.6225   -2.3041 S   0  0  0  0  0  0  0  0  0  0  0  0
   -0.2181   -6.2499   -3.4986 C   0  0  0  0  0  0  0  0  0  0  0  0
   -1.7848   -6.2502   -0.5326 C   0  0  0  0  0  0  0  0  0  0  0  0
   -2.0353   -5.3260    0.4868 C   0  0  0  0  0  0  0  0  0  0  0  0
   -2.2771   -3.6812    3.0739 C   0  0  0  0  0  0  0  0  0  0  0  0
   -2.8382   -2.5185    3.6274 C   0  0  0  0  0  0  0  0  0  0  0  0
   -3.9667   -2.5898    4.4499 C   0  0  0  0  0  0  0  0  0  0  0  0
   -4.5246   -3.8299    4.7624 C   0  0  0  0  0  0  0  0  0  0  0  0
   -6.0359   -3.9180    5.7271 S   0  0  0  0  0  0  0  0  0  0  0  0
   -7.1074   -3.8578    4.2510 C   0  0  0  0  0  0  0  0  0  0  0  0
   -3.9153   -5.0025    4.3092 C   0  0  0  0  0  0  0  0  0  0  0  0
   -2.7900   -4.9297    3.4812 C   0  0  0  0  0  0  0  0  0  0  0  0
    0.7351   -2.5244    3.1247 C   0  0  0  0  0  0  0  0  0  0  0  0
    0.8051   -2.7767    4.7808 S   0  0  0  0  0  0  0  0  0  0  0  0
    2.5080   -2.5528    4.9097 C   0  0  0  0  0  0  0  0  0  0  0  0
    2.9989   -2.3938    3.6038 C   0  0  0  0  0  0  0  0  0  0  0  0
    4.3226   -2.7916    3.2139 N   0  0  0  0  0  0  0  0  0  0  0  0
    5.2988   -1.8189    2.7618 C   0  0  0  0  0  0  0  0  0  0  0  0
    4.9250   -0.4887    2.4749 C   0  0  0  0  0  0  0  0  0  0  0  0
    5.8699    0.4276    1.9992 C   0  0  0  0  0  0  0  0  0  0  0  0
    7.1968    0.0344    1.8145 C   0  0  0  0  0  0  0  0  0  0  0  0
    8.4090    1.2138    1.2149 S   0  0  0  0  0  0  0  0  0  0  0  0
    8.6705    1.9715    2.8546 C   0  0  0  0  0  0  0  0  0  0  0  0
    7.5863   -1.2739    2.1218 C   0  0  0  0  0  0  0  0  0  0  0  0
    6.6448   -2.1922    2.5923 C   0  0  0  0  0  0  0  0  0  0  0  0
    4.5550   -4.2115    3.0723 C   0  0  0  0  0  0  0  0  0  0  0  0
    4.4508   -5.0712    4.1832 C   0  0  0  0  0  0  0  0  0  0  0  0
    4.6899   -6.4414    4.0403 C   0  0  0  0  0  0  0  0  0  0  0  0
    5.0090   -6.9716    2.7850 C   0  0  0  0  0  0  0  0  0  0  0  0
    5.4340   -8.7114    2.6259 S   0  0  0  0  0  0  0  0  0  0  0  0
    3.7294   -9.2480    2.2807 C   0  0  0  0  0  0  0  0  0  0  0  0
    5.0600   -6.1321    1.6694 C   0  0  0  0  0  0  0  0  0  0  0  0
    4.8188   -4.7578    1.8101 C   0  0  0  0  0  0  0  0  0  0  0  0
    1.9798   -2.2657    2.6778 C   0  0  0  0  0  0  0  0  0  0  0  0
    1.9416   -1.7642    1.0931 S   0  0  0  0  0  0  0  0  0  0  0  0
    3.1522   -1.7435    5.9767 C   0  0  0  0  0  0  0  0  0  0  0  0
    2.4392   -0.6267    6.4564 C   0  0  0  0  0  0  0  0  0  0  0  0
    3.1283    0.5710    6.6816 C   0  0  0  0  0  0  0  0  0  0  0  0
    2.5206    1.9595    6.7006 C   0  0  0  0  0  0  0  0  0  0  0  0
    1.8959    2.2151    8.0975 C   0  0  0  0  0  0  0  0  0  0  0  0
    1.4724    3.6626    8.3613 C   0  0  0  0  0  0  0  0  0  0  0  0
    1.4835    2.1468    5.5492 C   0  0  0  0  0  0  0  0  0  0  0  0
    1.9680    1.6683    4.1691 C   0  0  0  0  0  0  0  0  0  0  0  0
    3.7649    2.7970    6.4673 C   0  0  0  0  0  0  0  0  0  0  0  0
    4.9001    2.0107    6.3956 C   0  0  0  0  0  0  0  0  0  0  0  0
    4.5048    0.6236    6.5613 C   0  0  0  0  0  0  0  0  0  0  0  0
    5.2526   -0.5275    6.3178 C   0  0  0  0  0  0  0  0  0  0  0  0
    4.5688   -1.7262    6.0590 C   0  0  0  0  0  0  0  0  0  0  0  0
    6.1171    2.5259    5.9408 C   0  0  0  0  0  0  0  0  0  0  0  0
    6.1652    3.8689    5.5288 C   0  0  0  0  0  0  0  0  0  0  0  0
    4.9993    4.6676    5.5489 C   0  0  0  0  0  0  0  0  0  0  0  0
    3.8098    4.1405    6.0909 C   0  0  0  0  0  0  0  0  0  0  0  0
    5.0382    6.0507    5.0158 C   0  0  0  0  0  0  0  0  0  0  0  0
    4.0554    6.6063    4.2655 C   0  0  0  0  0  0  0  0  0  0  0  0
    2.9900    5.8523    3.5827 C   0  0  0  0  0  0  0  0  0  0  0  0
    2.9047    4.6013    3.4883 O   0  0  0  0  0  0  0  0  0  0  0  0
    2.1534    6.7665    2.8517 C   0  0  0  0  0  0  0  0  0  0  0  0
    0.9626    6.4459    2.1577 C   0  0  0  0  0  0  0  0  0  0  0  0
    0.3413    7.5339    1.5810 C   0  0  0  0  0  0  0  0  0  0  0  0
    0.8673    8.8612    1.6613 C   0  0  0  0  0  0  0  0  0  0  0  0
    2.0291    9.1823    2.3428 C   0  0  0  0  0  0  0  0  0  0  0  0
    2.6866    8.0756    2.9574 C   0  0  0  0  0  0  0  0  0  0  0  0
    3.8917    8.0416    3.8496 C   0  0  0  0  0  0  0  0  0  0  0  0
    4.6171    9.1140    4.2754 C   0  0  0  0  0  0  0  0  0  0  0  0
    5.5299    9.0542    5.3838 C   0  0  0  0  0  0  0  0  0  0  0  0
    6.2804    9.0287    6.2644 N   0  0  0  0  0  0  0  0  0  0  0  0
    4.4828   10.4286    3.7001 C   0  0  0  0  0  0  0  0  0  0  0  0
    4.4027   11.4903    3.2471 N   0  0  0  0  0  0  0  0  0  0  0  0
   -0.2665    9.3783    0.8326 C   0  0  0  0  0  0  0  0  0  0  0  0
    0.0560    9.6972   -0.6595 C   0  0  0  0  0  0  0  0  0  0  0  0
   -1.2789    9.8364   -1.3459 C   0  0  0  0  0  0  0  0  0  0  0  0
   -1.8054    8.6057   -1.3982 C   0  0  0  0  0  0  0  0  0  0  0  0
   -0.8036    7.6803   -0.7454 C   0  0  0  0  0  0  0  0  0  0  0  0
    0.4691    8.3498   -1.2287 C   0  0  0  0  0  0  0  0  0  0  0  0
   -0.8228    8.0233    0.7728 C   0  0  0  0  0  0  0  0  0  0  0  0
   -3.1431    1.2145   -5.7965 H   0  0  0  0  0  0  0  0  0  0  0  0
   -4.1514   -4.9757   -4.9863 H   0  0  0  0  0  0  0  0  0  0  0  0
   -4.8713   -2.8319   -9.5520 H   0  0  0  0  0  0  0  0  0  0  0  0
   -6.1297   -6.0506   -9.3905 H   0  0  0  0  0  0  0  0  0  0  0  0
   -3.7259   -5.9780  -10.7858 H   0  0  0  0  0  0  0  0  0  0  0  0
   -4.5342   -8.5085  -10.9351 H   0  0  0  0  0  0  0  0  0  0  0  0
   -4.1646   -9.6231   -8.6042 H   0  0  0  0  0  0  0  0  0  0  0  0
   -3.1336   -7.8053   -6.9613 H   0  0  0  0  0  0  0  0  0  0  0  0
   -1.9359   -7.2287   -9.2678 H   0  0  0  0  0  0  0  0  0  0  0  0
   -2.4397   -5.6872   -8.4579 H   0  0  0  0  0  0  0  0  0  0  0  0
   -5.7957   -7.0763   -7.2529 H   0  0  0  0  0  0  0  0  0  0  0  0
    0.2607    2.1666   -3.2759 H   0  0  0  0  0  0  0  0  0  0  0  0
    0.6686    4.4750   -4.0251 H   0  0  0  0  0  0  0  0  0  0  0  0
   -1.3405    6.1922   -5.4830 H   0  0  0  0  0  0  0  0  0  0  0  0
   -1.0111    7.3645   -6.8200 H   0  0  0  0  0  0  0  0  0  0  0  0
   -1.6290    5.7176   -7.2186 H   0  0  0  0  0  0  0  0  0  0  0  0
   -0.0190    3.2808   -8.1018 H   0  0  0  0  0  0  0  0  0  0  0  0
   -0.4194    0.9606   -7.3586 H   0  0  0  0  0  0  0  0  0  0  0  0
    2.1680    0.2497   -5.9775 H   0  0  0  0  0  0  0  0  0  0  0  0
    3.6159   -1.5762   -6.7110 H   0  0  0  0  0  0  0  0  0  0  0  0
    4.6023   -3.4860   -4.7054 H   0  0  0  0  0  0  0  0  0  0  0  0
    3.4634   -4.7872   -4.1553 H   0  0  0  0  0  0  0  0  0  0  0  0
    5.0154   -5.2220   -4.9655 H   0  0  0  0  0  0  0  0  0  0  0  0
    0.6695   -4.4439   -5.4784 H   0  0  0  0  0  0  0  0  0  0  0  0
   -0.8151   -2.6336   -4.7539 H   0  0  0  0  0  0  0  0  0  0  0  0
   -4.8999    1.0058    0.5261 H   0  0  0  0  0  0  0  0  0  0  0  0
   -7.2116    0.2279    0.2618 H   0  0  0  0  0  0  0  0  0  0  0  0
   -7.5664   -3.0416   -2.1777 H   0  0  0  0  0  0  0  0  0  0  0  0
   -9.3102   -2.5715   -2.1926 H   0  0  0  0  0  0  0  0  0  0  0  0
   -8.0374   -1.2942   -2.0944 H   0  0  0  0  0  0  0  0  0  0  0  0
   -5.8473   -3.8511    0.2650 H   0  0  0  0  0  0  0  0  0  0  0  0
   -3.5244   -3.0503    0.5324 H   0  0  0  0  0  0  0  0  0  0  0  0
   -4.0340    0.2789    2.9638 H   0  0  0  0  0  0  0  0  0  0  0  0
   -3.8035    2.4300    4.1019 H   0  0  0  0  0  0  0  0  0  0  0  0
   -1.0429    4.9756    5.8783 H   0  0  0  0  0  0  0  0  0  0  0  0
   -2.6009    4.0692    5.9484 H   0  0  0  0  0  0  0  0  0  0  0  0
   -1.0990    3.2292    5.4216 H   0  0  0  0  0  0  0  0  0  0  0  0
   -0.3192    3.3218    1.7569 H   0  0  0  0  0  0  0  0  0  0  0  0
   -0.5689    1.2224    0.5409 H   0  0  0  0  0  0  0  0  0  0  0  0
    1.1942   -4.6278    1.3302 H   0  0  0  0  0  0  0  0  0  0  0  0
    1.6117   -6.2096   -0.4814 H   0  0  0  0  0  0  0  0  0  0  0  0
   -1.1947   -5.7256   -3.4385 H   0  0  0  0  0  0  0  0  0  0  0  0
   -0.0912   -6.6537   -4.5263 H   0  0  0  0  0  0  0  0  0  0  0  0
    0.6089   -5.5371   -3.2882 H   0  0  0  0  0  0  0  0  0  0  0  0
   -2.6138   -6.7223   -1.0414 H   0  0  0  0  0  0  0  0  0  0  0  0
   -3.0625   -5.1343    0.7538 H   0  0  0  0  0  0  0  0  0  0  0  0
   -2.4254   -1.5522    3.3896 H   0  0  0  0  0  0  0  0  0  0  0  0
   -4.4175   -1.6768    4.8194 H   0  0  0  0  0  0  0  0  0  0  0  0
   -6.9606   -2.8979    3.7137 H   0  0  0  0  0  0  0  0  0  0  0  0
   -6.8744   -4.7039    3.5709 H   0  0  0  0  0  0  0  0  0  0  0  0
   -8.1657   -3.9349    4.5684 H   0  0  0  0  0  0  0  0  0  0  0  0
   -4.3230   -5.9704    4.5731 H   0  0  0  0  0  0  0  0  0  0  0  0
   -2.3406   -5.8531    3.1397 H   0  0  0  0  0  0  0  0  0  0  0  0
    3.9153   -0.1443    2.6319 H   0  0  0  0  0  0  0  0  0  0  0  0
    5.5696    1.4446    1.7946 H   0  0  0  0  0  0  0  0  0  0  0  0
    8.7892    1.1974    3.6405 H   0  0  0  0  0  0  0  0  0  0  0  0
    7.8023    2.6183    3.1027 H   0  0  0  0  0  0  0  0  0  0  0  0
    9.5849    2.5975    2.8201 H   0  0  0  0  0  0  0  0  0  0  0  0
    8.6098   -1.5858    1.9704 H   0  0  0  0  0  0  0  0  0  0  0  0
    6.9812   -3.1952    2.8272 H   0  0  0  0  0  0  0  0  0  0  0  0
    4.2160   -4.6852    5.1660 H   0  0  0  0  0  0  0  0  0  0  0  0
    4.6387   -7.0856    4.9090 H   0  0  0  0  0  0  0  0  0  0  0  0
    3.3629   -8.7852    1.3379 H   0  0  0  0  0  0  0  0  0  0  0  0
    3.7191  -10.3526    2.1668 H   0  0  0  0  0  0  0  0  0  0  0  0
    3.0625   -8.9681    3.1233 H   0  0  0  0  0  0  0  0  0  0  0  0
    5.3014   -6.5385    0.6957 H   0  0  0  0  0  0  0  0  0  0  0  0
    4.8710   -4.1193    0.9369 H   0  0  0  0  0  0  0  0  0  0  0  0
    1.3609   -0.5962    6.4065 H   0  0  0  0  0  0  0  0  0  0  0  0
    2.6299    1.9269    8.8885 H   0  0  0  0  0  0  0  0  0  0  0  0
    1.0083    1.5575    8.2303 H   0  0  0  0  0  0  0  0  0  0  0  0
    2.3618    4.3152    8.4559 H   0  0  0  0  0  0  0  0  0  0  0  0
    0.9129    3.7138    9.3194 H   0  0  0  0  0  0  0  0  0  0  0  0
    0.8082    4.0440    7.5614 H   0  0  0  0  0  0  0  0  0  0  0  0
    1.2298    3.2217    5.4535 H   0  0  0  0  0  0  0  0  0  0  0  0
    0.5502    1.6041    5.7947 H   0  0  0  0  0  0  0  0  0  0  0  0
    3.0085    2.0039    3.9633 H   0  0  0  0  0  0  0  0  0  0  0  0
    1.3098    2.0879    3.3836 H   0  0  0  0  0  0  0  0  0  0  0  0
    1.9234    0.5656    4.0906 H   0  0  0  0  0  0  0  0  0  0  0  0
    6.3269   -0.4770    6.1922 H   0  0  0  0  0  0  0  0  0  0  0  0
    5.1419   -2.5792    5.7255 H   0  0  0  0  0  0  0  0  0  0  0  0
    6.9891    1.8957    5.8465 H   0  0  0  0  0  0  0  0  0  0  0  0
    7.0889    4.2716    5.1389 H   0  0  0  0  0  0  0  0  0  0  0  0
    2.9154    4.7451    6.1321 H   0  0  0  0  0  0  0  0  0  0  0  0
    5.9208    6.6187    5.2658 H   0  0  0  0  0  0  0  0  0  0  0  0
    0.5668    5.4469    2.0991 H   0  0  0  0  0  0  0  0  0  0  0  0
    2.3458   10.2068    2.3953 H   0  0  0  0  0  0  0  0  0  0  0  0
   -0.9035   10.1234    1.3589 H   0  0  0  0  0  0  0  0  0  0  0  0
    0.7599   10.5390   -0.8278 H   0  0  0  0  0  0  0  0  0  0  0  0
   -1.6971   10.7304   -1.8062 H   0  0  0  0  0  0  0  0  0  0  0  0
   -2.7338    8.3283   -1.8916 H   0  0  0  0  0  0  0  0  0  0  0  0
   -0.9220    6.6053   -1.0013 H   0  0  0  0  0  0  0  0  0  0  0  0
    1.4003    7.9321   -0.7815 H   0  0  0  0  0  0  0  0  0  0  0  0
    0.5781    8.3525   -2.3404 H   0  0  0  0  0  0  0  0  0  0  0  0
   -1.7999    7.9031    1.2816 H   0  0  0  0  0  0  0  0  0  0  0  0
  1  2  2  3
  2  3  1  0
  3  4  2  0
  3  5  1  0
  5  6  2  0
  6  7  1  0
  7  8  2  0
  8  9  1  0
  9 10  2  0
 10 11  1  0
 11 12  2  3
 12 13  1  0
 13 14  3  0
 12 15  1  0
 15 16  3  0
  8 17  1  0
 17 18  1  0
 18 19  1  0
 19 20  2  0
 20 21  1  0
 21 22  1  0
 21 23  1  0
  1 24  1  0
 24 25  2  0
 25 26  1  0
 26 27  1  0
 27 28  2  0
 28 29  1  0
 29 30  2  0
 30 31  1  0
 31 32  1  0
 30 33  1  0
 33 34  2  0
 26 35  1  0
 35 36  2  0
 36 37  1  0
 37 38  2  0
 38 39  1  0
 39 40  1  0
 38 41  1  0
 41 42  2  0
 25 43  1  0
 43 44  1  0
 44 45  1  0
 45 46  2  0
 46 47  1  0
 47 48  1  0
 48 49  2  0
 49 50  1  0
 50 51  2  0
 51 52  1  0
 52 53  1  0
 51 54  1  0
 54 55  2  0
 47 56  1  0
 56 57  2  0
 57 58  1  0
 58 59  2  0
 59 60  1  0
 60 61  1  0
 59 62  1  0
 62 63  2  0
 46 64  1  0
 64 65  1  0
 45 66  1  0
 66 67  2  0
 67 68  1  0
 68 69  1  0
 69 70  2  0
 70 71  1  0
 71 72  2  0
 72 73  1  0
 73 74  1  0
 72 75  1  0
 75 76  2  0
 68 77  1  0
 77 78  2  0
 78 79  1  0
 79 80  2  0
 80 81  1  0
 81 82  1  0
 80 83  1  0
 83 84  2  0
 67 85  1  0
 85 86  1  0
 86 87  1  0
 87 88  2  0
 88 89  1  0
 89 90  1  0
 90 91  2  0
 91 92  1  0
 92 93  2  0
 93 94  1  0
 94 95  1  0
 93 96  1  0
 96 97  2  0
 89 98  1  0
 98 99  2  0
 99100  1  0
100101  2  0
101102  1  0
102103  1  0
101104  1  0
104105  2  0
 88106  1  0
106107  1  0
 87108  1  0
108109  2  0
109110  1  0
110111  1  0
111112  1  0
112113  1  0
111114  1  0
114115  1  0
111116  1  0
116117  2  0
117118  1  0
118119  1  0
119120  2  0
117121  1  0
121122  2  0
122123  1  0
123124  2  0
123125  1  0
125126  2  3
126127  1  0
127128  2  0
127129  1  0
129130  2  0
130131  1  0
131132  2  0
132133  1  0
133134  2  0
134135  1  0
135136  2  3
136137  1  0
137138  3  0
136139  1  0
139140  3  0
132141  1  0
141142  1  0
142143  1  0
143144  2  0
144145  1  0
145146  1  0
145147  1  0
 11  2  1  0
 23 17  1  0
 65 24  1  0
107 66  1  0
120108  1  0
135126  1  0
147141  1  0
 10  5  1  0
 22 18  1  0
 34 27  1  0
 42 35  1  0
 64 43  2  0
 76 69  1  0
 84 77  1  0
106 85  2  0
118110  2  0
134129  1  0
146142  1  0
 23  7  1  0
 55 48  1  0
 63 56  1  0
 97 90  1  0
105 98  1  0
124116  1  0
147131  1  0
  1148  1  0
  6149  1  0
  9150  1  0
 17151  1  0
 18152  1  0
 19153  1  0
 20154  1  0
 21155  1  0
 22156  1  0
 22157  1  0
 23158  1  0
 28159  1  0
 29160  1  0
 32161  1  0
 32162  1  0
 32163  1  0
 33164  1  0
 34165  1  0
 36166  1  0
 37167  1  0
 40168  1  0
 40169  1  0
 40170  1  0
 41171  1  0
 42172  1  0
 49173  1  0
 50174  1  0
 53175  1  0
 53176  1  0
 53177  1  0
 54178  1  0
 55179  1  0
 57180  1  0
 58181  1  0
 61182  1  0
 61183  1  0
 61184  1  0
 62185  1  0
 63186  1  0
 70187  1  0
 71188  1  0
 74189  1  0
 74190  1  0
 74191  1  0
 75192  1  0
 76193  1  0
 78194  1  0
 79195  1  0
 82196  1  0
 82197  1  0
 82198  1  0
 83199  1  0
 84200  1  0
 91201  1  0
 92202  1  0
 95203  1  0
 95204  1  0
 95205  1  0
 96206  1  0
 97207  1  0
 99208  1  0
100209  1  0
103210  1  0
103211  1  0
103212  1  0
104213  1  0
105214  1  0
109215  1  0
112216  1  0
112217  1  0
113218  1  0
113219  1  0
113220  1  0
114221  1  0
114222  1  0
115223  1  0
115224  1  0
115225  1  0
119226  1  0
120227  1  0
121228  1  0
122229  1  0
124230  1  0
125231  1  0
130232  1  0
133233  1  0
141234  1  0
142235  1  0
143236  1  0
144237  1  0
145238  1  0
146239  1  0
146240  1  0
147241  1  0
M  END

