
     RDKit          3D

135151  0  0  0  0  0  0  0  0999 V2000
    4.6583    2.8765   -0.5232 C   0  0  0  0  0  0  0  0  0  0  0  0
    5.8098    2.8077   -1.2077 C   0  0  0  0  0  0  0  0  0  0  0  0
    6.6757    1.6229   -1.3642 C   0  0  0  0  0  0  0  0  0  0  0  0
    6.7961    0.6676   -0.5570 O   0  0  0  0  0  0  0  0  0  0  0  0
    7.3379    1.7244   -2.6499 C   0  0  0  0  0  0  0  0  0  0  0  0
    8.0443    0.7134   -3.3497 C   0  0  0  0  0  0  0  0  0  0  0  0
    8.2252    0.9899   -4.6965 C   0  0  0  0  0  0  0  0  0  0  0  0
    7.6854    2.1605   -5.3331 C   0  0  0  0  0  0  0  0  0  0  0  0
    7.0208    3.1619   -4.6452 C   0  0  0  0  0  0  0  0  0  0  0  0
    6.9086    2.9234   -3.2567 C   0  0  0  0  0  0  0  0  0  0  0  0
    6.1687    3.7383   -2.2864 C   0  0  0  0  0  0  0  0  0  0  0  0
    6.4353    5.0433   -2.0767 C   0  0  0  0  0  0  0  0  0  0  0  0
    7.6714    5.5851   -2.5795 C   0  0  0  0  0  0  0  0  0  0  0  0
    8.6993    5.9703   -2.9096 N   0  0  0  0  0  0  0  0  0  0  0  0
    5.8110    5.7632   -1.0022 C   0  0  0  0  0  0  0  0  0  0  0  0
    5.2803    6.2898   -0.1042 N   0  0  0  0  0  0  0  0  0  0  0  0
    8.1072    1.6409   -6.6719 C   0  0  0  0  0  0  0  0  0  0  0  0
    7.0157    0.9460   -7.5502 C   0  0  0  0  0  0  0  0  0  0  0  0
    7.7704    0.2656   -8.6543 C   0  0  0  0  0  0  0  0  0  0  0  0
    8.4371   -0.7531   -8.0933 C   0  0  0  0  0  0  0  0  0  0  0  0
    8.0812   -0.7323   -6.6206 C   0  0  0  0  0  0  0  0  0  0  0  0
    6.6443   -0.2887   -6.7380 C   0  0  0  0  0  0  0  0  0  0  0  0
    8.7784    0.5170   -6.0138 C   0  0  0  0  0  0  0  0  0  0  0  0
    4.0030    1.7163    0.0806 C   0  0  0  0  0  0  0  0  0  0  0  0
    3.4501    1.8403    1.3624 C   0  0  0  0  0  0  0  0  0  0  0  0
    2.3191    1.0822    1.7496 C   0  0  0  0  0  0  0  0  0  0  0  0
    1.8239    1.3856    3.0637 N   0  0  0  0  0  0  0  0  0  0  0  0
    2.8290    2.5360    3.4963 S   0  0  0  0  0  4  0  0  0  0  0  0
    3.8830    2.8062    2.3285 N   0  0  0  0  0  0  0  0  0  0  0  0
    1.6462    0.2410    0.8264 C   0  0  0  0  0  0  0  0  0  0  0  0
    2.3314   -0.0479   -0.3725 C   0  0  0  0  0  0  0  0  0  0  0  0
    1.8874   -0.9380   -1.3002 N   0  0  0  0  0  0  0  0  0  0  0  0
    2.9923   -0.7402   -2.5125 S   0  0  0  0  0  0  0  0  0  0  0  0
    4.0104    0.4375   -1.9843 N   0  0  0  0  0  0  0  0  0  0  0  0
    3.5088    0.6923   -0.7422 C   0  0  0  0  0  0  0  0  0  0  0  0
    0.1816    0.0138    0.9948 C   0  0  0  0  0  0  0  0  0  0  0  0
   -0.6180   -1.1172    0.6723 C   0  0  0  0  0  0  0  0  0  0  0  0
   -0.2069   -2.3022   -0.0155 N   0  0  0  0  0  0  0  0  0  0  0  0
    0.8181   -3.1731    0.5235 C   0  0  0  0  0  0  0  0  0  0  0  0
    1.4187   -4.1524   -0.2835 C   0  0  0  0  0  0  0  0  0  0  0  0
    2.4639   -4.9441    0.2133 C   0  0  0  0  0  0  0  0  0  0  0  0
    2.9160   -4.7643    1.5228 C   0  0  0  0  0  0  0  0  0  0  0  0
    4.3035   -5.7322    2.1327 S   0  0  0  0  0  0  0  0  0  0  0  0
    5.5465   -4.4360    1.7853 C   0  0  0  0  0  0  0  0  0  0  0  0
    2.2746   -3.8494    2.3604 C   0  0  0  0  0  0  0  0  0  0  0  0
    1.2366   -3.0580    1.8682 C   0  0  0  0  0  0  0  0  0  0  0  0
   -0.9425   -2.6575   -1.2054 C   0  0  0  0  0  0  0  0  0  0  0  0
   -1.7145   -3.8332   -1.2309 C   0  0  0  0  0  0  0  0  0  0  0  0
   -2.3442   -4.2226   -2.4246 C   0  0  0  0  0  0  0  0  0  0  0  0
   -2.1259   -3.5106   -3.5982 C   0  0  0  0  0  0  0  0  0  0  0  0
   -2.8166   -4.0912   -5.1522 S   0  0  0  0  0  0  0  0  0  0  0  0
   -1.3270   -5.0507   -5.5941 C   0  0  0  0  0  0  0  0  0  0  0  0
   -1.4092   -2.3084   -3.5609 C   0  0  0  0  0  0  0  0  0  0  0  0
   -0.8386   -1.8795   -2.3598 C   0  0  0  0  0  0  0  0  0  0  0  0
   -1.9383   -0.9451    1.1159 C   0  0  0  0  0  0  0  0  0  0  0  0
   -3.2393   -1.9622    1.3186 S   0  0  0  0  0  0  0  0  0  0  0  0
   -4.2062   -0.8408    2.1674 C   0  0  0  0  0  0  0  0  0  0  0  0
   -3.4759    0.3690    2.2679 C   0  0  0  0  0  0  0  0  0  0  0  0
   -4.0350    1.6351    2.6579 N   0  0  0  0  0  0  0  0  0  0  0  0
   -3.7567    2.1526    3.9788 C   0  0  0  0  0  0  0  0  0  0  0  0
   -3.2994    3.4637    4.1371 C   0  0  0  0  0  0  0  0  0  0  0  0
   -3.2198    4.0363    5.4107 C   0  0  0  0  0  0  0  0  0  0  0  0
   -3.5715    3.2863    6.5347 C   0  0  0  0  0  0  0  0  0  0  0  0
   -3.5731    4.0524    8.1588 S   0  0  0  0  0  0  0  0  0  0  0  0
   -5.2860    4.6619    8.0442 C   0  0  0  0  0  0  0  0  0  0  0  0
   -3.9195    1.9393    6.3987 C   0  0  0  0  0  0  0  0  0  0  0  0
   -4.0173    1.3704    5.1272 C   0  0  0  0  0  0  0  0  0  0  0  0
   -4.6661    2.4678    1.6515 C   0  0  0  0  0  0  0  0  0  0  0  0
   -5.5379    3.5156    2.0310 C   0  0  0  0  0  0  0  0  0  0  0  0
   -6.0660    4.3808    1.0762 C   0  0  0  0  0  0  0  0  0  0  0  0
   -5.8485    4.1596   -0.2890 C   0  0  0  0  0  0  0  0  0  0  0  0
   -6.4330    5.3085   -1.5315 S   0  0  0  0  0  0  0  0  0  0  0  0
   -8.2156    5.1813   -1.0903 C   0  0  0  0  0  0  0  0  0  0  0  0
   -5.0221    3.0878   -0.6815 C   0  0  0  0  0  0  0  0  0  0  0  0
   -4.4210    2.2693    0.2689 C   0  0  0  0  0  0  0  0  0  0  0  0
   -2.2146    0.2467    1.6918 C   0  0  0  0  0  0  0  0  0  0  0  0
   -0.8406    1.1822    1.7115 S   0  0  0  0  0  0  0  0  0  0  0  0
   -5.2341   -1.2571    3.1378 C   0  0  0  0  0  0  0  0  0  0  0  0
   -4.9512   -2.3071    4.0268 C   0  0  0  0  0  0  0  0  0  0  0  0
   -5.8472   -2.6766    5.0507 C   0  0  0  0  0  0  0  0  0  0  0  0
   -5.4107   -3.7901    5.8562 N   0  0  0  0  0  0  0  0  0  0  0  0
   -4.0002   -4.0978    5.2003 S   0  0  0  0  0  4  0  0  0  0  0  0
   -3.7426   -3.0825    4.0017 N   0  0  0  0  0  0  0  0  0  0  0  0
   -7.0467   -1.9684    5.2610 C   0  0  0  0  0  0  0  0  0  0  0  0
   -7.3574   -0.9213    4.3731 C   0  0  0  0  0  0  0  0  0  0  0  0
   -8.4967   -0.1873    4.4716 N   0  0  0  0  0  0  0  0  0  0  0  0
   -8.2969    0.8605    3.2129 S   0  0  0  0  0  0  0  0  0  0  0  0
   -6.8489    0.4713    2.5154 N   0  0  0  0  0  0  0  0  0  0  0  0
   -6.4549   -0.5638    3.3107 C   0  0  0  0  0  0  0  0  0  0  0  0
   -7.9439   -2.3075    6.3772 C   0  0  0  0  0  0  0  0  0  0  0  0
   -7.5274   -2.3324    7.6498 C   0  0  0  0  0  0  0  0  0  0  0  0
   -6.1880   -1.9441    8.0065 C   0  0  0  0  0  0  0  0  0  0  0  0
   -5.0847   -1.6355    8.2187 N   0  0  0  0  0  0  0  0  0  0  0  0
   -8.4255   -2.7176    8.7064 C   0  0  0  0  0  0  0  0  0  0  0  0
   -9.1468   -3.0308    9.5551 N   0  0  0  0  0  0  0  0  0  0  0  0
    3.9749    3.6820   -0.7314 H   0  0  0  0  0  0  0  0  0  0  0  0
    8.4140   -0.1916   -2.8845 H   0  0  0  0  0  0  0  0  0  0  0  0
    6.5002    3.9596   -5.1322 H   0  0  0  0  0  0  0  0  0  0  0  0
    8.7986    2.3189   -7.2239 H   0  0  0  0  0  0  0  0  0  0  0  0
    6.1725    1.5985   -7.8727 H   0  0  0  0  0  0  0  0  0  0  0  0
    7.7060    0.4761   -9.7121 H   0  0  0  0  0  0  0  0  0  0  0  0
    9.0120   -1.5026   -8.6248 H   0  0  0  0  0  0  0  0  0  0  0  0
    8.2609   -1.6858   -6.0848 H   0  0  0  0  0  0  0  0  0  0  0  0
    6.1643   -0.0598   -5.7562 H   0  0  0  0  0  0  0  0  0  0  0  0
    6.0343   -1.0504   -7.2577 H   0  0  0  0  0  0  0  0  0  0  0  0
    9.8853    0.5308   -6.0679 H   0  0  0  0  0  0  0  0  0  0  0  0
    1.1110   -4.2979   -1.3066 H   0  0  0  0  0  0  0  0  0  0  0  0
    2.9091   -5.6941   -0.4161 H   0  0  0  0  0  0  0  0  0  0  0  0
    5.3588   -3.5468    2.4415 H   0  0  0  0  0  0  0  0  0  0  0  0
    5.5121   -4.1528    0.7205 H   0  0  0  0  0  0  0  0  0  0  0  0
    6.5515   -4.8382    2.0238 H   0  0  0  0  0  0  0  0  0  0  0  0
    2.6116   -3.7121    3.3758 H   0  0  0  0  0  0  0  0  0  0  0  0
    0.7867   -2.3357    2.5322 H   0  0  0  0  0  0  0  0  0  0  0  0
   -1.8514   -4.4241   -0.3400 H   0  0  0  0  0  0  0  0  0  0  0  0
   -2.9604   -5.1153   -2.4459 H   0  0  0  0  0  0  0  0  0  0  0  0
   -0.5004   -4.3422   -5.7684 H   0  0  0  0  0  0  0  0  0  0  0  0
   -1.0825   -5.7752   -4.7879 H   0  0  0  0  0  0  0  0  0  0  0  0
   -1.5354   -5.6022   -6.5402 H   0  0  0  0  0  0  0  0  0  0  0  0
   -1.2422   -1.7484   -4.4588 H   0  0  0  0  0  0  0  0  0  0  0  0
   -0.3093   -0.9359   -2.3457 H   0  0  0  0  0  0  0  0  0  0  0  0
   -3.0597    4.0640    3.2696 H   0  0  0  0  0  0  0  0  0  0  0  0
   -2.9350    5.0734    5.5131 H   0  0  0  0  0  0  0  0  0  0  0  0
   -5.6001    5.0416    9.0386 H   0  0  0  0  0  0  0  0  0  0  0  0
   -5.9621    3.8485    7.7113 H   0  0  0  0  0  0  0  0  0  0  0  0
   -5.3372    5.4965    7.3116 H   0  0  0  0  0  0  0  0  0  0  0  0
   -4.1591    1.3518    7.2695 H   0  0  0  0  0  0  0  0  0  0  0  0
   -4.3265    0.3497    5.0423 H   0  0  0  0  0  0  0  0  0  0  0  0
   -5.7706    3.6929    3.0678 H   0  0  0  0  0  0  0  0  0  0  0  0
   -6.6405    5.2372    1.3901 H   0  0  0  0  0  0  0  0  0  0  0  0
   -8.8048    5.5954   -1.9440 H   0  0  0  0  0  0  0  0  0  0  0  0
   -8.4983    4.1374   -0.8646 H   0  0  0  0  0  0  0  0  0  0  0  0
   -8.4175    5.8191   -0.2141 H   0  0  0  0  0  0  0  0  0  0  0  0
   -4.8513    2.9128   -1.7325 H   0  0  0  0  0  0  0  0  0  0  0  0
   -3.7900    1.4695   -0.0808 H   0  0  0  0  0  0  0  0  0  0  0  0
   -8.9900   -2.5214    6.1535 H   0  0  0  0  0  0  0  0  0  0  0  0
  1  2  2  3
  2  3  1  0
  3  4  2  0
  3  5  1  0
  5  6  2  0
  6  7  1  0
  7  8  2  0
  8  9  1  0
  9 10  2  0
 10 11  1  0
 11 12  2  3
 12 13  1  0
 13 14  3  0
 12 15  1  0
 15 16  3  0
  8 17  1  0
 17 18  1  0
 18 19  1  0
 19 20  2  0
 20 21  1  0
 21 22  1  0
 21 23  1  0
  1 24  1  0
 24 25  2  0
 25 26  1  0
 26 27  1  0
 27 28  2  0
 28 29  2  0
 26 30  2  0
 30 31  1  0
 31 32  2  0
 32 33  1  0
 33 34  1  0
 34 35  2  0
 30 36  1  0
 36 37  2  0
 37 38  1  0
 38 39  1  0
 39 40  2  0
 40 41  1  0
 41 42  2  0
 42 43  1  0
 43 44  1  0
 42 45  1  0
 45 46  2  0
 38 47  1  0
 47 48  2  0
 48 49  1  0
 49 50  2  0
 50 51  1  0
 51 52  1  0
 50 53  1  0
 53 54  2  0
 37 55  1  0
 55 56  1  0
 56 57  1  0
 57 58  2  0
 58 59  1  0
 59 60  1  0
 60 61  2  0
 61 62  1  0
 62 63  2  0
 63 64  1  0
 64 65  1  0
 63 66  1  0
 66 67  2  0
 59 68  1  0
 68 69  2  0
 69 70  1  0
 70 71  2  0
 71 72  1  0
 72 73  1  0
 71 74  1  0
 74 75  2  0
 58 76  1  0
 76 77  1  0
 57 78  1  0
 78 79  2  0
 79 80  1  0
 80 81  1  0
 81 82  2  0
 82 83  2  0
 80 84  2  0
 84 85  1  0
 85 86  2  0
 86 87  1  0
 87 88  1  0
 88 89  2  0
 84 90  1  0
 90 91  2  3
 91 92  1  0
 92 93  3  0
 91 94  1  0
 94 95  3  0
 11  2  1  0
 23 17  1  0
 35 24  1  0
 77 36  1  0
 89 78  1  0
 10  5  1  0
 22 18  1  0
 29 25  1  0
 35 31  1  0
 46 39  1  0
 54 47  1  0
 76 55  2  0
 83 79  1  0
 89 85  1  0
 23  7  1  0
 67 60  1  0
 75 68  1  0
  1 96  1  0
  6 97  1  0
  9 98  1  0
 17 99  1  0
 18100  1  0
 19101  1  0
 20102  1  0
 21103  1  0
 22104  1  0
 22105  1  0
 23106  1  0
 40107  1  0
 41108  1  0
 44109  1  0
 44110  1  0
 44111  1  0
 45112  1  0
 46113  1  0
 48114  1  0
 49115  1  0
 52116  1  0
 52117  1  0
 52118  1  0
 53119  1  0
 54120  1  0
 61121  1  0
 62122  1  0
 65123  1  0
 65124  1  0
 65125  1  0
 66126  1  0
 67127  1  0
 69128  1  0
 70129  1  0
 73130  1  0
 73131  1  0
 73132  1  0
 74133  1  0
 75134  1  0
 90135  1  0
M  END

