
     RDKit          3D

250276  0  0  0  0  0  0  0  0999 V2000
   -6.5068    2.2754   -3.8043 C   0  0  0  0  0  0  0  0  0  0  0  0
   -6.3387    3.5366   -4.3155 C   0  0  0  0  0  0  0  0  0  0  0  0
   -5.3694    3.7087   -5.4299 C   0  0  0  0  0  0  0  0  0  0  0  0
   -4.9493    2.8075   -6.2176 O   0  0  0  0  0  0  0  0  0  0  0  0
   -4.9769    5.0933   -5.5537 C   0  0  0  0  0  0  0  0  0  0  0  0
   -4.0058    5.6170   -6.4529 C   0  0  0  0  0  0  0  0  0  0  0  0
   -3.8242    6.9634   -6.2588 C   0  0  0  0  0  0  0  0  0  0  0  0
   -4.5126    7.7868   -5.3041 C   0  0  0  0  0  0  0  0  0  0  0  0
   -5.4667    7.2773   -4.4215 C   0  0  0  0  0  0  0  0  0  0  0  0
   -5.6712    5.8623   -4.5561 C   0  0  0  0  0  0  0  0  0  0  0  0
   -6.4992    4.8969   -3.7239 C   0  0  0  0  0  0  0  0  0  0  0  0
   -7.5421    5.2527   -2.9253 C   0  0  0  0  0  0  0  0  0  0  0  0
   -7.7511    6.5210   -2.1884 C   0  0  0  0  0  0  0  0  0  0  0  0
   -8.0247    7.4510   -1.5478 N   0  0  0  0  0  0  0  0  0  0  0  0
   -8.7033    4.2920   -2.8533 C   0  0  0  0  0  0  0  0  0  0  0  0
   -9.6941    3.7063   -2.7880 N   0  0  0  0  0  0  0  0  0  0  0  0
   -3.8101    9.0133   -5.8094 C   0  0  0  0  0  0  0  0  0  0  0  0
   -4.5997    9.9915   -6.7355 C   0  0  0  0  0  0  0  0  0  0  0  0
   -5.5927    9.2292   -7.5861 C   0  0  0  0  0  0  0  0  0  0  0  0
   -4.8990    8.5006   -8.4372 C   0  0  0  0  0  0  0  0  0  0  0  0
   -3.4393    8.7789   -8.1555 C   0  0  0  0  0  0  0  0  0  0  0  0
   -3.5464   10.2538   -7.8043 C   0  0  0  0  0  0  0  0  0  0  0  0
   -3.0472    8.1915   -6.7607 C   0  0  0  0  0  0  0  0  0  0  0  0
   -6.3269    1.7134   -2.4309 C   0  0  0  0  0  0  0  0  0  0  0  0
   -6.4829    0.3893   -2.0270 C   0  0  0  0  0  0  0  0  0  0  0  0
   -6.9422   -0.6889   -2.8997 N   0  0  0  0  0  0  0  0  0  0  0  0
   -6.8608   -2.0357   -2.4643 C   0  0  0  0  0  0  0  0  0  0  0  0
   -8.0224   -2.8183   -2.3081 C   0  0  0  0  0  0  0  0  0  0  0  0
   -7.8879   -4.1576   -1.9391 C   0  0  0  0  0  0  0  0  0  0  0  0
   -6.6073   -4.6900   -1.6961 C   0  0  0  0  0  0  0  0  0  0  0  0
   -6.4327   -6.4000   -1.1735 S   0  0  0  0  0  0  0  0  0  0  0  0
   -6.1484   -6.0012    0.5801 C   0  0  0  0  0  0  0  0  0  0  0  0
   -5.4745   -3.8992   -1.8406 C   0  0  0  0  0  0  0  0  0  0  0  0
   -5.6082   -2.5871   -2.2258 C   0  0  0  0  0  0  0  0  0  0  0  0
   -6.9898   -0.6077   -4.3475 C   0  0  0  0  0  0  0  0  0  0  0  0
   -8.1930   -0.8927   -5.0579 C   0  0  0  0  0  0  0  0  0  0  0  0
   -8.1772   -1.1182   -6.4185 C   0  0  0  0  0  0  0  0  0  0  0  0
   -6.9652   -1.0262   -7.1324 C   0  0  0  0  0  0  0  0  0  0  0  0
   -6.9482   -1.2699   -8.9146 S   0  0  0  0  0  0  0  0  0  0  0  0
   -6.7141   -3.0850   -8.9498 C   0  0  0  0  0  0  0  0  0  0  0  0
   -5.7771   -0.7265   -6.4329 C   0  0  0  0  0  0  0  0  0  0  0  0
   -5.8051   -0.5138   -5.0780 C   0  0  0  0  0  0  0  0  0  0  0  0
   -6.1828    0.2645   -0.6323 C   0  0  0  0  0  0  0  0  0  0  0  0
   -5.8999   -1.0438    0.3727 S   0  0  0  0  0  0  0  0  0  0  0  0
   -5.0990   -0.1809    1.6221 C   0  0  0  0  0  0  0  0  0  0  0  0
   -5.1416    1.1765    1.2346 C   0  0  0  0  0  0  0  0  0  0  0  0
   -4.5086    2.2172    1.9858 N   0  0  0  0  0  0  0  0  0  0  0  0
   -3.5685    3.1019    1.3248 C   0  0  0  0  0  0  0  0  0  0  0  0
   -2.7094    2.6077    0.3119 C   0  0  0  0  0  0  0  0  0  0  0  0
   -1.8822    3.4855   -0.4020 C   0  0  0  0  0  0  0  0  0  0  0  0
   -1.9317    4.8581   -0.1496 C   0  0  0  0  0  0  0  0  0  0  0  0
   -1.1201    6.0139   -1.2891 S   0  0  0  0  0  0  0  0  0  0  0  0
    0.3266    6.3689   -0.2364 C   0  0  0  0  0  0  0  0  0  0  0  0
   -2.7923    5.3479    0.8315 C   0  0  0  0  0  0  0  0  0  0  0  0
   -3.5987    4.4756    1.5687 C   0  0  0  0  0  0  0  0  0  0  0  0
   -5.0472    2.5347    3.3019 C   0  0  0  0  0  0  0  0  0  0  0  0
   -6.4368    2.5870    3.5091 C   0  0  0  0  0  0  0  0  0  0  0  0
   -6.9392    3.0726    4.7134 C   0  0  0  0  0  0  0  0  0  0  0  0
   -6.0679    3.4575    5.7236 C   0  0  0  0  0  0  0  0  0  0  0  0
   -6.7197    4.0181    7.3054 S   0  0  0  0  0  0  0  0  0  0  0  0
   -6.9071    5.7723    6.8150 C   0  0  0  0  0  0  0  0  0  0  0  0
   -4.6763    3.3480    5.5369 C   0  0  0  0  0  0  0  0  0  0  0  0
   -4.1727    2.8726    4.3292 C   0  0  0  0  0  0  0  0  0  0  0  0
   -5.7233    1.3818   -0.0494 C   0  0  0  0  0  0  0  0  0  0  0  0
   -5.7330    2.6685   -1.1321 S   0  0  0  0  0  0  0  0  0  0  0  0
   -3.9534   -0.8274    2.3920 C   0  0  0  0  0  0  0  0  0  0  0  0
   -2.7576   -0.1673    2.5513 C   0  0  0  0  0  0  0  0  0  0  0  0
   -1.8545   -1.0596    3.0658 C   0  0  0  0  0  0  0  0  0  0  0  0
   -0.4740   -0.9430    3.2385 C   0  0  0  0  0  0  0  0  0  0  0  0
    0.2792    0.3106    2.9404 C   0  0  0  0  0  0  0  0  0  0  0  0
   -0.1524    1.6233    3.0552 C   0  0  0  0  0  0  0  0  0  0  0  0
    0.8016    2.5746    2.7056 C   0  0  0  0  0  0  0  0  0  0  0  0
    0.4536    4.2883    2.8049 Cl  0  0  0  0  0  0  0  0  0  0  0  0
    2.0261    2.0212    2.3483 C   0  0  0  0  0  0  0  0  0  0  0  0
    3.3018    2.7443    2.0786 C   0  0  0  0  0  0  0  0  0  0  0  0
    3.9535    3.1479    3.3989 C   0  0  0  0  0  0  0  0  0  0  0  0
    1.8969    0.3591    2.4798 S   0  0  0  0  0  0  0  0  0  0  0  0
    0.1999   -2.1527    3.5489 C   0  0  0  0  0  0  0  0  0  0  0  0
   -0.4716   -3.3459    3.7326 C   0  0  0  0  0  0  0  0  0  0  0  0
   -1.8949   -3.4371    3.6667 C   0  0  0  0  0  0  0  0  0  0  0  0
   -2.6974   -4.5200    4.3353 C   0  0  0  0  0  0  0  0  0  0  0  0
   -4.2058   -4.2691    5.0696 S   0  0  0  0  0  0  0  0  0  0  0  0
   -4.3379   -5.7761    5.8235 C   0  0  0  0  0  0  0  0  0  0  0  0
   -5.3879   -6.0982    6.8451 C   0  0  0  0  0  0  0  0  0  0  0  0
   -6.4110   -7.0760    6.3151 C   0  0  0  0  0  0  0  0  0  0  0  0
   -3.2108   -6.5140    5.4994 C   0  0  0  0  0  0  0  0  0  0  0  0
   -2.2993   -5.8127    4.6790 C   0  0  0  0  0  0  0  0  0  0  0  0
   -2.8467   -8.1181    6.1428 Cl  0  0  0  0  0  0  0  0  0  0  0  0
   -2.5399   -2.2410    3.2184 C   0  0  0  0  0  0  0  0  0  0  0  0
   -3.8262   -2.0846    2.8252 O   0  0  0  0  0  0  0  0  0  0  0  0
    0.5732   -4.2869    3.8297 C   0  0  0  0  0  0  0  0  0  0  0  0
    1.7457   -3.5652    3.6687 C   0  0  0  0  0  0  0  0  0  0  0  0
    1.4942   -2.2956    3.5362 O   0  0  0  0  0  0  0  0  0  0  0  0
    3.0738   -4.0522    3.2572 C   0  0  0  0  0  0  0  0  0  0  0  0
    3.4146   -4.2185    1.9200 C   0  0  0  0  0  0  0  0  0  0  0  0
    2.5171   -3.9155    0.8371 N   0  0  0  0  0  0  0  0  0  0  0  0
    1.8978   -5.0252    0.1502 C   0  0  0  0  0  0  0  0  0  0  0  0
    0.5496   -5.2865    0.3857 C   0  0  0  0  0  0  0  0  0  0  0  0
   -0.1448   -6.0954   -0.5145 C   0  0  0  0  0  0  0  0  0  0  0  0
    0.5161   -6.6907   -1.5959 C   0  0  0  0  0  0  0  0  0  0  0  0
   -0.3824   -7.7883   -2.7046 S   0  0  0  0  0  0  0  0  0  0  0  0
   -0.8121   -6.5435   -3.9679 C   0  0  0  0  0  0  0  0  0  0  0  0
    1.8964   -6.5105   -1.7549 C   0  0  0  0  0  0  0  0  0  0  0  0
    2.5782   -5.6596   -0.8825 C   0  0  0  0  0  0  0  0  0  0  0  0
    2.3362   -2.5738    0.3387 C   0  0  0  0  0  0  0  0  0  0  0  0
    3.4213   -1.6590    0.2132 C   0  0  0  0  0  0  0  0  0  0  0  0
    3.2604   -0.4293   -0.4235 C   0  0  0  0  0  0  0  0  0  0  0  0
    2.0013   -0.0553   -0.9196 C   0  0  0  0  0  0  0  0  0  0  0  0
    1.7460    1.6052   -1.5988 S   0  0  0  0  0  0  0  0  0  0  0  0
    2.3879    1.3104   -3.2693 C   0  0  0  0  0  0  0  0  0  0  0  0
    0.9142   -0.9187   -0.7685 C   0  0  0  0  0  0  0  0  0  0  0  0
    1.0697   -2.1480   -0.1255 C   0  0  0  0  0  0  0  0  0  0  0  0
    4.8133   -4.2832    1.7364 C   0  0  0  0  0  0  0  0  0  0  0  0
    5.7940   -4.3351    0.4049 S   0  0  0  0  0  0  0  0  0  0  0  0
    7.2613   -4.0509    1.2380 C   0  0  0  0  0  0  0  0  0  0  0  0
    6.9719   -3.8831    2.6136 C   0  0  0  0  0  0  0  0  0  0  0  0
    7.9203   -3.3701    3.6061 N   0  0  0  0  0  0  0  0  0  0  0  0
    9.3634   -3.5911    3.5058 C   0  0  0  0  0  0  0  0  0  0  0  0
   10.2891   -2.5873    3.8914 C   0  0  0  0  0  0  0  0  0  0  0  0
   11.6667   -2.7799    3.7349 C   0  0  0  0  0  0  0  0  0  0  0  0
   12.1496   -3.9571    3.1681 C   0  0  0  0  0  0  0  0  0  0  0  0
   13.8956   -4.0732    2.6842 S   0  0  0  0  0  0  0  0  0  0  0  0
   14.5065   -4.8881    4.1869 C   0  0  0  0  0  0  0  0  0  0  0  0
   11.2560   -4.9759    2.8129 C   0  0  0  0  0  0  0  0  0  0  0  0
    9.8832   -4.7955    3.0018 C   0  0  0  0  0  0  0  0  0  0  0  0
    7.4379   -2.5232    4.6888 C   0  0  0  0  0  0  0  0  0  0  0  0
    6.6013   -1.4271    4.4279 C   0  0  0  0  0  0  0  0  0  0  0  0
    6.0984   -0.6479    5.4655 C   0  0  0  0  0  0  0  0  0  0  0  0
    6.4274   -0.9362    6.7970 C   0  0  0  0  0  0  0  0  0  0  0  0
    5.7573    0.0509    8.1428 S   0  0  0  0  0  0  0  0  0  0  0  0
    7.1443    1.2266    8.2232 C   0  0  0  0  0  0  0  0  0  0  0  0
    7.2766   -2.0275    7.0761 C   0  0  0  0  0  0  0  0  0  0  0  0
    7.7766   -2.7986    6.0329 C   0  0  0  0  0  0  0  0  0  0  0  0
    5.5708   -4.0730    2.8484 C   0  0  0  0  0  0  0  0  0  0  0  0
    4.5272   -3.8716    4.1460 S   0  0  0  0  0  0  0  0  0  0  0  0
    8.5043   -3.9101    0.4621 C   0  0  0  0  0  0  0  0  0  0  0  0
    8.9869   -2.7085    0.0559 C   0  0  0  0  0  0  0  0  0  0  0  0
    8.4861   -1.3967    0.4918 C   0  0  0  0  0  0  0  0  0  0  0  0
    7.7997   -1.1588    1.5288 O   0  0  0  0  0  0  0  0  0  0  0  0
    8.8644   -0.3937   -0.4340 C   0  0  0  0  0  0  0  0  0  0  0  0
    8.5151    0.9768   -0.3879 C   0  0  0  0  0  0  0  0  0  0  0  0
    8.9439    1.6873   -1.4811 C   0  0  0  0  0  0  0  0  0  0  0  0
    9.6642    1.0939   -2.5871 C   0  0  0  0  0  0  0  0  0  0  0  0
   10.0581   -0.2373   -2.6299 C   0  0  0  0  0  0  0  0  0  0  0  0
    9.6302   -0.9961   -1.4940 C   0  0  0  0  0  0  0  0  0  0  0  0
    9.8437   -2.4242   -1.1421 C   0  0  0  0  0  0  0  0  0  0  0  0
   10.7578   -3.2667   -1.7344 C   0  0  0  0  0  0  0  0  0  0  0  0
   11.1148   -4.5468   -1.1344 C   0  0  0  0  0  0  0  0  0  0  0  0
   11.4875   -5.4830   -0.5890 N   0  0  0  0  0  0  0  0  0  0  0  0
   11.6802   -2.7979   -2.7416 C   0  0  0  0  0  0  0  0  0  0  0  0
   12.4821   -2.4475   -3.5327 N   0  0  0  0  0  0  0  0  0  0  0  0
    9.5773    2.3754   -3.3409 C   0  0  0  0  0  0  0  0  0  0  0  0
    8.4342    2.4580   -4.4288 C   0  0  0  0  0  0  0  0  0  0  0  0
    8.4173    3.9062   -4.8547 C   0  0  0  0  0  0  0  0  0  0  0  0
    7.9981    4.5948   -3.7881 C   0  0  0  0  0  0  0  0  0  0  0  0
    7.6340    3.5767   -2.7142 C   0  0  0  0  0  0  0  0  0  0  0  0
    7.1350    2.4464   -3.6263 C   0  0  0  0  0  0  0  0  0  0  0  0
    8.9807    3.0329   -2.1633 C   0  0  0  0  0  0  0  0  0  0  0  0
   -7.4200    1.7525   -4.1845 H   0  0  0  0  0  0  0  0  0  0  0  0
   -3.5030    5.0482   -7.2390 H   0  0  0  0  0  0  0  0  0  0  0  0
   -6.0404    7.8933   -3.7281 H   0  0  0  0  0  0  0  0  0  0  0  0
   -3.1557    9.4910   -5.0463 H   0  0  0  0  0  0  0  0  0  0  0  0
   -4.9847   10.8916   -6.2296 H   0  0  0  0  0  0  0  0  0  0  0  0
   -6.6846    9.2789   -7.5532 H   0  0  0  0  0  0  0  0  0  0  0  0
   -5.3340    7.9007   -9.2256 H   0  0  0  0  0  0  0  0  0  0  0  0
   -2.7349    8.5398   -8.9818 H   0  0  0  0  0  0  0  0  0  0  0  0
   -3.8987   10.8960   -8.6290 H   0  0  0  0  0  0  0  0  0  0  0  0
   -2.6027   10.6879   -7.4281 H   0  0  0  0  0  0  0  0  0  0  0  0
   -1.9512    8.1629   -6.5568 H   0  0  0  0  0  0  0  0  0  0  0  0
   -9.0012   -2.4059   -2.5284 H   0  0  0  0  0  0  0  0  0  0  0  0
   -8.7570   -4.7983   -1.9032 H   0  0  0  0  0  0  0  0  0  0  0  0
   -7.0207   -5.4219    0.9900 H   0  0  0  0  0  0  0  0  0  0  0  0
   -6.0558   -6.9738    1.1324 H   0  0  0  0  0  0  0  0  0  0  0  0
   -5.1895   -5.4335    0.6646 H   0  0  0  0  0  0  0  0  0  0  0  0
   -4.4863   -4.2462   -1.5943 H   0  0  0  0  0  0  0  0  0  0  0  0
   -4.7371   -1.9360   -2.3349 H   0  0  0  0  0  0  0  0  0  0  0  0
   -9.1167   -1.0023   -4.5249 H   0  0  0  0  0  0  0  0  0  0  0  0
   -9.1199   -1.3291   -6.9387 H   0  0  0  0  0  0  0  0  0  0  0  0
   -6.0026   -3.3404   -9.7703 H   0  0  0  0  0  0  0  0  0  0  0  0
   -6.3087   -3.4850   -7.9960 H   0  0  0  0  0  0  0  0  0  0  0  0
   -7.6851   -3.5710   -9.1944 H   0  0  0  0  0  0  0  0  0  0  0  0
   -4.8438   -0.6467   -6.9774 H   0  0  0  0  0  0  0  0  0  0  0  0
   -4.8789   -0.3287   -4.5542 H   0  0  0  0  0  0  0  0  0  0  0  0
   -2.7184    1.5586    0.0331 H   0  0  0  0  0  0  0  0  0  0  0  0
   -1.2649    3.1074   -1.2163 H   0  0  0  0  0  0  0  0  0  0  0  0
   -0.0190    6.8661    0.6908 H   0  0  0  0  0  0  0  0  0  0  0  0
    0.8803    5.4401    0.0192 H   0  0  0  0  0  0  0  0  0  0  0  0
    1.0087    7.0604   -0.7829 H   0  0  0  0  0  0  0  0  0  0  0  0
   -2.8614    6.4150    1.0214 H   0  0  0  0  0  0  0  0  0  0  0  0
   -4.2974    4.8970    2.2681 H   0  0  0  0  0  0  0  0  0  0  0  0
   -7.1229    2.3528    2.7105 H   0  0  0  0  0  0  0  0  0  0  0  0
   -8.0210    3.1037    4.8274 H   0  0  0  0  0  0  0  0  0  0  0  0
   -7.9458    5.9348    6.4269 H   0  0  0  0  0  0  0  0  0  0  0  0
   -6.1594    6.0638    6.0389 H   0  0  0  0  0  0  0  0  0  0  0  0
   -6.7416    6.4091    7.7229 H   0  0  0  0  0  0  0  0  0  0  0  0
   -4.0071    3.6171    6.3281 H   0  0  0  0  0  0  0  0  0  0  0  0
   -3.0984    2.8604    4.1772 H   0  0  0  0  0  0  0  0  0  0  0  0
   -2.4869    0.7977    2.1795 H   0  0  0  0  0  0  0  0  0  0  0  0
   -1.1256    1.8700    3.4524 H   0  0  0  0  0  0  0  0  0  0  0  0
    3.0862    3.6242    1.4504 H   0  0  0  0  0  0  0  0  0  0  0  0
    3.9716    2.0748    1.5040 H   0  0  0  0  0  0  0  0  0  0  0  0
    3.4113    4.0133    3.8476 H   0  0  0  0  0  0  0  0  0  0  0  0
    3.9414    2.2974    4.1118 H   0  0  0  0  0  0  0  0  0  0  0  0
    5.0065    3.4224    3.2057 H   0  0  0  0  0  0  0  0  0  0  0  0
   -4.8837   -6.5299    7.7325 H   0  0  0  0  0  0  0  0  0  0  0  0
   -5.8982   -5.1647    7.1574 H   0  0  0  0  0  0  0  0  0  0  0  0
   -5.9478   -8.0363    6.0004 H   0  0  0  0  0  0  0  0  0  0  0  0
   -6.9539   -6.6559    5.4338 H   0  0  0  0  0  0  0  0  0  0  0  0
   -7.1497   -7.2922    7.1204 H   0  0  0  0  0  0  0  0  0  0  0  0
   -1.3620   -6.2483    4.3768 H   0  0  0  0  0  0  0  0  0  0  0  0
    0.5311   -5.3284    3.7334 H   0  0  0  0  0  0  0  0  0  0  0  0
    0.0163   -4.7950    1.1978 H   0  0  0  0  0  0  0  0  0  0  0  0
   -1.2156   -6.2351   -0.3830 H   0  0  0  0  0  0  0  0  0  0  0  0
   -1.2515   -5.6370   -3.5092 H   0  0  0  0  0  0  0  0  0  0  0  0
   -1.5580   -6.9849   -4.6532 H   0  0  0  0  0  0  0  0  0  0  0  0
    0.0784   -6.2770   -4.5652 H   0  0  0  0  0  0  0  0  0  0  0  0
    2.4410   -6.9940   -2.5547 H   0  0  0  0  0  0  0  0  0  0  0  0
    3.6152   -5.4626   -1.0529 H   0  0  0  0  0  0  0  0  0  0  0  0
    4.4005   -1.8823    0.6051 H   0  0  0  0  0  0  0  0  0  0  0  0
    4.1025    0.2520   -0.4880 H   0  0  0  0  0  0  0  0  0  0  0  0
    3.3503    1.8920   -3.3701 H   0  0  0  0  0  0  0  0  0  0  0  0
    1.6759    1.7866   -3.9993 H   0  0  0  0  0  0  0  0  0  0  0  0
    2.5172    0.2211   -3.5032 H   0  0  0  0  0  0  0  0  0  0  0  0
   -0.0806   -0.6148   -1.0742 H   0  0  0  0  0  0  0  0  0  0  0  0
    0.1783   -2.7373    0.0194 H   0  0  0  0  0  0  0  0  0  0  0  0
    9.9439   -1.6452    4.2975 H   0  0  0  0  0  0  0  0  0  0  0  0
   12.3260   -1.9536    3.9928 H   0  0  0  0  0  0  0  0  0  0  0  0
   13.8466   -5.7299    4.4796 H   0  0  0  0  0  0  0  0  0  0  0  0
   14.6012   -4.1487    5.0190 H   0  0  0  0  0  0  0  0  0  0  0  0
   15.5320   -5.2943    3.9673 H   0  0  0  0  0  0  0  0  0  0  0  0
   11.6117   -5.8657    2.3168 H   0  0  0  0  0  0  0  0  0  0  0  0
    9.2240   -5.6016    2.7089 H   0  0  0  0  0  0  0  0  0  0  0  0
    6.2570   -1.2247    3.4172 H   0  0  0  0  0  0  0  0  0  0  0  0
    5.3806    0.1406    5.2449 H   0  0  0  0  0  0  0  0  0  0  0  0
    8.0853    0.7683    7.8507 H   0  0  0  0  0  0  0  0  0  0  0  0
    7.2984    1.4959    9.2899 H   0  0  0  0  0  0  0  0  0  0  0  0
    6.9000    2.1380    7.6315 H   0  0  0  0  0  0  0  0  0  0  0  0
    7.5337   -2.2867    8.1085 H   0  0  0  0  0  0  0  0  0  0  0  0
    8.3963   -3.6564    6.2547 H   0  0  0  0  0  0  0  0  0  0  0  0
    8.8273   -4.7907   -0.0646 H   0  0  0  0  0  0  0  0  0  0  0  0
    7.8336    1.4072    0.3684 H   0  0  0  0  0  0  0  0  0  0  0  0
   10.5580   -0.6503   -3.5113 H   0  0  0  0  0  0  0  0  0  0  0  0
   10.5602    2.7495   -3.6410 H   0  0  0  0  0  0  0  0  0  0  0  0
    8.4724    1.7280   -5.2668 H   0  0  0  0  0  0  0  0  0  0  0  0
    8.6109    4.3258   -5.8420 H   0  0  0  0  0  0  0  0  0  0  0  0
    7.8983    5.6794   -3.7518 H   0  0  0  0  0  0  0  0  0  0  0  0
    6.9337    3.9324   -1.9309 H   0  0  0  0  0  0  0  0  0  0  0  0
    6.9212    1.4966   -3.0983 H   0  0  0  0  0  0  0  0  0  0  0  0
    6.2103    2.7317   -4.1996 H   0  0  0  0  0  0  0  0  0  0  0  0
    9.6740    3.7660   -1.6792 H   0  0  0  0  0  0  0  0  0  0  0  0
  1  2  2  3
  2  3  1  0
  3  4  2  0
  3  5  1  0
  5  6  2  0
  6  7  1  0
  7  8  2  0
  8  9  1  0
  9 10  2  0
 10 11  1  0
 11 12  2  3
 12 13  1  0
 13 14  3  0
 12 15  1  0
 15 16  3  0
  8 17  1  0
 17 18  1  0
 18 19  1  0
 19 20  2  0
 20 21  1  0
 21 22  1  0
 21 23  1  0
  1 24  1  0
 24 25  2  0
 25 26  1  0
 26 27  1  0
 27 28  2  0
 28 29  1  0
 29 30  2  0
 30 31  1  0
 31 32  1  0
 30 33  1  0
 33 34  2  0
 26 35  1  0
 35 36  2  0
 36 37  1  0
 37 38  2  0
 38 39  1  0
 39 40  1  0
 38 41  1  0
 41 42  2  0
 25 43  1  0
 43 44  1  0
 44 45  1  0
 45 46  2  0
 46 47  1  0
 47 48  1  0
 48 49  2  0
 49 50  1  0
 50 51  2  0
 51 52  1  0
 52 53  1  0
 51 54  1  0
 54 55  2  0
 47 56  1  0
 56 57  2  0
 57 58  1  0
 58 59  2  0
 59 60  1  0
 60 61  1  0
 59 62  1  0
 62 63  2  0
 46 64  1  0
 64 65  1  0
 45 66  1  0
 66 67  2  0
 67 68  1  0
 68 69  2  0
 69 70  1  0
 70 71  2  0
 71 72  1  0
 72 73  1  0
 72 74  2  0
 74 75  1  0
 75 76  1  0
 74 77  1  0
 69 78  1  0
 78 79  2  0
 79 80  1  0
 80 81  1  0
 81 82  1  0
 82 83  1  0
 83 84  1  0
 84 85  1  0
 83 86  2  0
 86 87  1  0
 86 88  1  0
 80 89  2  0
 89 90  1  0
 79 91  1  0
 91 92  2  0
 92 93  1  0
 92 94  1  0
 94 95  2  0
 95 96  1  0
 96 97  1  0
 97 98  2  0
 98 99  1  0
 99100  2  0
100101  1  0
101102  1  0
100103  1  0
103104  2  0
 96105  1  0
105106  2  0
106107  1  0
107108  2  0
108109  1  0
109110  1  0
108111  1  0
111112  2  0
 95113  1  0
113114  1  0
114115  1  0
115116  2  0
116117  1  0
117118  1  0
118119  2  0
119120  1  0
120121  2  0
121122  1  0
122123  1  0
121124  1  0
124125  2  0
117126  1  0
126127  2  0
127128  1  0
128129  2  0
129130  1  0
130131  1  0
129132  1  0
132133  2  0
116134  1  0
134135  1  0
115136  1  0
136137  2  3
137138  1  0
138139  2  0
138140  1  0
140141  2  0
141142  1  0
142143  2  0
143144  1  0
144145  2  0
145146  1  0
146147  2  3
147148  1  0
148149  3  0
147150  1  0
150151  3  0
143152  1  0
152153  1  0
153154  1  0
154155  2  0
155156  1  0
156157  1  0
156158  1  0
 11  2  1  0
 23 17  1  0
 65 24  1  0
 90 66  1  0
135 94  1  0
146137  1  0
158152  1  0
 10  5  1  0
 22 18  1  0
 34 27  1  0
 42 35  1  0
 64 43  2  0
 89 68  1  0
104 97  1  0
112105  1  0
134113  2  0
145140  1  0
157153  1  0
 23  7  1  0
 55 48  1  0
 63 56  1  0
 77 70  1  0
 93 78  1  0
125118  1  0
133126  1  0
158142  1  0
 87 81  2  0
  1159  1  0
  6160  1  0
  9161  1  0
 17162  1  0
 18163  1  0
 19164  1  0
 20165  1  0
 21166  1  0
 22167  1  0
 22168  1  0
 23169  1  0
 28170  1  0
 29171  1  0
 32172  1  0
 32173  1  0
 32174  1  0
 33175  1  0
 34176  1  0
 36177  1  0
 37178  1  0
 40179  1  0
 40180  1  0
 40181  1  0
 41182  1  0
 42183  1  0
 49184  1  0
 50185  1  0
 53186  1  0
 53187  1  0
 53188  1  0
 54189  1  0
 55190  1  0
 57191  1  0
 58192  1  0
 61193  1  0
 61194  1  0
 61195  1  0
 62196  1  0
 63197  1  0
 67198  1  0
 71199  1  0
 75200  1  0
 75201  1  0
 76202  1  0
 76203  1  0
 76204  1  0
 84205  1  0
 84206  1  0
 85207  1  0
 85208  1  0
 85209  1  0
 87210  1  0
 91211  1  0
 98212  1  0
 99213  1  0
102214  1  0
102215  1  0
102216  1  0
103217  1  0
104218  1  0
106219  1  0
107220  1  0
110221  1  0
110222  1  0
110223  1  0
111224  1  0
112225  1  0
119226  1  0
120227  1  0
123228  1  0
123229  1  0
123230  1  0
124231  1  0
125232  1  0
127233  1  0
128234  1  0
131235  1  0
131236  1  0
131237  1  0
132238  1  0
133239  1  0
136240  1  0
141241  1  0
144242  1  0
152243  1  0
153244  1  0
154245  1  0
155246  1  0
156247  1  0
157248  1  0
157249  1  0
158250  1  0
M  END

