
     RDKit          3D

242265  0  0  0  0  0  0  0  0999 V2000
   -2.4709    4.8471    6.1113 C   0  0  0  0  0  0  0  0  0  0  0  0
   -3.1507    4.0185    6.9302 C   0  0  0  0  0  0  0  0  0  0  0  0
   -2.5927    2.8175    7.5440 C   0  0  0  0  0  0  0  0  0  0  0  0
   -1.4505    2.7251    8.0639 O   0  0  0  0  0  0  0  0  0  0  0  0
   -3.5620    1.7495    7.4821 C   0  0  0  0  0  0  0  0  0  0  0  0
   -3.3051    0.3648    7.6182 C   0  0  0  0  0  0  0  0  0  0  0  0
   -4.3437   -0.4421    7.1917 C   0  0  0  0  0  0  0  0  0  0  0  0
   -5.5735    0.0758    6.6588 C   0  0  0  0  0  0  0  0  0  0  0  0
   -5.8262    1.4279    6.5216 C   0  0  0  0  0  0  0  0  0  0  0  0
   -4.7741    2.2753    6.9763 C   0  0  0  0  0  0  0  0  0  0  0  0
   -4.6127    3.7388    6.7691 C   0  0  0  0  0  0  0  0  0  0  0  0
   -5.6075    4.6424    6.5795 C   0  0  0  0  0  0  0  0  0  0  0  0
   -5.3557    6.0515    6.4572 C   0  0  0  0  0  0  0  0  0  0  0  0
   -5.1671    7.1932    6.3641 N   0  0  0  0  0  0  0  0  0  0  0  0
   -6.9926    4.2757    6.6910 C   0  0  0  0  0  0  0  0  0  0  0  0
   -8.1127    3.9916    6.7881 N   0  0  0  0  0  0  0  0  0  0  0  0
   -6.0613   -1.3190    6.4001 C   0  0  0  0  0  0  0  0  0  0  0  0
   -7.1393   -1.8725    7.3777 C   0  0  0  0  0  0  0  0  0  0  0  0
   -7.1798   -3.3633    7.1424 C   0  0  0  0  0  0  0  0  0  0  0  0
   -6.0256   -3.8559    7.6325 C   0  0  0  0  0  0  0  0  0  0  0  0
   -5.2561   -2.6711    8.1721 C   0  0  0  0  0  0  0  0  0  0  0  0
   -6.4242   -1.8651    8.7195 C   0  0  0  0  0  0  0  0  0  0  0  0
   -4.8023   -1.8476    6.9343 C   0  0  0  0  0  0  0  0  0  0  0  0
   -1.3616    4.3995    5.2314 C   0  0  0  0  0  0  0  0  0  0  0  0
   -1.0475    5.0436    4.0247 C   0  0  0  0  0  0  0  0  0  0  0  0
   -1.3010    6.4266    3.7531 N   0  0  0  0  0  0  0  0  0  0  0  0
   -2.5758    6.8525    3.2287 C   0  0  0  0  0  0  0  0  0  0  0  0
   -3.3094    6.0181    2.3650 C   0  0  0  0  0  0  0  0  0  0  0  0
   -4.5348    6.4455    1.8419 C   0  0  0  0  0  0  0  0  0  0  0  0
   -5.0407    7.7049    2.1807 C   0  0  0  0  0  0  0  0  0  0  0  0
   -6.6161    8.2636    1.5308 S   0  0  0  0  0  0  0  0  0  0  0  0
   -5.8761    9.1159    0.1021 C   0  0  0  0  0  0  0  0  0  0  0  0
   -4.3242    8.5321    3.0523 C   0  0  0  0  0  0  0  0  0  0  0  0
   -3.1013    8.1065    3.5755 C   0  0  0  0  0  0  0  0  0  0  0  0
   -0.2005    7.3430    3.8789 C   0  0  0  0  0  0  0  0  0  0  0  0
    0.1770    8.1573    2.7997 C   0  0  0  0  0  0  0  0  0  0  0  0
    1.3347    8.9411    2.8713 C   0  0  0  0  0  0  0  0  0  0  0  0
    2.1154    8.9266    4.0350 C   0  0  0  0  0  0  0  0  0  0  0  0
    3.6133    9.9098    4.1348 S   0  0  0  0  0  0  0  0  0  0  0  0
    4.6868    8.5187    3.6447 C   0  0  0  0  0  0  0  0  0  0  0  0
    1.7259    8.1487    5.1282 C   0  0  0  0  0  0  0  0  0  0  0  0
    0.5801    7.3537    5.0494 C   0  0  0  0  0  0  0  0  0  0  0  0
   -0.3379    4.2170    3.1572 C   0  0  0  0  0  0  0  0  0  0  0  0
    0.1104    4.3162    1.5463 S   0  0  0  0  0  0  0  0  0  0  0  0
    0.6725    2.7077    1.4848 C   0  0  0  0  0  0  0  0  0  0  0  0
    0.5345    2.0977    2.7455 C   0  0  0  0  0  0  0  0  0  0  0  0
    1.3363    0.9892    3.1914 N   0  0  0  0  0  0  0  0  0  0  0  0
    0.7397   -0.2888    3.5110 C   0  0  0  0  0  0  0  0  0  0  0  0
   -0.5962   -0.3997    3.9494 C   0  0  0  0  0  0  0  0  0  0  0  0
   -1.0463   -1.5810    4.5570 C   0  0  0  0  0  0  0  0  0  0  0  0
   -0.1962   -2.6846    4.6721 C   0  0  0  0  0  0  0  0  0  0  0  0
   -0.6533   -4.1008    5.6878 S   0  0  0  0  0  0  0  0  0  0  0  0
   -1.9115   -4.7599    4.5484 C   0  0  0  0  0  0  0  0  0  0  0  0
    1.0863   -2.6257    4.1127 C   0  0  0  0  0  0  0  0  0  0  0  0
    1.5497   -1.4374    3.5405 C   0  0  0  0  0  0  0  0  0  0  0  0
    2.5896    1.3623    3.8158 C   0  0  0  0  0  0  0  0  0  0  0  0
    3.4801    2.2305    3.1594 C   0  0  0  0  0  0  0  0  0  0  0  0
    4.6042    2.7313    3.8200 C   0  0  0  0  0  0  0  0  0  0  0  0
    4.8680    2.3567    5.1407 C   0  0  0  0  0  0  0  0  0  0  0  0
    6.2887    3.0385    6.0018 S   0  0  0  0  0  0  0  0  0  0  0  0
    7.4337    1.7785    5.3583 C   0  0  0  0  0  0  0  0  0  0  0  0
    3.9948    1.4874    5.8050 C   0  0  0  0  0  0  0  0  0  0  0  0
    2.8572    1.0003    5.1522 C   0  0  0  0  0  0  0  0  0  0  0  0
   -0.0523    2.9875    3.6389 C   0  0  0  0  0  0  0  0  0  0  0  0
   -0.6712    2.8341    5.1813 S   0  0  0  0  0  0  0  0  0  0  0  0
    1.0476    2.0448    0.2328 C   0  0  0  0  0  0  0  0  0  0  0  0
    0.3908    0.9350   -0.3390 C   0  0  0  0  0  0  0  0  0  0  0  0
   -0.6426    0.1490    0.2817 N   0  0  0  0  0  0  0  0  0  0  0  0
   -1.9886    0.6330    0.0720 C   0  0  0  0  0  0  0  0  0  0  0  0
   -2.7717    0.1102   -0.9747 C   0  0  0  0  0  0  0  0  0  0  0  0
   -4.0561    0.6138   -1.2191 C   0  0  0  0  0  0  0  0  0  0  0  0
   -4.5592    1.6661   -0.4413 C   0  0  0  0  0  0  0  0  0  0  0  0
   -6.1729    2.3701   -0.7955 S   0  0  0  0  0  0  0  0  0  0  0  0
   -7.0211    1.4463    0.5256 C   0  0  0  0  0  0  0  0  0  0  0  0
   -3.7844    2.1895    0.5980 C   0  0  0  0  0  0  0  0  0  0  0  0
   -2.5161    1.6595    0.8710 C   0  0  0  0  0  0  0  0  0  0  0  0
   -0.4153   -1.2737    0.5110 C   0  0  0  0  0  0  0  0  0  0  0  0
   -1.4508   -2.1022    1.0003 C   0  0  0  0  0  0  0  0  0  0  0  0
   -1.2796   -3.4872    1.0869 C   0  0  0  0  0  0  0  0  0  0  0  0
   -0.0680   -4.0781    0.7069 C   0  0  0  0  0  0  0  0  0  0  0  0
    0.1190   -5.8599    0.7084 S   0  0  0  0  0  0  0  0  0  0  0  0
    1.2286   -5.8859    2.1531 C   0  0  0  0  0  0  0  0  0  0  0  0
    0.9827   -3.2639    0.2762 C   0  0  0  0  0  0  0  0  0  0  0  0
    0.8293   -1.8802    0.2108 C   0  0  0  0  0  0  0  0  0  0  0  0
    0.8289    0.7177   -1.6398 C   0  0  0  0  0  0  0  0  0  0  0  0
    0.4212   -0.3898   -2.8235 S   0  0  0  0  0  0  0  0  0  0  0  0
    1.5165    0.2378   -3.9661 C   0  0  0  0  0  0  0  0  0  0  0  0
    2.2117    1.3298   -3.4128 C   0  0  0  0  0  0  0  0  0  0  0  0
    3.1297    2.1769   -4.1300 N   0  0  0  0  0  0  0  0  0  0  0  0
    4.2198    1.5991   -4.8735 C   0  0  0  0  0  0  0  0  0  0  0  0
    4.5450    2.0894   -6.1505 C   0  0  0  0  0  0  0  0  0  0  0  0
    5.6377    1.5783   -6.8548 C   0  0  0  0  0  0  0  0  0  0  0  0
    6.4216    0.5697   -6.2856 C   0  0  0  0  0  0  0  0  0  0  0  0
    7.8724   -0.0298   -7.1582 S   0  0  0  0  0  0  0  0  0  0  0  0
    6.9491   -1.2571   -8.1267 C   0  0  0  0  0  0  0  0  0  0  0  0
    6.0994    0.0601   -5.0252 C   0  0  0  0  0  0  0  0  0  0  0  0
    5.0081    0.5770   -4.3173 C   0  0  0  0  0  0  0  0  0  0  0  0
    2.9472    3.6109   -4.0757 C   0  0  0  0  0  0  0  0  0  0  0  0
    4.0571    4.4726   -4.0078 C   0  0  0  0  0  0  0  0  0  0  0  0
    3.8779    5.8568   -3.9218 C   0  0  0  0  0  0  0  0  0  0  0  0
    2.5900    6.3930   -3.8974 C   0  0  0  0  0  0  0  0  0  0  0  0
    2.3630    8.1707   -3.8409 S   0  0  0  0  0  0  0  0  0  0  0  0
    2.2370    8.3064   -5.6538 C   0  0  0  0  0  0  0  0  0  0  0  0
    1.4761    5.5498   -3.9328 C   0  0  0  0  0  0  0  0  0  0  0  0
    1.6505    4.1639   -4.0442 C   0  0  0  0  0  0  0  0  0  0  0  0
    1.7849    1.5668   -2.0986 C   0  0  0  0  0  0  0  0  0  0  0  0
    2.1309    2.7094   -0.9167 S   0  0  0  0  0  0  0  0  0  0  0  0
    1.7375   -0.4231   -5.2540 C   0  0  0  0  0  0  0  0  0  0  0  0
    0.6942   -0.6309   -6.1568 C   0  0  0  0  0  0  0  0  0  0  0  0
    0.7907   -1.8441   -6.8554 C   0  0  0  0  0  0  0  0  0  0  0  0
   -0.2311   -2.4364   -7.6337 C   0  0  0  0  0  0  0  0  0  0  0  0
   -1.4476   -1.6838   -8.0030 C   0  0  0  0  0  0  0  0  0  0  0  0
   -2.7016   -2.0586   -7.5006 C   0  0  0  0  0  0  0  0  0  0  0  0
   -3.8575   -1.3613   -7.8729 C   0  0  0  0  0  0  0  0  0  0  0  0
   -5.0339   -1.7353   -7.3080 F   0  0  0  0  0  0  0  0  0  0  0  0
   -3.7661   -0.2719   -8.7734 C   0  0  0  0  0  0  0  0  0  0  0  0
   -4.8836    0.4506   -9.2419 O   0  0  0  0  0  0  0  0  0  0  0  0
   -6.2619    0.1554   -9.0185 C   0  0  0  0  0  0  0  0  0  0  0  0
   -6.6934   -1.0655   -9.8398 C   0  0  0  0  0  0  0  0  0  0  0  0
   -2.5017    0.1176   -9.2457 C   0  0  0  0  0  0  0  0  0  0  0  0
   -2.3913    1.1885  -10.0693 F   0  0  0  0  0  0  0  0  0  0  0  0
   -1.3514   -0.5714   -8.8498 C   0  0  0  0  0  0  0  0  0  0  0  0
   -0.0893   -3.8024   -7.9372 C   0  0  0  0  0  0  0  0  0  0  0  0
    1.0136   -4.5511   -7.5076 C   0  0  0  0  0  0  0  0  0  0  0  0
    2.0776   -3.9372   -6.8229 C   0  0  0  0  0  0  0  0  0  0  0  0
    3.1633   -4.7223   -6.2072 C   0  0  0  0  0  0  0  0  0  0  0  0
    4.4112   -4.8312   -6.8327 C   0  0  0  0  0  0  0  0  0  0  0  0
    5.4577   -5.4990   -6.1874 C   0  0  0  0  0  0  0  0  0  0  0  0
    5.2809   -6.0398   -4.9053 C   0  0  0  0  0  0  0  0  0  0  0  0
    6.3757   -6.6558   -4.2847 O   0  0  0  0  0  0  0  0  0  0  0  0
    6.6940   -6.5617   -2.8922 C   0  0  0  0  0  0  0  0  0  0  0  0
    7.0059   -5.1163   -2.5120 C   0  0  0  0  0  0  0  0  0  0  0  0
    4.0084   -5.9664   -4.2992 C   0  0  0  0  0  0  0  0  0  0  0  0
    2.9588   -5.3075   -4.9502 C   0  0  0  0  0  0  0  0  0  0  0  0
    3.7575   -6.5478   -3.1023 F   0  0  0  0  0  0  0  0  0  0  0  0
    6.6696   -5.5755   -6.7877 F   0  0  0  0  0  0  0  0  0  0  0  0
    1.9238   -2.5844   -6.5029 C   0  0  0  0  0  0  0  0  0  0  0  0
    2.7897   -1.7318   -5.3460 S   0  0  0  0  0  0  0  0  0  0  0  0
    0.8450   -5.9365   -7.6844 C   0  0  0  0  0  0  0  0  0  0  0  0
   -0.3967   -6.2622   -8.2261 C   0  0  0  0  0  0  0  0  0  0  0  0
   -1.2423   -4.8407   -8.5767 S   0  0  0  0  0  0  0  0  0  0  0  0
   -0.9846   -7.6130   -8.2756 C   0  0  0  0  0  0  0  0  0  0  0  0
   -0.8881   -8.5101   -7.2734 C   0  0  0  0  0  0  0  0  0  0  0  0
   -1.0421   -9.9530   -7.4882 C   0  0  0  0  0  0  0  0  0  0  0  0
   -1.5703  -10.5178   -8.4820 O   0  0  0  0  0  0  0  0  0  0  0  0
   -0.4160  -10.6087   -6.3690 C   0  0  0  0  0  0  0  0  0  0  0  0
   -0.2721  -12.1841   -5.8107 S   0  0  0  0  0  0  0  0  0  0  0  0
    0.4409  -11.6848   -4.3518 C   0  0  0  0  0  0  0  0  0  0  0  0
    0.8940  -12.7661   -3.0458 Cl  0  0  0  0  0  0  0  0  0  0  0  0
    0.5287  -10.2925   -4.2897 C   0  0  0  0  0  0  0  0  0  0  0  0
    0.0421   -9.7063   -5.4637 C   0  0  0  0  0  0  0  0  0  0  0  0
   -0.3096   -8.3375   -5.8950 C   0  0  0  0  0  0  0  0  0  0  0  0
   -0.4551   -7.2786   -5.0633 C   0  0  0  0  0  0  0  0  0  0  0  0
   -1.3773   -6.2098   -5.3432 C   0  0  0  0  0  0  0  0  0  0  0  0
   -2.1315   -5.3586   -5.5429 N   0  0  0  0  0  0  0  0  0  0  0  0
    0.1683   -7.2271   -3.7635 C   0  0  0  0  0  0  0  0  0  0  0  0
    0.6647   -7.1660   -2.7243 N   0  0  0  0  0  0  0  0  0  0  0  0
   -2.9667    5.7274    5.7529 H   0  0  0  0  0  0  0  0  0  0  0  0
   -2.3530   -0.0365    7.9357 H   0  0  0  0  0  0  0  0  0  0  0  0
   -6.7200    1.7817    6.0265 H   0  0  0  0  0  0  0  0  0  0  0  0
   -6.2319   -1.5300    5.3203 H   0  0  0  0  0  0  0  0  0  0  0  0
   -8.1234   -1.3587    7.3439 H   0  0  0  0  0  0  0  0  0  0  0  0
   -8.0072   -3.9400    6.7612 H   0  0  0  0  0  0  0  0  0  0  0  0
   -5.7598   -4.9057    7.7184 H   0  0  0  0  0  0  0  0  0  0  0  0
   -4.4514   -2.9163    8.8998 H   0  0  0  0  0  0  0  0  0  0  0  0
   -6.1464   -0.8517    9.0880 H   0  0  0  0  0  0  0  0  0  0  0  0
   -6.9868   -2.3971    9.5235 H   0  0  0  0  0  0  0  0  0  0  0  0
   -4.1862   -2.3899    6.1834 H   0  0  0  0  0  0  0  0  0  0  0  0
   -2.9292    5.0420    2.0714 H   0  0  0  0  0  0  0  0  0  0  0  0
   -5.0857    5.7989    1.1602 H   0  0  0  0  0  0  0  0  0  0  0  0
   -5.0187    9.7483    0.4186 H   0  0  0  0  0  0  0  0  0  0  0  0
   -6.6402    9.7703   -0.3651 H   0  0  0  0  0  0  0  0  0  0  0  0
   -5.5291    8.3713   -0.6427 H   0  0  0  0  0  0  0  0  0  0  0  0
   -4.7158    9.4990    3.3255 H   0  0  0  0  0  0  0  0  0  0  0  0
   -2.5731    8.7473    4.2679 H   0  0  0  0  0  0  0  0  0  0  0  0
   -0.4085    8.1591    1.8906 H   0  0  0  0  0  0  0  0  0  0  0  0
    1.6382    9.5397    2.0233 H   0  0  0  0  0  0  0  0  0  0  0  0
    4.6280    7.7082    4.4009 H   0  0  0  0  0  0  0  0  0  0  0  0
    4.3773    8.1188    2.6596 H   0  0  0  0  0  0  0  0  0  0  0  0
    5.7360    8.8710    3.5821 H   0  0  0  0  0  0  0  0  0  0  0  0
    2.3364    8.1281    6.0273 H   0  0  0  0  0  0  0  0  0  0  0  0
    0.3057    6.7383    5.8970 H   0  0  0  0  0  0  0  0  0  0  0  0
   -1.2806    0.4311    3.8832 H   0  0  0  0  0  0  0  0  0  0  0  0
   -2.0485   -1.6234    4.9567 H   0  0  0  0  0  0  0  0  0  0  0  0
   -2.7684   -4.0514    4.4882 H   0  0  0  0  0  0  0  0  0  0  0  0
   -1.4844   -4.9305    3.5424 H   0  0  0  0  0  0  0  0  0  0  0  0
   -2.2864   -5.7171    4.9532 H   0  0  0  0  0  0  0  0  0  0  0  0
    1.7598   -3.4683    4.1952 H   0  0  0  0  0  0  0  0  0  0  0  0
    2.5727   -1.3841    3.1821 H   0  0  0  0  0  0  0  0  0  0  0  0
    3.2933    2.5491    2.1444 H   0  0  0  0  0  0  0  0  0  0  0  0
    5.2639    3.4199    3.3093 H   0  0  0  0  0  0  0  0  0  0  0  0
    8.4431    1.9570    5.7833 H   0  0  0  0  0  0  0  0  0  0  0  0
    7.4961    1.8487    4.2522 H   0  0  0  0  0  0  0  0  0  0  0  0
    7.0966    0.7610    5.6528 H   0  0  0  0  0  0  0  0  0  0  0  0
    4.1854    1.2127    6.8336 H   0  0  0  0  0  0  0  0  0  0  0  0
    2.1669    0.3727    5.7032 H   0  0  0  0  0  0  0  0  0  0  0  0
   -2.3830   -0.6756   -1.6065 H   0  0  0  0  0  0  0  0  0  0  0  0
   -4.6448    0.2057   -2.0332 H   0  0  0  0  0  0  0  0  0  0  0  0
   -6.8470    0.3553    0.4036 H   0  0  0  0  0  0  0  0  0  0  0  0
   -6.6559    1.7823    1.5194 H   0  0  0  0  0  0  0  0  0  0  0  0
   -8.1107    1.6479    0.4584 H   0  0  0  0  0  0  0  0  0  0  0  0
   -4.1680    3.0013    1.2011 H   0  0  0  0  0  0  0  0  0  0  0  0
   -1.9586    2.0624    1.6947 H   0  0  0  0  0  0  0  0  0  0  0  0
   -2.4064   -1.6844    1.2892 H   0  0  0  0  0  0  0  0  0  0  0  0
   -2.1053   -4.1063    1.4211 H   0  0  0  0  0  0  0  0  0  0  0  0
    1.4801   -6.9375    2.3971 H   0  0  0  0  0  0  0  0  0  0  0  0
    0.7358   -5.4227    3.0294 H   0  0  0  0  0  0  0  0  0  0  0  0
    2.1724   -5.3424    1.9233 H   0  0  0  0  0  0  0  0  0  0  0  0
    1.9262   -3.7050   -0.0063 H   0  0  0  0  0  0  0  0  0  0  0  0
    1.6828   -1.2930   -0.0992 H   0  0  0  0  0  0  0  0  0  0  0  0
    3.9467    2.8723   -6.6023 H   0  0  0  0  0  0  0  0  0  0  0  0
    5.8806    1.9780   -7.8335 H   0  0  0  0  0  0  0  0  0  0  0  0
    6.4265   -1.9609   -7.4521 H   0  0  0  0  0  0  0  0  0  0  0  0
    7.6568   -1.8228   -8.7654 H   0  0  0  0  0  0  0  0  0  0  0  0
    6.2161   -0.7436   -8.7798 H   0  0  0  0  0  0  0  0  0  0  0  0
    6.7053   -0.7203   -4.5827 H   0  0  0  0  0  0  0  0  0  0  0  0
    4.7861    0.1855   -3.3306 H   0  0  0  0  0  0  0  0  0  0  0  0
    5.0608    4.0668   -3.9997 H   0  0  0  0  0  0  0  0  0  0  0  0
    4.7430    6.5077   -3.8641 H   0  0  0  0  0  0  0  0  0  0  0  0
    3.0562    7.7479   -6.1517 H   0  0  0  0  0  0  0  0  0  0  0  0
    1.2596    7.8994   -5.9837 H   0  0  0  0  0  0  0  0  0  0  0  0
    2.3024    9.3728   -5.9484 H   0  0  0  0  0  0  0  0  0  0  0  0
    0.4744    5.9651   -3.9186 H   0  0  0  0  0  0  0  0  0  0  0  0
    0.7738    3.5283   -4.1138 H   0  0  0  0  0  0  0  0  0  0  0  0
   -0.1932   -0.0160   -6.1561 H   0  0  0  0  0  0  0  0  0  0  0  0
   -2.7841   -2.8960   -6.8198 H   0  0  0  0  0  0  0  0  0  0  0  0
   -6.8666    1.0198   -9.3645 H   0  0  0  0  0  0  0  0  0  0  0  0
   -6.4703    0.0184   -7.9387 H   0  0  0  0  0  0  0  0  0  0  0  0
   -6.5354   -0.8630  -10.9201 H   0  0  0  0  0  0  0  0  0  0  0  0
   -7.7723   -1.2680   -9.6679 H   0  0  0  0  0  0  0  0  0  0  0  0
   -6.1101   -1.9646   -9.5474 H   0  0  0  0  0  0  0  0  0  0  0  0
   -0.3856   -0.2557   -9.2303 H   0  0  0  0  0  0  0  0  0  0  0  0
    4.5761   -4.3852   -7.8065 H   0  0  0  0  0  0  0  0  0  0  0  0
    7.5994   -7.1767   -2.7006 H   0  0  0  0  0  0  0  0  0  0  0  0
    5.8835   -6.9721   -2.2575 H   0  0  0  0  0  0  0  0  0  0  0  0
    7.3489   -5.0712   -1.4540 H   0  0  0  0  0  0  0  0  0  0  0  0
    7.8143   -4.7248   -3.1683 H   0  0  0  0  0  0  0  0  0  0  0  0
    6.0990   -4.4795   -2.6213 H   0  0  0  0  0  0  0  0  0  0  0  0
    1.9985   -5.2162   -4.4644 H   0  0  0  0  0  0  0  0  0  0  0  0
    1.5599   -6.6737   -7.3590 H   0  0  0  0  0  0  0  0  0  0  0  0
   -1.4552   -7.9060   -9.2003 H   0  0  0  0  0  0  0  0  0  0  0  0
    0.9027   -9.7536   -3.4311 H   0  0  0  0  0  0  0  0  0  0  0  0
  1  2  2  3
  2  3  1  0
  3  4  2  0
  3  5  1  0
  5  6  2  0
  6  7  1  0
  7  8  2  0
  8  9  1  0
  9 10  2  0
 10 11  1  0
 11 12  2  3
 12 13  1  0
 13 14  3  0
 12 15  1  0
 15 16  3  0
  8 17  1  0
 17 18  1  0
 18 19  1  0
 19 20  2  0
 20 21  1  0
 21 22  1  0
 21 23  1  0
  1 24  1  0
 24 25  2  0
 25 26  1  0
 26 27  1  0
 27 28  2  0
 28 29  1  0
 29 30  2  0
 30 31  1  0
 31 32  1  0
 30 33  1  0
 33 34  2  0
 26 35  1  0
 35 36  2  0
 36 37  1  0
 37 38  2  0
 38 39  1  0
 39 40  1  0
 38 41  1  0
 41 42  2  0
 25 43  1  0
 43 44  1  0
 44 45  1  0
 45 46  2  0
 46 47  1  0
 47 48  1  0
 48 49  2  0
 49 50  1  0
 50 51  2  0
 51 52  1  0
 52 53  1  0
 51 54  1  0
 54 55  2  0
 47 56  1  0
 56 57  2  0
 57 58  1  0
 58 59  2  0
 59 60  1  0
 60 61  1  0
 59 62  1  0
 62 63  2  0
 46 64  1  0
 64 65  1  0
 45 66  1  0
 66 67  2  0
 67 68  1  0
 68 69  1  0
 69 70  2  0
 70 71  1  0
 71 72  2  0
 72 73  1  0
 73 74  1  0
 72 75  1  0
 75 76  2  0
 68 77  1  0
 77 78  2  0
 78 79  1  0
 79 80  2  0
 80 81  1  0
 81 82  1  0
 80 83  1  0
 83 84  2  0
 67 85  1  0
 85 86  1  0
 86 87  1  0
 87 88  2  0
 88 89  1  0
 89 90  1  0
 90 91  2  0
 91 92  1  0
 92 93  2  0
 93 94  1  0
 94 95  1  0
 93 96  1  0
 96 97  2  0
 89 98  1  0
 98 99  2  0
 99100  1  0
100101  2  0
101102  1  0
102103  1  0
101104  1  0
104105  2  0
 88106  1  0
106107  1  0
 87108  1  0
108109  2  0
109110  1  0
110111  2  0
111112  1  0
112113  2  0
113114  1  0
114115  1  0
114116  2  0
116117  1  0
117118  1  0
118119  1  0
116120  1  0
120121  1  0
120122  2  0
111123  1  0
123124  2  0
124125  1  0
125126  1  0
126127  2  0
127128  1  0
128129  2  0
129130  1  0
130131  1  0
131132  1  0
129133  1  0
133134  2  0
133135  1  0
128136  1  0
125137  2  0
137138  1  0
124139  1  0
139140  2  0
140141  1  0
140142  1  0
142143  2  3
143144  1  0
144145  2  0
144146  1  0
146147  1  0
147148  1  0
148149  1  0
148150  2  0
150151  1  0
151152  1  0
152153  2  3
153154  1  0
154155  3  0
153156  1  0
156157  3  0
 11  2  1  0
 23 17  1  0
 65 24  1  0
107 66  1  0
138108  1  0
152143  1  0
 10  5  1  0
 22 18  1  0
 34 27  1  0
 42 35  1  0
 64 43  2  0
 76 69  1  0
 84 77  1  0
106 85  2  0
137110  1  0
151146  2  0
 23  7  1  0
 55 48  1  0
 63 56  1  0
 97 90  1  0
105 98  1  0
122112  1  0
141123  1  0
134126  1  0
  1158  1  0
  6159  1  0
  9160  1  0
 17161  1  0
 18162  1  0
 19163  1  0
 20164  1  0
 21165  1  0
 22166  1  0
 22167  1  0
 23168  1  0
 28169  1  0
 29170  1  0
 32171  1  0
 32172  1  0
 32173  1  0
 33174  1  0
 34175  1  0
 36176  1  0
 37177  1  0
 40178  1  0
 40179  1  0
 40180  1  0
 41181  1  0
 42182  1  0
 49183  1  0
 50184  1  0
 53185  1  0
 53186  1  0
 53187  1  0
 54188  1  0
 55189  1  0
 57190  1  0
 58191  1  0
 61192  1  0
 61193  1  0
 61194  1  0
 62195  1  0
 63196  1  0
 70197  1  0
 71198  1  0
 74199  1  0
 74200  1  0
 74201  1  0
 75202  1  0
 76203  1  0
 78204  1  0
 79205  1  0
 82206  1  0
 82207  1  0
 82208  1  0
 83209  1  0
 84210  1  0
 91211  1  0
 92212  1  0
 95213  1  0
 95214  1  0
 95215  1  0
 96216  1  0
 97217  1  0
 99218  1  0
100219  1  0
103220  1  0
103221  1  0
103222  1  0
104223  1  0
105224  1  0
109225  1  0
113226  1  0
118227  1  0
118228  1  0
119229  1  0
119230  1  0
119231  1  0
122232  1  0
127233  1  0
131234  1  0
131235  1  0
132236  1  0
132237  1  0
132238  1  0
134239  1  0
139240  1  0
142241  1  0
150242  1  0
M  END

