
     RDKit          3D

178197  0  0  0  0  0  0  0  0999 V2000
    2.3901   -4.1598    5.1114 C   0  0  0  0  0  0  0  0  0  0  0  0
    2.0067   -2.9204    5.4787 C   0  0  0  0  0  0  0  0  0  0  0  0
    1.5869   -1.8631    4.5427 C   0  0  0  0  0  0  0  0  0  0  0  0
    1.9707   -1.7237    3.3514 O   0  0  0  0  0  0  0  0  0  0  0  0
    0.6353   -1.0012    5.2013 C   0  0  0  0  0  0  0  0  0  0  0  0
   -0.1990   -0.0398    4.5868 C   0  0  0  0  0  0  0  0  0  0  0  0
   -1.1824    0.4532    5.4179 C   0  0  0  0  0  0  0  0  0  0  0  0
   -1.3474    0.0307    6.7784 C   0  0  0  0  0  0  0  0  0  0  0  0
   -0.5228   -0.9027    7.3899 C   0  0  0  0  0  0  0  0  0  0  0  0
    0.5121   -1.4106    6.5536 C   0  0  0  0  0  0  0  0  0  0  0  0
    1.4739   -2.5210    6.8117 C   0  0  0  0  0  0  0  0  0  0  0  0
    1.9138   -2.9467    8.0212 C   0  0  0  0  0  0  0  0  0  0  0  0
    2.9640   -3.9226    8.1531 C   0  0  0  0  0  0  0  0  0  0  0  0
    3.8062   -4.7123    8.2720 N   0  0  0  0  0  0  0  0  0  0  0  0
    1.4568   -2.3533    9.2512 C   0  0  0  0  0  0  0  0  0  0  0  0
    1.0987   -1.8832   10.2477 N   0  0  0  0  0  0  0  0  0  0  0  0
   -2.5781    0.8777    6.9059 C   0  0  0  0  0  0  0  0  0  0  0  0
   -3.9432    0.1292    6.8769 C   0  0  0  0  0  0  0  0  0  0  0  0
   -4.9913    1.1875    6.6185 C   0  0  0  0  0  0  0  0  0  0  0  0
   -4.8280    1.5841    5.3508 C   0  0  0  0  0  0  0  0  0  0  0  0
   -3.6741    0.7829    4.7982 C   0  0  0  0  0  0  0  0  0  0  0  0
   -3.9435   -0.5349    5.5088 C   0  0  0  0  0  0  0  0  0  0  0  0
   -2.4009    1.3160    5.5169 C   0  0  0  0  0  0  0  0  0  0  0  0
    2.3152   -4.5691    3.6945 C   0  0  0  0  0  0  0  0  0  0  0  0
    1.0535   -4.8213    3.1158 C   0  0  0  0  0  0  0  0  0  0  0  0
   -0.1428   -5.0264    3.8239 C   0  0  0  0  0  0  0  0  0  0  0  0
   -1.2679   -5.0148    3.0049 C   0  0  0  0  0  0  0  0  0  0  0  0
   -2.6876   -5.0953    3.4823 C   0  0  0  0  0  0  0  0  0  0  0  0
   -3.4689   -6.1690    2.7329 C   0  0  0  0  0  0  0  0  0  0  0  0
   -0.7918   -4.7090    1.4153 S   0  0  0  0  0  0  0  0  0  0  0  0
    0.8597   -4.6538    1.7417 C   0  0  0  0  0  0  0  0  0  0  0  0
    1.8919   -4.2523    0.8770 C   0  0  0  0  0  0  0  0  0  0  0  0
    3.1797   -4.1412    1.4333 C   0  0  0  0  0  0  0  0  0  0  0  0
    3.3765   -4.3038    2.8135 C   0  0  0  0  0  0  0  0  0  0  0  0
    4.9339   -3.8015    3.2049 S   0  0  0  0  0  0  0  0  0  0  0  0
    5.3889   -3.4278    1.6229 C   0  0  0  0  0  0  0  0  0  0  0  0
    6.6427   -2.7091    1.2432 C   0  0  0  0  0  0  0  0  0  0  0  0
    6.4132   -1.2002    1.2547 C   0  0  0  0  0  0  0  0  0  0  0  0
    4.3105   -3.6459    0.7704 C   0  0  0  0  0  0  0  0  0  0  0  0
    1.5488   -3.4747   -0.3190 C   0  0  0  0  0  0  0  0  0  0  0  0
    1.5603   -3.8733   -1.6697 C   0  0  0  0  0  0  0  0  0  0  0  0
    1.9557   -5.1765   -2.1387 N   0  0  0  0  0  0  0  0  0  0  0  0
    1.4662   -6.3382   -1.4493 C   0  0  0  0  0  0  0  0  0  0  0  0
    2.3597   -7.2143   -0.8170 C   0  0  0  0  0  0  0  0  0  0  0  0
    1.8778   -8.2770   -0.0465 C   0  0  0  0  0  0  0  0  0  0  0  0
    0.4984   -8.4713    0.0958 C   0  0  0  0  0  0  0  0  0  0  0  0
   -0.1210   -9.7736    1.1578 S   0  0  0  0  0  0  0  0  0  0  0  0
   -0.0764   -8.7351    2.6542 C   0  0  0  0  0  0  0  0  0  0  0  0
   -0.3966   -7.6196   -0.5627 C   0  0  0  0  0  0  0  0  0  0  0  0
    0.0860   -6.5535   -1.3276 C   0  0  0  0  0  0  0  0  0  0  0  0
    2.9202   -5.3165   -3.2070 C   0  0  0  0  0  0  0  0  0  0  0  0
    2.8658   -6.4212   -4.0787 C   0  0  0  0  0  0  0  0  0  0  0  0
    3.7858   -6.5470   -5.1238 C   0  0  0  0  0  0  0  0  0  0  0  0
    4.7742   -5.5741   -5.3079 C   0  0  0  0  0  0  0  0  0  0  0  0
    5.9413   -5.7279   -6.6632 S   0  0  0  0  0  0  0  0  0  0  0  0
    4.9331   -4.7346   -7.8082 C   0  0  0  0  0  0  0  0  0  0  0  0
    4.8514   -4.4844   -4.4372 C   0  0  0  0  0  0  0  0  0  0  0  0
    3.9300   -4.3553   -3.3945 C   0  0  0  0  0  0  0  0  0  0  0  0
    1.2097   -2.8007   -2.4977 C   0  0  0  0  0  0  0  0  0  0  0  0
    0.9382   -2.5712   -4.1449 S   0  0  0  0  0  0  0  0  0  0  0  0
    0.5611   -0.9063   -3.9882 C   0  0  0  0  0  0  0  0  0  0  0  0
    0.6474   -0.5509   -2.6343 C   0  0  0  0  0  0  0  0  0  0  0  0
    0.4816    0.7724   -2.1011 N   0  0  0  0  0  0  0  0  0  0  0  0
   -0.7430    1.0386   -1.3918 C   0  0  0  0  0  0  0  0  0  0  0  0
   -0.7286    1.2374    0.0005 C   0  0  0  0  0  0  0  0  0  0  0  0
   -1.9172    1.5114    0.6835 C   0  0  0  0  0  0  0  0  0  0  0  0
   -3.1256    1.5954   -0.0182 C   0  0  0  0  0  0  0  0  0  0  0  0
   -4.6514    1.9531    0.8573 S   0  0  0  0  0  0  0  0  0  0  0  0
   -5.0677    0.1943    1.0841 C   0  0  0  0  0  0  0  0  0  0  0  0
   -3.1458    1.3935   -1.4025 C   0  0  0  0  0  0  0  0  0  0  0  0
   -1.9612    1.0993   -2.0822 C   0  0  0  0  0  0  0  0  0  0  0  0
    1.6385    1.6400   -1.9497 C   0  0  0  0  0  0  0  0  0  0  0  0
    1.4800    2.9872   -1.5661 C   0  0  0  0  0  0  0  0  0  0  0  0
    2.5910    3.8158   -1.3919 C   0  0  0  0  0  0  0  0  0  0  0  0
    3.8789    3.3146   -1.5915 C   0  0  0  0  0  0  0  0  0  0  0  0
    5.3032    4.3680   -1.3116 S   0  0  0  0  0  0  0  0  0  0  0  0
    5.4609    3.8824    0.4368 C   0  0  0  0  0  0  0  0  0  0  0  0
    4.0565    1.9891   -1.9915 C   0  0  0  0  0  0  0  0  0  0  0  0
    2.9479    1.1587   -2.1774 C   0  0  0  0  0  0  0  0  0  0  0  0
    0.9871   -1.6341   -1.8451 C   0  0  0  0  0  0  0  0  0  0  0  0
    1.1739   -1.8225   -0.2020 S   0  0  0  0  0  0  0  0  0  0  0  0
   -0.0274   -0.0543   -5.0334 C   0  0  0  0  0  0  0  0  0  0  0  0
   -1.2943   -0.2379   -5.6003 C   0  0  0  0  0  0  0  0  0  0  0  0
   -2.1068   -1.4956   -5.4917 C   0  0  0  0  0  0  0  0  0  0  0  0
   -1.8262   -2.4259   -6.6647 C   0  0  0  0  0  0  0  0  0  0  0  0
   -1.8147    0.8666   -6.1994 N   0  0  0  0  0  0  0  0  0  0  0  0
   -1.0026    1.9390   -6.1082 C   0  0  0  0  0  0  0  0  0  0  0  0
    0.4286    1.5470   -5.3098 S   0  0  0  0  0  0  0  0  0  0  0  0
   -1.4434    3.2788   -6.5334 C   0  0  0  0  0  0  0  0  0  0  0  0
   -1.8271    4.2468   -5.6672 C   0  0  0  0  0  0  0  0  0  0  0  0
   -1.4725    4.3026   -4.2434 C   0  0  0  0  0  0  0  0  0  0  0  0
   -0.8615    3.4267   -3.5877 O   0  0  0  0  0  0  0  0  0  0  0  0
   -1.9317    5.5446   -3.6831 C   0  0  0  0  0  0  0  0  0  0  0  0
   -1.7796    5.9584   -2.3395 C   0  0  0  0  0  0  0  0  0  0  0  0
   -2.4132    7.1468   -2.0499 C   0  0  0  0  0  0  0  0  0  0  0  0
   -3.1489    7.8976   -3.0203 C   0  0  0  0  0  0  0  0  0  0  0  0
   -3.2666    7.5148   -4.3479 C   0  0  0  0  0  0  0  0  0  0  0  0
   -2.6272    6.2801   -4.6751 C   0  0  0  0  0  0  0  0  0  0  0  0
   -2.6278    5.4906   -5.9522 C   0  0  0  0  0  0  0  0  0  0  0  0
   -3.3809    5.7451   -7.0568 C   0  0  0  0  0  0  0  0  0  0  0  0
   -4.1360    6.9574   -7.2251 C   0  0  0  0  0  0  0  0  0  0  0  0
   -4.7540    7.9229   -7.3825 N   0  0  0  0  0  0  0  0  0  0  0  0
   -3.5773    4.7890   -8.1169 C   0  0  0  0  0  0  0  0  0  0  0  0
   -3.7478    4.0267   -8.9709 N   0  0  0  0  0  0  0  0  0  0  0  0
   -3.5564    8.8865   -1.9683 C   0  0  0  0  0  0  0  0  0  0  0  0
   -5.0139    8.8091   -1.4188 C   0  0  0  0  0  0  0  0  0  0  0  0
   -5.5118    7.3820   -1.4655 C   0  0  0  0  0  0  0  0  0  0  0  0
   -4.8048    6.7005   -0.5611 C   0  0  0  0  0  0  0  0  0  0  0  0
   -3.8469    7.6872    0.0674 C   0  0  0  0  0  0  0  0  0  0  0  0
   -4.7379    8.9148    0.0707 C   0  0  0  0  0  0  0  0  0  0  0  0
   -2.7801    8.1299   -0.9798 C   0  0  0  0  0  0  0  0  0  0  0  0
    2.4726   -4.9487    5.8415 H   0  0  0  0  0  0  0  0  0  0  0  0
   -0.1345    0.2225    3.5376 H   0  0  0  0  0  0  0  0  0  0  0  0
   -0.7324   -1.2586    8.3871 H   0  0  0  0  0  0  0  0  0  0  0  0
   -2.4896    1.6906    7.6632 H   0  0  0  0  0  0  0  0  0  0  0  0
   -4.1476   -0.5390    7.7409 H   0  0  0  0  0  0  0  0  0  0  0  0
   -5.7894    1.5012    7.2825 H   0  0  0  0  0  0  0  0  0  0  0  0
   -5.4709    2.2719    4.8131 H   0  0  0  0  0  0  0  0  0  0  0  0
   -3.6154    0.7351    3.6920 H   0  0  0  0  0  0  0  0  0  0  0  0
   -4.9295   -0.9886    5.2381 H   0  0  0  0  0  0  0  0  0  0  0  0
   -3.1481   -1.3016    5.3707 H   0  0  0  0  0  0  0  0  0  0  0  0
   -2.1962    2.4033    5.3948 H   0  0  0  0  0  0  0  0  0  0  0  0
   -0.1964   -5.1258    4.9004 H   0  0  0  0  0  0  0  0  0  0  0  0
   -2.7067   -5.3272    4.5674 H   0  0  0  0  0  0  0  0  0  0  0  0
   -3.1734   -4.1066    3.3309 H   0  0  0  0  0  0  0  0  0  0  0  0
   -2.9716   -7.1565    2.8432 H   0  0  0  0  0  0  0  0  0  0  0  0
   -4.4938   -6.2399    3.1483 H   0  0  0  0  0  0  0  0  0  0  0  0
   -3.5418   -5.9125    1.6524 H   0  0  0  0  0  0  0  0  0  0  0  0
    6.9614   -3.0289    0.2280 H   0  0  0  0  0  0  0  0  0  0  0  0
    7.4511   -2.9668    1.9595 H   0  0  0  0  0  0  0  0  0  0  0  0
    5.6297   -0.9230    0.5154 H   0  0  0  0  0  0  0  0  0  0  0  0
    7.3547   -0.6766    0.9898 H   0  0  0  0  0  0  0  0  0  0  0  0
    6.0918   -0.8675    2.2648 H   0  0  0  0  0  0  0  0  0  0  0  0
    4.3281   -3.3881   -0.2800 H   0  0  0  0  0  0  0  0  0  0  0  0
    3.4269   -7.0497   -0.8907 H   0  0  0  0  0  0  0  0  0  0  0  0
    2.5754   -8.9313    0.4617 H   0  0  0  0  0  0  0  0  0  0  0  0
    0.9758   -8.5052    2.9206 H   0  0  0  0  0  0  0  0  0  0  0  0
   -0.5521   -9.2822    3.4932 H   0  0  0  0  0  0  0  0  0  0  0  0
   -0.6296   -7.7900    2.4815 H   0  0  0  0  0  0  0  0  0  0  0  0
   -1.4652   -7.7645   -0.4571 H   0  0  0  0  0  0  0  0  0  0  0  0
   -0.6155   -5.8814   -1.8082 H   0  0  0  0  0  0  0  0  0  0  0  0
    2.1020   -7.1784   -3.9587 H   0  0  0  0  0  0  0  0  0  0  0  0
    3.7262   -7.3973   -5.7913 H   0  0  0  0  0  0  0  0  0  0  0  0
    3.9230   -5.1823   -7.9159 H   0  0  0  0  0  0  0  0  0  0  0  0
    5.4258   -4.7106   -8.8005 H   0  0  0  0  0  0  0  0  0  0  0  0
    4.8410   -3.6956   -7.4264 H   0  0  0  0  0  0  0  0  0  0  0  0
    5.6197   -3.7336   -4.5717 H   0  0  0  0  0  0  0  0  0  0  0  0
    4.0117   -3.5033   -2.7355 H   0  0  0  0  0  0  0  0  0  0  0  0
    0.1993    1.1744    0.5513 H   0  0  0  0  0  0  0  0  0  0  0  0
   -1.8972    1.6634    1.7550 H   0  0  0  0  0  0  0  0  0  0  0  0
   -4.2219   -0.3457    1.5543 H   0  0  0  0  0  0  0  0  0  0  0  0
   -5.3028   -0.2682    0.0996 H   0  0  0  0  0  0  0  0  0  0  0  0
   -5.9549    0.1140    1.7411 H   0  0  0  0  0  0  0  0  0  0  0  0
   -4.0759    1.4663   -1.9501 H   0  0  0  0  0  0  0  0  0  0  0  0
   -1.9924    0.9458   -3.1502 H   0  0  0  0  0  0  0  0  0  0  0  0
    0.4979    3.4004   -1.3846 H   0  0  0  0  0  0  0  0  0  0  0  0
    2.4472    4.8434   -1.0815 H   0  0  0  0  0  0  0  0  0  0  0  0
    4.5176    4.1000    0.9800 H   0  0  0  0  0  0  0  0  0  0  0  0
    6.2856    4.4578    0.9029 H   0  0  0  0  0  0  0  0  0  0  0  0
    5.6917    2.7975    0.5091 H   0  0  0  0  0  0  0  0  0  0  0  0
    5.0519    1.5955   -2.1360 H   0  0  0  0  0  0  0  0  0  0  0  0
    3.1279    0.1344   -2.4684 H   0  0  0  0  0  0  0  0  0  0  0  0
   -3.1865   -1.2304   -5.4930 H   0  0  0  0  0  0  0  0  0  0  0  0
   -1.9041   -2.0169   -4.5325 H   0  0  0  0  0  0  0  0  0  0  0  0
   -0.7659   -2.7570   -6.6510 H   0  0  0  0  0  0  0  0  0  0  0  0
   -2.0347   -1.9099   -7.6250 H   0  0  0  0  0  0  0  0  0  0  0  0
   -2.4783   -3.3188   -6.5907 H   0  0  0  0  0  0  0  0  0  0  0  0
   -1.6299    3.3768   -7.5852 H   0  0  0  0  0  0  0  0  0  0  0  0
   -1.2649    5.3696   -1.5895 H   0  0  0  0  0  0  0  0  0  0  0  0
   -3.8369    8.1207   -5.0276 H   0  0  0  0  0  0  0  0  0  0  0  0
   -3.1733    9.9173   -2.1447 H   0  0  0  0  0  0  0  0  0  0  0  0
   -5.7163    9.5649   -1.8280 H   0  0  0  0  0  0  0  0  0  0  0  0
   -6.3318    6.9895   -2.0558 H   0  0  0  0  0  0  0  0  0  0  0  0
   -4.9496    5.6594   -0.2911 H   0  0  0  0  0  0  0  0  0  0  0  0
   -3.4457    7.3850    1.0568 H   0  0  0  0  0  0  0  0  0  0  0  0
   -4.2050    9.8510    0.3619 H   0  0  0  0  0  0  0  0  0  0  0  0
   -5.6531    8.7955    0.7017 H   0  0  0  0  0  0  0  0  0  0  0  0
   -1.9144    8.6935   -0.5625 H   0  0  0  0  0  0  0  0  0  0  0  0
  1  2  2  3
  2  3  1  0
  3  4  2  0
  3  5  1  0
  5  6  2  0
  6  7  1  0
  7  8  2  0
  8  9  1  0
  9 10  2  0
 10 11  1  0
 11 12  2  3
 12 13  1  0
 13 14  3  0
 12 15  1  0
 15 16  3  0
  8 17  1  0
 17 18  1  0
 18 19  1  0
 19 20  2  0
 20 21  1  0
 21 22  1  0
 21 23  1  0
  1 24  1  0
 24 25  2  0
 25 26  1  0
 26 27  2  0
 27 28  1  0
 28 29  1  0
 27 30  1  0
 30 31  1  0
 31 32  2  0
 32 33  1  0
 33 34  2  0
 34 35  1  0
 35 36  1  0
 36 37  1  0
 37 38  1  0
 36 39  2  0
 32 40  1  0
 40 41  2  0
 41 42  1  0
 42 43  1  0
 43 44  2  0
 44 45  1  0
 45 46  2  0
 46 47  1  0
 47 48  1  0
 46 49  1  0
 49 50  2  0
 42 51  1  0
 51 52  2  0
 52 53  1  0
 53 54  2  0
 54 55  1  0
 55 56  1  0
 54 57  1  0
 57 58  2  0
 41 59  1  0
 59 60  1  0
 60 61  1  0
 61 62  2  0
 62 63  1  0
 63 64  1  0
 64 65  2  0
 65 66  1  0
 66 67  2  0
 67 68  1  0
 68 69  1  0
 67 70  1  0
 70 71  2  0
 63 72  1  0
 72 73  2  0
 73 74  1  0
 74 75  2  0
 75 76  1  0
 76 77  1  0
 75 78  1  0
 78 79  2  0
 62 80  1  0
 80 81  1  0
 61 82  1  0
 82 83  2  0
 83 84  1  0
 84 85  1  0
 83 86  1  0
 86 87  2  0
 87 88  1  0
 87 89  1  0
 89 90  2  3
 90 91  1  0
 91 92  2  0
 91 93  1  0
 93 94  2  0
 94 95  1  0
 95 96  2  0
 96 97  1  0
 97 98  2  0
 98 99  1  0
 99100  2  3
100101  1  0
101102  3  0
100103  1  0
103104  3  0
 96105  1  0
105106  1  0
106107  1  0
107108  2  0
108109  1  0
109110  1  0
109111  1  0
 11  2  1  0
 23 17  1  0
 34 24  1  0
 81 40  1  0
 88 82  1  0
 99 90  1  0
111105  1  0
 10  5  1  0
 22 18  1  0
 31 25  1  0
 39 33  1  0
 50 43  1  0
 58 51  1  0
 80 59  2  0
 98 93  1  0
110106  1  0
 23  7  1  0
 71 64  1  0
 79 72  1  0
111 95  1  0
  1112  1  0
  6113  1  0
  9114  1  0
 17115  1  0
 18116  1  0
 19117  1  0
 20118  1  0
 21119  1  0
 22120  1  0
 22121  1  0
 23122  1  0
 26123  1  0
 28124  1  0
 28125  1  0
 29126  1  0
 29127  1  0
 29128  1  0
 37129  1  0
 37130  1  0
 38131  1  0
 38132  1  0
 38133  1  0
 39134  1  0
 44135  1  0
 45136  1  0
 48137  1  0
 48138  1  0
 48139  1  0
 49140  1  0
 50141  1  0
 52142  1  0
 53143  1  0
 56144  1  0
 56145  1  0
 56146  1  0
 57147  1  0
 58148  1  0
 65149  1  0
 66150  1  0
 69151  1  0
 69152  1  0
 69153  1  0
 70154  1  0
 71155  1  0
 73156  1  0
 74157  1  0
 77158  1  0
 77159  1  0
 77160  1  0
 78161  1  0
 79162  1  0
 84163  1  0
 84164  1  0
 85165  1  0
 85166  1  0
 85167  1  0
 89168  1  0
 94169  1  0
 97170  1  0
105171  1  0
106172  1  0
107173  1  0
108174  1  0
109175  1  0
110176  1  0
110177  1  0
111178  1  0
M  END

