
     RDKit          3D

171187  0  0  0  0  0  0  0  0999 V2000
   -2.3934    2.2370   -5.1146 C   0  0  0  0  0  0  0  0  0  0  0  0
   -1.5879    2.4343   -6.1780 C   0  0  0  0  0  0  0  0  0  0  0  0
   -1.1419    1.4030   -7.1159 C   0  0  0  0  0  0  0  0  0  0  0  0
   -1.7064    0.2924   -7.3106 O   0  0  0  0  0  0  0  0  0  0  0  0
    0.0379    1.8860   -7.8140 C   0  0  0  0  0  0  0  0  0  0  0  0
    0.9611    1.1228   -8.5678 C   0  0  0  0  0  0  0  0  0  0  0  0
    2.1350    1.7923   -8.8738 C   0  0  0  0  0  0  0  0  0  0  0  0
    2.3866    3.1349   -8.4478 C   0  0  0  0  0  0  0  0  0  0  0  0
    1.4871    3.8991   -7.7277 C   0  0  0  0  0  0  0  0  0  0  0  0
    0.2637    3.2276   -7.4271 C   0  0  0  0  0  0  0  0  0  0  0  0
   -0.8025    3.6719   -6.4970 C   0  0  0  0  0  0  0  0  0  0  0  0
   -1.0604    4.9618   -6.1379 C   0  0  0  0  0  0  0  0  0  0  0  0
   -0.4706    6.0555   -6.8573 C   0  0  0  0  0  0  0  0  0  0  0  0
   -0.0146    6.9306   -7.4549 N   0  0  0  0  0  0  0  0  0  0  0  0
   -2.0393    5.3341   -5.1491 C   0  0  0  0  0  0  0  0  0  0  0  0
   -2.8206    5.6463   -4.3566 N   0  0  0  0  0  0  0  0  0  0  0  0
    3.7934    3.0417   -8.9507 C   0  0  0  0  0  0  0  0  0  0  0  0
    4.9031    2.8924   -7.8695 C   0  0  0  0  0  0  0  0  0  0  0  0
    6.1329    2.4342   -8.5943 C   0  0  0  0  0  0  0  0  0  0  0  0
    5.9060    1.1793   -8.9933 C   0  0  0  0  0  0  0  0  0  0  0  0
    4.5163    0.8273   -8.5176 C   0  0  0  0  0  0  0  0  0  0  0  0
    4.5426    1.5775   -7.1826 C   0  0  0  0  0  0  0  0  0  0  0  0
    3.5347    1.6730   -9.3868 C   0  0  0  0  0  0  0  0  0  0  0  0
   -2.8059    0.9372   -4.5408 C   0  0  0  0  0  0  0  0  0  0  0  0
   -4.0942    0.8523   -3.9861 C   0  0  0  0  0  0  0  0  0  0  0  0
   -5.0522    1.7321   -4.3557 F   0  0  0  0  0  0  0  0  0  0  0  0
   -4.3669   -0.0432   -2.9458 C   0  0  0  0  0  0  0  0  0  0  0  0
   -5.5735   -0.0100   -2.3373 F   0  0  0  0  0  0  0  0  0  0  0  0
   -3.3397   -0.8467   -2.4159 C   0  0  0  0  0  0  0  0  0  0  0  0
   -2.1299   -0.9347   -3.1301 C   0  0  0  0  0  0  0  0  0  0  0  0
   -1.1498   -1.7905   -2.7192 N   0  0  0  0  0  0  0  0  0  0  0  0
    0.0742   -1.8460   -3.3139 C   0  0  0  0  0  0  0  0  0  0  0  0
    1.0966   -2.8000   -2.7422 C   0  0  0  0  0  0  0  0  0  0  0  0
    0.4767   -4.1586   -2.4683 C   0  0  0  0  0  0  0  0  0  0  0  0
    0.3575   -0.9415   -4.3571 C   0  0  0  0  0  0  0  0  0  0  0  0
   -0.6072   -0.0418   -4.7174 N   0  0  0  0  0  0  0  0  0  0  0  0
   -1.8489   -0.0366   -4.1712 C   0  0  0  0  0  0  0  0  0  0  0  0
    1.6671   -0.9039   -5.1036 C   0  0  0  0  0  0  0  0  0  0  0  0
    2.7593   -0.2161   -4.2878 C   0  0  0  0  0  0  0  0  0  0  0  0
   -3.2907   -1.0835   -0.9566 C   0  0  0  0  0  0  0  0  0  0  0  0
   -2.9521   -0.0383   -0.0899 C   0  0  0  0  0  0  0  0  0  0  0  0
   -3.2363    1.3537   -0.3316 N   0  0  0  0  0  0  0  0  0  0  0  0
   -4.5888    1.8134   -0.0952 C   0  0  0  0  0  0  0  0  0  0  0  0
   -5.2246    2.6865   -0.9964 C   0  0  0  0  0  0  0  0  0  0  0  0
   -6.5672    3.0164   -0.8182 C   0  0  0  0  0  0  0  0  0  0  0  0
   -7.2998    2.4896    0.2545 C   0  0  0  0  0  0  0  0  0  0  0  0
   -9.0467    2.8549    0.4450 S   0  0  0  0  0  0  0  0  0  0  0  0
   -9.5879    1.4452   -0.5785 C   0  0  0  0  0  0  0  0  0  0  0  0
   -6.6582    1.6562    1.1825 C   0  0  0  0  0  0  0  0  0  0  0  0
   -5.3060    1.3254    1.0120 C   0  0  0  0  0  0  0  0  0  0  0  0
   -2.1691    2.2531   -0.7218 C   0  0  0  0  0  0  0  0  0  0  0  0
   -0.9953    1.7747   -1.3438 C   0  0  0  0  0  0  0  0  0  0  0  0
    0.0136    2.6458   -1.7351 C   0  0  0  0  0  0  0  0  0  0  0  0
   -0.0970    4.0117   -1.4891 C   0  0  0  0  0  0  0  0  0  0  0  0
    1.2338    5.1130   -1.9614 S   0  0  0  0  0  0  0  0  0  0  0  0
    1.9308    5.1715   -0.2746 C   0  0  0  0  0  0  0  0  0  0  0  0
   -1.2311    4.5104   -0.8419 C   0  0  0  0  0  0  0  0  0  0  0  0
   -2.2575    3.6362   -0.4411 C   0  0  0  0  0  0  0  0  0  0  0  0
   -2.3240   -0.4870    1.0530 C   0  0  0  0  0  0  0  0  0  0  0  0
   -1.5833    0.3065    2.3265 S   0  0  0  0  0  0  0  0  0  0  0  0
   -1.0908   -1.1461    3.0719 C   0  0  0  0  0  0  0  0  0  0  0  0
   -1.5510   -2.2552    2.3365 C   0  0  0  0  0  0  0  0  0  0  0  0
   -1.7241   -3.5636    2.9195 N   0  0  0  0  0  0  0  0  0  0  0  0
   -2.2103   -3.6309    4.2715 C   0  0  0  0  0  0  0  0  0  0  0  0
   -3.3034   -2.8430    4.6765 C   0  0  0  0  0  0  0  0  0  0  0  0
   -3.6690   -2.7763    6.0189 C   0  0  0  0  0  0  0  0  0  0  0  0
   -2.9494   -3.5027    6.9790 C   0  0  0  0  0  0  0  0  0  0  0  0
   -3.3974   -3.3754    8.7084 S   0  0  0  0  0  0  0  0  0  0  0  0
   -2.3206   -1.9458    9.0253 C   0  0  0  0  0  0  0  0  0  0  0  0
   -1.8916   -4.3285    6.5795 C   0  0  0  0  0  0  0  0  0  0  0  0
   -1.5300   -4.4040    5.2295 C   0  0  0  0  0  0  0  0  0  0  0  0
   -1.6566   -4.7609    2.1201 C   0  0  0  0  0  0  0  0  0  0  0  0
   -2.6188   -5.7811    2.2668 C   0  0  0  0  0  0  0  0  0  0  0  0
   -2.6008   -6.8945    1.4342 C   0  0  0  0  0  0  0  0  0  0  0  0
   -1.6212   -7.0234    0.4451 C   0  0  0  0  0  0  0  0  0  0  0  0
   -1.6700   -8.3820   -0.7285 S   0  0  0  0  0  0  0  0  0  0  0  0
   -2.7760   -7.5135   -1.8982 C   0  0  0  0  0  0  0  0  0  0  0  0
   -0.6188   -6.0489    0.3317 C   0  0  0  0  0  0  0  0  0  0  0  0
   -0.6514   -4.9077    1.1457 C   0  0  0  0  0  0  0  0  0  0  0  0
   -2.2075   -1.8292    1.1761 C   0  0  0  0  0  0  0  0  0  0  0  0
   -2.8354   -2.5564   -0.2063 S   0  0  0  0  0  0  0  0  0  0  0  0
   -0.2443   -1.1619    4.2788 C   0  0  0  0  0  0  0  0  0  0  0  0
    0.9811   -1.8605    4.4506 C   0  0  0  0  0  0  0  0  0  0  0  0
    1.5897   -2.8414    3.4826 C   0  0  0  0  0  0  0  0  0  0  0  0
    2.1802   -2.1368    2.2570 C   0  0  0  0  0  0  0  0  0  0  0  0
    1.6539   -1.3849    5.5837 C   0  0  0  0  0  0  0  0  0  0  0  0
    1.0090   -0.4041    6.2686 C   0  0  0  0  0  0  0  0  0  0  0  0
   -0.4268   -0.0049    5.5216 S   0  0  0  0  0  0  0  0  0  0  0  0
    1.7235    0.1738    7.2911 C   0  0  0  0  0  0  0  0  0  0  0  0
    3.0040   -0.3858    7.3972 C   0  0  0  0  0  0  0  0  0  0  0  0
    3.2108   -1.5883    6.2022 S   0  0  0  0  0  0  0  0  0  0  0  0
    4.0433    0.1351    8.2989 C   0  0  0  0  0  0  0  0  0  0  0  0
    4.3314    1.4561    8.2741 C   0  0  0  0  0  0  0  0  0  0  0  0
    4.1427    2.2579    7.0449 C   0  0  0  0  0  0  0  0  0  0  0  0
    5.1009    2.5418    6.2805 O   0  0  0  0  0  0  0  0  0  0  0  0
    3.1122    3.2177    7.3756 C   0  0  0  0  0  0  0  0  0  0  0  0
    2.3392    3.9538    6.4830 C   0  0  0  0  0  0  0  0  0  0  0  0
    1.3060    4.7598    6.9875 C   0  0  0  0  0  0  0  0  0  0  0  0
    0.4609    5.4934    6.1368 O   0  0  0  0  0  0  0  0  0  0  0  0
    0.3870    5.3026    4.7255 C   0  0  0  0  0  0  0  0  0  0  0  0
    1.1170    4.8469    8.3839 C   0  0  0  0  0  0  0  0  0  0  0  0
    1.9159    4.0848    9.2653 C   0  0  0  0  0  0  0  0  0  0  0  0
    2.9294    3.2875    8.7246 C   0  0  0  0  0  0  0  0  0  0  0  0
    3.8291    2.3236    9.3670 C   0  0  0  0  0  0  0  0  0  0  0  0
    4.3684    2.4074   10.6030 C   0  0  0  0  0  0  0  0  0  0  0  0
    5.4019    1.4893   11.0014 C   0  0  0  0  0  0  0  0  0  0  0  0
    6.2445    0.7609   11.3104 N   0  0  0  0  0  0  0  0  0  0  0  0
    4.1037    3.5357   11.4624 C   0  0  0  0  0  0  0  0  0  0  0  0
    3.9272    4.4393   12.1601 N   0  0  0  0  0  0  0  0  0  0  0  0
   -2.6615    3.0674   -4.4774 H   0  0  0  0  0  0  0  0  0  0  0  0
    0.8228    0.0548   -8.7835 H   0  0  0  0  0  0  0  0  0  0  0  0
    1.7688    4.8699   -7.3454 H   0  0  0  0  0  0  0  0  0  0  0  0
    4.0150    3.7598   -9.7840 H   0  0  0  0  0  0  0  0  0  0  0  0
    5.0509    3.7640   -7.1893 H   0  0  0  0  0  0  0  0  0  0  0  0
    7.0859    2.9589   -8.6813 H   0  0  0  0  0  0  0  0  0  0  0  0
    6.6373    0.5229   -9.4564 H   0  0  0  0  0  0  0  0  0  0  0  0
    4.3038   -0.2564   -8.4498 H   0  0  0  0  0  0  0  0  0  0  0  0
    3.5790    1.5871   -6.6382 H   0  0  0  0  0  0  0  0  0  0  0  0
    5.3288    1.2112   -6.4857 H   0  0  0  0  0  0  0  0  0  0  0  0
    3.5962    1.5189  -10.4911 H   0  0  0  0  0  0  0  0  0  0  0  0
    1.4831   -2.3818   -1.7891 H   0  0  0  0  0  0  0  0  0  0  0  0
    1.9590   -2.9465   -3.4262 H   0  0  0  0  0  0  0  0  0  0  0  0
    1.2728   -4.8792   -2.1725 H   0  0  0  0  0  0  0  0  0  0  0  0
   -0.2623   -4.0792   -1.6418 H   0  0  0  0  0  0  0  0  0  0  0  0
   -0.0361   -4.5323   -3.3809 H   0  0  0  0  0  0  0  0  0  0  0  0
    1.5098   -0.3429   -6.0568 H   0  0  0  0  0  0  0  0  0  0  0  0
    1.9709   -1.9333   -5.4071 H   0  0  0  0  0  0  0  0  0  0  0  0
    2.9471   -0.7500   -3.3320 H   0  0  0  0  0  0  0  0  0  0  0  0
    2.4619    0.8325   -4.0604 H   0  0  0  0  0  0  0  0  0  0  0  0
    3.7002   -0.2093   -4.8705 H   0  0  0  0  0  0  0  0  0  0  0  0
   -4.6945    3.0699   -1.8534 H   0  0  0  0  0  0  0  0  0  0  0  0
   -7.0546    3.6802   -1.5322 H   0  0  0  0  0  0  0  0  0  0  0  0
   -9.2146    1.5693   -1.6123 H   0  0  0  0  0  0  0  0  0  0  0  0
   -9.1985    0.4877   -0.1685 H   0  0  0  0  0  0  0  0  0  0  0  0
  -10.6942    1.3992   -0.6031 H   0  0  0  0  0  0  0  0  0  0  0  0
   -7.2019    1.2639    2.0275 H   0  0  0  0  0  0  0  0  0  0  0  0
   -4.8456    0.6754    1.7406 H   0  0  0  0  0  0  0  0  0  0  0  0
   -0.8542    0.7156   -1.5136 H   0  0  0  0  0  0  0  0  0  0  0  0
    0.9072    2.2537   -2.2337 H   0  0  0  0  0  0  0  0  0  0  0  0
    1.2308    5.7085    0.3974 H   0  0  0  0  0  0  0  0  0  0  0  0
    2.8949    5.7243   -0.2984 H   0  0  0  0  0  0  0  0  0  0  0  0
    2.1059    4.1500    0.1234 H   0  0  0  0  0  0  0  0  0  0  0  0
   -1.3168    5.5604   -0.6133 H   0  0  0  0  0  0  0  0  0  0  0  0
   -3.1010    4.0433    0.0923 H   0  0  0  0  0  0  0  0  0  0  0  0
   -3.8372   -2.2362    3.9495 H   0  0  0  0  0  0  0  0  0  0  0  0
   -4.4983   -2.1448    6.3097 H   0  0  0  0  0  0  0  0  0  0  0  0
   -2.5710   -1.1093    8.3438 H   0  0  0  0  0  0  0  0  0  0  0  0
   -2.4758   -1.6085   10.0709 H   0  0  0  0  0  0  0  0  0  0  0  0
   -1.2583   -2.2387    8.8938 H   0  0  0  0  0  0  0  0  0  0  0  0
   -1.3264   -4.9036    7.3044 H   0  0  0  0  0  0  0  0  0  0  0  0
   -0.6837   -5.0140    4.9371 H   0  0  0  0  0  0  0  0  0  0  0  0
   -3.3942   -5.6991    3.0194 H   0  0  0  0  0  0  0  0  0  0  0  0
   -3.3666   -7.6573    1.5424 H   0  0  0  0  0  0  0  0  0  0  0  0
   -2.5110   -7.7748   -2.9404 H   0  0  0  0  0  0  0  0  0  0  0  0
   -2.7160   -6.4161   -1.7821 H   0  0  0  0  0  0  0  0  0  0  0  0
   -3.8249   -7.8255   -1.7189 H   0  0  0  0  0  0  0  0  0  0  0  0
    0.1709   -6.1662   -0.4003 H   0  0  0  0  0  0  0  0  0  0  0  0
    0.0998   -4.1414    1.0086 H   0  0  0  0  0  0  0  0  0  0  0  0
    0.8315   -3.5774    3.1796 H   0  0  0  0  0  0  0  0  0  0  0  0
    2.3981   -3.4293    3.9728 H   0  0  0  0  0  0  0  0  0  0  0  0
    3.0298   -1.4800    2.5713 H   0  0  0  0  0  0  0  0  0  0  0  0
    1.4096   -1.5187    1.7611 H   0  0  0  0  0  0  0  0  0  0  0  0
    2.5595   -2.8958    1.5475 H   0  0  0  0  0  0  0  0  0  0  0  0
    1.3633    0.9892    7.8945 H   0  0  0  0  0  0  0  0  0  0  0  0
    4.1488   -0.4009    9.2372 H   0  0  0  0  0  0  0  0  0  0  0  0
    2.4999    3.7863    5.4461 H   0  0  0  0  0  0  0  0  0  0  0  0
    0.1358    4.2588    4.4708 H   0  0  0  0  0  0  0  0  0  0  0  0
    1.3590    5.5632    4.2560 H   0  0  0  0  0  0  0  0  0  0  0  0
   -0.4093    5.9571    4.2947 H   0  0  0  0  0  0  0  0  0  0  0  0
    0.3171    5.4541    8.7922 H   0  0  0  0  0  0  0  0  0  0  0  0
    1.7133    4.1046   10.3285 H   0  0  0  0  0  0  0  0  0  0  0  0
  1  2  2  3
  2  3  1  0
  3  4  2  0
  3  5  1  0
  5  6  2  0
  6  7  1  0
  7  8  2  0
  8  9  1  0
  9 10  2  0
 10 11  1  0
 11 12  2  3
 12 13  1  0
 13 14  3  0
 12 15  1  0
 15 16  3  0
  8 17  1  0
 17 18  1  0
 18 19  1  0
 19 20  2  0
 20 21  1  0
 21 22  1  0
 21 23  1  0
  1 24  1  0
 24 25  2  0
 25 26  1  0
 25 27  1  0
 27 28  1  0
 27 29  2  0
 29 30  1  0
 30 31  2  0
 31 32  1  0
 32 33  1  0
 33 34  1  0
 32 35  2  0
 35 36  1  0
 36 37  2  0
 35 38  1  0
 38 39  1  0
 29 40  1  0
 40 41  2  0
 41 42  1  0
 42 43  1  0
 43 44  2  0
 44 45  1  0
 45 46  2  0
 46 47  1  0
 47 48  1  0
 46 49  1  0
 49 50  2  0
 42 51  1  0
 51 52  2  0
 52 53  1  0
 53 54  2  0
 54 55  1  0
 55 56  1  0
 54 57  1  0
 57 58  2  0
 41 59  1  0
 59 60  1  0
 60 61  1  0
 61 62  2  0
 62 63  1  0
 63 64  1  0
 64 65  2  0
 65 66  1  0
 66 67  2  0
 67 68  1  0
 68 69  1  0
 67 70  1  0
 70 71  2  0
 63 72  1  0
 72 73  2  0
 73 74  1  0
 74 75  2  0
 75 76  1  0
 76 77  1  0
 75 78  1  0
 78 79  2  0
 62 80  1  0
 80 81  1  0
 61 82  1  0
 82 83  2  0
 83 84  1  0
 84 85  1  0
 83 86  1  0
 86 87  2  0
 87 88  1  0
 87 89  1  0
 89 90  2  0
 90 91  1  0
 90 92  1  0
 92 93  2  3
 93 94  1  0
 94 95  2  0
 94 96  1  0
 96 97  2  0
 97 98  1  0
 98 99  1  0
 99100  1  0
 98101  2  0
101102  1  0
102103  2  0
103104  1  0
104105  2  3
105106  1  0
106107  3  0
105108  1  0
108109  3  0
 11  2  1  0
 23 17  1  0
 37 24  1  0
 81 40  1  0
 88 82  1  0
104 93  1  0
 10  5  1  0
 22 18  1  0
 37 30  1  0
 50 43  1  0
 58 51  1  0
 80 59  2  0
 91 86  1  0
103 96  1  0
 23  7  1  0
 71 64  1  0
 79 72  1  0
  1110  1  0
  6111  1  0
  9112  1  0
 17113  1  0
 18114  1  0
 19115  1  0
 20116  1  0
 21117  1  0
 22118  1  0
 22119  1  0
 23120  1  0
 33121  1  0
 33122  1  0
 34123  1  0
 34124  1  0
 34125  1  0
 38126  1  0
 38127  1  0
 39128  1  0
 39129  1  0
 39130  1  0
 44131  1  0
 45132  1  0
 48133  1  0
 48134  1  0
 48135  1  0
 49136  1  0
 50137  1  0
 52138  1  0
 53139  1  0
 56140  1  0
 56141  1  0
 56142  1  0
 57143  1  0
 58144  1  0
 65145  1  0
 66146  1  0
 69147  1  0
 69148  1  0
 69149  1  0
 70150  1  0
 71151  1  0
 73152  1  0
 74153  1  0
 77154  1  0
 77155  1  0
 77156  1  0
 78157  1  0
 79158  1  0
 84159  1  0
 84160  1  0
 85161  1  0
 85162  1  0
 85163  1  0
 89164  1  0
 92165  1  0
 97166  1  0
100167  1  0
100168  1  0
100169  1  0
101170  1  0
102171  1  0
M  END

