
     RDKit          3D

204225  0  0  0  0  0  0  0  0999 V2000
    7.2384    6.1138   -0.0938 C   0  0  0  0  0  0  0  0  0  0  0  0
    6.6025    6.9326    0.7743 C   0  0  0  0  0  0  0  0  0  0  0  0
    5.5731    6.5217    1.7381 C   0  0  0  0  0  0  0  0  0  0  0  0
    4.8554    5.4863    1.6725 O   0  0  0  0  0  0  0  0  0  0  0  0
    5.4390    7.5400    2.7504 C   0  0  0  0  0  0  0  0  0  0  0  0
    4.6306    7.4802    3.9052 C   0  0  0  0  0  0  0  0  0  0  0  0
    4.6966    8.6077    4.6950 C   0  0  0  0  0  0  0  0  0  0  0  0
    5.5015    9.7406    4.3597 C   0  0  0  0  0  0  0  0  0  0  0  0
    6.3079    9.8041    3.2315 C   0  0  0  0  0  0  0  0  0  0  0  0
    6.2666    8.6412    2.4088 C   0  0  0  0  0  0  0  0  0  0  0  0
    6.9633    8.3452    1.1203 C   0  0  0  0  0  0  0  0  0  0  0  0
    7.6025    9.2362    0.3141 C   0  0  0  0  0  0  0  0  0  0  0  0
    7.9260   10.5776    0.7283 C   0  0  0  0  0  0  0  0  0  0  0  0
    8.2094   11.6597    1.0459 N   0  0  0  0  0  0  0  0  0  0  0  0
    7.9312    8.9361   -1.0604 C   0  0  0  0  0  0  0  0  0  0  0  0
    8.1942    8.7159   -2.1672 N   0  0  0  0  0  0  0  0  0  0  0  0
    5.0392   10.4519    5.5964 C   0  0  0  0  0  0  0  0  0  0  0  0
    6.0310   10.5386    6.7898 C   0  0  0  0  0  0  0  0  0  0  0  0
    6.9305    9.3229    6.7833 C   0  0  0  0  0  0  0  0  0  0  0  0
    6.1700    8.2790    7.1172 C   0  0  0  0  0  0  0  0  0  0  0  0
    4.7707    8.8211    7.3092 C   0  0  0  0  0  0  0  0  0  0  0  0
    5.1095   10.1583    7.9375 C   0  0  0  0  0  0  0  0  0  0  0  0
    4.2000    9.2986    5.9364 C   0  0  0  0  0  0  0  0  0  0  0  0
    6.8872    4.6900   -0.2651 C   0  0  0  0  0  0  0  0  0  0  0  0
    6.4086    4.2123   -1.4969 C   0  0  0  0  0  0  0  0  0  0  0  0
    6.3281    5.1271   -2.5603 O   0  0  0  0  0  0  0  0  0  0  0  0
    5.4480    5.0447   -3.6771 C   0  0  0  0  0  0  0  0  0  0  0  0
    4.9433    6.4365   -4.0276 C   0  0  0  0  0  0  0  0  0  0  0  0
    6.0092    2.8594   -1.6093 C   0  0  0  0  0  0  0  0  0  0  0  0
    5.7603    2.2878   -2.8578 O   0  0  0  0  0  0  0  0  0  0  0  0
    6.8048    1.9999   -3.7880 C   0  0  0  0  0  0  0  0  0  0  0  0
    7.6500    0.8265   -3.3159 C   0  0  0  0  0  0  0  0  0  0  0  0
    5.8908    2.0725   -0.4341 C   0  0  0  0  0  0  0  0  0  0  0  0
    6.4580    2.5465    0.7556 C   0  0  0  0  0  0  0  0  0  0  0  0
    6.9873    3.8255    0.8282 C   0  0  0  0  0  0  0  0  0  0  0  0
    5.1023    0.8033   -0.4102 C   0  0  0  0  0  0  0  0  0  0  0  0
    4.4997    0.2662    0.7310 C   0  0  0  0  0  0  0  0  0  0  0  0
    3.6577   -0.8253    0.4682 C   0  0  0  0  0  0  0  0  0  0  0  0
    2.8922   -1.5389    1.4109 C   0  0  0  0  0  0  0  0  0  0  0  0
    2.9748   -1.2817    2.8608 C   0  0  0  0  0  0  0  0  0  0  0  0
    3.2958   -2.2392    3.8143 C   0  0  0  0  0  0  0  0  0  0  0  0
    3.3443   -1.7277    5.1187 C   0  0  0  0  0  0  0  0  0  0  0  0
    3.7586   -2.5643    6.2921 C   0  0  0  0  0  0  0  0  0  0  0  0
    5.2690   -2.7691    6.2986 C   0  0  0  0  0  0  0  0  0  0  0  0
    3.0869   -0.3561    5.1809 C   0  0  0  0  0  0  0  0  0  0  0  0
    3.1567    0.6648    6.6095 Cl  0  0  0  0  0  0  0  0  0  0  0  0
    2.7449    0.1930    3.6296 S   0  0  0  0  0  0  0  0  0  0  0  0
    2.0546   -2.5538    0.9162 C   0  0  0  0  0  0  0  0  0  0  0  0
    1.9959   -2.8914   -0.4371 C   0  0  0  0  0  0  0  0  0  0  0  0
    2.7903   -2.2022   -1.3715 C   0  0  0  0  0  0  0  0  0  0  0  0
    2.7269   -2.4821   -2.8192 C   0  0  0  0  0  0  0  0  0  0  0  0
    2.4550   -1.5496   -3.8162 C   0  0  0  0  0  0  0  0  0  0  0  0
    2.3950   -2.0958   -5.1018 C   0  0  0  0  0  0  0  0  0  0  0  0
    2.0814   -1.2799   -6.3161 C   0  0  0  0  0  0  0  0  0  0  0  0
    3.3472   -0.9775   -7.1153 C   0  0  0  0  0  0  0  0  0  0  0  0
    2.6210   -3.4734   -5.1163 C   0  0  0  0  0  0  0  0  0  0  0  0
    2.8785   -3.9964   -3.5422 S   0  0  0  0  0  0  0  0  0  0  0  0
    2.5604   -4.5315   -6.5234 Cl  0  0  0  0  0  0  0  0  0  0  0  0
    3.5946   -1.1617   -0.8778 C   0  0  0  0  0  0  0  0  0  0  0  0
    4.5757   -0.1018   -1.7384 S   0  0  0  0  0  0  0  0  0  0  0  0
    0.9872   -3.8180   -0.7283 C   0  0  0  0  0  0  0  0  0  0  0  0
    0.2307   -4.1824    0.3877 C   0  0  0  0  0  0  0  0  0  0  0  0
    0.8379   -3.3739    1.7407 S   0  0  0  0  0  0  0  0  0  0  0  0
   -1.0989   -4.7910    0.2621 C   0  0  0  0  0  0  0  0  0  0  0  0
   -2.2894   -4.1694    0.7015 C   0  0  0  0  0  0  0  0  0  0  0  0
   -2.4003   -3.4016    1.9167 N   0  0  0  0  0  0  0  0  0  0  0  0
   -2.1006   -4.0259    3.1930 C   0  0  0  0  0  0  0  0  0  0  0  0
   -1.6105   -3.2467    4.2621 C   0  0  0  0  0  0  0  0  0  0  0  0
   -1.4932   -3.7943    5.5422 C   0  0  0  0  0  0  0  0  0  0  0  0
   -1.8663   -5.1225    5.7751 C   0  0  0  0  0  0  0  0  0  0  0  0
   -1.8471   -5.7813    7.4471 S   0  0  0  0  0  0  0  0  0  0  0  0
   -0.1549   -6.4346    7.3386 C   0  0  0  0  0  0  0  0  0  0  0  0
   -2.3077   -5.9177    4.7110 C   0  0  0  0  0  0  0  0  0  0  0  0
   -2.4141   -5.3775    3.4258 C   0  0  0  0  0  0  0  0  0  0  0  0
   -3.1504   -2.1804    1.9593 C   0  0  0  0  0  0  0  0  0  0  0  0
   -2.5088   -0.9569    1.7102 C   0  0  0  0  0  0  0  0  0  0  0  0
   -3.1104    0.2460    2.1081 C   0  0  0  0  0  0  0  0  0  0  0  0
   -4.3701    0.2280    2.7272 C   0  0  0  0  0  0  0  0  0  0  0  0
   -5.0362    1.7155    3.4948 S   0  0  0  0  0  0  0  0  0  0  0  0
   -5.8465    2.3330    1.9918 C   0  0  0  0  0  0  0  0  0  0  0  0
   -5.0437   -0.9801    2.8978 C   0  0  0  0  0  0  0  0  0  0  0  0
   -4.4328   -2.1766    2.5269 C   0  0  0  0  0  0  0  0  0  0  0  0
   -3.3824   -4.6038   -0.0544 C   0  0  0  0  0  0  0  0  0  0  0  0
   -4.9993   -4.1602   -0.1895 S   0  0  0  0  0  0  0  0  0  0  0  0
   -5.3267   -5.2488   -1.4651 C   0  0  0  0  0  0  0  0  0  0  0  0
   -4.1767   -5.9754   -1.7730 C   0  0  0  0  0  0  0  0  0  0  0  0
   -4.1669   -7.2121   -2.5121 N   0  0  0  0  0  0  0  0  0  0  0  0
   -3.8637   -8.4391   -1.7998 C   0  0  0  0  0  0  0  0  0  0  0  0
   -3.0683   -9.4369   -2.3888 C   0  0  0  0  0  0  0  0  0  0  0  0
   -2.6732  -10.5540   -1.6488 C   0  0  0  0  0  0  0  0  0  0  0  0
   -3.0675  -10.6907   -0.3106 C   0  0  0  0  0  0  0  0  0  0  0  0
   -2.4525  -12.0544    0.6747 S   0  0  0  0  0  0  0  0  0  0  0  0
   -0.9667  -11.1455    1.2165 C   0  0  0  0  0  0  0  0  0  0  0  0
   -3.9076   -9.7333    0.2637 C   0  0  0  0  0  0  0  0  0  0  0  0
   -4.3045   -8.6169   -0.4741 C   0  0  0  0  0  0  0  0  0  0  0  0
   -4.2836   -7.1956   -3.9360 C   0  0  0  0  0  0  0  0  0  0  0  0
   -3.4024   -6.4158   -4.7125 C   0  0  0  0  0  0  0  0  0  0  0  0
   -3.4448   -6.4801   -6.1028 C   0  0  0  0  0  0  0  0  0  0  0  0
   -4.3661   -7.3172   -6.7371 C   0  0  0  0  0  0  0  0  0  0  0  0
   -4.3533   -7.4717   -8.5267 S   0  0  0  0  0  0  0  0  0  0  0  0
   -3.2644   -8.9289   -8.5298 C   0  0  0  0  0  0  0  0  0  0  0  0
   -5.2703   -8.0705   -5.9753 C   0  0  0  0  0  0  0  0  0  0  0  0
   -5.2207   -8.0233   -4.5806 C   0  0  0  0  0  0  0  0  0  0  0  0
   -3.1109   -5.5633   -0.9757 C   0  0  0  0  0  0  0  0  0  0  0  0
   -1.4793   -5.9037   -0.9793 S   0  0  0  0  0  0  0  0  0  0  0  0
   -6.5654   -5.1700   -2.2661 C   0  0  0  0  0  0  0  0  0  0  0  0
   -6.6998   -4.1461   -3.1225 C   0  0  0  0  0  0  0  0  0  0  0  0
   -5.5795   -3.3551   -3.6412 C   0  0  0  0  0  0  0  0  0  0  0  0
   -4.7272   -3.7617   -4.4550 O   0  0  0  0  0  0  0  0  0  0  0  0
   -5.9329   -1.9599   -3.4765 C   0  0  0  0  0  0  0  0  0  0  0  0
   -5.2148   -0.8339   -3.9450 C   0  0  0  0  0  0  0  0  0  0  0  0
   -5.8474    0.3737   -3.7085 C   0  0  0  0  0  0  0  0  0  0  0  0
   -7.1082    0.4686   -3.0402 C   0  0  0  0  0  0  0  0  0  0  0  0
   -7.8532   -0.6274   -2.6579 C   0  0  0  0  0  0  0  0  0  0  0  0
   -7.2356   -1.8810   -2.9393 C   0  0  0  0  0  0  0  0  0  0  0  0
   -7.8622   -3.2397   -3.0084 C   0  0  0  0  0  0  0  0  0  0  0  0
   -8.9410   -3.4123   -3.7780 C   0  0  0  0  0  0  0  0  0  0  0  0
  -10.0152   -2.4582   -3.7445 C   0  0  0  0  0  0  0  0  0  0  0  0
  -10.8845   -1.6781   -3.6977 N   0  0  0  0  0  0  0  0  0  0  0  0
   -8.8900   -4.2444   -4.9854 C   0  0  0  0  0  0  0  0  0  0  0  0
   -8.8485   -4.8649   -5.9688 N   0  0  0  0  0  0  0  0  0  0  0  0
   -7.0911    1.9530   -3.1600 C   0  0  0  0  0  0  0  0  0  0  0  0
   -6.6901    2.7728   -1.8869 C   0  0  0  0  0  0  0  0  0  0  0  0
   -6.4065    4.1699   -2.3770 C   0  0  0  0  0  0  0  0  0  0  0  0
   -5.2658    4.1008   -3.0818 C   0  0  0  0  0  0  0  0  0  0  0  0
   -4.8220    2.6577   -3.0325 C   0  0  0  0  0  0  0  0  0  0  0  0
   -5.2655    2.3322   -1.6209 C   0  0  0  0  0  0  0  0  0  0  0  0
   -5.8318    1.8563   -3.9029 C   0  0  0  0  0  0  0  0  0  0  0  0
    8.0395    6.4718   -0.7070 H   0  0  0  0  0  0  0  0  0  0  0  0
    4.0118    6.6230    4.1566 H   0  0  0  0  0  0  0  0  0  0  0  0
    6.9339   10.6612    3.0639 H   0  0  0  0  0  0  0  0  0  0  0  0
    4.4600   11.3861    5.4018 H   0  0  0  0  0  0  0  0  0  0  0  0
    6.5560   11.5132    6.9135 H   0  0  0  0  0  0  0  0  0  0  0  0
    8.0025    9.2939    6.6244 H   0  0  0  0  0  0  0  0  0  0  0  0
    6.5180    7.2607    7.2579 H   0  0  0  0  0  0  0  0  0  0  0  0
    4.0890    8.1609    7.8960 H   0  0  0  0  0  0  0  0  0  0  0  0
    5.6295   10.0582    8.9250 H   0  0  0  0  0  0  0  0  0  0  0  0
    4.2231   10.8240    8.0383 H   0  0  0  0  0  0  0  0  0  0  0  0
    3.1102    9.5288    5.9380 H   0  0  0  0  0  0  0  0  0  0  0  0
    4.5602    4.4160   -3.4472 H   0  0  0  0  0  0  0  0  0  0  0  0
    6.0003    4.6274   -4.5505 H   0  0  0  0  0  0  0  0  0  0  0  0
    4.3024    6.8135   -3.2073 H   0  0  0  0  0  0  0  0  0  0  0  0
    5.7912    7.1389   -4.1699 H   0  0  0  0  0  0  0  0  0  0  0  0
    4.3443    6.3966   -4.9620 H   0  0  0  0  0  0  0  0  0  0  0  0
    7.4539    2.8918   -3.9273 H   0  0  0  0  0  0  0  0  0  0  0  0
    6.3480    1.7481   -4.7692 H   0  0  0  0  0  0  0  0  0  0  0  0
    8.0638    1.0244   -2.3044 H   0  0  0  0  0  0  0  0  0  0  0  0
    8.4879    0.6654   -4.0234 H   0  0  0  0  0  0  0  0  0  0  0  0
    7.0479   -0.1026   -3.2939 H   0  0  0  0  0  0  0  0  0  0  0  0
    6.4640    1.9423    1.6537 H   0  0  0  0  0  0  0  0  0  0  0  0
    7.3943    4.1803    1.7620 H   0  0  0  0  0  0  0  0  0  0  0  0
    4.6389    0.6740    1.7200 H   0  0  0  0  0  0  0  0  0  0  0  0
    3.5032   -3.2762    3.5861 H   0  0  0  0  0  0  0  0  0  0  0  0
    3.4450   -2.0876    7.2469 H   0  0  0  0  0  0  0  0  0  0  0  0
    3.2526   -3.5513    6.2412 H   0  0  0  0  0  0  0  0  0  0  0  0
    5.5903   -3.2253    7.2572 H   0  0  0  0  0  0  0  0  0  0  0  0
    5.5730   -3.4385    5.4613 H   0  0  0  0  0  0  0  0  0  0  0  0
    5.7891   -1.7962    6.1687 H   0  0  0  0  0  0  0  0  0  0  0  0
    2.2834   -0.4983   -3.6210 H   0  0  0  0  0  0  0  0  0  0  0  0
    1.6275   -0.3045   -6.0139 H   0  0  0  0  0  0  0  0  0  0  0  0
    1.3444   -1.8067   -6.9607 H   0  0  0  0  0  0  0  0  0  0  0  0
    4.1120   -0.4998   -6.4657 H   0  0  0  0  0  0  0  0  0  0  0  0
    3.1113   -0.2876   -7.9520 H   0  0  0  0  0  0  0  0  0  0  0  0
    3.7542   -1.9204   -7.5453 H   0  0  0  0  0  0  0  0  0  0  0  0
    0.7051   -4.0970   -1.7335 H   0  0  0  0  0  0  0  0  0  0  0  0
   -1.3603   -2.2085    4.1096 H   0  0  0  0  0  0  0  0  0  0  0  0
   -1.1607   -3.1675    6.3590 H   0  0  0  0  0  0  0  0  0  0  0  0
    0.5610   -5.6230    7.0907 H   0  0  0  0  0  0  0  0  0  0  0  0
    0.1199   -6.8748    8.3202 H   0  0  0  0  0  0  0  0  0  0  0  0
   -0.1112   -7.2246    6.5596 H   0  0  0  0  0  0  0  0  0  0  0  0
   -2.6179   -6.9388    4.8884 H   0  0  0  0  0  0  0  0  0  0  0  0
   -2.8077   -6.0021    2.6363 H   0  0  0  0  0  0  0  0  0  0  0  0
   -1.5091   -0.9465    1.3042 H   0  0  0  0  0  0  0  0  0  0  0  0
   -2.5711    1.1748    1.9888 H   0  0  0  0  0  0  0  0  0  0  0  0
   -5.0828    2.8384    1.3686 H   0  0  0  0  0  0  0  0  0  0  0  0
   -6.6223    3.0673    2.2812 H   0  0  0  0  0  0  0  0  0  0  0  0
   -6.3285    1.5089    1.4155 H   0  0  0  0  0  0  0  0  0  0  0  0
   -6.0036   -1.0047    3.3988 H   0  0  0  0  0  0  0  0  0  0  0  0
   -4.9225   -3.1143    2.7579 H   0  0  0  0  0  0  0  0  0  0  0  0
   -2.7255   -9.3266   -3.4056 H   0  0  0  0  0  0  0  0  0  0  0  0
   -2.0271  -11.2950   -2.1066 H   0  0  0  0  0  0  0  0  0  0  0  0
   -0.3695  -10.8300    0.3302 H   0  0  0  0  0  0  0  0  0  0  0  0
   -0.3446  -11.8094    1.8544 H   0  0  0  0  0  0  0  0  0  0  0  0
   -1.2678  -10.2393    1.7917 H   0  0  0  0  0  0  0  0  0  0  0  0
   -4.2318   -9.8374    1.2963 H   0  0  0  0  0  0  0  0  0  0  0  0
   -4.9403   -7.8798   -0.0002 H   0  0  0  0  0  0  0  0  0  0  0  0
   -2.6661   -5.7828   -4.2326 H   0  0  0  0  0  0  0  0  0  0  0  0
   -2.7355   -5.9076   -6.6885 H   0  0  0  0  0  0  0  0  0  0  0  0
   -2.2899   -8.6722   -8.0600 H   0  0  0  0  0  0  0  0  0  0  0  0
   -3.7426   -9.7658   -7.9725 H   0  0  0  0  0  0  0  0  0  0  0  0
   -3.0782   -9.2497   -9.5790 H   0  0  0  0  0  0  0  0  0  0  0  0
   -5.9869   -8.7252   -6.4606 H   0  0  0  0  0  0  0  0  0  0  0  0
   -5.8976   -8.6407   -3.9960 H   0  0  0  0  0  0  0  0  0  0  0  0
   -7.4589   -5.5588   -1.7896 H   0  0  0  0  0  0  0  0  0  0  0  0
   -4.2940   -0.9127   -4.4967 H   0  0  0  0  0  0  0  0  0  0  0  0
   -8.8541   -0.5211   -2.2531 H   0  0  0  0  0  0  0  0  0  0  0  0
   -7.9447    2.3599   -3.7497 H   0  0  0  0  0  0  0  0  0  0  0  0
   -7.3773    2.6935   -1.0236 H   0  0  0  0  0  0  0  0  0  0  0  0
   -6.9882    5.0746   -2.1853 H   0  0  0  0  0  0  0  0  0  0  0  0
   -4.7738    4.9314   -3.5711 H   0  0  0  0  0  0  0  0  0  0  0  0
   -3.7437    2.4805   -3.2482 H   0  0  0  0  0  0  0  0  0  0  0  0
   -4.7475    2.9604   -0.8551 H   0  0  0  0  0  0  0  0  0  0  0  0
   -5.1742    1.2667   -1.3184 H   0  0  0  0  0  0  0  0  0  0  0  0
   -5.9069    2.1748   -4.9700 H   0  0  0  0  0  0  0  0  0  0  0  0
  1  2  2  3
  2  3  1  0
  3  4  2  0
  3  5  1  0
  5  6  2  0
  6  7  1  0
  7  8  2  0
  8  9  1  0
  9 10  2  0
 10 11  1  0
 11 12  2  3
 12 13  1  0
 13 14  3  0
 12 15  1  0
 15 16  3  0
  8 17  1  0
 17 18  1  0
 18 19  1  0
 19 20  2  0
 20 21  1  0
 21 22  1  0
 21 23  1  0
  1 24  1  0
 24 25  2  0
 25 26  1  0
 26 27  1  0
 27 28  1  0
 25 29  1  0
 29 30  1  0
 30 31  1  0
 31 32  1  0
 29 33  2  0
 33 34  1  0
 34 35  2  0
 33 36  1  0
 36 37  2  0
 37 38  1  0
 38 39  2  0
 39 40  1  0
 40 41  2  0
 41 42  1  0
 42 43  1  0
 43 44  1  0
 42 45  2  0
 45 46  1  0
 45 47  1  0
 39 48  1  0
 48 49  2  0
 49 50  1  0
 50 51  1  0
 51 52  2  0
 52 53  1  0
 53 54  1  0
 54 55  1  0
 53 56  2  0
 56 57  1  0
 56 58  1  0
 50 59  2  0
 59 60  1  0
 49 61  1  0
 61 62  2  0
 62 63  1  0
 62 64  1  0
 64 65  2  0
 65 66  1  0
 66 67  1  0
 67 68  2  0
 68 69  1  0
 69 70  2  0
 70 71  1  0
 71 72  1  0
 70 73  1  0
 73 74  2  0
 66 75  1  0
 75 76  2  0
 76 77  1  0
 77 78  2  0
 78 79  1  0
 79 80  1  0
 78 81  1  0
 81 82  2  0
 65 83  1  0
 83 84  1  0
 84 85  1  0
 85 86  2  0
 86 87  1  0
 87 88  1  0
 88 89  2  0
 89 90  1  0
 90 91  2  0
 91 92  1  0
 92 93  1  0
 91 94  1  0
 94 95  2  0
 87 96  1  0
 96 97  2  0
 97 98  1  0
 98 99  2  0
 99100  1  0
100101  1  0
 99102  1  0
102103  2  0
 86104  1  0
104105  1  0
 85106  1  0
106107  2  3
107108  1  0
108109  2  0
108110  1  0
110111  2  0
111112  1  0
112113  2  0
113114  1  0
114115  2  0
115116  1  0
116117  2  3
117118  1  0
118119  3  0
117120  1  0
120121  3  0
113122  1  0
122123  1  0
123124  1  0
124125  2  0
125126  1  0
126127  1  0
126128  1  0
 11  2  1  0
 23 17  1  0
 35 24  1  0
 60 36  1  0
105 64  1  0
116107  1  0
128122  1  0
 10  5  1  0
 22 18  1  0
 59 38  1  0
 74 67  1  0
 82 75  1  0
104 83  2  0
115110  1  0
127123  1  0
 23  7  1  0
 47 40  1  0
 63 48  1  0
 95 88  1  0
103 96  1  0
128112  1  0
 57 51  1  0
  1129  1  0
  6130  1  0
  9131  1  0
 17132  1  0
 18133  1  0
 19134  1  0
 20135  1  0
 21136  1  0
 22137  1  0
 22138  1  0
 23139  1  0
 27140  1  0
 27141  1  0
 28142  1  0
 28143  1  0
 28144  1  0
 31145  1  0
 31146  1  0
 32147  1  0
 32148  1  0
 32149  1  0
 34150  1  0
 35151  1  0
 37152  1  0
 41153  1  0
 43154  1  0
 43155  1  0
 44156  1  0
 44157  1  0
 44158  1  0
 52159  1  0
 54160  1  0
 54161  1  0
 55162  1  0
 55163  1  0
 55164  1  0
 61165  1  0
 68166  1  0
 69167  1  0
 72168  1  0
 72169  1  0
 72170  1  0
 73171  1  0
 74172  1  0
 76173  1  0
 77174  1  0
 80175  1  0
 80176  1  0
 80177  1  0
 81178  1  0
 82179  1  0
 89180  1  0
 90181  1  0
 93182  1  0
 93183  1  0
 93184  1  0
 94185  1  0
 95186  1  0
 97187  1  0
 98188  1  0
101189  1  0
101190  1  0
101191  1  0
102192  1  0
103193  1  0
106194  1  0
111195  1  0
114196  1  0
122197  1  0
123198  1  0
124199  1  0
125200  1  0
126201  1  0
127202  1  0
127203  1  0
128204  1  0
M  END

