
     RDKit          3D

280304  0  0  0  0  0  0  0  0999 V2000
    2.5750   -0.2175    8.3639 C   0  0  0  0  0  0  0  0  0  0  0  0
    1.5110   -0.3062    9.1847 C   0  0  0  0  0  0  0  0  0  0  0  0
    0.5853   -1.4396    9.2352 C   0  0  0  0  0  0  0  0  0  0  0  0
    0.8918   -2.6536    9.1065 O   0  0  0  0  0  0  0  0  0  0  0  0
   -0.7414   -0.9473    9.5122 C   0  0  0  0  0  0  0  0  0  0  0  0
   -1.9382   -1.6894    9.4732 C   0  0  0  0  0  0  0  0  0  0  0  0
   -3.0803   -0.9210    9.5138 C   0  0  0  0  0  0  0  0  0  0  0  0
   -3.0646    0.5069    9.6297 C   0  0  0  0  0  0  0  0  0  0  0  0
   -1.8894    1.2389    9.7290 C   0  0  0  0  0  0  0  0  0  0  0  0
   -0.6969    0.4567    9.6878 C   0  0  0  0  0  0  0  0  0  0  0  0
    0.7283    0.8824    9.6538 C   0  0  0  0  0  0  0  0  0  0  0  0
    1.2331    2.0720   10.0761 C   0  0  0  0  0  0  0  0  0  0  0  0
    2.6479    2.2861   10.2222 C   0  0  0  0  0  0  0  0  0  0  0  0
    3.7836    2.4713   10.3625 N   0  0  0  0  0  0  0  0  0  0  0  0
    0.3935    3.1377   10.5584 C   0  0  0  0  0  0  0  0  0  0  0  0
   -0.2674    3.9988   10.9572 N   0  0  0  0  0  0  0  0  0  0  0  0
   -4.5640    0.5396    9.5447 C   0  0  0  0  0  0  0  0  0  0  0  0
   -5.3819    0.7963   10.8451 C   0  0  0  0  0  0  0  0  0  0  0  0
   -4.6219    0.2720   12.0402 C   0  0  0  0  0  0  0  0  0  0  0  0
   -4.6208   -1.0575   11.9354 C   0  0  0  0  0  0  0  0  0  0  0  0
   -5.3739   -1.3959   10.6725 C   0  0  0  0  0  0  0  0  0  0  0  0
   -6.4254   -0.3004   10.7230 C   0  0  0  0  0  0  0  0  0  0  0  0
   -4.5708   -0.9225    9.4256 C   0  0  0  0  0  0  0  0  0  0  0  0
    2.6911   -1.0220    7.1285 C   0  0  0  0  0  0  0  0  0  0  0  0
    2.5931   -0.4535    5.8572 C   0  0  0  0  0  0  0  0  0  0  0  0
    2.6511    0.9516    5.5915 N   0  0  0  0  0  0  0  0  0  0  0  0
    1.5523    1.8154    5.9342 C   0  0  0  0  0  0  0  0  0  0  0  0
    1.7861    3.0310    6.6014 C   0  0  0  0  0  0  0  0  0  0  0  0
    0.7266    3.8706    6.9409 C   0  0  0  0  0  0  0  0  0  0  0  0
   -0.5858    3.5165    6.6030 C   0  0  0  0  0  0  0  0  0  0  0  0
   -1.9533    4.5940    7.0520 S   0  0  0  0  0  0  0  0  0  0  0  0
   -1.8848    5.5687    5.5127 C   0  0  0  0  0  0  0  0  0  0  0  0
   -0.8314    2.3114    5.9348 C   0  0  0  0  0  0  0  0  0  0  0  0
    0.2301    1.4568    5.6122 C   0  0  0  0  0  0  0  0  0  0  0  0
    3.9028    1.4960    5.1358 C   0  0  0  0  0  0  0  0  0  0  0  0
    5.0996    1.1899    5.8175 C   0  0  0  0  0  0  0  0  0  0  0  0
    6.3151    1.6874    5.3581 C   0  0  0  0  0  0  0  0  0  0  0  0
    6.3552    2.5067    4.2263 C   0  0  0  0  0  0  0  0  0  0  0  0
    7.9218    3.1462    3.6336 S   0  0  0  0  0  0  0  0  0  0  0  0
    7.8621    4.6181    4.7048 C   0  0  0  0  0  0  0  0  0  0  0  0
    5.1682    2.8039    3.5362 C   0  0  0  0  0  0  0  0  0  0  0  0
    3.9484    2.3054    3.9931 C   0  0  0  0  0  0  0  0  0  0  0  0
    2.6709   -1.4155    4.8657 C   0  0  0  0  0  0  0  0  0  0  0  0
    2.4903   -1.3537    3.2131 S   0  0  0  0  0  0  0  0  0  0  0  0
    2.6427   -3.0405    3.0122 C   0  0  0  0  0  0  0  0  0  0  0  0
    2.8671   -3.6463    4.2597 C   0  0  0  0  0  0  0  0  0  0  0  0
    3.4009   -4.9654    4.4094 N   0  0  0  0  0  0  0  0  0  0  0  0
    2.5443   -6.1136    4.2767 C   0  0  0  0  0  0  0  0  0  0  0  0
    2.9224   -7.1881    3.4526 C   0  0  0  0  0  0  0  0  0  0  0  0
    2.0929   -8.3037    3.3200 C   0  0  0  0  0  0  0  0  0  0  0  0
    0.8810   -8.3656    4.0196 C   0  0  0  0  0  0  0  0  0  0  0  0
   -0.1562   -9.8246    3.8755 S   0  0  0  0  0  0  0  0  0  0  0  0
   -1.0828   -9.2109    2.4319 C   0  0  0  0  0  0  0  0  0  0  0  0
    0.5056   -7.3052    4.8532 C   0  0  0  0  0  0  0  0  0  0  0  0
    1.3249   -6.1770    4.9713 C   0  0  0  0  0  0  0  0  0  0  0  0
    4.8321   -5.1171    4.4738 C   0  0  0  0  0  0  0  0  0  0  0  0
    5.6575   -4.5195    3.5043 C   0  0  0  0  0  0  0  0  0  0  0  0
    7.0477   -4.6570    3.5745 C   0  0  0  0  0  0  0  0  0  0  0  0
    7.6272   -5.3785    4.6232 C   0  0  0  0  0  0  0  0  0  0  0  0
    9.4090   -5.5387    4.7210 S   0  0  0  0  0  0  0  0  0  0  0  0
    9.6227   -3.9863    5.6470 C   0  0  0  0  0  0  0  0  0  0  0  0
    6.8109   -5.9859    5.5863 C   0  0  0  0  0  0  0  0  0  0  0  0
    5.4182   -5.8601    5.5101 C   0  0  0  0  0  0  0  0  0  0  0  0
    2.8582   -2.6921    5.2811 C   0  0  0  0  0  0  0  0  0  0  0  0
    2.9441   -2.7129    6.9662 S   0  0  0  0  0  0  0  0  0  0  0  0
    2.2814   -3.6842    1.7461 C   0  0  0  0  0  0  0  0  0  0  0  0
    0.9766   -3.4071    1.3020 C   0  0  0  0  0  0  0  0  0  0  0  0
   -0.1559   -4.2108    1.6817 N   0  0  0  0  0  0  0  0  0  0  0  0
   -0.8051   -4.0902    2.9709 C   0  0  0  0  0  0  0  0  0  0  0  0
   -0.8321   -2.8725    3.6793 C   0  0  0  0  0  0  0  0  0  0  0  0
   -1.5707   -2.7614    4.8695 C   0  0  0  0  0  0  0  0  0  0  0  0
   -2.3182   -3.8519    5.3350 C   0  0  0  0  0  0  0  0  0  0  0  0
   -3.3633   -3.6990    6.7913 S   0  0  0  0  0  0  0  0  0  0  0  0
   -2.3857   -4.8719    7.7911 C   0  0  0  0  0  0  0  0  0  0  0  0
   -2.2924   -5.0587    4.6376 C   0  0  0  0  0  0  0  0  0  0  0  0
   -1.5153   -5.1856    3.4937 C   0  0  0  0  0  0  0  0  0  0  0  0
   -0.6648   -5.1608    0.7127 C   0  0  0  0  0  0  0  0  0  0  0  0
   -2.0494   -5.2522    0.4629 C   0  0  0  0  0  0  0  0  0  0  0  0
   -2.5581   -6.2547   -0.3646 C   0  0  0  0  0  0  0  0  0  0  0  0
   -1.6898   -7.1615   -0.9805 C   0  0  0  0  0  0  0  0  0  0  0  0
   -2.3534   -8.5174   -1.9493 S   0  0  0  0  0  0  0  0  0  0  0  0
   -2.5873   -7.5193   -3.4524 C   0  0  0  0  0  0  0  0  0  0  0  0
   -0.3059   -7.0444   -0.7857 C   0  0  0  0  0  0  0  0  0  0  0  0
    0.1997   -6.0601    0.0663 C   0  0  0  0  0  0  0  0  0  0  0  0
    0.9914   -2.7768    0.0718 C   0  0  0  0  0  0  0  0  0  0  0  0
   -0.1505   -1.8884   -0.7262 S   0  0  0  0  0  0  0  0  0  0  0  0
    0.8775   -1.4588   -2.0205 C   0  0  0  0  0  0  0  0  0  0  0  0
    2.1086   -2.1541   -1.8821 C   0  0  0  0  0  0  0  0  0  0  0  0
    2.9318   -2.6145   -2.9853 N   0  0  0  0  0  0  0  0  0  0  0  0
    2.3833   -2.8301   -4.3161 C   0  0  0  0  0  0  0  0  0  0  0  0
    1.0281   -3.1727   -4.5188 C   0  0  0  0  0  0  0  0  0  0  0  0
    0.5008   -3.2442   -5.8102 C   0  0  0  0  0  0  0  0  0  0  0  0
    1.3308   -3.0551   -6.9204 C   0  0  0  0  0  0  0  0  0  0  0  0
    0.6420   -3.0296   -8.5747 S   0  0  0  0  0  0  0  0  0  0  0  0
    0.3088   -1.2368   -8.5421 C   0  0  0  0  0  0  0  0  0  0  0  0
    2.7041   -2.8716   -6.7332 C   0  0  0  0  0  0  0  0  0  0  0  0
    3.2256   -2.7615   -5.4429 C   0  0  0  0  0  0  0  0  0  0  0  0
    4.2074   -3.2165   -2.7018 C   0  0  0  0  0  0  0  0  0  0  0  0
    4.3955   -4.5927   -2.9101 C   0  0  0  0  0  0  0  0  0  0  0  0
    5.6496   -5.1735   -2.6918 C   0  0  0  0  0  0  0  0  0  0  0  0
    6.7256   -4.3797   -2.2837 C   0  0  0  0  0  0  0  0  0  0  0  0
    8.3468   -5.1088   -2.0484 S   0  0  0  0  0  0  0  0  0  0  0  0
    8.7452   -5.1242   -3.8274 C   0  0  0  0  0  0  0  0  0  0  0  0
    6.5327   -3.0131   -2.0463 C   0  0  0  0  0  0  0  0  0  0  0  0
    5.2704   -2.4358   -2.2311 C   0  0  0  0  0  0  0  0  0  0  0  0
    2.1533   -2.7631   -0.6069 C   0  0  0  0  0  0  0  0  0  0  0  0
    3.3215   -3.4042    0.4108 S   0  0  0  0  0  0  0  0  0  0  0  0
    0.4009   -0.5070   -3.0495 C   0  0  0  0  0  0  0  0  0  0  0  0
    1.1074    0.3598   -3.9260 C   0  0  0  0  0  0  0  0  0  0  0  0
    2.4900    0.7349   -3.7509 N   0  0  0  0  0  0  0  0  0  0  0  0
    2.7786    1.7887   -2.8099 C   0  0  0  0  0  0  0  0  0  0  0  0
    3.3231    3.0039   -3.2633 C   0  0  0  0  0  0  0  0  0  0  0  0
    3.7420    3.9741   -2.3501 C   0  0  0  0  0  0  0  0  0  0  0  0
    3.6255    3.7419   -0.9779 C   0  0  0  0  0  0  0  0  0  0  0  0
    4.3003    4.9243    0.1875 S   0  0  0  0  0  0  0  0  0  0  0  0
    5.9789    4.2194    0.0904 C   0  0  0  0  0  0  0  0  0  0  0  0
    3.0297    2.5602   -0.5202 C   0  0  0  0  0  0  0  0  0  0  0  0
    2.6075    1.5872   -1.4322 C   0  0  0  0  0  0  0  0  0  0  0  0
    3.5097    0.4185   -4.7340 C   0  0  0  0  0  0  0  0  0  0  0  0
    3.1996    0.2699   -6.0971 C   0  0  0  0  0  0  0  0  0  0  0  0
    4.2143    0.0253   -7.0318 C   0  0  0  0  0  0  0  0  0  0  0  0
    5.5428   -0.0956   -6.6135 C   0  0  0  0  0  0  0  0  0  0  0  0
    6.8298   -0.5312   -7.7864 S   0  0  0  0  0  0  0  0  0  0  0  0
    7.2831    1.1963   -8.1369 C   0  0  0  0  0  0  0  0  0  0  0  0
    5.8641    0.0750   -5.2645 C   0  0  0  0  0  0  0  0  0  0  0  0
    4.8579    0.3497   -4.3375 C   0  0  0  0  0  0  0  0  0  0  0  0
    0.2001    1.1926   -4.6152 C   0  0  0  0  0  0  0  0  0  0  0  0
    0.3251    2.3429   -5.8310 S   0  0  0  0  0  0  0  0  0  0  0  0
   -1.3499    2.7246   -5.8508 C   0  0  0  0  0  0  0  0  0  0  0  0
   -1.9899    2.0274   -4.7973 C   0  0  0  0  0  0  0  0  0  0  0  0
   -3.3189    2.3133   -4.2683 N   0  0  0  0  0  0  0  0  0  0  0  0
   -3.9542    3.5879   -4.4896 C   0  0  0  0  0  0  0  0  0  0  0  0
   -5.2587    3.6326   -5.0098 C   0  0  0  0  0  0  0  0  0  0  0  0
   -5.8863    4.8611   -5.2275 C   0  0  0  0  0  0  0  0  0  0  0  0
   -5.2282    6.0528   -4.8936 C   0  0  0  0  0  0  0  0  0  0  0  0
   -6.0367    7.6245   -5.1744 S   0  0  0  0  0  0  0  0  0  0  0  0
   -6.8188    7.6626   -3.5296 C   0  0  0  0  0  0  0  0  0  0  0  0
   -3.9415    6.0120   -4.3387 C   0  0  0  0  0  0  0  0  0  0  0  0
   -3.3109    4.7842   -4.1242 C   0  0  0  0  0  0  0  0  0  0  0  0
   -3.8289    1.5674   -3.1531 C   0  0  0  0  0  0  0  0  0  0  0  0
   -3.6267    2.0340   -1.8445 C   0  0  0  0  0  0  0  0  0  0  0  0
   -4.0220    1.2600   -0.7493 C   0  0  0  0  0  0  0  0  0  0  0  0
   -4.6246    0.0137   -0.9564 C   0  0  0  0  0  0  0  0  0  0  0  0
   -5.1031   -0.9854    0.4520 S   0  0  0  0  0  0  0  0  0  0  0  0
   -3.4738   -1.7836    0.5969 C   0  0  0  0  0  0  0  0  0  0  0  0
   -4.8576   -0.4414   -2.2596 C   0  0  0  0  0  0  0  0  0  0  0  0
   -4.4652    0.3349   -3.3589 C   0  0  0  0  0  0  0  0  0  0  0  0
   -1.1013    1.1094   -4.2293 C   0  0  0  0  0  0  0  0  0  0  0  0
   -1.2448   -0.1022   -3.1064 S   0  0  0  0  0  0  0  0  0  0  0  0
   -2.0578    3.5128   -6.9366 C   0  0  0  0  0  0  0  0  0  0  0  0
   -3.2207    2.7164   -7.4812 C   0  0  0  0  0  0  0  0  0  0  0  0
   -3.8885    3.1578   -8.5414 C   0  0  0  0  0  0  0  0  0  0  0  0
   -3.4648    4.4100   -9.2212 C   0  0  0  0  0  0  0  0  0  0  0  0
   -4.3745    5.2732   -9.7653 C   0  0  0  0  0  0  0  0  0  0  0  0
   -5.8367    5.1101   -9.6000 C   0  0  0  0  0  0  0  0  0  0  0  0
   -6.3745    3.9658   -9.6643 O   0  0  0  0  0  0  0  0  0  0  0  0
   -6.6601    6.2621   -9.3514 N   0  0  0  0  0  0  0  0  0  0  0  0
   -7.9805    6.0672   -8.7233 C   0  0  0  0  0  0  0  0  0  0  0  0
   -9.0821    5.9932   -9.7776 C   0  0  0  0  0  0  0  0  0  0  0  0
   -6.1657    7.5719   -9.7177 C   0  0  0  0  0  0  0  0  0  0  0  0
   -7.1321    8.8970   -9.5262 S   0  0  0  0  0  0  0  0  0  0  0  0
   -4.8360    7.7095  -10.2889 N   0  0  0  0  0  0  0  0  0  0  0  0
   -3.9798    6.5562  -10.3894 C   0  0  0  0  0  0  0  0  0  0  0  0
   -2.9003    6.6281  -11.0405 O   0  0  0  0  0  0  0  0  0  0  0  0
   -4.2977    9.0329  -10.6658 C   0  0  0  0  0  0  0  0  0  0  0  0
   -3.7293    9.7433   -9.4417 C   0  0  0  0  0  0  0  0  0  0  0  0
   -1.9751    4.7703   -9.1300 C   0  0  0  0  0  0  0  0  0  0  0  0
   -1.1739    3.8977   -8.1329 C   0  0  0  0  0  0  0  0  0  0  0  0
    3.0773    0.7332    8.2913 H   0  0  0  0  0  0  0  0  0  0  0  0
   -1.9623   -2.7598    9.3616 H   0  0  0  0  0  0  0  0  0  0  0  0
   -1.9107    2.3190    9.7628 H   0  0  0  0  0  0  0  0  0  0  0  0
   -4.9459    1.0623    8.6407 H   0  0  0  0  0  0  0  0  0  0  0  0
   -5.7817    1.8231   10.9656 H   0  0  0  0  0  0  0  0  0  0  0  0
   -4.2265    0.8462   12.8706 H   0  0  0  0  0  0  0  0  0  0  0  0
   -4.2235   -1.7571   12.6673 H   0  0  0  0  0  0  0  0  0  0  0  0
   -5.7657   -2.4341   10.6235 H   0  0  0  0  0  0  0  0  0  0  0  0
   -7.0376   -0.2325    9.7921 H   0  0  0  0  0  0  0  0  0  0  0  0
   -7.0973   -0.3741   11.6110 H   0  0  0  0  0  0  0  0  0  0  0  0
   -4.9579   -1.2812    8.4469 H   0  0  0  0  0  0  0  0  0  0  0  0
    2.7933    3.3237    6.8683 H   0  0  0  0  0  0  0  0  0  0  0  0
    0.9195    4.8016    7.4613 H   0  0  0  0  0  0  0  0  0  0  0  0
   -1.0396    6.2816    5.5585 H   0  0  0  0  0  0  0  0  0  0  0  0
   -2.8256    6.1501    5.4143 H   0  0  0  0  0  0  0  0  0  0  0  0
   -1.7829    4.9087    4.6259 H   0  0  0  0  0  0  0  0  0  0  0  0
   -1.8428    2.0330    5.6652 H   0  0  0  0  0  0  0  0  0  0  0  0
    0.0302    0.5364    5.0787 H   0  0  0  0  0  0  0  0  0  0  0  0
    5.0828    0.5616    6.6955 H   0  0  0  0  0  0  0  0  0  0  0  0
    7.2320    1.4331    5.8774 H   0  0  0  0  0  0  0  0  0  0  0  0
    7.8047    4.3146    5.7713 H   0  0  0  0  0  0  0  0  0  0  0  0
    6.9825    5.2444    4.4462 H   0  0  0  0  0  0  0  0  0  0  0  0
    8.7842    5.2142    4.5565 H   0  0  0  0  0  0  0  0  0  0  0  0
    5.1923    3.4251    2.6563 H   0  0  0  0  0  0  0  0  0  0  0  0
    3.0378    2.5285    3.4484 H   0  0  0  0  0  0  0  0  0  0  0  0
    3.8546   -7.1518    2.9028 H   0  0  0  0  0  0  0  0  0  0  0  0
    2.3969   -9.1248    2.6823 H   0  0  0  0  0  0  0  0  0  0  0  0
   -0.3876   -8.9357    1.6110 H   0  0  0  0  0  0  0  0  0  0  0  0
   -1.7657  -10.0109    2.0757 H   0  0  0  0  0  0  0  0  0  0  0  0
   -1.6979   -8.3392    2.7238 H   0  0  0  0  0  0  0  0  0  0  0  0
   -0.4227   -7.3595    5.4112 H   0  0  0  0  0  0  0  0  0  0  0  0
    1.0174   -5.3638    5.6154 H   0  0  0  0  0  0  0  0  0  0  0  0
    5.2328   -3.9568    2.6872 H   0  0  0  0  0  0  0  0  0  0  0  0
    7.6693   -4.1958    2.8180 H   0  0  0  0  0  0  0  0  0  0  0  0
   10.6987   -3.8604    5.8950 H   0  0  0  0  0  0  0  0  0  0  0  0
    9.2952   -3.1246    5.0296 H   0  0  0  0  0  0  0  0  0  0  0  0
    9.0402   -4.0170    6.5915 H   0  0  0  0  0  0  0  0  0  0  0  0
    7.2543   -6.5507    6.3993 H   0  0  0  0  0  0  0  0  0  0  0  0
    4.7964   -6.3214    6.2666 H   0  0  0  0  0  0  0  0  0  0  0  0
   -0.3313   -1.9979    3.2887 H   0  0  0  0  0  0  0  0  0  0  0  0
   -1.6011   -1.8173    5.3951 H   0  0  0  0  0  0  0  0  0  0  0  0
   -1.3243   -4.5481    7.8414 H   0  0  0  0  0  0  0  0  0  0  0  0
   -2.8092   -4.9083    8.8171 H   0  0  0  0  0  0  0  0  0  0  0  0
   -2.4428   -5.8917    7.3632 H   0  0  0  0  0  0  0  0  0  0  0  0
   -2.8721   -5.9057    4.9759 H   0  0  0  0  0  0  0  0  0  0  0  0
   -1.5026   -6.1363    2.9907 H   0  0  0  0  0  0  0  0  0  0  0  0
   -2.7358   -4.5767    0.9412 H   0  0  0  0  0  0  0  0  0  0  0  0
   -3.6312   -6.3348   -0.5094 H   0  0  0  0  0  0  0  0  0  0  0  0
   -3.3088   -6.7019   -3.2577 H   0  0  0  0  0  0  0  0  0  0  0  0
   -2.9882   -8.1676   -4.2620 H   0  0  0  0  0  0  0  0  0  0  0  0
   -1.6179   -7.0894   -3.7842 H   0  0  0  0  0  0  0  0  0  0  0  0
    0.3674   -7.7467   -1.2576 H   0  0  0  0  0  0  0  0  0  0  0  0
    1.2674   -6.0211    0.2494 H   0  0  0  0  0  0  0  0  0  0  0  0
    0.3708   -3.3685   -3.6863 H   0  0  0  0  0  0  0  0  0  0  0  0
   -0.5566   -3.4351   -5.9503 H   0  0  0  0  0  0  0  0  0  0  0  0
    1.2338   -0.6712   -8.3073 H   0  0  0  0  0  0  0  0  0  0  0  0
   -0.4771   -1.0187   -7.7898 H   0  0  0  0  0  0  0  0  0  0  0  0
   -0.0534   -0.9123   -9.5400 H   0  0  0  0  0  0  0  0  0  0  0  0
    3.3655   -2.7618   -7.5842 H   0  0  0  0  0  0  0  0  0  0  0  0
    4.2832   -2.5675   -5.3200 H   0  0  0  0  0  0  0  0  0  0  0  0
    3.5738   -5.2112   -3.2517 H   0  0  0  0  0  0  0  0  0  0  0  0
    5.7859   -6.2350   -2.8627 H   0  0  0  0  0  0  0  0  0  0  0  0
    8.4405   -4.1755   -4.3150 H   0  0  0  0  0  0  0  0  0  0  0  0
    8.2334   -5.9839   -4.3066 H   0  0  0  0  0  0  0  0  0  0  0  0
    9.8430   -5.2593   -3.9490 H   0  0  0  0  0  0  0  0  0  0  0  0
    7.3556   -2.3957   -1.7089 H   0  0  0  0  0  0  0  0  0  0  0  0
    5.1231   -1.3862   -2.0206 H   0  0  0  0  0  0  0  0  0  0  0  0
    3.4613    3.1810   -4.3232 H   0  0  0  0  0  0  0  0  0  0  0  0
    4.2029    4.8869   -2.7132 H   0  0  0  0  0  0  0  0  0  0  0  0
    6.6275    4.7226    0.8377 H   0  0  0  0  0  0  0  0  0  0  0  0
    5.9552    3.1313    0.3100 H   0  0  0  0  0  0  0  0  0  0  0  0
    6.4001    4.3856   -0.9222 H   0  0  0  0  0  0  0  0  0  0  0  0
    2.9247    2.3805    0.5422 H   0  0  0  0  0  0  0  0  0  0  0  0
    2.1943    0.6619   -1.0561 H   0  0  0  0  0  0  0  0  0  0  0  0
    2.1819    0.3256   -6.4419 H   0  0  0  0  0  0  0  0  0  0  0  0
    3.9624   -0.1099   -8.0759 H   0  0  0  0  0  0  0  0  0  0  0  0
    6.4464    1.7083   -8.6537 H   0  0  0  0  0  0  0  0  0  0  0  0
    8.1723    1.2036   -8.7981 H   0  0  0  0  0  0  0  0  0  0  0  0
    7.5370    1.7348   -7.1999 H   0  0  0  0  0  0  0  0  0  0  0  0
    6.8912   -0.0055   -4.9275 H   0  0  0  0  0  0  0  0  0  0  0  0
    5.1322    0.5214   -3.3062 H   0  0  0  0  0  0  0  0  0  0  0  0
   -5.7740    2.7175   -5.2623 H   0  0  0  0  0  0  0  0  0  0  0  0
   -6.8861    4.8884   -5.6479 H   0  0  0  0  0  0  0  0  0  0  0  0
   -7.5464    8.4961   -3.4984 H   0  0  0  0  0  0  0  0  0  0  0  0
   -6.0478    7.8126   -2.7403 H   0  0  0  0  0  0  0  0  0  0  0  0
   -7.3570    6.7087   -3.3400 H   0  0  0  0  0  0  0  0  0  0  0  0
   -3.4332    6.9313   -4.0833 H   0  0  0  0  0  0  0  0  0  0  0  0
   -2.3156    4.7635   -3.7017 H   0  0  0  0  0  0  0  0  0  0  0  0
   -3.1331    2.9842   -1.6743 H   0  0  0  0  0  0  0  0  0  0  0  0
   -3.8490    1.6278    0.2556 H   0  0  0  0  0  0  0  0  0  0  0  0
   -2.6746   -1.0175    0.6810 H   0  0  0  0  0  0  0  0  0  0  0  0
   -3.2892   -2.4261   -0.2889 H   0  0  0  0  0  0  0  0  0  0  0  0
   -3.4637   -2.4053    1.5163 H   0  0  0  0  0  0  0  0  0  0  0  0
   -5.3249   -1.4039   -2.4238 H   0  0  0  0  0  0  0  0  0  0  0  0
   -4.6173   -0.0389   -4.3631 H   0  0  0  0  0  0  0  0  0  0  0  0
   -2.4331    4.4563   -6.5036 H   0  0  0  0  0  0  0  0  0  0  0  0
   -3.5171    1.7730   -7.0324 H   0  0  0  0  0  0  0  0  0  0  0  0
   -4.6989    2.5541   -8.9129 H   0  0  0  0  0  0  0  0  0  0  0  0
   -7.9919    5.1300   -8.1244 H   0  0  0  0  0  0  0  0  0  0  0  0
   -8.1994    6.8862   -8.0039 H   0  0  0  0  0  0  0  0  0  0  0  0
  -10.0396    5.6959   -9.3016 H   0  0  0  0  0  0  0  0  0  0  0  0
   -8.8215    5.2462  -10.5546 H   0  0  0  0  0  0  0  0  0  0  0  0
   -9.2206    6.9841  -10.2603 H   0  0  0  0  0  0  0  0  0  0  0  0
   -3.4968    8.9351  -11.4274 H   0  0  0  0  0  0  0  0  0  0  0  0
   -5.0829    9.6570  -11.1429 H   0  0  0  0  0  0  0  0  0  0  0  0
   -2.9000    9.1483   -9.0060 H   0  0  0  0  0  0  0  0  0  0  0  0
   -4.5173    9.8822   -8.6722 H   0  0  0  0  0  0  0  0  0  0  0  0
   -3.3406   10.7409   -9.7370 H   0  0  0  0  0  0  0  0  0  0  0  0
   -1.5080    4.6837  -10.1320 H   0  0  0  0  0  0  0  0  0  0  0  0
   -1.8803    5.8253   -8.7885 H   0  0  0  0  0  0  0  0  0  0  0  0
   -0.2808    4.4632   -7.7851 H   0  0  0  0  0  0  0  0  0  0  0  0
   -0.8171    2.9781   -8.6455 H   0  0  0  0  0  0  0  0  0  0  0  0
  1  2  2  3
  2  3  1  0
  3  4  2  0
  3  5  1  0
  5  6  2  0
  6  7  1  0
  7  8  2  0
  8  9  1  0
  9 10  2  0
 10 11  1  0
 11 12  2  3
 12 13  1  0
 13 14  3  0
 12 15  1  0
 15 16  3  0
  8 17  1  0
 17 18  1  0
 18 19  1  0
 19 20  2  0
 20 21  1  0
 21 22  1  0
 21 23  1  0
  1 24  1  0
 24 25  2  0
 25 26  1  0
 26 27  1  0
 27 28  2  0
 28 29  1  0
 29 30  2  0
 30 31  1  0
 31 32  1  0
 30 33  1  0
 33 34  2  0
 26 35  1  0
 35 36  2  0
 36 37  1  0
 37 38  2  0
 38 39  1  0
 39 40  1  0
 38 41  1  0
 41 42  2  0
 25 43  1  0
 43 44  1  0
 44 45  1  0
 45 46  2  0
 46 47  1  0
 47 48  1  0
 48 49  2  0
 49 50  1  0
 50 51  2  0
 51 52  1  0
 52 53  1  0
 51 54  1  0
 54 55  2  0
 47 56  1  0
 56 57  2  0
 57 58  1  0
 58 59  2  0
 59 60  1  0
 60 61  1  0
 59 62  1  0
 62 63  2  0
 46 64  1  0
 64 65  1  0
 45 66  1  0
 66 67  2  0
 67 68  1  0
 68 69  1  0
 69 70  2  0
 70 71  1  0
 71 72  2  0
 72 73  1  0
 73 74  1  0
 72 75  1  0
 75 76  2  0
 68 77  1  0
 77 78  2  0
 78 79  1  0
 79 80  2  0
 80 81  1  0
 81 82  1  0
 80 83  1  0
 83 84  2  0
 67 85  1  0
 85 86  1  0
 86 87  1  0
 87 88  2  0
 88 89  1  0
 89 90  1  0
 90 91  2  0
 91 92  1  0
 92 93  2  0
 93 94  1  0
 94 95  1  0
 93 96  1  0
 96 97  2  0
 89 98  1  0
 98 99  2  0
 99100  1  0
100101  2  0
101102  1  0
102103  1  0
101104  1  0
104105  2  0
 88106  1  0
106107  1  0
 87108  1  0
108109  2  0
109110  1  0
110111  1  0
111112  2  0
112113  1  0
113114  2  0
114115  1  0
115116  1  0
114117  1  0
117118  2  0
110119  1  0
119120  2  0
120121  1  0
121122  2  0
122123  1  0
123124  1  0
122125  1  0
125126  2  0
109127  1  0
127128  1  0
128129  1  0
129130  2  0
130131  1  0
131132  1  0
132133  2  0
133134  1  0
134135  2  0
135136  1  0
136137  1  0
135138  1  0
138139  2  0
131140  1  0
140141  2  0
141142  1  0
142143  2  0
143144  1  0
144145  1  0
143146  1  0
146147  2  0
130148  1  0
148149  1  0
129150  1  0
150151  1  0
151152  2  0
152153  1  0
153154  2  3
154155  1  0
155156  2  0
155157  1  0
157158  1  0
158159  1  0
157160  1  0
160161  2  0
160162  1  0
162163  1  0
163164  2  0
162165  1  0
165166  1  0
153167  1  0
167168  1  0
 11  2  1  0
 23 17  1  0
 65 24  1  0
107 66  1  0
149108  1  0
168150  1  0
 10  5  1  0
 22 18  1  0
 34 27  1  0
 42 35  1  0
 64 43  2  0
 76 69  1  0
 84 77  1  0
106 85  2  0
118111  1  0
126119  1  0
148127  2  0
163154  1  0
 23  7  1  0
 55 48  1  0
 63 56  1  0
 97 90  1  0
105 98  1  0
139132  1  0
147140  1  0
  1169  1  0
  6170  1  0
  9171  1  0
 17172  1  0
 18173  1  0
 19174  1  0
 20175  1  0
 21176  1  0
 22177  1  0
 22178  1  0
 23179  1  0
 28180  1  0
 29181  1  0
 32182  1  0
 32183  1  0
 32184  1  0
 33185  1  0
 34186  1  0
 36187  1  0
 37188  1  0
 40189  1  0
 40190  1  0
 40191  1  0
 41192  1  0
 42193  1  0
 49194  1  0
 50195  1  0
 53196  1  0
 53197  1  0
 53198  1  0
 54199  1  0
 55200  1  0
 57201  1  0
 58202  1  0
 61203  1  0
 61204  1  0
 61205  1  0
 62206  1  0
 63207  1  0
 70208  1  0
 71209  1  0
 74210  1  0
 74211  1  0
 74212  1  0
 75213  1  0
 76214  1  0
 78215  1  0
 79216  1  0
 82217  1  0
 82218  1  0
 82219  1  0
 83220  1  0
 84221  1  0
 91222  1  0
 92223  1  0
 95224  1  0
 95225  1  0
 95226  1  0
 96227  1  0
 97228  1  0
 99229  1  0
100230  1  0
103231  1  0
103232  1  0
103233  1  0
104234  1  0
105235  1  0
112236  1  0
113237  1  0
116238  1  0
116239  1  0
116240  1  0
117241  1  0
118242  1  0
120243  1  0
121244  1  0
124245  1  0
124246  1  0
124247  1  0
125248  1  0
126249  1  0
133250  1  0
134251  1  0
137252  1  0
137253  1  0
137254  1  0
138255  1  0
139256  1  0
141257  1  0
142258  1  0
145259  1  0
145260  1  0
145261  1  0
146262  1  0
147263  1  0
150264  1  0
151265  1  0
152266  1  0
158267  1  0
158268  1  0
159269  1  0
159270  1  0
159271  1  0
165272  1  0
165273  1  0
166274  1  0
166275  1  0
166276  1  0
167277  1  0
167278  1  0
168279  1  0
168280  1  0
M  END

