
     RDKit          3D

160176  0  0  0  0  0  0  0  0999 V2000
   -4.6085    3.0651   -5.2024 C   0  0  0  0  0  0  0  0  0  0  0  0
   -4.1216    2.2417   -6.1676 C   0  0  0  0  0  0  0  0  0  0  0  0
   -2.8141    1.5433   -6.1735 C   0  0  0  0  0  0  0  0  0  0  0  0
   -2.0540    1.3465   -5.1799 O   0  0  0  0  0  0  0  0  0  0  0  0
   -2.5739    1.0568   -7.5091 C   0  0  0  0  0  0  0  0  0  0  0  0
   -1.3959    0.4056   -7.9862 C   0  0  0  0  0  0  0  0  0  0  0  0
   -1.4636    0.1007   -9.3351 C   0  0  0  0  0  0  0  0  0  0  0  0
   -2.6054    0.3842  -10.1537 C   0  0  0  0  0  0  0  0  0  0  0  0
   -3.7538    1.0101   -9.6821 C   0  0  0  0  0  0  0  0  0  0  0  0
   -3.7268    1.3400   -8.3095 C   0  0  0  0  0  0  0  0  0  0  0  0
   -4.8243    1.8872   -7.4425 C   0  0  0  0  0  0  0  0  0  0  0  0
   -6.1526    1.6137   -7.5586 C   0  0  0  0  0  0  0  0  0  0  0  0
   -6.6684    0.8785   -8.6864 C   0  0  0  0  0  0  0  0  0  0  0  0
   -7.1691    0.3067   -9.5676 N   0  0  0  0  0  0  0  0  0  0  0  0
   -6.9187    1.4344   -6.3430 C   0  0  0  0  0  0  0  0  0  0  0  0
   -7.4522    1.2130   -5.3297 N   0  0  0  0  0  0  0  0  0  0  0  0
   -1.9019   -0.1789  -11.3526 C   0  0  0  0  0  0  0  0  0  0  0  0
   -2.3119   -1.5933  -11.8655 C   0  0  0  0  0  0  0  0  0  0  0  0
   -2.7628   -2.4752  -10.7174 C   0  0  0  0  0  0  0  0  0  0  0  0
   -1.6816   -2.7008   -9.9675 C   0  0  0  0  0  0  0  0  0  0  0  0
   -0.5300   -1.9679  -10.6316 C   0  0  0  0  0  0  0  0  0  0  0  0
   -0.9172   -2.1662  -12.0822 C   0  0  0  0  0  0  0  0  0  0  0  0
   -0.7244   -0.4295  -10.5083 C   0  0  0  0  0  0  0  0  0  0  0  0
   -3.9113    3.2798   -3.9074 C   0  0  0  0  0  0  0  0  0  0  0  0
   -2.6015    3.7613   -3.8551 C   0  0  0  0  0  0  0  0  0  0  0  0
   -1.8153    3.5801   -2.7019 C   0  0  0  0  0  0  0  0  0  0  0  0
   -0.5020    3.9443   -2.7666 F   0  0  0  0  0  0  0  0  0  0  0  0
   -2.3442    2.9395   -1.5573 C   0  0  0  0  0  0  0  0  0  0  0  0
   -3.7205    2.6775   -1.5313 C   0  0  0  0  0  0  0  0  0  0  0  0
   -4.5089    2.8543   -2.7077 C   0  0  0  0  0  0  0  0  0  0  0  0
   -5.8074    2.4730   -2.6238 N   0  0  0  0  0  0  0  0  0  0  0  0
   -5.8812    1.9621   -1.0547 S   0  0  0  0  0  0  0  0  0  0  0  0
   -4.3573    2.1422   -0.4550 N   0  0  0  0  0  0  0  0  0  0  0  0
   -1.4260    2.2868   -0.5874 C   0  0  0  0  0  0  0  0  0  0  0  0
   -1.6382    2.0364    0.7909 C   0  0  0  0  0  0  0  0  0  0  0  0
   -2.4918    2.8404    1.6422 N   0  0  0  0  0  0  0  0  0  0  0  0
   -3.1709    2.2484    2.7698 C   0  0  0  0  0  0  0  0  0  0  0  0
   -3.7754    0.9734    2.6769 C   0  0  0  0  0  0  0  0  0  0  0  0
   -4.5204    0.4622    3.7522 C   0  0  0  0  0  0  0  0  0  0  0  0
   -4.6922    1.2274    4.9184 C   0  0  0  0  0  0  0  0  0  0  0  0
   -5.7809    0.6485    6.2224 S   0  0  0  0  0  0  0  0  0  0  0  0
   -4.4603    0.1138    7.3591 C   0  0  0  0  0  0  0  0  0  0  0  0
   -4.0822    2.4795    5.0231 C   0  0  0  0  0  0  0  0  0  0  0  0
   -3.2974    2.9665    3.9747 C   0  0  0  0  0  0  0  0  0  0  0  0
   -2.6002    4.2701    1.3836 C   0  0  0  0  0  0  0  0  0  0  0  0
   -1.5062    5.0075    0.8862 C   0  0  0  0  0  0  0  0  0  0  0  0
   -1.6175    6.3819    0.6377 C   0  0  0  0  0  0  0  0  0  0  0  0
   -2.8029    7.0602    0.9422 C   0  0  0  0  0  0  0  0  0  0  0  0
   -2.9331    8.8231    0.6026 S   0  0  0  0  0  0  0  0  0  0  0  0
   -4.0518    8.5961   -0.8173 C   0  0  0  0  0  0  0  0  0  0  0  0
   -3.8921    6.3423    1.4613 C   0  0  0  0  0  0  0  0  0  0  0  0
   -3.8066    4.9520    1.6423 C   0  0  0  0  0  0  0  0  0  0  0  0
   -0.6171    1.2226    1.2963 C   0  0  0  0  0  0  0  0  0  0  0  0
   -0.3592    0.3465    2.6924 S   0  0  0  0  0  0  0  0  0  0  0  0
    1.1589   -0.3040    2.2016 C   0  0  0  0  0  0  0  0  0  0  0  0
    1.5168    0.2880    0.9681 C   0  0  0  0  0  0  0  0  0  0  0  0
    2.8919    0.7186    0.6972 N   0  0  0  0  0  0  0  0  0  0  0  0
    3.2348    1.2370   -0.6070 C   0  0  0  0  0  0  0  0  0  0  0  0
    2.9293    2.5802   -0.9268 C   0  0  0  0  0  0  0  0  0  0  0  0
    3.0903    3.0441   -2.2358 C   0  0  0  0  0  0  0  0  0  0  0  0
    3.7581    2.2543   -3.1811 C   0  0  0  0  0  0  0  0  0  0  0  0
    4.0466    2.8946   -4.8485 S   0  0  0  0  0  0  0  0  0  0  0  0
    5.2136    4.2039   -4.3279 C   0  0  0  0  0  0  0  0  0  0  0  0
    4.2078    0.9707   -2.8177 C   0  0  0  0  0  0  0  0  0  0  0  0
    3.9204    0.4475   -1.5502 C   0  0  0  0  0  0  0  0  0  0  0  0
    3.7147    1.2242    1.7942 C   0  0  0  0  0  0  0  0  0  0  0  0
    3.1333    1.9571    2.8552 C   0  0  0  0  0  0  0  0  0  0  0  0
    3.9435    2.5854    3.8104 C   0  0  0  0  0  0  0  0  0  0  0  0
    5.3393    2.5313    3.7055 C   0  0  0  0  0  0  0  0  0  0  0  0
    6.3623    3.5338    4.7908 S   0  0  0  0  0  0  0  0  0  0  0  0
    6.6099    2.2377    6.0503 C   0  0  0  0  0  0  0  0  0  0  0  0
    5.9257    1.7872    2.6772 C   0  0  0  0  0  0  0  0  0  0  0  0
    5.1148    1.1378    1.7251 C   0  0  0  0  0  0  0  0  0  0  0  0
    0.4057    0.9652    0.4473 C   0  0  0  0  0  0  0  0  0  0  0  0
    0.0291    1.5478   -1.0607 S   0  0  0  0  0  0  0  0  0  0  0  0
    1.4262   -1.7436    2.4147 C   0  0  0  0  0  0  0  0  0  0  0  0
    0.5964   -2.6709    1.7514 C   0  0  0  0  0  0  0  0  0  0  0  0
   -0.4050   -2.2621    0.9134 F   0  0  0  0  0  0  0  0  0  0  0  0
    0.7666   -4.0305    1.9405 C   0  0  0  0  0  0  0  0  0  0  0  0
   -0.0663   -4.9042    1.3112 F   0  0  0  0  0  0  0  0  0  0  0  0
    1.7399   -4.5277    2.8287 C   0  0  0  0  0  0  0  0  0  0  0  0
    2.6218   -3.6122    3.4493 C   0  0  0  0  0  0  0  0  0  0  0  0
    3.6056   -4.0687    4.2628 N   0  0  0  0  0  0  0  0  0  0  0  0
    4.4516   -3.2207    4.9040 C   0  0  0  0  0  0  0  0  0  0  0  0
    5.4227   -3.7236    5.7858 O   0  0  0  0  0  0  0  0  0  0  0  0
    5.3365   -5.0170    6.3900 C   0  0  0  0  0  0  0  0  0  0  0  0
    5.6921   -6.1270    5.3954 C   0  0  0  0  0  0  0  0  0  0  0  0
    4.3239   -1.8406    4.6782 C   0  0  0  0  0  0  0  0  0  0  0  0
    3.3391   -1.3757    3.8742 N   0  0  0  0  0  0  0  0  0  0  0  0
    2.4629   -2.2209    3.2545 C   0  0  0  0  0  0  0  0  0  0  0  0
    5.2477   -0.8707    5.3523 C   0  0  0  0  0  0  0  0  0  0  0  0
    1.9407   -6.0018    2.8704 C   0  0  0  0  0  0  0  0  0  0  0  0
    2.0299   -6.7604    3.9803 C   0  0  0  0  0  0  0  0  0  0  0  0
    1.9126   -6.3297    5.4005 C   0  0  0  0  0  0  0  0  0  0  0  0
    1.5761   -5.1830    5.7907 O   0  0  0  0  0  0  0  0  0  0  0  0
    2.1016   -7.4843    6.2589 C   0  0  0  0  0  0  0  0  0  0  0  0
    2.2258   -8.6118    5.4569 C   0  0  0  0  0  0  0  0  0  0  0  0
    2.5658   -9.8449    6.0341 C   0  0  0  0  0  0  0  0  0  0  0  0
    2.6998   -9.9354    7.4265 C   0  0  0  0  0  0  0  0  0  0  0  0
    2.5306   -8.7906    8.2404 C   0  0  0  0  0  0  0  0  0  0  0  0
    2.7657   -8.9961   10.1258 Br  0  0  0  0  0  0  0  0  0  0  0  0
    2.2346   -7.5423    7.6556 C   0  0  0  0  0  0  0  0  0  0  0  0
    2.0776   -6.0919    8.6572 Cl  0  0  0  0  0  0  0  0  0  0  0  0
    2.1299   -8.2610    4.0246 C   0  0  0  0  0  0  0  0  0  0  0  0
    1.9203   -9.1565    3.0193 C   0  0  0  0  0  0  0  0  0  0  0  0
    2.1040   -8.8575    1.6281 C   0  0  0  0  0  0  0  0  0  0  0  0
    2.2498   -8.6264    0.5018 N   0  0  0  0  0  0  0  0  0  0  0  0
    1.2705  -10.4233    3.3060 C   0  0  0  0  0  0  0  0  0  0  0  0
    0.6751  -11.3645    3.5630 N   0  0  0  0  0  0  0  0  0  0  0  0
   -5.5832    3.5181   -5.3041 H   0  0  0  0  0  0  0  0  0  0  0  0
   -0.5232    0.2187   -7.3492 H   0  0  0  0  0  0  0  0  0  0  0  0
   -4.5816    1.1842  -10.3346 H   0  0  0  0  0  0  0  0  0  0  0  0
   -1.7606    0.5874  -12.1479 H   0  0  0  0  0  0  0  0  0  0  0  0
   -2.9775   -1.6201  -12.7616 H   0  0  0  0  0  0  0  0  0  0  0  0
   -3.7359   -2.9405  -10.5826 H   0  0  0  0  0  0  0  0  0  0  0  0
   -1.6231   -3.3901   -9.1271 H   0  0  0  0  0  0  0  0  0  0  0  0
    0.4846   -2.3217  -10.3434 H   0  0  0  0  0  0  0  0  0  0  0  0
   -0.2956   -1.5634  -12.8035 H   0  0  0  0  0  0  0  0  0  0  0  0
   -0.9183   -3.2418  -12.4030 H   0  0  0  0  0  0  0  0  0  0  0  0
    0.1533    0.1946  -10.8094 H   0  0  0  0  0  0  0  0  0  0  0  0
   -2.1306    4.1360   -4.7600 H   0  0  0  0  0  0  0  0  0  0  0  0
   -3.6964    0.3972    1.7621 H   0  0  0  0  0  0  0  0  0  0  0  0
   -5.0038   -0.5027    3.6502 H   0  0  0  0  0  0  0  0  0  0  0  0
   -4.3004   -0.9778    7.2761 H   0  0  0  0  0  0  0  0  0  0  0  0
   -3.5030    0.6619    7.1935 H   0  0  0  0  0  0  0  0  0  0  0  0
   -4.7854    0.3541    8.3888 H   0  0  0  0  0  0  0  0  0  0  0  0
   -4.2284    3.0992    5.9024 H   0  0  0  0  0  0  0  0  0  0  0  0
   -2.8389    3.9434    4.0772 H   0  0  0  0  0  0  0  0  0  0  0  0
   -0.5539    4.5350    0.6857 H   0  0  0  0  0  0  0  0  0  0  0  0
   -0.7670    6.9165    0.2185 H   0  0  0  0  0  0  0  0  0  0  0  0
   -3.7525    7.7163   -1.4280 H   0  0  0  0  0  0  0  0  0  0  0  0
   -4.0084    9.4987   -1.4712 H   0  0  0  0  0  0  0  0  0  0  0  0
   -5.0931    8.4826   -0.4435 H   0  0  0  0  0  0  0  0  0  0  0  0
   -4.8082    6.8508    1.6940 H   0  0  0  0  0  0  0  0  0  0  0  0
   -4.6800    4.4320    2.0213 H   0  0  0  0  0  0  0  0  0  0  0  0
    2.5150    3.2378   -0.1763 H   0  0  0  0  0  0  0  0  0  0  0  0
    2.6934    4.0211   -2.5152 H   0  0  0  0  0  0  0  0  0  0  0  0
    6.0200    4.3166   -5.0783 H   0  0  0  0  0  0  0  0  0  0  0  0
    5.5554    4.0278   -3.2847 H   0  0  0  0  0  0  0  0  0  0  0  0
    4.6513    5.1625   -4.3260 H   0  0  0  0  0  0  0  0  0  0  0  0
    4.7116    0.3554   -3.5318 H   0  0  0  0  0  0  0  0  0  0  0  0
    4.2566   -0.5540   -1.2742 H   0  0  0  0  0  0  0  0  0  0  0  0
    2.0626    2.1016    2.9402 H   0  0  0  0  0  0  0  0  0  0  0  0
    3.4745    3.1607    4.6007 H   0  0  0  0  0  0  0  0  0  0  0  0
    5.6354    1.9324    6.4737 H   0  0  0  0  0  0  0  0  0  0  0  0
    7.2221    2.6537    6.8675 H   0  0  0  0  0  0  0  0  0  0  0  0
    7.1370    1.3659    5.6139 H   0  0  0  0  0  0  0  0  0  0  0  0
    7.0081    1.7431    2.5643 H   0  0  0  0  0  0  0  0  0  0  0  0
    5.5836    0.5974    0.9244 H   0  0  0  0  0  0  0  0  0  0  0  0
    4.3069   -5.1777    6.7878 H   0  0  0  0  0  0  0  0  0  0  0  0
    6.0504   -5.0590    7.2463 H   0  0  0  0  0  0  0  0  0  0  0  0
    6.7801   -6.0853    5.1460 H   0  0  0  0  0  0  0  0  0  0  0  0
    5.1010   -6.0622    4.4540 H   0  0  0  0  0  0  0  0  0  0  0  0
    5.4857   -7.1070    5.8660 H   0  0  0  0  0  0  0  0  0  0  0  0
    4.9791    0.1572    5.0710 H   0  0  0  0  0  0  0  0  0  0  0  0
    5.1591   -0.9764    6.4569 H   0  0  0  0  0  0  0  0  0  0  0  0
    6.3018   -1.0760    5.0396 H   0  0  0  0  0  0  0  0  0  0  0  0
    1.9002   -6.4704    1.9039 H   0  0  0  0  0  0  0  0  0  0  0  0
    2.7708  -10.7173    5.4328 H   0  0  0  0  0  0  0  0  0  0  0  0
    2.9453  -10.8974    7.8597 H   0  0  0  0  0  0  0  0  0  0  0  0
  1  2  2  3
  2  3  1  0
  3  4  2  0
  3  5  1  0
  5  6  2  0
  6  7  1  0
  7  8  2  0
  8  9  1  0
  9 10  2  0
 10 11  1  0
 11 12  2  3
 12 13  1  0
 13 14  3  0
 12 15  1  0
 15 16  3  0
  8 17  1  0
 17 18  1  0
 18 19  1  0
 19 20  2  0
 20 21  1  0
 21 22  1  0
 21 23  1  0
  1 24  1  0
 24 25  2  0
 25 26  1  0
 26 27  1  0
 26 28  2  0
 28 29  1  0
 29 30  1  0
 30 31  2  0
 31 32  1  0
 32 33  1  0
 28 34  1  0
 34 35  2  0
 35 36  1  0
 36 37  1  0
 37 38  2  0
 38 39  1  0
 39 40  2  0
 40 41  1  0
 41 42  1  0
 40 43  1  0
 43 44  2  0
 36 45  1  0
 45 46  2  0
 46 47  1  0
 47 48  2  0
 48 49  1  0
 49 50  1  0
 48 51  1  0
 51 52  2  0
 35 53  1  0
 53 54  1  0
 54 55  1  0
 55 56  2  0
 56 57  1  0
 57 58  1  0
 58 59  2  0
 59 60  1  0
 60 61  2  0
 61 62  1  0
 62 63  1  0
 61 64  1  0
 64 65  2  0
 57 66  1  0
 66 67  2  0
 67 68  1  0
 68 69  2  0
 69 70  1  0
 70 71  1  0
 69 72  1  0
 72 73  2  0
 56 74  1  0
 74 75  1  0
 55 76  1  0
 76 77  2  0
 77 78  1  0
 77 79  1  0
 79 80  1  0
 79 81  2  0
 81 82  1  0
 82 83  2  0
 83 84  1  0
 84 85  1  0
 85 86  1  0
 86 87  1  0
 84 88  2  0
 88 89  1  0
 89 90  2  0
 88 91  1  0
 81 92  1  0
 92 93  2  3
 93 94  1  0
 94 95  2  0
 94 96  1  0
 96 97  2  0
 97 98  1  0
 98 99  2  0
 99100  1  0
100101  1  0
100102  2  0
102103  1  0
 97104  1  0
104105  2  3
105106  1  0
106107  3  0
105108  1  0
108109  3  0
 11  2  1  0
 23 17  1  0
 30 24  1  0
 75 34  1  0
 90 76  1  0
104 93  1  0
 10  5  1  0
 22 18  1  0
 33 29  2  0
 44 37  1  0
 52 45  1  0
 74 53  2  0
 90 82  1  0
102 96  1  0
 23  7  1  0
 65 58  1  0
 73 66  1  0
  1110  1  0
  6111  1  0
  9112  1  0
 17113  1  0
 18114  1  0
 19115  1  0
 20116  1  0
 21117  1  0
 22118  1  0
 22119  1  0
 23120  1  0
 25121  1  0
 38122  1  0
 39123  1  0
 42124  1  0
 42125  1  0
 42126  1  0
 43127  1  0
 44128  1  0
 46129  1  0
 47130  1  0
 50131  1  0
 50132  1  0
 50133  1  0
 51134  1  0
 52135  1  0
 59136  1  0
 60137  1  0
 63138  1  0
 63139  1  0
 63140  1  0
 64141  1  0
 65142  1  0
 67143  1  0
 68144  1  0
 71145  1  0
 71146  1  0
 71147  1  0
 72148  1  0
 73149  1  0
 86150  1  0
 86151  1  0
 87152  1  0
 87153  1  0
 87154  1  0
 91155  1  0
 91156  1  0
 91157  1  0
 92158  1  0
 98159  1  0
 99160  1  0
M  END

