
     RDKit          3D

153171  0  0  0  0  0  0  0  0999 V2000
   -1.2765    3.4854    4.5007 C   0  0  0  0  0  0  0  0  0  0  0  0
   -2.3611    4.2286    4.7924 C   0  0  0  0  0  0  0  0  0  0  0  0
   -3.5377    3.8088    5.5538 C   0  0  0  0  0  0  0  0  0  0  0  0
   -3.5691    2.9237    6.4498 O   0  0  0  0  0  0  0  0  0  0  0  0
   -4.6784    4.5843    5.0989 C   0  0  0  0  0  0  0  0  0  0  0  0
   -6.0421    4.3874    5.4242 C   0  0  0  0  0  0  0  0  0  0  0  0
   -6.9207    5.1157    4.6336 C   0  0  0  0  0  0  0  0  0  0  0  0
   -6.4802    5.9789    3.5725 C   0  0  0  0  0  0  0  0  0  0  0  0
   -5.1499    6.2136    3.2805 C   0  0  0  0  0  0  0  0  0  0  0  0
   -4.2378    5.5067    4.1113 C   0  0  0  0  0  0  0  0  0  0  0  0
   -2.7575    5.4559    4.0460 C   0  0  0  0  0  0  0  0  0  0  0  0
   -1.9388    6.4324    3.5782 C   0  0  0  0  0  0  0  0  0  0  0  0
   -2.4378    7.5847    2.8757 C   0  0  0  0  0  0  0  0  0  0  0  0
   -2.8367    8.4995    2.2856 N   0  0  0  0  0  0  0  0  0  0  0  0
   -0.5243    6.4194    3.8311 C   0  0  0  0  0  0  0  0  0  0  0  0
    0.6148    6.4236    4.0350 N   0  0  0  0  0  0  0  0  0  0  0  0
   -7.9001    6.2478    3.1764 C   0  0  0  0  0  0  0  0  0  0  0  0
   -8.4930    7.6498    3.5156 C   0  0  0  0  0  0  0  0  0  0  0  0
   -7.8346    8.2056    4.7544 C   0  0  0  0  0  0  0  0  0  0  0  0
   -8.2299    7.4366    5.7729 C   0  0  0  0  0  0  0  0  0  0  0  0
   -9.1518    6.3865    5.1887 C   0  0  0  0  0  0  0  0  0  0  0  0
   -9.8183    7.2287    4.1175 C   0  0  0  0  0  0  0  0  0  0  0  0
   -8.3512    5.4008    4.2887 C   0  0  0  0  0  0  0  0  0  0  0  0
   -1.1098    2.0228    4.6609 C   0  0  0  0  0  0  0  0  0  0  0  0
   -2.0882    1.1146    4.1974 C   0  0  0  0  0  0  0  0  0  0  0  0
   -1.7275   -0.1913    3.7648 C   0  0  0  0  0  0  0  0  0  0  0  0
   -2.8039   -0.9588    3.2132 N   0  0  0  0  0  0  0  0  0  0  0  0
   -3.9995    0.0941    3.3161 S   0  0  0  0  0  4  0  0  0  0  0  0
   -3.4591    1.4539    3.9453 N   0  0  0  0  0  0  0  0  0  0  0  0
   -0.3825   -0.5771    3.6772 C   0  0  0  0  0  0  0  0  0  0  0  0
    0.5641    0.2377    4.3157 C   0  0  0  0  0  0  0  0  0  0  0  0
    1.8804   -0.0824    4.3645 N   0  0  0  0  0  0  0  0  0  0  0  0
    2.4967    1.2804    5.0596 S   0  0  0  0  0  0  0  0  0  0  0  0
    1.2173    2.2943    5.2893 N   0  0  0  0  0  0  0  0  0  0  0  0
    0.2009    1.5273    4.8133 C   0  0  0  0  0  0  0  0  0  0  0  0
    0.0439   -1.3496    2.4961 C   0  0  0  0  0  0  0  0  0  0  0  0
    0.1784   -0.7772    1.2233 C   0  0  0  0  0  0  0  0  0  0  0  0
    0.0499    0.6233    0.9112 N   0  0  0  0  0  0  0  0  0  0  0  0
   -0.9274    0.9940   -0.0877 C   0  0  0  0  0  0  0  0  0  0  0  0
   -2.2618    0.5773    0.0410 C   0  0  0  0  0  0  0  0  0  0  0  0
   -3.2127    0.9160   -0.9219 C   0  0  0  0  0  0  0  0  0  0  0  0
   -2.8350    1.6468   -2.0546 C   0  0  0  0  0  0  0  0  0  0  0  0
   -4.0698    2.0823   -3.2872 S   0  0  0  0  0  0  0  0  0  0  0  0
   -3.9337    0.5091   -4.1872 C   0  0  0  0  0  0  0  0  0  0  0  0
   -1.5001    2.0261   -2.2247 C   0  0  0  0  0  0  0  0  0  0  0  0
   -0.5504    1.7066   -1.2417 C   0  0  0  0  0  0  0  0  0  0  0  0
    1.1173    1.5418    1.2570 C   0  0  0  0  0  0  0  0  0  0  0  0
    2.4356    1.0848    1.4551 C   0  0  0  0  0  0  0  0  0  0  0  0
    3.4761    1.9925    1.6798 C   0  0  0  0  0  0  0  0  0  0  0  0
    3.2194    3.3650    1.6964 C   0  0  0  0  0  0  0  0  0  0  0  0
    4.5685    4.5212    1.9205 S   0  0  0  0  0  0  0  0  0  0  0  0
    5.0651    4.4767    0.1631 C   0  0  0  0  0  0  0  0  0  0  0  0
    1.9140    3.8304    1.5373 C   0  0  0  0  0  0  0  0  0  0  0  0
    0.8672    2.9299    1.3294 C   0  0  0  0  0  0  0  0  0  0  0  0
    0.7134   -1.6740    0.3257 C   0  0  0  0  0  0  0  0  0  0  0  0
    1.3125   -1.4669   -1.2186 S   0  0  0  0  0  0  0  0  0  0  0  0
    1.9703   -3.0256   -1.2780 C   0  0  0  0  0  0  0  0  0  0  0  0
    1.7194   -3.7173   -0.0749 C   0  0  0  0  0  0  0  0  0  0  0  0
    2.1709   -5.0555    0.2202 N   0  0  0  0  0  0  0  0  0  0  0  0
    3.4092   -5.5340   -0.3252 C   0  0  0  0  0  0  0  0  0  0  0  0
    4.6152   -4.8952   -0.0024 C   0  0  0  0  0  0  0  0  0  0  0  0
    5.7980   -5.2483   -0.6572 C   0  0  0  0  0  0  0  0  0  0  0  0
    5.7819   -6.2290   -1.6559 C   0  0  0  0  0  0  0  0  0  0  0  0
    7.2900   -6.6489   -2.5365 S   0  0  0  0  0  0  0  0  0  0  0  0
    7.0905   -5.3225   -3.7650 C   0  0  0  0  0  0  0  0  0  0  0  0
    4.5803   -6.8859   -1.9642 C   0  0  0  0  0  0  0  0  0  0  0  0
    3.4027   -6.5522   -1.2906 C   0  0  0  0  0  0  0  0  0  0  0  0
    1.3002   -5.9682    0.9037 C   0  0  0  0  0  0  0  0  0  0  0  0
    1.7187   -6.5855    2.0925 C   0  0  0  0  0  0  0  0  0  0  0  0
    0.8823   -7.4817    2.7606 C   0  0  0  0  0  0  0  0  0  0  0  0
   -0.3816   -7.7874    2.2235 C   0  0  0  0  0  0  0  0  0  0  0  0
   -1.4452   -8.9712    3.0536 S   0  0  0  0  0  0  0  0  0  0  0  0
   -2.2719   -7.7121    4.0725 C   0  0  0  0  0  0  0  0  0  0  0  0
   -0.8121   -7.1640    1.0471 C   0  0  0  0  0  0  0  0  0  0  0  0
    0.0270   -6.2561    0.3869 C   0  0  0  0  0  0  0  0  0  0  0  0
    1.0176   -2.9010    0.8167 C   0  0  0  0  0  0  0  0  0  0  0  0
    0.6182   -2.9664    2.4558 S   0  0  0  0  0  0  0  0  0  0  0  0
    2.6902   -3.4824   -2.4659 C   0  0  0  0  0  0  0  0  0  0  0  0
    2.0213   -4.2148   -3.4540 C   0  0  0  0  0  0  0  0  0  0  0  0
    2.4924   -4.2376   -4.7902 C   0  0  0  0  0  0  0  0  0  0  0  0
    1.6198   -4.8910   -5.7199 N   0  0  0  0  0  0  0  0  0  0  0  0
    0.4288   -5.3258   -4.7467 S   0  0  0  0  0  4  0  0  0  0  0  0
    0.7478   -4.8410   -3.2610 N   0  0  0  0  0  0  0  0  0  0  0  0
    3.6381   -3.5222   -5.1612 C   0  0  0  0  0  0  0  0  0  0  0  0
    4.3989   -2.9153   -4.1417 C   0  0  0  0  0  0  0  0  0  0  0  0
    5.5382   -2.2191   -4.3914 N   0  0  0  0  0  0  0  0  0  0  0  0
    5.8507   -1.5981   -2.8981 S   0  0  0  0  0  0  0  0  0  0  0  0
    4.6350   -2.1370   -1.9205 N   0  0  0  0  0  0  0  0  0  0  0  0
    3.9159   -2.8805   -2.7981 C   0  0  0  0  0  0  0  0  0  0  0  0
    3.8487   -3.1262   -6.5689 C   0  0  0  0  0  0  0  0  0  0  0  0
    3.5762   -1.8700   -6.9799 C   0  0  0  0  0  0  0  0  0  0  0  0
    3.1034   -0.7717   -6.1187 C   0  0  0  0  0  0  0  0  0  0  0  0
    2.4875   -0.8799   -5.0235 O   0  0  0  0  0  0  0  0  0  0  0  0
    3.3969    0.4801   -6.7626 C   0  0  0  0  0  0  0  0  0  0  0  0
    3.3175    1.7606   -6.2237 C   0  0  0  0  0  0  0  0  0  0  0  0
    3.7826    2.8359   -6.9905 C   0  0  0  0  0  0  0  0  0  0  0  0
    4.3471    2.6129   -8.2712 C   0  0  0  0  0  0  0  0  0  0  0  0
    4.8523    3.6613   -9.0583 O   0  0  0  0  0  0  0  0  0  0  0  0
    4.8603    5.0256   -8.6551 C   0  0  0  0  0  0  0  0  0  0  0  0
    4.4231    1.3011   -8.7796 C   0  0  0  0  0  0  0  0  0  0  0  0
    3.9153    0.2359   -8.0215 C   0  0  0  0  0  0  0  0  0  0  0  0
    3.9386   -1.2348   -8.2824 C   0  0  0  0  0  0  0  0  0  0  0  0
    4.0098   -1.8391   -9.4973 C   0  0  0  0  0  0  0  0  0  0  0  0
    3.8321   -3.2579   -9.6621 C   0  0  0  0  0  0  0  0  0  0  0  0
    3.6861   -4.3962   -9.8047 N   0  0  0  0  0  0  0  0  0  0  0  0
    4.0925   -1.0813  -10.7196 C   0  0  0  0  0  0  0  0  0  0  0  0
    4.1491   -0.4793  -11.7052 N   0  0  0  0  0  0  0  0  0  0  0  0
   -0.5008    3.9196    3.8881 H   0  0  0  0  0  0  0  0  0  0  0  0
   -6.3794    3.6820    6.1767 H   0  0  0  0  0  0  0  0  0  0  0  0
   -4.8654    6.8313    2.4469 H   0  0  0  0  0  0  0  0  0  0  0  0
   -8.1791    5.8513    2.1749 H   0  0  0  0  0  0  0  0  0  0  0  0
   -8.5483    8.3615    2.6659 H   0  0  0  0  0  0  0  0  0  0  0  0
   -7.2119    9.0930    4.8245 H   0  0  0  0  0  0  0  0  0  0  0  0
   -7.9915    7.5935    6.8202 H   0  0  0  0  0  0  0  0  0  0  0  0
   -9.8448    5.9182    5.9269 H   0  0  0  0  0  0  0  0  0  0  0  0
  -10.4575    6.6367    3.4157 H   0  0  0  0  0  0  0  0  0  0  0  0
  -10.4071    8.0952    4.5175 H   0  0  0  0  0  0  0  0  0  0  0  0
   -8.9065    4.5012    3.9496 H   0  0  0  0  0  0  0  0  0  0  0  0
   -2.5567   -0.0180    0.8813 H   0  0  0  0  0  0  0  0  0  0  0  0
   -4.2394    0.6013   -0.7974 H   0  0  0  0  0  0  0  0  0  0  0  0
   -4.0796   -0.3439   -3.4871 H   0  0  0  0  0  0  0  0  0  0  0  0
   -2.9336    0.4296   -4.6608 H   0  0  0  0  0  0  0  0  0  0  0  0
   -4.7191    0.4725   -4.9739 H   0  0  0  0  0  0  0  0  0  0  0  0
   -1.1914    2.5742   -3.1063 H   0  0  0  0  0  0  0  0  0  0  0  0
    0.4840    1.9952   -1.3957 H   0  0  0  0  0  0  0  0  0  0  0  0
    2.6746    0.0289    1.4182 H   0  0  0  0  0  0  0  0  0  0  0  0
    4.4847    1.6228    1.8198 H   0  0  0  0  0  0  0  0  0  0  0  0
    5.7935    5.2901   -0.0320 H   0  0  0  0  0  0  0  0  0  0  0  0
    5.5557    3.5093   -0.0563 H   0  0  0  0  0  0  0  0  0  0  0  0
    4.1851    4.6171   -0.4954 H   0  0  0  0  0  0  0  0  0  0  0  0
    1.7136    4.8897    1.5666 H   0  0  0  0  0  0  0  0  0  0  0  0
   -0.1399    3.3085    1.1996 H   0  0  0  0  0  0  0  0  0  0  0  0
    4.6256   -4.0953    0.7277 H   0  0  0  0  0  0  0  0  0  0  0  0
    6.7234   -4.7356   -0.4135 H   0  0  0  0  0  0  0  0  0  0  0  0
    6.0701   -5.3448   -4.2006 H   0  0  0  0  0  0  0  0  0  0  0  0
    7.8177   -5.4758   -4.5844 H   0  0  0  0  0  0  0  0  0  0  0  0
    7.2797   -4.3348   -3.2954 H   0  0  0  0  0  0  0  0  0  0  0  0
    4.5601   -7.6455   -2.7395 H   0  0  0  0  0  0  0  0  0  0  0  0
    2.4747   -7.0423   -1.5602 H   0  0  0  0  0  0  0  0  0  0  0  0
    2.6959   -6.3591    2.5011 H   0  0  0  0  0  0  0  0  0  0  0  0
    1.2115   -7.9463    3.6763 H   0  0  0  0  0  0  0  0  0  0  0  0
   -2.8324   -8.2224    4.8779 H   0  0  0  0  0  0  0  0  0  0  0  0
   -2.9896   -7.1376    3.4481 H   0  0  0  0  0  0  0  0  0  0  0  0
   -1.5295   -7.0192    4.5284 H   0  0  0  0  0  0  0  0  0  0  0  0
   -1.7758   -7.4034    0.6281 H   0  0  0  0  0  0  0  0  0  0  0  0
   -0.3061   -5.7972   -0.5361 H   0  0  0  0  0  0  0  0  0  0  0  0
    4.2984   -3.8482   -7.2279 H   0  0  0  0  0  0  0  0  0  0  0  0
    2.9397    1.9222   -5.2225 H   0  0  0  0  0  0  0  0  0  0  0  0
    3.7288    3.8276   -6.5620 H   0  0  0  0  0  0  0  0  0  0  0  0
    3.8222    5.3744   -8.4645 H   0  0  0  0  0  0  0  0  0  0  0  0
    5.4872    5.1618   -7.7523 H   0  0  0  0  0  0  0  0  0  0  0  0
    5.2942    5.6376   -9.4678 H   0  0  0  0  0  0  0  0  0  0  0  0
    4.9217    1.1287   -9.7203 H   0  0  0  0  0  0  0  0  0  0  0  0
  1  2  2  3
  2  3  1  0
  3  4  2  0
  3  5  1  0
  5  6  2  0
  6  7  1  0
  7  8  2  0
  8  9  1  0
  9 10  2  0
 10 11  1  0
 11 12  2  3
 12 13  1  0
 13 14  3  0
 12 15  1  0
 15 16  3  0
  8 17  1  0
 17 18  1  0
 18 19  1  0
 19 20  2  0
 20 21  1  0
 21 22  1  0
 21 23  1  0
  1 24  1  0
 24 25  2  0
 25 26  1  0
 26 27  1  0
 27 28  2  0
 28 29  2  0
 26 30  2  0
 30 31  1  0
 31 32  2  0
 32 33  1  0
 33 34  1  0
 34 35  2  0
 30 36  1  0
 36 37  2  0
 37 38  1  0
 38 39  1  0
 39 40  2  0
 40 41  1  0
 41 42  2  0
 42 43  1  0
 43 44  1  0
 42 45  1  0
 45 46  2  0
 38 47  1  0
 47 48  2  0
 48 49  1  0
 49 50  2  0
 50 51  1  0
 51 52  1  0
 50 53  1  0
 53 54  2  0
 37 55  1  0
 55 56  1  0
 56 57  1  0
 57 58  2  0
 58 59  1  0
 59 60  1  0
 60 61  2  0
 61 62  1  0
 62 63  2  0
 63 64  1  0
 64 65  1  0
 63 66  1  0
 66 67  2  0
 59 68  1  0
 68 69  2  0
 69 70  1  0
 70 71  2  0
 71 72  1  0
 72 73  1  0
 71 74  1  0
 74 75  2  0
 58 76  1  0
 76 77  1  0
 57 78  1  0
 78 79  2  0
 79 80  1  0
 80 81  1  0
 81 82  2  0
 82 83  2  0
 80 84  2  0
 84 85  1  0
 85 86  2  0
 86 87  1  0
 87 88  1  0
 88 89  2  0
 84 90  1  0
 90 91  2  3
 91 92  1  0
 92 93  2  0
 92 94  1  0
 94 95  2  0
 95 96  1  0
 96 97  2  0
 97 98  1  0
 98 99  1  0
 97100  1  0
100101  2  0
101102  1  0
102103  2  3
103104  1  0
104105  3  0
103106  1  0
106107  3  0
 11  2  1  0
 23 17  1  0
 35 24  1  0
 77 36  1  0
 89 78  1  0
102 91  1  0
 10  5  1  0
 22 18  1  0
 29 25  1  0
 35 31  1  0
 46 39  1  0
 54 47  1  0
 76 55  2  0
 83 79  1  0
 89 85  1  0
101 94  1  0
 23  7  1  0
 67 60  1  0
 75 68  1  0
  1108  1  0
  6109  1  0
  9110  1  0
 17111  1  0
 18112  1  0
 19113  1  0
 20114  1  0
 21115  1  0
 22116  1  0
 22117  1  0
 23118  1  0
 40119  1  0
 41120  1  0
 44121  1  0
 44122  1  0
 44123  1  0
 45124  1  0
 46125  1  0
 48126  1  0
 49127  1  0
 52128  1  0
 52129  1  0
 52130  1  0
 53131  1  0
 54132  1  0
 61133  1  0
 62134  1  0
 65135  1  0
 65136  1  0
 65137  1  0
 66138  1  0
 67139  1  0
 69140  1  0
 70141  1  0
 73142  1  0
 73143  1  0
 73144  1  0
 74145  1  0
 75146  1  0
 90147  1  0
 95148  1  0
 96149  1  0
 99150  1  0
 99151  1  0
 99152  1  0
100153  1  0
M  END

