
     RDKit          3D

244270  0  0  0  0  0  0  0  0999 V2000
   -2.3805    0.7484   -9.3748 C   0  0  0  0  0  0  0  0  0  0  0  0
   -3.3068    1.2377   -8.5214 C   0  0  0  0  0  0  0  0  0  0  0  0
   -3.2104    1.2067   -7.0515 C   0  0  0  0  0  0  0  0  0  0  0  0
   -2.4210    0.5122   -6.3606 O   0  0  0  0  0  0  0  0  0  0  0  0
   -4.1456    2.1628   -6.5080 C   0  0  0  0  0  0  0  0  0  0  0  0
   -4.1890    2.6375   -5.1755 C   0  0  0  0  0  0  0  0  0  0  0  0
   -4.9949    3.7431   -5.0033 C   0  0  0  0  0  0  0  0  0  0  0  0
   -5.7455    4.3373   -6.0689 C   0  0  0  0  0  0  0  0  0  0  0  0
   -5.7207    3.8657   -7.3696 C   0  0  0  0  0  0  0  0  0  0  0  0
   -4.8881    2.7343   -7.5732 C   0  0  0  0  0  0  0  0  0  0  0  0
   -4.4791    2.0995   -8.8553 C   0  0  0  0  0  0  0  0  0  0  0  0
   -5.1735    2.1218  -10.0191 C   0  0  0  0  0  0  0  0  0  0  0  0
   -6.4673    2.7474  -10.1284 C   0  0  0  0  0  0  0  0  0  0  0  0
   -7.5076    3.2431  -10.2309 N   0  0  0  0  0  0  0  0  0  0  0  0
   -4.7209    1.4494  -11.2142 C   0  0  0  0  0  0  0  0  0  0  0  0
   -4.3596    0.9386  -12.1839 N   0  0  0  0  0  0  0  0  0  0  0  0
   -6.2350    5.4138   -5.1488 C   0  0  0  0  0  0  0  0  0  0  0  0
   -7.7032    5.3092   -4.6452 C   0  0  0  0  0  0  0  0  0  0  0  0
   -7.8029    6.2567   -3.4750 C   0  0  0  0  0  0  0  0  0  0  0  0
   -7.0879    5.7116   -2.4807 C   0  0  0  0  0  0  0  0  0  0  0  0
   -6.5370    4.4133   -3.0147 C   0  0  0  0  0  0  0  0  0  0  0  0
   -7.7118    3.9937   -3.8834 C   0  0  0  0  0  0  0  0  0  0  0  0
   -5.4563    4.8141   -4.0599 C   0  0  0  0  0  0  0  0  0  0  0  0
   -1.2253   -0.0286   -8.9060 C   0  0  0  0  0  0  0  0  0  0  0  0
   -1.3081   -1.3198   -8.3365 C   0  0  0  0  0  0  0  0  0  0  0  0
   -2.4627   -2.1932   -8.4555 N   0  0  0  0  0  0  0  0  0  0  0  0
   -2.5703   -3.3723   -7.6474 C   0  0  0  0  0  0  0  0  0  0  0  0
   -2.1499   -4.6048   -8.1644 C   0  0  0  0  0  0  0  0  0  0  0  0
   -2.1729   -5.7497   -7.3606 C   0  0  0  0  0  0  0  0  0  0  0  0
   -2.6009   -5.6638   -6.0311 C   0  0  0  0  0  0  0  0  0  0  0  0
   -2.5588   -7.1115   -4.9782 S   0  0  0  0  0  0  0  0  0  0  0  0
   -0.8314   -6.8448   -4.4600 C   0  0  0  0  0  0  0  0  0  0  0  0
   -3.0727   -4.4441   -5.5289 C   0  0  0  0  0  0  0  0  0  0  0  0
   -3.0641   -3.2970   -6.3361 C   0  0  0  0  0  0  0  0  0  0  0  0
   -3.3567   -2.1090   -9.5797 C   0  0  0  0  0  0  0  0  0  0  0  0
   -4.7429   -2.0148   -9.3682 C   0  0  0  0  0  0  0  0  0  0  0  0
   -5.6257   -2.0518  -10.4561 C   0  0  0  0  0  0  0  0  0  0  0  0
   -5.1331   -2.1831  -11.7576 C   0  0  0  0  0  0  0  0  0  0  0  0
   -6.2797   -2.2741  -13.1357 S   0  0  0  0  0  0  0  0  0  0  0  0
   -6.1029   -4.0725  -13.3344 C   0  0  0  0  0  0  0  0  0  0  0  0
   -3.7470   -2.2302  -11.9752 C   0  0  0  0  0  0  0  0  0  0  0  0
   -2.8638   -2.2041  -10.8855 C   0  0  0  0  0  0  0  0  0  0  0  0
   -0.1963   -1.5468   -7.5002 C   0  0  0  0  0  0  0  0  0  0  0  0
    0.1025   -2.5971   -6.2377 S   0  0  0  0  0  0  0  0  0  0  0  0
    1.3774   -1.7116   -5.5254 C   0  0  0  0  0  0  0  0  0  0  0  0
    1.6032   -0.5695   -6.3387 C   0  0  0  0  0  0  0  0  0  0  0  0
    2.6681    0.3979   -6.1956 N   0  0  0  0  0  0  0  0  0  0  0  0
    3.4022    0.7160   -7.4013 C   0  0  0  0  0  0  0  0  0  0  0  0
    4.1820   -0.2574   -8.0366 C   0  0  0  0  0  0  0  0  0  0  0  0
    4.8712    0.0540   -9.2162 C   0  0  0  0  0  0  0  0  0  0  0  0
    4.7711    1.3361   -9.7744 C   0  0  0  0  0  0  0  0  0  0  0  0
    5.6809    1.7447  -11.2656 S   0  0  0  0  0  0  0  0  0  0  0  0
    7.0582    2.5719  -10.3943 C   0  0  0  0  0  0  0  0  0  0  0  0
    3.9582    2.3000   -9.1629 C   0  0  0  0  0  0  0  0  0  0  0  0
    3.2918    1.9957   -7.9785 C   0  0  0  0  0  0  0  0  0  0  0  0
    2.7022    1.3715   -5.1201 C   0  0  0  0  0  0  0  0  0  0  0  0
    3.8868    2.0964   -4.8937 C   0  0  0  0  0  0  0  0  0  0  0  0
    3.8753    3.2657   -4.1357 C   0  0  0  0  0  0  0  0  0  0  0  0
    2.6985    3.6869   -3.5158 C   0  0  0  0  0  0  0  0  0  0  0  0
    2.6604    5.2948   -2.7064 S   0  0  0  0  0  0  0  0  0  0  0  0
    3.5890    4.7359   -1.2491 C   0  0  0  0  0  0  0  0  0  0  0  0
    1.5350    2.9141   -3.6303 C   0  0  0  0  0  0  0  0  0  0  0  0
    1.5280    1.7704   -4.4446 C   0  0  0  0  0  0  0  0  0  0  0  0
    0.6988   -0.5235   -7.4144 C   0  0  0  0  0  0  0  0  0  0  0  0
    0.1885    0.7472   -8.3760 S   0  0  0  0  0  0  0  0  0  0  0  0
    1.6931   -1.8957   -4.0892 C   0  0  0  0  0  0  0  0  0  0  0  0
    2.3504   -0.9878   -3.3287 N   0  0  0  0  0  0  0  0  0  0  0  0
    2.0692   -1.1308   -1.9954 C   0  0  0  0  0  0  0  0  0  0  0  0
    2.5164   -0.2453   -0.9888 C   0  0  0  0  0  0  0  0  0  0  0  0
    3.7881    0.5175   -1.1606 C   0  0  0  0  0  0  0  0  0  0  0  0
    4.2863    1.5623   -0.3793 C   0  0  0  0  0  0  0  0  0  0  0  0
    5.6134    1.9118   -0.6691 C   0  0  0  0  0  0  0  0  0  0  0  0
    6.1783    1.1459   -1.6705 C   0  0  0  0  0  0  0  0  0  0  0  0
    7.5573    1.3052   -2.2318 C   0  0  0  0  0  0  0  0  0  0  0  0
    7.5285    2.1577   -3.4932 C   0  0  0  0  0  0  0  0  0  0  0  0
    5.0329    0.0457   -2.2033 S   0  0  0  0  0  0  0  0  0  0  0  0
    1.7815   -0.2842    0.2230 C   0  0  0  0  0  0  0  0  0  0  0  0
    0.8247   -1.2717    0.5031 C   0  0  0  0  0  0  0  0  0  0  0  0
    0.5372   -2.2844   -0.4380 C   0  0  0  0  0  0  0  0  0  0  0  0
   -0.4075   -3.3978   -0.1494 C   0  0  0  0  0  0  0  0  0  0  0  0
   -1.5761   -3.3248    0.6089 C   0  0  0  0  0  0  0  0  0  0  0  0
   -2.2305   -4.5578    0.7449 C   0  0  0  0  0  0  0  0  0  0  0  0
   -1.5916   -5.6003    0.0885 C   0  0  0  0  0  0  0  0  0  0  0  0
   -2.0155   -7.0388    0.1133 C   0  0  0  0  0  0  0  0  0  0  0  0
   -1.2417   -7.8149    1.1754 C   0  0  0  0  0  0  0  0  0  0  0  0
   -0.1949   -4.9988   -0.6370 S   0  0  0  0  0  0  0  0  0  0  0  0
    1.1586   -2.1488   -1.6933 C   0  0  0  0  0  0  0  0  0  0  0  0
    0.7548   -2.9161   -3.1242 S   0  0  0  0  0  0  0  0  0  0  0  0
    0.2144   -1.1636    1.7142 N   0  0  0  0  0  0  0  0  0  0  0  0
    0.6307   -0.0639    2.3914 C   0  0  0  0  0  0  0  0  0  0  0  0
    1.8333    0.7531    1.5474 S   0  0  0  0  0  0  0  0  0  0  0  0
    0.2464    0.2353    3.7728 C   0  0  0  0  0  0  0  0  0  0  0  0
    0.2796    1.5030    4.3872 C   0  0  0  0  0  0  0  0  0  0  0  0
   -0.3140    2.6540    3.7550 N   0  0  0  0  0  0  0  0  0  0  0  0
    0.4631    3.5522    2.9467 C   0  0  0  0  0  0  0  0  0  0  0  0
   -0.0299    3.9586    1.6993 C   0  0  0  0  0  0  0  0  0  0  0  0
    0.5367    5.0456    1.0330 C   0  0  0  0  0  0  0  0  0  0  0  0
    1.6176    5.7307    1.6023 C   0  0  0  0  0  0  0  0  0  0  0  0
    2.0789    7.0221    0.9912 C   0  0  0  0  0  0  0  0  0  0  0  0
    2.1575    5.2869    2.8200 C   0  0  0  0  0  0  0  0  0  0  0  0
    1.5905    4.1934    3.4852 C   0  0  0  0  0  0  0  0  0  0  0  0
   -1.6764    3.0048    4.1015 C   0  0  0  0  0  0  0  0  0  0  0  0
   -2.0473    4.3454    4.3101 C   0  0  0  0  0  0  0  0  0  0  0  0
   -3.3261    4.6707    4.7749 C   0  0  0  0  0  0  0  0  0  0  0  0
   -4.2674    3.6617    5.0315 C   0  0  0  0  0  0  0  0  0  0  0  0
   -5.5946    4.0057    5.6413 C   0  0  0  0  0  0  0  0  0  0  0  0
   -3.9143    2.3226    4.8036 C   0  0  0  0  0  0  0  0  0  0  0  0
   -2.6403    2.0001    4.3290 C   0  0  0  0  0  0  0  0  0  0  0  0
    0.1779    1.3464    5.7687 C   0  0  0  0  0  0  0  0  0  0  0  0
    0.2891    2.4151    7.0639 S   0  0  0  0  0  0  0  0  0  0  0  0
   -0.0506    1.2174    8.2234 C   0  0  0  0  0  0  0  0  0  0  0  0
   -0.3301   -0.0052    7.5844 C   0  0  0  0  0  0  0  0  0  0  0  0
   -0.9281   -1.1306    8.2620 N   0  0  0  0  0  0  0  0  0  0  0  0
   -0.8387   -2.4602    7.7380 C   0  0  0  0  0  0  0  0  0  0  0  0
   -1.9368   -3.0377    7.0828 C   0  0  0  0  0  0  0  0  0  0  0  0
   -1.8782   -4.3601    6.6412 C   0  0  0  0  0  0  0  0  0  0  0  0
   -0.7328   -5.1310    6.8776 C   0  0  0  0  0  0  0  0  0  0  0  0
   -0.6976   -6.5771    6.4883 C   0  0  0  0  0  0  0  0  0  0  0  0
    0.3594   -4.5628    7.5521 C   0  0  0  0  0  0  0  0  0  0  0  0
    0.3046   -3.2336    7.9721 C   0  0  0  0  0  0  0  0  0  0  0  0
   -1.8668   -0.8950    9.3309 C   0  0  0  0  0  0  0  0  0  0  0  0
   -2.9674   -0.0506    9.1314 C   0  0  0  0  0  0  0  0  0  0  0  0
   -3.8901    0.1691   10.1570 C   0  0  0  0  0  0  0  0  0  0  0  0
   -3.7033   -0.4359   11.4106 C   0  0  0  0  0  0  0  0  0  0  0  0
   -4.6769   -0.1719   12.5216 C   0  0  0  0  0  0  0  0  0  0  0  0
   -2.5834   -1.2481   11.6287 C   0  0  0  0  0  0  0  0  0  0  0  0
   -1.6768   -1.4925   10.5873 C   0  0  0  0  0  0  0  0  0  0  0  0
   -0.1086    0.0989    6.2113 C   0  0  0  0  0  0  0  0  0  0  0  0
   -0.0949   -0.9760    4.9219 S   0  0  0  0  0  0  0  0  0  0  0  0
    0.3785    1.2608    9.6350 C   0  0  0  0  0  0  0  0  0  0  0  0
    1.5114    0.6112    9.9978 C   0  0  0  0  0  0  0  0  0  0  0  0
    2.5473    0.1821    9.0460 C   0  0  0  0  0  0  0  0  0  0  0  0
    2.8755    0.7903    7.9875 O   0  0  0  0  0  0  0  0  0  0  0  0
    3.0774   -1.0998    9.4544 C   0  0  0  0  0  0  0  0  0  0  0  0
    3.8243   -1.9981    8.6593 C   0  0  0  0  0  0  0  0  0  0  0  0
    3.9025   -3.2810    9.1807 C   0  0  0  0  0  0  0  0  0  0  0  0
    3.3088   -3.6595   10.4295 C   0  0  0  0  0  0  0  0  0  0  0  0
    2.5971   -2.7716   11.2286 C   0  0  0  0  0  0  0  0  0  0  0  0
    2.4847   -1.4499   10.7040 C   0  0  0  0  0  0  0  0  0  0  0  0
    1.6065   -0.3304   11.1501 C   0  0  0  0  0  0  0  0  0  0  0  0
    1.0875   -0.1334   12.3911 C   0  0  0  0  0  0  0  0  0  0  0  0
    0.4137    1.0856   12.7510 C   0  0  0  0  0  0  0  0  0  0  0  0
   -0.1216    2.0663   13.0473 N   0  0  0  0  0  0  0  0  0  0  0  0
    1.2632   -1.0850   13.4534 C   0  0  0  0  0  0  0  0  0  0  0  0
    1.3972   -1.8485   14.3119 N   0  0  0  0  0  0  0  0  0  0  0  0
    3.6991   -5.0913   10.2004 C   0  0  0  0  0  0  0  0  0  0  0  0
    4.8916   -5.6458   11.0246 C   0  0  0  0  0  0  0  0  0  0  0  0
    5.3140   -6.9180   10.3367 C   0  0  0  0  0  0  0  0  0  0  0  0
    5.8754   -6.5527    9.1779 C   0  0  0  0  0  0  0  0  0  0  0  0
    5.8126   -5.0461    9.1222 C   0  0  0  0  0  0  0  0  0  0  0  0
    6.0437   -4.7513   10.5948 C   0  0  0  0  0  0  0  0  0  0  0  0
    4.3119   -4.6987    8.9248 C   0  0  0  0  0  0  0  0  0  0  0  0
   -2.3874    1.0025  -10.4208 H   0  0  0  0  0  0  0  0  0  0  0  0
   -3.5791    2.2389   -4.3808 H   0  0  0  0  0  0  0  0  0  0  0  0
   -6.2162    4.4029   -8.1591 H   0  0  0  0  0  0  0  0  0  0  0  0
   -5.9057    6.4313   -5.4510 H   0  0  0  0  0  0  0  0  0  0  0  0
   -8.4848    5.4317   -5.4227 H   0  0  0  0  0  0  0  0  0  0  0  0
   -8.4132    7.1522   -3.4031 H   0  0  0  0  0  0  0  0  0  0  0  0
   -7.0154    6.0924   -1.4672 H   0  0  0  0  0  0  0  0  0  0  0  0
   -6.2147    3.6774   -2.2469 H   0  0  0  0  0  0  0  0  0  0  0  0
   -7.5248    3.0970   -4.5146 H   0  0  0  0  0  0  0  0  0  0  0  0
   -8.6541    3.8244   -3.3026 H   0  0  0  0  0  0  0  0  0  0  0  0
   -4.6300    5.4561   -3.6788 H   0  0  0  0  0  0  0  0  0  0  0  0
   -1.7869   -4.6685   -9.1834 H   0  0  0  0  0  0  0  0  0  0  0  0
   -1.8281   -6.6919   -7.7667 H   0  0  0  0  0  0  0  0  0  0  0  0
   -0.7378   -5.8777   -3.9220 H   0  0  0  0  0  0  0  0  0  0  0  0
   -0.5301   -7.6690   -3.7758 H   0  0  0  0  0  0  0  0  0  0  0  0
   -0.1637   -6.8513   -5.3474 H   0  0  0  0  0  0  0  0  0  0  0  0
   -3.4267   -4.3751   -4.5065 H   0  0  0  0  0  0  0  0  0  0  0  0
   -3.3975   -2.3499   -5.9322 H   0  0  0  0  0  0  0  0  0  0  0  0
   -5.1327   -1.9204   -8.3657 H   0  0  0  0  0  0  0  0  0  0  0  0
   -6.6888   -1.9756  -10.2777 H   0  0  0  0  0  0  0  0  0  0  0  0
   -6.7898   -4.4350  -14.1242 H   0  0  0  0  0  0  0  0  0  0  0  0
   -5.0617   -4.2948  -13.6467 H   0  0  0  0  0  0  0  0  0  0  0  0
   -6.3327   -4.5887  -12.3807 H   0  0  0  0  0  0  0  0  0  0  0  0
   -3.3502   -2.3279  -12.9768 H   0  0  0  0  0  0  0  0  0  0  0  0
   -1.8020   -2.2966  -11.0571 H   0  0  0  0  0  0  0  0  0  0  0  0
    4.2755   -1.2475   -7.6116 H   0  0  0  0  0  0  0  0  0  0  0  0
    5.4952   -0.6958   -9.6886 H   0  0  0  0  0  0  0  0  0  0  0  0
    7.0015    2.4584   -9.2897 H   0  0  0  0  0  0  0  0  0  0  0  0
    8.0135    2.1287  -10.7460 H   0  0  0  0  0  0  0  0  0  0  0  0
    7.0537    3.6523  -10.6469 H   0  0  0  0  0  0  0  0  0  0  0  0
    3.8535    3.2824   -9.6049 H   0  0  0  0  0  0  0  0  0  0  0  0
    2.6596    2.7463   -7.5237 H   0  0  0  0  0  0  0  0  0  0  0  0
    4.8074    1.8113   -5.3846 H   0  0  0  0  0  0  0  0  0  0  0  0
    4.7787    3.8578   -4.0518 H   0  0  0  0  0  0  0  0  0  0  0  0
    2.9516    4.0668   -0.6350 H   0  0  0  0  0  0  0  0  0  0  0  0
    4.5141    4.2157   -1.5643 H   0  0  0  0  0  0  0  0  0  0  0  0
    3.8973    5.6116   -0.6479 H   0  0  0  0  0  0  0  0  0  0  0  0
    0.6259    3.2325   -3.1433 H   0  0  0  0  0  0  0  0  0  0  0  0
    0.5989    1.2335   -4.5843 H   0  0  0  0  0  0  0  0  0  0  0  0
    3.7357    2.0854    0.3820 H   0  0  0  0  0  0  0  0  0  0  0  0
    6.1386    2.7092   -0.1558 H   0  0  0  0  0  0  0  0  0  0  0  0
    8.2149    1.7881   -1.4757 H   0  0  0  0  0  0  0  0  0  0  0  0
    7.9792    0.3095   -2.4688 H   0  0  0  0  0  0  0  0  0  0  0  0
    8.5580    2.3101   -3.8591 H   0  0  0  0  0  0  0  0  0  0  0  0
    7.0785    3.1524   -3.2843 H   0  0  0  0  0  0  0  0  0  0  0  0
    6.9461    1.6464   -4.2857 H   0  0  0  0  0  0  0  0  0  0  0  0
   -1.9597   -2.4146    1.0408 H   0  0  0  0  0  0  0  0  0  0  0  0
   -3.1534   -4.6776    1.2976 H   0  0  0  0  0  0  0  0  0  0  0  0
   -1.8394   -7.4992   -0.8813 H   0  0  0  0  0  0  0  0  0  0  0  0
   -3.1039   -7.1052    0.3358 H   0  0  0  0  0  0  0  0  0  0  0  0
   -1.6406   -8.8527    1.2495 H   0  0  0  0  0  0  0  0  0  0  0  0
   -0.1596   -7.8623    0.9109 H   0  0  0  0  0  0  0  0  0  0  0  0
   -1.3606   -7.3277    2.1684 H   0  0  0  0  0  0  0  0  0  0  0  0
   -0.9046    3.4805    1.2765 H   0  0  0  0  0  0  0  0  0  0  0  0
    0.1092    5.3769    0.0984 H   0  0  0  0  0  0  0  0  0  0  0  0
    1.4727    7.8552    1.4004 H   0  0  0  0  0  0  0  0  0  0  0  0
    3.1522    7.1974    1.2112 H   0  0  0  0  0  0  0  0  0  0  0  0
    1.9480    6.9910   -0.1126 H   0  0  0  0  0  0  0  0  0  0  0  0
    2.9854    5.8215    3.2709 H   0  0  0  0  0  0  0  0  0  0  0  0
    1.9743    3.9082    4.4564 H   0  0  0  0  0  0  0  0  0  0  0  0
   -1.3307    5.1423    4.1630 H   0  0  0  0  0  0  0  0  0  0  0  0
   -3.5715    5.7078    4.9652 H   0  0  0  0  0  0  0  0  0  0  0  0
   -6.3584    3.2448    5.3760 H   0  0  0  0  0  0  0  0  0  0  0  0
   -5.4900    4.0437    6.7469 H   0  0  0  0  0  0  0  0  0  0  0  0
   -5.9435    4.9975    5.2757 H   0  0  0  0  0  0  0  0  0  0  0  0
   -4.6197    1.5300    5.0191 H   0  0  0  0  0  0  0  0  0  0  0  0
   -2.4014    0.9541    4.1734 H   0  0  0  0  0  0  0  0  0  0  0  0
   -2.8384   -2.4585    6.9193 H   0  0  0  0  0  0  0  0  0  0  0  0
   -2.7332   -4.7894    6.1274 H   0  0  0  0  0  0  0  0  0  0  0  0
   -0.9915   -7.1990    7.3602 H   0  0  0  0  0  0  0  0  0  0  0  0
   -1.3985   -6.7708    5.6472 H   0  0  0  0  0  0  0  0  0  0  0  0
    0.3274   -6.8645    6.1639 H   0  0  0  0  0  0  0  0  0  0  0  0
    1.2442   -5.1546    7.7626 H   0  0  0  0  0  0  0  0  0  0  0  0
    1.1364   -2.8109    8.5060 H   0  0  0  0  0  0  0  0  0  0  0  0
   -3.1264    0.4095    8.1636 H   0  0  0  0  0  0  0  0  0  0  0  0
   -4.7514    0.7960    9.9698 H   0  0  0  0  0  0  0  0  0  0  0  0
   -4.3883    0.7537   13.0593 H   0  0  0  0  0  0  0  0  0  0  0  0
   -5.7061   -0.0453   12.1246 H   0  0  0  0  0  0  0  0  0  0  0  0
   -4.6957   -1.0163   13.2438 H   0  0  0  0  0  0  0  0  0  0  0  0
   -2.4042   -1.7022   12.5949 H   0  0  0  0  0  0  0  0  0  0  0  0
   -0.8195   -2.1287   10.7587 H   0  0  0  0  0  0  0  0  0  0  0  0
   -0.4337    1.3744   10.3427 H   0  0  0  0  0  0  0  0  0  0  0  0
    4.1922   -1.7445    7.6726 H   0  0  0  0  0  0  0  0  0  0  0  0
    2.1017   -3.1137   12.1255 H   0  0  0  0  0  0  0  0  0  0  0  0
    2.8266   -5.7725   10.0917 H   0  0  0  0  0  0  0  0  0  0  0  0
    4.7216   -5.7304   12.1166 H   0  0  0  0  0  0  0  0  0  0  0  0
    5.2500   -7.9310   10.7213 H   0  0  0  0  0  0  0  0  0  0  0  0
    6.3642   -7.2163    8.4689 H   0  0  0  0  0  0  0  0  0  0  0  0
    6.5230   -4.5742    8.4139 H   0  0  0  0  0  0  0  0  0  0  0  0
    7.0410   -5.1025   10.9650 H   0  0  0  0  0  0  0  0  0  0  0  0
    5.9215   -3.6827   10.8747 H   0  0  0  0  0  0  0  0  0  0  0  0
    3.8333   -5.1413    8.0199 H   0  0  0  0  0  0  0  0  0  0  0  0
  1  2  2  3
  2  3  1  0
  3  4  2  0
  3  5  1  0
  5  6  2  0
  6  7  1  0
  7  8  2  0
  8  9  1  0
  9 10  2  0
 10 11  1  0
 11 12  2  3
 12 13  1  0
 13 14  3  0
 12 15  1  0
 15 16  3  0
  8 17  1  0
 17 18  1  0
 18 19  1  0
 19 20  2  0
 20 21  1  0
 21 22  1  0
 21 23  1  0
  1 24  1  0
 24 25  2  0
 25 26  1  0
 26 27  1  0
 27 28  2  0
 28 29  1  0
 29 30  2  0
 30 31  1  0
 31 32  1  0
 30 33  1  0
 33 34  2  0
 26 35  1  0
 35 36  2  0
 36 37  1  0
 37 38  2  0
 38 39  1  0
 39 40  1  0
 38 41  1  0
 41 42  2  0
 25 43  1  0
 43 44  1  0
 44 45  1  0
 45 46  2  0
 46 47  1  0
 47 48  1  0
 48 49  2  0
 49 50  1  0
 50 51  2  0
 51 52  1  0
 52 53  1  0
 51 54  1  0
 54 55  2  0
 47 56  1  0
 56 57  2  0
 57 58  1  0
 58 59  2  0
 59 60  1  0
 60 61  1  0
 59 62  1  0
 62 63  2  0
 46 64  1  0
 64 65  1  0
 45 66  1  0
 66 67  2  0
 67 68  1  0
 68 69  2  0
 69 70  1  0
 70 71  2  0
 71 72  1  0
 72 73  2  0
 73 74  1  0
 74 75  1  0
 73 76  1  0
 69 77  1  0
 77 78  2  0
 78 79  1  0
 79 80  1  0
 80 81  2  0
 81 82  1  0
 82 83  2  0
 83 84  1  0
 84 85  1  0
 83 86  1  0
 79 87  2  0
 87 88  1  0
 78 89  1  0
 89 90  2  0
 90 91  1  0
 90 92  1  0
 92 93  2  0
 93 94  1  0
 94 95  1  0
 95 96  2  0
 96 97  1  0
 97 98  2  0
 98 99  1  0
 98100  1  0
100101  2  0
 94102  1  0
102103  2  0
103104  1  0
104105  2  0
105106  1  0
105107  1  0
107108  2  0
 93109  1  0
109110  1  0
110111  1  0
111112  2  0
112113  1  0
113114  1  0
114115  2  0
115116  1  0
116117  2  0
117118  1  0
117119  1  0
119120  2  0
113121  1  0
121122  2  0
122123  1  0
123124  2  0
124125  1  0
124126  1  0
126127  2  0
112128  1  0
128129  1  0
111130  1  0
130131  2  3
131132  1  0
132133  2  0
132134  1  0
134135  2  0
135136  1  0
136137  2  0
137138  1  0
138139  2  0
139140  1  0
140141  2  3
141142  1  0
142143  3  0
141144  1  0
144145  3  0
137146  1  0
146147  1  0
147148  1  0
148149  2  0
149150  1  0
150151  1  0
150152  1  0
 11  2  1  0
 23 17  1  0
 65 24  1  0
 88 66  1  0
129 92  1  0
140131  1  0
152146  1  0
 10  5  1  0
 22 18  1  0
 34 27  1  0
 42 35  1  0
 64 43  2  0
 87 68  1  0
101 95  1  0
108102  1  0
128109  2  0
139134  1  0
151147  1  0
 23  7  1  0
 55 48  1  0
 63 56  1  0
 76 70  1  0
 91 77  1  0
120114  1  0
127121  1  0
152136  1  0
 86 80  1  0
  1153  1  0
  6154  1  0
  9155  1  0
 17156  1  0
 18157  1  0
 19158  1  0
 20159  1  0
 21160  1  0
 22161  1  0
 22162  1  0
 23163  1  0
 28164  1  0
 29165  1  0
 32166  1  0
 32167  1  0
 32168  1  0
 33169  1  0
 34170  1  0
 36171  1  0
 37172  1  0
 40173  1  0
 40174  1  0
 40175  1  0
 41176  1  0
 42177  1  0
 49178  1  0
 50179  1  0
 53180  1  0
 53181  1  0
 53182  1  0
 54183  1  0
 55184  1  0
 57185  1  0
 58186  1  0
 61187  1  0
 61188  1  0
 61189  1  0
 62190  1  0
 63191  1  0
 71192  1  0
 72193  1  0
 74194  1  0
 74195  1  0
 75196  1  0
 75197  1  0
 75198  1  0
 81199  1  0
 82200  1  0
 84201  1  0
 84202  1  0
 85203  1  0
 85204  1  0
 85205  1  0
 96206  1  0
 97207  1  0
 99208  1  0
 99209  1  0
 99210  1  0
100211  1  0
101212  1  0
103213  1  0
104214  1  0
106215  1  0
106216  1  0
106217  1  0
107218  1  0
108219  1  0
115220  1  0
116221  1  0
118222  1  0
118223  1  0
118224  1  0
119225  1  0
120226  1  0
122227  1  0
123228  1  0
125229  1  0
125230  1  0
125231  1  0
126232  1  0
127233  1  0
130234  1  0
135235  1  0
138236  1  0
146237  1  0
147238  1  0
148239  1  0
149240  1  0
150241  1  0
151242  1  0
151243  1  0
152244  1  0
M  END

