
     RDKit          3D

214236  0  0  0  0  0  0  0  0999 V2000
    1.1155    4.1608    5.7581 C   0  0  0  0  0  0  0  0  0  0  0  0
    0.6282    5.3571    5.3814 C   0  0  0  0  0  0  0  0  0  0  0  0
   -0.5160    5.5417    4.4807 C   0  0  0  0  0  0  0  0  0  0  0  0
   -1.4167    4.6931    4.2431 O   0  0  0  0  0  0  0  0  0  0  0  0
   -0.4416    6.8582    3.8993 C   0  0  0  0  0  0  0  0  0  0  0  0
   -1.2475    7.3685    2.8612 C   0  0  0  0  0  0  0  0  0  0  0  0
   -0.7982    8.5722    2.3481 C   0  0  0  0  0  0  0  0  0  0  0  0
    0.3976    9.2247    2.8037 C   0  0  0  0  0  0  0  0  0  0  0  0
    1.1776    8.7340    3.8407 C   0  0  0  0  0  0  0  0  0  0  0  0
    0.6987    7.5247    4.4185 C   0  0  0  0  0  0  0  0  0  0  0  0
    1.3228    6.6801    5.4737 C   0  0  0  0  0  0  0  0  0  0  0  0
    2.2140    7.0880    6.4121 C   0  0  0  0  0  0  0  0  0  0  0  0
    2.6381    6.2315    7.4899 C   0  0  0  0  0  0  0  0  0  0  0  0
    2.9830    5.5555    8.3640 N   0  0  0  0  0  0  0  0  0  0  0  0
    2.6687    8.4491    6.5033 C   0  0  0  0  0  0  0  0  0  0  0  0
    3.0327    9.5421    6.6015 N   0  0  0  0  0  0  0  0  0  0  0  0
    0.2602   10.2631    1.7289 C   0  0  0  0  0  0  0  0  0  0  0  0
    1.1985   10.1077    0.4942 C   0  0  0  0  0  0  0  0  0  0  0  0
    0.6157   11.0102   -0.5743 C   0  0  0  0  0  0  0  0  0  0  0  0
   -0.5297   10.4423   -0.9697 C   0  0  0  0  0  0  0  0  0  0  0  0
   -0.6810    9.1776   -0.1594 C   0  0  0  0  0  0  0  0  0  0  0  0
    0.7838    8.7659   -0.0938 C   0  0  0  0  0  0  0  0  0  0  0  0
   -0.9864    9.6207    1.2944 C   0  0  0  0  0  0  0  0  0  0  0  0
    0.7223    2.9381    5.0518 C   0  0  0  0  0  0  0  0  0  0  0  0
    0.9961    2.6678    3.6987 C   0  0  0  0  0  0  0  0  0  0  0  0
    1.9297    3.4302    2.8986 N   0  0  0  0  0  0  0  0  0  0  0  0
    1.6389    3.7849    1.5218 C   0  0  0  0  0  0  0  0  0  0  0  0
    0.3033    3.9210    1.0763 C   0  0  0  0  0  0  0  0  0  0  0  0
    0.0311    4.2793   -0.2454 C   0  0  0  0  0  0  0  0  0  0  0  0
    1.0797    4.5964   -1.1234 C   0  0  0  0  0  0  0  0  0  0  0  0
    0.8010    5.0627   -2.8452 S   0  0  0  0  0  0  0  0  0  0  0  0
   -0.6753    6.1039   -2.6070 C   0  0  0  0  0  0  0  0  0  0  0  0
    2.4054    4.4450   -0.6920 C   0  0  0  0  0  0  0  0  0  0  0  0
    2.6842    4.0152    0.6056 C   0  0  0  0  0  0  0  0  0  0  0  0
    3.1788    3.8054    3.5151 C   0  0  0  0  0  0  0  0  0  0  0  0
    3.8969    2.8672    4.2784 C   0  0  0  0  0  0  0  0  0  0  0  0
    5.0246    3.2632    5.0034 C   0  0  0  0  0  0  0  0  0  0  0  0
    5.4546    4.5941    4.9605 C   0  0  0  0  0  0  0  0  0  0  0  0
    6.8481    5.1081    5.9653 S   0  0  0  0  0  0  0  0  0  0  0  0
    8.0966    4.6162    4.7371 C   0  0  0  0  0  0  0  0  0  0  0  0
    4.7676    5.5272    4.1752 C   0  0  0  0  0  0  0  0  0  0  0  0
    3.6303    5.1352    3.4581 C   0  0  0  0  0  0  0  0  0  0  0  0
    0.5298    1.4007    3.3534 C   0  0  0  0  0  0  0  0  0  0  0  0
    0.5761    0.4979    1.9512 S   0  0  0  0  0  0  0  0  0  0  0  0
   -0.0728   -0.8956    2.6747 C   0  0  0  0  0  0  0  0  0  0  0  0
   -0.3280   -0.6664    4.0470 C   0  0  0  0  0  0  0  0  0  0  0  0
   -0.7299   -1.6932    4.9985 N   0  0  0  0  0  0  0  0  0  0  0  0
   -0.4831   -3.0777    4.7178 C   0  0  0  0  0  0  0  0  0  0  0  0
    0.8193   -3.5271    4.4819 C   0  0  0  0  0  0  0  0  0  0  0  0
    1.0683   -4.8780    4.2372 C   0  0  0  0  0  0  0  0  0  0  0  0
    0.0156   -5.7988    4.2572 C   0  0  0  0  0  0  0  0  0  0  0  0
    0.3415   -7.5410    3.9826 S   0  0  0  0  0  0  0  0  0  0  0  0
    0.0934   -7.4268    2.1835 C   0  0  0  0  0  0  0  0  0  0  0  0
   -1.2891   -5.3603    4.5106 C   0  0  0  0  0  0  0  0  0  0  0  0
   -1.5393   -4.0043    4.7413 C   0  0  0  0  0  0  0  0  0  0  0  0
   -0.9017   -1.3851    6.3890 C   0  0  0  0  0  0  0  0  0  0  0  0
    0.2213   -1.2380    7.2141 C   0  0  0  0  0  0  0  0  0  0  0  0
    0.0681   -0.9677    8.5762 C   0  0  0  0  0  0  0  0  0  0  0  0
   -1.2144   -0.8818    9.1322 C   0  0  0  0  0  0  0  0  0  0  0  0
   -1.4046   -0.5198   10.8773 S   0  0  0  0  0  0  0  0  0  0  0  0
   -1.2000   -2.2520   11.3950 C   0  0  0  0  0  0  0  0  0  0  0  0
   -2.3406   -1.0705    8.3226 C   0  0  0  0  0  0  0  0  0  0  0  0
   -2.1843   -1.3187    6.9514 C   0  0  0  0  0  0  0  0  0  0  0  0
   -0.0113    0.6642    4.3688 C   0  0  0  0  0  0  0  0  0  0  0  0
   -0.0065    1.5887    5.7731 S   0  0  0  0  0  0  0  0  0  0  0  0
   -0.5295   -2.0593    1.9055 C   0  0  0  0  0  0  0  0  0  0  0  0
    0.2561   -2.9427    1.1401 C   0  0  0  0  0  0  0  0  0  0  0  0
    1.5806   -2.6405    0.6848 N   0  0  0  0  0  0  0  0  0  0  0  0
    2.7021   -3.4071    1.1379 C   0  0  0  0  0  0  0  0  0  0  0  0
    3.1256   -4.5288    0.4126 C   0  0  0  0  0  0  0  0  0  0  0  0
    4.2952   -5.2007    0.7709 C   0  0  0  0  0  0  0  0  0  0  0  0
    5.0641   -4.7391    1.8480 C   0  0  0  0  0  0  0  0  0  0  0  0
    6.6379   -5.5229    2.2205 S   0  0  0  0  0  0  0  0  0  0  0  0
    5.9029   -6.7970    3.2897 C   0  0  0  0  0  0  0  0  0  0  0  0
    4.6480   -3.6224    2.5772 C   0  0  0  0  0  0  0  0  0  0  0  0
    3.4674   -2.9566    2.2228 C   0  0  0  0  0  0  0  0  0  0  0  0
    1.7671   -1.7040   -0.3887 C   0  0  0  0  0  0  0  0  0  0  0  0
    2.6404   -0.6183   -0.2364 C   0  0  0  0  0  0  0  0  0  0  0  0
    2.7329    0.3611   -1.2333 C   0  0  0  0  0  0  0  0  0  0  0  0
    2.0182    0.2141   -2.4266 C   0  0  0  0  0  0  0  0  0  0  0  0
    2.1650    1.4398   -3.7223 S   0  0  0  0  0  0  0  0  0  0  0  0
    0.3993    1.9078   -3.7033 C   0  0  0  0  0  0  0  0  0  0  0  0
    1.2112   -0.9161   -2.6144 C   0  0  0  0  0  0  0  0  0  0  0  0
    1.0505   -1.8435   -1.5896 C   0  0  0  0  0  0  0  0  0  0  0  0
   -0.5421   -3.9572    0.6005 C   0  0  0  0  0  0  0  0  0  0  0  0
   -0.3071   -5.1289   -0.5752 S   0  0  0  0  0  0  0  0  0  0  0  0
   -1.9712   -5.4860   -0.7689 C   0  0  0  0  0  0  0  0  0  0  0  0
   -2.7057   -4.6302    0.0677 C   0  0  0  0  0  0  0  0  0  0  0  0
   -4.0961   -4.3119   -0.1437 N   0  0  0  0  0  0  0  0  0  0  0  0
   -4.4468   -2.9823   -0.5878 C   0  0  0  0  0  0  0  0  0  0  0  0
   -5.5637   -2.3087   -0.0441 C   0  0  0  0  0  0  0  0  0  0  0  0
   -5.9198   -1.0447   -0.5110 C   0  0  0  0  0  0  0  0  0  0  0  0
   -5.1587   -0.4268   -1.5148 C   0  0  0  0  0  0  0  0  0  0  0  0
   -5.6385    1.1780   -2.1529 S   0  0  0  0  0  0  0  0  0  0  0  0
   -6.7960    0.4811   -3.3742 C   0  0  0  0  0  0  0  0  0  0  0  0
   -4.0249   -1.0685   -2.0316 C   0  0  0  0  0  0  0  0  0  0  0  0
   -3.6662   -2.3361   -1.5684 C   0  0  0  0  0  0  0  0  0  0  0  0
   -5.1186   -5.2797    0.1707 C   0  0  0  0  0  0  0  0  0  0  0  0
   -6.3108   -5.3269   -0.5715 C   0  0  0  0  0  0  0  0  0  0  0  0
   -7.3669   -6.1431   -0.1639 C   0  0  0  0  0  0  0  0  0  0  0  0
   -7.2360   -6.9348    0.9851 C   0  0  0  0  0  0  0  0  0  0  0  0
   -8.6431   -7.8604    1.5996 S   0  0  0  0  0  0  0  0  0  0  0  0
   -9.1943   -6.4976    2.6779 C   0  0  0  0  0  0  0  0  0  0  0  0
   -6.0246   -6.9596    1.6826 C   0  0  0  0  0  0  0  0  0  0  0  0
   -4.9666   -6.1360    1.2792 C   0  0  0  0  0  0  0  0  0  0  0  0
   -1.8706   -3.8374    0.8478 C   0  0  0  0  0  0  0  0  0  0  0  0
   -2.1745   -2.4973    1.7988 S   0  0  0  0  0  0  0  0  0  0  0  0
   -2.5497   -6.1841   -1.9304 C   0  0  0  0  0  0  0  0  0  0  0  0
   -1.9626   -6.0954   -3.1119 C   0  0  0  0  0  0  0  0  0  0  0  0
   -2.4819   -5.1676   -3.8921 N   0  0  0  0  0  0  0  0  0  0  0  0
   -1.7504   -4.8871   -4.9095 C   0  0  0  0  0  0  0  0  0  0  0  0
   -2.8092   -5.2601   -3.4889 S   0  0  0  0  0  0  0  0  0  0  0  0
   -2.1538   -3.8139   -5.8275 C   0  0  0  0  0  0  0  0  0  0  0  0
   -1.2432   -3.0277   -6.4267 C   0  0  0  0  0  0  0  0  0  0  0  0
    0.2086   -3.1429   -6.2468 C   0  0  0  0  0  0  0  0  0  0  0  0
    0.8358   -4.1936   -5.9432 O   0  0  0  0  0  0  0  0  0  0  0  0
    0.8122   -1.8416   -6.4675 C   0  0  0  0  0  0  0  0  0  0  0  0
    2.1871   -1.5194   -6.4070 C   0  0  0  0  0  0  0  0  0  0  0  0
    2.4660   -0.1979   -6.7094 C   0  0  0  0  0  0  0  0  0  0  0  0
    1.4576    0.7540   -7.0490 C   0  0  0  0  0  0  0  0  0  0  0  0
    0.1093    0.4448   -7.1185 C   0  0  0  0  0  0  0  0  0  0  0  0
   -0.2022   -0.9122   -6.8073 C   0  0  0  0  0  0  0  0  0  0  0  0
   -1.5115   -1.6303   -6.8853 C   0  0  0  0  0  0  0  0  0  0  0  0
   -2.7004   -1.1232   -7.3027 C   0  0  0  0  0  0  0  0  0  0  0  0
   -3.7631   -1.9886   -7.7549 C   0  0  0  0  0  0  0  0  0  0  0  0
   -4.6109   -2.6964   -8.1073 N   0  0  0  0  0  0  0  0  0  0  0  0
   -2.9812    0.2890   -7.3035 C   0  0  0  0  0  0  0  0  0  0  0  0
   -3.2142    1.4302   -7.2628 N   0  0  0  0  0  0  0  0  0  0  0  0
    2.4931    1.8174   -7.2383 C   0  0  0  0  0  0  0  0  0  0  0  0
    2.8204    2.2070   -8.7092 C   0  0  0  0  0  0  0  0  0  0  0  0
    4.1202    2.9631   -8.6574 C   0  0  0  0  0  0  0  0  0  0  0  0
    5.0674    2.0700   -8.3496 C   0  0  0  0  0  0  0  0  0  0  0  0
    4.3698    0.7392   -8.2041 C   0  0  0  0  0  0  0  0  0  0  0  0
    3.3323    0.8984   -9.2975 C   0  0  0  0  0  0  0  0  0  0  0  0
    3.5308    0.8386   -6.8969 C   0  0  0  0  0  0  0  0  0  0  0  0
    2.0036    4.0759    6.3591 H   0  0  0  0  0  0  0  0  0  0  0  0
   -2.0930    6.8363    2.4462 H   0  0  0  0  0  0  0  0  0  0  0  0
    2.1059    9.2084    4.1025 H   0  0  0  0  0  0  0  0  0  0  0  0
    0.1399   11.2966    2.1163 H   0  0  0  0  0  0  0  0  0  0  0  0
    2.2812   10.2486    0.6829 H   0  0  0  0  0  0  0  0  0  0  0  0
    1.0821   11.8767   -1.0251 H   0  0  0  0  0  0  0  0  0  0  0  0
   -1.1500   10.7691   -1.7935 H   0  0  0  0  0  0  0  0  0  0  0  0
   -1.3951    8.4403   -0.5812 H   0  0  0  0  0  0  0  0  0  0  0  0
    1.2362    8.5616   -1.0952 H   0  0  0  0  0  0  0  0  0  0  0  0
    0.9862    7.9006    0.5625 H   0  0  0  0  0  0  0  0  0  0  0  0
   -1.8994   10.2374    1.4328 H   0  0  0  0  0  0  0  0  0  0  0  0
   -0.5226    3.7528    1.7560 H   0  0  0  0  0  0  0  0  0  0  0  0
   -0.9938    4.3323   -0.5691 H   0  0  0  0  0  0  0  0  0  0  0  0
   -0.6046    6.6596   -1.6568 H   0  0  0  0  0  0  0  0  0  0  0  0
   -1.5750    5.4452   -2.5903 H   0  0  0  0  0  0  0  0  0  0  0  0
   -0.7672    6.8151   -3.4570 H   0  0  0  0  0  0  0  0  0  0  0  0
    3.2183    4.6357   -1.3763 H   0  0  0  0  0  0  0  0  0  0  0  0
    3.7174    3.8818    0.8987 H   0  0  0  0  0  0  0  0  0  0  0  0
    3.5769    1.8394    4.3326 H   0  0  0  0  0  0  0  0  0  0  0  0
    5.5533    2.5431    5.6216 H   0  0  0  0  0  0  0  0  0  0  0  0
    8.0268    5.2703    3.8450 H   0  0  0  0  0  0  0  0  0  0  0  0
    9.1048    4.7237    5.1868 H   0  0  0  0  0  0  0  0  0  0  0  0
    7.9493    3.5559    4.4416 H   0  0  0  0  0  0  0  0  0  0  0  0
    5.0841    6.5603    4.1509 H   0  0  0  0  0  0  0  0  0  0  0  0
    3.0805    5.8744    2.8901 H   0  0  0  0  0  0  0  0  0  0  0  0
    1.6436   -2.8279    4.4957 H   0  0  0  0  0  0  0  0  0  0  0  0
    2.0796   -5.2049    4.0305 H   0  0  0  0  0  0  0  0  0  0  0  0
    0.2562   -8.4281    1.7327 H   0  0  0  0  0  0  0  0  0  0  0  0
    0.8261   -6.7132    1.7454 H   0  0  0  0  0  0  0  0  0  0  0  0
   -0.9392   -7.0907    1.9585 H   0  0  0  0  0  0  0  0  0  0  0  0
   -2.1122   -6.0624    4.5174 H   0  0  0  0  0  0  0  0  0  0  0  0
   -2.5542   -3.6720    4.9205 H   0  0  0  0  0  0  0  0  0  0  0  0
    1.2163   -1.3045    6.7921 H   0  0  0  0  0  0  0  0  0  0  0  0
    0.9454   -0.8160    9.1912 H   0  0  0  0  0  0  0  0  0  0  0  0
   -0.2388   -2.6555   11.0107 H   0  0  0  0  0  0  0  0  0  0  0  0
   -1.1861   -2.2942   12.5055 H   0  0  0  0  0  0  0  0  0  0  0  0
   -2.0479   -2.8651   11.0201 H   0  0  0  0  0  0  0  0  0  0  0  0
   -3.3316   -1.0296    8.7508 H   0  0  0  0  0  0  0  0  0  0  0  0
   -3.0622   -1.4585    6.3331 H   0  0  0  0  0  0  0  0  0  0  0  0
    2.5733   -4.8557   -0.4560 H   0  0  0  0  0  0  0  0  0  0  0  0
    4.6185   -6.0577    0.1968 H   0  0  0  0  0  0  0  0  0  0  0  0
    5.1026   -7.3365    2.7475 H   0  0  0  0  0  0  0  0  0  0  0  0
    6.6930   -7.5205    3.5878 H   0  0  0  0  0  0  0  0  0  0  0  0
    5.4867   -6.3218    4.2022 H   0  0  0  0  0  0  0  0  0  0  0  0
    5.2468   -3.2489    3.4008 H   0  0  0  0  0  0  0  0  0  0  0  0
    3.1705   -2.0697    2.7651 H   0  0  0  0  0  0  0  0  0  0  0  0
    3.2074   -0.4899    0.6788 H   0  0  0  0  0  0  0  0  0  0  0  0
    3.3725    1.2221   -1.0824 H   0  0  0  0  0  0  0  0  0  0  0  0
   -0.2404    1.0538   -4.0070 H   0  0  0  0  0  0  0  0  0  0  0  0
    0.2366    2.7229   -4.4408 H   0  0  0  0  0  0  0  0  0  0  0  0
    0.1083    2.2448   -2.6879 H   0  0  0  0  0  0  0  0  0  0  0  0
    0.6686   -1.0490   -3.5406 H   0  0  0  0  0  0  0  0  0  0  0  0
    0.3746   -2.6664   -1.7419 H   0  0  0  0  0  0  0  0  0  0  0  0
   -6.1442   -2.7691    0.7486 H   0  0  0  0  0  0  0  0  0  0  0  0
   -6.7968   -0.5612   -0.1134 H   0  0  0  0  0  0  0  0  0  0  0  0
   -7.7059    0.1107   -2.8515 H   0  0  0  0  0  0  0  0  0  0  0  0
   -7.0841    1.2766   -4.0957 H   0  0  0  0  0  0  0  0  0  0  0  0
   -6.3197   -0.3518   -3.9377 H   0  0  0  0  0  0  0  0  0  0  0  0
   -3.4290   -0.5962   -2.8091 H   0  0  0  0  0  0  0  0  0  0  0  0
   -2.7871   -2.8167   -1.9821 H   0  0  0  0  0  0  0  0  0  0  0  0
   -6.4356   -4.7008   -1.4416 H   0  0  0  0  0  0  0  0  0  0  0  0
   -8.2991   -6.1265   -0.7125 H   0  0  0  0  0  0  0  0  0  0  0  0
  -10.1697   -6.7649    3.1403 H   0  0  0  0  0  0  0  0  0  0  0  0
   -8.4536   -6.3218    3.4902 H   0  0  0  0  0  0  0  0  0  0  0  0
   -9.3280   -5.5595    2.0914 H   0  0  0  0  0  0  0  0  0  0  0  0
   -5.9156   -7.5736    2.5690 H   0  0  0  0  0  0  0  0  0  0  0  0
   -4.0593   -6.1264    1.8684 H   0  0  0  0  0  0  0  0  0  0  0  0
   -1.0119   -6.7157   -3.2953 H   0  0  0  0  0  0  0  0  0  0  0  0
   -3.1941   -3.5166   -5.8071 H   0  0  0  0  0  0  0  0  0  0  0  0
    2.9552   -2.2483   -6.1709 H   0  0  0  0  0  0  0  0  0  0  0  0
   -0.6146    1.1834   -7.4322 H   0  0  0  0  0  0  0  0  0  0  0  0
    2.3948    2.6677   -6.5320 H   0  0  0  0  0  0  0  0  0  0  0  0
    2.0001    2.7160   -9.2680 H   0  0  0  0  0  0  0  0  0  0  0  0
    4.2843    3.9972   -8.9273 H   0  0  0  0  0  0  0  0  0  0  0  0
    6.1360    2.2652   -8.3233 H   0  0  0  0  0  0  0  0  0  0  0  0
    5.0204   -0.1493   -8.2865 H   0  0  0  0  0  0  0  0  0  0  0  0
    3.7636    1.0231  -10.3191 H   0  0  0  0  0  0  0  0  0  0  0  0
    2.5700    0.0858   -9.3373 H   0  0  0  0  0  0  0  0  0  0  0  0
    4.0991    1.0710   -5.9616 H   0  0  0  0  0  0  0  0  0  0  0  0
  1  2  2  3
  2  3  1  0
  3  4  2  0
  3  5  1  0
  5  6  2  0
  6  7  1  0
  7  8  2  0
  8  9  1  0
  9 10  2  0
 10 11  1  0
 11 12  2  3
 12 13  1  0
 13 14  3  0
 12 15  1  0
 15 16  3  0
  8 17  1  0
 17 18  1  0
 18 19  1  0
 19 20  2  0
 20 21  1  0
 21 22  1  0
 21 23  1  0
  1 24  1  0
 24 25  2  0
 25 26  1  0
 26 27  1  0
 27 28  2  0
 28 29  1  0
 29 30  2  0
 30 31  1  0
 31 32  1  0
 30 33  1  0
 33 34  2  0
 26 35  1  0
 35 36  2  0
 36 37  1  0
 37 38  2  0
 38 39  1  0
 39 40  1  0
 38 41  1  0
 41 42  2  0
 25 43  1  0
 43 44  1  0
 44 45  1  0
 45 46  2  0
 46 47  1  0
 47 48  1  0
 48 49  2  0
 49 50  1  0
 50 51  2  0
 51 52  1  0
 52 53  1  0
 51 54  1  0
 54 55  2  0
 47 56  1  0
 56 57  2  0
 57 58  1  0
 58 59  2  0
 59 60  1  0
 60 61  1  0
 59 62  1  0
 62 63  2  0
 46 64  1  0
 64 65  1  0
 45 66  1  0
 66 67  2  0
 67 68  1  0
 68 69  1  0
 69 70  2  0
 70 71  1  0
 71 72  2  0
 72 73  1  0
 73 74  1  0
 72 75  1  0
 75 76  2  0
 68 77  1  0
 77 78  2  0
 78 79  1  0
 79 80  2  0
 80 81  1  0
 81 82  1  0
 80 83  1  0
 83 84  2  0
 67 85  1  0
 85 86  1  0
 86 87  1  0
 87 88  2  0
 88 89  1  0
 89 90  1  0
 90 91  2  0
 91 92  1  0
 92 93  2  0
 93 94  1  0
 94 95  1  0
 93 96  1  0
 96 97  2  0
 89 98  1  0
 98 99  2  0
 99100  1  0
100101  2  0
101102  1  0
102103  1  0
101104  1  0
104105  2  0
 88106  1  0
106107  1  0
 87108  1  0
108109  2  0
109110  1  0
110111  2  0
111112  1  0
111113  1  0
113114  2  3
114115  1  0
115116  2  0
115117  1  0
117118  2  0
118119  1  0
119120  2  0
120121  1  0
121122  2  0
122123  1  0
123124  2  3
124125  1  0
125126  3  0
124127  1  0
127128  3  0
120129  1  0
129130  1  0
130131  1  0
131132  2  0
132133  1  0
133134  1  0
133135  1  0
 11  2  1  0
 23 17  1  0
 65 24  1  0
107 66  1  0
112108  1  0
123114  1  0
135129  1  0
 10  5  1  0
 22 18  1  0
 34 27  1  0
 42 35  1  0
 64 43  2  0
 76 69  1  0
 84 77  1  0
106 85  2  0
122117  1  0
134130  1  0
 23  7  1  0
 55 48  1  0
 63 56  1  0
 97 90  1  0
105 98  1  0
135119  1  0
  1136  1  0
  6137  1  0
  9138  1  0
 17139  1  0
 18140  1  0
 19141  1  0
 20142  1  0
 21143  1  0
 22144  1  0
 22145  1  0
 23146  1  0
 28147  1  0
 29148  1  0
 32149  1  0
 32150  1  0
 32151  1  0
 33152  1  0
 34153  1  0
 36154  1  0
 37155  1  0
 40156  1  0
 40157  1  0
 40158  1  0
 41159  1  0
 42160  1  0
 49161  1  0
 50162  1  0
 53163  1  0
 53164  1  0
 53165  1  0
 54166  1  0
 55167  1  0
 57168  1  0
 58169  1  0
 61170  1  0
 61171  1  0
 61172  1  0
 62173  1  0
 63174  1  0
 70175  1  0
 71176  1  0
 74177  1  0
 74178  1  0
 74179  1  0
 75180  1  0
 76181  1  0
 78182  1  0
 79183  1  0
 82184  1  0
 82185  1  0
 82186  1  0
 83187  1  0
 84188  1  0
 91189  1  0
 92190  1  0
 95191  1  0
 95192  1  0
 95193  1  0
 96194  1  0
 97195  1  0
 99196  1  0
100197  1  0
103198  1  0
103199  1  0
103200  1  0
104201  1  0
105202  1  0
109203  1  0
113204  1  0
118205  1  0
121206  1  0
129207  1  0
130208  1  0
131209  1  0
132210  1  0
133211  1  0
134212  1  0
134213  1  0
135214  1  0
M  END

