
     RDKit          3D

194214  0  0  0  0  0  0  0  0999 V2000
    7.4997   -3.1787   -1.3212 C   0  0  0  0  0  0  0  0  0  0  0  0
    7.5760   -2.4297   -0.2001 C   0  0  0  0  0  0  0  0  0  0  0  0
    6.6088   -1.4007    0.2201 C   0  0  0  0  0  0  0  0  0  0  0  0
    5.7842   -0.7997   -0.5132 O   0  0  0  0  0  0  0  0  0  0  0  0
    6.7329   -1.1859    1.6405 C   0  0  0  0  0  0  0  0  0  0  0  0
    5.8993   -0.3821    2.4467 C   0  0  0  0  0  0  0  0  0  0  0  0
    6.1645   -0.4754    3.7923 C   0  0  0  0  0  0  0  0  0  0  0  0
    7.2035   -1.2977    4.3300 C   0  0  0  0  0  0  0  0  0  0  0  0
    8.0390   -2.0869    3.5438 C   0  0  0  0  0  0  0  0  0  0  0  0
    7.7868   -1.9890    2.1419 C   0  0  0  0  0  0  0  0  0  0  0  0
    8.4394   -2.6943    0.9941 C   0  0  0  0  0  0  0  0  0  0  0  0
    9.6942   -3.2102    0.9745 C   0  0  0  0  0  0  0  0  0  0  0  0
   10.5160   -3.2845    2.1545 C   0  0  0  0  0  0  0  0  0  0  0  0
   11.1839   -3.3388    3.0966 N   0  0  0  0  0  0  0  0  0  0  0  0
   10.3423   -3.5872   -0.2582 C   0  0  0  0  0  0  0  0  0  0  0  0
   10.8755   -3.8852   -1.2406 N   0  0  0  0  0  0  0  0  0  0  0  0
    6.8215   -0.8872    5.7286 C   0  0  0  0  0  0  0  0  0  0  0  0
    6.0506   -1.9314    6.5877 C   0  0  0  0  0  0  0  0  0  0  0  0
    5.4412   -1.1544    7.7336 C   0  0  0  0  0  0  0  0  0  0  0  0
    4.4571   -0.4150    7.2107 C   0  0  0  0  0  0  0  0  0  0  0  0
    4.4489   -0.6961    5.7283 C   0  0  0  0  0  0  0  0  0  0  0  0
    4.7910   -2.1759    5.7773 C   0  0  0  0  0  0  0  0  0  0  0  0
    5.7514   -0.0543    5.1658 C   0  0  0  0  0  0  0  0  0  0  0  0
    6.4195   -2.9928   -2.3045 C   0  0  0  0  0  0  0  0  0  0  0  0
    4.9069   -3.6767   -2.0603 S   0  0  0  0  0  0  0  0  0  0  0  0
    4.0025   -2.5246   -2.8745 C   0  0  0  0  0  0  0  0  0  0  0  0
    4.8933   -1.5718   -3.3887 C   0  0  0  0  0  0  0  0  0  0  0  0
    4.5143   -0.2836   -4.0126 C   0  0  0  0  0  0  0  0  0  0  0  0
    3.3461   -0.0969   -4.4365 O   0  0  0  0  0  0  0  0  0  0  0  0
    5.5461    0.7700   -4.1429 C   0  0  0  0  0  0  0  0  0  0  0  0
    5.3175    2.0948   -4.5344 C   0  0  0  0  0  0  0  0  0  0  0  0
    4.0007    2.7560   -4.8380 C   0  0  0  0  0  0  0  0  0  0  0  0
    3.1824    2.9880   -3.5716 C   0  0  0  0  0  0  0  0  0  0  0  0
    6.7944    2.8998   -4.5076 S   0  0  0  0  0  0  0  0  0  0  0  0
    7.7353    1.6010   -4.0028 C   0  0  0  0  0  0  0  0  0  0  0  0
    9.2293    1.6737   -3.8484 C   0  0  0  0  0  0  0  0  0  0  0  0
    9.9292    1.1705   -5.1095 C   0  0  0  0  0  0  0  0  0  0  0  0
    6.8992    0.4913   -3.8456 C   0  0  0  0  0  0  0  0  0  0  0  0
    7.3024   -0.8541   -3.3744 C   0  0  0  0  0  0  0  0  0  0  0  0
    8.5158   -1.1645   -3.2222 O   0  0  0  0  0  0  0  0  0  0  0  0
    6.2393   -1.8419   -3.0832 C   0  0  0  0  0  0  0  0  0  0  0  0
    2.5779   -2.2662   -2.5852 C   0  0  0  0  0  0  0  0  0  0  0  0
    2.1620   -1.9152   -1.2869 C   0  0  0  0  0  0  0  0  0  0  0  0
    3.0566   -1.9102   -0.2052 O   0  0  0  0  0  0  0  0  0  0  0  0
    3.2314   -3.0195    0.6835 C   0  0  0  0  0  0  0  0  0  0  0  0
    2.9922   -2.5928    2.1262 C   0  0  0  0  0  0  0  0  0  0  0  0
    0.8575   -1.4479   -1.0817 C   0  0  0  0  0  0  0  0  0  0  0  0
    0.3940   -1.3330    0.2333 O   0  0  0  0  0  0  0  0  0  0  0  0
   -0.3481   -2.3790    0.8717 C   0  0  0  0  0  0  0  0  0  0  0  0
   -1.7473   -2.5442    0.2819 C   0  0  0  0  0  0  0  0  0  0  0  0
    0.0383   -1.0830   -2.1804 C   0  0  0  0  0  0  0  0  0  0  0  0
    0.3681   -1.6425   -3.4345 C   0  0  0  0  0  0  0  0  0  0  0  0
    1.6397   -2.2425   -3.6301 C   0  0  0  0  0  0  0  0  0  0  0  0
    1.9467   -2.7731   -4.8455 N   0  0  0  0  0  0  0  0  0  0  0  0
    1.0494   -2.7834   -5.8621 C   0  0  0  0  0  0  0  0  0  0  0  0
   -0.2175   -2.2443   -5.6575 C   0  0  0  0  0  0  0  0  0  0  0  0
   -0.5191   -1.6716   -4.4605 N   0  0  0  0  0  0  0  0  0  0  0  0
   -1.0760   -0.0974   -1.9414 C   0  0  0  0  0  0  0  0  0  0  0  0
   -2.3691   -0.0282   -2.5460 C   0  0  0  0  0  0  0  0  0  0  0  0
   -2.5768    0.0467   -3.9680 N   0  0  0  0  0  0  0  0  0  0  0  0
   -2.0470    1.2001   -4.6769 C   0  0  0  0  0  0  0  0  0  0  0  0
   -1.4425    1.0469   -5.9362 C   0  0  0  0  0  0  0  0  0  0  0  0
   -0.9562    2.1557   -6.6327 C   0  0  0  0  0  0  0  0  0  0  0  0
   -1.0935    3.4406   -6.0968 C   0  0  0  0  0  0  0  0  0  0  0  0
   -0.5696    4.8696   -7.0451 S   0  0  0  0  0  0  0  0  0  0  0  0
    1.1235    4.8640   -6.3761 C   0  0  0  0  0  0  0  0  0  0  0  0
   -1.7018    3.6108   -4.8502 C   0  0  0  0  0  0  0  0  0  0  0  0
   -2.1709    2.5008   -4.1421 C   0  0  0  0  0  0  0  0  0  0  0  0
   -3.6002   -0.7811   -4.5769 C   0  0  0  0  0  0  0  0  0  0  0  0
   -3.8723   -2.0667   -4.0746 C   0  0  0  0  0  0  0  0  0  0  0  0
   -4.8858   -2.8493   -4.6366 C   0  0  0  0  0  0  0  0  0  0  0  0
   -5.6565   -2.3511   -5.6985 C   0  0  0  0  0  0  0  0  0  0  0  0
   -6.9955   -3.3288   -6.3894 S   0  0  0  0  0  0  0  0  0  0  0  0
   -5.9361   -4.1215   -7.6403 C   0  0  0  0  0  0  0  0  0  0  0  0
   -5.3921   -1.0786   -6.2095 C   0  0  0  0  0  0  0  0  0  0  0  0
   -4.3781   -0.2964   -5.6528 C   0  0  0  0  0  0  0  0  0  0  0  0
   -3.2607    0.6381   -1.7018 C   0  0  0  0  0  0  0  0  0  0  0  0
   -4.9190    0.9288   -1.7135 S   0  0  0  0  0  0  0  0  0  0  0  0
   -4.8957    1.8123   -0.2496 C   0  0  0  0  0  0  0  0  0  0  0  0
   -3.5742    1.9325    0.1969 C   0  0  0  0  0  0  0  0  0  0  0  0
   -3.1532    2.7017    1.3291 N   0  0  0  0  0  0  0  0  0  0  0  0
   -3.3857    2.2375    2.6705 C   0  0  0  0  0  0  0  0  0  0  0  0
   -3.2393    0.8739    2.9917 C   0  0  0  0  0  0  0  0  0  0  0  0
   -3.4527    0.4280    4.2985 C   0  0  0  0  0  0  0  0  0  0  0  0
   -3.8197    1.3359    5.2981 C   0  0  0  0  0  0  0  0  0  0  0  0
   -4.0642    0.7631    6.9788 S   0  0  0  0  0  0  0  0  0  0  0  0
   -2.3237    1.0082    7.4371 C   0  0  0  0  0  0  0  0  0  0  0  0
   -3.9791    2.6944    4.9872 C   0  0  0  0  0  0  0  0  0  0  0  0
   -3.7613    3.1451    3.6822 C   0  0  0  0  0  0  0  0  0  0  0  0
   -2.3934    3.8951    1.0854 C   0  0  0  0  0  0  0  0  0  0  0  0
   -2.9498    4.9536    0.3536 C   0  0  0  0  0  0  0  0  0  0  0  0
   -2.1963    6.0898    0.0633 C   0  0  0  0  0  0  0  0  0  0  0  0
   -0.8451    6.1513    0.4433 C   0  0  0  0  0  0  0  0  0  0  0  0
    0.1477    7.5769   -0.0082 S   0  0  0  0  0  0  0  0  0  0  0  0
   -0.1709    8.4516    1.5625 C   0  0  0  0  0  0  0  0  0  0  0  0
   -0.2774    5.0914    1.1633 C   0  0  0  0  0  0  0  0  0  0  0  0
   -1.0505    3.9702    1.4995 C   0  0  0  0  0  0  0  0  0  0  0  0
   -2.7051    1.2488   -0.6311 C   0  0  0  0  0  0  0  0  0  0  0  0
   -1.0857    0.9137   -0.5606 S   0  0  0  0  0  0  0  0  0  0  0  0
   -6.0530    2.0790    0.6065 C   0  0  0  0  0  0  0  0  0  0  0  0
   -6.5423    1.1326    1.4335 C   0  0  0  0  0  0  0  0  0  0  0  0
   -6.0318   -0.2430    1.5504 C   0  0  0  0  0  0  0  0  0  0  0  0
   -5.3677   -0.8772    0.6905 O   0  0  0  0  0  0  0  0  0  0  0  0
   -6.3739   -0.7498    2.8561 C   0  0  0  0  0  0  0  0  0  0  0  0
   -5.9247   -1.9538    3.4384 C   0  0  0  0  0  0  0  0  0  0  0  0
   -6.2577   -2.0930    4.7685 C   0  0  0  0  0  0  0  0  0  0  0  0
   -6.9981   -1.1043    5.4986 C   0  0  0  0  0  0  0  0  0  0  0  0
   -7.4520    0.0764    4.9297 C   0  0  0  0  0  0  0  0  0  0  0  0
   -7.1333    0.2240    3.5501 C   0  0  0  0  0  0  0  0  0  0  0  0
   -7.3859    1.3748    2.6381 C   0  0  0  0  0  0  0  0  0  0  0  0
   -8.3639    2.3058    2.7580 C   0  0  0  0  0  0  0  0  0  0  0  0
   -8.6701    3.2324    1.6943 C   0  0  0  0  0  0  0  0  0  0  0  0
   -8.9272    3.9727    0.8441 N   0  0  0  0  0  0  0  0  0  0  0  0
   -9.2516    2.3397    3.8879 C   0  0  0  0  0  0  0  0  0  0  0  0
   -9.9670    2.3752    4.7965 N   0  0  0  0  0  0  0  0  0  0  0  0
   -6.9004   -1.9333    6.7437 C   0  0  0  0  0  0  0  0  0  0  0  0
   -8.1909   -2.6878    7.1785 C   0  0  0  0  0  0  0  0  0  0  0  0
   -7.7451   -3.7265    8.1844 C   0  0  0  0  0  0  0  0  0  0  0  0
   -7.0629   -4.6516    7.4987 C   0  0  0  0  0  0  0  0  0  0  0  0
   -7.0681   -4.2009    6.0565 C   0  0  0  0  0  0  0  0  0  0  0  0
   -8.4637   -3.6061    6.0027 C   0  0  0  0  0  0  0  0  0  0  0  0
   -6.1488   -2.9493    5.9909 C   0  0  0  0  0  0  0  0  0  0  0  0
    8.1150   -4.0509   -1.4510 H   0  0  0  0  0  0  0  0  0  0  0  0
    5.0895    0.2140    2.0534 H   0  0  0  0  0  0  0  0  0  0  0  0
    8.7712   -2.7375    3.9872 H   0  0  0  0  0  0  0  0  0  0  0  0
    7.6160   -0.3165    6.2633 H   0  0  0  0  0  0  0  0  0  0  0  0
    6.6217   -2.8367    6.8901 H   0  0  0  0  0  0  0  0  0  0  0  0
    5.7051   -1.1995    8.7800 H   0  0  0  0  0  0  0  0  0  0  0  0
    3.7702    0.2235    7.7616 H   0  0  0  0  0  0  0  0  0  0  0  0
    3.5086   -0.4394    5.1932 H   0  0  0  0  0  0  0  0  0  0  0  0
    4.9618   -2.6365    4.7785 H   0  0  0  0  0  0  0  0  0  0  0  0
    4.0266   -2.7887    6.3180 H   0  0  0  0  0  0  0  0  0  0  0  0
    5.8700    1.0422    5.3470 H   0  0  0  0  0  0  0  0  0  0  0  0
    3.4202    2.1515   -5.5636 H   0  0  0  0  0  0  0  0  0  0  0  0
    4.1844    3.7419   -5.3133 H   0  0  0  0  0  0  0  0  0  0  0  0
    3.7573    3.6079   -2.8544 H   0  0  0  0  0  0  0  0  0  0  0  0
    2.2348    3.5100   -3.8195 H   0  0  0  0  0  0  0  0  0  0  0  0
    2.9234    2.0264   -3.0773 H   0  0  0  0  0  0  0  0  0  0  0  0
    9.5621    1.0943   -2.9617 H   0  0  0  0  0  0  0  0  0  0  0  0
    9.5308    2.7251   -3.6750 H   0  0  0  0  0  0  0  0  0  0  0  0
    9.6814    1.8249   -5.9711 H   0  0  0  0  0  0  0  0  0  0  0  0
   11.0286    1.1806   -4.9542 H   0  0  0  0  0  0  0  0  0  0  0  0
    9.6171    0.1291   -5.3461 H   0  0  0  0  0  0  0  0  0  0  0  0
    4.2895   -3.3677    0.6200 H   0  0  0  0  0  0  0  0  0  0  0  0
    2.5696   -3.8714    0.4152 H   0  0  0  0  0  0  0  0  0  0  0  0
    3.5020   -1.6299    2.3341 H   0  0  0  0  0  0  0  0  0  0  0  0
    1.9129   -2.4723    2.3379 H   0  0  0  0  0  0  0  0  0  0  0  0
    3.3898   -3.3683    2.8146 H   0  0  0  0  0  0  0  0  0  0  0  0
    0.2022   -3.3444    0.7898 H   0  0  0  0  0  0  0  0  0  0  0  0
   -0.4546   -2.1360    1.9508 H   0  0  0  0  0  0  0  0  0  0  0  0
   -2.2870   -3.3341    0.8449 H   0  0  0  0  0  0  0  0  0  0  0  0
   -1.6891   -2.8397   -0.7845 H   0  0  0  0  0  0  0  0  0  0  0  0
   -2.3253   -1.5971    0.3812 H   0  0  0  0  0  0  0  0  0  0  0  0
    1.3115   -3.2304   -6.8093 H   0  0  0  0  0  0  0  0  0  0  0  0
   -0.9557   -2.2627   -6.4493 H   0  0  0  0  0  0  0  0  0  0  0  0
   -1.3728    0.0734   -6.3957 H   0  0  0  0  0  0  0  0  0  0  0  0
   -0.4844    2.0205   -7.5986 H   0  0  0  0  0  0  0  0  0  0  0  0
    1.0949    5.1207   -5.2931 H   0  0  0  0  0  0  0  0  0  0  0  0
    1.7314    5.6283   -6.9046 H   0  0  0  0  0  0  0  0  0  0  0  0
    1.5911    3.8651   -6.5209 H   0  0  0  0  0  0  0  0  0  0  0  0
   -1.8358    4.6023   -4.4371 H   0  0  0  0  0  0  0  0  0  0  0  0
   -2.6682    2.6764   -3.1992 H   0  0  0  0  0  0  0  0  0  0  0  0
   -3.2996   -2.4657   -3.2519 H   0  0  0  0  0  0  0  0  0  0  0  0
   -5.0889   -3.8357   -4.2362 H   0  0  0  0  0  0  0  0  0  0  0  0
   -5.1860   -4.7664   -7.1455 H   0  0  0  0  0  0  0  0  0  0  0  0
   -5.4293   -3.3469   -8.2519 H   0  0  0  0  0  0  0  0  0  0  0  0
   -6.5737   -4.7417   -8.3053 H   0  0  0  0  0  0  0  0  0  0  0  0
   -5.9758   -0.6887   -7.0293 H   0  0  0  0  0  0  0  0  0  0  0  0
   -4.2211    0.6968   -6.0518 H   0  0  0  0  0  0  0  0  0  0  0  0
   -2.9437    0.1640    2.2288 H   0  0  0  0  0  0  0  0  0  0  0  0
   -3.3192   -0.6190    4.5334 H   0  0  0  0  0  0  0  0  0  0  0  0
   -1.6723    0.3902    6.7864 H   0  0  0  0  0  0  0  0  0  0  0  0
   -2.1713    0.7003    8.4906 H   0  0  0  0  0  0  0  0  0  0  0  0
   -2.0489    2.0793    7.3331 H   0  0  0  0  0  0  0  0  0  0  0  0
   -4.2607    3.3982    5.7586 H   0  0  0  0  0  0  0  0  0  0  0  0
   -3.8997    4.1899    3.4548 H   0  0  0  0  0  0  0  0  0  0  0  0
   -3.9839    4.9079    0.0204 H   0  0  0  0  0  0  0  0  0  0  0  0
   -2.6352    6.9157   -0.4871 H   0  0  0  0  0  0  0  0  0  0  0  0
    0.1940    7.8451    2.4141 H   0  0  0  0  0  0  0  0  0  0  0  0
   -1.2592    8.6482    1.6688 H   0  0  0  0  0  0  0  0  0  0  0  0
    0.3686    9.4185    1.5529 H   0  0  0  0  0  0  0  0  0  0  0  0
    0.7666    5.1282    1.4577 H   0  0  0  0  0  0  0  0  0  0  0  0
   -0.5989    3.1592    2.0456 H   0  0  0  0  0  0  0  0  0  0  0  0
   -6.2942    3.1155    0.7651 H   0  0  0  0  0  0  0  0  0  0  0  0
   -5.3268   -2.6856    2.9093 H   0  0  0  0  0  0  0  0  0  0  0  0
   -7.9550    0.8251    5.5172 H   0  0  0  0  0  0  0  0  0  0  0  0
   -6.3289   -1.4507    7.5667 H   0  0  0  0  0  0  0  0  0  0  0  0
   -9.0332   -2.0442    7.5103 H   0  0  0  0  0  0  0  0  0  0  0  0
   -8.0056   -3.7728    9.2352 H   0  0  0  0  0  0  0  0  0  0  0  0
   -6.6889   -5.5834    7.9013 H   0  0  0  0  0  0  0  0  0  0  0  0
   -6.8503   -5.0022    5.3143 H   0  0  0  0  0  0  0  0  0  0  0  0
   -9.2730   -4.3521    6.1995 H   0  0  0  0  0  0  0  0  0  0  0  0
   -8.7009   -3.0744    5.0537 H   0  0  0  0  0  0  0  0  0  0  0  0
   -5.1012   -3.1031    6.3297 H   0  0  0  0  0  0  0  0  0  0  0  0
  1  2  2  3
  2  3  1  0
  3  4  2  0
  3  5  1  0
  5  6  2  0
  6  7  1  0
  7  8  2  0
  8  9  1  0
  9 10  2  0
 10 11  1  0
 11 12  2  3
 12 13  1  0
 13 14  3  0
 12 15  1  0
 15 16  3  0
  8 17  1  0
 17 18  1  0
 18 19  1  0
 19 20  2  0
 20 21  1  0
 21 22  1  0
 21 23  1  0
  1 24  1  0
 24 25  1  0
 25 26  1  0
 26 27  2  0
 27 28  1  0
 28 29  2  0
 28 30  1  0
 30 31  2  0
 31 32  1  0
 32 33  1  0
 31 34  1  0
 34 35  1  0
 35 36  1  0
 36 37  1  0
 35 38  2  0
 38 39  1  0
 39 40  2  0
 39 41  1  0
 26 42  1  0
 42 43  2  0
 43 44  1  0
 44 45  1  0
 45 46  1  0
 43 47  1  0
 47 48  1  0
 48 49  1  0
 49 50  1  0
 47 51  2  0
 51 52  1  0
 52 53  2  0
 53 54  1  0
 54 55  2  0
 55 56  1  0
 56 57  2  0
 51 58  1  0
 58 59  2  0
 59 60  1  0
 60 61  1  0
 61 62  2  0
 62 63  1  0
 63 64  2  0
 64 65  1  0
 65 66  1  0
 64 67  1  0
 67 68  2  0
 60 69  1  0
 69 70  2  0
 70 71  1  0
 71 72  2  0
 72 73  1  0
 73 74  1  0
 72 75  1  0
 75 76  2  0
 59 77  1  0
 77 78  1  0
 78 79  1  0
 79 80  2  0
 80 81  1  0
 81 82  1  0
 82 83  2  0
 83 84  1  0
 84 85  2  0
 85 86  1  0
 86 87  1  0
 85 88  1  0
 88 89  2  0
 81 90  1  0
 90 91  2  0
 91 92  1  0
 92 93  2  0
 93 94  1  0
 94 95  1  0
 93 96  1  0
 96 97  2  0
 80 98  1  0
 98 99  1  0
 79100  1  0
100101  2  3
101102  1  0
102103  2  0
102104  1  0
104105  2  0
105106  1  0
106107  2  0
107108  1  0
108109  2  0
109110  1  0
110111  2  3
111112  1  0
112113  3  0
111114  1  0
114115  3  0
107116  1  0
116117  1  0
117118  1  0
118119  2  0
119120  1  0
120121  1  0
120122  1  0
 11  2  1  0
 23 17  1  0
 41 24  2  0
 53 42  1  0
 99 58  1  0
110101  1  0
122116  1  0
 10  5  1  0
 22 18  1  0
 41 27  1  0
 57 52  1  0
 68 61  1  0
 76 69  1  0
 98 77  2  0
109104  1  0
121117  1  0
 23  7  1  0
 38 30  1  0
 89 82  1  0
 97 90  1  0
122106  1  0
  1123  1  0
  6124  1  0
  9125  1  0
 17126  1  0
 18127  1  0
 19128  1  0
 20129  1  0
 21130  1  0
 22131  1  0
 22132  1  0
 23133  1  0
 32134  1  0
 32135  1  0
 33136  1  0
 33137  1  0
 33138  1  0
 36139  1  0
 36140  1  0
 37141  1  0
 37142  1  0
 37143  1  0
 45144  1  0
 45145  1  0
 46146  1  0
 46147  1  0
 46148  1  0
 49149  1  0
 49150  1  0
 50151  1  0
 50152  1  0
 50153  1  0
 55154  1  0
 56155  1  0
 62156  1  0
 63157  1  0
 66158  1  0
 66159  1  0
 66160  1  0
 67161  1  0
 68162  1  0
 70163  1  0
 71164  1  0
 74165  1  0
 74166  1  0
 74167  1  0
 75168  1  0
 76169  1  0
 83170  1  0
 84171  1  0
 87172  1  0
 87173  1  0
 87174  1  0
 88175  1  0
 89176  1  0
 91177  1  0
 92178  1  0
 95179  1  0
 95180  1  0
 95181  1  0
 96182  1  0
 97183  1  0
100184  1  0
105185  1  0
108186  1  0
116187  1  0
117188  1  0
118189  1  0
119190  1  0
120191  1  0
121192  1  0
121193  1  0
122194  1  0
M  END

