
     RDKit          3D

216237  0  0  0  0  0  0  0  0999 V2000
   -4.5194    4.6501    0.1415 C   0  0  0  0  0  0  0  0  0  0  0  0
   -5.2859    4.5299   -0.9621 C   0  0  0  0  0  0  0  0  0  0  0  0
   -4.8083    4.4762   -2.3518 C   0  0  0  0  0  0  0  0  0  0  0  0
   -3.6122    4.5449   -2.7327 O   0  0  0  0  0  0  0  0  0  0  0  0
   -5.9441    4.5735   -3.2402 C   0  0  0  0  0  0  0  0  0  0  0  0
   -5.9222    4.5345   -4.6546 C   0  0  0  0  0  0  0  0  0  0  0  0
   -7.1638    4.6956   -5.2397 C   0  0  0  0  0  0  0  0  0  0  0  0
   -8.3591    4.9194   -4.4838 C   0  0  0  0  0  0  0  0  0  0  0  0
   -8.3853    4.9738   -3.1006 C   0  0  0  0  0  0  0  0  0  0  0  0
   -7.1231    4.7525   -2.4752 C   0  0  0  0  0  0  0  0  0  0  0  0
   -6.7789    4.6536   -1.0250 C   0  0  0  0  0  0  0  0  0  0  0  0
   -7.6503    4.4371   -0.0029 C   0  0  0  0  0  0  0  0  0  0  0  0
   -9.0799    4.4872   -0.1691 C   0  0  0  0  0  0  0  0  0  0  0  0
  -10.2321    4.5214   -0.2818 N   0  0  0  0  0  0  0  0  0  0  0  0
   -7.2241    4.0271    1.3099 C   0  0  0  0  0  0  0  0  0  0  0  0
   -6.8893    3.6903    2.3671 N   0  0  0  0  0  0  0  0  0  0  0  0
   -9.1637    5.0062   -5.7467 C   0  0  0  0  0  0  0  0  0  0  0  0
   -9.6247    6.4146   -6.2361 C   0  0  0  0  0  0  0  0  0  0  0  0
   -8.6210    7.4646   -5.8190 C   0  0  0  0  0  0  0  0  0  0  0  0
   -7.5151    7.2350   -6.5313 C   0  0  0  0  0  0  0  0  0  0  0  0
   -7.8045    6.0353   -7.4038 C   0  0  0  0  0  0  0  0  0  0  0  0
   -9.2671    6.3060   -7.7078 C   0  0  0  0  0  0  0  0  0  0  0  0
   -7.9416    4.7580   -6.5221 C   0  0  0  0  0  0  0  0  0  0  0  0
   -3.0968    4.2666    0.2647 C   0  0  0  0  0  0  0  0  0  0  0  0
   -2.2650    4.6392    1.3365 C   0  0  0  0  0  0  0  0  0  0  0  0
   -2.6502    5.5346    2.3924 N   0  0  0  0  0  0  0  0  0  0  0  0
   -2.1377    6.8806    2.3596 C   0  0  0  0  0  0  0  0  0  0  0  0
   -2.1582    7.6184    1.1616 C   0  0  0  0  0  0  0  0  0  0  0  0
   -1.6631    8.9250    1.1285 C   0  0  0  0  0  0  0  0  0  0  0  0
   -1.1384    9.5081    2.2875 C   0  0  0  0  0  0  0  0  0  0  0  0
   -0.5178   11.1904    2.2502 S   0  0  0  0  0  0  0  0  0  0  0  0
   -2.1254   11.9155    2.7027 C   0  0  0  0  0  0  0  0  0  0  0  0
   -1.0967    8.7725    3.4765 C   0  0  0  0  0  0  0  0  0  0  0  0
   -1.5927    7.4674    3.5149 C   0  0  0  0  0  0  0  0  0  0  0  0
   -3.4760    5.0560    3.4815 C   0  0  0  0  0  0  0  0  0  0  0  0
   -3.4714    3.6948    3.8451 C   0  0  0  0  0  0  0  0  0  0  0  0
   -4.2712    3.2361    4.8965 C   0  0  0  0  0  0  0  0  0  0  0  0
   -5.0845    4.1262    5.5997 C   0  0  0  0  0  0  0  0  0  0  0  0
   -6.1024    3.5363    6.9538 S   0  0  0  0  0  0  0  0  0  0  0  0
   -7.5323    3.1989    5.8825 C   0  0  0  0  0  0  0  0  0  0  0  0
   -5.1092    5.4788    5.2407 C   0  0  0  0  0  0  0  0  0  0  0  0
   -4.3241    5.9377    4.1791 C   0  0  0  0  0  0  0  0  0  0  0  0
   -1.0465    3.9706    1.3089 C   0  0  0  0  0  0  0  0  0  0  0  0
    0.2586    3.8401    2.3611 S   0  0  0  0  0  0  0  0  0  0  0  0
    1.0731    2.6715    1.4183 C   0  0  0  0  0  0  0  0  0  0  0  0
    0.2805    2.3642    0.2943 C   0  0  0  0  0  0  0  0  0  0  0  0
    0.6431    1.4344   -0.7421 N   0  0  0  0  0  0  0  0  0  0  0  0
   -0.0769    0.1895   -0.8299 C   0  0  0  0  0  0  0  0  0  0  0  0
   -0.0738   -0.7132    0.2466 C   0  0  0  0  0  0  0  0  0  0  0  0
   -0.7482   -1.9319    0.1491 C   0  0  0  0  0  0  0  0  0  0  0  0
   -1.4487   -2.2552   -1.0176 C   0  0  0  0  0  0  0  0  0  0  0  0
   -2.3103   -3.8222   -1.1450 S   0  0  0  0  0  0  0  0  0  0  0  0
   -3.8821   -3.1408   -0.5340 C   0  0  0  0  0  0  0  0  0  0  0  0
   -1.4624   -1.3613   -2.0922 C   0  0  0  0  0  0  0  0  0  0  0  0
   -0.7841   -0.1428   -1.9972 C   0  0  0  0  0  0  0  0  0  0  0  0
    1.4896    1.8705   -1.8334 C   0  0  0  0  0  0  0  0  0  0  0  0
    1.6580    3.2416   -2.1173 C   0  0  0  0  0  0  0  0  0  0  0  0
    2.4748    3.6533   -3.1744 C   0  0  0  0  0  0  0  0  0  0  0  0
    3.1240    2.7052   -3.9694 C   0  0  0  0  0  0  0  0  0  0  0  0
    4.1633    3.2442   -5.3279 S   0  0  0  0  0  0  0  0  0  0  0  0
    2.7835    3.3126   -6.5113 C   0  0  0  0  0  0  0  0  0  0  0  0
    2.9768    1.3438   -3.6913 C   0  0  0  0  0  0  0  0  0  0  0  0
    2.1769    0.9279   -2.6244 C   0  0  0  0  0  0  0  0  0  0  0  0
   -0.8964    3.0994    0.2834 C   0  0  0  0  0  0  0  0  0  0  0  0
   -2.2869    3.0682   -0.6488 S   0  0  0  0  0  0  0  0  0  0  0  0
    2.1478    1.7970    1.9140 C   0  0  0  0  0  0  0  0  0  0  0  0
    3.2961    1.5636    1.1605 C   0  0  0  0  0  0  0  0  0  0  0  0
    3.7849    2.2740    0.1318 N   0  0  0  0  0  0  0  0  0  0  0  0
    4.8018    1.5505   -0.3307 N   0  0  0  0  0  0  0  0  0  0  0  0
    5.6452    1.9687   -1.4402 C   0  0  0  0  0  0  0  0  0  0  0  0
    6.9630    2.5292   -0.9211 C   0  0  0  0  0  0  0  0  0  0  0  0
    4.9799    0.4154    0.3403 N   0  0  0  0  0  0  0  0  0  0  0  0
    4.0330    0.4257    1.2939 C   0  0  0  0  0  0  0  0  0  0  0  0
    3.6919   -0.5863    2.1952 C   0  0  0  0  0  0  0  0  0  0  0  0
    2.6306   -0.3003    3.0932 C   0  0  0  0  0  0  0  0  0  0  0  0
    1.8806    0.8917    2.9660 C   0  0  0  0  0  0  0  0  0  0  0  0
    0.7758    1.0543    3.7396 F   0  0  0  0  0  0  0  0  0  0  0  0
    2.1906   -1.2332    3.9697 F   0  0  0  0  0  0  0  0  0  0  0  0
    4.1558   -1.9711    1.9643 C   0  0  0  0  0  0  0  0  0  0  0  0
    4.3032   -3.0035    2.9206 C   0  0  0  0  0  0  0  0  0  0  0  0
    4.4012   -2.7950    4.3445 N   0  0  0  0  0  0  0  0  0  0  0  0
    3.8086   -3.7471    5.2487 C   0  0  0  0  0  0  0  0  0  0  0  0
    4.5874   -4.3485    6.2507 C   0  0  0  0  0  0  0  0  0  0  0  0
    4.0568   -5.3823    7.0295 C   0  0  0  0  0  0  0  0  0  0  0  0
    2.7395   -5.8107    6.8260 C   0  0  0  0  0  0  0  0  0  0  0  0
    2.0951   -7.2009    7.7559 S   0  0  0  0  0  0  0  0  0  0  0  0
    2.5023   -8.4053    6.4485 C   0  0  0  0  0  0  0  0  0  0  0  0
    1.9403   -5.1799    5.8666 C   0  0  0  0  0  0  0  0  0  0  0  0
    2.4745   -4.1626    5.0746 C   0  0  0  0  0  0  0  0  0  0  0  0
    5.2249   -1.7249    4.8560 C   0  0  0  0  0  0  0  0  0  0  0  0
    6.4374   -1.3903    4.2237 C   0  0  0  0  0  0  0  0  0  0  0  0
    7.2288   -0.3510    4.7151 C   0  0  0  0  0  0  0  0  0  0  0  0
    6.8197    0.3720    5.8419 C   0  0  0  0  0  0  0  0  0  0  0  0
    7.8460    1.7011    6.4760 S   0  0  0  0  0  0  0  0  0  0  0  0
    7.0935    2.9620    5.4015 C   0  0  0  0  0  0  0  0  0  0  0  0
    5.6149    0.0489    6.4755 C   0  0  0  0  0  0  0  0  0  0  0  0
    4.8233   -0.9983    5.9912 C   0  0  0  0  0  0  0  0  0  0  0  0
    4.3524   -4.2610    2.3020 C   0  0  0  0  0  0  0  0  0  0  0  0
    4.2387   -5.8528    2.8410 S   0  0  0  0  0  0  0  0  0  0  0  0
    4.0252   -6.5021    1.2794 C   0  0  0  0  0  0  0  0  0  0  0  0
    4.0856   -5.4704    0.3320 C   0  0  0  0  0  0  0  0  0  0  0  0
    3.9143   -5.6350   -1.0872 N   0  0  0  0  0  0  0  0  0  0  0  0
    2.7626   -6.3215   -1.6023 C   0  0  0  0  0  0  0  0  0  0  0  0
    1.4709   -5.9128   -1.2325 C   0  0  0  0  0  0  0  0  0  0  0  0
    0.3525   -6.5896   -1.7264 C   0  0  0  0  0  0  0  0  0  0  0  0
    0.5160   -7.6765   -2.5926 C   0  0  0  0  0  0  0  0  0  0  0  0
   -0.9232   -8.5354   -3.2278 S   0  0  0  0  0  0  0  0  0  0  0  0
   -0.9748   -7.5669   -4.7669 C   0  0  0  0  0  0  0  0  0  0  0  0
    1.8016   -8.0955   -2.9522 C   0  0  0  0  0  0  0  0  0  0  0  0
    2.9218   -7.4139   -2.4685 C   0  0  0  0  0  0  0  0  0  0  0  0
    4.8673   -5.0342   -1.9804 C   0  0  0  0  0  0  0  0  0  0  0  0
    4.4352   -4.3340   -3.1199 C   0  0  0  0  0  0  0  0  0  0  0  0
    5.3612   -3.6938   -3.9496 C   0  0  0  0  0  0  0  0  0  0  0  0
    6.7277   -3.7542   -3.6522 C   0  0  0  0  0  0  0  0  0  0  0  0
    7.9151   -2.9094   -4.6974 S   0  0  0  0  0  0  0  0  0  0  0  0
    7.8966   -1.3955   -3.6850 C   0  0  0  0  0  0  0  0  0  0  0  0
    7.1662   -4.4640   -2.5289 C   0  0  0  0  0  0  0  0  0  0  0  0
    6.2426   -5.0970   -1.6949 C   0  0  0  0  0  0  0  0  0  0  0  0
    4.2641   -4.2388    0.9474 C   0  0  0  0  0  0  0  0  0  0  0  0
    4.1005   -2.6716    0.4086 S   0  0  0  0  0  0  0  0  0  0  0  0
    3.5770   -7.8715    0.9999 C   0  0  0  0  0  0  0  0  0  0  0  0
    2.2936   -8.2542    1.1714 C   0  0  0  0  0  0  0  0  0  0  0  0
    1.1976   -7.3838    1.6669 C   0  0  0  0  0  0  0  0  0  0  0  0
    1.3088   -6.2445    2.1945 O   0  0  0  0  0  0  0  0  0  0  0  0
   -0.0535   -8.0364    1.3610 C   0  0  0  0  0  0  0  0  0  0  0  0
    0.1913   -9.2361    0.7724 C   0  0  0  0  0  0  0  0  0  0  0  0
   -1.2371   -9.8800    0.1326 S   0  0  0  0  0  0  0  0  0  0  0  0
   -2.1773   -8.5626    0.6502 C   0  0  0  0  0  0  0  0  0  0  0  0
   -3.5314   -8.3321    0.4172 C   0  0  0  0  0  0  0  0  0  0  0  0
   -4.0856   -7.1215    0.8611 C   0  0  0  0  0  0  0  0  0  0  0  0
   -3.2844   -6.1649    1.5181 C   0  0  0  0  0  0  0  0  0  0  0  0
   -1.9186   -6.4063    1.7359 C   0  0  0  0  0  0  0  0  0  0  0  0
   -1.3798   -7.6193    1.2993 C   0  0  0  0  0  0  0  0  0  0  0  0
    1.6349   -9.4933    0.6236 C   0  0  0  0  0  0  0  0  0  0  0  0
    2.1836  -10.6166    0.1108 C   0  0  0  0  0  0  0  0  0  0  0  0
    1.3616  -11.6839   -0.4008 C   0  0  0  0  0  0  0  0  0  0  0  0
    0.7073  -12.5430   -0.8160 N   0  0  0  0  0  0  0  0  0  0  0  0
    3.6002  -10.8527    0.0903 C   0  0  0  0  0  0  0  0  0  0  0  0
    4.7412  -11.0593    0.0668 N   0  0  0  0  0  0  0  0  0  0  0  0
   -4.9692    5.0241    1.0462 H   0  0  0  0  0  0  0  0  0  0  0  0
   -5.0197    4.3850   -5.2358 H   0  0  0  0  0  0  0  0  0  0  0  0
   -9.3068    5.1800   -2.5831 H   0  0  0  0  0  0  0  0  0  0  0  0
   -9.9297    4.2041   -5.8470 H   0  0  0  0  0  0  0  0  0  0  0  0
  -10.6836    6.6689   -6.0193 H   0  0  0  0  0  0  0  0  0  0  0  0
   -8.7785    8.2997   -5.1472 H   0  0  0  0  0  0  0  0  0  0  0  0
   -6.6197    7.8494   -6.5288 H   0  0  0  0  0  0  0  0  0  0  0  0
   -7.1436    5.9300   -8.2905 H   0  0  0  0  0  0  0  0  0  0  0  0
   -9.4362    7.2520   -8.2729 H   0  0  0  0  0  0  0  0  0  0  0  0
   -9.7749    5.4622   -8.2296 H   0  0  0  0  0  0  0  0  0  0  0  0
   -7.9607    3.7978   -7.0867 H   0  0  0  0  0  0  0  0  0  0  0  0
   -2.5770    7.1882    0.2622 H   0  0  0  0  0  0  0  0  0  0  0  0
   -1.6999    9.4919    0.2055 H   0  0  0  0  0  0  0  0  0  0  0  0
   -2.4791   11.4870    3.6627 H   0  0  0  0  0  0  0  0  0  0  0  0
   -2.8765   11.7101    1.9111 H   0  0  0  0  0  0  0  0  0  0  0  0
   -2.0154   13.0128    2.8260 H   0  0  0  0  0  0  0  0  0  0  0  0
   -0.6928    9.2219    4.3766 H   0  0  0  0  0  0  0  0  0  0  0  0
   -1.5524    6.9166    4.4465 H   0  0  0  0  0  0  0  0  0  0  0  0
   -2.8454    2.9803    3.3277 H   0  0  0  0  0  0  0  0  0  0  0  0
   -4.2593    2.1862    5.1591 H   0  0  0  0  0  0  0  0  0  0  0  0
   -8.3467    2.7513    6.4899 H   0  0  0  0  0  0  0  0  0  0  0  0
   -7.8945    4.1457    5.4256 H   0  0  0  0  0  0  0  0  0  0  0  0
   -7.2481    2.4833    5.0818 H   0  0  0  0  0  0  0  0  0  0  0  0
   -5.7465    6.1712    5.7749 H   0  0  0  0  0  0  0  0  0  0  0  0
   -4.3889    6.9820    3.8983 H   0  0  0  0  0  0  0  0  0  0  0  0
    0.4679   -0.4855    1.1491 H   0  0  0  0  0  0  0  0  0  0  0  0
   -0.7242   -2.6261    0.9818 H   0  0  0  0  0  0  0  0  0  0  0  0
   -4.2436   -2.3421   -1.2176 H   0  0  0  0  0  0  0  0  0  0  0  0
   -4.6394   -3.9521   -0.4960 H   0  0  0  0  0  0  0  0  0  0  0  0
   -3.7502   -2.7249    0.4877 H   0  0  0  0  0  0  0  0  0  0  0  0
   -2.0018   -1.6041   -2.9987 H   0  0  0  0  0  0  0  0  0  0  0  0
   -0.8077    0.5408   -2.8356 H   0  0  0  0  0  0  0  0  0  0  0  0
    1.1567    4.0005   -1.5292 H   0  0  0  0  0  0  0  0  0  0  0  0
    2.6002    4.7102   -3.3714 H   0  0  0  0  0  0  0  0  0  0  0  0
    2.0285    4.0525   -6.1744 H   0  0  0  0  0  0  0  0  0  0  0  0
    2.3095    2.3143   -6.6022 H   0  0  0  0  0  0  0  0  0  0  0  0
    3.1723    3.6207   -7.5026 H   0  0  0  0  0  0  0  0  0  0  0  0
    3.4963    0.6064   -4.2877 H   0  0  0  0  0  0  0  0  0  0  0  0
    2.0994   -0.1316   -2.4148 H   0  0  0  0  0  0  0  0  0  0  0  0
    5.1292    2.7574   -2.0260 H   0  0  0  0  0  0  0  0  0  0  0  0
    5.8403    1.1027   -2.1086 H   0  0  0  0  0  0  0  0  0  0  0  0
    7.4976    1.7582   -0.3294 H   0  0  0  0  0  0  0  0  0  0  0  0
    7.6025    2.8277   -1.7795 H   0  0  0  0  0  0  0  0  0  0  0  0
    6.7723    3.4183   -0.2838 H   0  0  0  0  0  0  0  0  0  0  0  0
    5.6192   -4.0582    6.3936 H   0  0  0  0  0  0  0  0  0  0  0  0
    4.6815   -5.8735    7.7640 H   0  0  0  0  0  0  0  0  0  0  0  0
    3.5765   -8.3324    6.1745 H   0  0  0  0  0  0  0  0  0  0  0  0
    1.8801   -8.2183    5.5491 H   0  0  0  0  0  0  0  0  0  0  0  0
    2.2974   -9.4283    6.8211 H   0  0  0  0  0  0  0  0  0  0  0  0
    0.9184   -5.5061    5.7041 H   0  0  0  0  0  0  0  0  0  0  0  0
    1.8656   -3.7304    4.2918 H   0  0  0  0  0  0  0  0  0  0  0  0
    6.7725   -1.9381    3.3527 H   0  0  0  0  0  0  0  0  0  0  0  0
    8.1624   -0.1085    4.2223 H   0  0  0  0  0  0  0  0  0  0  0  0
    7.2706    2.7112    4.3350 H   0  0  0  0  0  0  0  0  0  0  0  0
    7.5534    3.9473    5.6232 H   0  0  0  0  0  0  0  0  0  0  0  0
    6.0012    3.0244    5.5927 H   0  0  0  0  0  0  0  0  0  0  0  0
    5.2925    0.6116    7.3420 H   0  0  0  0  0  0  0  0  0  0  0  0
    3.8891   -1.2243    6.4830 H   0  0  0  0  0  0  0  0  0  0  0  0
    1.3338   -5.0745   -0.5607 H   0  0  0  0  0  0  0  0  0  0  0  0
   -0.6384   -6.2756   -1.4281 H   0  0  0  0  0  0  0  0  0  0  0  0
   -0.0828   -7.7979   -5.3848 H   0  0  0  0  0  0  0  0  0  0  0  0
   -1.8848   -7.8418   -5.3359 H   0  0  0  0  0  0  0  0  0  0  0  0
   -1.0043   -6.4802   -4.5435 H   0  0  0  0  0  0  0  0  0  0  0  0
    1.9333   -8.9395   -3.6144 H   0  0  0  0  0  0  0  0  0  0  0  0
    3.9121   -7.7415   -2.7584 H   0  0  0  0  0  0  0  0  0  0  0  0
    3.3811   -4.2585   -3.3487 H   0  0  0  0  0  0  0  0  0  0  0  0
    5.0209   -3.1375   -4.8158 H   0  0  0  0  0  0  0  0  0  0  0  0
    6.8660   -0.9849   -3.6199 H   0  0  0  0  0  0  0  0  0  0  0  0
    8.5571   -0.6394   -4.1577 H   0  0  0  0  0  0  0  0  0  0  0  0
    8.2732   -1.6179   -2.6652 H   0  0  0  0  0  0  0  0  0  0  0  0
    8.2227   -4.5128   -2.2939 H   0  0  0  0  0  0  0  0  0  0  0  0
    6.5978   -5.6380   -0.8267 H   0  0  0  0  0  0  0  0  0  0  0  0
    4.2671   -8.4856    0.4466 H   0  0  0  0  0  0  0  0  0  0  0  0
   -4.1387   -9.0602   -0.1057 H   0  0  0  0  0  0  0  0  0  0  0  0
   -5.1352   -6.9163    0.6886 H   0  0  0  0  0  0  0  0  0  0  0  0
   -3.7259   -5.2374    1.8531 H   0  0  0  0  0  0  0  0  0  0  0  0
   -1.3058   -5.6640    2.2328 H   0  0  0  0  0  0  0  0  0  0  0  0
  1  2  2  3
  2  3  1  0
  3  4  2  0
  3  5  1  0
  5  6  2  0
  6  7  1  0
  7  8  2  0
  8  9  1  0
  9 10  2  0
 10 11  1  0
 11 12  2  3
 12 13  1  0
 13 14  3  0
 12 15  1  0
 15 16  3  0
  8 17  1  0
 17 18  1  0
 18 19  1  0
 19 20  2  0
 20 21  1  0
 21 22  1  0
 21 23  1  0
  1 24  1  0
 24 25  2  0
 25 26  1  0
 26 27  1  0
 27 28  2  0
 28 29  1  0
 29 30  2  0
 30 31  1  0
 31 32  1  0
 30 33  1  0
 33 34  2  0
 26 35  1  0
 35 36  2  0
 36 37  1  0
 37 38  2  0
 38 39  1  0
 39 40  1  0
 38 41  1  0
 41 42  2  0
 25 43  1  0
 43 44  1  0
 44 45  1  0
 45 46  2  0
 46 47  1  0
 47 48  1  0
 48 49  2  0
 49 50  1  0
 50 51  2  0
 51 52  1  0
 52 53  1  0
 51 54  1  0
 54 55  2  0
 47 56  1  0
 56 57  2  0
 57 58  1  0
 58 59  2  0
 59 60  1  0
 60 61  1  0
 59 62  1  0
 62 63  2  0
 46 64  1  0
 64 65  1  0
 45 66  1  0
 66 67  1  0
 67 68  2  0
 68 69  1  0
 69 70  1  0
 70 71  1  0
 69 72  1  0
 72 73  2  0
 73 74  1  0
 74 75  2  0
 75 76  1  0
 76 77  1  0
 75 78  1  0
 74 79  1  0
 79 80  2  0
 80 81  1  0
 81 82  1  0
 82 83  2  0
 83 84  1  0
 84 85  2  0
 85 86  1  0
 86 87  1  0
 85 88  1  0
 88 89  2  0
 81 90  1  0
 90 91  2  0
 91 92  1  0
 92 93  2  0
 93 94  1  0
 94 95  1  0
 93 96  1  0
 96 97  2  0
 80 98  1  0
 98 99  1  0
 99100  1  0
100101  2  0
101102  1  0
102103  1  0
103104  2  0
104105  1  0
105106  2  0
106107  1  0
107108  1  0
106109  1  0
109110  2  0
102111  1  0
111112  2  0
112113  1  0
113114  2  0
114115  1  0
115116  1  0
114117  1  0
117118  2  0
101119  1  0
119120  1  0
100121  1  0
121122  2  3
122123  1  0
123124  2  0
123125  1  0
125126  2  0
126127  1  0
127128  1  0
128129  2  0
129130  1  0
130131  2  0
131132  1  0
132133  2  0
126134  1  0
134135  2  3
135136  1  0
136137  3  0
135138  1  0
138139  3  0
 11  2  1  0
 23 17  1  0
 65 24  1  0
 76 66  2  0
120 79  1  0
134122  1  0
 10  5  1  0
 22 18  1  0
 34 27  1  0
 42 35  1  0
 64 43  2  0
 73 67  1  0
 89 82  1  0
 97 90  1  0
119 98  2  0
133125  1  0
 23  7  1  0
 55 48  1  0
 63 56  1  0
110103  1  0
118111  1  0
133128  1  0
  1140  1  0
  6141  1  0
  9142  1  0
 17143  1  0
 18144  1  0
 19145  1  0
 20146  1  0
 21147  1  0
 22148  1  0
 22149  1  0
 23150  1  0
 28151  1  0
 29152  1  0
 32153  1  0
 32154  1  0
 32155  1  0
 33156  1  0
 34157  1  0
 36158  1  0
 37159  1  0
 40160  1  0
 40161  1  0
 40162  1  0
 41163  1  0
 42164  1  0
 49165  1  0
 50166  1  0
 53167  1  0
 53168  1  0
 53169  1  0
 54170  1  0
 55171  1  0
 57172  1  0
 58173  1  0
 61174  1  0
 61175  1  0
 61176  1  0
 62177  1  0
 63178  1  0
 70179  1  0
 70180  1  0
 71181  1  0
 71182  1  0
 71183  1  0
 83184  1  0
 84185  1  0
 87186  1  0
 87187  1  0
 87188  1  0
 88189  1  0
 89190  1  0
 91191  1  0
 92192  1  0
 95193  1  0
 95194  1  0
 95195  1  0
 96196  1  0
 97197  1  0
104198  1  0
105199  1  0
108200  1  0
108201  1  0
108202  1  0
109203  1  0
110204  1  0
112205  1  0
113206  1  0
116207  1  0
116208  1  0
116209  1  0
117210  1  0
118211  1  0
121212  1  0
129213  1  0
130214  1  0
131215  1  0
132216  1  0
M  END

