
     RDKit          3D

226249  0  0  0  0  0  0  0  0999 V2000
   -4.4213   -1.2290   -6.5206 C   0  0  0  0  0  0  0  0  0  0  0  0
   -4.8938   -2.2326   -7.2680 C   0  0  0  0  0  0  0  0  0  0  0  0
   -4.8039   -3.6612   -6.9515 C   0  0  0  0  0  0  0  0  0  0  0  0
   -3.9733   -4.2035   -6.1789 O   0  0  0  0  0  0  0  0  0  0  0  0
   -5.8951   -4.3426   -7.6247 C   0  0  0  0  0  0  0  0  0  0  0  0
   -6.2938   -5.6921   -7.4721 C   0  0  0  0  0  0  0  0  0  0  0  0
   -7.5008   -5.9917   -8.0789 C   0  0  0  0  0  0  0  0  0  0  0  0
   -8.2843   -5.0228   -8.7862 C   0  0  0  0  0  0  0  0  0  0  0  0
   -7.8906   -3.7102   -8.9586 C   0  0  0  0  0  0  0  0  0  0  0  0
   -6.6315   -3.3957   -8.3818 C   0  0  0  0  0  0  0  0  0  0  0  0
   -5.9375   -2.0885   -8.3215 C   0  0  0  0  0  0  0  0  0  0  0  0
   -6.0396   -1.0773   -9.2189 C   0  0  0  0  0  0  0  0  0  0  0  0
   -6.9435   -1.1331  -10.3362 C   0  0  0  0  0  0  0  0  0  0  0  0
   -7.6594   -1.1724  -11.2433 N   0  0  0  0  0  0  0  0  0  0  0  0
   -5.1412    0.0498   -9.2103 C   0  0  0  0  0  0  0  0  0  0  0  0
   -4.4231    0.9591   -9.2039 N   0  0  0  0  0  0  0  0  0  0  0  0
   -9.3531   -6.0440   -9.0410 C   0  0  0  0  0  0  0  0  0  0  0  0
   -9.4853   -6.6209  -10.4847 C   0  0  0  0  0  0  0  0  0  0  0  0
   -8.1356   -6.6029  -11.1675 C   0  0  0  0  0  0  0  0  0  0  0  0
   -7.3793   -7.5020  -10.5358 C   0  0  0  0  0  0  0  0  0  0  0  0
   -8.2395   -8.1038   -9.4472 C   0  0  0  0  0  0  0  0  0  0  0  0
   -9.5728   -8.1033  -10.1692 C   0  0  0  0  0  0  0  0  0  0  0  0
   -8.5355   -7.0418   -8.3436 C   0  0  0  0  0  0  0  0  0  0  0  0
   -3.5950   -1.3891   -5.3210 C   0  0  0  0  0  0  0  0  0  0  0  0
   -4.0521   -1.0081   -4.0514 C   0  0  0  0  0  0  0  0  0  0  0  0
   -5.3186   -1.4488   -3.5385 N   0  0  0  0  0  0  0  0  0  0  0  0
   -6.4741   -0.5737   -3.5189 C   0  0  0  0  0  0  0  0  0  0  0  0
   -6.4595    0.6627   -4.1956 C   0  0  0  0  0  0  0  0  0  0  0  0
   -7.6079    1.4565   -4.2515 C   0  0  0  0  0  0  0  0  0  0  0  0
   -8.7824    1.0448   -3.6117 C   0  0  0  0  0  0  0  0  0  0  0  0
  -10.2729    2.0354   -3.7416 S   0  0  0  0  0  0  0  0  0  0  0  0
   -9.9062    3.0206   -2.2564 C   0  0  0  0  0  0  0  0  0  0  0  0
   -8.7957   -0.1537   -2.8927 C   0  0  0  0  0  0  0  0  0  0  0  0
   -7.6468   -0.9499   -2.8346 C   0  0  0  0  0  0  0  0  0  0  0  0
   -5.4348   -2.8673   -3.2957 C   0  0  0  0  0  0  0  0  0  0  0  0
   -4.5154   -3.5147   -2.4497 C   0  0  0  0  0  0  0  0  0  0  0  0
   -4.4966   -4.9097   -2.3631 C   0  0  0  0  0  0  0  0  0  0  0  0
   -5.3941   -5.6716   -3.1176 C   0  0  0  0  0  0  0  0  0  0  0  0
   -5.3173   -7.4633   -3.0518 S   0  0  0  0  0  0  0  0  0  0  0  0
   -4.0205   -7.5870   -4.3262 C   0  0  0  0  0  0  0  0  0  0  0  0
   -6.3443   -5.0338   -3.9228 C   0  0  0  0  0  0  0  0  0  0  0  0
   -6.3618   -3.6390   -4.0151 C   0  0  0  0  0  0  0  0  0  0  0  0
   -2.9915   -0.6632   -3.2256 C   0  0  0  0  0  0  0  0  0  0  0  0
   -2.8625   -0.0964   -1.6540 S   0  0  0  0  0  0  0  0  0  0  0  0
   -1.1561   -0.0777   -1.6472 C   0  0  0  0  0  0  0  0  0  0  0  0
   -0.7010   -0.5571   -2.8995 C   0  0  0  0  0  0  0  0  0  0  0  0
    0.6400   -0.9907   -3.1730 N   0  0  0  0  0  0  0  0  0  0  0  0
    1.6315   -0.0736   -3.6879 C   0  0  0  0  0  0  0  0  0  0  0  0
    1.2563    1.0332   -4.4715 C   0  0  0  0  0  0  0  0  0  0  0  0
    2.2248    1.9152   -4.9619 C   0  0  0  0  0  0  0  0  0  0  0  0
    3.5778    1.7098   -4.6700 C   0  0  0  0  0  0  0  0  0  0  0  0
    4.8235    2.8202   -5.3239 S   0  0  0  0  0  0  0  0  0  0  0  0
    5.0893    1.8277   -6.8280 C   0  0  0  0  0  0  0  0  0  0  0  0
    3.9587    0.6332   -3.8665 C   0  0  0  0  0  0  0  0  0  0  0  0
    2.9963   -0.2569   -3.3829 C   0  0  0  0  0  0  0  0  0  0  0  0
    0.9492   -2.3864   -2.9705 C   0  0  0  0  0  0  0  0  0  0  0  0
    0.5189   -3.0513   -1.8067 C   0  0  0  0  0  0  0  0  0  0  0  0
    0.7782   -4.4122   -1.6310 C   0  0  0  0  0  0  0  0  0  0  0  0
    1.4542   -5.1314   -2.6191 C   0  0  0  0  0  0  0  0  0  0  0  0
    1.7285   -6.8882   -2.4143 S   0  0  0  0  0  0  0  0  0  0  0  0
    0.1645   -7.3389   -3.2320 C   0  0  0  0  0  0  0  0  0  0  0  0
    1.8924   -4.4795   -3.7785 C   0  0  0  0  0  0  0  0  0  0  0  0
    1.6403   -3.1168   -3.9549 C   0  0  0  0  0  0  0  0  0  0  0  0
   -1.7603   -0.8358   -3.7557 C   0  0  0  0  0  0  0  0  0  0  0  0
   -1.8873   -1.3348   -5.3552 S   0  0  0  0  0  0  0  0  0  0  0  0
   -0.3014    0.4467   -0.5579 C   0  0  0  0  0  0  0  0  0  0  0  0
   -0.6389    1.4366    0.4007 C   0  0  0  0  0  0  0  0  0  0  0  0
   -1.9792    1.8141    0.7695 N   0  0  0  0  0  0  0  0  0  0  0  0
   -2.8796    0.8645    1.4001 C   0  0  0  0  0  0  0  0  0  0  0  0
   -2.4017   -0.3500    1.9306 C   0  0  0  0  0  0  0  0  0  0  0  0
   -3.2804   -1.2614    2.5290 C   0  0  0  0  0  0  0  0  0  0  0  0
   -4.6462   -0.9740    2.5990 C   0  0  0  0  0  0  0  0  0  0  0  0
   -5.7767   -2.1445    3.3528 S   0  0  0  0  0  0  0  0  0  0  0  0
   -5.6138   -1.4095    5.0104 C   0  0  0  0  0  0  0  0  0  0  0  0
   -5.1357    0.2184    2.0642 C   0  0  0  0  0  0  0  0  0  0  0  0
   -4.2634    1.1318    1.4657 C   0  0  0  0  0  0  0  0  0  0  0  0
   -2.3395    3.2003    0.6906 C   0  0  0  0  0  0  0  0  0  0  0  0
   -2.6370    3.9131    1.8612 C   0  0  0  0  0  0  0  0  0  0  0  0
   -3.1194    5.2206    1.7837 C   0  0  0  0  0  0  0  0  0  0  0  0
   -3.3194    5.8196    0.5336 C   0  0  0  0  0  0  0  0  0  0  0  0
   -4.0634    7.4526    0.4342 S   0  0  0  0  0  0  0  0  0  0  0  0
   -5.7669    6.8026    0.5196 C   0  0  0  0  0  0  0  0  0  0  0  0
   -2.9782    5.1274   -0.6356 C   0  0  0  0  0  0  0  0  0  0  0  0
   -2.4855    3.8204   -0.5577 C   0  0  0  0  0  0  0  0  0  0  0  0
    0.4964    1.8870    1.0812 C   0  0  0  0  0  0  0  0  0  0  0  0
    0.8149    3.0566    2.2521 S   0  0  0  0  0  0  0  0  0  0  0  0
    2.4864    2.7116    2.3256 C   0  0  0  0  0  0  0  0  0  0  0  0
    2.7790    1.6541    1.4497 C   0  0  0  0  0  0  0  0  0  0  0  0
    4.0635    1.0256    1.3022 N   0  0  0  0  0  0  0  0  0  0  0  0
    5.1351    1.7998    0.7431 C   0  0  0  0  0  0  0  0  0  0  0  0
    6.3607    1.9068    1.4158 C   0  0  0  0  0  0  0  0  0  0  0  0
    7.4364    2.5720    0.8168 C   0  0  0  0  0  0  0  0  0  0  0  0
    7.2916    3.1396   -0.4545 C   0  0  0  0  0  0  0  0  0  0  0  0
    8.6867    3.9516   -1.2419 S   0  0  0  0  0  0  0  0  0  0  0  0
    9.2277    2.4376   -2.1021 C   0  0  0  0  0  0  0  0  0  0  0  0
    6.0613    3.0593   -1.1166 C   0  0  0  0  0  0  0  0  0  0  0  0
    4.9866    2.3932   -0.5213 C   0  0  0  0  0  0  0  0  0  0  0  0
    4.2011   -0.4104    1.4862 C   0  0  0  0  0  0  0  0  0  0  0  0
    5.2545   -1.1311    0.8843 C   0  0  0  0  0  0  0  0  0  0  0  0
    5.3704   -2.5150    1.0683 C   0  0  0  0  0  0  0  0  0  0  0  0
    4.4343   -3.1985    1.8466 C   0  0  0  0  0  0  0  0  0  0  0  0
    4.5857   -4.9689    2.0993 S   0  0  0  0  0  0  0  0  0  0  0  0
    3.4108   -5.3820    0.7705 C   0  0  0  0  0  0  0  0  0  0  0  0
    3.3848   -2.5010    2.4441 C   0  0  0  0  0  0  0  0  0  0  0  0
    3.2604   -1.1254    2.2580 C   0  0  0  0  0  0  0  0  0  0  0  0
    1.6480    1.2530    0.7608 C   0  0  0  0  0  0  0  0  0  0  0  0
    1.3682    0.1294   -0.4350 S   0  0  0  0  0  0  0  0  0  0  0  0
    3.4504    3.3730    3.2147 C   0  0  0  0  0  0  0  0  0  0  0  0
    4.1278    2.7631    4.1844 C   0  0  0  0  0  0  0  0  0  0  0  0
    4.7661    3.7155    5.0304 C   0  0  0  0  0  0  0  0  0  0  0  0
    4.4560    5.0070    4.4642 C   0  0  0  0  0  0  0  0  0  0  0  0
    4.7805    6.1351    4.9200 O   0  0  0  0  0  0  0  0  0  0  0  0
    3.6330    4.7994    3.3116 N   0  0  0  0  0  0  0  0  0  0  0  0
    3.4126    5.7569    2.2379 C   0  0  0  0  0  0  0  0  0  0  0  0
    4.8793    3.2485    6.2701 C   0  0  0  0  0  0  0  0  0  0  0  0
    4.3485    1.9094    6.3413 N   0  0  0  0  0  0  0  0  0  0  0  0
    4.0270    1.1593    7.5531 C   0  0  0  0  0  0  0  0  0  0  0  0
    3.8318    1.6341    5.0362 C   0  0  0  0  0  0  0  0  0  0  0  0
    3.1048    0.6513    4.7505 O   0  0  0  0  0  0  0  0  0  0  0  0
    5.1878    4.0597    7.4586 C   0  0  0  0  0  0  0  0  0  0  0  0
    6.1335    3.6851    8.3448 C   0  0  0  0  0  0  0  0  0  0  0  0
    7.0091    2.5169    8.1864 C   0  0  0  0  0  0  0  0  0  0  0  0
    7.2998    1.9392    7.1052 O   0  0  0  0  0  0  0  0  0  0  0  0
    7.5004    2.1253    9.4847 C   0  0  0  0  0  0  0  0  0  0  0  0
    8.2392    0.9592    9.7949 C   0  0  0  0  0  0  0  0  0  0  0  0
    8.4450    0.7737   11.1482 C   0  0  0  0  0  0  0  0  0  0  0  0
    7.9538    1.6790   12.1449 C   0  0  0  0  0  0  0  0  0  0  0  0
    7.2325    2.8232   11.8471 C   0  0  0  0  0  0  0  0  0  0  0  0
    7.0204    3.0432   10.4562 C   0  0  0  0  0  0  0  0  0  0  0  0
    6.2574    4.1259    9.7642 C   0  0  0  0  0  0  0  0  0  0  0  0
    5.9061    5.3366   10.2716 C   0  0  0  0  0  0  0  0  0  0  0  0
    6.0465    5.6652   11.6659 C   0  0  0  0  0  0  0  0  0  0  0  0
    6.1294    5.9409   12.7901 N   0  0  0  0  0  0  0  0  0  0  0  0
    5.4762    6.4277    9.4351 C   0  0  0  0  0  0  0  0  0  0  0  0
    5.1565    7.3337    8.7850 N   0  0  0  0  0  0  0  0  0  0  0  0
    8.4700    0.7907   13.2338 C   0  0  0  0  0  0  0  0  0  0  0  0
    7.4062   -0.0556   13.9955 C   0  0  0  0  0  0  0  0  0  0  0  0
    8.1802   -1.1272   14.7317 C   0  0  0  0  0  0  0  0  0  0  0  0
    8.6419   -1.9682   13.8010 C   0  0  0  0  0  0  0  0  0  0  0  0
    8.1649   -1.4430   12.4714 C   0  0  0  0  0  0  0  0  0  0  0  0
    6.8014   -0.9159   12.8996 C   0  0  0  0  0  0  0  0  0  0  0  0
    8.9792   -0.1358   12.2144 C   0  0  0  0  0  0  0  0  0  0  0  0
   -4.7533   -0.2228   -6.7178 H   0  0  0  0  0  0  0  0  0  0  0  0
   -5.7358   -6.4154   -6.9063 H   0  0  0  0  0  0  0  0  0  0  0  0
   -8.5247   -2.9928   -9.4541 H   0  0  0  0  0  0  0  0  0  0  0  0
  -10.3190   -5.8237   -8.5352 H   0  0  0  0  0  0  0  0  0  0  0  0
  -10.3246   -6.2081  -11.0843 H   0  0  0  0  0  0  0  0  0  0  0  0
   -7.8428   -6.0169  -12.0314 H   0  0  0  0  0  0  0  0  0  0  0  0
   -6.3667   -7.7839  -10.8042 H   0  0  0  0  0  0  0  0  0  0  0  0
   -7.8999   -9.0927   -9.0745 H   0  0  0  0  0  0  0  0  0  0  0  0
  -10.4367   -8.3702   -9.5141 H   0  0  0  0  0  0  0  0  0  0  0  0
   -9.5781   -8.7480  -11.0794 H   0  0  0  0  0  0  0  0  0  0  0  0
   -9.0133   -7.4432   -7.4256 H   0  0  0  0  0  0  0  0  0  0  0  0
   -5.5739    1.0070   -4.7110 H   0  0  0  0  0  0  0  0  0  0  0  0
   -7.5923    2.3867   -4.8031 H   0  0  0  0  0  0  0  0  0  0  0  0
   -8.9325    3.5397   -2.3730 H   0  0  0  0  0  0  0  0  0  0  0  0
   -9.8793    2.3603   -1.3651 H   0  0  0  0  0  0  0  0  0  0  0  0
  -10.7028    3.7797   -2.1193 H   0  0  0  0  0  0  0  0  0  0  0  0
   -9.6993   -0.4821   -2.3892 H   0  0  0  0  0  0  0  0  0  0  0  0
   -7.6881   -1.8684   -2.2646 H   0  0  0  0  0  0  0  0  0  0  0  0
   -3.7914   -2.9472   -1.8793 H   0  0  0  0  0  0  0  0  0  0  0  0
   -3.7625   -5.3964   -1.7328 H   0  0  0  0  0  0  0  0  0  0  0  0
   -3.8229   -8.6573   -4.5437 H   0  0  0  0  0  0  0  0  0  0  0  0
   -3.0854   -7.1134   -3.9660 H   0  0  0  0  0  0  0  0  0  0  0  0
   -4.3462   -7.0871   -5.2564 H   0  0  0  0  0  0  0  0  0  0  0  0
   -7.0431   -5.6196   -4.5034 H   0  0  0  0  0  0  0  0  0  0  0  0
   -7.0583   -3.1634   -4.6895 H   0  0  0  0  0  0  0  0  0  0  0  0
    0.2161    1.2088   -4.7201 H   0  0  0  0  0  0  0  0  0  0  0  0
    1.9236    2.7532   -5.5754 H   0  0  0  0  0  0  0  0  0  0  0  0
    5.4038    0.8002   -6.5531 H   0  0  0  0  0  0  0  0  0  0  0  0
    5.8873    2.2957   -7.4390 H   0  0  0  0  0  0  0  0  0  0  0  0
    4.1541    1.7870   -7.4239 H   0  0  0  0  0  0  0  0  0  0  0  0
    5.0003    0.4734   -3.6193 H   0  0  0  0  0  0  0  0  0  0  0  0
    3.3159   -1.0770   -2.7517 H   0  0  0  0  0  0  0  0  0  0  0  0
   -0.0068   -2.5173   -1.0267 H   0  0  0  0  0  0  0  0  0  0  0  0
    0.4383   -4.9070   -0.7270 H   0  0  0  0  0  0  0  0  0  0  0  0
    0.1992   -7.0418   -4.3011 H   0  0  0  0  0  0  0  0  0  0  0  0
    0.0193   -8.4365   -3.1664 H   0  0  0  0  0  0  0  0  0  0  0  0
   -0.6893   -6.8348   -2.7331 H   0  0  0  0  0  0  0  0  0  0  0  0
    2.4106   -5.0320   -4.5481 H   0  0  0  0  0  0  0  0  0  0  0  0
    1.9672   -2.6312   -4.8653 H   0  0  0  0  0  0  0  0  0  0  0  0
   -1.3474   -0.5971    1.9021 H   0  0  0  0  0  0  0  0  0  0  0  0
   -2.8968   -2.1858    2.9375 H   0  0  0  0  0  0  0  0  0  0  0  0
   -4.5700   -1.5189    5.3743 H   0  0  0  0  0  0  0  0  0  0  0  0
   -5.8937   -0.3342    4.9924 H   0  0  0  0  0  0  0  0  0  0  0  0
   -6.2918   -1.9436    5.7070 H   0  0  0  0  0  0  0  0  0  0  0  0
   -6.1948    0.4381    2.1043 H   0  0  0  0  0  0  0  0  0  0  0  0
   -4.6769    2.0384    1.0491 H   0  0  0  0  0  0  0  0  0  0  0  0
   -2.5244    3.4431    2.8298 H   0  0  0  0  0  0  0  0  0  0  0  0
   -3.3795    5.7530    2.6907 H   0  0  0  0  0  0  0  0  0  0  0  0
   -5.9226    6.2442    1.4672 H   0  0  0  0  0  0  0  0  0  0  0  0
   -6.4858    7.6485    0.4846 H   0  0  0  0  0  0  0  0  0  0  0  0
   -5.9611    6.1345   -0.3457 H   0  0  0  0  0  0  0  0  0  0  0  0
   -3.1324    5.5835   -1.6058 H   0  0  0  0  0  0  0  0  0  0  0  0
   -2.2660    3.2763   -1.4663 H   0  0  0  0  0  0  0  0  0  0  0  0
    6.4848    1.4546    2.3948 H   0  0  0  0  0  0  0  0  0  0  0  0
    8.3843    2.6315    1.3387 H   0  0  0  0  0  0  0  0  0  0  0  0
    9.4571    1.6384   -1.3674 H   0  0  0  0  0  0  0  0  0  0  0  0
    8.4323    2.0880   -2.7939 H   0  0  0  0  0  0  0  0  0  0  0  0
   10.1407    2.6587   -2.6925 H   0  0  0  0  0  0  0  0  0  0  0  0
    5.9428    3.4961   -2.0996 H   0  0  0  0  0  0  0  0  0  0  0  0
    4.0530    2.3036   -1.0633 H   0  0  0  0  0  0  0  0  0  0  0  0
    5.9904   -0.6343    0.2650 H   0  0  0  0  0  0  0  0  0  0  0  0
    6.1940   -3.0523    0.6093 H   0  0  0  0  0  0  0  0  0  0  0  0
    3.3298   -6.4845    0.6815 H   0  0  0  0  0  0  0  0  0  0  0  0
    3.7619   -4.9689   -0.1966 H   0  0  0  0  0  0  0  0  0  0  0  0
    2.4078   -4.9709    1.0094 H   0  0  0  0  0  0  0  0  0  0  0  0
    2.6531   -3.0285    3.0452 H   0  0  0  0  0  0  0  0  0  0  0  0
    2.4192   -0.6269    2.7186 H   0  0  0  0  0  0  0  0  0  0  0  0
    4.0492    5.4927    1.3704 H   0  0  0  0  0  0  0  0  0  0  0  0
    3.6667    6.7818    2.5711 H   0  0  0  0  0  0  0  0  0  0  0  0
    2.3496    5.7459    1.9303 H   0  0  0  0  0  0  0  0  0  0  0  0
    3.7871    1.8528    8.3845 H   0  0  0  0  0  0  0  0  0  0  0  0
    3.1446    0.5051    7.3891 H   0  0  0  0  0  0  0  0  0  0  0  0
    4.8923    0.5263    7.8472 H   0  0  0  0  0  0  0  0  0  0  0  0
    4.5144    4.8740    7.6698 H   0  0  0  0  0  0  0  0  0  0  0  0
    8.5614    0.2441    9.0481 H   0  0  0  0  0  0  0  0  0  0  0  0
    6.8299    3.4334   12.6373 H   0  0  0  0  0  0  0  0  0  0  0  0
    9.2552    1.2651   13.8681 H   0  0  0  0  0  0  0  0  0  0  0  0
    6.6893    0.5193   14.6154 H   0  0  0  0  0  0  0  0  0  0  0  0
    8.2884   -1.2519   15.8049 H   0  0  0  0  0  0  0  0  0  0  0  0
    9.1925   -2.8860   13.9911 H   0  0  0  0  0  0  0  0  0  0  0  0
    8.1657   -2.1849   11.6431 H   0  0  0  0  0  0  0  0  0  0  0  0
    6.1248   -1.7153   13.2881 H   0  0  0  0  0  0  0  0  0  0  0  0
    6.2652   -0.3393   12.1126 H   0  0  0  0  0  0  0  0  0  0  0  0
   10.0874   -0.2460   12.2045 H   0  0  0  0  0  0  0  0  0  0  0  0
  1  2  2  3
  2  3  1  0
  3  4  2  0
  3  5  1  0
  5  6  2  0
  6  7  1  0
  7  8  2  0
  8  9  1  0
  9 10  2  0
 10 11  1  0
 11 12  2  3
 12 13  1  0
 13 14  3  0
 12 15  1  0
 15 16  3  0
  8 17  1  0
 17 18  1  0
 18 19  1  0
 19 20  2  0
 20 21  1  0
 21 22  1  0
 21 23  1  0
  1 24  1  0
 24 25  2  0
 25 26  1  0
 26 27  1  0
 27 28  2  0
 28 29  1  0
 29 30  2  0
 30 31  1  0
 31 32  1  0
 30 33  1  0
 33 34  2  0
 26 35  1  0
 35 36  2  0
 36 37  1  0
 37 38  2  0
 38 39  1  0
 39 40  1  0
 38 41  1  0
 41 42  2  0
 25 43  1  0
 43 44  1  0
 44 45  1  0
 45 46  2  0
 46 47  1  0
 47 48  1  0
 48 49  2  0
 49 50  1  0
 50 51  2  0
 51 52  1  0
 52 53  1  0
 51 54  1  0
 54 55  2  0
 47 56  1  0
 56 57  2  0
 57 58  1  0
 58 59  2  0
 59 60  1  0
 60 61  1  0
 59 62  1  0
 62 63  2  0
 46 64  1  0
 64 65  1  0
 45 66  1  0
 66 67  2  0
 67 68  1  0
 68 69  1  0
 69 70  2  0
 70 71  1  0
 71 72  2  0
 72 73  1  0
 73 74  1  0
 72 75  1  0
 75 76  2  0
 68 77  1  0
 77 78  2  0
 78 79  1  0
 79 80  2  0
 80 81  1  0
 81 82  1  0
 80 83  1  0
 83 84  2  0
 67 85  1  0
 85 86  1  0
 86 87  1  0
 87 88  2  0
 88 89  1  0
 89 90  1  0
 90 91  2  0
 91 92  1  0
 92 93  2  0
 93 94  1  0
 94 95  1  0
 93 96  1  0
 96 97  2  0
 89 98  1  0
 98 99  2  0
 99100  1  0
100101  2  0
101102  1  0
102103  1  0
101104  1  0
104105  2  0
 88106  1  0
106107  1  0
 87108  1  0
108109  2  0
109110  1  0
110111  1  0
111112  2  0
111113  1  0
113114  1  0
110115  2  0
115116  1  0
116117  1  0
116118  1  0
118119  2  0
115120  1  0
120121  2  3
121122  1  0
122123  2  0
122124  1  0
124125  2  0
125126  1  0
126127  2  0
127128  1  0
128129  2  0
129130  1  0
130131  2  3
131132  1  0
132133  3  0
131134  1  0
134135  3  0
127136  1  0
136137  1  0
137138  1  0
138139  2  0
139140  1  0
140141  1  0
140142  1  0
 11  2  1  0
 23 17  1  0
 65 24  1  0
107 66  1  0
113108  1  0
130121  1  0
142136  1  0
 10  5  1  0
 22 18  1  0
 34 27  1  0
 42 35  1  0
 64 43  2  0
 76 69  1  0
 84 77  1  0
106 85  2  0
118109  1  0
129124  1  0
141137  1  0
 23  7  1  0
 55 48  1  0
 63 56  1  0
 97 90  1  0
105 98  1  0
142126  1  0
  1143  1  0
  6144  1  0
  9145  1  0
 17146  1  0
 18147  1  0
 19148  1  0
 20149  1  0
 21150  1  0
 22151  1  0
 22152  1  0
 23153  1  0
 28154  1  0
 29155  1  0
 32156  1  0
 32157  1  0
 32158  1  0
 33159  1  0
 34160  1  0
 36161  1  0
 37162  1  0
 40163  1  0
 40164  1  0
 40165  1  0
 41166  1  0
 42167  1  0
 49168  1  0
 50169  1  0
 53170  1  0
 53171  1  0
 53172  1  0
 54173  1  0
 55174  1  0
 57175  1  0
 58176  1  0
 61177  1  0
 61178  1  0
 61179  1  0
 62180  1  0
 63181  1  0
 70182  1  0
 71183  1  0
 74184  1  0
 74185  1  0
 74186  1  0
 75187  1  0
 76188  1  0
 78189  1  0
 79190  1  0
 82191  1  0
 82192  1  0
 82193  1  0
 83194  1  0
 84195  1  0
 91196  1  0
 92197  1  0
 95198  1  0
 95199  1  0
 95200  1  0
 96201  1  0
 97202  1  0
 99203  1  0
100204  1  0
103205  1  0
103206  1  0
103207  1  0
104208  1  0
105209  1  0
114210  1  0
114211  1  0
114212  1  0
117213  1  0
117214  1  0
117215  1  0
120216  1  0
125217  1  0
128218  1  0
136219  1  0
137220  1  0
138221  1  0
139222  1  0
140223  1  0
141224  1  0
141225  1  0
142226  1  0
M  END

