
     RDKit          3D

194212  0  0  0  0  0  0  0  0999 V2000
   -1.2094   -6.8602   -0.6439 C   0  0  0  0  0  0  0  0  0  0  0  0
   -0.8230   -7.4063    0.5187 C   0  0  0  0  0  0  0  0  0  0  0  0
   -1.1111   -6.8448    1.8430 C   0  0  0  0  0  0  0  0  0  0  0  0
   -2.1584   -6.2338    2.1775 O   0  0  0  0  0  0  0  0  0  0  0  0
    0.0220   -7.1101    2.7066 C   0  0  0  0  0  0  0  0  0  0  0  0
    0.2984   -6.4979    3.9505 C   0  0  0  0  0  0  0  0  0  0  0  0
    1.5851   -6.7069    4.3928 C   0  0  0  0  0  0  0  0  0  0  0  0
    2.5471   -7.4983    3.6755 C   0  0  0  0  0  0  0  0  0  0  0  0
    2.2705   -8.1334    2.4765 C   0  0  0  0  0  0  0  0  0  0  0  0
    0.9457   -7.9315    2.0023 C   0  0  0  0  0  0  0  0  0  0  0  0
    0.3577   -8.2909    0.6827 C   0  0  0  0  0  0  0  0  0  0  0  0
    0.7182   -9.3249   -0.1125 C   0  0  0  0  0  0  0  0  0  0  0  0
    1.8071  -10.2010    0.2219 C   0  0  0  0  0  0  0  0  0  0  0  0
    2.6775  -10.9177    0.4939 N   0  0  0  0  0  0  0  0  0  0  0  0
   -0.0550   -9.6948   -1.2666 C   0  0  0  0  0  0  0  0  0  0  0  0
   -0.6791  -10.0015   -2.1959 N   0  0  0  0  0  0  0  0  0  0  0  0
    3.5957   -7.1803    4.6960 C   0  0  0  0  0  0  0  0  0  0  0  0
    3.9714   -8.2883    5.7234 C   0  0  0  0  0  0  0  0  0  0  0  0
    2.7729   -9.1625    6.0151 C   0  0  0  0  0  0  0  0  0  0  0  0
    1.9067   -8.4065    6.6864 C   0  0  0  0  0  0  0  0  0  0  0  0
    2.5332   -7.0443    6.8161 C   0  0  0  0  0  0  0  0  0  0  0  0
    3.9802   -7.4577    6.9919 C   0  0  0  0  0  0  0  0  0  0  0  0
    2.6169   -6.3565    5.4237 C   0  0  0  0  0  0  0  0  0  0  0  0
   -1.8480   -5.5389   -0.7373 C   0  0  0  0  0  0  0  0  0  0  0  0
   -1.2991   -4.3221   -0.2882 C   0  0  0  0  0  0  0  0  0  0  0  0
   -0.0631   -4.1574    0.4375 N   0  0  0  0  0  0  0  0  0  0  0  0
   -0.0862   -3.6879    1.8115 C   0  0  0  0  0  0  0  0  0  0  0  0
   -1.3002   -3.3545    2.4561 C   0  0  0  0  0  0  0  0  0  0  0  0
   -1.3083   -2.8986    3.7759 C   0  0  0  0  0  0  0  0  0  0  0  0
   -0.1086   -2.7438    4.4736 C   0  0  0  0  0  0  0  0  0  0  0  0
   -0.1245   -2.1644    6.1725 S   0  0  0  0  0  0  0  0  0  0  0  0
   -0.1689   -0.4073    5.7025 C   0  0  0  0  0  0  0  0  0  0  0  0
    1.1025   -3.0722    3.8546 C   0  0  0  0  0  0  0  0  0  0  0  0
    1.1146   -3.5526    2.5409 C   0  0  0  0  0  0  0  0  0  0  0  0
    1.1271   -3.9781   -0.3580 C   0  0  0  0  0  0  0  0  0  0  0  0
    1.6462   -2.6933   -0.5714 C   0  0  0  0  0  0  0  0  0  0  0  0
    2.7936   -2.5103   -1.3504 C   0  0  0  0  0  0  0  0  0  0  0  0
    3.4287   -3.6123   -1.9289 C   0  0  0  0  0  0  0  0  0  0  0  0
    4.8923   -3.3820   -2.9447 S   0  0  0  0  0  0  0  0  0  0  0  0
    6.0395   -3.6545   -1.5563 C   0  0  0  0  0  0  0  0  0  0  0  0
    2.9197   -4.9021   -1.7118 C   0  0  0  0  0  0  0  0  0  0  0  0
    1.7773   -5.0851   -0.9277 C   0  0  0  0  0  0  0  0  0  0  0  0
   -2.0052   -3.2406   -0.7967 C   0  0  0  0  0  0  0  0  0  0  0  0
   -1.7657   -1.5957   -0.6997 S   0  0  0  0  0  0  0  0  0  0  0  0
   -3.0423   -1.2180   -1.7519 C   0  0  0  0  0  0  0  0  0  0  0  0
   -3.6583   -2.4084   -2.2064 C   0  0  0  0  0  0  0  0  0  0  0  0
   -4.7870   -2.4720   -3.0998 N   0  0  0  0  0  0  0  0  0  0  0  0
   -6.1355   -2.2719   -2.6095 C   0  0  0  0  0  0  0  0  0  0  0  0
   -6.3759   -1.5591   -1.4125 C   0  0  0  0  0  0  0  0  0  0  0  0
   -7.6821   -1.3466   -0.9651 C   0  0  0  0  0  0  0  0  0  0  0  0
   -8.7677   -1.8547   -1.6869 C   0  0  0  0  0  0  0  0  0  0  0  0
  -10.4425   -1.5459   -1.1288 S   0  0  0  0  0  0  0  0  0  0  0  0
  -10.4585   -2.9882   -0.0196 C   0  0  0  0  0  0  0  0  0  0  0  0
   -8.5421   -2.5767   -2.8612 C   0  0  0  0  0  0  0  0  0  0  0  0
   -7.2416   -2.7849   -3.3222 C   0  0  0  0  0  0  0  0  0  0  0  0
   -4.5743   -2.7775   -4.4925 C   0  0  0  0  0  0  0  0  0  0  0  0
   -4.7824   -1.7834   -5.4666 C   0  0  0  0  0  0  0  0  0  0  0  0
   -4.6553   -2.0901   -6.8238 C   0  0  0  0  0  0  0  0  0  0  0  0
   -4.3406   -3.3906   -7.2260 C   0  0  0  0  0  0  0  0  0  0  0  0
   -4.2319   -3.7999   -8.9675 S   0  0  0  0  0  0  0  0  0  0  0  0
   -2.4677   -3.3704   -9.0882 C   0  0  0  0  0  0  0  0  0  0  0  0
   -4.1660   -4.3910   -6.2618 C   0  0  0  0  0  0  0  0  0  0  0  0
   -4.2981   -4.0899   -4.9041 C   0  0  0  0  0  0  0  0  0  0  0  0
   -3.0446   -3.5253   -1.6196 C   0  0  0  0  0  0  0  0  0  0  0  0
   -3.1724   -5.2026   -1.7594 S   0  0  0  0  0  0  0  0  0  0  0  0
   -3.2079    0.1738   -2.2099 C   0  0  0  0  0  0  0  0  0  0  0  0
   -2.7481    0.5099   -3.4888 C   0  0  0  0  0  0  0  0  0  0  0  0
   -2.5422   -0.4590   -4.4135 F   0  0  0  0  0  0  0  0  0  0  0  0
   -2.2301    1.7808   -3.7436 C   0  0  0  0  0  0  0  0  0  0  0  0
   -1.6958    2.0319   -4.9698 F   0  0  0  0  0  0  0  0  0  0  0  0
   -2.0398    2.6915   -2.6855 C   0  0  0  0  0  0  0  0  0  0  0  0
   -2.6703    2.4357   -1.4527 C   0  0  0  0  0  0  0  0  0  0  0  0
   -2.5798    3.3098   -0.4126 N   0  0  0  0  0  0  0  0  0  0  0  0
   -3.0744    3.0321    0.8233 C   0  0  0  0  0  0  0  0  0  0  0  0
   -2.9509    4.0978    1.8880 C   0  0  0  0  0  0  0  0  0  0  0  0
   -4.1690    5.0146    1.8815 C   0  0  0  0  0  0  0  0  0  0  0  0
   -3.6925    1.7836    1.0450 C   0  0  0  0  0  0  0  0  0  0  0  0
   -3.7673    0.8999    0.0114 N   0  0  0  0  0  0  0  0  0  0  0  0
   -3.2812    1.1844   -1.2277 C   0  0  0  0  0  0  0  0  0  0  0  0
   -4.2578    1.3892    2.3943 C   0  0  0  0  0  0  0  0  0  0  0  0
   -4.7167   -0.0675    2.4514 C   0  0  0  0  0  0  0  0  0  0  0  0
   -0.8653    3.5928   -2.7695 C   0  0  0  0  0  0  0  0  0  0  0  0
   -0.6407    4.8097   -2.1063 C   0  0  0  0  0  0  0  0  0  0  0  0
    0.7163    5.1977   -2.1094 C   0  0  0  0  0  0  0  0  0  0  0  0
    1.2831    6.3227   -1.4639 C   0  0  0  0  0  0  0  0  0  0  0  0
    0.4564    7.4381   -0.9607 C   0  0  0  0  0  0  0  0  0  0  0  0
   -0.3520    8.1504   -1.8583 C   0  0  0  0  0  0  0  0  0  0  0  0
   -1.0408    9.2977   -1.4359 C   0  0  0  0  0  0  0  0  0  0  0  0
   -1.7752    9.9940   -2.3357 F   0  0  0  0  0  0  0  0  0  0  0  0
   -0.9438    9.7322   -0.1006 C   0  0  0  0  0  0  0  0  0  0  0  0
   -1.6487   10.9837    0.3509 C   0  0  0  0  0  0  0  0  0  0  0  0
   -0.7360   12.1996    0.2066 C   0  0  0  0  0  0  0  0  0  0  0  0
   -0.1457    9.0002    0.8047 C   0  0  0  0  0  0  0  0  0  0  0  0
   -0.0254    9.4038    2.0974 F   0  0  0  0  0  0  0  0  0  0  0  0
    0.5424    7.8630    0.3736 C   0  0  0  0  0  0  0  0  0  0  0  0
    2.6950    6.3872   -1.4224 C   0  0  0  0  0  0  0  0  0  0  0  0
    3.5088    5.4464   -2.0643 C   0  0  0  0  0  0  0  0  0  0  0  0
    2.9404    4.3696   -2.7679 C   0  0  0  0  0  0  0  0  0  0  0  0
    3.7575    3.3192   -3.3904 C   0  0  0  0  0  0  0  0  0  0  0  0
    4.2433    2.2545   -2.6141 C   0  0  0  0  0  0  0  0  0  0  0  0
    4.9662    1.2202   -3.2178 C   0  0  0  0  0  0  0  0  0  0  0  0
    5.2070    1.2383   -4.6039 C   0  0  0  0  0  0  0  0  0  0  0  0
    6.0251    0.1477   -5.2438 C   0  0  0  0  0  0  0  0  0  0  0  0
    7.5138    0.4681   -5.1472 C   0  0  0  0  0  0  0  0  0  0  0  0
    4.7332    2.3168   -5.3694 C   0  0  0  0  0  0  0  0  0  0  0  0
    4.0036    3.3453   -4.7678 C   0  0  0  0  0  0  0  0  0  0  0  0
    4.9814    2.3800   -6.7030 F   0  0  0  0  0  0  0  0  0  0  0  0
    5.4388    0.2082   -2.4424 F   0  0  0  0  0  0  0  0  0  0  0  0
    1.5447    4.2779   -2.7581 C   0  0  0  0  0  0  0  0  0  0  0  0
    0.6177    3.0202   -3.3367 S   0  0  0  0  0  0  0  0  0  0  0  0
    4.8795    5.6896   -1.9031 C   0  0  0  0  0  0  0  0  0  0  0  0
    5.1557    6.7859   -1.0851 C   0  0  0  0  0  0  0  0  0  0  0  0
    3.6889    7.5052   -0.6509 S   0  0  0  0  0  0  0  0  0  0  0  0
    6.4690    7.3035   -0.6508 C   0  0  0  0  0  0  0  0  0  0  0  0
    7.6126    6.5963   -0.5762 C   0  0  0  0  0  0  0  0  0  0  0  0
    7.7950    4.8280   -0.9009 S   0  0  0  0  0  0  0  0  0  0  0  0
    9.4070    4.8837   -0.1220 C   0  0  0  0  0  0  0  0  0  0  0  0
   10.1125    3.5095    0.4312 S   0  0  0  0  0  0  0  0  0  0  0  0
    9.8623    6.1911    0.2406 N   0  0  0  0  0  0  0  0  0  0  0  0
   11.0515    6.4770    1.0485 C   0  0  0  0  0  0  0  0  0  0  0  0
   10.6942    6.5459    2.5267 C   0  0  0  0  0  0  0  0  0  0  0  0
    8.8454    7.1562   -0.0206 C   0  0  0  0  0  0  0  0  0  0  0  0
    8.9968    8.3819    0.2337 O   0  0  0  0  0  0  0  0  0  0  0  0
   -0.8524   -7.2651   -1.5776 H   0  0  0  0  0  0  0  0  0  0  0  0
   -0.3948   -5.8367    4.4530 H   0  0  0  0  0  0  0  0  0  0  0  0
    3.0376   -8.6671    1.9288 H   0  0  0  0  0  0  0  0  0  0  0  0
    4.4549   -6.5947    4.2867 H   0  0  0  0  0  0  0  0  0  0  0  0
    4.9174   -8.8306    5.5007 H   0  0  0  0  0  0  0  0  0  0  0  0
    2.6590  -10.2177    5.7892 H   0  0  0  0  0  0  0  0  0  0  0  0
    0.9561   -8.7359    7.0954 H   0  0  0  0  0  0  0  0  0  0  0  0
    2.1204   -6.4073    7.6271 H   0  0  0  0  0  0  0  0  0  0  0  0
    4.6976   -6.6033    6.9666 H   0  0  0  0  0  0  0  0  0  0  0  0
    4.1648   -8.0631    7.9134 H   0  0  0  0  0  0  0  0  0  0  0  0
    2.8834   -5.2746    5.4447 H   0  0  0  0  0  0  0  0  0  0  0  0
   -2.2505   -3.4548    1.9505 H   0  0  0  0  0  0  0  0  0  0  0  0
   -2.2468   -2.6595    4.2549 H   0  0  0  0  0  0  0  0  0  0  0  0
    0.6938   -0.1593    5.0511 H   0  0  0  0  0  0  0  0  0  0  0  0
   -1.1154   -0.1783    5.1704 H   0  0  0  0  0  0  0  0  0  0  0  0
   -0.1158    0.2136    6.6170 H   0  0  0  0  0  0  0  0  0  0  0  0
    2.0364   -2.9671    4.3956 H   0  0  0  0  0  0  0  0  0  0  0  0
    2.0659   -3.8233    2.1014 H   0  0  0  0  0  0  0  0  0  0  0  0
    1.1648   -1.8260   -0.1306 H   0  0  0  0  0  0  0  0  0  0  0  0
    3.1854   -1.5096   -1.5066 H   0  0  0  0  0  0  0  0  0  0  0  0
    5.8317   -2.9306   -0.7394 H   0  0  0  0  0  0  0  0  0  0  0  0
    7.0805   -3.5095   -1.9125 H   0  0  0  0  0  0  0  0  0  0  0  0
    5.9311   -4.6921   -1.1739 H   0  0  0  0  0  0  0  0  0  0  0  0
    3.4135   -5.7602   -2.1490 H   0  0  0  0  0  0  0  0  0  0  0  0
    1.4109   -6.0849   -0.7565 H   0  0  0  0  0  0  0  0  0  0  0  0
   -5.5639   -1.1613   -0.8248 H   0  0  0  0  0  0  0  0  0  0  0  0
   -7.8483   -0.7817   -0.0513 H   0  0  0  0  0  0  0  0  0  0  0  0
  -11.4433   -3.0432    0.4885 H   0  0  0  0  0  0  0  0  0  0  0  0
   -9.6640   -2.8830    0.7493 H   0  0  0  0  0  0  0  0  0  0  0  0
  -10.2998   -3.9209   -0.6002 H   0  0  0  0  0  0  0  0  0  0  0  0
   -9.3786   -2.9713   -3.4217 H   0  0  0  0  0  0  0  0  0  0  0  0
   -7.1047   -3.3493   -4.2333 H   0  0  0  0  0  0  0  0  0  0  0  0
   -5.0609   -0.7817   -5.1664 H   0  0  0  0  0  0  0  0  0  0  0  0
   -4.8215   -1.3144   -7.5621 H   0  0  0  0  0  0  0  0  0  0  0  0
   -2.0834   -3.7120  -10.0698 H   0  0  0  0  0  0  0  0  0  0  0  0
   -2.3412   -2.2698   -9.0143 H   0  0  0  0  0  0  0  0  0  0  0  0
   -1.8904   -3.8645   -8.2809 H   0  0  0  0  0  0  0  0  0  0  0  0
   -3.9387   -5.4041   -6.5655 H   0  0  0  0  0  0  0  0  0  0  0  0
   -4.2341   -4.8894   -4.1924 H   0  0  0  0  0  0  0  0  0  0  0  0
   -2.0439    4.7056    1.6847 H   0  0  0  0  0  0  0  0  0  0  0  0
   -2.8158    3.6557    2.8954 H   0  0  0  0  0  0  0  0  0  0  0  0
   -4.2962    5.4713    0.8776 H   0  0  0  0  0  0  0  0  0  0  0  0
   -5.0854    4.4500    2.1543 H   0  0  0  0  0  0  0  0  0  0  0  0
   -4.0166    5.8259    2.6222 H   0  0  0  0  0  0  0  0  0  0  0  0
   -5.1274    2.0429    2.6345 H   0  0  0  0  0  0  0  0  0  0  0  0
   -3.4809    1.5253    3.1773 H   0  0  0  0  0  0  0  0  0  0  0  0
   -5.0145   -0.3286    3.4921 H   0  0  0  0  0  0  0  0  0  0  0  0
   -3.8887   -0.7468    2.1424 H   0  0  0  0  0  0  0  0  0  0  0  0
   -5.5912   -0.2298    1.7777 H   0  0  0  0  0  0  0  0  0  0  0  0
   -1.4169    5.3539   -1.5787 H   0  0  0  0  0  0  0  0  0  0  0  0
   -0.4131    7.8572   -2.8952 H   0  0  0  0  0  0  0  0  0  0  0  0
   -2.5707   11.1549   -0.2481 H   0  0  0  0  0  0  0  0  0  0  0  0
   -1.9657   10.8948    1.4155 H   0  0  0  0  0  0  0  0  0  0  0  0
   -0.4599   12.3605   -0.8558 H   0  0  0  0  0  0  0  0  0  0  0  0
   -1.2612   13.1107    0.5740 H   0  0  0  0  0  0  0  0  0  0  0  0
    0.1835   12.0633    0.8128 H   0  0  0  0  0  0  0  0  0  0  0  0
    1.1736    7.3262    1.0732 H   0  0  0  0  0  0  0  0  0  0  0  0
    4.0437    2.2173   -1.5488 H   0  0  0  0  0  0  0  0  0  0  0  0
    5.8218   -0.8256   -4.7467 H   0  0  0  0  0  0  0  0  0  0  0  0
    5.7408    0.0282   -6.3128 H   0  0  0  0  0  0  0  0  0  0  0  0
    7.7429    1.3896   -5.7268 H   0  0  0  0  0  0  0  0  0  0  0  0
    7.8080    0.6229   -4.0857 H   0  0  0  0  0  0  0  0  0  0  0  0
    8.1055   -0.3753   -5.5589 H   0  0  0  0  0  0  0  0  0  0  0  0
    3.6266    4.1643   -5.3693 H   0  0  0  0  0  0  0  0  0  0  0  0
    5.6276    5.0885   -2.3981 H   0  0  0  0  0  0  0  0  0  0  0  0
    6.4676    8.3243   -0.2722 H   0  0  0  0  0  0  0  0  0  0  0  0
   11.8267    5.6991    0.8891 H   0  0  0  0  0  0  0  0  0  0  0  0
   11.4938    7.4497    0.7399 H   0  0  0  0  0  0  0  0  0  0  0  0
   10.1908    5.6089    2.8459 H   0  0  0  0  0  0  0  0  0  0  0  0
   10.0187    7.4048    2.7083 H   0  0  0  0  0  0  0  0  0  0  0  0
   11.6168    6.6844    3.1289 H   0  0  0  0  0  0  0  0  0  0  0  0
  1  2  2  3
  2  3  1  0
  3  4  2  0
  3  5  1  0
  5  6  2  0
  6  7  1  0
  7  8  2  0
  8  9  1  0
  9 10  2  0
 10 11  1  0
 11 12  2  3
 12 13  1  0
 13 14  3  0
 12 15  1  0
 15 16  3  0
  8 17  1  0
 17 18  1  0
 18 19  1  0
 19 20  2  0
 20 21  1  0
 21 22  1  0
 21 23  1  0
  1 24  1  0
 24 25  2  0
 25 26  1  0
 26 27  1  0
 27 28  2  0
 28 29  1  0
 29 30  2  0
 30 31  1  0
 31 32  1  0
 30 33  1  0
 33 34  2  0
 26 35  1  0
 35 36  2  0
 36 37  1  0
 37 38  2  0
 38 39  1  0
 39 40  1  0
 38 41  1  0
 41 42  2  0
 25 43  1  0
 43 44  1  0
 44 45  1  0
 45 46  2  0
 46 47  1  0
 47 48  1  0
 48 49  2  0
 49 50  1  0
 50 51  2  0
 51 52  1  0
 52 53  1  0
 51 54  1  0
 54 55  2  0
 47 56  1  0
 56 57  2  0
 57 58  1  0
 58 59  2  0
 59 60  1  0
 60 61  1  0
 59 62  1  0
 62 63  2  0
 46 64  1  0
 64 65  1  0
 45 66  1  0
 66 67  2  0
 67 68  1  0
 67 69  1  0
 69 70  1  0
 69 71  2  0
 71 72  1  0
 72 73  2  0
 73 74  1  0
 74 75  1  0
 75 76  1  0
 74 77  2  0
 77 78  1  0
 78 79  2  0
 77 80  1  0
 80 81  1  0
 71 82  1  0
 82 83  2  0
 83 84  1  0
 84 85  2  0
 85 86  1  0
 86 87  2  0
 87 88  1  0
 88 89  1  0
 88 90  2  0
 90 91  1  0
 91 92  1  0
 90 93  1  0
 93 94  1  0
 93 95  2  0
 85 96  1  0
 96 97  2  0
 97 98  1  0
 98 99  1  0
 99100  2  0
100101  1  0
101102  2  0
102103  1  0
103104  1  0
102105  1  0
105106  2  0
105107  1  0
101108  1  0
 98109  2  0
109110  1  0
 97111  1  0
111112  2  0
112113  1  0
112114  1  0
114115  2  3
115116  1  0
116117  1  0
117118  2  0
117119  1  0
119120  1  0
120121  1  0
119122  1  0
122123  2  0
 11  2  1  0
 23 17  1  0
 65 24  1  0
 79 66  1  0
110 82  1  0
122115  1  0
 10  5  1  0
 22 18  1  0
 34 27  1  0
 42 35  1  0
 64 43  2  0
 79 72  1  0
109 84  1  0
 23  7  1  0
 55 48  1  0
 63 56  1  0
 95 86  1  0
113 96  1  0
106 99  1  0
  1124  1  0
  6125  1  0
  9126  1  0
 17127  1  0
 18128  1  0
 19129  1  0
 20130  1  0
 21131  1  0
 22132  1  0
 22133  1  0
 23134  1  0
 28135  1  0
 29136  1  0
 32137  1  0
 32138  1  0
 32139  1  0
 33140  1  0
 34141  1  0
 36142  1  0
 37143  1  0
 40144  1  0
 40145  1  0
 40146  1  0
 41147  1  0
 42148  1  0
 49149  1  0
 50150  1  0
 53151  1  0
 53152  1  0
 53153  1  0
 54154  1  0
 55155  1  0
 57156  1  0
 58157  1  0
 61158  1  0
 61159  1  0
 61160  1  0
 62161  1  0
 63162  1  0
 75163  1  0
 75164  1  0
 76165  1  0
 76166  1  0
 76167  1  0
 80168  1  0
 80169  1  0
 81170  1  0
 81171  1  0
 81172  1  0
 83173  1  0
 87174  1  0
 91175  1  0
 91176  1  0
 92177  1  0
 92178  1  0
 92179  1  0
 95180  1  0
100181  1  0
103182  1  0
103183  1  0
104184  1  0
104185  1  0
104186  1  0
106187  1  0
111188  1  0
114189  1  0
120190  1  0
120191  1  0
121192  1  0
121193  1  0
121194  1  0
M  END

