
     RDKit          3D

190211  0  0  0  0  0  0  0  0999 V2000
    5.4513    2.9081   -4.1292 C   0  0  0  0  0  0  0  0  0  0  0  0
    6.3141    2.5132   -5.0895 C   0  0  0  0  0  0  0  0  0  0  0  0
    6.8863    1.1685   -5.2645 C   0  0  0  0  0  0  0  0  0  0  0  0
    7.1745    0.3532   -4.3456 O   0  0  0  0  0  0  0  0  0  0  0  0
    7.1700    0.9708   -6.6694 C   0  0  0  0  0  0  0  0  0  0  0  0
    7.4918   -0.2458   -7.3165 C   0  0  0  0  0  0  0  0  0  0  0  0
    7.4643   -0.1641   -8.6981 C   0  0  0  0  0  0  0  0  0  0  0  0
    7.1361    1.0363   -9.4033 C   0  0  0  0  0  0  0  0  0  0  0  0
    6.8555    2.2383   -8.7766 C   0  0  0  0  0  0  0  0  0  0  0  0
    6.9016    2.1801   -7.3580 C   0  0  0  0  0  0  0  0  0  0  0  0
    6.5575    3.2321   -6.3702 C   0  0  0  0  0  0  0  0  0  0  0  0
    6.7073    4.5678   -6.5329 C   0  0  0  0  0  0  0  0  0  0  0  0
    6.5845    5.4886   -5.4344 C   0  0  0  0  0  0  0  0  0  0  0  0
    6.4877    6.2262   -4.5485 N   0  0  0  0  0  0  0  0  0  0  0  0
    7.1730    5.1367   -7.7703 C   0  0  0  0  0  0  0  0  0  0  0  0
    7.5533    5.6056   -8.7587 N   0  0  0  0  0  0  0  0  0  0  0  0
    7.2276    0.3108  -10.7144 C   0  0  0  0  0  0  0  0  0  0  0  0
    8.4688    0.5830  -11.6143 C   0  0  0  0  0  0  0  0  0  0  0  0
    9.6623    0.9270  -10.7559 C   0  0  0  0  0  0  0  0  0  0  0  0
    9.9886   -0.1838  -10.0942 C   0  0  0  0  0  0  0  0  0  0  0  0
    9.0078   -1.2486  -10.5286 C   0  0  0  0  0  0  0  0  0  0  0  0
    8.8370   -0.8416  -11.9806 C   0  0  0  0  0  0  0  0  0  0  0  0
    7.5839   -0.9141   -9.9957 C   0  0  0  0  0  0  0  0  0  0  0  0
    4.8446    2.0161   -3.1150 C   0  0  0  0  0  0  0  0  0  0  0  0
    4.2675    2.4268   -1.8891 C   0  0  0  0  0  0  0  0  0  0  0  0
    3.9070    3.7866   -1.5573 N   0  0  0  0  0  0  0  0  0  0  0  0
    3.1731    4.5699   -2.5307 C   0  0  0  0  0  0  0  0  0  0  0  0
    3.4118    5.9493   -2.6643 C   0  0  0  0  0  0  0  0  0  0  0  0
    2.7274    6.6930   -3.6380 C   0  0  0  0  0  0  0  0  0  0  0  0
    1.8250    6.0633   -4.5043 C   0  0  0  0  0  0  0  0  0  0  0  0
    0.9761    6.9939   -5.7807 S   0  0  0  0  0  0  0  0  0  0  0  0
   -0.5839    7.0801   -4.8480 C   0  0  0  0  0  0  0  0  0  0  0  0
    1.5910    4.6892   -4.3802 C   0  0  0  0  0  0  0  0  0  0  0  0
    2.2328    3.9552   -3.3823 C   0  0  0  0  0  0  0  0  0  0  0  0
    3.9938    4.2248   -0.1790 C   0  0  0  0  0  0  0  0  0  0  0  0
    5.0339    3.7623    0.6477 C   0  0  0  0  0  0  0  0  0  0  0  0
    5.0563    4.0853    2.0083 C   0  0  0  0  0  0  0  0  0  0  0  0
    4.0513    4.8900    2.5553 C   0  0  0  0  0  0  0  0  0  0  0  0
    4.0669    5.2865    4.3051 S   0  0  0  0  0  0  0  0  0  0  0  0
    3.0286    3.8648    4.7682 C   0  0  0  0  0  0  0  0  0  0  0  0
    3.0312    5.3804    1.7376 C   0  0  0  0  0  0  0  0  0  0  0  0
    2.9953    5.0447    0.3830 C   0  0  0  0  0  0  0  0  0  0  0  0
    3.6989    1.3294   -1.2249 C   0  0  0  0  0  0  0  0  0  0  0  0
    2.7362    1.1594    0.1403 S   0  0  0  0  0  0  0  0  0  0  0  0
    2.2735   -0.4425   -0.2112 C   0  0  0  0  0  0  0  0  0  0  0  0
    2.8365   -0.8228   -1.4395 C   0  0  0  0  0  0  0  0  0  0  0  0
    2.3752   -1.9017   -2.2760 N   0  0  0  0  0  0  0  0  0  0  0  0
    3.3722   -2.8407   -2.7510 C   0  0  0  0  0  0  0  0  0  0  0  0
    4.4551   -3.1913   -1.9228 C   0  0  0  0  0  0  0  0  0  0  0  0
    5.5277   -3.9277   -2.4293 C   0  0  0  0  0  0  0  0  0  0  0  0
    5.5053   -4.3818   -3.7511 C   0  0  0  0  0  0  0  0  0  0  0  0
    6.9042   -5.2809   -4.4231 S   0  0  0  0  0  0  0  0  0  0  0  0
    6.5100   -6.8335   -3.5367 C   0  0  0  0  0  0  0  0  0  0  0  0
    4.4087   -4.0846   -4.5703 C   0  0  0  0  0  0  0  0  0  0  0  0
    3.3587   -3.3049   -4.0806 C   0  0  0  0  0  0  0  0  0  0  0  0
    1.1204   -1.7213   -2.9748 C   0  0  0  0  0  0  0  0  0  0  0  0
    0.7628   -0.4555   -3.4935 C   0  0  0  0  0  0  0  0  0  0  0  0
   -0.4432   -0.2758   -4.1677 C   0  0  0  0  0  0  0  0  0  0  0  0
   -1.3333   -1.3435   -4.3098 C   0  0  0  0  0  0  0  0  0  0  0  0
   -2.9003   -1.1005   -5.1613 S   0  0  0  0  0  0  0  0  0  0  0  0
   -3.6907   -0.2466   -3.7570 C   0  0  0  0  0  0  0  0  0  0  0  0
   -0.9853   -2.6075   -3.8225 C   0  0  0  0  0  0  0  0  0  0  0  0
    0.2452   -2.8023   -3.1792 C   0  0  0  0  0  0  0  0  0  0  0  0
    3.6777    0.1701   -1.9273 C   0  0  0  0  0  0  0  0  0  0  0  0
    4.4473    0.3780   -3.3875 S   0  0  0  0  0  0  0  0  0  0  0  0
    1.5089   -1.2836    0.7234 C   0  0  0  0  0  0  0  0  0  0  0  0
    0.6005   -2.2811    0.3991 C   0  0  0  0  0  0  0  0  0  0  0  0
    0.0661   -2.6857    1.6055 C   0  0  0  0  0  0  0  0  0  0  0  0
   -1.0055   -3.5482    1.9069 C   0  0  0  0  0  0  0  0  0  0  0  0
   -1.7809   -4.2869    0.8871 C   0  0  0  0  0  0  0  0  0  0  0  0
   -2.3249   -5.5610    1.0541 C   0  0  0  0  0  0  0  0  0  0  0  0
   -3.0243   -6.0191   -0.0700 C   0  0  0  0  0  0  0  0  0  0  0  0
   -3.7577   -7.6154   -0.1327 Cl  0  0  0  0  0  0  0  0  0  0  0  0
   -3.0622   -5.0998   -1.1171 C   0  0  0  0  0  0  0  0  0  0  0  0
   -3.6612   -5.3059   -2.4740 C   0  0  0  0  0  0  0  0  0  0  0  0
   -2.7176   -6.1112   -3.3645 C   0  0  0  0  0  0  0  0  0  0  0  0
   -2.1993   -3.7336   -0.6492 S   0  0  0  0  0  0  0  0  0  0  0  0
   -1.3996   -3.5483    3.2546 C   0  0  0  0  0  0  0  0  0  0  0  0
   -0.6985   -2.8751    4.2487 C   0  0  0  0  0  0  0  0  0  0  0  0
    0.4490   -2.1011    3.9556 C   0  0  0  0  0  0  0  0  0  0  0  0
    1.3477   -1.5016    4.9772 C   0  0  0  0  0  0  0  0  0  0  0  0
    0.9708   -1.1097    6.5763 S   0  0  0  0  0  0  0  0  0  0  0  0
    2.5169   -0.6291    7.0306 C   0  0  0  0  0  0  0  0  0  0  0  0
    2.8988   -0.1317    8.3915 C   0  0  0  0  0  0  0  0  0  0  0  0
    2.9397    1.3901    8.4166 C   0  0  0  0  0  0  0  0  0  0  0  0
    3.3566   -0.7582    5.9303 C   0  0  0  0  0  0  0  0  0  0  0  0
    2.7100   -1.2516    4.7925 C   0  0  0  0  0  0  0  0  0  0  0  0
    5.0692   -0.3752    5.9482 Cl  0  0  0  0  0  0  0  0  0  0  0  0
    0.7339   -1.9676    2.5817 C   0  0  0  0  0  0  0  0  0  0  0  0
    1.5812   -1.1329    2.0299 O   0  0  0  0  0  0  0  0  0  0  0  0
   -1.4826   -2.9584    5.3871 C   0  0  0  0  0  0  0  0  0  0  0  0
   -2.6437   -3.6179    4.9784 C   0  0  0  0  0  0  0  0  0  0  0  0
   -2.5302   -4.0115    3.7263 O   0  0  0  0  0  0  0  0  0  0  0  0
   -3.9421   -3.6264    5.6777 C   0  0  0  0  0  0  0  0  0  0  0  0
   -4.9153   -4.5740    5.3222 C   0  0  0  0  0  0  0  0  0  0  0  0
   -4.5676   -5.7042    4.6513 F   0  0  0  0  0  0  0  0  0  0  0  0
   -6.2720   -4.3003    5.5263 C   0  0  0  0  0  0  0  0  0  0  0  0
   -6.6753   -3.0756    6.0807 C   0  0  0  0  0  0  0  0  0  0  0  0
   -5.6920   -2.1860    6.5499 C   0  0  0  0  0  0  0  0  0  0  0  0
   -4.3369   -2.4738    6.3756 C   0  0  0  0  0  0  0  0  0  0  0  0
   -8.0605   -2.6229    5.8359 C   0  0  0  0  0  0  0  0  0  0  0  0
   -8.6919   -1.6470    6.5124 C   0  0  0  0  0  0  0  0  0  0  0  0
   -8.5318   -1.3571    7.9463 C   0  0  0  0  0  0  0  0  0  0  0  0
   -7.6720   -1.8617    8.7181 O   0  0  0  0  0  0  0  0  0  0  0  0
   -9.6376   -0.5210    8.3663 C   0  0  0  0  0  0  0  0  0  0  0  0
   -9.9302   -0.0896    9.6817 C   0  0  0  0  0  0  0  0  0  0  0  0
  -11.1127    0.6217    9.7897 C   0  0  0  0  0  0  0  0  0  0  0  0
  -11.9686    0.8869    8.6745 C   0  0  0  0  0  0  0  0  0  0  0  0
  -11.7077    0.4481    7.3898 C   0  0  0  0  0  0  0  0  0  0  0  0
  -10.4805   -0.2658    7.2516 C   0  0  0  0  0  0  0  0  0  0  0  0
   -9.8819   -0.8833    6.0355 C   0  0  0  0  0  0  0  0  0  0  0  0
  -10.1693   -0.5753    4.7389 C   0  0  0  0  0  0  0  0  0  0  0  0
   -9.3279   -0.9958    3.6505 C   0  0  0  0  0  0  0  0  0  0  0  0
   -8.6526   -1.3268    2.7689 N   0  0  0  0  0  0  0  0  0  0  0  0
  -11.2407    0.3115    4.3658 C   0  0  0  0  0  0  0  0  0  0  0  0
  -12.0945    1.0232    4.0487 N   0  0  0  0  0  0  0  0  0  0  0  0
  -12.9439    1.5967    9.5663 C   0  0  0  0  0  0  0  0  0  0  0  0
  -14.2684    0.8557    9.9241 C   0  0  0  0  0  0  0  0  0  0  0  0
  -14.0359   -0.6389    9.9345 C   0  0  0  0  0  0  0  0  0  0  0  0
  -13.2420   -0.8953   10.9747 C   0  0  0  0  0  0  0  0  0  0  0  0
  -12.9580    0.4334   11.6383 C   0  0  0  0  0  0  0  0  0  0  0  0
  -14.3059    1.0981   11.4229 C   0  0  0  0  0  0  0  0  0  0  0  0
  -12.0685    1.3176   10.7114 C   0  0  0  0  0  0  0  0  0  0  0  0
    5.0660    3.9089   -4.1684 H   0  0  0  0  0  0  0  0  0  0  0  0
    7.6620   -1.1746   -6.7904 H   0  0  0  0  0  0  0  0  0  0  0  0
    6.5585    3.1092   -9.3403 H   0  0  0  0  0  0  0  0  0  0  0  0
    6.2578    0.2461  -11.2594 H   0  0  0  0  0  0  0  0  0  0  0  0
    8.2912    1.2653  -12.4718 H   0  0  0  0  0  0  0  0  0  0  0  0
   10.2102    1.8618  -10.7334 H   0  0  0  0  0  0  0  0  0  0  0  0
   10.8482   -0.3031   -9.4396 H   0  0  0  0  0  0  0  0  0  0  0  0
    9.3425   -2.2958  -10.3591 H   0  0  0  0  0  0  0  0  0  0  0  0
    9.7788   -0.9185  -12.5770 H   0  0  0  0  0  0  0  0  0  0  0  0
    8.0157   -1.3880  -12.5084 H   0  0  0  0  0  0  0  0  0  0  0  0
    6.8394   -1.7310  -10.1155 H   0  0  0  0  0  0  0  0  0  0  0  0
    4.1297    6.4438   -2.0233 H   0  0  0  0  0  0  0  0  0  0  0  0
    2.9125    7.7548   -3.7265 H   0  0  0  0  0  0  0  0  0  0  0  0
   -1.3620    7.5493   -5.4846 H   0  0  0  0  0  0  0  0  0  0  0  0
   -0.4479    7.6843   -3.9291 H   0  0  0  0  0  0  0  0  0  0  0  0
   -0.9257    6.0605   -4.5700 H   0  0  0  0  0  0  0  0  0  0  0  0
    0.8872    4.2016   -5.0388 H   0  0  0  0  0  0  0  0  0  0  0  0
    2.0013    2.9070   -3.2875 H   0  0  0  0  0  0  0  0  0  0  0  0
    5.8116    3.1286    0.2464 H   0  0  0  0  0  0  0  0  0  0  0  0
    5.8524    3.7071    2.6378 H   0  0  0  0  0  0  0  0  0  0  0  0
    2.8219    3.9107    5.8601 H   0  0  0  0  0  0  0  0  0  0  0  0
    2.0598    3.9021    4.2252 H   0  0  0  0  0  0  0  0  0  0  0  0
    3.5518    2.9099    4.5421 H   0  0  0  0  0  0  0  0  0  0  0  0
    2.2486    6.0109    2.1502 H   0  0  0  0  0  0  0  0  0  0  0  0
    2.1673    5.4095   -0.2110 H   0  0  0  0  0  0  0  0  0  0  0  0
    4.4942   -2.8606   -0.8932 H   0  0  0  0  0  0  0  0  0  0  0  0
    6.3650   -4.1509   -1.7804 H   0  0  0  0  0  0  0  0  0  0  0  0
    6.5684   -6.6641   -2.4411 H   0  0  0  0  0  0  0  0  0  0  0  0
    5.4901   -7.1856   -3.8039 H   0  0  0  0  0  0  0  0  0  0  0  0
    7.2545   -7.6004   -3.8170 H   0  0  0  0  0  0  0  0  0  0  0  0
    4.3841   -4.4277   -5.5984 H   0  0  0  0  0  0  0  0  0  0  0  0
    2.5616   -3.0319   -4.7578 H   0  0  0  0  0  0  0  0  0  0  0  0
    1.4210    0.3964   -3.3920 H   0  0  0  0  0  0  0  0  0  0  0  0
   -0.6965    0.7014   -4.5587 H   0  0  0  0  0  0  0  0  0  0  0  0
   -3.1877    0.7263   -3.5775 H   0  0  0  0  0  0  0  0  0  0  0  0
   -3.6428   -0.8703   -2.8376 H   0  0  0  0  0  0  0  0  0  0  0  0
   -4.7566   -0.0441   -3.9985 H   0  0  0  0  0  0  0  0  0  0  0  0
   -1.6704   -3.4354   -3.9478 H   0  0  0  0  0  0  0  0  0  0  0  0
    0.4970   -3.7868   -2.8030 H   0  0  0  0  0  0  0  0  0  0  0  0
    0.3036   -2.6005   -0.5810 H   0  0  0  0  0  0  0  0  0  0  0  0
   -2.1948   -6.1537    1.9478 H   0  0  0  0  0  0  0  0  0  0  0  0
   -4.6377   -5.8345   -2.3894 H   0  0  0  0  0  0  0  0  0  0  0  0
   -3.8515   -4.3149   -2.9409 H   0  0  0  0  0  0  0  0  0  0  0  0
   -1.6885   -5.6953   -3.3247 H   0  0  0  0  0  0  0  0  0  0  0  0
   -3.0734   -6.0768   -4.4163 H   0  0  0  0  0  0  0  0  0  0  0  0
   -2.6829   -7.1708   -3.0373 H   0  0  0  0  0  0  0  0  0  0  0  0
    2.1657   -0.5011    9.1388 H   0  0  0  0  0  0  0  0  0  0  0  0
    3.8943   -0.5354    8.6709 H   0  0  0  0  0  0  0  0  0  0  0  0
    3.2110    1.7327    9.4388 H   0  0  0  0  0  0  0  0  0  0  0  0
    1.9423    1.8080    8.1542 H   0  0  0  0  0  0  0  0  0  0  0  0
    3.6941    1.7726    7.6984 H   0  0  0  0  0  0  0  0  0  0  0  0
    3.2434   -1.4528    3.8747 H   0  0  0  0  0  0  0  0  0  0  0  0
   -1.3443   -2.4648    6.3353 H   0  0  0  0  0  0  0  0  0  0  0  0
   -7.0096   -4.9953    5.1404 H   0  0  0  0  0  0  0  0  0  0  0  0
   -5.9602   -1.2093    6.9225 H   0  0  0  0  0  0  0  0  0  0  0  0
   -3.6136   -1.7080    6.6341 H   0  0  0  0  0  0  0  0  0  0  0  0
   -8.5314   -3.0186    4.9490 H   0  0  0  0  0  0  0  0  0  0  0  0
   -9.3019   -0.3156   10.5312 H   0  0  0  0  0  0  0  0  0  0  0  0
  -12.4203    0.6106    6.5996 H   0  0  0  0  0  0  0  0  0  0  0  0
  -13.0553    2.6828    9.3447 H   0  0  0  0  0  0  0  0  0  0  0  0
  -15.1638    1.1904    9.3604 H   0  0  0  0  0  0  0  0  0  0  0  0
  -14.4748   -1.3808    9.2770 H   0  0  0  0  0  0  0  0  0  0  0  0
  -12.9307   -1.8777   11.3104 H   0  0  0  0  0  0  0  0  0  0  0  0
  -12.6271    0.3708   12.6958 H   0  0  0  0  0  0  0  0  0  0  0  0
  -15.1487    0.5755   11.9388 H   0  0  0  0  0  0  0  0  0  0  0  0
  -14.3138    2.1794   11.6892 H   0  0  0  0  0  0  0  0  0  0  0  0
  -11.6560    2.2336   11.1918 H   0  0  0  0  0  0  0  0  0  0  0  0
  1  2  2  3
  2  3  1  0
  3  4  2  0
  3  5  1  0
  5  6  2  0
  6  7  1  0
  7  8  2  0
  8  9  1  0
  9 10  2  0
 10 11  1  0
 11 12  2  3
 12 13  1  0
 13 14  3  0
 12 15  1  0
 15 16  3  0
  8 17  1  0
 17 18  1  0
 18 19  1  0
 19 20  2  0
 20 21  1  0
 21 22  1  0
 21 23  1  0
  1 24  1  0
 24 25  2  0
 25 26  1  0
 26 27  1  0
 27 28  2  0
 28 29  1  0
 29 30  2  0
 30 31  1  0
 31 32  1  0
 30 33  1  0
 33 34  2  0
 26 35  1  0
 35 36  2  0
 36 37  1  0
 37 38  2  0
 38 39  1  0
 39 40  1  0
 38 41  1  0
 41 42  2  0
 25 43  1  0
 43 44  1  0
 44 45  1  0
 45 46  2  0
 46 47  1  0
 47 48  1  0
 48 49  2  0
 49 50  1  0
 50 51  2  0
 51 52  1  0
 52 53  1  0
 51 54  1  0
 54 55  2  0
 47 56  1  0
 56 57  2  0
 57 58  1  0
 58 59  2  0
 59 60  1  0
 60 61  1  0
 59 62  1  0
 62 63  2  0
 46 64  1  0
 64 65  1  0
 45 66  1  0
 66 67  2  0
 67 68  1  0
 68 69  2  0
 69 70  1  0
 70 71  2  0
 71 72  1  0
 72 73  1  0
 72 74  2  0
 74 75  1  0
 75 76  1  0
 74 77  1  0
 69 78  1  0
 78 79  2  0
 79 80  1  0
 80 81  1  0
 81 82  1  0
 82 83  1  0
 83 84  1  0
 84 85  1  0
 83 86  2  0
 86 87  1  0
 86 88  1  0
 80 89  2  0
 89 90  1  0
 79 91  1  0
 91 92  2  0
 92 93  1  0
 92 94  1  0
 94 95  2  0
 95 96  1  0
 95 97  1  0
 97 98  2  0
 98 99  1  0
 99100  2  0
 98101  1  0
101102  2  3
102103  1  0
103104  2  0
103105  1  0
105106  2  0
106107  1  0
107108  2  0
108109  1  0
109110  2  0
110111  1  0
111112  2  3
112113  1  0
113114  3  0
112115  1  0
115116  3  0
108117  1  0
117118  1  0
118119  1  0
119120  2  0
120121  1  0
121122  1  0
121123  1  0
 11  2  1  0
 23 17  1  0
 65 24  1  0
 90 66  1  0
100 94  1  0
111102  1  0
123117  1  0
 10  5  1  0
 22 18  1  0
 34 27  1  0
 42 35  1  0
 64 43  2  0
 89 68  1  0
110105  1  0
122118  1  0
 23  7  1  0
 55 48  1  0
 63 56  1  0
 77 70  1  0
 93 78  1  0
123107  1  0
 87 81  2  0
  1124  1  0
  6125  1  0
  9126  1  0
 17127  1  0
 18128  1  0
 19129  1  0
 20130  1  0
 21131  1  0
 22132  1  0
 22133  1  0
 23134  1  0
 28135  1  0
 29136  1  0
 32137  1  0
 32138  1  0
 32139  1  0
 33140  1  0
 34141  1  0
 36142  1  0
 37143  1  0
 40144  1  0
 40145  1  0
 40146  1  0
 41147  1  0
 42148  1  0
 49149  1  0
 50150  1  0
 53151  1  0
 53152  1  0
 53153  1  0
 54154  1  0
 55155  1  0
 57156  1  0
 58157  1  0
 61158  1  0
 61159  1  0
 61160  1  0
 62161  1  0
 63162  1  0
 67163  1  0
 71164  1  0
 75165  1  0
 75166  1  0
 76167  1  0
 76168  1  0
 76169  1  0
 84170  1  0
 84171  1  0
 85172  1  0
 85173  1  0
 85174  1  0
 87175  1  0
 91176  1  0
 97177  1  0
 99178  1  0
100179  1  0
101180  1  0
106181  1  0
109182  1  0
117183  1  0
118184  1  0
119185  1  0
120186  1  0
121187  1  0
122188  1  0
122189  1  0
123190  1  0
M  END

