
     RDKit          3D

196217  0  0  0  0  0  0  0  0999 V2000
    8.3215    1.2834    4.0009 C   0  0  0  0  0  0  0  0  0  0  0  0
    8.9107    2.5213    3.9299 C   0  0  0  0  0  0  0  0  0  0  0  0
    8.3319    3.6312    3.1549 C   0  0  0  0  0  0  0  0  0  0  0  0
    7.3761    3.5262    2.3379 O   0  0  0  0  0  0  0  0  0  0  0  0
    9.0525    4.8625    3.4683 C   0  0  0  0  0  0  0  0  0  0  0  0
    8.8965    6.1346    2.8966 C   0  0  0  0  0  0  0  0  0  0  0  0
    9.7993    7.0956    3.3290 C   0  0  0  0  0  0  0  0  0  0  0  0
   10.7186    6.8092    4.2220 C   0  0  0  0  0  0  0  0  0  0  0  0
   10.9198    5.5213    4.8238 C   0  0  0  0  0  0  0  0  0  0  0  0
   10.0057    4.5666    4.3632 C   0  0  0  0  0  0  0  0  0  0  0  0
    9.9158    3.0420    4.6553 C   0  0  0  0  0  0  0  0  0  0  0  0
   11.0340    2.4936    5.2358 C   0  0  0  0  0  0  0  0  0  0  0  0
   11.2827    1.1060    5.0875 C   0  0  0  0  0  0  0  0  0  0  0  0
   11.5031   -0.1215    4.9386 N   0  0  0  0  0  0  0  0  0  0  0  0
   11.9624    3.1227    6.0685 C   0  0  0  0  0  0  0  0  0  0  0  0
   12.7711    3.6697    6.8126 N   0  0  0  0  0  0  0  0  0  0  0  0
   11.1771    8.2446    4.2283 C   0  0  0  0  0  0  0  0  0  0  0  0
   12.5311    8.4286    3.6310 C   0  0  0  0  0  0  0  0  0  0  0  0
   12.6708    9.8130    3.1088 C   0  0  0  0  0  0  0  0  0  0  0  0
   11.7940    9.9611    2.1019 C   0  0  0  0  0  0  0  0  0  0  0  0
   11.1494    8.6258    1.9118 C   0  0  0  0  0  0  0  0  0  0  0  0
   12.3101    7.7369    2.2993 C   0  0  0  0  0  0  0  0  0  0  0  0
   10.2207    8.5032    3.0890 C   0  0  0  0  0  0  0  0  0  0  0  0
    7.0330    1.2840    3.2387 C   0  0  0  0  0  0  0  0  0  0  0  0
    5.8658    1.7975    3.8026 C   0  0  0  0  0  0  0  0  0  0  0  0
    4.7778    1.9676    3.0394 C   0  0  0  0  0  0  0  0  0  0  0  0
    3.4889    2.3793    3.4325 C   0  0  0  0  0  0  0  0  0  0  0  0
    3.3298    3.0802    4.7167 C   0  0  0  0  0  0  0  0  0  0  0  0
    4.2941    3.7796    5.4091 C   0  0  0  0  0  0  0  0  0  0  0  0
    4.0311    4.3137    6.5842 C   0  0  0  0  0  0  0  0  0  0  0  0
    2.8915    4.2611    7.2354 C   0  0  0  0  0  0  0  0  0  0  0  0
    2.2663    4.7117    8.7887 S   0  0  0  0  0  0  0  0  0  0  0  0
    1.9262    6.3996    9.0485 C   0  0  0  0  0  0  0  0  0  0  0  0
    0.7686    7.0141    8.2489 C   0  0  0  0  0  0  0  0  0  0  0  0
    1.8517    3.1811    5.8669 Se  0  0  0  0  0  2  0  0  0  0  0  0
    2.4500    2.3959    2.5664 C   0  0  0  0  0  0  0  0  0  0  0  0
    2.5926    2.0392    1.2283 C   0  0  0  0  0  0  0  0  0  0  0  0
    3.8833    1.6300    0.8080 C   0  0  0  0  0  0  0  0  0  0  0  0
    4.1406    1.2519   -0.5711 C   0  0  0  0  0  0  0  0  0  0  0  0
    5.2121    1.1103   -1.3290 C   0  0  0  0  0  0  0  0  0  0  0  0
    5.1889    0.6873   -2.5935 C   0  0  0  0  0  0  0  0  0  0  0  0
    4.1080    0.3475   -3.2640 C   0  0  0  0  0  0  0  0  0  0  0  0
    3.5743   -0.2115   -4.8375 S   0  0  0  0  0  0  0  0  0  0  0  0
    2.6411    0.9426   -5.8371 C   0  0  0  0  0  0  0  0  0  0  0  0
    3.3932    2.1417   -6.3196 C   0  0  0  0  0  0  0  0  0  0  0  0
    2.7720    0.7131   -1.7895 Se  0  0  0  0  0  2  0  0  0  0  0  0
    4.9085    1.6009    1.7234 C   0  0  0  0  0  0  0  0  0  0  0  0
    6.5665    1.0343    1.6403 S   0  0  0  0  0  0  0  0  0  0  0  0
    1.4964    1.9495    0.5142 C   0  0  0  0  0  0  0  0  0  0  0  0
    0.2462    2.1944    1.1605 C   0  0  0  0  0  0  0  0  0  0  0  0
    0.7067    2.5650    2.6551 S   0  0  0  0  0  0  0  0  0  0  0  0
   -0.9560    1.6291    0.4102 C   0  0  0  0  0  0  0  0  0  0  0  0
   -1.3548    1.7299   -0.8404 C   0  0  0  0  0  0  0  0  0  0  0  0
   -1.4278    2.9820   -1.5280 N   0  0  0  0  0  0  0  0  0  0  0  0
   -2.7557    3.6634   -1.3194 C   0  0  0  0  0  0  0  0  0  0  0  0
   -3.4488    4.2042   -2.3322 C   0  0  0  0  0  0  0  0  0  0  0  0
   -4.6088    4.9405   -2.1746 C   0  0  0  0  0  0  0  0  0  0  0  0
   -5.0636    5.1193   -0.8625 C   0  0  0  0  0  0  0  0  0  0  0  0
   -6.4680    6.1039   -0.4839 S   0  0  0  0  0  0  0  0  0  0  0  0
   -7.1248    6.9476   -1.9246 C   0  0  0  0  0  0  0  0  0  0  0  0
   -4.3425    4.5507    0.1934 C   0  0  0  0  0  0  0  0  0  0  0  0
   -3.1952    3.8201   -0.0046 C   0  0  0  0  0  0  0  0  0  0  0  0
   -0.6201    3.7894   -2.2876 C   0  0  0  0  0  0  0  0  0  0  0  0
    0.1995    3.2061   -3.3267 C   0  0  0  0  0  0  0  0  0  0  0  0
    0.8093    4.2225   -4.0935 C   0  0  0  0  0  0  0  0  0  0  0  0
    0.7491    5.4700   -4.0007 C   0  0  0  0  0  0  0  0  0  0  0  0
    1.5003    6.6835   -5.1080 S   0  0  0  0  0  0  0  0  0  0  0  0
    3.2666    6.8602   -4.6554 C   0  0  0  0  0  0  0  0  0  0  0  0
   -0.0809    6.1045   -2.9303 C   0  0  0  0  0  0  0  0  0  0  0  0
   -0.6683    5.1121   -2.2002 C   0  0  0  0  0  0  0  0  0  0  0  0
   -2.0400    0.6100   -1.3694 C   0  0  0  0  0  0  0  0  0  0  0  0
   -2.5047   -0.0515   -2.9565 S   0  0  0  0  0  0  0  0  0  0  0  0
   -2.9517   -1.6034   -2.4796 C   0  0  0  0  0  0  0  0  0  0  0  0
   -2.7508   -1.5635   -1.0981 C   0  0  0  0  0  0  0  0  0  0  0  0
   -3.4158   -2.6236   -0.3206 N   0  0  0  0  0  0  0  0  0  0  0  0
   -4.8282   -2.7552   -0.7094 C   0  0  0  0  0  0  0  0  0  0  0  0
   -5.5488   -3.8253   -0.9201 C   0  0  0  0  0  0  0  0  0  0  0  0
   -6.8068   -3.7670   -1.5167 C   0  0  0  0  0  0  0  0  0  0  0  0
   -7.3777   -2.5867   -1.9169 C   0  0  0  0  0  0  0  0  0  0  0  0
   -8.9512   -2.3937   -2.7328 S   0  0  0  0  0  0  0  0  0  0  0  0
   -8.6849   -1.9855   -4.4665 C   0  0  0  0  0  0  0  0  0  0  0  0
   -6.6245   -1.4042   -1.6841 C   0  0  0  0  0  0  0  0  0  0  0  0
   -5.3759   -1.5118   -1.0942 C   0  0  0  0  0  0  0  0  0  0  0  0
   -2.9012   -3.3040    0.7596 C   0  0  0  0  0  0  0  0  0  0  0  0
   -2.4444   -2.6573    1.9223 C   0  0  0  0  0  0  0  0  0  0  0  0
   -1.7273   -3.3511    2.8517 C   0  0  0  0  0  0  0  0  0  0  0  0
   -1.4023   -4.6932    2.7223 C   0  0  0  0  0  0  0  0  0  0  0  0
   -0.4758   -5.5732    3.9855 S   0  0  0  0  0  0  0  0  0  0  0  0
    1.2961   -5.1976    3.7902 C   0  0  0  0  0  0  0  0  0  0  0  0
   -1.8584   -5.3329    1.5729 C   0  0  0  0  0  0  0  0  0  0  0  0
   -2.5894   -4.6216    0.6348 C   0  0  0  0  0  0  0  0  0  0  0  0
   -2.2695   -0.4086   -0.6032 C   0  0  0  0  0  0  0  0  0  0  0  0
   -1.5428    0.0750    0.9172 S   0  0  0  0  0  0  0  0  0  0  0  0
   -3.2256   -2.9322   -3.1402 C   0  0  0  0  0  0  0  0  0  0  0  0
   -2.4408   -4.0641   -2.7490 C   0  0  0  0  0  0  0  0  0  0  0  0
   -2.6794   -5.2047   -3.3871 C   0  0  0  0  0  0  0  0  0  0  0  0
   -1.5817   -6.6555   -3.0901 S   0  0  0  0  0  0  0  0  0  0  0  0
   -0.2054   -6.1588   -2.0409 C   0  0  0  0  0  0  0  0  0  0  0  0
    0.6909   -7.3134   -1.6800 C   0  0  0  0  0  0  0  0  0  0  0  0
   -3.6174   -5.2534   -4.3070 C   0  0  0  0  0  0  0  0  0  0  0  0
   -4.2026   -3.5616   -4.3152 S   0  0  0  0  0  0  0  0  0  0  0  0
   -4.3596   -6.2985   -5.0974 C   0  0  0  0  0  0  0  0  0  0  0  0
   -5.2164   -7.0418   -4.3406 C   0  0  0  0  0  0  0  0  0  0  0  0
   -5.4214   -6.9362   -2.9145 C   0  0  0  0  0  0  0  0  0  0  0  0
   -4.5493   -6.5400   -2.1119 O   0  0  0  0  0  0  0  0  0  0  0  0
   -6.7829   -7.3861   -2.5506 C   0  0  0  0  0  0  0  0  0  0  0  0
   -7.3985   -7.2710   -1.3448 C   0  0  0  0  0  0  0  0  0  0  0  0
   -8.7972   -7.5149   -1.2600 C   0  0  0  0  0  0  0  0  0  0  0  0
   -9.4343   -7.8554   -2.4160 C   0  0  0  0  0  0  0  0  0  0  0  0
   -8.7896   -7.9893   -3.6252 C   0  0  0  0  0  0  0  0  0  0  0  0
   -7.4081   -7.7508   -3.7001 C   0  0  0  0  0  0  0  0  0  0  0  0
   -6.5062   -7.5936   -4.8688 C   0  0  0  0  0  0  0  0  0  0  0  0
   -6.7500   -7.9513   -6.1087 C   0  0  0  0  0  0  0  0  0  0  0  0
   -6.0535   -7.9658   -7.2385 C   0  0  0  0  0  0  0  0  0  0  0  0
   -5.3973   -7.9986   -8.3112 N   0  0  0  0  0  0  0  0  0  0  0  0
   -8.0878   -8.5424   -6.2744 C   0  0  0  0  0  0  0  0  0  0  0  0
   -9.2679   -9.0861   -6.4269 N   0  0  0  0  0  0  0  0  0  0  0  0
  -10.7667   -7.8474   -1.6959 C   0  0  0  0  0  0  0  0  0  0  0  0
  -11.5329   -6.5864   -1.9005 C   0  0  0  0  0  0  0  0  0  0  0  0
  -12.6211   -6.6043   -0.8285 C   0  0  0  0  0  0  0  0  0  0  0  0
  -12.0026   -6.5065    0.3390 C   0  0  0  0  0  0  0  0  0  0  0  0
  -10.5416   -6.2900    0.1140 C   0  0  0  0  0  0  0  0  0  0  0  0
  -10.6202   -5.5314   -1.2290 C   0  0  0  0  0  0  0  0  0  0  0  0
   -9.9694   -7.5840   -0.3842 C   0  0  0  0  0  0  0  0  0  0  0  0
    8.6780    0.4998    4.5207 H   0  0  0  0  0  0  0  0  0  0  0  0
    8.1304    6.2617    2.1842 H   0  0  0  0  0  0  0  0  0  0  0  0
   11.6725    5.3931    5.5208 H   0  0  0  0  0  0  0  0  0  0  0  0
   10.9058    8.8037    5.1560 H   0  0  0  0  0  0  0  0  0  0  0  0
   13.3553    8.0912    4.2031 H   0  0  0  0  0  0  0  0  0  0  0  0
   13.3689   10.5572    3.4756 H   0  0  0  0  0  0  0  0  0  0  0  0
   11.5424   10.8270    1.5076 H   0  0  0  0  0  0  0  0  0  0  0  0
   10.7325    8.4468    0.9366 H   0  0  0  0  0  0  0  0  0  0  0  0
   12.0536    6.6948    2.3627 H   0  0  0  0  0  0  0  0  0  0  0  0
   13.1913    7.9290    1.6245 H   0  0  0  0  0  0  0  0  0  0  0  0
    9.4476    9.2406    3.1744 H   0  0  0  0  0  0  0  0  0  0  0  0
    5.9204    1.9741    4.9079 H   0  0  0  0  0  0  0  0  0  0  0  0
    5.3196    3.9361    4.9048 H   0  0  0  0  0  0  0  0  0  0  0  0
    4.8743    4.9099    7.1184 H   0  0  0  0  0  0  0  0  0  0  0  0
    2.7947    7.1021    8.9012 H   0  0  0  0  0  0  0  0  0  0  0  0
    1.6918    6.5577   10.1378 H   0  0  0  0  0  0  0  0  0  0  0  0
    0.3124    6.2370    7.6734 H   0  0  0  0  0  0  0  0  0  0  0  0
   -0.0020    7.4720    8.9511 H   0  0  0  0  0  0  0  0  0  0  0  0
    1.1170    7.8516    7.6324 H   0  0  0  0  0  0  0  0  0  0  0  0
    6.2211    1.3495   -0.8597 H   0  0  0  0  0  0  0  0  0  0  0  0
    6.1741    0.5924   -3.1949 H   0  0  0  0  0  0  0  0  0  0  0  0
    2.0598    0.4382   -6.6490 H   0  0  0  0  0  0  0  0  0  0  0  0
    1.8050    1.3703   -5.1848 H   0  0  0  0  0  0  0  0  0  0  0  0
    2.7315    2.6436   -7.1099 H   0  0  0  0  0  0  0  0  0  0  0  0
    4.3492    1.9233   -6.8195 H   0  0  0  0  0  0  0  0  0  0  0  0
    3.5796    2.9425   -5.5904 H   0  0  0  0  0  0  0  0  0  0  0  0
    1.3903    1.7301   -0.5535 H   0  0  0  0  0  0  0  0  0  0  0  0
   -3.0987    4.0731   -3.3693 H   0  0  0  0  0  0  0  0  0  0  0  0
   -5.1389    5.3539   -3.0454 H   0  0  0  0  0  0  0  0  0  0  0  0
   -8.0789    6.4848   -2.2927 H   0  0  0  0  0  0  0  0  0  0  0  0
   -7.3535    8.0454   -1.7613 H   0  0  0  0  0  0  0  0  0  0  0  0
   -6.4220    6.8799   -2.7512 H   0  0  0  0  0  0  0  0  0  0  0  0
   -4.7086    4.6905    1.2221 H   0  0  0  0  0  0  0  0  0  0  0  0
   -2.6826    3.4039    0.8552 H   0  0  0  0  0  0  0  0  0  0  0  0
    0.2799    2.2023   -3.4174 H   0  0  0  0  0  0  0  0  0  0  0  0
    1.4278    3.7585   -4.9485 H   0  0  0  0  0  0  0  0  0  0  0  0
    3.9099    6.5630   -5.5206 H   0  0  0  0  0  0  0  0  0  0  0  0
    3.5646    7.8928   -4.3303 H   0  0  0  0  0  0  0  0  0  0  0  0
    3.5189    6.1797   -3.8345 H   0  0  0  0  0  0  0  0  0  0  0  0
   -0.1343    7.1231   -2.8596 H   0  0  0  0  0  0  0  0  0  0  0  0
   -1.2992    5.5883   -1.3321 H   0  0  0  0  0  0  0  0  0  0  0  0
   -5.1706   -4.8156   -0.5702 H   0  0  0  0  0  0  0  0  0  0  0  0
   -7.3979   -4.6570   -1.6913 H   0  0  0  0  0  0  0  0  0  0  0  0
   -9.3642   -1.1467   -4.7700 H   0  0  0  0  0  0  0  0  0  0  0  0
   -7.6553   -1.6260   -4.7316 H   0  0  0  0  0  0  0  0  0  0  0  0
   -8.9715   -2.8320   -5.1574 H   0  0  0  0  0  0  0  0  0  0  0  0
   -7.0567   -0.4941   -1.9988 H   0  0  0  0  0  0  0  0  0  0  0  0
   -4.7867   -0.5885   -0.9345 H   0  0  0  0  0  0  0  0  0  0  0  0
   -2.7402   -1.6581    2.1365 H   0  0  0  0  0  0  0  0  0  0  0  0
   -1.3449   -2.8935    3.7865 H   0  0  0  0  0  0  0  0  0  0  0  0
    1.6595   -4.7257    4.7696 H   0  0  0  0  0  0  0  0  0  0  0  0
    1.9414   -6.0927    3.5984 H   0  0  0  0  0  0  0  0  0  0  0  0
    1.4854   -4.4495    2.9886 H   0  0  0  0  0  0  0  0  0  0  0  0
   -1.6356   -6.3469    1.4560 H   0  0  0  0  0  0  0  0  0  0  0  0
   -2.9153   -5.2425   -0.2362 H   0  0  0  0  0  0  0  0  0  0  0  0
   -1.6924   -3.9171   -1.9605 H   0  0  0  0  0  0  0  0  0  0  0  0
    0.3165   -5.3416   -2.5679 H   0  0  0  0  0  0  0  0  0  0  0  0
   -0.5692   -5.7161   -1.0438 H   0  0  0  0  0  0  0  0  0  0  0  0
    0.2219   -8.2865   -1.9660 H   0  0  0  0  0  0  0  0  0  0  0  0
    1.6977   -7.1775   -2.0933 H   0  0  0  0  0  0  0  0  0  0  0  0
    0.8516   -7.3041   -0.5621 H   0  0  0  0  0  0  0  0  0  0  0  0
   -4.2439   -6.4707   -6.0915 H   0  0  0  0  0  0  0  0  0  0  0  0
   -6.8919   -6.9953   -0.4284 H   0  0  0  0  0  0  0  0  0  0  0  0
   -9.3966   -8.2137   -4.4535 H   0  0  0  0  0  0  0  0  0  0  0  0
  -11.2865   -8.8149   -1.6600 H   0  0  0  0  0  0  0  0  0  0  0  0
  -11.8648   -6.3255   -2.8874 H   0  0  0  0  0  0  0  0  0  0  0  0
  -13.6674   -6.6911   -1.0572 H   0  0  0  0  0  0  0  0  0  0  0  0
  -12.4449   -6.5740    1.3186 H   0  0  0  0  0  0  0  0  0  0  0  0
  -10.0300   -5.7965    0.9339 H   0  0  0  0  0  0  0  0  0  0  0  0
  -11.2025   -4.5924   -1.1013 H   0  0  0  0  0  0  0  0  0  0  0  0
   -9.6702   -5.3950   -1.6879 H   0  0  0  0  0  0  0  0  0  0  0  0
  -10.0293   -8.4664    0.2956 H   0  0  0  0  0  0  0  0  0  0  0  0
  1  2  2  3
  2  3  1  0
  3  4  2  0
  3  5  1  0
  5  6  2  0
  6  7  1  0
  7  8  2  0
  8  9  1  0
  9 10  2  0
 10 11  1  0
 11 12  2  3
 12 13  1  0
 13 14  3  0
 12 15  1  0
 15 16  3  0
  8 17  1  0
 17 18  1  0
 18 19  1  0
 19 20  2  0
 20 21  1  0
 21 22  1  0
 21 23  1  0
  1 24  1  0
 24 25  2  0
 25 26  1  0
 26 27  2  0
 27 28  1  0
 28 29  2  0
 29 30  1  0
 30 31  2  0
 31 32  1  0
 32 33  1  0
 33 34  1  0
 31 35  1  0
 27 36  1  0
 36 37  2  0
 37 38  1  0
 38 39  1  0
 39 40  2  0
 40 41  1  0
 41 42  2  0
 42 43  1  0
 43 44  1  0
 44 45  1  0
 42 46  1  0
 38 47  2  0
 47 48  1  0
 37 49  1  0
 49 50  2  0
 50 51  1  0
 50 52  1  0
 52 53  2  0
 53 54  1  0
 54 55  1  0
 55 56  2  0
 56 57  1  0
 57 58  2  0
 58 59  1  0
 59 60  1  0
 58 61  1  0
 61 62  2  0
 54 63  1  0
 63 64  2  0
 64 65  1  0
 65 66  2  0
 66 67  1  0
 67 68  1  0
 66 69  1  0
 69 70  2  0
 53 71  1  0
 71 72  1  0
 72 73  1  0
 73 74  2  0
 74 75  1  0
 75 76  1  0
 76 77  2  0
 77 78  1  0
 78 79  2  0
 79 80  1  0
 80 81  1  0
 79 82  1  0
 82 83  2  0
 75 84  1  0
 84 85  2  0
 85 86  1  0
 86 87  2  0
 87 88  1  0
 88 89  1  0
 87 90  1  0
 90 91  2  0
 74 92  1  0
 92 93  1  0
 73 94  1  0
 94 95  2  0
 95 96  1  0
 96 97  1  0
 97 98  1  0
 98 99  1  0
 96100  2  0
100101  1  0
100102  1  0
102103  2  3
103104  1  0
104105  2  0
104106  1  0
106107  2  0
107108  1  0
108109  2  0
109110  1  0
110111  2  0
111112  1  0
112113  2  3
113114  1  0
114115  3  0
113116  1  0
116117  3  0
109118  1  0
118119  1  0
119120  1  0
120121  2  0
121122  1  0
122123  1  0
122124  1  0
 11  2  1  0
 23 17  1  0
 48 24  1  0
 93 52  1  0
101 94  1  0
112103  1  0
124118  1  0
 10  5  1  0
 22 18  1  0
 47 26  1  0
 62 55  1  0
 70 63  1  0
 92 71  2  0
111106  1  0
123119  1  0
 23  7  1  0
 35 28  1  0
 51 36  1  0
 83 76  1  0
 91 84  1  0
124108  1  0
 46 39  1  0
  1125  1  0
  6126  1  0
  9127  1  0
 17128  1  0
 18129  1  0
 19130  1  0
 20131  1  0
 21132  1  0
 22133  1  0
 22134  1  0
 23135  1  0
 25136  1  0
 29137  1  0
 30138  1  0
 33139  1  0
 33140  1  0
 34141  1  0
 34142  1  0
 34143  1  0
 40144  1  0
 41145  1  0
 44146  1  0
 44147  1  0
 45148  1  0
 45149  1  0
 45150  1  0
 49151  1  0
 56152  1  0
 57153  1  0
 60154  1  0
 60155  1  0
 60156  1  0
 61157  1  0
 62158  1  0
 64159  1  0
 65160  1  0
 68161  1  0
 68162  1  0
 68163  1  0
 69164  1  0
 70165  1  0
 77166  1  0
 78167  1  0
 81168  1  0
 81169  1  0
 81170  1  0
 82171  1  0
 83172  1  0
 85173  1  0
 86174  1  0
 89175  1  0
 89176  1  0
 89177  1  0
 90178  1  0
 91179  1  0
 95180  1  0
 98181  1  0
 98182  1  0
 99183  1  0
 99184  1  0
 99185  1  0
102186  1  0
107187  1  0
110188  1  0
118189  1  0
119190  1  0
120191  1  0
121192  1  0
122193  1  0
123194  1  0
123195  1  0
124196  1  0
M  END

