
     RDKit          3D

160179  0  0  0  0  0  0  0  0999 V2000
   -6.6698    5.4364    4.0402 C   0  0  0  0  0  0  0  0  0  0  0  0
   -7.6344    4.4987    4.0175 C   0  0  0  0  0  0  0  0  0  0  0  0
   -9.0580    4.8265    4.0131 C   0  0  0  0  0  0  0  0  0  0  0  0
   -9.5711    5.9142    4.3867 O   0  0  0  0  0  0  0  0  0  0  0  0
   -9.7847    3.7086    3.4346 C   0  0  0  0  0  0  0  0  0  0  0  0
  -11.1812    3.6045    3.2272 C   0  0  0  0  0  0  0  0  0  0  0  0
  -11.5843    2.3737    2.7442 C   0  0  0  0  0  0  0  0  0  0  0  0
  -10.6715    1.3145    2.4469 C   0  0  0  0  0  0  0  0  0  0  0  0
   -9.3028    1.4198    2.6050 C   0  0  0  0  0  0  0  0  0  0  0  0
   -8.8660    2.6634    3.1343 C   0  0  0  0  0  0  0  0  0  0  0  0
   -7.5096    3.0730    3.5884 C   0  0  0  0  0  0  0  0  0  0  0  0
   -6.4997    2.2369    3.9407 C   0  0  0  0  0  0  0  0  0  0  0  0
   -6.3835    0.8861    3.4543 C   0  0  0  0  0  0  0  0  0  0  0  0
   -6.2658   -0.2091    3.0799 N   0  0  0  0  0  0  0  0  0  0  0  0
   -5.6008    2.5634    5.0152 C   0  0  0  0  0  0  0  0  0  0  0  0
   -4.8922    2.7961    5.8992 N   0  0  0  0  0  0  0  0  0  0  0  0
  -11.8101    0.4050    2.1103 C   0  0  0  0  0  0  0  0  0  0  0  0
  -12.1934   -0.6879    3.1568 C   0  0  0  0  0  0  0  0  0  0  0  0
  -11.8955   -0.1974    4.5553 C   0  0  0  0  0  0  0  0  0  0  0  0
  -12.7623    0.7856    4.8087 C   0  0  0  0  0  0  0  0  0  0  0  0
  -13.6111    0.9333    3.5682 C   0  0  0  0  0  0  0  0  0  0  0  0
  -13.7007   -0.5236    3.1605 C   0  0  0  0  0  0  0  0  0  0  0  0
  -12.7467    1.4913    2.3982 C   0  0  0  0  0  0  0  0  0  0  0  0
   -5.3421    5.2236    3.4279 C   0  0  0  0  0  0  0  0  0  0  0  0
   -4.1742    5.2752    4.2032 C   0  0  0  0  0  0  0  0  0  0  0  0
   -4.2448    5.6336    5.5105 F   0  0  0  0  0  0  0  0  0  0  0  0
   -2.9423    4.8580    3.6710 C   0  0  0  0  0  0  0  0  0  0  0  0
   -1.8866    4.7291    4.5152 F   0  0  0  0  0  0  0  0  0  0  0  0
   -2.8266    4.4779    2.3127 C   0  0  0  0  0  0  0  0  0  0  0  0
   -3.9729    4.5586    1.5035 C   0  0  0  0  0  0  0  0  0  0  0  0
   -5.2344    4.9076    2.0660 C   0  0  0  0  0  0  0  0  0  0  0  0
   -6.2970    4.9201    1.2175 N   0  0  0  0  0  0  0  0  0  0  0  0
   -5.5660    4.4763   -0.1965 S   0  0  0  0  0  0  0  0  0  0  0  0
   -3.9699    4.2723    0.1732 N   0  0  0  0  0  0  0  0  0  0  0  0
   -1.5656    3.8808    1.7874 C   0  0  0  0  0  0  0  0  0  0  0  0
   -1.6322    2.6859    1.0472 C   0  0  0  0  0  0  0  0  0  0  0  0
   -0.4793    2.0711    0.5659 C   0  0  0  0  0  0  0  0  0  0  0  0
    0.7967    2.5543    0.8948 C   0  0  0  0  0  0  0  0  0  0  0  0
    0.8869    3.7619    1.6104 C   0  0  0  0  0  0  0  0  0  0  0  0
    2.0705    4.3485    1.9221 N   0  0  0  0  0  0  0  0  0  0  0  0
    1.5367    5.7159    2.6842 S   0  0  0  0  0  0  0  0  0  0  0  0
   -0.1121    5.6274    2.6698 N   0  0  0  0  0  0  0  0  0  0  0  0
   -0.2959    4.4394    2.0343 C   0  0  0  0  0  0  0  0  0  0  0  0
    1.9917    1.7837    0.4801 C   0  0  0  0  0  0  0  0  0  0  0  0
    2.0613    0.3746    0.3608 C   0  0  0  0  0  0  0  0  0  0  0  0
    1.1525   -0.5594    1.0021 N   0  0  0  0  0  0  0  0  0  0  0  0
    0.9287   -1.8524    0.4181 C   0  0  0  0  0  0  0  0  0  0  0  0
    0.4203   -1.9681   -0.8872 C   0  0  0  0  0  0  0  0  0  0  0  0
    0.3370   -3.2238   -1.4985 C   0  0  0  0  0  0  0  0  0  0  0  0
    0.7418   -4.3697   -0.7998 C   0  0  0  0  0  0  0  0  0  0  0  0
    0.7391   -5.9654   -1.6239 S   0  0  0  0  0  0  0  0  0  0  0  0
    2.5108   -5.8710   -2.0460 C   0  0  0  0  0  0  0  0  0  0  0  0
    1.2003   -4.2617    0.5189 C   0  0  0  0  0  0  0  0  0  0  0  0
    1.2916   -3.0073    1.1281 C   0  0  0  0  0  0  0  0  0  0  0  0
    0.5184   -0.2378    2.2640 C   0  0  0  0  0  0  0  0  0  0  0  0
   -0.8430   -0.5399    2.4661 C   0  0  0  0  0  0  0  0  0  0  0  0
   -1.5089   -0.0530    3.5905 C   0  0  0  0  0  0  0  0  0  0  0  0
   -0.8196    0.6964    4.5500 C   0  0  0  0  0  0  0  0  0  0  0  0
   -1.7101    1.4008    5.9423 S   0  0  0  0  0  0  0  0  0  0  0  0
   -1.4317   -0.0369    7.0141 C   0  0  0  0  0  0  0  0  0  0  0  0
    0.5489    0.9416    4.3921 C   0  0  0  0  0  0  0  0  0  0  0  0
    1.2225    0.4651    3.2620 C   0  0  0  0  0  0  0  0  0  0  0  0
    3.1842   -0.0018   -0.3849 C   0  0  0  0  0  0  0  0  0  0  0  0
    3.6812   -1.4183   -1.1168 S   0  0  0  0  0  0  0  0  0  0  0  0
    4.9829   -0.7036   -1.9517 C   0  0  0  0  0  0  0  0  0  0  0  0
    5.0933    0.6523   -1.5775 C   0  0  0  0  0  0  0  0  0  0  0  0
    6.2345    1.5144   -1.8167 N   0  0  0  0  0  0  0  0  0  0  0  0
    6.6829    2.3708   -0.7531 C   0  0  0  0  0  0  0  0  0  0  0  0
    6.8869    3.7404   -0.9848 C   0  0  0  0  0  0  0  0  0  0  0  0
    7.1968    4.5941    0.0810 C   0  0  0  0  0  0  0  0  0  0  0  0
    7.2966    4.0865    1.3838 C   0  0  0  0  0  0  0  0  0  0  0  0
    7.5883    5.1957    2.7669 S   0  0  0  0  0  0  0  0  0  0  0  0
    5.8164    5.3391    3.1709 C   0  0  0  0  0  0  0  0  0  0  0  0
    7.1521    2.7138    1.6089 C   0  0  0  0  0  0  0  0  0  0  0  0
    6.8352    1.8594    0.5478 C   0  0  0  0  0  0  0  0  0  0  0  0
    7.1003    1.3374   -2.9460 C   0  0  0  0  0  0  0  0  0  0  0  0
    8.3125    0.6408   -2.8008 C   0  0  0  0  0  0  0  0  0  0  0  0
    9.1631    0.4729   -3.9009 C   0  0  0  0  0  0  0  0  0  0  0  0
    8.8320    1.0378   -5.1397 C   0  0  0  0  0  0  0  0  0  0  0  0
    9.9140    0.8041   -6.5516 S   0  0  0  0  0  0  0  0  0  0  0  0
   10.9619    2.2358   -6.1528 C   0  0  0  0  0  0  0  0  0  0  0  0
    7.6387    1.7599   -5.2741 C   0  0  0  0  0  0  0  0  0  0  0  0
    6.7808    1.9198   -4.1796 C   0  0  0  0  0  0  0  0  0  0  0  0
    4.0162    1.0099   -0.7529 C   0  0  0  0  0  0  0  0  0  0  0  0
    3.3722    2.4770   -0.2483 S   0  0  0  0  0  0  0  0  0  0  0  0
    5.6989   -1.3952   -3.0347 C   0  0  0  0  0  0  0  0  0  0  0  0
    5.0572   -2.0509   -4.0191 C   0  0  0  0  0  0  0  0  0  0  0  0
    5.6367   -3.2253   -4.6718 C   0  0  0  0  0  0  0  0  0  0  0  0
    6.8635   -3.5081   -4.7246 O   0  0  0  0  0  0  0  0  0  0  0  0
    4.5556   -4.0783   -5.1285 C   0  0  0  0  0  0  0  0  0  0  0  0
    4.6512   -5.4035   -5.6144 C   0  0  0  0  0  0  0  0  0  0  0  0
    3.4262   -6.0205   -5.8045 C   0  0  0  0  0  0  0  0  0  0  0  0
    2.1749   -5.3811   -5.5241 C   0  0  0  0  0  0  0  0  0  0  0  0
    2.0706   -4.0865   -5.0556 C   0  0  0  0  0  0  0  0  0  0  0  0
    3.3208   -3.4291   -4.8710 C   0  0  0  0  0  0  0  0  0  0  0  0
    3.5852   -2.0816   -4.3094 C   0  0  0  0  0  0  0  0  0  0  0  0
    2.7518   -1.0125   -4.3804 C   0  0  0  0  0  0  0  0  0  0  0  0
    3.2193    0.3393   -4.2376 C   0  0  0  0  0  0  0  0  0  0  0  0
    3.5572    1.4412   -4.1412 N   0  0  0  0  0  0  0  0  0  0  0  0
    1.3764   -1.1252   -4.7874 C   0  0  0  0  0  0  0  0  0  0  0  0
    0.2696   -1.1961   -5.1172 N   0  0  0  0  0  0  0  0  0  0  0  0
    1.4322   -6.6198   -5.9097 C   0  0  0  0  0  0  0  0  0  0  0  0
    0.6860   -6.6235   -7.2794 C   0  0  0  0  0  0  0  0  0  0  0  0
    1.4047   -5.7258   -8.2597 C   0  0  0  0  0  0  0  0  0  0  0  0
    2.5678   -6.3185   -8.5336 C   0  0  0  0  0  0  0  0  0  0  0  0
    2.6003   -7.5991   -7.7287 C   0  0  0  0  0  0  0  0  0  0  0  0
    1.1337   -7.9726   -7.8101 C   0  0  0  0  0  0  0  0  0  0  0  0
    2.7108   -7.2735   -6.2092 C   0  0  0  0  0  0  0  0  0  0  0  0
   -6.9144    6.4411    4.3481 H   0  0  0  0  0  0  0  0  0  0  0  0
  -11.8821    4.3860    3.4827 H   0  0  0  0  0  0  0  0  0  0  0  0
   -8.6530    0.5943    2.3626 H   0  0  0  0  0  0  0  0  0  0  0  0
  -11.8216    0.0649    1.0560 H   0  0  0  0  0  0  0  0  0  0  0  0
  -11.8268   -1.7071    2.9322 H   0  0  0  0  0  0  0  0  0  0  0  0
  -11.1734   -0.5977    5.2562 H   0  0  0  0  0  0  0  0  0  0  0  0
  -12.8670    1.3195    5.7461 H   0  0  0  0  0  0  0  0  0  0  0  0
  -14.5860    1.4467    3.7263 H   0  0  0  0  0  0  0  0  0  0  0  0
  -14.1671   -0.6860    2.1595 H   0  0  0  0  0  0  0  0  0  0  0  0
  -14.2156   -1.1643    3.9166 H   0  0  0  0  0  0  0  0  0  0  0  0
  -13.3219    1.8276    1.5066 H   0  0  0  0  0  0  0  0  0  0  0  0
   -2.5875    2.2191    0.8407 H   0  0  0  0  0  0  0  0  0  0  0  0
   -0.5940    1.1873   -0.0446 H   0  0  0  0  0  0  0  0  0  0  0  0
    0.1304   -1.0800   -1.4377 H   0  0  0  0  0  0  0  0  0  0  0  0
   -0.0345   -3.3024   -2.5109 H   0  0  0  0  0  0  0  0  0  0  0  0
    3.1221   -6.0181   -1.1298 H   0  0  0  0  0  0  0  0  0  0  0  0
    2.7532   -6.6669   -2.7789 H   0  0  0  0  0  0  0  0  0  0  0  0
    2.7555   -4.8827   -2.4860 H   0  0  0  0  0  0  0  0  0  0  0  0
    1.5260   -5.1436    1.0597 H   0  0  0  0  0  0  0  0  0  0  0  0
    1.6898   -2.9316    2.1330 H   0  0  0  0  0  0  0  0  0  0  0  0
   -1.4010   -1.0795    1.7123 H   0  0  0  0  0  0  0  0  0  0  0  0
   -2.5697   -0.2372    3.7021 H   0  0  0  0  0  0  0  0  0  0  0  0
   -1.9938    0.1062    7.9565 H   0  0  0  0  0  0  0  0  0  0  0  0
   -0.3525   -0.1364    7.2474 H   0  0  0  0  0  0  0  0  0  0  0  0
   -1.7983   -0.9692    6.5220 H   0  0  0  0  0  0  0  0  0  0  0  0
    1.0884    1.5183    5.1303 H   0  0  0  0  0  0  0  0  0  0  0  0
    2.2738    0.6908    3.1371 H   0  0  0  0  0  0  0  0  0  0  0  0
    6.7670    4.1489   -1.9822 H   0  0  0  0  0  0  0  0  0  0  0  0
    7.3293    5.6529   -0.1022 H   0  0  0  0  0  0  0  0  0  0  0  0
    5.2656    5.7793    2.3150 H   0  0  0  0  0  0  0  0  0  0  0  0
    5.4015    4.3329    3.4135 H   0  0  0  0  0  0  0  0  0  0  0  0
    5.7053    5.9973    4.0514 H   0  0  0  0  0  0  0  0  0  0  0  0
    7.2515    2.3094    2.6102 H   0  0  0  0  0  0  0  0  0  0  0  0
    6.6945    0.8030    0.7415 H   0  0  0  0  0  0  0  0  0  0  0  0
    8.5787    0.2015   -1.8446 H   0  0  0  0  0  0  0  0  0  0  0  0
   10.0837   -0.0830   -3.7885 H   0  0  0  0  0  0  0  0  0  0  0  0
   11.4640    2.0760   -5.1733 H   0  0  0  0  0  0  0  0  0  0  0  0
   11.7407    2.3472   -6.9389 H   0  0  0  0  0  0  0  0  0  0  0  0
   10.3520    3.1612   -6.1130 H   0  0  0  0  0  0  0  0  0  0  0  0
    7.3808    2.2065   -6.2284 H   0  0  0  0  0  0  0  0  0  0  0  0
    5.8838    2.5152   -4.2910 H   0  0  0  0  0  0  0  0  0  0  0  0
    6.7566   -1.5502   -2.9078 H   0  0  0  0  0  0  0  0  0  0  0  0
    5.5926   -5.9132   -5.7720 H   0  0  0  0  0  0  0  0  0  0  0  0
    1.1144   -3.6696   -4.7919 H   0  0  0  0  0  0  0  0  0  0  0  0
    0.8772   -7.0880   -5.0667 H   0  0  0  0  0  0  0  0  0  0  0  0
   -0.4133   -6.4699   -7.2172 H   0  0  0  0  0  0  0  0  0  0  0  0
    1.0300   -4.8232   -8.7253 H   0  0  0  0  0  0  0  0  0  0  0  0
    3.3028   -5.9780   -9.2581 H   0  0  0  0  0  0  0  0  0  0  0  0
    3.3096   -8.3681   -8.0966 H   0  0  0  0  0  0  0  0  0  0  0  0
    0.8488   -8.8270   -7.1505 H   0  0  0  0  0  0  0  0  0  0  0  0
    0.7852   -8.1721   -8.8493 H   0  0  0  0  0  0  0  0  0  0  0  0
    2.9284   -8.1407   -5.5532 H   0  0  0  0  0  0  0  0  0  0  0  0
  1  2  2  3
  2  3  1  0
  3  4  2  0
  3  5  1  0
  5  6  2  0
  6  7  1  0
  7  8  2  0
  8  9  1  0
  9 10  2  0
 10 11  1  0
 11 12  2  3
 12 13  1  0
 13 14  3  0
 12 15  1  0
 15 16  3  0
  8 17  1  0
 17 18  1  0
 18 19  1  0
 19 20  2  0
 20 21  1  0
 21 22  1  0
 21 23  1  0
  1 24  1  0
 24 25  2  0
 25 26  1  0
 25 27  1  0
 27 28  1  0
 27 29  2  0
 29 30  1  0
 30 31  1  0
 31 32  2  0
 32 33  1  0
 33 34  1  0
 29 35  1  0
 35 36  2  0
 36 37  1  0
 37 38  2  0
 38 39  1  0
 39 40  2  0
 40 41  1  0
 41 42  1  0
 42 43  2  0
 38 44  1  0
 44 45  2  0
 45 46  1  0
 46 47  1  0
 47 48  2  0
 48 49  1  0
 49 50  2  0
 50 51  1  0
 51 52  1  0
 50 53  1  0
 53 54  2  0
 46 55  1  0
 55 56  2  0
 56 57  1  0
 57 58  2  0
 58 59  1  0
 59 60  1  0
 58 61  1  0
 61 62  2  0
 45 63  1  0
 63 64  1  0
 64 65  1  0
 65 66  2  0
 66 67  1  0
 67 68  1  0
 68 69  2  0
 69 70  1  0
 70 71  2  0
 71 72  1  0
 72 73  1  0
 71 74  1  0
 74 75  2  0
 67 76  1  0
 76 77  2  0
 77 78  1  0
 78 79  2  0
 79 80  1  0
 80 81  1  0
 79 82  1  0
 82 83  2  0
 66 84  1  0
 84 85  1  0
 65 86  1  0
 86 87  2  3
 87 88  1  0
 88 89  2  0
 88 90  1  0
 90 91  2  0
 91 92  1  0
 92 93  2  0
 93 94  1  0
 94 95  2  0
 95 96  1  0
 96 97  2  3
 97 98  1  0
 98 99  3  0
 97100  1  0
100101  3  0
 93102  1  0
102103  1  0
103104  1  0
104105  2  0
105106  1  0
106107  1  0
106108  1  0
 11  2  1  0
 23 17  1  0
 31 24  1  0
 43 35  1  0
 85 44  1  0
 96 87  1  0
108102  1  0
 10  5  1  0
 22 18  1  0
 34 30  2  0
 43 39  1  0
 54 47  1  0
 62 55  1  0
 84 63  2  0
 95 90  1  0
107103  1  0
 23  7  1  0
 75 68  1  0
 83 76  1  0
108 92  1  0
  1109  1  0
  6110  1  0
  9111  1  0
 17112  1  0
 18113  1  0
 19114  1  0
 20115  1  0
 21116  1  0
 22117  1  0
 22118  1  0
 23119  1  0
 36120  1  0
 37121  1  0
 48122  1  0
 49123  1  0
 52124  1  0
 52125  1  0
 52126  1  0
 53127  1  0
 54128  1  0
 56129  1  0
 57130  1  0
 60131  1  0
 60132  1  0
 60133  1  0
 61134  1  0
 62135  1  0
 69136  1  0
 70137  1  0
 73138  1  0
 73139  1  0
 73140  1  0
 74141  1  0
 75142  1  0
 77143  1  0
 78144  1  0
 81145  1  0
 81146  1  0
 81147  1  0
 82148  1  0
 83149  1  0
 86150  1  0
 91151  1  0
 94152  1  0
102153  1  0
103154  1  0
104155  1  0
105156  1  0
106157  1  0
107158  1  0
107159  1  0
108160  1  0
M  END

