
     RDKit          3D

158175  0  0  0  0  0  0  0  0999 V2000
   -6.0066    3.5948   -0.7386 C   0  0  0  0  0  0  0  0  0  0  0  0
   -6.3150    2.6663    0.1993 C   0  0  0  0  0  0  0  0  0  0  0  0
   -5.3525    2.0221    1.1117 C   0  0  0  0  0  0  0  0  0  0  0  0
   -4.3446    2.5576    1.6435 O   0  0  0  0  0  0  0  0  0  0  0  0
   -5.7869    0.6744    1.3779 C   0  0  0  0  0  0  0  0  0  0  0  0
   -5.0387   -0.3346    2.0259 C   0  0  0  0  0  0  0  0  0  0  0  0
   -5.6367   -1.5746    1.9923 C   0  0  0  0  0  0  0  0  0  0  0  0
   -6.9020   -1.8230    1.3699 C   0  0  0  0  0  0  0  0  0  0  0  0
   -7.6454   -0.8306    0.7379 C   0  0  0  0  0  0  0  0  0  0  0  0
   -7.0467    0.4633    0.7649 C   0  0  0  0  0  0  0  0  0  0  0  0
   -7.4866    1.7419    0.1332 C   0  0  0  0  0  0  0  0  0  0  0  0
   -8.7462    2.0741   -0.2413 C   0  0  0  0  0  0  0  0  0  0  0  0
   -9.8366    1.1364   -0.1862 C   0  0  0  0  0  0  0  0  0  0  0  0
  -10.7228    0.3877   -0.1504 N   0  0  0  0  0  0  0  0  0  0  0  0
   -9.0934    3.4239   -0.6026 C   0  0  0  0  0  0  0  0  0  0  0  0
   -9.3769    4.5096   -0.8889 N   0  0  0  0  0  0  0  0  0  0  0  0
   -6.7982   -3.2814    1.7146 C   0  0  0  0  0  0  0  0  0  0  0  0
   -7.6679   -3.7898    2.9006 C   0  0  0  0  0  0  0  0  0  0  0  0
   -7.0949   -5.1337    3.2879 C   0  0  0  0  0  0  0  0  0  0  0  0
   -5.9068   -4.8947    3.8554 C   0  0  0  0  0  0  0  0  0  0  0  0
   -5.7197   -3.3981    3.8338 C   0  0  0  0  0  0  0  0  0  0  0  0
   -7.1578   -2.9722    4.0795 C   0  0  0  0  0  0  0  0  0  0  0  0
   -5.4944   -3.0217    2.3409 C   0  0  0  0  0  0  0  0  0  0  0  0
   -4.6021    3.9633   -1.0292 C   0  0  0  0  0  0  0  0  0  0  0  0
   -3.8095    4.6094   -0.0704 C   0  0  0  0  0  0  0  0  0  0  0  0
   -2.4163    4.4380   -0.0684 C   0  0  0  0  0  0  0  0  0  0  0  0
   -1.7419    4.8639    1.0228 F   0  0  0  0  0  0  0  0  0  0  0  0
   -1.7859    3.6759   -1.0794 C   0  0  0  0  0  0  0  0  0  0  0  0
   -2.5609    3.2989   -2.1905 C   0  0  0  0  0  0  0  0  0  0  0  0
   -3.9766    3.4229   -2.1558 C   0  0  0  0  0  0  0  0  0  0  0  0
   -4.6619    2.8996   -3.2047 N   0  0  0  0  0  0  0  0  0  0  0  0
   -3.4133    2.3370   -4.1285 S   0  0  0  0  0  0  0  0  0  0  0  0
   -2.0381    2.6832   -3.2826 N   0  0  0  0  0  0  0  0  0  0  0  0
   -0.5138    2.9490   -0.8208 C   0  0  0  0  0  0  0  0  0  0  0  0
    0.6434    3.3624   -0.1203 C   0  0  0  0  0  0  0  0  0  0  0  0
    0.8809    4.6768    0.4062 N   0  0  0  0  0  0  0  0  0  0  0  0
    0.9936    5.7876   -0.5105 C   0  0  0  0  0  0  0  0  0  0  0  0
    1.6787    5.6367   -1.7308 C   0  0  0  0  0  0  0  0  0  0  0  0
    1.7941    6.7145   -2.6116 C   0  0  0  0  0  0  0  0  0  0  0  0
    1.2234    7.9508   -2.2905 C   0  0  0  0  0  0  0  0  0  0  0  0
    1.3738    9.3318   -3.4302 S   0  0  0  0  0  0  0  0  0  0  0  0
    2.9449    9.8984   -2.7184 C   0  0  0  0  0  0  0  0  0  0  0  0
    0.5351    8.1079   -1.0824 C   0  0  0  0  0  0  0  0  0  0  0  0
    0.4154    7.0327   -0.1998 C   0  0  0  0  0  0  0  0  0  0  0  0
    1.1057    4.8352    1.8296 C   0  0  0  0  0  0  0  0  0  0  0  0
    1.9694    5.8318    2.3271 C   0  0  0  0  0  0  0  0  0  0  0  0
    2.1492    5.9931    3.7031 C   0  0  0  0  0  0  0  0  0  0  0  0
    1.4858    5.1528    4.6033 C   0  0  0  0  0  0  0  0  0  0  0  0
    1.6876    5.3899    6.3683 S   0  0  0  0  0  0  0  0  0  0  0  0
    0.2185    6.4545    6.5100 C   0  0  0  0  0  0  0  0  0  0  0  0
    0.6529    4.1380    4.1238 C   0  0  0  0  0  0  0  0  0  0  0  0
    0.4664    3.9766    2.7489 C   0  0  0  0  0  0  0  0  0  0  0  0
    1.5264    2.2995    0.0762 C   0  0  0  0  0  0  0  0  0  0  0  0
    3.0176    2.1213    0.8343 S   0  0  0  0  0  0  0  0  0  0  0  0
    3.0750    0.4367    0.5797 C   0  0  0  0  0  0  0  0  0  0  0  0
    1.9290    0.0244   -0.1149 C   0  0  0  0  0  0  0  0  0  0  0  0
    1.5045   -1.3432   -0.2467 N   0  0  0  0  0  0  0  0  0  0  0  0
    1.1938   -2.0646    0.9586 C   0  0  0  0  0  0  0  0  0  0  0  0
    1.5847   -3.4065    1.1041 C   0  0  0  0  0  0  0  0  0  0  0  0
    1.3317   -4.0847    2.3021 C   0  0  0  0  0  0  0  0  0  0  0  0
    0.6909   -3.4312    3.3613 C   0  0  0  0  0  0  0  0  0  0  0  0
    0.4479   -4.2591    4.9307 S   0  0  0  0  0  0  0  0  0  0  0  0
    1.9958   -3.6176    5.6499 C   0  0  0  0  0  0  0  0  0  0  0  0
    0.2601   -2.1095    3.2066 C   0  0  0  0  0  0  0  0  0  0  0  0
    0.5140   -1.4290    2.0159 C   0  0  0  0  0  0  0  0  0  0  0  0
    1.0356   -1.8170   -1.5272 C   0  0  0  0  0  0  0  0  0  0  0  0
    1.7930   -1.5848   -2.6858 C   0  0  0  0  0  0  0  0  0  0  0  0
    1.2981   -1.9388   -3.9441 C   0  0  0  0  0  0  0  0  0  0  0  0
    0.0346   -2.5265   -4.0597 C   0  0  0  0  0  0  0  0  0  0  0  0
   -0.6169   -2.9165   -5.6827 S   0  0  0  0  0  0  0  0  0  0  0  0
   -1.3812   -1.2777   -5.9010 C   0  0  0  0  0  0  0  0  0  0  0  0
   -0.7141   -2.7993   -2.9108 C   0  0  0  0  0  0  0  0  0  0  0  0
   -0.2191   -2.4469   -1.6513 C   0  0  0  0  0  0  0  0  0  0  0  0
    1.1044    1.1028   -0.3913 C   0  0  0  0  0  0  0  0  0  0  0  0
   -0.3965    1.2656   -1.0900 S   0  0  0  0  0  0  0  0  0  0  0  0
    4.2940   -0.3638    0.6907 C   0  0  0  0  0  0  0  0  0  0  0  0
    4.7644   -1.3160    2.0119 S   0  0  0  0  0  0  0  0  0  0  0  0
    6.0376   -2.1420    1.2451 C   0  0  0  0  0  0  0  0  0  0  0  0
    6.0825   -1.6410   -0.0443 C   0  0  0  0  0  0  0  0  0  0  0  0
    6.9924   -2.0305   -1.3984 S   0  0  0  0  0  0  0  0  0  0  0  0
    6.1858   -0.9300   -2.4154 C   0  0  0  0  0  0  0  0  0  0  0  0
    6.2860   -0.9206   -3.8824 C   0  0  0  0  0  0  0  0  0  0  0  0
    7.4297   -1.0628   -4.6632 C   0  0  0  0  0  0  0  0  0  0  0  0
    7.1641   -1.1202   -6.0409 C   0  0  0  0  0  0  0  0  0  0  0  0
    5.8085   -1.0465   -6.3412 C   0  0  0  0  0  0  0  0  0  0  0  0
    5.1917   -1.1425   -7.6683 C   0  0  0  0  0  0  0  0  0  0  0  0
    5.9146   -1.2850   -8.6930 O   0  0  0  0  0  0  0  0  0  0  0  0
    3.7976   -1.0970   -7.7747 O   0  0  0  0  0  0  0  0  0  0  0  0
    3.1088   -1.2630   -9.0050 C   0  0  0  0  0  0  0  0  0  0  0  0
    1.6078   -1.2038   -8.7563 C   0  0  0  0  0  0  0  0  0  0  0  0
    4.9508   -0.8955   -4.9109 S   0  0  0  0  0  0  0  0  0  0  0  0
    9.0642   -1.1204   -4.0189 Cl  0  0  0  0  0  0  0  0  0  0  0  0
    5.2122   -0.2342   -1.6828 C   0  0  0  0  0  0  0  0  0  0  0  0
    5.1481   -0.6806   -0.3582 C   0  0  0  0  0  0  0  0  0  0  0  0
    4.3013    1.1322   -2.3176 Cl  0  0  0  0  0  0  0  0  0  0  0  0
    7.0460   -3.0292    1.8469 C   0  0  0  0  0  0  0  0  0  0  0  0
    6.8042   -3.9741    2.7653 C   0  0  0  0  0  0  0  0  0  0  0  0
    5.5222   -4.4869    3.2783 C   0  0  0  0  0  0  0  0  0  0  0  0
    4.3707   -4.1159    2.9325 O   0  0  0  0  0  0  0  0  0  0  0  0
    5.8080   -5.5951    4.1896 C   0  0  0  0  0  0  0  0  0  0  0  0
    4.9288   -6.4195    4.8943 C   0  0  0  0  0  0  0  0  0  0  0  0
    5.4686   -7.4444    5.6885 C   0  0  0  0  0  0  0  0  0  0  0  0
    6.8622   -7.6420    5.7510 C   0  0  0  0  0  0  0  0  0  0  0  0
    7.7330   -6.8111    5.0240 C   0  0  0  0  0  0  0  0  0  0  0  0
    7.1733   -5.7925    4.2509 C   0  0  0  0  0  0  0  0  0  0  0  0
    7.8319   -4.8209    3.3877 C   0  0  0  0  0  0  0  0  0  0  0  0
    9.0746   -4.7329    3.1996 O   0  0  0  0  0  0  0  0  0  0  0  0
   -6.7185    3.8040   -1.5228 H   0  0  0  0  0  0  0  0  0  0  0  0
   -4.0592   -0.1670    2.4597 H   0  0  0  0  0  0  0  0  0  0  0  0
   -8.5651   -1.0707    0.2255 H   0  0  0  0  0  0  0  0  0  0  0  0
   -6.7516   -3.9446    0.8218 H   0  0  0  0  0  0  0  0  0  0  0  0
   -8.7654   -3.7676    2.7404 H   0  0  0  0  0  0  0  0  0  0  0  0
   -7.5785   -6.1002    3.2076 H   0  0  0  0  0  0  0  0  0  0  0  0
   -5.2619   -5.6344    4.3171 H   0  0  0  0  0  0  0  0  0  0  0  0
   -4.9692   -3.0056    4.5518 H   0  0  0  0  0  0  0  0  0  0  0  0
   -7.3319   -1.8766    3.9911 H   0  0  0  0  0  0  0  0  0  0  0  0
   -7.5598   -3.3153    5.0599 H   0  0  0  0  0  0  0  0  0  0  0  0
   -4.6323   -3.5116    1.8406 H   0  0  0  0  0  0  0  0  0  0  0  0
   -4.2870    5.0815    0.7819 H   0  0  0  0  0  0  0  0  0  0  0  0
    2.1373    4.6916   -1.9897 H   0  0  0  0  0  0  0  0  0  0  0  0
    2.3248    6.5861   -3.5458 H   0  0  0  0  0  0  0  0  0  0  0  0
    3.2781   10.8190   -3.2420 H   0  0  0  0  0  0  0  0  0  0  0  0
    2.8252   10.1363   -1.6392 H   0  0  0  0  0  0  0  0  0  0  0  0
    3.7253    9.1210   -2.8420 H   0  0  0  0  0  0  0  0  0  0  0  0
    0.0968    9.0661   -0.8233 H   0  0  0  0  0  0  0  0  0  0  0  0
   -0.1187    7.1672    0.7329 H   0  0  0  0  0  0  0  0  0  0  0  0
    2.5002    6.4858    1.6496 H   0  0  0  0  0  0  0  0  0  0  0  0
    2.8036    6.7706    4.0698 H   0  0  0  0  0  0  0  0  0  0  0  0
    0.1297    6.8165    7.5553 H   0  0  0  0  0  0  0  0  0  0  0  0
    0.3092    7.3245    5.8318 H   0  0  0  0  0  0  0  0  0  0  0  0
   -0.6968    5.8806    6.2522 H   0  0  0  0  0  0  0  0  0  0  0  0
    0.1387    3.4820    4.8163 H   0  0  0  0  0  0  0  0  0  0  0  0
   -0.1996    3.1942    2.4082 H   0  0  0  0  0  0  0  0  0  0  0  0
    2.1067   -3.9121    0.3020 H   0  0  0  0  0  0  0  0  0  0  0  0
    1.6551   -5.1148    2.4134 H   0  0  0  0  0  0  0  0  0  0  0  0
    1.9645   -3.7335    6.7493 H   0  0  0  0  0  0  0  0  0  0  0  0
    2.8558   -4.1898    5.2504 H   0  0  0  0  0  0  0  0  0  0  0  0
    2.1347   -2.5450    5.4148 H   0  0  0  0  0  0  0  0  0  0  0  0
   -0.2447   -1.5990    4.0172 H   0  0  0  0  0  0  0  0  0  0  0  0
    0.1885   -0.4018    1.9181 H   0  0  0  0  0  0  0  0  0  0  0  0
    2.7691   -1.1342   -2.6160 H   0  0  0  0  0  0  0  0  0  0  0  0
    1.8895   -1.7429   -4.8316 H   0  0  0  0  0  0  0  0  0  0  0  0
   -2.1914   -1.1365   -5.1554 H   0  0  0  0  0  0  0  0  0  0  0  0
   -1.8125   -1.2062   -6.9198 H   0  0  0  0  0  0  0  0  0  0  0  0
   -0.6226   -0.4783   -5.7778 H   0  0  0  0  0  0  0  0  0  0  0  0
   -1.6896   -3.2580   -2.9938 H   0  0  0  0  0  0  0  0  0  0  0  0
   -0.8294   -2.6296   -0.7736 H   0  0  0  0  0  0  0  0  0  0  0  0
    7.9392   -1.2245   -6.7916 H   0  0  0  0  0  0  0  0  0  0  0  0
    3.3642   -2.2491   -9.4474 H   0  0  0  0  0  0  0  0  0  0  0  0
    3.3941   -0.4562   -9.7129 H   0  0  0  0  0  0  0  0  0  0  0  0
    1.3301   -0.2123   -8.3360 H   0  0  0  0  0  0  0  0  0  0  0  0
    1.0615   -1.3548   -9.7119 H   0  0  0  0  0  0  0  0  0  0  0  0
    1.3084   -1.9984   -8.0403 H   0  0  0  0  0  0  0  0  0  0  0  0
    8.0648   -2.9057    1.5002 H   0  0  0  0  0  0  0  0  0  0  0  0
    3.8576   -6.2820    4.8285 H   0  0  0  0  0  0  0  0  0  0  0  0
    4.8075   -8.0966    6.2443 H   0  0  0  0  0  0  0  0  0  0  0  0
    7.2640   -8.4447    6.3569 H   0  0  0  0  0  0  0  0  0  0  0  0
    8.8064   -6.9631    5.0591 H   0  0  0  0  0  0  0  0  0  0  0  0
  1  2  2  3
  2  3  1  0
  3  4  2  0
  3  5  1  0
  5  6  2  0
  6  7  1  0
  7  8  2  0
  8  9  1  0
  9 10  2  0
 10 11  1  0
 11 12  2  3
 12 13  1  0
 13 14  3  0
 12 15  1  0
 15 16  3  0
  8 17  1  0
 17 18  1  0
 18 19  1  0
 19 20  2  0
 20 21  1  0
 21 22  1  0
 21 23  1  0
  1 24  1  0
 24 25  2  0
 25 26  1  0
 26 27  1  0
 26 28  2  0
 28 29  1  0
 29 30  1  0
 30 31  2  0
 31 32  1  0
 32 33  1  0
 28 34  1  0
 34 35  2  0
 35 36  1  0
 36 37  1  0
 37 38  2  0
 38 39  1  0
 39 40  2  0
 40 41  1  0
 41 42  1  0
 40 43  1  0
 43 44  2  0
 36 45  1  0
 45 46  2  0
 46 47  1  0
 47 48  2  0
 48 49  1  0
 49 50  1  0
 48 51  1  0
 51 52  2  0
 35 53  1  0
 53 54  1  0
 54 55  1  0
 55 56  2  0
 56 57  1  0
 57 58  1  0
 58 59  2  0
 59 60  1  0
 60 61  2  0
 61 62  1  0
 62 63  1  0
 61 64  1  0
 64 65  2  0
 57 66  1  0
 66 67  2  0
 67 68  1  0
 68 69  2  0
 69 70  1  0
 70 71  1  0
 69 72  1  0
 72 73  2  0
 56 74  1  0
 74 75  1  0
 55 76  1  0
 76 77  1  0
 77 78  1  0
 78 79  2  0
 79 80  1  0
 80 81  1  0
 81 82  1  0
 82 83  2  0
 83 84  1  0
 84 85  2  0
 85 86  1  0
 86 87  2  0
 86 88  1  0
 88 89  1  0
 89 90  1  0
 85 91  1  0
 83 92  1  0
 81 93  2  0
 93 94  1  0
 93 95  1  0
 78 96  1  0
 96 97  2  3
 97 98  1  0
 98 99  2  0
 98100  1  0
100101  2  0
101102  1  0
102103  2  0
103104  1  0
104105  2  0
105106  1  0
106107  2  0
 11  2  1  0
 23 17  1  0
 30 24  1  0
 75 34  1  0
 94 76  2  0
106 97  1  0
 10  5  1  0
 22 18  1  0
 33 29  2  0
 44 37  1  0
 52 45  1  0
 74 53  2  0
 94 79  1  0
105100  1  0
 23  7  1  0
 65 58  1  0
 73 66  1  0
 91 82  1  0
  1108  1  0
  6109  1  0
  9110  1  0
 17111  1  0
 18112  1  0
 19113  1  0
 20114  1  0
 21115  1  0
 22116  1  0
 22117  1  0
 23118  1  0
 25119  1  0
 38120  1  0
 39121  1  0
 42122  1  0
 42123  1  0
 42124  1  0
 43125  1  0
 44126  1  0
 46127  1  0
 47128  1  0
 50129  1  0
 50130  1  0
 50131  1  0
 51132  1  0
 52133  1  0
 59134  1  0
 60135  1  0
 63136  1  0
 63137  1  0
 63138  1  0
 64139  1  0
 65140  1  0
 67141  1  0
 68142  1  0
 71143  1  0
 71144  1  0
 71145  1  0
 72146  1  0
 73147  1  0
 84148  1  0
 89149  1  0
 89150  1  0
 90151  1  0
 90152  1  0
 90153  1  0
 96154  1  0
101155  1  0
102156  1  0
103157  1  0
104158  1  0
M  END

