
     RDKit          3D

217241  0  0  0  0  0  0  0  0999 V2000
   -3.0130   -2.2659   -5.3854 C   0  0  0  0  0  0  0  0  0  0  0  0
   -3.8843   -1.4278   -5.9873 C   0  0  0  0  0  0  0  0  0  0  0  0
   -3.9274    0.0288   -5.7871 C   0  0  0  0  0  0  0  0  0  0  0  0
   -3.4016    0.6794   -4.8457 O   0  0  0  0  0  0  0  0  0  0  0  0
   -4.7010    0.6242   -6.8499 C   0  0  0  0  0  0  0  0  0  0  0  0
   -5.0072    1.9981   -6.9999 C   0  0  0  0  0  0  0  0  0  0  0  0
   -5.8431    2.2692   -8.0662 C   0  0  0  0  0  0  0  0  0  0  0  0
   -6.3129    1.2609   -8.9701 C   0  0  0  0  0  0  0  0  0  0  0  0
   -5.9967   -0.0831   -8.8417 C   0  0  0  0  0  0  0  0  0  0  0  0
   -5.1799   -0.3962   -7.7086 C   0  0  0  0  0  0  0  0  0  0  0  0
   -4.7600   -1.7261   -7.1634 C   0  0  0  0  0  0  0  0  0  0  0  0
   -5.1879   -2.9517   -7.5658 C   0  0  0  0  0  0  0  0  0  0  0  0
   -5.9429   -3.1654   -8.7718 C   0  0  0  0  0  0  0  0  0  0  0  0
   -6.5386   -3.3769   -9.7396 N   0  0  0  0  0  0  0  0  0  0  0  0
   -5.0175   -4.1287   -6.7475 C   0  0  0  0  0  0  0  0  0  0  0  0
   -4.8906   -5.0661   -6.0865 N   0  0  0  0  0  0  0  0  0  0  0  0
   -7.0865    2.2859   -9.7430 C   0  0  0  0  0  0  0  0  0  0  0  0
   -6.5237    2.7710  -11.1123 C   0  0  0  0  0  0  0  0  0  0  0  0
   -5.0140    2.7193  -11.1025 C   0  0  0  0  0  0  0  0  0  0  0  0
   -4.6013    3.6552  -10.2465 C   0  0  0  0  0  0  0  0  0  0  0  0
   -5.8470    4.3175   -9.7091 C   0  0  0  0  0  0  0  0  0  0  0  0
   -6.7164    4.2681  -10.9482 C   0  0  0  0  0  0  0  0  0  0  0  0
   -6.6252    3.3186   -8.8046 C   0  0  0  0  0  0  0  0  0  0  0  0
   -1.9658   -1.7824   -4.4828 C   0  0  0  0  0  0  0  0  0  0  0  0
   -0.6487   -1.5184   -4.8711 C   0  0  0  0  0  0  0  0  0  0  0  0
   -0.0353   -2.0444   -6.0512 N   0  0  0  0  0  0  0  0  0  0  0  0
    0.8080   -3.2206   -5.9730 C   0  0  0  0  0  0  0  0  0  0  0  0
    1.7898   -3.4714   -6.9530 C   0  0  0  0  0  0  0  0  0  0  0  0
    2.6361   -4.5785   -6.8479 C   0  0  0  0  0  0  0  0  0  0  0  0
    2.5281   -5.4478   -5.7560 C   0  0  0  0  0  0  0  0  0  0  0  0
    3.6592   -6.8274   -5.6068 S   0  0  0  0  0  0  0  0  0  0  0  0
    4.8909   -5.8612   -4.6758 C   0  0  0  0  0  0  0  0  0  0  0  0
    1.5476   -5.2234   -4.7861 C   0  0  0  0  0  0  0  0  0  0  0  0
    0.6903   -4.1262   -4.8913 C   0  0  0  0  0  0  0  0  0  0  0  0
   -0.2069   -1.3533   -7.2925 C   0  0  0  0  0  0  0  0  0  0  0  0
   -1.1514   -1.8064   -8.2273 C   0  0  0  0  0  0  0  0  0  0  0  0
   -1.2026   -1.2452   -9.5076 C   0  0  0  0  0  0  0  0  0  0  0  0
   -0.2884   -0.2490   -9.8658 C   0  0  0  0  0  0  0  0  0  0  0  0
   -0.2769    0.3751  -11.5538 S   0  0  0  0  0  0  0  0  0  0  0  0
   -1.1635    1.9121  -11.1575 C   0  0  0  0  0  0  0  0  0  0  0  0
    0.6420    0.2190   -8.9363 C   0  0  0  0  0  0  0  0  0  0  0  0
    0.6740   -0.3233   -7.6445 C   0  0  0  0  0  0  0  0  0  0  0  0
    0.0422   -0.8656   -3.8568 C   0  0  0  0  0  0  0  0  0  0  0  0
    1.5623   -0.1836   -3.7381 S   0  0  0  0  0  0  0  0  0  0  0  0
    1.3474    0.3492   -2.1275 C   0  0  0  0  0  0  0  0  0  0  0  0
    0.0776   -0.0751   -1.6732 C   0  0  0  0  0  0  0  0  0  0  0  0
   -0.3660   -0.0694   -0.3038 N   0  0  0  0  0  0  0  0  0  0  0  0
   -1.7005    0.4121   -0.0602 C   0  0  0  0  0  0  0  0  0  0  0  0
   -2.0353    1.7403   -0.3742 C   0  0  0  0  0  0  0  0  0  0  0  0
   -3.3606    2.1755   -0.2541 C   0  0  0  0  0  0  0  0  0  0  0  0
   -4.3646    1.2847    0.1385 C   0  0  0  0  0  0  0  0  0  0  0  0
   -6.0724    1.8259    0.1768 S   0  0  0  0  0  0  0  0  0  0  0  0
   -6.3836    1.3644   -1.5575 C   0  0  0  0  0  0  0  0  0  0  0  0
   -4.0322   -0.0335    0.4746 C   0  0  0  0  0  0  0  0  0  0  0  0
   -2.7065   -0.4680    0.3706 C   0  0  0  0  0  0  0  0  0  0  0  0
    0.3727   -0.7828    0.7339 C   0  0  0  0  0  0  0  0  0  0  0  0
   -0.0323   -0.7081    2.0858 C   0  0  0  0  0  0  0  0  0  0  0  0
    0.6514   -1.4204    3.0776 C   0  0  0  0  0  0  0  0  0  0  0  0
    1.8027   -2.1429    2.7566 C   0  0  0  0  0  0  0  0  0  0  0  0
    2.7005   -3.0343    4.0261 S   0  0  0  0  0  0  0  0  0  0  0  0
    3.6749   -1.5853    4.5329 C   0  0  0  0  0  0  0  0  0  0  0  0
    2.2306   -2.2131    1.4321 C   0  0  0  0  0  0  0  0  0  0  0  0
    1.5125   -1.5593    0.4279 C   0  0  0  0  0  0  0  0  0  0  0  0
   -0.6406   -0.6946   -2.6983 C   0  0  0  0  0  0  0  0  0  0  0  0
   -2.1983   -1.3015   -2.8627 S   0  0  0  0  0  0  0  0  0  0  0  0
    2.3682    1.1282   -1.3867 C   0  0  0  0  0  0  0  0  0  0  0  0
    2.0244    1.9820   -0.3123 C   0  0  0  0  0  0  0  0  0  0  0  0
    3.0443    2.6648    0.3594 C   0  0  0  0  0  0  0  0  0  0  0  0
    2.9577    3.4918    1.6175 C   0  0  0  0  0  0  0  0  0  0  0  0
    2.3936    4.8612    1.3270 C   0  0  0  0  0  0  0  0  0  0  0  0
    2.8158    5.7933    0.3746 C   0  0  0  0  0  0  0  0  0  0  0  0
    2.0622    6.9626    0.1851 C   0  0  0  0  0  0  0  0  0  0  0  0
    0.8955    7.2007    0.9592 C   0  0  0  0  0  0  0  0  0  0  0  0
    0.1030    8.3461    0.7865 O   0  0  0  0  0  0  0  0  0  0  0  0
    0.2906    9.3093   -0.2500 C   0  0  0  0  0  0  0  0  0  0  0  0
   -0.7051   10.4439   -0.0641 C   0  0  0  0  0  0  0  0  0  0  0  0
    0.5048    6.2613    1.9286 C   0  0  0  0  0  0  0  0  0  0  0  0
    1.2610    5.0997    2.0838 C   0  0  0  0  0  0  0  0  0  0  0  0
    1.0229    3.9455    2.9314 C   0  0  0  0  0  0  0  0  0  0  0  0
    0.0675    3.7688    3.9245 C   0  0  0  0  0  0  0  0  0  0  0  0
    0.1031    2.5858    4.6909 C   0  0  0  0  0  0  0  0  0  0  0  0
   -0.8645    2.4173    5.6915 O   0  0  0  0  0  0  0  0  0  0  0  0
   -0.9717    1.2487    6.5044 C   0  0  0  0  0  0  0  0  0  0  0  0
   -2.1074    1.4060    7.5022 C   0  0  0  0  0  0  0  0  0  0  0  0
    1.0995    1.6134    4.4209 C   0  0  0  0  0  0  0  0  0  0  0  0
    2.0485    1.8112    3.3994 C   0  0  0  0  0  0  0  0  0  0  0  0
    1.9920    2.9901    2.6639 C   0  0  0  0  0  0  0  0  0  0  0  0
    4.4107    3.5251    2.0429 C   0  0  0  0  0  0  0  0  0  0  0  0
    5.2152    3.1137    0.9872 C   0  0  0  0  0  0  0  0  0  0  0  0
    4.3647    2.5469   -0.0440 C   0  0  0  0  0  0  0  0  0  0  0  0
    4.7310    1.7191   -1.0991 C   0  0  0  0  0  0  0  0  0  0  0  0
    3.7262    1.0168   -1.7726 C   0  0  0  0  0  0  0  0  0  0  0  0
    6.5855    2.9004    1.1447 C   0  0  0  0  0  0  0  0  0  0  0  0
    7.1164    2.9308    2.4335 C   0  0  0  0  0  0  0  0  0  0  0  0
    6.2636    3.0670    3.5517 C   0  0  0  0  0  0  0  0  0  0  0  0
    4.9265    3.4827    3.3539 C   0  0  0  0  0  0  0  0  0  0  0  0
    6.6057    2.3143    4.7861 C   0  0  0  0  0  0  0  0  0  0  0  0
    7.0546    0.9794    4.6313 C   0  0  0  0  0  0  0  0  0  0  0  0
    7.0640    0.1343    5.7372 C   0  0  0  0  0  0  0  0  0  0  0  0
    7.1320   -1.2188    5.7069 N   0  0  0  0  0  0  0  0  0  0  0  0
    7.3792   -2.0527    4.5173 C   0  0  0  0  0  0  0  0  0  0  0  0
    8.8360   -1.9545    4.0855 C   0  0  0  0  0  0  0  0  0  0  0  0
    6.7056   -1.6186    6.9327 C   0  0  0  0  0  0  0  0  0  0  0  0
    6.4546   -0.5256    7.7490 C   0  0  0  0  0  0  0  0  0  0  0  0
    6.6767    0.5949    6.9800 C   0  0  0  0  0  0  0  0  0  0  0  0
    6.2832    1.9186    7.1872 C   0  0  0  0  0  0  0  0  0  0  0  0
    6.2568    2.7868    6.0760 C   0  0  0  0  0  0  0  0  0  0  0  0
    5.8042   -0.6545    8.9791 C   0  0  0  0  0  0  0  0  0  0  0  0
    5.2938   -1.9195    9.3308 C   0  0  0  0  0  0  0  0  0  0  0  0
    5.4139   -3.0050    8.4300 C   0  0  0  0  0  0  0  0  0  0  0  0
    6.2064   -2.8864    7.2733 C   0  0  0  0  0  0  0  0  0  0  0  0
    4.5052   -4.1616    8.5088 C   0  0  0  0  0  0  0  0  0  0  0  0
    3.2642   -4.1160    7.9684 C   0  0  0  0  0  0  0  0  0  0  0  0
    2.4727   -2.8932    7.7642 C   0  0  0  0  0  0  0  0  0  0  0  0
    2.8441   -1.7080    7.9915 O   0  0  0  0  0  0  0  0  0  0  0  0
    1.1668   -3.2505    7.2777 C   0  0  0  0  0  0  0  0  0  0  0  0
    0.1446   -2.3536    6.8866 C   0  0  0  0  0  0  0  0  0  0  0  0
   -0.9248   -2.9615    6.2541 C   0  0  0  0  0  0  0  0  0  0  0  0
   -0.9939   -4.3740    6.0239 C   0  0  0  0  0  0  0  0  0  0  0  0
   -0.0125   -5.2628    6.4354 C   0  0  0  0  0  0  0  0  0  0  0  0
    1.0934   -4.6578    7.1093 C   0  0  0  0  0  0  0  0  0  0  0  0
    2.3918   -5.2613    7.5495 C   0  0  0  0  0  0  0  0  0  0  0  0
    2.7635   -6.5648    7.4008 C   0  0  0  0  0  0  0  0  0  0  0  0
    1.8061   -7.6137    7.1757 C   0  0  0  0  0  0  0  0  0  0  0  0
    1.0482   -8.4710    6.9999 N   0  0  0  0  0  0  0  0  0  0  0  0
    4.1306   -6.9854    7.3768 C   0  0  0  0  0  0  0  0  0  0  0  0
    5.2423   -7.3301    7.3225 N   0  0  0  0  0  0  0  0  0  0  0  0
   -2.2801   -4.2057    5.2673 C   0  0  0  0  0  0  0  0  0  0  0  0
   -3.5791   -4.6651    5.9885 C   0  0  0  0  0  0  0  0  0  0  0  0
   -4.7201   -4.0332    5.2234 C   0  0  0  0  0  0  0  0  0  0  0  0
   -4.6694   -2.7190    5.4820 C   0  0  0  0  0  0  0  0  0  0  0  0
   -3.4930   -2.5110    6.4045 C   0  0  0  0  0  0  0  0  0  0  0  0
   -3.6086   -3.7847    7.2254 C   0  0  0  0  0  0  0  0  0  0  0  0
   -2.2276   -2.7625    5.5323 C   0  0  0  0  0  0  0  0  0  0  0  0
   -2.8942   -3.2821   -5.7161 H   0  0  0  0  0  0  0  0  0  0  0  0
   -4.6395    2.7645   -6.3273 H   0  0  0  0  0  0  0  0  0  0  0  0
   -6.3793   -0.8022   -9.5499 H   0  0  0  0  0  0  0  0  0  0  0  0
   -8.1846    2.1203   -9.7176 H   0  0  0  0  0  0  0  0  0  0  0  0
   -7.0102    2.3266  -12.0100 H   0  0  0  0  0  0  0  0  0  0  0  0
   -4.3687    2.1008  -11.7231 H   0  0  0  0  0  0  0  0  0  0  0  0
   -3.5745    3.9328  -10.0552 H   0  0  0  0  0  0  0  0  0  0  0  0
   -5.6949    5.3250   -9.2800 H   0  0  0  0  0  0  0  0  0  0  0  0
   -7.7758    4.5652  -10.7592 H   0  0  0  0  0  0  0  0  0  0  0  0
   -6.3213    4.8660  -11.8013 H   0  0  0  0  0  0  0  0  0  0  0  0
   -7.4511    3.7637   -8.2072 H   0  0  0  0  0  0  0  0  0  0  0  0
    1.9185   -2.8114   -7.8010 H   0  0  0  0  0  0  0  0  0  0  0  0
    3.3890   -4.7589   -7.6061 H   0  0  0  0  0  0  0  0  0  0  0  0
    5.7780   -6.4954   -4.4720 H   0  0  0  0  0  0  0  0  0  0  0  0
    4.4547   -5.5169   -3.7150 H   0  0  0  0  0  0  0  0  0  0  0  0
    5.2194   -4.9794   -5.2651 H   0  0  0  0  0  0  0  0  0  0  0  0
    1.4662   -5.8949   -3.9346 H   0  0  0  0  0  0  0  0  0  0  0  0
   -0.0584   -3.9851   -4.1235 H   0  0  0  0  0  0  0  0  0  0  0  0
   -1.8186   -2.6224   -7.9798 H   0  0  0  0  0  0  0  0  0  0  0  0
   -1.9089   -1.6322  -10.2318 H   0  0  0  0  0  0  0  0  0  0  0  0
   -1.5597    2.3454  -12.0978 H   0  0  0  0  0  0  0  0  0  0  0  0
   -2.0069    1.7238  -10.4616 H   0  0  0  0  0  0  0  0  0  0  0  0
   -0.4520    2.6355  -10.7100 H   0  0  0  0  0  0  0  0  0  0  0  0
    1.3620    0.9797   -9.2082 H   0  0  0  0  0  0  0  0  0  0  0  0
    1.4250    0.0026   -6.9406 H   0  0  0  0  0  0  0  0  0  0  0  0
   -1.2776    2.4273   -0.7341 H   0  0  0  0  0  0  0  0  0  0  0  0
   -3.6075    3.2029   -0.4994 H   0  0  0  0  0  0  0  0  0  0  0  0
   -7.4416    1.5896   -1.8107 H   0  0  0  0  0  0  0  0  0  0  0  0
   -6.1990    0.2769   -1.7001 H   0  0  0  0  0  0  0  0  0  0  0  0
   -5.7199    1.9467   -2.2368 H   0  0  0  0  0  0  0  0  0  0  0  0
   -4.8007   -0.7272    0.7876 H   0  0  0  0  0  0  0  0  0  0  0  0
   -2.4685   -1.5034    0.5866 H   0  0  0  0  0  0  0  0  0  0  0  0
   -0.8812   -0.1147    2.3840 H   0  0  0  0  0  0  0  0  0  0  0  0
    0.3115   -1.3773    4.1009 H   0  0  0  0  0  0  0  0  0  0  0  0
    4.2563   -1.1903    3.6725 H   0  0  0  0  0  0  0  0  0  0  0  0
    3.0018   -0.7987    4.9307 H   0  0  0  0  0  0  0  0  0  0  0  0
    4.3672   -1.8819    5.3419 H   0  0  0  0  0  0  0  0  0  0  0  0
    3.1135   -2.7899    1.1743 H   0  0  0  0  0  0  0  0  0  0  0  0
    1.8490   -1.6918   -0.5891 H   0  0  0  0  0  0  0  0  0  0  0  0
    1.0015    2.1045    0.0150 H   0  0  0  0  0  0  0  0  0  0  0  0
    3.6929    5.6068   -0.2347 H   0  0  0  0  0  0  0  0  0  0  0  0
    2.3817    7.6666   -0.5678 H   0  0  0  0  0  0  0  0  0  0  0  0
    0.1186    8.8347   -1.2386 H   0  0  0  0  0  0  0  0  0  0  0  0
    1.3219    9.7187   -0.2047 H   0  0  0  0  0  0  0  0  0  0  0  0
   -0.5170   10.9620    0.9026 H   0  0  0  0  0  0  0  0  0  0  0  0
   -1.7431   10.0484   -0.0742 H   0  0  0  0  0  0  0  0  0  0  0  0
   -0.5887   11.1800   -0.8886 H   0  0  0  0  0  0  0  0  0  0  0  0
   -0.3840    6.4256    2.5281 H   0  0  0  0  0  0  0  0  0  0  0  0
   -0.6716    4.5291    4.1274 H   0  0  0  0  0  0  0  0  0  0  0  0
   -0.0224    1.1008    7.0606 H   0  0  0  0  0  0  0  0  0  0  0  0
   -1.1786    0.3707    5.8546 H   0  0  0  0  0  0  0  0  0  0  0  0
   -1.8585    2.1984    8.2407 H   0  0  0  0  0  0  0  0  0  0  0  0
   -2.2587    0.4443    8.0369 H   0  0  0  0  0  0  0  0  0  0  0  0
   -3.0455    1.6822    6.9766 H   0  0  0  0  0  0  0  0  0  0  0  0
    1.1524    0.7062    5.0012 H   0  0  0  0  0  0  0  0  0  0  0  0
    2.8057    1.0699    3.2008 H   0  0  0  0  0  0  0  0  0  0  0  0
    5.7649    1.5748   -1.3650 H   0  0  0  0  0  0  0  0  0  0  0  0
    4.0265    0.3544   -2.5725 H   0  0  0  0  0  0  0  0  0  0  0  0
    7.1950    2.5636    0.3170 H   0  0  0  0  0  0  0  0  0  0  0  0
    8.1455    2.6312    2.5729 H   0  0  0  0  0  0  0  0  0  0  0  0
    4.2448    3.5523    4.1923 H   0  0  0  0  0  0  0  0  0  0  0  0
    7.2374    0.5770    3.6451 H   0  0  0  0  0  0  0  0  0  0  0  0
    7.1486   -3.1158    4.7107 H   0  0  0  0  0  0  0  0  0  0  0  0
    6.7275   -1.7191    3.6833 H   0  0  0  0  0  0  0  0  0  0  0  0
    9.0082   -2.6086    3.2031 H   0  0  0  0  0  0  0  0  0  0  0  0
    9.0948   -0.9191    3.7932 H   0  0  0  0  0  0  0  0  0  0  0  0
    9.4978   -2.2864    4.9109 H   0  0  0  0  0  0  0  0  0  0  0  0
    5.9268    2.2475    8.1547 H   0  0  0  0  0  0  0  0  0  0  0  0
    5.8885    3.7923    6.2009 H   0  0  0  0  0  0  0  0  0  0  0  0
    5.5955    0.2164    9.5868 H   0  0  0  0  0  0  0  0  0  0  0  0
    4.6848   -2.0128   10.2213 H   0  0  0  0  0  0  0  0  0  0  0  0
    6.2622   -3.7272    6.5877 H   0  0  0  0  0  0  0  0  0  0  0  0
    4.9646   -5.0992    8.7709 H   0  0  0  0  0  0  0  0  0  0  0  0
    0.2169   -1.2858    7.0080 H   0  0  0  0  0  0  0  0  0  0  0  0
   -0.0841   -6.3047    6.1785 H   0  0  0  0  0  0  0  0  0  0  0  0
   -2.2013   -4.4746    4.1905 H   0  0  0  0  0  0  0  0  0  0  0  0
   -3.6681   -5.7568    6.1693 H   0  0  0  0  0  0  0  0  0  0  0  0
   -5.4852   -4.5384    4.6445 H   0  0  0  0  0  0  0  0  0  0  0  0
   -5.3951   -1.9807    5.1547 H   0  0  0  0  0  0  0  0  0  0  0  0
   -3.4994   -1.5573    6.9781 H   0  0  0  0  0  0  0  0  0  0  0  0
   -2.7588   -3.9588    7.9226 H   0  0  0  0  0  0  0  0  0  0  0  0
   -4.5727   -3.8552    7.7900 H   0  0  0  0  0  0  0  0  0  0  0  0
   -2.1409   -2.1306    4.6211 H   0  0  0  0  0  0  0  0  0  0  0  0
  1  2  2  3
  2  3  1  0
  3  4  2  0
  3  5  1  0
  5  6  2  0
  6  7  1  0
  7  8  2  0
  8  9  1  0
  9 10  2  0
 10 11  1  0
 11 12  2  3
 12 13  1  0
 13 14  3  0
 12 15  1  0
 15 16  3  0
  8 17  1  0
 17 18  1  0
 18 19  1  0
 19 20  2  0
 20 21  1  0
 21 22  1  0
 21 23  1  0
  1 24  1  0
 24 25  2  0
 25 26  1  0
 26 27  1  0
 27 28  2  0
 28 29  1  0
 29 30  2  0
 30 31  1  0
 31 32  1  0
 30 33  1  0
 33 34  2  0
 26 35  1  0
 35 36  2  0
 36 37  1  0
 37 38  2  0
 38 39  1  0
 39 40  1  0
 38 41  1  0
 41 42  2  0
 25 43  1  0
 43 44  1  0
 44 45  1  0
 45 46  2  0
 46 47  1  0
 47 48  1  0
 48 49  2  0
 49 50  1  0
 50 51  2  0
 51 52  1  0
 52 53  1  0
 51 54  1  0
 54 55  2  0
 47 56  1  0
 56 57  2  0
 57 58  1  0
 58 59  2  0
 59 60  1  0
 60 61  1  0
 59 62  1  0
 62 63  2  0
 46 64  1  0
 64 65  1  0
 45 66  1  0
 66 67  2  0
 67 68  1  0
 68 69  1  0
 69 70  1  0
 70 71  2  0
 71 72  1  0
 72 73  2  0
 73 74  1  0
 74 75  1  0
 75 76  1  0
 73 77  1  0
 77 78  2  0
 78 79  1  0
 79 80  2  0
 80 81  1  0
 81 82  1  0
 82 83  1  0
 83 84  1  0
 81 85  2  0
 85 86  1  0
 86 87  2  0
 69 88  1  0
 88 89  2  0
 89 90  1  0
 90 91  1  0
 91 92  2  0
 89 93  1  0
 93 94  2  0
 94 95  1  0
 95 96  2  0
 95 97  1  0
 97 98  2  0
 98 99  1  0
 99100  1  0
100101  1  0
101102  1  0
100103  1  0
103104  2  0
104105  1  0
105106  1  0
106107  2  0
104108  1  0
108109  2  0
109110  1  0
110111  2  0
110112  1  0
112113  2  3
113114  1  0
114115  2  0
114116  1  0
116117  2  0
117118  1  0
118119  2  0
119120  1  0
120121  2  0
121122  1  0
122123  2  3
123124  1  0
124125  3  0
123126  1  0
126127  3  0
119128  1  0
128129  1  0
129130  1  0
130131  2  0
131132  1  0
132133  1  0
132134  1  0
 11  2  1  0
 23 17  1  0
 65 24  1  0
 92 66  1  0
107 97  1  0
122113  1  0
134128  1  0
 10  5  1  0
 22 18  1  0
 34 27  1  0
 42 35  1  0
 64 43  2  0
 90 68  2  0
105 99  2  0
121116  1  0
133129  1  0
 23  7  1  0
 55 48  1  0
 63 56  1  0
 87 69  1  0
 96 88  1  0
111103  1  0
134118  1  0
 78 70  1  0
 87 79  1  0
  1135  1  0
  6136  1  0
  9137  1  0
 17138  1  0
 18139  1  0
 19140  1  0
 20141  1  0
 21142  1  0
 22143  1  0
 22144  1  0
 23145  1  0
 28146  1  0
 29147  1  0
 32148  1  0
 32149  1  0
 32150  1  0
 33151  1  0
 34152  1  0
 36153  1  0
 37154  1  0
 40155  1  0
 40156  1  0
 40157  1  0
 41158  1  0
 42159  1  0
 49160  1  0
 50161  1  0
 53162  1  0
 53163  1  0
 53164  1  0
 54165  1  0
 55166  1  0
 57167  1  0
 58168  1  0
 61169  1  0
 61170  1  0
 61171  1  0
 62172  1  0
 63173  1  0
 67174  1  0
 71175  1  0
 72176  1  0
 75177  1  0
 75178  1  0
 76179  1  0
 76180  1  0
 76181  1  0
 77182  1  0
 80183  1  0
 83184  1  0
 83185  1  0
 84186  1  0
 84187  1  0
 84188  1  0
 85189  1  0
 86190  1  0
 91191  1  0
 92192  1  0
 93193  1  0
 94194  1  0
 96195  1  0
 98196  1  0
101197  1  0
101198  1  0
102199  1  0
102200  1  0
102201  1  0
106202  1  0
107203  1  0
108204  1  0
109205  1  0
111206  1  0
112207  1  0
117208  1  0
120209  1  0
128210  1  0
129211  1  0
130212  1  0
131213  1  0
132214  1  0
133215  1  0
133216  1  0
134217  1  0
M  END

