
     RDKit          3D

215236  0  0  0  0  0  0  0  0999 V2000
    3.1292    7.0869   -4.3350 C   0  0  0  0  0  0  0  0  0  0  0  0
    3.2565    7.7124   -3.1331 C   0  0  0  0  0  0  0  0  0  0  0  0
    2.3038    7.6408   -2.0232 C   0  0  0  0  0  0  0  0  0  0  0  0
    1.0846    7.2750   -2.0775 O   0  0  0  0  0  0  0  0  0  0  0  0
    2.9077    8.0683   -0.7656 C   0  0  0  0  0  0  0  0  0  0  0  0
    2.4457    8.1026    0.5301 C   0  0  0  0  0  0  0  0  0  0  0  0
    3.2163    8.4711    1.5988 C   0  0  0  0  0  0  0  0  0  0  0  0
    4.5096    8.8240    1.3188 C   0  0  0  0  0  0  0  0  0  0  0  0
    5.0165    8.7998    0.0099 C   0  0  0  0  0  0  0  0  0  0  0  0
    4.2053    8.4145   -1.0437 C   0  0  0  0  0  0  0  0  0  0  0  0
    4.4732    8.2184   -2.5071 C   0  0  0  0  0  0  0  0  0  0  0  0
    5.6548    8.3483   -3.0847 C   0  0  0  0  0  0  0  0  0  0  0  0
    6.7390    8.8959   -2.3256 C   0  0  0  0  0  0  0  0  0  0  0  0
    7.6783    9.3852   -1.6688 N   0  0  0  0  0  0  0  0  0  0  0  0
    5.9865    7.8807   -4.3785 C   0  0  0  0  0  0  0  0  0  0  0  0
    6.2750    7.4916   -5.5156 N   0  0  0  0  0  0  0  0  0  0  0  0
    4.8169    9.1368    2.7290 C   0  0  0  0  0  0  0  0  0  0  0  0
    4.8015   10.6239    3.0161 C   0  0  0  0  0  0  0  0  0  0  0  0
    4.7251   10.7382    4.5021 C   0  0  0  0  0  0  0  0  0  0  0  0
    3.5114   10.2760    4.8565 C   0  0  0  0  0  0  0  0  0  0  0  0
    2.7708    9.8987    3.6147 C   0  0  0  0  0  0  0  0  0  0  0  0
    3.3578   10.9654    2.6698 C   0  0  0  0  0  0  0  0  0  0  0  0
    3.4075    8.6824    3.0622 C   0  0  0  0  0  0  0  0  0  0  0  0
    1.9270    6.2165   -4.4692 C   0  0  0  0  0  0  0  0  0  0  0  0
    1.8024    5.2813   -3.4086 C   0  0  0  0  0  0  0  0  0  0  0  0
    0.7619    4.4587   -3.4436 C   0  0  0  0  0  0  0  0  0  0  0  0
    0.5134    3.5017   -2.4684 C   0  0  0  0  0  0  0  0  0  0  0  0
    1.3721    3.3461   -1.2983 C   0  0  0  0  0  0  0  0  0  0  0  0
    1.5993    2.2816   -0.4990 C   0  0  0  0  0  0  0  0  0  0  0  0
    2.3914    2.3516    0.5894 C   0  0  0  0  0  0  0  0  0  0  0  0
    3.0140    3.4666    0.9545 C   0  0  0  0  0  0  0  0  0  0  0  0
    4.1326    4.0016    2.2087 S   0  0  0  0  0  0  0  0  0  0  0  0
    5.8141    3.8384    1.4684 C   0  0  0  0  0  0  0  0  0  0  0  0
    5.9544    4.8440    0.3302 C   0  0  0  0  0  0  0  0  0  0  0  0
    2.3719    4.6527   -0.4738 Se  0  0  0  0  0  2  0  0  0  0  0  0
   -0.5880    2.6970   -2.5939 C   0  0  0  0  0  0  0  0  0  0  0  0
   -1.5018    2.7224   -3.6229 C   0  0  0  0  0  0  0  0  0  0  0  0
   -1.2386    3.6972   -4.5993 C   0  0  0  0  0  0  0  0  0  0  0  0
   -1.9949    3.7846   -5.8393 C   0  0  0  0  0  0  0  0  0  0  0  0
   -2.9186    3.3065   -6.5334 C   0  0  0  0  0  0  0  0  0  0  0  0
   -3.3881    3.5473   -7.7666 C   0  0  0  0  0  0  0  0  0  0  0  0
   -2.7230    4.5580   -8.4824 C   0  0  0  0  0  0  0  0  0  0  0  0
   -2.9103    5.1870  -10.1106 S   0  0  0  0  0  0  0  0  0  0  0  0
   -1.9350    4.1139  -11.2401 C   0  0  0  0  0  0  0  0  0  0  0  0
   -0.5490    4.0794  -10.6820 C   0  0  0  0  0  0  0  0  0  0  0  0
   -1.3850    5.1009   -7.1894 Se  0  0  0  0  0  2  0  0  0  0  0  0
   -0.1137    4.5384   -4.4691 C   0  0  0  0  0  0  0  0  0  0  0  0
    0.6118    5.8398   -5.3662 S   0  0  0  0  0  0  0  0  0  0  0  0
   -2.5006    1.8037   -3.5059 C   0  0  0  0  0  0  0  0  0  0  0  0
   -2.5719    0.9853   -2.4898 C   0  0  0  0  0  0  0  0  0  0  0  0
   -1.1275    1.4875   -1.5567 S   0  0  0  0  0  0  0  0  0  0  0  0
   -3.1720   -0.2366   -1.9847 C   0  0  0  0  0  0  0  0  0  0  0  0
   -3.0672   -1.5989   -2.5582 C   0  0  0  0  0  0  0  0  0  0  0  0
   -2.8811   -1.7438   -3.8865 N   0  0  0  0  0  0  0  0  0  0  0  0
   -1.8034   -2.2445   -4.6317 C   0  0  0  0  0  0  0  0  0  0  0  0
   -2.1179   -3.0828   -5.7303 C   0  0  0  0  0  0  0  0  0  0  0  0
   -1.1253   -3.5651   -6.5373 C   0  0  0  0  0  0  0  0  0  0  0  0
    0.2145   -3.2571   -6.3091 C   0  0  0  0  0  0  0  0  0  0  0  0
    1.5347   -3.8879   -7.3374 S   0  0  0  0  0  0  0  0  0  0  0  0
    3.1264   -3.4244   -6.6273 C   0  0  0  0  0  0  0  0  0  0  0  0
    0.5003   -2.4512   -5.2428 C   0  0  0  0  0  0  0  0  0  0  0  0
   -0.4865   -1.9733   -4.4448 C   0  0  0  0  0  0  0  0  0  0  0  0
   -3.9914   -1.2940   -4.7728 C   0  0  0  0  0  0  0  0  0  0  0  0
   -5.2857   -1.5558   -4.4444 C   0  0  0  0  0  0  0  0  0  0  0  0
   -6.3006   -1.1663   -5.3482 C   0  0  0  0  0  0  0  0  0  0  0  0
   -5.9864   -0.5387   -6.5241 C   0  0  0  0  0  0  0  0  0  0  0  0
   -7.1762    0.0162   -7.7275 S   0  0  0  0  0  0  0  0  0  0  0  0
   -7.6014    1.7374   -7.4058 C   0  0  0  0  0  0  0  0  0  0  0  0
   -4.6447   -0.2770   -6.8499 C   0  0  0  0  0  0  0  0  0  0  0  0
   -3.6920   -0.6704   -5.9501 C   0  0  0  0  0  0  0  0  0  0  0  0
   -3.3476   -2.0792   -1.3881 C   0  0  0  0  0  0  0  0  0  0  0  0
   -2.0130   -3.8718   -1.2412 S   0  0  0  0  0  0  0  0  0  0  0  0
   -2.7675   -4.4005    0.1829 C   0  0  0  0  0  0  0  0  0  0  0  0
   -3.7944   -3.4545    0.4310 C   0  0  0  0  0  0  0  0  0  0  0  0
   -4.8311   -3.3686    1.3586 N   0  0  0  0  0  0  0  0  0  0  0  0
   -5.9420   -2.4051    1.0167 C   0  0  0  0  0  0  0  0  0  0  0  0
   -6.3567   -1.5805    2.0374 C   0  0  0  0  0  0  0  0  0  0  0  0
   -7.2524   -0.5848    1.8603 C   0  0  0  0  0  0  0  0  0  0  0  0
   -7.7753   -0.4026    0.5921 C   0  0  0  0  0  0  0  0  0  0  0  0
   -8.9199    1.0018    0.3934 S   0  0  0  0  0  0  0  0  0  0  0  0
   -8.4982    2.1943    1.7009 C   0  0  0  0  0  0  0  0  0  0  0  0
   -7.4165   -1.1913   -0.4719 C   0  0  0  0  0  0  0  0  0  0  0  0
   -6.4558   -2.2196   -0.1992 C   0  0  0  0  0  0  0  0  0  0  0  0
   -5.0952   -3.8593    2.6226 C   0  0  0  0  0  0  0  0  0  0  0  0
   -6.3417   -4.4961    2.8061 C   0  0  0  0  0  0  0  0  0  0  0  0
   -6.7723   -4.9285    4.0306 C   0  0  0  0  0  0  0  0  0  0  0  0
   -5.9917   -4.7568    5.1603 C   0  0  0  0  0  0  0  0  0  0  0  0
   -6.6830   -5.2784    6.7181 S   0  0  0  0  0  0  0  0  0  0  0  0
   -6.6307   -7.0527    6.9292 C   0  0  0  0  0  0  0  0  0  0  0  0
   -4.7765   -4.1386    5.0174 C   0  0  0  0  0  0  0  0  0  0  0  0
   -4.3564   -3.6997    3.7354 C   0  0  0  0  0  0  0  0  0  0  0  0
   -3.5246   -2.6865   -0.6088 C   0  0  0  0  0  0  0  0  0  0  0  0
   -3.5984   -0.5545   -0.2761 S   0  0  0  0  0  0  0  0  0  0  0  0
   -2.2339   -5.2697    1.3329 C   0  0  0  0  0  0  0  0  0  0  0  0
   -3.0419   -5.9585    2.1245 C   0  0  0  0  0  0  0  0  0  0  0  0
   -4.1993   -6.4774    1.6141 F   0  0  0  0  0  0  0  0  0  0  0  0
   -2.7015   -6.1989    3.4873 C   0  0  0  0  0  0  0  0  0  0  0  0
   -3.6094   -6.9120    4.2037 F   0  0  0  0  0  0  0  0  0  0  0  0
   -1.5637   -5.7376    3.9920 C   0  0  0  0  0  0  0  0  0  0  0  0
   -0.6841   -4.9983    3.0877 C   0  0  0  0  0  0  0  0  0  0  0  0
    0.4254   -4.4802    3.6889 N   0  0  0  0  0  0  0  0  0  0  0  0
    1.2444   -3.7262    2.8910 C   0  0  0  0  0  0  0  0  0  0  0  0
    2.1474   -2.8365    3.6811 C   0  0  0  0  0  0  0  0  0  0  0  0
    3.4174   -3.0130    4.7307 S   0  0  0  0  0  0  0  0  0  0  0  0
    3.5665   -1.4061    5.3019 C   0  0  0  0  0  0  0  0  0  0  0  0
    4.4508   -0.8261    6.3977 C   0  0  0  0  0  0  0  0  0  0  0  0
    5.4682    0.1189    5.8823 C   0  0  0  0  0  0  0  0  0  0  0  0
    2.6191   -0.7870    4.6393 C   0  0  0  0  0  0  0  0  0  0  0  0
    1.8032   -1.4380    3.7591 C   0  0  0  0  0  0  0  0  0  0  0  0
    0.7881   -0.8694    3.0860 F   0  0  0  0  0  0  0  0  0  0  0  0
    2.4461    0.6138    4.8323 F   0  0  0  0  0  0  0  0  0  0  0  0
    0.9847   -3.5283    1.5717 C   0  0  0  0  0  0  0  0  0  0  0  0
   -0.1504   -4.0448    0.9940 N   0  0  0  0  0  0  0  0  0  0  0  0
   -0.9902   -4.7786    1.8074 C   0  0  0  0  0  0  0  0  0  0  0  0
    2.1421   -2.9782    0.8159 C   0  0  0  0  0  0  0  0  0  0  0  0
    3.0428   -1.5340    1.1454 S   0  0  0  0  0  0  0  0  0  0  0  0
    4.3003   -1.6680    0.0135 C   0  0  0  0  0  0  0  0  0  0  0  0
    5.4861   -0.7930   -0.2181 C   0  0  0  0  0  0  0  0  0  0  0  0
    5.4343    0.0357   -1.4454 C   0  0  0  0  0  0  0  0  0  0  0  0
    3.9751   -2.8997   -0.6412 C   0  0  0  0  0  0  0  0  0  0  0  0
    4.8196   -3.3034   -1.6397 F   0  0  0  0  0  0  0  0  0  0  0  0
    2.8874   -3.4740   -0.1768 C   0  0  0  0  0  0  0  0  0  0  0  0
    2.4611   -4.7200   -0.7436 F   0  0  0  0  0  0  0  0  0  0  0  0
   -1.0128   -5.5830    5.2991 C   0  0  0  0  0  0  0  0  0  0  0  0
   -0.0394   -6.0174    6.0067 C   0  0  0  0  0  0  0  0  0  0  0  0
    0.2602   -5.5744    7.3904 C   0  0  0  0  0  0  0  0  0  0  0  0
   -0.4981   -4.8994    8.1415 O   0  0  0  0  0  0  0  0  0  0  0  0
    1.5800   -6.0392    7.7518 C   0  0  0  0  0  0  0  0  0  0  0  0
    2.3534   -5.8982    8.8600 C   0  0  0  0  0  0  0  0  0  0  0  0
    3.6613   -6.4168    9.0113 C   0  0  0  0  0  0  0  0  0  0  0  0
    4.2666   -6.1656   10.2424 O   0  0  0  0  0  0  0  0  0  0  0  0
    3.8299   -6.1276   11.4651 C   0  0  0  0  0  0  0  0  0  0  0  0
    2.5621   -6.4285   11.6252 O   0  0  0  0  0  0  0  0  0  0  0  0
    4.5627   -5.7736   12.7214 C   0  0  0  0  0  0  0  0  0  0  0  0
    4.1523   -7.0868    7.9635 C   0  0  0  0  0  0  0  0  0  0  0  0
    3.3899   -7.2599    6.7906 C   0  0  0  0  0  0  0  0  0  0  0  0
    2.1284   -6.7656    6.6649 C   0  0  0  0  0  0  0  0  0  0  0  0
    1.1574   -6.7854    5.6012 C   0  0  0  0  0  0  0  0  0  0  0  0
    0.9773   -7.8743    4.6717 C   0  0  0  0  0  0  0  0  0  0  0  0
    0.1007   -8.2258    4.2688 C   0  0  0  0  0  0  0  0  0  0  0  0
   -1.2815   -8.7502    3.6451 N   0  0  0  0  0  0  0  0  0  0  0  0
    2.3518   -8.5347    4.3952 C   0  0  0  0  0  0  0  0  0  0  0  0
    3.4262   -9.0695    4.1904 N   0  0  0  0  0  0  0  0  0  0  0  0
    3.7862    7.1988   -5.1084 H   0  0  0  0  0  0  0  0  0  0  0  0
    1.3881    7.8028    0.7077 H   0  0  0  0  0  0  0  0  0  0  0  0
    6.0264    9.0633   -0.1208 H   0  0  0  0  0  0  0  0  0  0  0  0
    5.6352    8.5683    3.1843 H   0  0  0  0  0  0  0  0  0  0  0  0
    5.5222   11.2319    2.5191 H   0  0  0  0  0  0  0  0  0  0  0  0
    5.5177   11.1108    5.1132 H   0  0  0  0  0  0  0  0  0  0  0  0
    3.1207   10.1838    5.8623 H   0  0  0  0  0  0  0  0  0  0  0  0
    1.7044    9.9342    3.6738 H   0  0  0  0  0  0  0  0  0  0  0  0
    3.0639   11.9768    3.0308 H   0  0  0  0  0  0  0  0  0  0  0  0
    3.0866   10.7522    1.6406 H   0  0  0  0  0  0  0  0  0  0  0  0
    3.3615    7.7651    3.6886 H   0  0  0  0  0  0  0  0  0  0  0  0
    2.6440    5.2854   -2.6770 H   0  0  0  0  0  0  0  0  0  0  0  0
    1.1194    1.2966   -0.7975 H   0  0  0  0  0  0  0  0  0  0  0  0
    2.5445    1.4341    1.2355 H   0  0  0  0  0  0  0  0  0  0  0  0
    5.9137    2.8363    0.9924 H   0  0  0  0  0  0  0  0  0  0  0  0
    6.5763    4.0171    2.2081 H   0  0  0  0  0  0  0  0  0  0  0  0
    6.9867    4.7547   -0.0586 H   0  0  0  0  0  0  0  0  0  0  0  0
    5.6590    5.8657    0.6198 H   0  0  0  0  0  0  0  0  0  0  0  0
    5.2510    4.5471   -0.5095 H   0  0  0  0  0  0  0  0  0  0  0  0
   -3.5464    2.4273   -6.0320 H   0  0  0  0  0  0  0  0  0  0  0  0
   -4.2269    3.0681   -8.3122 H   0  0  0  0  0  0  0  0  0  0  0  0
   -2.3675    3.0940  -11.3287 H   0  0  0  0  0  0  0  0  0  0  0  0
   -1.9376    4.5740  -12.2387 H   0  0  0  0  0  0  0  0  0  0  0  0
    0.2198    3.8163  -11.3945 H   0  0  0  0  0  0  0  0  0  0  0  0
   -0.6175    3.2827   -9.8558 H   0  0  0  0  0  0  0  0  0  0  0  0
   -0.2755    5.0054  -10.1671 H   0  0  0  0  0  0  0  0  0  0  0  0
   -3.3209    1.7048   -4.2825 H   0  0  0  0  0  0  0  0  0  0  0  0
   -3.1762   -3.2898   -5.8464 H   0  0  0  0  0  0  0  0  0  0  0  0
   -1.3766   -4.1887   -7.3859 H   0  0  0  0  0  0  0  0  0  0  0  0
    3.3832   -2.4045   -7.0154 H   0  0  0  0  0  0  0  0  0  0  0  0
    3.0415   -3.3476   -5.5247 H   0  0  0  0  0  0  0  0  0  0  0  0
    3.9426   -4.1298   -6.9198 H   0  0  0  0  0  0  0  0  0  0  0  0
    1.5212   -2.1767   -5.0525 H   0  0  0  0  0  0  0  0  0  0  0  0
   -0.2420   -1.3284   -3.5929 H   0  0  0  0  0  0  0  0  0  0  0  0
   -5.5506   -2.0463   -3.5365 H   0  0  0  0  0  0  0  0  0  0  0  0
   -7.3312   -1.3597   -5.1142 H   0  0  0  0  0  0  0  0  0  0  0  0
   -8.3223    2.1317   -8.1658 H   0  0  0  0  0  0  0  0  0  0  0  0
   -8.1293    1.7648   -6.4357 H   0  0  0  0  0  0  0  0  0  0  0  0
   -6.7383    2.4195   -7.3558 H   0  0  0  0  0  0  0  0  0  0  0  0
   -4.4115    0.2074   -7.7779 H   0  0  0  0  0  0  0  0  0  0  0  0
   -2.6510   -0.4910   -6.1917 H   0  0  0  0  0  0  0  0  0  0  0  0
   -5.9421   -1.7666    3.0361 H   0  0  0  0  0  0  0  0  0  0  0  0
   -7.5719    0.0860    2.6734 H   0  0  0  0  0  0  0  0  0  0  0  0
   -8.6680    3.1990    1.3056 H   0  0  0  0  0  0  0  0  0  0  0  0
   -7.3863    2.1092    1.9163 H   0  0  0  0  0  0  0  0  0  0  0  0
   -9.0926    1.9949    2.5938 H   0  0  0  0  0  0  0  0  0  0  0  0
   -7.7816   -1.0660   -1.4368 H   0  0  0  0  0  0  0  0  0  0  0  0
   -6.1531   -2.8536   -1.0241 H   0  0  0  0  0  0  0  0  0  0  0  0
   -6.9867   -4.6425    1.9433 H   0  0  0  0  0  0  0  0  0  0  0  0
   -7.7307   -5.4319    4.1340 H   0  0  0  0  0  0  0  0  0  0  0  0
   -7.3376   -7.5069    6.1920 H   0  0  0  0  0  0  0  0  0  0  0  0
   -7.0429   -7.3281    7.9447 H   0  0  0  0  0  0  0  0  0  0  0  0
   -5.6233   -7.4375    6.8636 H   0  0  0  0  0  0  0  0  0  0  0  0
   -4.1518   -4.0133    5.8890 H   0  0  0  0  0  0  0  0  0  0  0  0
   -3.3826   -3.2130    3.6834 H   0  0  0  0  0  0  0  0  0  0  0  0
    4.7679   -1.5798    7.1065 H   0  0  0  0  0  0  0  0  0  0  0  0
    3.7038   -0.1897    6.9714 H   0  0  0  0  0  0  0  0  0  0  0  0
    5.1094    0.6441    4.9647 H   0  0  0  0  0  0  0  0  0  0  0  0
    5.6271    0.9892    6.6150 H   0  0  0  0  0  0  0  0  0  0  0  0
    6.4675   -0.2658    5.7129 H   0  0  0  0  0  0  0  0  0  0  0  0
    5.4961   -0.1260    0.7099 H   0  0  0  0  0  0  0  0  0  0  0  0
    6.3917   -1.4349   -0.1900 H   0  0  0  0  0  0  0  0  0  0  0  0
    5.9186   -0.4494   -2.3053 H   0  0  0  0  0  0  0  0  0  0  0  0
    6.0245    0.9764   -1.2568 H   0  0  0  0  0  0  0  0  0  0  0  0
    4.3958    0.3026   -1.7470 H   0  0  0  0  0  0  0  0  0  0  0  0
   -1.7000   -4.8531    5.8977 H   0  0  0  0  0  0  0  0  0  0  0  0
    1.9569   -5.3557    9.7024 H   0  0  0  0  0  0  0  0  0  0  0  0
    4.6777   -4.6489   12.7027 H   0  0  0  0  0  0  0  0  0  0  0  0
    3.8299   -5.9124   13.5721 H   0  0  0  0  0  0  0  0  0  0  0  0
    5.4939   -6.2609   12.9048 H   0  0  0  0  0  0  0  0  0  0  0  0
    5.1483   -7.5166    7.9746 H   0  0  0  0  0  0  0  0  0  0  0  0
    3.8811   -7.7765    5.9824 H   0  0  0  0  0  0  0  0  0  0  0  0
  1  2  2  3
  2  3  1  0
  3  4  2  0
  3  5  1  0
  5  6  2  0
  6  7  1  0
  7  8  2  0
  8  9  1  0
  9 10  2  0
 10 11  1  0
 11 12  2  3
 12 13  1  0
 13 14  3  0
 12 15  1  0
 15 16  3  0
  8 17  1  0
 17 18  1  0
 18 19  1  0
 19 20  2  0
 20 21  1  0
 21 22  1  0
 21 23  1  0
  1 24  1  0
 24 25  2  0
 25 26  1  0
 26 27  2  0
 27 28  1  0
 28 29  2  0
 29 30  1  0
 30 31  2  0
 31 32  1  0
 32 33  1  0
 33 34  1  0
 31 35  1  0
 27 36  1  0
 36 37  2  0
 37 38  1  0
 38 39  1  0
 39 40  2  0
 40 41  1  0
 41 42  2  0
 42 43  1  0
 43 44  1  0
 44 45  1  0
 42 46  1  0
 38 47  2  0
 47 48  1  0
 37 49  1  0
 49 50  2  0
 50 51  1  0
 50 52  1  0
 52 53  2  0
 53 54  1  0
 54 55  1  0
 55 56  2  0
 56 57  1  0
 57 58  2  0
 58 59  1  0
 59 60  1  0
 58 61  1  0
 61 62  2  0
 54 63  1  0
 63 64  2  0
 64 65  1  0
 65 66  2  0
 66 67  1  0
 67 68  1  0
 66 69  1  0
 69 70  2  0
 53 71  1  0
 71 72  1  0
 72 73  1  0
 73 74  2  0
 74 75  1  0
 75 76  1  0
 76 77  2  0
 77 78  1  0
 78 79  2  0
 79 80  1  0
 80 81  1  0
 79 82  1  0
 82 83  2  0
 75 84  1  0
 84 85  2  0
 85 86  1  0
 86 87  2  0
 87 88  1  0
 88 89  1  0
 87 90  1  0
 90 91  2  0
 74 92  1  0
 92 93  1  0
 73 94  1  0
 94 95  2  0
 95 96  1  0
 95 97  1  0
 97 98  1  0
 97 99  2  0
 99100  1  0
100101  2  0
101102  1  0
102103  1  0
103104  1  0
104105  1  0
105106  1  0
106107  1  0
105108  2  0
108109  1  0
109110  1  0
108111  1  0
102112  2  0
112113  1  0
113114  2  0
112115  1  0
115116  1  0
116117  1  0
117118  1  0
118119  1  0
117120  2  0
120121  1  0
120122  1  0
122123  1  0
 99124  1  0
124125  2  3
125126  1  0
126127  2  0
126128  1  0
128129  2  0
129130  1  0
130131  1  0
131132  1  0
132133  2  0
132134  1  0
130135  2  0
135136  1  0
136137  2  0
137138  1  0
138139  2  3
139140  1  0
140141  3  0
139142  1  0
142143  3  0
 11  2  1  0
 23 17  1  0
 48 24  1  0
 93 52  1  0
114 94  1  0
122115  2  0
138125  1  0
 10  5  1  0
 22 18  1  0
 47 26  1  0
 62 55  1  0
 70 63  1  0
 92 71  2  0
114100  1  0
137128  1  0
 23  7  1  0
 35 28  1  0
 51 36  1  0
 83 76  1  0
 91 84  1  0
109103  2  0
 46 39  1  0
  1144  1  0
  6145  1  0
  9146  1  0
 17147  1  0
 18148  1  0
 19149  1  0
 20150  1  0
 21151  1  0
 22152  1  0
 22153  1  0
 23154  1  0
 25155  1  0
 29156  1  0
 30157  1  0
 33158  1  0
 33159  1  0
 34160  1  0
 34161  1  0
 34162  1  0
 40163  1  0
 41164  1  0
 44165  1  0
 44166  1  0
 45167  1  0
 45168  1  0
 45169  1  0
 49170  1  0
 56171  1  0
 57172  1  0
 60173  1  0
 60174  1  0
 60175  1  0
 61176  1  0
 62177  1  0
 64178  1  0
 65179  1  0
 68180  1  0
 68181  1  0
 68182  1  0
 69183  1  0
 70184  1  0
 77185  1  0
 78186  1  0
 81187  1  0
 81188  1  0
 81189  1  0
 82190  1  0
 83191  1  0
 85192  1  0
 86193  1  0
 89194  1  0
 89195  1  0
 89196  1  0
 90197  1  0
 91198  1  0
106199  1  0
106200  1  0
107201  1  0
107202  1  0
107203  1  0
118204  1  0
118205  1  0
119206  1  0
119207  1  0
119208  1  0
124209  1  0
129210  1  0
134211  1  0
134212  1  0
134213  1  0
135214  1  0
136215  1  0
M  END

