
     RDKit          3D

212233  0  0  0  0  0  0  0  0999 V2000
    2.8530   -5.6295    2.2915 C   0  0  0  0  0  0  0  0  0  0  0  0
    3.9166   -4.9529    1.8013 C   0  0  0  0  0  0  0  0  0  0  0  0
    3.9611   -4.2877    0.4975 C   0  0  0  0  0  0  0  0  0  0  0  0
    3.5920   -4.7840   -0.6009 O   0  0  0  0  0  0  0  0  0  0  0  0
    4.6817   -3.0435    0.6232 C   0  0  0  0  0  0  0  0  0  0  0  0
    4.7971   -2.0300   -0.3547 C   0  0  0  0  0  0  0  0  0  0  0  0
    5.4218   -0.8844    0.1045 C   0  0  0  0  0  0  0  0  0  0  0  0
    5.9314   -0.7483    1.4383 C   0  0  0  0  0  0  0  0  0  0  0  0
    5.8421   -1.7558    2.3910 C   0  0  0  0  0  0  0  0  0  0  0  0
    5.1979   -2.9424    1.9357 C   0  0  0  0  0  0  0  0  0  0  0  0
    4.8797   -4.2006    2.6674 C   0  0  0  0  0  0  0  0  0  0  0  0
    5.4550   -4.6496    3.8092 C   0  0  0  0  0  0  0  0  0  0  0  0
    5.2830   -6.0093    4.2539 C   0  0  0  0  0  0  0  0  0  0  0  0
    5.1555   -7.1048    4.6047 N   0  0  0  0  0  0  0  0  0  0  0  0
    6.3648   -3.8443    4.5858 C   0  0  0  0  0  0  0  0  0  0  0  0
    7.0945   -3.2020    5.2192 N   0  0  0  0  0  0  0  0  0  0  0  0
    6.3699    0.6558    1.1428 C   0  0  0  0  0  0  0  0  0  0  0  0
    7.8950    0.8862    0.9106 C   0  0  0  0  0  0  0  0  0  0  0  0
    8.0110    2.2449    0.2608 C   0  0  0  0  0  0  0  0  0  0  0  0
    7.5259    2.1157   -0.9782 C   0  0  0  0  0  0  0  0  0  0  0  0
    7.0972    0.6760   -1.1210 C   0  0  0  0  0  0  0  0  0  0  0  0
    8.1925    0.0225   -0.2989 C   0  0  0  0  0  0  0  0  0  0  0  0
    5.8397    0.5162   -0.2186 C   0  0  0  0  0  0  0  0  0  0  0  0
    1.4699   -5.3838    1.8091 C   0  0  0  0  0  0  0  0  0  0  0  0
    0.5488   -4.5681    2.5018 C   0  0  0  0  0  0  0  0  0  0  0  0
    0.5186   -4.4351    3.9455 N   0  0  0  0  0  0  0  0  0  0  0  0
    0.1564   -3.2018    4.6140 C   0  0  0  0  0  0  0  0  0  0  0  0
    0.5778   -1.9549    4.1197 C   0  0  0  0  0  0  0  0  0  0  0  0
    0.3726   -0.7885    4.8716 C   0  0  0  0  0  0  0  0  0  0  0  0
   -0.2040   -0.8659    6.1490 C   0  0  0  0  0  0  0  0  0  0  0  0
   -0.2614    0.5942    7.1993 S   0  0  0  0  0  0  0  0  0  0  0  0
   -2.0659    0.5731    7.4639 C   0  0  0  0  0  0  0  0  0  0  0  0
   -0.6492   -2.1015    6.6350 C   0  0  0  0  0  0  0  0  0  0  0  0
   -0.5114   -3.2467    5.8537 C   0  0  0  0  0  0  0  0  0  0  0  0
    0.8319   -5.5936    4.7538 C   0  0  0  0  0  0  0  0  0  0  0  0
    1.7112   -5.4769    5.8484 C   0  0  0  0  0  0  0  0  0  0  0  0
    2.0317   -6.5978    6.6149 C   0  0  0  0  0  0  0  0  0  0  0  0
    1.4939   -7.8494    6.2902 C   0  0  0  0  0  0  0  0  0  0  0  0
    1.9008   -9.2901    7.2835 S   0  0  0  0  0  0  0  0  0  0  0  0
    3.3659   -9.7080    6.2975 C   0  0  0  0  0  0  0  0  0  0  0  0
    0.6178   -7.9734    5.2050 C   0  0  0  0  0  0  0  0  0  0  0  0
    0.2886   -6.8525    4.4391 C   0  0  0  0  0  0  0  0  0  0  0  0
   -0.4246   -4.0629    1.6253 C   0  0  0  0  0  0  0  0  0  0  0  0
   -1.5478   -2.8232    1.6836 S   0  0  0  0  0  0  0  0  0  0  0  0
   -1.9150   -2.8282    0.0087 C   0  0  0  0  0  0  0  0  0  0  0  0
   -1.1606   -3.8684   -0.5921 C   0  0  0  0  0  0  0  0  0  0  0  0
   -1.3563   -4.3943   -1.9181 N   0  0  0  0  0  0  0  0  0  0  0  0
   -0.2184   -4.6065   -2.8052 C   0  0  0  0  0  0  0  0  0  0  0  0
   -0.3106   -5.4300   -3.9535 C   0  0  0  0  0  0  0  0  0  0  0  0
    0.7631   -5.5462   -4.8407 C   0  0  0  0  0  0  0  0  0  0  0  0
    1.9453   -4.8415   -4.6083 C   0  0  0  0  0  0  0  0  0  0  0  0
    3.2977   -4.9257   -5.7813 S   0  0  0  0  0  0  0  0  0  0  0  0
    4.1113   -6.3182   -4.9391 C   0  0  0  0  0  0  0  0  0  0  0  0
    2.0653   -4.0412   -3.4717 C   0  0  0  0  0  0  0  0  0  0  0  0
    1.0013   -3.9331   -2.5785 C   0  0  0  0  0  0  0  0  0  0  0  0
   -2.5857   -5.1188   -2.1105 C   0  0  0  0  0  0  0  0  0  0  0  0
   -3.7965   -4.4312   -2.2922 C   0  0  0  0  0  0  0  0  0  0  0  0
   -4.9945   -5.1381   -2.4333 C   0  0  0  0  0  0  0  0  0  0  0  0
   -4.9935   -6.5364   -2.3841 C   0  0  0  0  0  0  0  0  0  0  0  0
   -6.5287   -7.4420   -2.5774 S   0  0  0  0  0  0  0  0  0  0  0  0
   -6.8627   -7.4941   -0.7883 C   0  0  0  0  0  0  0  0  0  0  0  0
   -3.7951   -7.2285   -2.1873 C   0  0  0  0  0  0  0  0  0  0  0  0
   -2.5981   -6.5217   -2.0289 C   0  0  0  0  0  0  0  0  0  0  0  0
   -0.3457   -4.5086    0.3464 C   0  0  0  0  0  0  0  0  0  0  0  0
    0.9420   -5.5705    0.2032 S   0  0  0  0  0  0  0  0  0  0  0  0
   -2.5448   -1.6366   -0.6254 C   0  0  0  0  0  0  0  0  0  0  0  0
   -1.9567   -0.8451   -1.6463 C   0  0  0  0  0  0  0  0  0  0  0  0
   -1.3016   -1.3224   -2.8316 N   0  0  0  0  0  0  0  0  0  0  0  0
    0.0669   -0.8813   -3.0457 C   0  0  0  0  0  0  0  0  0  0  0  0
    0.5397   -0.5261   -4.3282 C   0  0  0  0  0  0  0  0  0  0  0  0
    1.8539   -0.0870   -4.5066 C   0  0  0  0  0  0  0  0  0  0  0  0
    2.7072    0.0478   -3.4094 C   0  0  0  0  0  0  0  0  0  0  0  0
    4.4054    0.5708   -3.6550 S   0  0  0  0  0  0  0  0  0  0  0  0
    4.0520    2.3253   -3.3342 C   0  0  0  0  0  0  0  0  0  0  0  0
    2.2403   -0.2556   -2.1274 C   0  0  0  0  0  0  0  0  0  0  0  0
    0.9350   -0.7104   -1.9440 C   0  0  0  0  0  0  0  0  0  0  0  0
   -2.1580   -1.7445   -3.9293 C   0  0  0  0  0  0  0  0  0  0  0  0
   -3.4921   -1.2782   -4.0402 C   0  0  0  0  0  0  0  0  0  0  0  0
   -4.3383   -1.7694   -5.0338 C   0  0  0  0  0  0  0  0  0  0  0  0
   -3.8887   -2.7441   -5.9238 C   0  0  0  0  0  0  0  0  0  0  0  0
   -5.0130   -3.4193   -7.1449 S   0  0  0  0  0  0  0  0  0  0  0  0
   -5.7696   -4.5971   -5.9800 C   0  0  0  0  0  0  0  0  0  0  0  0
   -2.5593   -3.1753   -5.8637 C   0  0  0  0  0  0  0  0  0  0  0  0
   -1.6944   -2.6617   -4.8920 C   0  0  0  0  0  0  0  0  0  0  0  0
   -2.2778    0.5023   -1.5210 C   0  0  0  0  0  0  0  0  0  0  0  0
   -1.6720    1.8773   -2.2511 S   0  0  0  0  0  0  0  0  0  0  0  0
   -2.5207    2.9475   -1.2471 C   0  0  0  0  0  0  0  0  0  0  0  0
   -3.3193    2.2094   -0.3550 C   0  0  0  0  0  0  0  0  0  0  0  0
   -4.2691    2.8069    0.5466 N   0  0  0  0  0  0  0  0  0  0  0  0
   -4.5629    2.1623    1.7940 C   0  0  0  0  0  0  0  0  0  0  0  0
   -3.5386    1.9156    2.7179 C   0  0  0  0  0  0  0  0  0  0  0  0
   -3.7974    1.1763    3.8707 C   0  0  0  0  0  0  0  0  0  0  0  0
   -5.0788    0.6552    4.0985 C   0  0  0  0  0  0  0  0  0  0  0  0
   -5.3771   -0.4132    5.5049 S   0  0  0  0  0  0  0  0  0  0  0  0
   -4.8120   -1.9041    4.6262 C   0  0  0  0  0  0  0  0  0  0  0  0
   -6.1112    0.9265    3.1946 C   0  0  0  0  0  0  0  0  0  0  0  0
   -5.8561    1.6787    2.0472 C   0  0  0  0  0  0  0  0  0  0  0  0
   -5.1373    3.8527    0.0697 C   0  0  0  0  0  0  0  0  0  0  0  0
   -5.7298    3.7636   -1.2035 C   0  0  0  0  0  0  0  0  0  0  0  0
   -6.6141    4.7484   -1.6459 C   0  0  0  0  0  0  0  0  0  0  0  0
   -6.9232    5.8353   -0.8181 C   0  0  0  0  0  0  0  0  0  0  0  0
   -8.0736    7.0907   -1.3777 S   0  0  0  0  0  0  0  0  0  0  0  0
   -9.5280    6.2443   -0.6855 C   0  0  0  0  0  0  0  0  0  0  0  0
   -6.3321    5.9359    0.4494 C   0  0  0  0  0  0  0  0  0  0  0  0
   -5.4489    4.9477    0.8925 C   0  0  0  0  0  0  0  0  0  0  0  0
   -3.1274    0.8326   -0.5299 C   0  0  0  0  0  0  0  0  0  0  0  0
   -3.5107   -0.5678    0.3100 S   0  0  0  0  0  0  0  0  0  0  0  0
   -1.9442    4.2600   -0.9223 C   0  0  0  0  0  0  0  0  0  0  0  0
   -2.0973    5.3728   -1.7611 C   0  0  0  0  0  0  0  0  0  0  0  0
   -2.9035    5.5520   -2.9637 C   0  0  0  0  0  0  0  0  0  0  0  0
   -3.6980    4.7036   -3.4469 O   0  0  0  0  0  0  0  0  0  0  0  0
   -2.6747    6.8435   -3.5321 N   0  0  0  0  0  0  0  0  0  0  0  0
   -3.5880    7.5483   -4.4226 C   0  0  0  0  0  0  0  0  0  0  0  0
   -4.7617    8.1214   -3.6353 C   0  0  0  0  0  0  0  0  0  0  0  0
   -1.7316    7.4580   -2.6543 C   0  0  0  0  0  0  0  0  0  0  0  0
   -1.3010    8.6332   -2.7940 O   0  0  0  0  0  0  0  0  0  0  0  0
   -1.3731    6.5424   -1.5719 C   0  0  0  0  0  0  0  0  0  0  0  0
   -0.4110    6.6638   -0.5560 C   0  0  0  0  0  0  0  0  0  0  0  0
   -0.2612    5.5774    0.3244 C   0  0  0  0  0  0  0  0  0  0  0  0
   -1.0179    4.3755    0.1362 C   0  0  0  0  0  0  0  0  0  0  0  0
   -0.7411    3.3505    0.9852 N   0  0  0  0  0  0  0  0  0  0  0  0
    0.4245    4.0400    1.9287 S   0  0  0  0  0  0  0  0  0  0  0  0
    0.6411    5.5706    1.3404 N   0  0  0  0  0  0  0  0  0  0  0  0
    0.4929    7.8237   -0.4947 C   0  0  0  0  0  0  0  0  0  0  0  0
    1.7884    7.7342   -0.8280 C   0  0  0  0  0  0  0  0  0  0  0  0
    2.5201    6.5701   -1.3614 C   0  0  0  0  0  0  0  0  0  0  0  0
    2.0477    5.4269   -1.5954 O   0  0  0  0  0  0  0  0  0  0  0  0
    3.8951    6.9801   -1.6118 C   0  0  0  0  0  0  0  0  0  0  0  0
    4.9494    6.2394   -2.1451 C   0  0  0  0  0  0  0  0  0  0  0  0
    6.1889    6.8738   -2.3246 C   0  0  0  0  0  0  0  0  0  0  0  0
    7.5240    5.9393   -2.9910 Cl  0  0  0  0  0  0  0  0  0  0  0  0
    6.3491    8.2382   -1.9811 C   0  0  0  0  0  0  0  0  0  0  0  0
    7.8840    9.0620   -2.2285 Cl  0  0  0  0  0  0  0  0  0  0  0  0
    5.2664    8.9643   -1.4445 C   0  0  0  0  0  0  0  0  0  0  0  0
    4.0468    8.3088   -1.2719 C   0  0  0  0  0  0  0  0  0  0  0  0
    2.7703    8.8235   -0.7838 C   0  0  0  0  0  0  0  0  0  0  0  0
    2.5552   10.0004   -0.3853 O   0  0  0  0  0  0  0  0  0  0  0  0
    2.9161   -5.9730    3.3063 H   0  0  0  0  0  0  0  0  0  0  0  0
    4.3882   -2.1277   -1.3517 H   0  0  0  0  0  0  0  0  0  0  0  0
    6.2010   -1.5933    3.3903 H   0  0  0  0  0  0  0  0  0  0  0  0
    5.8514    1.4278    1.7554 H   0  0  0  0  0  0  0  0  0  0  0  0
    8.5470    0.7235    1.7970 H   0  0  0  0  0  0  0  0  0  0  0  0
    8.4698    3.1387    0.6706 H   0  0  0  0  0  0  0  0  0  0  0  0
    7.5169    2.8777   -1.7484 H   0  0  0  0  0  0  0  0  0  0  0  0
    6.9918    0.3172   -2.1639 H   0  0  0  0  0  0  0  0  0  0  0  0
    8.0455   -1.0656   -0.1318 H   0  0  0  0  0  0  0  0  0  0  0  0
    9.2158    0.1776   -0.7249 H   0  0  0  0  0  0  0  0  0  0  0  0
    4.9932    1.1968   -0.4582 H   0  0  0  0  0  0  0  0  0  0  0  0
    1.1088   -1.8922    3.1798 H   0  0  0  0  0  0  0  0  0  0  0  0
    0.7306    0.1621    4.4943 H   0  0  0  0  0  0  0  0  0  0  0  0
   -2.2983   -0.0385    8.3614 H   0  0  0  0  0  0  0  0  0  0  0  0
   -2.6010    0.1405    6.5974 H   0  0  0  0  0  0  0  0  0  0  0  0
   -2.4247    1.6083    7.6382 H   0  0  0  0  0  0  0  0  0  0  0  0
   -1.0905   -2.1797    7.6220 H   0  0  0  0  0  0  0  0  0  0  0  0
   -0.8708   -4.1845    6.2529 H   0  0  0  0  0  0  0  0  0  0  0  0
    2.1567   -4.5222    6.0950 H   0  0  0  0  0  0  0  0  0  0  0  0
    2.7091   -6.4955    7.4554 H   0  0  0  0  0  0  0  0  0  0  0  0
    3.0966   -9.8218    5.2277 H   0  0  0  0  0  0  0  0  0  0  0  0
    3.7891  -10.6650    6.6639 H   0  0  0  0  0  0  0  0  0  0  0  0
    4.1309   -8.9150    6.4110 H   0  0  0  0  0  0  0  0  0  0  0  0
    0.1978   -8.9384    4.9480 H   0  0  0  0  0  0  0  0  0  0  0  0
   -0.3879   -6.9599    3.5990 H   0  0  0  0  0  0  0  0  0  0  0  0
   -1.2242   -5.9468   -4.2063 H   0  0  0  0  0  0  0  0  0  0  0  0
    0.6644   -6.1627   -5.7257 H   0  0  0  0  0  0  0  0  0  0  0  0
    3.5355   -7.2460   -5.1200 H   0  0  0  0  0  0  0  0  0  0  0  0
    4.2027   -6.1292   -3.8489 H   0  0  0  0  0  0  0  0  0  0  0  0
    5.1281   -6.4486   -5.3631 H   0  0  0  0  0  0  0  0  0  0  0  0
    2.9794   -3.4881   -3.2822 H   0  0  0  0  0  0  0  0  0  0  0  0
    1.1389   -3.3071   -1.7105 H   0  0  0  0  0  0  0  0  0  0  0  0
   -3.8189   -3.3534   -2.3087 H   0  0  0  0  0  0  0  0  0  0  0  0
   -5.9214   -4.5943   -2.5745 H   0  0  0  0  0  0  0  0  0  0  0  0
   -7.8025   -8.0571   -0.6107 H   0  0  0  0  0  0  0  0  0  0  0  0
   -6.0359   -8.0085   -0.2615 H   0  0  0  0  0  0  0  0  0  0  0  0
   -6.9787   -6.4654   -0.3897 H   0  0  0  0  0  0  0  0  0  0  0  0
   -3.7859   -8.3102   -2.1435 H   0  0  0  0  0  0  0  0  0  0  0  0
   -1.6800   -7.0649   -1.8445 H   0  0  0  0  0  0  0  0  0  0  0  0
   -0.1043   -0.5660   -5.1963 H   0  0  0  0  0  0  0  0  0  0  0  0
    2.2032    0.1605   -5.5020 H   0  0  0  0  0  0  0  0  0  0  0  0
    3.2665    2.6968   -4.0233 H   0  0  0  0  0  0  0  0  0  0  0  0
    3.7225    2.4657   -2.2834 H   0  0  0  0  0  0  0  0  0  0  0  0
    4.9776    2.9134   -3.4993 H   0  0  0  0  0  0  0  0  0  0  0  0
    2.8913   -0.1329   -1.2726 H   0  0  0  0  0  0  0  0  0  0  0  0
    0.6066   -0.9462   -0.9414 H   0  0  0  0  0  0  0  0  0  0  0  0
   -3.8976   -0.5489   -3.3528 H   0  0  0  0  0  0  0  0  0  0  0  0
   -5.3605   -1.4075   -5.0844 H   0  0  0  0  0  0  0  0  0  0  0  0
   -6.5590   -5.1714   -6.5083 H   0  0  0  0  0  0  0  0  0  0  0  0
   -5.0024   -5.2988   -5.5903 H   0  0  0  0  0  0  0  0  0  0  0  0
   -6.2417   -4.0464   -5.1391 H   0  0  0  0  0  0  0  0  0  0  0  0
   -2.1961   -3.9125   -6.5708 H   0  0  0  0  0  0  0  0  0  0  0  0
   -0.6652   -2.9784   -4.8912 H   0  0  0  0  0  0  0  0  0  0  0  0
   -2.5347    2.2779    2.5359 H   0  0  0  0  0  0  0  0  0  0  0  0
   -2.9905    0.9783    4.5606 H   0  0  0  0  0  0  0  0  0  0  0  0
   -3.7350   -1.8080    4.3777 H   0  0  0  0  0  0  0  0  0  0  0  0
   -5.3984   -2.0498    3.6933 H   0  0  0  0  0  0  0  0  0  0  0  0
   -4.9502   -2.7908    5.2797 H   0  0  0  0  0  0  0  0  0  0  0  0
   -7.1054    0.5263    3.3599 H   0  0  0  0  0  0  0  0  0  0  0  0
   -6.6524    1.8441    1.3315 H   0  0  0  0  0  0  0  0  0  0  0  0
   -5.5223    2.9113   -1.8432 H   0  0  0  0  0  0  0  0  0  0  0  0
   -7.0674    4.6628   -2.6247 H   0  0  0  0  0  0  0  0  0  0  0  0
   -9.4083    6.1174    0.4109 H   0  0  0  0  0  0  0  0  0  0  0  0
   -9.6535    5.2525   -1.1686 H   0  0  0  0  0  0  0  0  0  0  0  0
  -10.4337    6.8555   -0.8741 H   0  0  0  0  0  0  0  0  0  0  0  0
   -6.5703    6.7739    1.0932 H   0  0  0  0  0  0  0  0  0  0  0  0
   -5.0082    5.0318    1.8780 H   0  0  0  0  0  0  0  0  0  0  0  0
   -3.9624    6.8536   -5.2030 H   0  0  0  0  0  0  0  0  0  0  0  0
   -3.0457    8.3743   -4.9325 H   0  0  0  0  0  0  0  0  0  0  0  0
   -5.2997    7.3082   -3.1075 H   0  0  0  0  0  0  0  0  0  0  0  0
   -5.4673    8.6189   -4.3316 H   0  0  0  0  0  0  0  0  0  0  0  0
   -4.4018    8.8663   -2.8939 H   0  0  0  0  0  0  0  0  0  0  0  0
    0.0866    8.7798   -0.1870 H   0  0  0  0  0  0  0  0  0  0  0  0
    4.8105    5.2027   -2.4163 H   0  0  0  0  0  0  0  0  0  0  0  0
    5.3712   10.0077   -1.1830 H   0  0  0  0  0  0  0  0  0  0  0  0
  1  2  2  3
  2  3  1  0
  3  4  2  0
  3  5  1  0
  5  6  2  0
  6  7  1  0
  7  8  2  0
  8  9  1  0
  9 10  2  0
 10 11  1  0
 11 12  2  3
 12 13  1  0
 13 14  3  0
 12 15  1  0
 15 16  3  0
  8 17  1  0
 17 18  1  0
 18 19  1  0
 19 20  2  0
 20 21  1  0
 21 22  1  0
 21 23  1  0
  1 24  1  0
 24 25  2  0
 25 26  1  0
 26 27  1  0
 27 28  2  0
 28 29  1  0
 29 30  2  0
 30 31  1  0
 31 32  1  0
 30 33  1  0
 33 34  2  0
 26 35  1  0
 35 36  2  0
 36 37  1  0
 37 38  2  0
 38 39  1  0
 39 40  1  0
 38 41  1  0
 41 42  2  0
 25 43  1  0
 43 44  1  0
 44 45  1  0
 45 46  2  0
 46 47  1  0
 47 48  1  0
 48 49  2  0
 49 50  1  0
 50 51  2  0
 51 52  1  0
 52 53  1  0
 51 54  1  0
 54 55  2  0
 47 56  1  0
 56 57  2  0
 57 58  1  0
 58 59  2  0
 59 60  1  0
 60 61  1  0
 59 62  1  0
 62 63  2  0
 46 64  1  0
 64 65  1  0
 45 66  1  0
 66 67  2  0
 67 68  1  0
 68 69  1  0
 69 70  2  0
 70 71  1  0
 71 72  2  0
 72 73  1  0
 73 74  1  0
 72 75  1  0
 75 76  2  0
 68 77  1  0
 77 78  2  0
 78 79  1  0
 79 80  2  0
 80 81  1  0
 81 82  1  0
 80 83  1  0
 83 84  2  0
 67 85  1  0
 85 86  1  0
 86 87  1  0
 87 88  2  0
 88 89  1  0
 89 90  1  0
 90 91  2  0
 91 92  1  0
 92 93  2  0
 93 94  1  0
 94 95  1  0
 93 96  1  0
 96 97  2  0
 89 98  1  0
 98 99  2  0
 99100  1  0
100101  2  0
101102  1  0
102103  1  0
101104  1  0
104105  2  0
 88106  1  0
106107  1  0
 87108  1  0
108109  2  0
109110  1  0
110111  2  0
110112  1  0
112113  1  0
113114  1  0
112115  1  0
115116  2  0
115117  1  0
117118  2  0
118119  1  0
119120  1  0
120121  2  0
121122  1  0
122123  1  0
118124  1  0
124125  2  3
125126  1  0
126127  2  0
126128  1  0
128129  2  0
129130  1  0
130131  1  0
130132  2  0
132133  1  0
132134  1  0
134135  2  0
135136  1  0
136137  2  0
 11  2  1  0
 23 17  1  0
 65 24  1  0
107 66  1  0
120108  1  0
136125  1  0
 10  5  1  0
 22 18  1  0
 34 27  1  0
 42 35  1  0
 64 43  2  0
 76 69  1  0
 84 77  1  0
106 85  2  0
117109  1  0
123119  2  0
135128  1  0
 23  7  1  0
 55 48  1  0
 63 56  1  0
 97 90  1  0
105 98  1  0
  1138  1  0
  6139  1  0
  9140  1  0
 17141  1  0
 18142  1  0
 19143  1  0
 20144  1  0
 21145  1  0
 22146  1  0
 22147  1  0
 23148  1  0
 28149  1  0
 29150  1  0
 32151  1  0
 32152  1  0
 32153  1  0
 33154  1  0
 34155  1  0
 36156  1  0
 37157  1  0
 40158  1  0
 40159  1  0
 40160  1  0
 41161  1  0
 42162  1  0
 49163  1  0
 50164  1  0
 53165  1  0
 53166  1  0
 53167  1  0
 54168  1  0
 55169  1  0
 57170  1  0
 58171  1  0
 61172  1  0
 61173  1  0
 61174  1  0
 62175  1  0
 63176  1  0
 70177  1  0
 71178  1  0
 74179  1  0
 74180  1  0
 74181  1  0
 75182  1  0
 76183  1  0
 78184  1  0
 79185  1  0
 82186  1  0
 82187  1  0
 82188  1  0
 83189  1  0
 84190  1  0
 91191  1  0
 92192  1  0
 95193  1  0
 95194  1  0
 95195  1  0
 96196  1  0
 97197  1  0
 99198  1  0
100199  1  0
103200  1  0
103201  1  0
103202  1  0
104203  1  0
105204  1  0
113205  1  0
113206  1  0
114207  1  0
114208  1  0
114209  1  0
124210  1  0
129211  1  0
134212  1  0
M  END

