
     RDKit          3D

271295  0  0  0  0  0  0  0  0999 V2000
   -4.0217   -4.5710   -5.7777 C   0  0  0  0  0  0  0  0  0  0  0  0
   -5.0176   -4.6115   -6.6971 C   0  0  0  0  0  0  0  0  0  0  0  0
   -5.6943   -5.8625   -7.0503 C   0  0  0  0  0  0  0  0  0  0  0  0
   -5.2489   -7.0260   -6.8587 O   0  0  0  0  0  0  0  0  0  0  0  0
   -6.9756   -5.5398   -7.6188 C   0  0  0  0  0  0  0  0  0  0  0  0
   -7.9720   -6.4432   -8.0278 C   0  0  0  0  0  0  0  0  0  0  0  0
   -9.1311   -5.8353   -8.4661 C   0  0  0  0  0  0  0  0  0  0  0  0
   -9.3090   -4.4147   -8.5276 C   0  0  0  0  0  0  0  0  0  0  0  0
   -8.3238   -3.5212   -8.1515 C   0  0  0  0  0  0  0  0  0  0  0  0
   -7.1191   -4.1281   -7.6802 C   0  0  0  0  0  0  0  0  0  0  0  0
   -5.8350   -3.5031   -7.2381 C   0  0  0  0  0  0  0  0  0  0  0  0
   -5.3559   -2.3388   -7.7316 C   0  0  0  0  0  0  0  0  0  0  0  0
   -3.9351   -2.1503   -7.9496 C   0  0  0  0  0  0  0  0  0  0  0  0
   -2.8145   -2.0127   -8.1260 N   0  0  0  0  0  0  0  0  0  0  0  0
   -6.2126   -1.2241   -8.0093 C   0  0  0  0  0  0  0  0  0  0  0  0
   -6.9089   -0.3052   -8.1971 N   0  0  0  0  0  0  0  0  0  0  0  0
  -10.7207   -4.5963   -8.9920 C   0  0  0  0  0  0  0  0  0  0  0  0
  -11.8396   -4.3106   -7.9429 C   0  0  0  0  0  0  0  0  0  0  0  0
  -13.0967   -4.9883   -8.4667 C   0  0  0  0  0  0  0  0  0  0  0  0
  -12.9021   -6.3025   -8.3346 C   0  0  0  0  0  0  0  0  0  0  0  0
  -11.5195   -6.4771   -7.7606 C   0  0  0  0  0  0  0  0  0  0  0  0
  -11.5055   -5.2826   -6.8205 C   0  0  0  0  0  0  0  0  0  0  0  0
  -10.5396   -6.0488   -8.8992 C   0  0  0  0  0  0  0  0  0  0  0  0
   -3.4519   -3.3947   -5.0877 C   0  0  0  0  0  0  0  0  0  0  0  0
   -2.2511   -3.4259   -4.3443 C   0  0  0  0  0  0  0  0  0  0  0  0
   -1.3311   -4.5409   -4.3717 N   0  0  0  0  0  0  0  0  0  0  0  0
   -1.0170   -5.3434   -3.1953 C   0  0  0  0  0  0  0  0  0  0  0  0
   -1.4156   -4.9278   -1.9051 C   0  0  0  0  0  0  0  0  0  0  0  0
   -0.9293   -5.5771   -0.7624 C   0  0  0  0  0  0  0  0  0  0  0  0
   -0.1542   -6.7259   -0.8672 C   0  0  0  0  0  0  0  0  0  0  0  0
    0.6174   -7.4814    0.5774 S   0  0  0  0  0  0  0  0  0  0  0  0
   -0.8843   -7.8977    1.5059 C   0  0  0  0  0  0  0  0  0  0  0  0
    0.1418   -7.2319   -2.1495 C   0  0  0  0  0  0  0  0  0  0  0  0
   -0.2581   -6.5262   -3.2882 C   0  0  0  0  0  0  0  0  0  0  0  0
   -0.7622   -4.8360   -5.6785 C   0  0  0  0  0  0  0  0  0  0  0  0
    0.0272   -3.8768   -6.3291 C   0  0  0  0  0  0  0  0  0  0  0  0
    0.4663   -4.0880   -7.6384 C   0  0  0  0  0  0  0  0  0  0  0  0
    0.1220   -5.2587   -8.3165 C   0  0  0  0  0  0  0  0  0  0  0  0
    0.6503   -5.5175  -10.0110 S   0  0  0  0  0  0  0  0  0  0  0  0
    2.1337   -6.4551   -9.5509 C   0  0  0  0  0  0  0  0  0  0  0  0
   -0.6632   -6.2240   -7.6794 C   0  0  0  0  0  0  0  0  0  0  0  0
   -1.1019   -6.0158   -6.3677 C   0  0  0  0  0  0  0  0  0  0  0  0
   -2.0289   -2.1959   -3.6957 C   0  0  0  0  0  0  0  0  0  0  0  0
   -0.9878   -1.6567   -2.5059 S   0  0  0  0  0  0  0  0  0  0  0  0
   -1.8164   -0.1963   -2.1229 C   0  0  0  0  0  0  0  0  0  0  0  0
   -2.9464   -0.1335   -2.9751 C   0  0  0  0  0  0  0  0  0  0  0  0
   -4.0913    0.7345   -2.8005 N   0  0  0  0  0  0  0  0  0  0  0  0
   -4.0267    1.9865   -3.5097 C   0  0  0  0  0  0  0  0  0  0  0  0
   -4.2488    2.0481   -4.8939 C   0  0  0  0  0  0  0  0  0  0  0  0
   -4.2445    3.2745   -5.5678 C   0  0  0  0  0  0  0  0  0  0  0  0
   -3.9551    4.4562   -4.8600 C   0  0  0  0  0  0  0  0  0  0  0  0
   -4.0732    6.0647   -5.6976 S   0  0  0  0  0  0  0  0  0  0  0  0
   -2.4338    6.0291   -6.4917 C   0  0  0  0  0  0  0  0  0  0  0  0
   -3.7366    4.4007   -3.4815 C   0  0  0  0  0  0  0  0  0  0  0  0
   -3.7691    3.1778   -2.8080 C   0  0  0  0  0  0  0  0  0  0  0  0
   -5.3760    0.0747   -2.5878 C   0  0  0  0  0  0  0  0  0  0  0  0
   -6.5546    0.5492   -3.2150 C   0  0  0  0  0  0  0  0  0  0  0  0
   -7.6137   -0.3330   -3.4726 C   0  0  0  0  0  0  0  0  0  0  0  0
   -7.5276   -1.6616   -3.0602 C   0  0  0  0  0  0  0  0  0  0  0  0
   -8.7485   -2.8512   -3.6098 S   0  0  0  0  0  0  0  0  0  0  0  0
   -9.4787   -3.0619   -1.9585 C   0  0  0  0  0  0  0  0  0  0  0  0
   -6.4529   -2.0877   -2.2804 C   0  0  0  0  0  0  0  0  0  0  0  0
   -5.4140   -1.1939   -1.9979 C   0  0  0  0  0  0  0  0  0  0  0  0
   -3.0003   -1.2674   -3.8335 C   0  0  0  0  0  0  0  0  0  0  0  0
   -4.2018   -1.8943   -4.8241 S   0  0  0  0  0  0  0  0  0  0  0  0
   -1.4865    0.5949   -0.9073 C   0  0  0  0  0  0  0  0  0  0  0  0
   -0.9763   -0.0179    0.2400 C   0  0  0  0  0  0  0  0  0  0  0  0
   -1.4136   -1.2949    0.7448 N   0  0  0  0  0  0  0  0  0  0  0  0
   -0.4439   -2.2585    1.2153 C   0  0  0  0  0  0  0  0  0  0  0  0
   -0.5597   -2.8007    2.5107 C   0  0  0  0  0  0  0  0  0  0  0  0
    0.3535   -3.7634    2.9516 C   0  0  0  0  0  0  0  0  0  0  0  0
    1.3899   -4.2128    2.1167 C   0  0  0  0  0  0  0  0  0  0  0  0
    2.5838   -5.3856    2.8290 S   0  0  0  0  0  0  0  0  0  0  0  0
    3.6231   -5.7966    1.3871 C   0  0  0  0  0  0  0  0  0  0  0  0
    1.5008   -3.6656    0.8248 C   0  0  0  0  0  0  0  0  0  0  0  0
    0.6196   -2.6676    0.4046 C   0  0  0  0  0  0  0  0  0  0  0  0
   -2.8330   -1.5220    0.9607 C   0  0  0  0  0  0  0  0  0  0  0  0
   -3.3631   -2.8204    0.8685 C   0  0  0  0  0  0  0  0  0  0  0  0
   -4.7322   -3.0410    0.9915 C   0  0  0  0  0  0  0  0  0  0  0  0
   -5.5979   -1.9535    1.2158 C   0  0  0  0  0  0  0  0  0  0  0  0
   -7.3776   -2.2199    1.1545 S   0  0  0  0  0  0  0  0  0  0  0  0
   -7.5670   -2.6800    2.9061 C   0  0  0  0  0  0  0  0  0  0  0  0
   -5.0834   -0.6658    1.3393 C   0  0  0  0  0  0  0  0  0  0  0  0
   -3.7130   -0.4449    1.2193 C   0  0  0  0  0  0  0  0  0  0  0  0
   -0.1731    0.8237    0.9846 C   0  0  0  0  0  0  0  0  0  0  0  0
    0.9242    0.5111    2.1829 S   0  0  0  0  0  0  0  0  0  0  0  0
    1.6400    2.0634    2.1407 C   0  0  0  0  0  0  0  0  0  0  0  0
    0.9551    2.8709    1.2405 C   0  0  0  0  0  0  0  0  0  0  0  0
    0.9170    4.3170    1.3834 N   0  0  0  0  0  0  0  0  0  0  0  0
    0.9581    5.2355    0.2456 C   0  0  0  0  0  0  0  0  0  0  0  0
    0.8291    6.6279    0.4395 C   0  0  0  0  0  0  0  0  0  0  0  0
    0.6058    7.4928   -0.6324 C   0  0  0  0  0  0  0  0  0  0  0  0
    0.5754    6.9841   -1.9329 C   0  0  0  0  0  0  0  0  0  0  0  0
    0.2844    8.1251   -3.2914 S   0  0  0  0  0  0  0  0  0  0  0  0
   -1.5238    7.9388   -3.2582 C   0  0  0  0  0  0  0  0  0  0  0  0
    0.7926    5.6287   -2.1625 C   0  0  0  0  0  0  0  0  0  0  0  0
    1.0429    4.7623   -1.0847 C   0  0  0  0  0  0  0  0  0  0  0  0
    0.4509    4.8439    2.6576 C   0  0  0  0  0  0  0  0  0  0  0  0
    1.3068    4.9885    3.7608 C   0  0  0  0  0  0  0  0  0  0  0  0
    0.8825    5.6597    4.9142 C   0  0  0  0  0  0  0  0  0  0  0  0
   -0.3912    6.2516    4.9513 C   0  0  0  0  0  0  0  0  0  0  0  0
   -0.8510    7.2769    6.3503 S   0  0  0  0  0  0  0  0  0  0  0  0
   -1.6100    5.9343    7.3182 C   0  0  0  0  0  0  0  0  0  0  0  0
   -1.2560    6.1128    3.8596 C   0  0  0  0  0  0  0  0  0  0  0  0
   -0.8485    5.3902    2.7405 C   0  0  0  0  0  0  0  0  0  0  0  0
   -0.0366    2.1052    0.5589 C   0  0  0  0  0  0  0  0  0  0  0  0
   -0.9255    2.2153   -0.8909 S   0  0  0  0  0  0  0  0  0  0  0  0
    2.9780    2.3402    2.7229 C   0  0  0  0  0  0  0  0  0  0  0  0
    3.4658    1.6977    3.8915 C   0  0  0  0  0  0  0  0  0  0  0  0
    3.0652    0.3646    4.3156 N   0  0  0  0  0  0  0  0  0  0  0  0
    2.0872    0.1298    5.3605 C   0  0  0  0  0  0  0  0  0  0  0  0
    2.1657   -1.0007    6.1903 C   0  0  0  0  0  0  0  0  0  0  0  0
    1.1637   -1.2883    7.1188 C   0  0  0  0  0  0  0  0  0  0  0  0
    0.0154   -0.4949    7.1943 C   0  0  0  0  0  0  0  0  0  0  0  0
   -1.2952   -0.8838    8.3477 S   0  0  0  0  0  0  0  0  0  0  0  0
   -2.0644   -2.2116    7.3581 C   0  0  0  0  0  0  0  0  0  0  0  0
   -0.0795    0.6363    6.3812 C   0  0  0  0  0  0  0  0  0  0  0  0
    0.9558    0.9631    5.4897 C   0  0  0  0  0  0  0  0  0  0  0  0
    3.8993   -0.6988    3.7931 C   0  0  0  0  0  0  0  0  0  0  0  0
    5.2755   -0.7418    4.1032 C   0  0  0  0  0  0  0  0  0  0  0  0
    6.1558   -1.4223    3.2564 C   0  0  0  0  0  0  0  0  0  0  0  0
    5.6914   -2.0625    2.1001 C   0  0  0  0  0  0  0  0  0  0  0  0
    6.8621   -2.6240    0.8532 S   0  0  0  0  0  0  0  0  0  0  0  0
    7.0850   -0.9395    0.1788 C   0  0  0  0  0  0  0  0  0  0  0  0
    4.3144   -2.1754    1.8954 C   0  0  0  0  0  0  0  0  0  0  0  0
    3.4300   -1.5030    2.7568 C   0  0  0  0  0  0  0  0  0  0  0  0
    4.6712    2.1474    4.4773 C   0  0  0  0  0  0  0  0  0  0  0  0
    6.0721    2.8783    3.9807 S   0  0  0  0  0  0  0  0  0  0  0  0
    7.5583    2.7398    4.6842 C   0  0  0  0  0  0  0  0  0  0  0  0
    6.8010    3.3381    3.5837 C   0  0  0  0  0  0  0  0  0  0  0  0
    7.5672    4.3594    2.6645 N   0  0  0  0  0  0  0  0  0  0  0  0
    8.6367    3.9049    1.7546 C   0  0  0  0  0  0  0  0  0  0  0  0
    9.6214    4.7988    1.2817 C   0  0  0  0  0  0  0  0  0  0  0  0
   10.7469    4.3188    0.6000 C   0  0  0  0  0  0  0  0  0  0  0  0
   10.9016    2.9473    0.3596 C   0  0  0  0  0  0  0  0  0  0  0  0
   12.3779    2.3793   -0.5145 S   0  0  0  0  0  0  0  0  0  0  0  0
   13.2469    1.8591    1.0104 C   0  0  0  0  0  0  0  0  0  0  0  0
    9.9041    2.0646    0.7400 C   0  0  0  0  0  0  0  0  0  0  0  0
    8.7796    2.5413    1.4372 C   0  0  0  0  0  0  0  0  0  0  0  0
    7.5183    5.7402    3.1173 C   0  0  0  0  0  0  0  0  0  0  0  0
    8.5559    6.2457    3.9325 C   0  0  0  0  0  0  0  0  0  0  0  0
    8.3381    7.3730    4.7251 C   0  0  0  0  0  0  0  0  0  0  0  0
    7.0747    7.9562    4.7365 C   0  0  0  0  0  0  0  0  0  0  0  0
    6.8415    9.5839    5.5138 S   0  0  0  0  0  0  0  0  0  0  0  0
    7.4281   10.5048    4.0508 C   0  0  0  0  0  0  0  0  0  0  0  0
    6.0763    7.5248    3.8507 C   0  0  0  0  0  0  0  0  0  0  0  0
    6.3385    6.4741    2.9812 C   0  0  0  0  0  0  0  0  0  0  0  0
    5.3787    2.9845    3.4705 C   0  0  0  0  0  0  0  0  0  0  0  0
    4.1617    3.3690    2.0655 S   0  0  0  0  0  0  0  0  0  0  0  0
    7.7695    1.3062    4.9659 C   0  0  0  0  0  0  0  0  0  0  0  0
    7.8455    0.7793    6.1904 C   0  0  0  0  0  0  0  0  0  0  0  0
    6.8290    0.8709    7.2131 C   0  0  0  0  0  0  0  0  0  0  0  0
    6.1875    1.9013    7.5651 O   0  0  0  0  0  0  0  0  0  0  0  0
    6.6948   -0.4160    7.8967 C   0  0  0  0  0  0  0  0  0  0  0  0
    5.8947   -0.8148    8.9865 C   0  0  0  0  0  0  0  0  0  0  0  0
    6.1663   -2.0695    9.6300 C   0  0  0  0  0  0  0  0  0  0  0  0
    5.2452   -2.5781   10.5879 O   0  0  0  0  0  0  0  0  0  0  0  0
    5.2139   -3.8992   11.0720 C   0  0  0  0  0  0  0  0  0  0  0  0
    6.1805   -4.3419   11.7659 O   0  0  0  0  0  0  0  0  0  0  0  0
    4.2628   -4.8612   10.4352 C   0  0  0  0  0  0  0  0  0  0  0  0
    7.2833   -2.8209    9.2244 C   0  0  0  0  0  0  0  0  0  0  0  0
    8.0163   -2.4651    8.0969 C   0  0  0  0  0  0  0  0  0  0  0  0
    7.7134   -1.2441    7.4231 C   0  0  0  0  0  0  0  0  0  0  0  0
    8.5742   -0.4704    6.4679 C   0  0  0  0  0  0  0  0  0  0  0  0
    9.9011   -0.4363    6.5904 C   0  0  0  0  0  0  0  0  0  0  0  0
   10.6501    0.6555    6.0245 C   0  0  0  0  0  0  0  0  0  0  0  0
   11.2893    1.5030    5.5718 N   0  0  0  0  0  0  0  0  0  0  0  0
   10.7107   -1.4113    7.3567 C   0  0  0  0  0  0  0  0  0  0  0  0
   11.3694   -2.1830    7.9033 N   0  0  0  0  0  0  0  0  0  0  0  0
   -3.6271   -5.5309   -5.4582 H   0  0  0  0  0  0  0  0  0  0  0  0
   -7.8625   -7.5200   -7.9516 H   0  0  0  0  0  0  0  0  0  0  0  0
   -8.5032   -2.4514   -8.1585 H   0  0  0  0  0  0  0  0  0  0  0  0
  -10.9162   -4.2242  -10.0211 H   0  0  0  0  0  0  0  0  0  0  0  0
  -11.9682   -3.2488   -7.6545 H   0  0  0  0  0  0  0  0  0  0  0  0
  -13.9984   -4.5136   -8.8146 H   0  0  0  0  0  0  0  0  0  0  0  0
  -13.6305   -7.0765   -8.5364 H   0  0  0  0  0  0  0  0  0  0  0  0
  -11.3169   -7.4649   -7.2954 H   0  0  0  0  0  0  0  0  0  0  0  0
  -12.2995   -5.3276   -6.0328 H   0  0  0  0  0  0  0  0  0  0  0  0
  -10.5295   -5.0976   -6.3236 H   0  0  0  0  0  0  0  0  0  0  0  0
  -10.6378   -6.6024   -9.8651 H   0  0  0  0  0  0  0  0  0  0  0  0
   -2.0812   -4.0948   -1.7618 H   0  0  0  0  0  0  0  0  0  0  0  0
   -1.1330   -5.1682    0.2223 H   0  0  0  0  0  0  0  0  0  0  0  0
   -1.1707   -7.0294    2.1405 H   0  0  0  0  0  0  0  0  0  0  0  0
   -0.6637   -8.7537    2.1741 H   0  0  0  0  0  0  0  0  0  0  0  0
   -1.7215   -8.1662    0.8375 H   0  0  0  0  0  0  0  0  0  0  0  0
    0.7588   -8.1174   -2.2557 H   0  0  0  0  0  0  0  0  0  0  0  0
    0.0495   -6.9390   -4.2369 H   0  0  0  0  0  0  0  0  0  0  0  0
    0.2788   -2.9599   -5.8137 H   0  0  0  0  0  0  0  0  0  0  0  0
    1.0525   -3.3176   -8.1363 H   0  0  0  0  0  0  0  0  0  0  0  0
    2.6792   -6.7495  -10.4658 H   0  0  0  0  0  0  0  0  0  0  0  0
    1.8498   -7.3694   -8.9916 H   0  0  0  0  0  0  0  0  0  0  0  0
    2.8113   -5.8236   -8.9257 H   0  0  0  0  0  0  0  0  0  0  0  0
   -0.9552   -7.1260   -8.2079 H   0  0  0  0  0  0  0  0  0  0  0  0
   -1.7206   -6.7698   -5.8976 H   0  0  0  0  0  0  0  0  0  0  0  0
   -4.5003    1.1510   -5.4439 H   0  0  0  0  0  0  0  0  0  0  0  0
   -4.4901    3.3108   -6.6192 H   0  0  0  0  0  0  0  0  0  0  0  0
   -1.6375    5.7939   -5.7634 H   0  0  0  0  0  0  0  0  0  0  0  0
   -2.4207    5.2839   -7.3219 H   0  0  0  0  0  0  0  0  0  0  0  0
   -2.2352    7.0321   -6.9245 H   0  0  0  0  0  0  0  0  0  0  0  0
   -3.5672    5.3122   -2.9179 H   0  0  0  0  0  0  0  0  0  0  0  0
   -3.6606    3.1455   -1.7296 H   0  0  0  0  0  0  0  0  0  0  0  0
   -6.6117    1.5468   -3.6238 H   0  0  0  0  0  0  0  0  0  0  0  0
   -8.4515    0.0032   -4.0642 H   0  0  0  0  0  0  0  0  0  0  0  0
   -8.7536   -3.5847   -1.3036 H   0  0  0  0  0  0  0  0  0  0  0  0
  -10.3981   -3.6742   -2.0383 H   0  0  0  0  0  0  0  0  0  0  0  0
   -9.7299   -2.0722   -1.5147 H   0  0  0  0  0  0  0  0  0  0  0  0
   -6.3690   -3.1131   -1.9780 H   0  0  0  0  0  0  0  0  0  0  0  0
   -4.5517   -1.5813   -1.4723 H   0  0  0  0  0  0  0  0  0  0  0  0
   -1.3440   -2.4699    3.1639 H   0  0  0  0  0  0  0  0  0  0  0  0
    0.2564   -4.1467    3.9650 H   0  0  0  0  0  0  0  0  0  0  0  0
    3.0166   -6.1064    0.5182 H   0  0  0  0  0  0  0  0  0  0  0  0
    4.2638   -4.9379    1.1052 H   0  0  0  0  0  0  0  0  0  0  0  0
    4.2709   -6.6438    1.6601 H   0  0  0  0  0  0  0  0  0  0  0  0
    2.2763   -3.9668    0.1337 H   0  0  0  0  0  0  0  0  0  0  0  0
    0.7772   -2.2287   -0.5633 H   0  0  0  0  0  0  0  0  0  0  0  0
   -2.7208   -3.6589    0.6667 H   0  0  0  0  0  0  0  0  0  0  0  0
   -5.1344   -4.0260    0.8348 H   0  0  0  0  0  0  0  0  0  0  0  0
   -6.7580   -3.3452    3.2620 H   0  0  0  0  0  0  0  0  0  0  0  0
   -7.5861   -1.7594    3.5224 H   0  0  0  0  0  0  0  0  0  0  0  0
   -8.5513   -3.1903    3.0153 H   0  0  0  0  0  0  0  0  0  0  0  0
   -5.7402    0.1806    1.4621 H   0  0  0  0  0  0  0  0  0  0  0  0
   -3.3364    0.5611    1.3319 H   0  0  0  0  0  0  0  0  0  0  0  0
    0.8686    7.0593    1.4341 H   0  0  0  0  0  0  0  0  0  0  0  0
    0.4684    8.5439   -0.4365 H   0  0  0  0  0  0  0  0  0  0  0  0
   -1.7871    6.9002   -3.5538 H   0  0  0  0  0  0  0  0  0  0  0  0
   -1.9206    8.1570   -2.2349 H   0  0  0  0  0  0  0  0  0  0  0  0
   -1.9794    8.6523   -3.9806 H   0  0  0  0  0  0  0  0  0  0  0  0
    0.8060    5.2324   -3.1641 H   0  0  0  0  0  0  0  0  0  0  0  0
    1.2802    3.7354   -1.2960 H   0  0  0  0  0  0  0  0  0  0  0  0
    2.3214    4.6218    3.7539 H   0  0  0  0  0  0  0  0  0  0  0  0
    1.5523    5.7584    5.7702 H   0  0  0  0  0  0  0  0  0  0  0  0
   -1.6233    6.2433    8.3833 H   0  0  0  0  0  0  0  0  0  0  0  0
   -1.0581    4.9717    7.2253 H   0  0  0  0  0  0  0  0  0  0  0  0
   -2.6607    5.7939    6.9684 H   0  0  0  0  0  0  0  0  0  0  0  0
   -2.2146    6.6094    3.8513 H   0  0  0  0  0  0  0  0  0  0  0  0
   -1.5029    5.3210    1.8893 H   0  0  0  0  0  0  0  0  0  0  0  0
    3.0366   -1.6424    6.1640 H   0  0  0  0  0  0  0  0  0  0  0  0
    1.2888   -2.1309    7.8024 H   0  0  0  0  0  0  0  0  0  0  0  0
   -1.6072   -3.1914    7.6250 H   0  0  0  0  0  0  0  0  0  0  0  0
   -1.9607   -2.0267    6.2695 H   0  0  0  0  0  0  0  0  0  0  0  0
   -3.1472   -2.2642    7.6070 H   0  0  0  0  0  0  0  0  0  0  0  0
   -0.9640    1.2744    6.4375 H   0  0  0  0  0  0  0  0  0  0  0  0
    0.8570    1.8574    4.8819 H   0  0  0  0  0  0  0  0  0  0  0  0
    5.6516   -0.1751    4.9408 H   0  0  0  0  0  0  0  0  0  0  0  0
    7.2248   -1.3265    3.4033 H   0  0  0  0  0  0  0  0  0  0  0  0
    7.9487   -0.4244    0.6735 H   0  0  0  0  0  0  0  0  0  0  0  0
    6.1690   -0.3103    0.3313 H   0  0  0  0  0  0  0  0  0  0  0  0
    7.2461   -0.9846   -0.9189 H   0  0  0  0  0  0  0  0  0  0  0  0
    3.9485   -2.6861    1.0097 H   0  0  0  0  0  0  0  0  0  0  0  0
    2.3604   -1.6188    2.5729 H   0  0  0  0  0  0  0  0  0  0  0  0
    9.6403    5.8305    1.5395 H   0  0  0  0  0  0  0  0  0  0  0  0
   11.5093    5.0271    0.3164 H   0  0  0  0  0  0  0  0  0  0  0  0
   14.2330    2.3729    1.0333 H   0  0  0  0  0  0  0  0  0  0  0  0
   12.7103    2.1274    1.9584 H   0  0  0  0  0  0  0  0  0  0  0  0
   13.4117    0.7598    0.9820 H   0  0  0  0  0  0  0  0  0  0  0  0
   10.0028    1.0070    0.5325 H   0  0  0  0  0  0  0  0  0  0  0  0
    8.1474    1.7936    1.9317 H   0  0  0  0  0  0  0  0  0  0  0  0
    9.5105    5.7462    4.0179 H   0  0  0  0  0  0  0  0  0  0  0  0
    9.1387    7.7794    5.3267 H   0  0  0  0  0  0  0  0  0  0  0  0
    8.3180   10.0197    3.5844 H   0  0  0  0  0  0  0  0  0  0  0  0
    7.6970   11.5349    4.3665 H   0  0  0  0  0  0  0  0  0  0  0  0
    6.6083   10.5560    3.2955 H   0  0  0  0  0  0  0  0  0  0  0  0
    5.0982    7.9748    3.8357 H   0  0  0  0  0  0  0  0  0  0  0  0
    5.5924    6.1561    2.2716 H   0  0  0  0  0  0  0  0  0  0  0  0
    8.2933    0.7806    4.1706 H   0  0  0  0  0  0  0  0  0  0  0  0
    4.9852   -0.2900    9.2270 H   0  0  0  0  0  0  0  0  0  0  0  0
    3.5300   -4.3140    9.7730 H   0  0  0  0  0  0  0  0  0  0  0  0
    4.8343   -5.5791    9.7808 H   0  0  0  0  0  0  0  0  0  0  0  0
    3.6899   -5.4215   11.2043 H   0  0  0  0  0  0  0  0  0  0  0  0
    7.5686   -3.7565    9.7450 H   0  0  0  0  0  0  0  0  0  0  0  0
    8.6966   -3.1677    7.6599 H   0  0  0  0  0  0  0  0  0  0  0  0
  1  2  2  3
  2  3  1  0
  3  4  2  0
  3  5  1  0
  5  6  2  0
  6  7  1  0
  7  8  2  0
  8  9  1  0
  9 10  2  0
 10 11  1  0
 11 12  2  3
 12 13  1  0
 13 14  3  0
 12 15  1  0
 15 16  3  0
  8 17  1  0
 17 18  1  0
 18 19  1  0
 19 20  2  0
 20 21  1  0
 21 22  1  0
 21 23  1  0
  1 24  1  0
 24 25  2  0
 25 26  1  0
 26 27  1  0
 27 28  2  0
 28 29  1  0
 29 30  2  0
 30 31  1  0
 31 32  1  0
 30 33  1  0
 33 34  2  0
 26 35  1  0
 35 36  2  0
 36 37  1  0
 37 38  2  0
 38 39  1  0
 39 40  1  0
 38 41  1  0
 41 42  2  0
 25 43  1  0
 43 44  1  0
 44 45  1  0
 45 46  2  0
 46 47  1  0
 47 48  1  0
 48 49  2  0
 49 50  1  0
 50 51  2  0
 51 52  1  0
 52 53  1  0
 51 54  1  0
 54 55  2  0
 47 56  1  0
 56 57  2  0
 57 58  1  0
 58 59  2  0
 59 60  1  0
 60 61  1  0
 59 62  1  0
 62 63  2  0
 46 64  1  0
 64 65  1  0
 45 66  1  0
 66 67  2  0
 67 68  1  0
 68 69  1  0
 69 70  2  0
 70 71  1  0
 71 72  2  0
 72 73  1  0
 73 74  1  0
 72 75  1  0
 75 76  2  0
 68 77  1  0
 77 78  2  0
 78 79  1  0
 79 80  2  0
 80 81  1  0
 81 82  1  0
 80 83  1  0
 83 84  2  0
 67 85  1  0
 85 86  1  0
 86 87  1  0
 87 88  2  0
 88 89  1  0
 89 90  1  0
 90 91  2  0
 91 92  1  0
 92 93  2  0
 93 94  1  0
 94 95  1  0
 93 96  1  0
 96 97  2  0
 89 98  1  0
 98 99  2  0
 99100  1  0
100101  2  0
101102  1  0
102103  1  0
101104  1  0
104105  2  0
 88106  1  0
106107  1  0
 87108  1  0
108109  2  0
109110  1  0
110111  1  0
111112  2  0
112113  1  0
113114  2  0
114115  1  0
115116  1  0
114117  1  0
117118  2  0
110119  1  0
119120  2  0
120121  1  0
121122  2  0
122123  1  0
123124  1  0
122125  1  0
125126  2  0
109127  1  0
127128  1  0
128129  1  0
129130  2  0
130131  1  0
131132  1  0
132133  2  0
133134  1  0
134135  2  0
135136  1  0
136137  1  0
135138  1  0
138139  2  0
131140  1  0
140141  2  0
141142  1  0
142143  2  0
143144  1  0
144145  1  0
143146  1  0
146147  2  0
130148  1  0
148149  1  0
129150  1  0
150151  2  3
151152  1  0
152153  2  0
152154  1  0
154155  2  0
155156  1  0
156157  1  0
157158  1  0
158159  2  0
158160  1  0
156161  2  0
161162  1  0
162163  2  0
163164  1  0
164165  2  3
165166  1  0
166167  3  0
165168  1  0
168169  3  0
 11  2  1  0
 23 17  1  0
 65 24  1  0
107 66  1  0
149108  1  0
164151  1  0
 10  5  1  0
 22 18  1  0
 34 27  1  0
 42 35  1  0
 64 43  2  0
 76 69  1  0
 84 77  1  0
106 85  2  0
118111  1  0
126119  1  0
148127  2  0
163154  1  0
 23  7  1  0
 55 48  1  0
 63 56  1  0
 97 90  1  0
105 98  1  0
139132  1  0
147140  1  0
  1170  1  0
  6171  1  0
  9172  1  0
 17173  1  0
 18174  1  0
 19175  1  0
 20176  1  0
 21177  1  0
 22178  1  0
 22179  1  0
 23180  1  0
 28181  1  0
 29182  1  0
 32183  1  0
 32184  1  0
 32185  1  0
 33186  1  0
 34187  1  0
 36188  1  0
 37189  1  0
 40190  1  0
 40191  1  0
 40192  1  0
 41193  1  0
 42194  1  0
 49195  1  0
 50196  1  0
 53197  1  0
 53198  1  0
 53199  1  0
 54200  1  0
 55201  1  0
 57202  1  0
 58203  1  0
 61204  1  0
 61205  1  0
 61206  1  0
 62207  1  0
 63208  1  0
 70209  1  0
 71210  1  0
 74211  1  0
 74212  1  0
 74213  1  0
 75214  1  0
 76215  1  0
 78216  1  0
 79217  1  0
 82218  1  0
 82219  1  0
 82220  1  0
 83221  1  0
 84222  1  0
 91223  1  0
 92224  1  0
 95225  1  0
 95226  1  0
 95227  1  0
 96228  1  0
 97229  1  0
 99230  1  0
100231  1  0
103232  1  0
103233  1  0
103234  1  0
104235  1  0
105236  1  0
112237  1  0
113238  1  0
116239  1  0
116240  1  0
116241  1  0
117242  1  0
118243  1  0
120244  1  0
121245  1  0
124246  1  0
124247  1  0
124248  1  0
125249  1  0
126250  1  0
133251  1  0
134252  1  0
137253  1  0
137254  1  0
137255  1  0
138256  1  0
139257  1  0
141258  1  0
142259  1  0
145260  1  0
145261  1  0
145262  1  0
146263  1  0
147264  1  0
150265  1  0
155266  1  0
160267  1  0
160268  1  0
160269  1  0
161270  1  0
162271  1  0
M  END

