
     RDKit          3D

177195  0  0  0  0  0  0  0  0999 V2000
   -2.8856   -5.2989    1.6185 C   0  0  0  0  0  0  0  0  0  0  0  0
   -3.4255   -5.1526    2.8415 C   0  0  0  0  0  0  0  0  0  0  0  0
   -2.6743   -5.5653    4.0291 C   0  0  0  0  0  0  0  0  0  0  0  0
   -1.8676   -6.5320    4.0968 O   0  0  0  0  0  0  0  0  0  0  0  0
   -2.8680   -4.5688    5.0654 C   0  0  0  0  0  0  0  0  0  0  0  0
   -2.1215   -4.4068    6.2578 C   0  0  0  0  0  0  0  0  0  0  0  0
   -2.3997   -3.2301    6.9296 C   0  0  0  0  0  0  0  0  0  0  0  0
   -3.3528   -2.2655    6.4669 C   0  0  0  0  0  0  0  0  0  0  0  0
   -4.0919   -2.4179    5.3078 C   0  0  0  0  0  0  0  0  0  0  0  0
   -3.8235   -3.6252    4.6080 C   0  0  0  0  0  0  0  0  0  0  0  0
   -4.3224   -4.0533    3.2870 C   0  0  0  0  0  0  0  0  0  0  0  0
   -5.5580   -3.8326    2.7886 C   0  0  0  0  0  0  0  0  0  0  0  0
   -6.4672   -2.8774    3.3724 C   0  0  0  0  0  0  0  0  0  0  0  0
   -7.2028   -2.1047    3.8264 N   0  0  0  0  0  0  0  0  0  0  0  0
   -6.0557   -4.6011    1.6708 C   0  0  0  0  0  0  0  0  0  0  0  0
   -6.4646   -5.2137    0.7788 N   0  0  0  0  0  0  0  0  0  0  0  0
   -3.0193   -1.3595    7.6078 C   0  0  0  0  0  0  0  0  0  0  0  0
   -2.1500   -0.1140    7.2663 C   0  0  0  0  0  0  0  0  0  0  0  0
   -1.6319    0.3992    8.5885 C   0  0  0  0  0  0  0  0  0  0  0  0
   -0.7386   -0.4967    9.0209 C   0  0  0  0  0  0  0  0  0  0  0  0
   -0.6848   -1.5861    7.9726 C   0  0  0  0  0  0  0  0  0  0  0  0
   -0.8647   -0.7264    6.7323 C   0  0  0  0  0  0  0  0  0  0  0  0
   -2.0423   -2.3454    8.0834 C   0  0  0  0  0  0  0  0  0  0  0  0
   -2.6701   -4.1645    0.6883 C   0  0  0  0  0  0  0  0  0  0  0  0
   -1.4585   -3.9325    0.0176 C   0  0  0  0  0  0  0  0  0  0  0  0
   -0.3429   -4.8347    0.0319 N   0  0  0  0  0  0  0  0  0  0  0  0
    0.7221   -4.6839    1.0009 C   0  0  0  0  0  0  0  0  0  0  0  0
    2.0186   -5.1511    0.7123 C   0  0  0  0  0  0  0  0  0  0  0  0
    3.0522   -4.9900    1.6379 C   0  0  0  0  0  0  0  0  0  0  0  0
    2.8130   -4.3450    2.8556 C   0  0  0  0  0  0  0  0  0  0  0  0
    4.1466   -4.1198    4.0360 S   0  0  0  0  0  0  0  0  0  0  0  0
    4.7210   -2.5700    3.2719 C   0  0  0  0  0  0  0  0  0  0  0  0
    1.5268   -3.8887    3.1576 C   0  0  0  0  0  0  0  0  0  0  0  0
    0.4865   -4.0565    2.2397 C   0  0  0  0  0  0  0  0  0  0  0  0
   -0.3626   -5.9298   -0.8962 C   0  0  0  0  0  0  0  0  0  0  0  0
   -0.5932   -5.6931   -2.2594 C   0  0  0  0  0  0  0  0  0  0  0  0
   -0.7154   -6.7638   -3.1509 C   0  0  0  0  0  0  0  0  0  0  0  0
   -0.6227   -8.0781   -2.6832 C   0  0  0  0  0  0  0  0  0  0  0  0
   -0.8718   -9.4516   -3.8131 S   0  0  0  0  0  0  0  0  0  0  0  0
   -2.6702   -9.4925   -3.5434 C   0  0  0  0  0  0  0  0  0  0  0  0
   -0.3785   -8.3223   -1.3261 C   0  0  0  0  0  0  0  0  0  0  0  0
   -0.2480   -7.2513   -0.4359 C   0  0  0  0  0  0  0  0  0  0  0  0
   -1.4340   -2.6904   -0.5944 C   0  0  0  0  0  0  0  0  0  0  0  0
   -0.2828   -1.8228   -1.4499 S   0  0  0  0  0  0  0  0  0  0  0  0
   -1.2687   -0.4335   -1.5927 C   0  0  0  0  0  0  0  0  0  0  0  0
   -2.4986   -0.6636   -0.9693 C   0  0  0  0  0  0  0  0  0  0  0  0
   -3.5381    0.3093   -0.8113 N   0  0  0  0  0  0  0  0  0  0  0  0
   -4.7852    0.1176   -1.5219 C   0  0  0  0  0  0  0  0  0  0  0  0
   -6.0181    0.3522   -0.8851 C   0  0  0  0  0  0  0  0  0  0  0  0
   -7.2205    0.0772   -1.5391 C   0  0  0  0  0  0  0  0  0  0  0  0
   -7.2133   -0.4266   -2.8423 C   0  0  0  0  0  0  0  0  0  0  0  0
   -8.7568   -0.8971   -3.6374 S   0  0  0  0  0  0  0  0  0  0  0  0
   -9.0900    0.7597   -4.3093 C   0  0  0  0  0  0  0  0  0  0  0  0
   -5.9968   -0.6473   -3.4940 C   0  0  0  0  0  0  0  0  0  0  0  0
   -4.7907   -0.3831   -2.8388 C   0  0  0  0  0  0  0  0  0  0  0  0
   -3.4413    1.2563    0.2774 C   0  0  0  0  0  0  0  0  0  0  0  0
   -2.9885    0.8468    1.5472 C   0  0  0  0  0  0  0  0  0  0  0  0
   -3.0098    1.7324    2.6265 C   0  0  0  0  0  0  0  0  0  0  0  0
   -3.4618    3.0463    2.4502 C   0  0  0  0  0  0  0  0  0  0  0  0
   -3.6248    4.1369    3.8695 S   0  0  0  0  0  0  0  0  0  0  0  0
   -1.9587    4.8510    3.7249 C   0  0  0  0  0  0  0  0  0  0  0  0
   -3.8684    3.4739    1.1807 C   0  0  0  0  0  0  0  0  0  0  0  0
   -3.8579    2.5845    0.0982 C   0  0  0  0  0  0  0  0  0  0  0  0
   -2.5529   -1.9470   -0.4391 C   0  0  0  0  0  0  0  0  0  0  0  0
   -3.6631   -2.7843    0.4865 S   0  0  0  0  0  0  0  0  0  0  0  0
   -0.9063    0.7459   -2.3861 C   0  0  0  0  0  0  0  0  0  0  0  0
   -0.4561    1.9221   -1.7631 C   0  0  0  0  0  0  0  0  0  0  0  0
   -0.4476    2.0026   -0.3666 O   0  0  0  0  0  0  0  0  0  0  0  0
    0.7670    2.0307    0.3697 C   0  0  0  0  0  0  0  0  0  0  0  0
    0.4723    2.2483    1.8400 C   0  0  0  0  0  0  0  0  0  0  0  0
    0.0391    2.9996   -2.5318 C   0  0  0  0  0  0  0  0  0  0  0  0
    0.4052    4.1906   -1.8973 O   0  0  0  0  0  0  0  0  0  0  0  0
   -0.5130    5.2686   -1.7407 C   0  0  0  0  0  0  0  0  0  0  0  0
   -0.8419    5.4730   -0.2725 C   0  0  0  0  0  0  0  0  0  0  0  0
    0.2113    2.8584   -3.9280 C   0  0  0  0  0  0  0  0  0  0  0  0
   -0.2841    1.7057   -4.5496 C   0  0  0  0  0  0  0  0  0  0  0  0
   -0.8455    0.6474   -3.7806 C   0  0  0  0  0  0  0  0  0  0  0  0
   -1.2483   -0.4556   -4.4660 N   0  0  0  0  0  0  0  0  0  0  0  0
   -0.8619   -0.0117   -6.0114 S   0  0  0  0  0  0  0  0  0  0  0  0
   -0.1987    1.4951   -5.8908 N   0  0  0  0  0  0  0  0  0  0  0  0
    1.2198    3.6685   -4.6303 C   0  0  0  0  0  0  0  0  0  0  0  0
    1.3222    5.0542   -4.7191 C   0  0  0  0  0  0  0  0  0  0  0  0
    2.5355    5.4792   -5.2861 C   0  0  0  0  0  0  0  0  0  0  0  0
    2.9832    7.2087   -5.4275 S   0  0  0  0  0  0  0  0  0  0  0  0
    3.7957    7.3015   -3.7916 C   0  0  0  0  0  0  0  0  0  0  0  0
    3.3503    8.5593   -3.0577 C   0  0  0  0  0  0  0  0  0  0  0  0
    3.3790    4.4285   -5.6372 C   0  0  0  0  0  0  0  0  0  0  0  0
    2.6254    2.9921   -5.2392 S   0  0  0  0  0  0  0  0  0  0  0  0
    4.7234    4.4708   -6.2335 C   0  0  0  0  0  0  0  0  0  0  0  0
    5.7375    3.8267   -5.6175 C   0  0  0  0  0  0  0  0  0  0  0  0
    5.7368    3.5267   -4.1827 C   0  0  0  0  0  0  0  0  0  0  0  0
    5.1961    4.2269   -3.2836 O   0  0  0  0  0  0  0  0  0  0  0  0
    6.4020    2.2643   -3.9620 C   0  0  0  0  0  0  0  0  0  0  0  0
    6.4382    1.5334   -2.7564 C   0  0  0  0  0  0  0  0  0  0  0  0
    6.9543    0.2618   -2.8925 C   0  0  0  0  0  0  0  0  0  0  0  0
    7.3979   -0.2750   -4.1430 C   0  0  0  0  0  0  0  0  0  0  0  0
    7.3740    0.4440   -5.3297 C   0  0  0  0  0  0  0  0  0  0  0  0
    6.8752    1.7716   -5.2058 C   0  0  0  0  0  0  0  0  0  0  0  0
    6.6101    2.7988   -6.2584 C   0  0  0  0  0  0  0  0  0  0  0  0
    7.1489    2.8584   -7.5026 C   0  0  0  0  0  0  0  0  0  0  0  0
    7.9974    1.8189   -8.0268 C   0  0  0  0  0  0  0  0  0  0  0  0
    8.6712    0.9806   -8.4679 N   0  0  0  0  0  0  0  0  0  0  0  0
    6.9755    4.0034   -8.3595 C   0  0  0  0  0  0  0  0  0  0  0  0
    6.8434    4.9232   -9.0492 N   0  0  0  0  0  0  0  0  0  0  0  0
    7.6829   -1.5949   -3.4904 C   0  0  0  0  0  0  0  0  0  0  0  0
    6.6606   -2.7446   -3.7501 C   0  0  0  0  0  0  0  0  0  0  0  0
    6.9377   -3.7931   -2.6962 C   0  0  0  0  0  0  0  0  0  0  0  0
    6.5348   -3.2787   -1.5300 C   0  0  0  0  0  0  0  0  0  0  0  0
    6.0005   -1.8991   -1.8354 C   0  0  0  0  0  0  0  0  0  0  0  0
    5.3638   -2.1908   -3.1828 C   0  0  0  0  0  0  0  0  0  0  0  0
    7.2429   -1.0356   -2.2075 C   0  0  0  0  0  0  0  0  0  0  0  0
   -2.2104   -6.1326    1.4853 H   0  0  0  0  0  0  0  0  0  0  0  0
   -1.3647   -5.1002    6.5849 H   0  0  0  0  0  0  0  0  0  0  0  0
   -4.7424   -1.6398    4.9403 H   0  0  0  0  0  0  0  0  0  0  0  0
   -3.8724   -1.1822    8.3011 H   0  0  0  0  0  0  0  0  0  0  0  0
   -2.6312    0.6516    6.6214 H   0  0  0  0  0  0  0  0  0  0  0  0
   -1.8515    1.3505    9.0556 H   0  0  0  0  0  0  0  0  0  0  0  0
   -0.1155   -0.3974    9.8987 H   0  0  0  0  0  0  0  0  0  0  0  0
    0.2235   -2.2233    7.9980 H   0  0  0  0  0  0  0  0  0  0  0  0
   -0.9872   -1.2938    5.7865 H   0  0  0  0  0  0  0  0  0  0  0  0
   -0.0479    0.0249    6.5945 H   0  0  0  0  0  0  0  0  0  0  0  0
   -2.2772   -2.7832    9.0779 H   0  0  0  0  0  0  0  0  0  0  0  0
    2.2421   -5.6178   -0.2382 H   0  0  0  0  0  0  0  0  0  0  0  0
    4.0459   -5.3359    1.3918 H   0  0  0  0  0  0  0  0  0  0  0  0
    5.5374   -2.1451    3.8923 H   0  0  0  0  0  0  0  0  0  0  0  0
    5.1165   -2.7823    2.2576 H   0  0  0  0  0  0  0  0  0  0  0  0
    3.8938   -1.8354    3.2096 H   0  0  0  0  0  0  0  0  0  0  0  0
    1.3308   -3.4090    4.1076 H   0  0  0  0  0  0  0  0  0  0  0  0
   -0.4983   -3.6860    2.4968 H   0  0  0  0  0  0  0  0  0  0  0  0
   -0.6857   -4.6822   -2.6327 H   0  0  0  0  0  0  0  0  0  0  0  0
   -0.8961   -6.5686   -4.1977 H   0  0  0  0  0  0  0  0  0  0  0  0
   -3.1119  -10.2962   -4.1707 H   0  0  0  0  0  0  0  0  0  0  0  0
   -2.8905   -9.7046   -2.4765 H   0  0  0  0  0  0  0  0  0  0  0  0
   -3.1237   -8.5207   -3.8340 H   0  0  0  0  0  0  0  0  0  0  0  0
   -0.3063   -9.3365   -0.9579 H   0  0  0  0  0  0  0  0  0  0  0  0
   -0.0922   -7.4521    0.6190 H   0  0  0  0  0  0  0  0  0  0  0  0
   -6.0519    0.7118    0.1346 H   0  0  0  0  0  0  0  0  0  0  0  0
   -8.1584    0.2312   -1.0162 H   0  0  0  0  0  0  0  0  0  0  0  0
   -9.1361    1.4965   -3.4789 H   0  0  0  0  0  0  0  0  0  0  0  0
   -8.2960    1.0475   -5.0295 H   0  0  0  0  0  0  0  0  0  0  0  0
  -10.0722    0.7466   -4.8328 H   0  0  0  0  0  0  0  0  0  0  0  0
   -5.9854   -1.0569   -4.4955 H   0  0  0  0  0  0  0  0  0  0  0  0
   -3.8647   -0.5876   -3.3583 H   0  0  0  0  0  0  0  0  0  0  0  0
   -2.6585   -0.1665    1.7181 H   0  0  0  0  0  0  0  0  0  0  0  0
   -2.6954    1.3893    3.6050 H   0  0  0  0  0  0  0  0  0  0  0  0
   -1.8730    5.4203    2.7804 H   0  0  0  0  0  0  0  0  0  0  0  0
   -1.1982    4.0493    3.7788 H   0  0  0  0  0  0  0  0  0  0  0  0
   -1.7880    5.5445    4.5732 H   0  0  0  0  0  0  0  0  0  0  0  0
   -4.2187    4.4876    1.0363 H   0  0  0  0  0  0  0  0  0  0  0  0
   -4.1982    2.9250   -0.8706 H   0  0  0  0  0  0  0  0  0  0  0  0
    1.3042    1.0683    0.2464 H   0  0  0  0  0  0  0  0  0  0  0  0
    1.4204    2.8530    0.0111 H   0  0  0  0  0  0  0  0  0  0  0  0
    1.4193    2.2860    2.4210 H   0  0  0  0  0  0  0  0  0  0  0  0
   -0.0643    3.2085    1.9715 H   0  0  0  0  0  0  0  0  0  0  0  0
   -0.1536    1.4151    2.2289 H   0  0  0  0  0  0  0  0  0  0  0  0
   -1.4540    5.0810   -2.3119 H   0  0  0  0  0  0  0  0  0  0  0  0
   -0.0511    6.1981   -2.1325 H   0  0  0  0  0  0  0  0  0  0  0  0
   -1.6294    6.2448   -0.1665 H   0  0  0  0  0  0  0  0  0  0  0  0
    0.0611    5.8094    0.2762 H   0  0  0  0  0  0  0  0  0  0  0  0
   -1.2119    4.5311    0.1752 H   0  0  0  0  0  0  0  0  0  0  0  0
    0.5614    5.7351   -4.3789 H   0  0  0  0  0  0  0  0  0  0  0  0
    4.8967    7.3337   -3.9348 H   0  0  0  0  0  0  0  0  0  0  0  0
    3.5532    6.4218   -3.1544 H   0  0  0  0  0  0  0  0  0  0  0  0
    2.2548    8.5301   -2.8751 H   0  0  0  0  0  0  0  0  0  0  0  0
    3.6063    9.4681   -3.6451 H   0  0  0  0  0  0  0  0  0  0  0  0
    3.8650    8.6179   -2.0739 H   0  0  0  0  0  0  0  0  0  0  0  0
    4.7311    4.5978   -7.3043 H   0  0  0  0  0  0  0  0  0  0  0  0
    6.0366    1.9033   -1.8252 H   0  0  0  0  0  0  0  0  0  0  0  0
    7.6445   -0.0227   -6.2614 H   0  0  0  0  0  0  0  0  0  0  0  0
    8.7539   -1.8917   -3.5143 H   0  0  0  0  0  0  0  0  0  0  0  0
    6.6109   -3.1216   -4.7916 H   0  0  0  0  0  0  0  0  0  0  0  0
    7.2999   -4.8053   -2.8530 H   0  0  0  0  0  0  0  0  0  0  0  0
    6.5062   -3.8004   -0.5782 H   0  0  0  0  0  0  0  0  0  0  0  0
    5.3294   -1.4685   -1.0610 H   0  0  0  0  0  0  0  0  0  0  0  0
    4.9784   -1.2976   -3.7128 H   0  0  0  0  0  0  0  0  0  0  0  0
    4.5462   -2.9520   -3.1224 H   0  0  0  0  0  0  0  0  0  0  0  0
    8.0354   -0.9741   -1.4333 H   0  0  0  0  0  0  0  0  0  0  0  0
  1  2  2  3
  2  3  1  0
  3  4  2  0
  3  5  1  0
  5  6  2  0
  6  7  1  0
  7  8  2  0
  8  9  1  0
  9 10  2  0
 10 11  1  0
 11 12  2  3
 12 13  1  0
 13 14  3  0
 12 15  1  0
 15 16  3  0
  8 17  1  0
 17 18  1  0
 18 19  1  0
 19 20  2  0
 20 21  1  0
 21 22  1  0
 21 23  1  0
  1 24  1  0
 24 25  2  0
 25 26  1  0
 26 27  1  0
 27 28  2  0
 28 29  1  0
 29 30  2  0
 30 31  1  0
 31 32  1  0
 30 33  1  0
 33 34  2  0
 26 35  1  0
 35 36  2  0
 36 37  1  0
 37 38  2  0
 38 39  1  0
 39 40  1  0
 38 41  1  0
 41 42  2  0
 25 43  1  0
 43 44  1  0
 44 45  1  0
 45 46  2  0
 46 47  1  0
 47 48  1  0
 48 49  2  0
 49 50  1  0
 50 51  2  0
 51 52  1  0
 52 53  1  0
 51 54  1  0
 54 55  2  0
 47 56  1  0
 56 57  2  0
 57 58  1  0
 58 59  2  0
 59 60  1  0
 60 61  1  0
 59 62  1  0
 62 63  2  0
 46 64  1  0
 64 65  1  0
 45 66  1  0
 66 67  2  0
 67 68  1  0
 68 69  1  0
 69 70  1  0
 67 71  1  0
 71 72  1  0
 72 73  1  0
 73 74  1  0
 71 75  2  0
 75 76  1  0
 76 77  1  0
 77 78  2  0
 78 79  1  0
 79 80  1  0
 75 81  1  0
 81 82  2  0
 82 83  1  0
 83 84  1  0
 84 85  1  0
 85 86  1  0
 83 87  2  0
 87 88  1  0
 87 89  1  0
 89 90  2  3
 90 91  1  0
 91 92  2  0
 91 93  1  0
 93 94  2  0
 94 95  1  0
 95 96  2  0
 96 97  1  0
 97 98  2  0
 98 99  1  0
 99100  2  3
100101  1  0
101102  3  0
100103  1  0
103104  3  0
 96105  1  0
105106  1  0
106107  1  0
107108  2  0
108109  1  0
109110  1  0
109111  1  0
 11  2  1  0
 23 17  1  0
 65 24  1  0
 77 66  1  0
 88 81  1  0
 99 90  1  0
111105  1  0
 10  5  1  0
 22 18  1  0
 34 27  1  0
 42 35  1  0
 64 43  2  0
 80 76  2  0
 98 93  1  0
110106  1  0
 23  7  1  0
 55 48  1  0
 63 56  1  0
111 95  1  0
  1112  1  0
  6113  1  0
  9114  1  0
 17115  1  0
 18116  1  0
 19117  1  0
 20118  1  0
 21119  1  0
 22120  1  0
 22121  1  0
 23122  1  0
 28123  1  0
 29124  1  0
 32125  1  0
 32126  1  0
 32127  1  0
 33128  1  0
 34129  1  0
 36130  1  0
 37131  1  0
 40132  1  0
 40133  1  0
 40134  1  0
 41135  1  0
 42136  1  0
 49137  1  0
 50138  1  0
 53139  1  0
 53140  1  0
 53141  1  0
 54142  1  0
 55143  1  0
 57144  1  0
 58145  1  0
 61146  1  0
 61147  1  0
 61148  1  0
 62149  1  0
 63150  1  0
 69151  1  0
 69152  1  0
 70153  1  0
 70154  1  0
 70155  1  0
 73156  1  0
 73157  1  0
 74158  1  0
 74159  1  0
 74160  1  0
 82161  1  0
 85162  1  0
 85163  1  0
 86164  1  0
 86165  1  0
 86166  1  0
 89167  1  0
 94168  1  0
 97169  1  0
105170  1  0
106171  1  0
107172  1  0
108173  1  0
109174  1  0
110175  1  0
110176  1  0
111177  1  0
M  END

