
     RDKit          3D

164180  0  0  0  0  0  0  0  0999 V2000
    1.1521   -2.0375    5.6955 C   0  0  0  0  0  0  0  0  0  0  0  0
   -0.0272   -1.3823    5.8013 C   0  0  0  0  0  0  0  0  0  0  0  0
   -0.7556   -0.7059    4.7115 C   0  0  0  0  0  0  0  0  0  0  0  0
   -0.6541   -0.9385    3.4793 O   0  0  0  0  0  0  0  0  0  0  0  0
   -1.5605    0.3582    5.2684 C   0  0  0  0  0  0  0  0  0  0  0  0
   -2.1082    1.4507    4.5503 C   0  0  0  0  0  0  0  0  0  0  0  0
   -2.4557    2.5241    5.3502 C   0  0  0  0  0  0  0  0  0  0  0  0
   -2.3111    2.5222    6.7751 C   0  0  0  0  0  0  0  0  0  0  0  0
   -1.8059    1.4417    7.4831 C   0  0  0  0  0  0  0  0  0  0  0  0
   -1.4349    0.3286    6.6782 C   0  0  0  0  0  0  0  0  0  0  0  0
   -0.6175   -0.8496    7.0647 C   0  0  0  0  0  0  0  0  0  0  0  0
   -0.6247   -1.4578    8.2737 C   0  0  0  0  0  0  0  0  0  0  0  0
    0.0779   -2.6941    8.5056 C   0  0  0  0  0  0  0  0  0  0  0  0
    0.6421   -3.6846    8.6939 N   0  0  0  0  0  0  0  0  0  0  0  0
   -1.5219   -1.0388    9.3207 C   0  0  0  0  0  0  0  0  0  0  0  0
   -2.2593   -0.7249   10.1504 N   0  0  0  0  0  0  0  0  0  0  0  0
   -2.7441    3.9585    6.8347 C   0  0  0  0  0  0  0  0  0  0  0  0
   -4.1872    4.2471    7.3378 C   0  0  0  0  0  0  0  0  0  0  0  0
   -4.4845    5.6708    6.9349 C   0  0  0  0  0  0  0  0  0  0  0  0
   -4.6127    5.6706    5.6018 C   0  0  0  0  0  0  0  0  0  0  0  0
   -4.3987    4.2461    5.1496 C   0  0  0  0  0  0  0  0  0  0  0  0
   -5.0574    3.5320    6.3166 C   0  0  0  0  0  0  0  0  0  0  0  0
   -2.8836    3.9608    5.3747 C   0  0  0  0  0  0  0  0  0  0  0  0
    1.8480   -2.2341    4.4037 C   0  0  0  0  0  0  0  0  0  0  0  0
    3.0716   -1.5872    4.1586 C   0  0  0  0  0  0  0  0  0  0  0  0
    3.7712   -1.0303    5.1765 F   0  0  0  0  0  0  0  0  0  0  0  0
    3.5244   -1.4157    2.8432 C   0  0  0  0  0  0  0  0  0  0  0  0
    2.7420   -1.8460    1.7675 C   0  0  0  0  0  0  0  0  0  0  0  0
    1.6808   -2.7431    2.0322 C   0  0  0  0  0  0  0  0  0  0  0  0
    1.0345   -3.3990    1.0319 N   0  0  0  0  0  0  0  0  0  0  0  0
    0.0132   -4.2597    1.2824 C   0  0  0  0  0  0  0  0  0  0  0  0
   -0.4260   -4.4460    2.5957 C   0  0  0  0  0  0  0  0  0  0  0  0
   -1.4860   -5.3223    2.8561 O   0  0  0  0  0  0  0  0  0  0  0  0
   -2.0557   -5.5151    4.1525 C   0  0  0  0  0  0  0  0  0  0  0  0
   -1.1380   -6.3398    5.0450 C   0  0  0  0  0  0  0  0  0  0  0  0
    0.1951   -3.7756    3.6009 N   0  0  0  0  0  0  0  0  0  0  0  0
    1.2459   -2.9446    3.3589 C   0  0  0  0  0  0  0  0  0  0  0  0
    2.8612   -1.1834    0.4456 C   0  0  0  0  0  0  0  0  0  0  0  0
    2.3834    0.1339    0.1821 C   0  0  0  0  0  0  0  0  0  0  0  0
    2.7652    1.3310    0.9154 N   0  0  0  0  0  0  0  0  0  0  0  0
    3.2010    2.4853    0.1715 C   0  0  0  0  0  0  0  0  0  0  0  0
    2.5898    3.7346    0.3816 C   0  0  0  0  0  0  0  0  0  0  0  0
    2.9258    4.8278   -0.4197 C   0  0  0  0  0  0  0  0  0  0  0  0
    3.8907    4.6917   -1.4267 C   0  0  0  0  0  0  0  0  0  0  0  0
    4.2652    6.0800   -2.4995 S   0  0  0  0  0  0  0  0  0  0  0  0
    5.4886    6.8028   -1.3665 C   0  0  0  0  0  0  0  0  0  0  0  0
    4.5334    3.4643   -1.6131 C   0  0  0  0  0  0  0  0  0  0  0  0
    4.1915    2.3625   -0.8151 C   0  0  0  0  0  0  0  0  0  0  0  0
    2.7592    1.4491    2.3475 C   0  0  0  0  0  0  0  0  0  0  0  0
    1.5497    1.4582    3.0540 C   0  0  0  0  0  0  0  0  0  0  0  0
    1.5361    1.7900    4.4148 C   0  0  0  0  0  0  0  0  0  0  0  0
    2.7282    2.0778    5.0884 C   0  0  0  0  0  0  0  0  0  0  0  0
    2.6876    2.5987    6.8059 S   0  0  0  0  0  0  0  0  0  0  0  0
    2.8426    0.9175    7.4862 C   0  0  0  0  0  0  0  0  0  0  0  0
    3.9398    2.0446    4.3930 C   0  0  0  0  0  0  0  0  0  0  0  0
    3.9519    1.7602    3.0238 C   0  0  0  0  0  0  0  0  0  0  0  0
    1.9029    0.2199   -1.1306 C   0  0  0  0  0  0  0  0  0  0  0  0
    0.9857    1.3652   -1.9418 S   0  0  0  0  0  0  0  0  0  0  0  0
    0.9074    0.4801   -3.3891 C   0  0  0  0  0  0  0  0  0  0  0  0
    1.6629   -0.7072   -3.2577 C   0  0  0  0  0  0  0  0  0  0  0  0
    2.1573   -1.4853   -4.3814 N   0  0  0  0  0  0  0  0  0  0  0  0
    3.3873   -2.2154   -4.2409 C   0  0  0  0  0  0  0  0  0  0  0  0
    3.4382   -3.5825   -4.5483 C   0  0  0  0  0  0  0  0  0  0  0  0
    4.6368   -4.2915   -4.3789 C   0  0  0  0  0  0  0  0  0  0  0  0
    5.7851   -3.6386   -3.9173 C   0  0  0  0  0  0  0  0  0  0  0  0
    7.2726   -4.5688   -3.5747 S   0  0  0  0  0  0  0  0  0  0  0  0
    6.8196   -4.8653   -1.8368 C   0  0  0  0  0  0  0  0  0  0  0  0
    5.7479   -2.2624   -3.6682 C   0  0  0  0  0  0  0  0  0  0  0  0
    4.5590   -1.5537   -3.8321 C   0  0  0  0  0  0  0  0  0  0  0  0
    1.8630   -1.0526   -5.7180 C   0  0  0  0  0  0  0  0  0  0  0  0
    0.8945   -1.7097   -6.4897 C   0  0  0  0  0  0  0  0  0  0  0  0
    0.5899   -1.2408   -7.7768 C   0  0  0  0  0  0  0  0  0  0  0  0
    1.2554   -0.1246   -8.2993 C   0  0  0  0  0  0  0  0  0  0  0  0
    0.8659    0.4748   -9.9462 S   0  0  0  0  0  0  0  0  0  0  0  0
   -0.2951    1.7469   -9.3527 C   0  0  0  0  0  0  0  0  0  0  0  0
    2.2404    0.5140   -7.5394 C   0  0  0  0  0  0  0  0  0  0  0  0
    2.5419    0.0544   -6.2540 C   0  0  0  0  0  0  0  0  0  0  0  0
    2.1267   -0.8421   -1.9350 C   0  0  0  0  0  0  0  0  0  0  0  0
    2.8108   -2.0706   -1.0234 S   0  0  0  0  0  0  0  0  0  0  0  0
   -0.1941    0.7009   -4.3478 C   0  0  0  0  0  0  0  0  0  0  0  0
   -0.2886    1.9169   -5.0419 C   0  0  0  0  0  0  0  0  0  0  0  0
    0.7004    2.8403   -4.9398 F   0  0  0  0  0  0  0  0  0  0  0  0
   -1.4195    2.2052   -5.8156 C   0  0  0  0  0  0  0  0  0  0  0  0
   -2.4770    1.2908   -5.9122 C   0  0  0  0  0  0  0  0  0  0  0  0
   -2.3988    0.0710   -5.2091 C   0  0  0  0  0  0  0  0  0  0  0  0
   -3.4377   -0.8062   -5.2107 N   0  0  0  0  0  0  0  0  0  0  0  0
   -3.3794   -1.9807   -4.5309 C   0  0  0  0  0  0  0  0  0  0  0  0
   -2.2365   -2.2925   -3.7937 C   0  0  0  0  0  0  0  0  0  0  0  0
   -2.1692   -3.4986   -3.0870 O   0  0  0  0  0  0  0  0  0  0  0  0
   -1.0361   -3.8961   -2.3143 C   0  0  0  0  0  0  0  0  0  0  0  0
    0.0958   -4.3899   -3.2094 C   0  0  0  0  0  0  0  0  0  0  0  0
   -1.2069   -1.4089   -3.7607 N   0  0  0  0  0  0  0  0  0  0  0  0
   -1.2486   -0.2305   -4.4462 C   0  0  0  0  0  0  0  0  0  0  0  0
   -3.7128    1.7054   -6.6136 C   0  0  0  0  0  0  0  0  0  0  0  0
   -4.3014    1.0058   -7.6058 C   0  0  0  0  0  0  0  0  0  0  0  0
   -3.7393   -0.1956   -8.2577 C   0  0  0  0  0  0  0  0  0  0  0  0
   -2.6320   -0.7455   -8.0283 O   0  0  0  0  0  0  0  0  0  0  0  0
   -4.6772   -0.6149   -9.2579 C   0  0  0  0  0  0  0  0  0  0  0  0
   -4.8067   -1.8862  -10.3411 S   0  0  0  0  0  0  0  0  0  0  0  0
   -6.3435   -1.3748  -10.8718 C   0  0  0  0  0  0  0  0  0  0  0  0
   -7.3853   -2.2709  -12.1960 Br  0  0  0  0  0  0  0  0  0  0  0  0
   -6.7419   -0.2226  -10.1896 C   0  0  0  0  0  0  0  0  0  0  0  0
   -5.7634    0.1939   -9.2812 C   0  0  0  0  0  0  0  0  0  0  0  0
   -5.6259    1.2846   -8.2835 C   0  0  0  0  0  0  0  0  0  0  0  0
   -6.5128    2.2951   -8.0840 C   0  0  0  0  0  0  0  0  0  0  0  0
   -7.6993    2.4295   -8.8835 C   0  0  0  0  0  0  0  0  0  0  0  0
   -8.6566    2.5540   -9.5191 N   0  0  0  0  0  0  0  0  0  0  0  0
   -6.3286    3.3353   -7.1138 C   0  0  0  0  0  0  0  0  0  0  0  0
   -6.1942    4.1936   -6.3428 N   0  0  0  0  0  0  0  0  0  0  0  0
    1.7265   -2.2469    6.5854 H   0  0  0  0  0  0  0  0  0  0  0  0
   -2.1140    1.5080    3.4694 H   0  0  0  0  0  0  0  0  0  0  0  0
   -1.6104    1.5068    8.5418 H   0  0  0  0  0  0  0  0  0  0  0  0
   -1.9545    4.6445    7.2159 H   0  0  0  0  0  0  0  0  0  0  0  0
   -4.3864    4.0079    8.4023 H   0  0  0  0  0  0  0  0  0  0  0  0
   -4.6466    6.5236    7.5856 H   0  0  0  0  0  0  0  0  0  0  0  0
   -4.8937    6.5239    4.9919 H   0  0  0  0  0  0  0  0  0  0  0  0
   -4.7928    4.0049    4.1431 H   0  0  0  0  0  0  0  0  0  0  0  0
   -6.1435    3.7686    6.4198 H   0  0  0  0  0  0  0  0  0  0  0  0
   -4.9311    2.4242    6.3088 H   0  0  0  0  0  0  0  0  0  0  0  0
   -2.1815    4.6380    4.8426 H   0  0  0  0  0  0  0  0  0  0  0  0
    4.4183   -0.8419    2.6614 H   0  0  0  0  0  0  0  0  0  0  0  0
   -0.4608   -4.7878    0.4685 H   0  0  0  0  0  0  0  0  0  0  0  0
   -3.0213   -6.0512    4.0351 H   0  0  0  0  0  0  0  0  0  0  0  0
   -2.2670   -4.5306    4.6212 H   0  0  0  0  0  0  0  0  0  0  0  0
   -0.1682   -5.8260    5.1892 H   0  0  0  0  0  0  0  0  0  0  0  0
   -0.9582   -7.3382    4.5986 H   0  0  0  0  0  0  0  0  0  0  0  0
   -1.6139   -6.4757    6.0352 H   0  0  0  0  0  0  0  0  0  0  0  0
    1.8194    3.8464    1.1324 H   0  0  0  0  0  0  0  0  0  0  0  0
    2.4286    5.7764   -0.2696 H   0  0  0  0  0  0  0  0  0  0  0  0
    5.8716    7.7512   -1.8000 H   0  0  0  0  0  0  0  0  0  0  0  0
    5.0154    7.0208   -0.3857 H   0  0  0  0  0  0  0  0  0  0  0  0
    6.3343    6.0981   -1.2217 H   0  0  0  0  0  0  0  0  0  0  0  0
    5.2859    3.3504   -2.3844 H   0  0  0  0  0  0  0  0  0  0  0  0
    4.6818    1.4098   -0.9851 H   0  0  0  0  0  0  0  0  0  0  0  0
    0.6151    1.2818    2.5360 H   0  0  0  0  0  0  0  0  0  0  0  0
    0.6023    1.8735    4.9424 H   0  0  0  0  0  0  0  0  0  0  0  0
    2.0251    0.2764    7.1007 H   0  0  0  0  0  0  0  0  0  0  0  0
    2.7705    0.9577    8.5966 H   0  0  0  0  0  0  0  0  0  0  0  0
    3.8269    0.4876    7.2051 H   0  0  0  0  0  0  0  0  0  0  0  0
    4.8661    2.2840    4.9015 H   0  0  0  0  0  0  0  0  0  0  0  0
    4.8895    1.7870    2.4800 H   0  0  0  0  0  0  0  0  0  0  0  0
    2.5556   -4.1001   -4.9083 H   0  0  0  0  0  0  0  0  0  0  0  0
    4.6598   -5.3536   -4.5820 H   0  0  0  0  0  0  0  0  0  0  0  0
    5.8458   -5.3975   -1.7828 H   0  0  0  0  0  0  0  0  0  0  0  0
    6.7495   -3.9020   -1.2872 H   0  0  0  0  0  0  0  0  0  0  0  0
    7.5987   -5.4954   -1.3589 H   0  0  0  0  0  0  0  0  0  0  0  0
    6.6322   -1.7455   -3.3149 H   0  0  0  0  0  0  0  0  0  0  0  0
    4.5354   -0.4897   -3.6196 H   0  0  0  0  0  0  0  0  0  0  0  0
    0.3687   -2.5654   -6.0971 H   0  0  0  0  0  0  0  0  0  0  0  0
   -0.1612   -1.7500   -8.3664 H   0  0  0  0  0  0  0  0  0  0  0  0
   -1.1216    1.2681   -8.7919 H   0  0  0  0  0  0  0  0  0  0  0  0
    0.2304    2.4712   -8.6918 H   0  0  0  0  0  0  0  0  0  0  0  0
   -0.7246    2.2912  -10.2205 H   0  0  0  0  0  0  0  0  0  0  0  0
    2.7642    1.3733   -7.9379 H   0  0  0  0  0  0  0  0  0  0  0  0
    3.2968    0.5623   -5.6714 H   0  0  0  0  0  0  0  0  0  0  0  0
   -1.4829    3.1534   -6.3332 H   0  0  0  0  0  0  0  0  0  0  0  0
   -4.2212   -2.6609   -4.5558 H   0  0  0  0  0  0  0  0  0  0  0  0
   -1.3466   -4.7336   -1.6548 H   0  0  0  0  0  0  0  0  0  0  0  0
   -0.6868   -3.0521   -1.6801 H   0  0  0  0  0  0  0  0  0  0  0  0
    0.2727   -3.6798   -4.0385 H   0  0  0  0  0  0  0  0  0  0  0  0
    1.0291   -4.4710   -2.6140 H   0  0  0  0  0  0  0  0  0  0  0  0
   -0.1598   -5.3837   -3.6275 H   0  0  0  0  0  0  0  0  0  0  0  0
   -4.1415    2.6261   -6.2561 H   0  0  0  0  0  0  0  0  0  0  0  0
   -7.6931    0.2540  -10.3639 H   0  0  0  0  0  0  0  0  0  0  0  0
  1  2  2  3
  2  3  1  0
  3  4  2  0
  3  5  1  0
  5  6  2  0
  6  7  1  0
  7  8  2  0
  8  9  1  0
  9 10  2  0
 10 11  1  0
 11 12  2  3
 12 13  1  0
 13 14  3  0
 12 15  1  0
 15 16  3  0
  8 17  1  0
 17 18  1  0
 18 19  1  0
 19 20  2  0
 20 21  1  0
 21 22  1  0
 21 23  1  0
  1 24  1  0
 24 25  2  0
 25 26  1  0
 25 27  1  0
 27 28  2  0
 28 29  1  0
 29 30  2  0
 30 31  1  0
 31 32  2  0
 32 33  1  0
 33 34  1  0
 34 35  1  0
 32 36  1  0
 36 37  2  0
 28 38  1  0
 38 39  2  0
 39 40  1  0
 40 41  1  0
 41 42  2  0
 42 43  1  0
 43 44  2  0
 44 45  1  0
 45 46  1  0
 44 47  1  0
 47 48  2  0
 40 49  1  0
 49 50  2  0
 50 51  1  0
 51 52  2  0
 52 53  1  0
 53 54  1  0
 52 55  1  0
 55 56  2  0
 39 57  1  0
 57 58  1  0
 58 59  1  0
 59 60  2  0
 60 61  1  0
 61 62  1  0
 62 63  2  0
 63 64  1  0
 64 65  2  0
 65 66  1  0
 66 67  1  0
 65 68  1  0
 68 69  2  0
 61 70  1  0
 70 71  2  0
 71 72  1  0
 72 73  2  0
 73 74  1  0
 74 75  1  0
 73 76  1  0
 76 77  2  0
 60 78  1  0
 78 79  1  0
 59 80  1  0
 80 81  2  0
 81 82  1  0
 81 83  1  0
 83 84  2  0
 84 85  1  0
 85 86  2  0
 86 87  1  0
 87 88  2  0
 88 89  1  0
 89 90  1  0
 90 91  1  0
 88 92  1  0
 92 93  2  0
 84 94  1  0
 94 95  2  3
 95 96  1  0
 96 97  2  0
 96 98  1  0
 98 99  1  0
 99100  1  0
100101  1  0
100102  2  0
102103  1  0
103104  1  0
104105  2  3
105106  1  0
106107  3  0
105108  1  0
108109  3  0
 11  2  1  0
 23 17  1  0
 37 24  1  0
 79 38  1  0
 93 80  1  0
104 95  1  0
 10  5  1  0
 22 18  1  0
 37 29  1  0
 48 41  1  0
 56 49  1  0
 78 57  2  0
 93 85  1  0
103 98  2  0
 23  7  1  0
 69 62  1  0
 77 70  1  0
  1110  1  0
  6111  1  0
  9112  1  0
 17113  1  0
 18114  1  0
 19115  1  0
 20116  1  0
 21117  1  0
 22118  1  0
 22119  1  0
 23120  1  0
 27121  1  0
 31122  1  0
 34123  1  0
 34124  1  0
 35125  1  0
 35126  1  0
 35127  1  0
 42128  1  0
 43129  1  0
 46130  1  0
 46131  1  0
 46132  1  0
 47133  1  0
 48134  1  0
 50135  1  0
 51136  1  0
 54137  1  0
 54138  1  0
 54139  1  0
 55140  1  0
 56141  1  0
 63142  1  0
 64143  1  0
 67144  1  0
 67145  1  0
 67146  1  0
 68147  1  0
 69148  1  0
 71149  1  0
 72150  1  0
 75151  1  0
 75152  1  0
 75153  1  0
 76154  1  0
 77155  1  0
 83156  1  0
 87157  1  0
 90158  1  0
 90159  1  0
 91160  1  0
 91161  1  0
 91162  1  0
 94163  1  0
102164  1  0
M  END

