
     RDKit          3D

179197  0  0  0  0  0  0  0  0999 V2000
    7.4076   -0.9730    4.6998 C   0  0  0  0  0  0  0  0  0  0  0  0
    7.7967   -2.2362    4.4875 C   0  0  0  0  0  0  0  0  0  0  0  0
    9.0178   -2.8027    5.0562 C   0  0  0  0  0  0  0  0  0  0  0  0
    9.9082   -2.1631    5.6844 O   0  0  0  0  0  0  0  0  0  0  0  0
    9.0570   -4.2202    4.7313 C   0  0  0  0  0  0  0  0  0  0  0  0
    9.9730   -5.1787    5.2375 C   0  0  0  0  0  0  0  0  0  0  0  0
    9.5886   -6.4813    4.9913 C   0  0  0  0  0  0  0  0  0  0  0  0
    8.4426   -6.8195    4.2105 C   0  0  0  0  0  0  0  0  0  0  0  0
    7.6066   -5.8836    3.6239 C   0  0  0  0  0  0  0  0  0  0  0  0
    7.8779   -4.5447    4.0049 C   0  0  0  0  0  0  0  0  0  0  0  0
    6.9515   -3.3860    4.0322 C   0  0  0  0  0  0  0  0  0  0  0  0
    5.6211   -3.5088    4.2476 C   0  0  0  0  0  0  0  0  0  0  0  0
    4.7947   -2.4468    4.7762 C   0  0  0  0  0  0  0  0  0  0  0  0
    4.1262   -1.6214    5.2378 N   0  0  0  0  0  0  0  0  0  0  0  0
    4.8938   -4.7425    3.9905 C   0  0  0  0  0  0  0  0  0  0  0  0
    4.2959   -5.7148    3.7559 N   0  0  0  0  0  0  0  0  0  0  0  0
    8.5141   -8.2452    4.6646 C   0  0  0  0  0  0  0  0  0  0  0  0
    7.4624   -8.6433    5.7596 C   0  0  0  0  0  0  0  0  0  0  0  0
    7.9486   -9.9528    6.3400 C   0  0  0  0  0  0  0  0  0  0  0  0
    9.0535   -9.6704    7.0356 C   0  0  0  0  0  0  0  0  0  0  0  0
    9.2702   -8.1794    6.9231 C   0  0  0  0  0  0  0  0  0  0  0  0
    7.8088   -7.7372    6.9290 C   0  0  0  0  0  0  0  0  0  0  0  0
    9.7153   -7.9108    5.4475 C   0  0  0  0  0  0  0  0  0  0  0  0
    6.6554   -0.2407    3.6603 C   0  0  0  0  0  0  0  0  0  0  0  0
    6.2010   -0.8502    2.1373 S   0  0  0  0  0  0  0  0  0  0  0  0
    5.2092    0.4431    1.7811 C   0  0  0  0  0  0  0  0  0  0  0  0
    3.9710    0.5482    1.0539 C   0  0  0  0  0  0  0  0  0  0  0  0
    3.1855    1.4901    1.6551 C   0  0  0  0  0  0  0  0  0  0  0  0
    3.9456    2.2465    2.7495 C   0  0  0  0  0  0  0  0  0  0  0  0
    4.4529    3.6420    2.2721 C   0  0  0  0  0  0  0  0  0  0  0  0
    3.4689    4.4424    1.4072 C   0  0  0  0  0  0  0  0  0  0  0  0
    3.1833    2.2576    4.1097 C   0  0  0  0  0  0  0  0  0  0  0  0
    2.1189    3.3355    4.2725 C   0  0  0  0  0  0  0  0  0  0  0  0
    5.1615    1.3197    2.8266 C   0  0  0  0  0  0  0  0  0  0  0  0
    5.9874    0.9647    3.8937 C   0  0  0  0  0  0  0  0  0  0  0  0
    1.8354    1.3818    1.3218 C   0  0  0  0  0  0  0  0  0  0  0  0
    1.6014    0.3158    0.4464 C   0  0  0  0  0  0  0  0  0  0  0  0
    3.0593   -0.4960    0.1297 S   0  0  0  0  0  0  0  0  0  0  0  0
    0.3129    0.0222   -0.2080 C   0  0  0  0  0  0  0  0  0  0  0  0
    0.1133   -0.9352   -1.2215 C   0  0  0  0  0  0  0  0  0  0  0  0
    0.7304   -2.2390   -1.1738 N   0  0  0  0  0  0  0  0  0  0  0  0
    1.4841   -2.7795   -2.2858 C   0  0  0  0  0  0  0  0  0  0  0  0
    1.7427   -2.0020   -3.4408 C   0  0  0  0  0  0  0  0  0  0  0  0
    2.4031   -2.5529   -4.5391 C   0  0  0  0  0  0  0  0  0  0  0  0
    2.8500   -3.8746   -4.5024 C   0  0  0  0  0  0  0  0  0  0  0  0
    3.6656   -4.5785   -5.9322 S   0  0  0  0  0  0  0  0  0  0  0  0
    2.1898   -5.4439   -6.5688 C   0  0  0  0  0  0  0  0  0  0  0  0
    2.6302   -4.6498   -3.3653 C   0  0  0  0  0  0  0  0  0  0  0  0
    1.9395   -4.1186   -2.2729 C   0  0  0  0  0  0  0  0  0  0  0  0
    0.4532   -3.0207    0.0107 C   0  0  0  0  0  0  0  0  0  0  0  0
   -0.8770   -3.2808    0.3745 C   0  0  0  0  0  0  0  0  0  0  0  0
   -1.1763   -3.8656    1.6089 C   0  0  0  0  0  0  0  0  0  0  0  0
   -0.1446   -4.1836    2.4956 C   0  0  0  0  0  0  0  0  0  0  0  0
   -0.5426   -4.8017    4.1388 S   0  0  0  0  0  0  0  0  0  0  0  0
   -0.7181   -3.1291    4.8434 C   0  0  0  0  0  0  0  0  0  0  0  0
    1.1882   -3.9775    2.1236 C   0  0  0  0  0  0  0  0  0  0  0  0
    1.4874   -3.4011    0.8846 C   0  0  0  0  0  0  0  0  0  0  0  0
   -1.1116   -0.7264   -1.8577 C   0  0  0  0  0  0  0  0  0  0  0  0
   -1.9079   -1.4041   -3.1735 S   0  0  0  0  0  0  0  0  0  0  0  0
   -3.3264   -0.4807   -2.9647 C   0  0  0  0  0  0  0  0  0  0  0  0
   -3.1829    0.3300   -1.8267 C   0  0  0  0  0  0  0  0  0  0  0  0
   -4.3043    0.7252   -1.0180 N   0  0  0  0  0  0  0  0  0  0  0  0
   -4.6242    2.1115   -0.7918 C   0  0  0  0  0  0  0  0  0  0  0  0
   -5.2397    2.5046    0.4118 C   0  0  0  0  0  0  0  0  0  0  0  0
   -5.5431    3.8388    0.6491 C   0  0  0  0  0  0  0  0  0  0  0  0
   -5.2260    4.8114   -0.3038 C   0  0  0  0  0  0  0  0  0  0  0  0
   -5.6280    6.5252    0.0216 S   0  0  0  0  0  0  0  0  0  0  0  0
   -4.0758    6.9040    0.8968 C   0  0  0  0  0  0  0  0  0  0  0  0
   -4.6197    4.4415   -1.5080 C   0  0  0  0  0  0  0  0  0  0  0  0
   -4.3177    3.0986   -1.7507 C   0  0  0  0  0  0  0  0  0  0  0  0
   -5.0160   -0.3314   -0.3301 C   0  0  0  0  0  0  0  0  0  0  0  0
   -6.3805   -0.5546   -0.5672 C   0  0  0  0  0  0  0  0  0  0  0  0
   -7.0297   -1.6562    0.0000 C   0  0  0  0  0  0  0  0  0  0  0  0
   -6.3283   -2.5213    0.8462 C   0  0  0  0  0  0  0  0  0  0  0  0
   -7.1489   -3.9384    1.5800 S   0  0  0  0  0  0  0  0  0  0  0  0
   -6.3834   -5.1447    0.4533 C   0  0  0  0  0  0  0  0  0  0  0  0
   -4.9812   -2.2744    1.1349 C   0  0  0  0  0  0  0  0  0  0  0  0
   -4.3243   -1.1994    0.5353 C   0  0  0  0  0  0  0  0  0  0  0  0
   -1.9059    0.2193   -1.2928 C   0  0  0  0  0  0  0  0  0  0  0  0
   -1.0982    0.9618   -0.0174 S   0  0  0  0  0  0  0  0  0  0  0  0
   -4.2581   -0.1471   -4.0534 C   0  0  0  0  0  0  0  0  0  0  0  0
   -5.8527    0.3461   -3.8014 S   0  0  0  0  0  0  0  0  0  0  0  0
   -6.0036    1.1522   -5.2586 C   0  0  0  0  0  0  0  0  0  0  0  0
   -6.6771    2.3846   -5.5728 C   0  0  0  0  0  0  0  0  0  0  0  0
   -5.9033    3.1254   -6.4079 C   0  0  0  0  0  0  0  0  0  0  0  0
   -4.6326    2.3912   -6.8126 C   0  0  0  0  0  0  0  0  0  0  0  0
   -4.7181    1.9807   -8.3011 C   0  0  0  0  0  0  0  0  0  0  0  0
   -3.4858    1.2291   -8.7993 C   0  0  0  0  0  0  0  0  0  0  0  0
   -3.3423    3.1821   -6.4144 C   0  0  0  0  0  0  0  0  0  0  0  0
   -3.1343    4.5220   -7.1273 C   0  0  0  0  0  0  0  0  0  0  0  0
   -4.7930    1.1576   -5.9126 C   0  0  0  0  0  0  0  0  0  0  0  0
   -3.8084    0.4059   -5.2581 C   0  0  0  0  0  0  0  0  0  0  0  0
   -6.3415    4.4500   -6.5439 C   0  0  0  0  0  0  0  0  0  0  0  0
   -7.4342    4.7374   -5.7100 C   0  0  0  0  0  0  0  0  0  0  0  0
   -7.8688    3.3225   -4.8648 S   0  0  0  0  0  0  0  0  0  0  0  0
   -8.0340    6.0862   -5.6249 C   0  0  0  0  0  0  0  0  0  0  0  0
   -8.6024    6.6857   -4.5576 C   0  0  0  0  0  0  0  0  0  0  0  0
   -8.6119    6.2218   -3.1542 C   0  0  0  0  0  0  0  0  0  0  0  0
   -8.4546    5.0451   -2.7319 O   0  0  0  0  0  0  0  0  0  0  0  0
   -8.8026    7.3717   -2.2921 C   0  0  0  0  0  0  0  0  0  0  0  0
   -8.8184    7.4024   -0.8993 C   0  0  0  0  0  0  0  0  0  0  0  0
   -8.9178    8.6393   -0.2568 C   0  0  0  0  0  0  0  0  0  0  0  0
   -8.9384    8.7205    1.4944 Cl  0  0  0  0  0  0  0  0  0  0  0  0
   -8.9864    9.8182   -1.0165 C   0  0  0  0  0  0  0  0  0  0  0  0
   -8.9909    9.7674   -2.4215 C   0  0  0  0  0  0  0  0  0  0  0  0
   -8.9319    8.5140   -3.0581 C   0  0  0  0  0  0  0  0  0  0  0  0
   -8.9409    8.1479   -4.5025 C   0  0  0  0  0  0  0  0  0  0  0  0
   -9.3805    8.9133   -5.5364 C   0  0  0  0  0  0  0  0  0  0  0  0
   -9.6982    8.3526   -6.8222 C   0  0  0  0  0  0  0  0  0  0  0  0
   -9.9704    7.9148   -7.8617 N   0  0  0  0  0  0  0  0  0  0  0  0
   -9.6171   10.3297   -5.4047 C   0  0  0  0  0  0  0  0  0  0  0  0
   -9.8233   11.4673   -5.3261 N   0  0  0  0  0  0  0  0  0  0  0  0
    6.9661   -0.8309    5.6694 H   0  0  0  0  0  0  0  0  0  0  0  0
   10.7709   -4.9209    5.9260 H   0  0  0  0  0  0  0  0  0  0  0  0
    6.7516   -6.1796    3.0536 H   0  0  0  0  0  0  0  0  0  0  0  0
    8.6654   -8.9782    3.8397 H   0  0  0  0  0  0  0  0  0  0  0  0
    6.4003   -8.6213    5.4412 H   0  0  0  0  0  0  0  0  0  0  0  0
    7.4064  -10.8964    6.3495 H   0  0  0  0  0  0  0  0  0  0  0  0
    9.5712  -10.3524    7.6890 H   0  0  0  0  0  0  0  0  0  0  0  0
    9.9161   -7.7403    7.7117 H   0  0  0  0  0  0  0  0  0  0  0  0
    7.6598   -6.6422    6.7295 H   0  0  0  0  0  0  0  0  0  0  0  0
    7.2699   -7.9987    7.8830 H   0  0  0  0  0  0  0  0  0  0  0  0
   10.6475   -8.4270    5.1176 H   0  0  0  0  0  0  0  0  0  0  0  0
    5.3711    3.5158    1.6631 H   0  0  0  0  0  0  0  0  0  0  0  0
    4.7420    4.2486    3.1508 H   0  0  0  0  0  0  0  0  0  0  0  0
    3.2160    3.8826    0.4846 H   0  0  0  0  0  0  0  0  0  0  0  0
    3.9548    5.3923    1.1043 H   0  0  0  0  0  0  0  0  0  0  0  0
    2.5428    4.6919    1.9462 H   0  0  0  0  0  0  0  0  0  0  0  0
    2.7209    1.2595    4.2852 H   0  0  0  0  0  0  0  0  0  0  0  0
    3.9087    2.4162    4.9338 H   0  0  0  0  0  0  0  0  0  0  0  0
    1.5823    3.1816    5.2353 H   0  0  0  0  0  0  0  0  0  0  0  0
    2.5783    4.3427    4.3059 H   0  0  0  0  0  0  0  0  0  0  0  0
    1.3699    3.3056    3.4622 H   0  0  0  0  0  0  0  0  0  0  0  0
    6.0206    1.4960    4.8370 H   0  0  0  0  0  0  0  0  0  0  0  0
    1.0532    2.0144    1.7161 H   0  0  0  0  0  0  0  0  0  0  0  0
    1.4200   -0.9675   -3.4892 H   0  0  0  0  0  0  0  0  0  0  0  0
    2.5780   -1.9433   -5.4182 H   0  0  0  0  0  0  0  0  0  0  0  0
    1.2494   -4.9958   -6.1901 H   0  0  0  0  0  0  0  0  0  0  0  0
    2.1822   -5.3856   -7.6738 H   0  0  0  0  0  0  0  0  0  0  0  0
    2.2360   -6.5092   -6.2651 H   0  0  0  0  0  0  0  0  0  0  0  0
    2.9722   -5.6760   -3.3276 H   0  0  0  0  0  0  0  0  0  0  0  0
    1.7519   -4.7698   -1.4314 H   0  0  0  0  0  0  0  0  0  0  0  0
   -1.6882   -3.0194   -0.2871 H   0  0  0  0  0  0  0  0  0  0  0  0
   -2.2105   -4.0364    1.8863 H   0  0  0  0  0  0  0  0  0  0  0  0
    0.2189   -2.5498    4.6997 H   0  0  0  0  0  0  0  0  0  0  0  0
   -1.5645   -2.5978    4.3637 H   0  0  0  0  0  0  0  0  0  0  0  0
   -0.9203   -3.2170    5.9307 H   0  0  0  0  0  0  0  0  0  0  0  0
    1.9909   -4.2432    2.8099 H   0  0  0  0  0  0  0  0  0  0  0  0
    2.5178   -3.2333    0.6113 H   0  0  0  0  0  0  0  0  0  0  0  0
   -5.4758    1.7756    1.1799 H   0  0  0  0  0  0  0  0  0  0  0  0
   -6.0252    4.1171    1.5799 H   0  0  0  0  0  0  0  0  0  0  0  0
   -3.2940    7.1727    0.1615 H   0  0  0  0  0  0  0  0  0  0  0  0
   -3.7320    6.0445    1.5105 H   0  0  0  0  0  0  0  0  0  0  0  0
   -4.2460    7.7684    1.5729 H   0  0  0  0  0  0  0  0  0  0  0  0
   -4.3951    5.1837   -2.2560 H   0  0  0  0  0  0  0  0  0  0  0  0
   -3.8589    2.8197   -2.6889 H   0  0  0  0  0  0  0  0  0  0  0  0
   -6.9396    0.1157   -1.2066 H   0  0  0  0  0  0  0  0  0  0  0  0
   -8.0853   -1.8289   -0.2058 H   0  0  0  0  0  0  0  0  0  0  0  0
   -5.2935   -5.2229    0.6681 H   0  0  0  0  0  0  0  0  0  0  0  0
   -6.5292   -4.8614   -0.6125 H   0  0  0  0  0  0  0  0  0  0  0  0
   -6.8461   -6.1407    0.6296 H   0  0  0  0  0  0  0  0  0  0  0  0
   -4.4313   -2.9220    1.8043 H   0  0  0  0  0  0  0  0  0  0  0  0
   -3.2786   -1.0396    0.7489 H   0  0  0  0  0  0  0  0  0  0  0  0
   -5.6061    1.3321   -8.4459 H   0  0  0  0  0  0  0  0  0  0  0  0
   -4.8735    2.8725   -8.9357 H   0  0  0  0  0  0  0  0  0  0  0  0
   -3.7268    0.7260   -9.7625 H   0  0  0  0  0  0  0  0  0  0  0  0
   -3.1551    0.4545   -8.0752 H   0  0  0  0  0  0  0  0  0  0  0  0
   -2.6510    1.9405   -8.9761 H   0  0  0  0  0  0  0  0  0  0  0  0
   -2.4548    2.5507   -6.6103 H   0  0  0  0  0  0  0  0  0  0  0  0
   -3.3449    3.3723   -5.3175 H   0  0  0  0  0  0  0  0  0  0  0  0
   -2.0513    4.7831   -7.1061 H   0  0  0  0  0  0  0  0  0  0  0  0
   -3.6820    5.3306   -6.5989 H   0  0  0  0  0  0  0  0  0  0  0  0
   -3.4464    4.4796   -8.1908 H   0  0  0  0  0  0  0  0  0  0  0  0
   -2.7701    0.4436   -5.5264 H   0  0  0  0  0  0  0  0  0  0  0  0
   -5.8623    5.1844   -7.1785 H   0  0  0  0  0  0  0  0  0  0  0  0
   -7.8454    6.6759   -6.5055 H   0  0  0  0  0  0  0  0  0  0  0  0
   -8.7467    6.4821   -0.3287 H   0  0  0  0  0  0  0  0  0  0  0  0
   -9.0383   10.7792   -0.5177 H   0  0  0  0  0  0  0  0  0  0  0  0
   -9.0126   10.6920   -2.9673 H   0  0  0  0  0  0  0  0  0  0  0  0
  1  2  2  3
  2  3  1  0
  3  4  2  0
  3  5  1  0
  5  6  2  0
  6  7  1  0
  7  8  2  0
  8  9  1  0
  9 10  2  0
 10 11  1  0
 11 12  2  3
 12 13  1  0
 13 14  3  0
 12 15  1  0
 15 16  3  0
  8 17  1  0
 17 18  1  0
 18 19  1  0
 19 20  2  0
 20 21  1  0
 21 22  1  0
 21 23  1  0
  1 24  1  0
 24 25  1  0
 25 26  1  0
 26 27  1  0
 27 28  2  0
 28 29  1  0
 29 30  1  0
 30 31  1  0
 29 32  1  0
 32 33  1  0
 29 34  1  0
 34 35  1  0
 28 36  1  0
 36 37  2  0
 37 38  1  0
 37 39  1  0
 39 40  2  0
 40 41  1  0
 41 42  1  0
 42 43  2  0
 43 44  1  0
 44 45  2  0
 45 46  1  0
 46 47  1  0
 45 48  1  0
 48 49  2  0
 41 50  1  0
 50 51  2  0
 51 52  1  0
 52 53  2  0
 53 54  1  0
 54 55  1  0
 53 56  1  0
 56 57  2  0
 40 58  1  0
 58 59  1  0
 59 60  1  0
 60 61  2  0
 61 62  1  0
 62 63  1  0
 63 64  2  0
 64 65  1  0
 65 66  2  0
 66 67  1  0
 67 68  1  0
 66 69  1  0
 69 70  2  0
 62 71  1  0
 71 72  2  0
 72 73  1  0
 73 74  2  0
 74 75  1  0
 75 76  1  0
 74 77  1  0
 77 78  2  0
 61 79  1  0
 79 80  1  0
 60 81  1  0
 81 82  1  0
 82 83  1  0
 83 84  1  0
 84 85  2  0
 85 86  1  0
 86 87  1  0
 87 88  1  0
 86 89  1  0
 89 90  1  0
 86 91  1  0
 91 92  1  0
 85 93  1  0
 93 94  2  0
 94 95  1  0
 94 96  1  0
 96 97  2  3
 97 98  1  0
 98 99  2  0
 98100  1  0
100101  2  0
101102  1  0
102103  1  0
102104  2  0
104105  1  0
105106  2  0
106107  1  0
107108  2  3
108109  1  0
109110  3  0
108111  1  0
111112  3  0
 11  2  1  0
 23 17  1  0
 35 24  2  0
 80 39  1  0
 92 81  2  0
107 97  1  0
 10  5  1  0
 22 18  1  0
 34 26  2  0
 49 42  1  0
 57 50  1  0
 79 58  2  0
 91 83  2  0
106100  1  0
 23  7  1  0
 38 27  1  0
 70 63  1  0
 78 71  1  0
 95 84  1  0
  1113  1  0
  6114  1  0
  9115  1  0
 17116  1  0
 18117  1  0
 19118  1  0
 20119  1  0
 21120  1  0
 22121  1  0
 22122  1  0
 23123  1  0
 30124  1  0
 30125  1  0
 31126  1  0
 31127  1  0
 31128  1  0
 32129  1  0
 32130  1  0
 33131  1  0
 33132  1  0
 33133  1  0
 35134  1  0
 36135  1  0
 43136  1  0
 44137  1  0
 47138  1  0
 47139  1  0
 47140  1  0
 48141  1  0
 49142  1  0
 51143  1  0
 52144  1  0
 55145  1  0
 55146  1  0
 55147  1  0
 56148  1  0
 57149  1  0
 64150  1  0
 65151  1  0
 68152  1  0
 68153  1  0
 68154  1  0
 69155  1  0
 70156  1  0
 72157  1  0
 73158  1  0
 76159  1  0
 76160  1  0
 76161  1  0
 77162  1  0
 78163  1  0
 87164  1  0
 87165  1  0
 88166  1  0
 88167  1  0
 88168  1  0
 89169  1  0
 89170  1  0
 90171  1  0
 90172  1  0
 90173  1  0
 92174  1  0
 93175  1  0
 96176  1  0
101177  1  0
104178  1  0
105179  1  0
M  END

