
     RDKit          3D

153170  0  0  0  0  0  0  0  0999 V2000
   -2.0556    4.8960    3.3099 C   0  0  0  0  0  0  0  0  0  0  0  0
   -3.0962    4.8043    2.5840 C   0  0  0  0  0  0  0  0  0  0  0  0
   -3.5523    3.9160    1.5788 C   0  0  0  0  0  0  0  0  0  0  0  0
   -3.2995    2.6346    1.6145 O   0  0  0  0  0  0  0  0  0  0  0  0
   -4.3344    4.5381    0.4816 C   0  0  0  0  0  0  0  0  0  0  0  0
   -4.8457    3.7099   -0.5973 C   0  0  0  0  0  0  0  0  0  0  0  0
   -5.6113    4.7116   -1.4615 C   0  0  0  0  0  0  0  0  0  0  0  0
   -5.6461    5.7841   -1.1773 C   0  0  0  0  0  0  0  0  0  0  0  0
   -5.1895    6.6888   -0.1553 C   0  0  0  0  0  0  0  0  0  0  0  0
   -4.4031    5.7093    0.7351 C   0  0  0  0  0  0  0  0  0  0  0  0
   -3.7113    6.1661    2.0005 C   0  0  0  0  0  0  0  0  0  0  0  0
   -3.5235    7.3442    2.4366 C   0  0  0  0  0  0  0  0  0  0  0  0
   -4.1402    8.4678    1.7126 C   0  0  0  0  0  0  0  0  0  0  0  0
   -4.6481    9.4211    1.1165 N   0  0  0  0  0  0  0  0  0  0  0  0
   -2.6476    7.7854    3.4602 C   0  0  0  0  0  0  0  0  0  0  0  0
   -1.9305    8.1601    4.3269 N   0  0  0  0  0  0  0  0  0  0  0  0
   -6.4524    6.2767   -2.4856 C   0  0  0  0  0  0  0  0  0  0  0  0
   -7.8245    6.6080   -2.1687 C   0  0  0  0  0  0  0  0  0  0  0  0
   -8.2237    5.9836   -0.8748 C   0  0  0  0  0  0  0  0  0  0  0  0
   -8.2600    4.6789   -1.0636 C   0  0  0  0  0  0  0  0  0  0  0  0
   -7.8796    4.3961   -2.4787 C   0  0  0  0  0  0  0  0  0  0  0  0
   -8.5428    5.5982   -3.1161 C   0  0  0  0  0  0  0  0  0  0  0  0
   -6.4338    4.7399   -2.6658 C   0  0  0  0  0  0  0  0  0  0  0  0
   -1.0979    3.7292    2.9459 C   0  0  0  0  0  0  0  0  0  0  0  0
   -0.1074    3.6821    2.1607 C   0  0  0  0  0  0  0  0  0  0  0  0
    0.3963    4.7025    1.2985 N   0  0  0  0  0  0  0  0  0  0  0  0
    1.4940    5.4762    1.7794 C   0  0  0  0  0  0  0  0  0  0  0  0
    2.5696    5.6596    0.8656 C   0  0  0  0  0  0  0  0  0  0  0  0
    3.6902    6.3438    1.4435 C   0  0  0  0  0  0  0  0  0  0  0  0
    3.7144    6.7238    2.5873 C   0  0  0  0  0  0  0  0  0  0  0  0
    5.2778    7.4355    3.3270 S   0  0  0  0  0  0  0  0  0  0  0  0
    6.6597    7.0272    2.2506 C   0  0  0  0  0  0  0  0  0  0  0  0
    2.6828    6.6399    3.6603 C   0  0  0  0  0  0  0  0  0  0  0  0
    1.6188    5.9358    2.9884 C   0  0  0  0  0  0  0  0  0  0  0  0
   -0.0890    4.8456   -0.0344 C   0  0  0  0  0  0  0  0  0  0  0  0
   -0.4065    5.8842   -0.5733 C   0  0  0  0  0  0  0  0  0  0  0  0
   -0.7526    6.1696   -1.9648 C   0  0  0  0  0  0  0  0  0  0  0  0
   -0.6638    4.9159   -2.6677 C   0  0  0  0  0  0  0  0  0  0  0  0
   -0.9842    5.0427   -4.4720 S   0  0  0  0  0  0  0  0  0  0  0  0
   -0.1479    3.6664   -5.2766 C   0  0  0  0  0  0  0  0  0  0  0  0
   -0.3449    3.8472   -2.1080 C   0  0  0  0  0  0  0  0  0  0  0  0
    0.0041    3.5093   -0.7285 C   0  0  0  0  0  0  0  0  0  0  0  0
    0.5176    2.4185    2.0250 C   0  0  0  0  0  0  0  0  0  0  0  0
    1.8659    1.8251    1.1516 S   0  0  0  0  0  0  0  0  0  0  0  0
    1.7412    0.0956    1.6684 C   0  0  0  0  0  0  0  0  0  0  0  0
    0.6991    0.1637    2.4245 C   0  0  0  0  0  0  0  0  0  0  0  0
   -0.0266   -1.1048    2.7036 N   0  0  0  0  0  0  0  0  0  0  0  0
   -1.3613   -1.3217    2.3320 C   0  0  0  0  0  0  0  0  0  0  0  0
   -2.3666   -0.4624    2.7721 C   0  0  0  0  0  0  0  0  0  0  0  0
   -3.6840   -0.6329    2.3700 C   0  0  0  0  0  0  0  0  0  0  0  0
   -4.1192   -1.6019    1.5513 C   0  0  0  0  0  0  0  0  0  0  0  0
   -5.8075   -1.8990    1.1226 S   0  0  0  0  0  0  0  0  0  0  0  0
   -6.9094   -0.8891    2.1243 C   0  0  0  0  0  0  0  0  0  0  0  0
   -3.0891   -2.5293    1.0778 C   0  0  0  0  0  0  0  0  0  0  0  0
   -1.8246   -2.2936    1.5078 C   0  0  0  0  0  0  0  0  0  0  0  0
    0.4740   -2.1767    3.6219 C   0  0  0  0  0  0  0  0  0  0  0  0
   -0.8616   -2.5672    4.2758 C   0  0  0  0  0  0  0  0  0  0  0  0
    0.0062   -3.7024    5.3208 C   0  0  0  0  0  0  0  0  0  0  0  0
    1.0931   -3.9464    5.3878 C   0  0  0  0  0  0  0  0  0  0  0  0
    1.7824   -5.2479    6.6278 S   0  0  0  0  0  0  0  0  0  0  0  0
    1.7737   -6.8370    5.7450 C   0  0  0  0  0  0  0  0  0  0  0  0
    2.2684   -3.4787    4.6737 C   0  0  0  0  0  0  0  0  0  0  0  0
    1.5590   -2.5098    3.7722 C   0  0  0  0  0  0  0  0  0  0  0  0
    0.0295    1.3494    2.6717 C   0  0  0  0  0  0  0  0  0  0  0  0
   -1.2764    2.1489    3.5103 S   0  0  0  0  0  0  0  0  0  0  0  0
    2.8946   -0.6020    1.1118 C   0  0  0  0  0  0  0  0  0  0  0  0
    4.2036   -0.8729    1.6529 C   0  0  0  0  0  0  0  0  0  0  0  0
    4.3124   -0.6319    3.1413 C   0  0  0  0  0  0  0  0  0  0  0  0
    4.4065   -0.4597    4.1854 N   0  0  0  0  0  0  0  0  0  0  0  0
    5.0246   -1.3020    0.7960 C   0  0  0  0  0  0  0  0  0  0  0  0
    4.7949   -1.5027   -0.4797 C   0  0  0  0  0  0  0  0  0  0  0  0
    3.1247   -1.0162   -0.5403 S   0  0  0  0  0  0  0  0  0  0  0  0
    5.6085   -2.0437   -1.5712 C   0  0  0  0  0  0  0  0  0  0  0  0
    5.5903   -2.0172   -2.9135 C   0  0  0  0  0  0  0  0  0  0  0  0
    6.2896   -3.0130   -3.5882 C   0  0  0  0  0  0  0  0  0  0  0  0
    6.9634   -3.9599   -3.1413 C   0  0  0  0  0  0  0  0  0  0  0  0
    6.7256   -3.5724   -1.1283 Se  0  0  0  0  0  2  0  0  0  0  0  0
    7.5322   -5.3088   -3.2807 C   0  0  0  0  0  0  0  0  0  0  0  0
    6.5069   -6.2388   -3.4567 C   0  0  0  0  0  0  0  0  0  0  0  0
    5.1473   -5.9727   -3.5636 C   0  0  0  0  0  0  0  0  0  0  0  0
    4.5931   -4.9126   -4.0624 O   0  0  0  0  0  0  0  0  0  0  0  0
    4.3257   -7.0390   -3.0518 C   0  0  0  0  0  0  0  0  0  0  0  0
    2.9727   -7.3204   -2.9891 C   0  0  0  0  0  0  0  0  0  0  0  0
    2.5175   -8.4581   -2.5280 C   0  0  0  0  0  0  0  0  0  0  0  0
    3.3165   -9.4366   -2.1042 C   0  0  0  0  0  0  0  0  0  0  0  0
    4.7269   -9.2399   -2.1254 C   0  0  0  0  0  0  0  0  0  0  0  0
    5.1922   -8.0463   -2.5944 C   0  0  0  0  0  0  0  0  0  0  0  0
    6.6311   -7.5779   -2.8433 C   0  0  0  0  0  0  0  0  0  0  0  0
    7.6726   -8.3443   -2.7476 C   0  0  0  0  0  0  0  0  0  0  0  0
    8.9343   -8.1082   -3.2831 C   0  0  0  0  0  0  0  0  0  0  0  0
   10.0840   -7.8963   -3.7882 N   0  0  0  0  0  0  0  0  0  0  0  0
    7.6592   -9.2765   -1.5596 C   0  0  0  0  0  0  0  0  0  0  0  0
    7.6487  -10.0125   -0.6098 N   0  0  0  0  0  0  0  0  0  0  0  0
    2.1897  -10.3250   -1.8056 C   0  0  0  0  0  0  0  0  0  0  0  0
    1.9876  -11.4086   -2.8414 C   0  0  0  0  0  0  0  0  0  0  0  0
    0.5554  -11.8121   -2.7694 C   0  0  0  0  0  0  0  0  0  0  0  0
   -0.1537  -10.8900   -3.4081 C   0  0  0  0  0  0  0  0  0  0  0  0
    0.7476   -9.7310   -3.6182 C   0  0  0  0  0  0  0  0  0  0  0  0
    1.9743  -10.5281   -4.0754 C   0  0  0  0  0  0  0  0  0  0  0  0
    1.2413   -9.2569   -2.2916 C   0  0  0  0  0  0  0  0  0  0  0  0
   -1.7805    5.5603    4.0492 H   0  0  0  0  0  0  0  0  0  0  0  0
   -4.7857    2.7871   -0.7779 H   0  0  0  0  0  0  0  0  0  0  0  0
   -5.2716    7.5935    0.0098 H   0  0  0  0  0  0  0  0  0  0  0  0
   -5.8189    6.8008   -3.1645 H   0  0  0  0  0  0  0  0  0  0  0  0
   -8.1835    7.6292   -2.2845 H   0  0  0  0  0  0  0  0  0  0  0  0
   -8.4200    6.5423    0.0138 H   0  0  0  0  0  0  0  0  0  0  0  0
   -8.5268    3.9260   -0.3471 H   0  0  0  0  0  0  0  0  0  0  0  0
   -8.2148    3.4621   -2.8786 H   0  0  0  0  0  0  0  0  0  0  0  0
   -9.6150    5.6264   -2.9982 H   0  0  0  0  0  0  0  0  0  0  0  0
   -8.1950    5.7858   -4.1640 H   0  0  0  0  0  0  0  0  0  0  0  0
   -5.9701    4.4035   -3.6126 H   0  0  0  0  0  0  0  0  0  0  0  0
    2.5541    5.3456   -0.0973 H   0  0  0  0  0  0  0  0  0  0  0  0
    4.5122    6.4465    0.6646 H   0  0  0  0  0  0  0  0  0  0  0  0
    7.6008    7.4051    2.7364 H   0  0  0  0  0  0  0  0  0  0  0  0
    6.8341    5.9185    2.1781 H   0  0  0  0  0  0  0  0  0  0  0  0
    6.6136    7.4522    1.2422 H   0  0  0  0  0  0  0  0  0  0  0  0
    2.7792    6.9645    4.5320 H   0  0  0  0  0  0  0  0  0  0  0  0
    0.7614    5.8009    3.7079 H   0  0  0  0  0  0  0  0  0  0  0  0
   -0.5102    6.9117   -0.0504 H   0  0  0  0  0  0  0  0  0  0  0  0
   -1.0215    7.0449   -2.3462 H   0  0  0  0  0  0  0  0  0  0  0  0
    0.6565    4.1356   -5.9467 H   0  0  0  0  0  0  0  0  0  0  0  0
    0.3586    3.0011   -4.5743 H   0  0  0  0  0  0  0  0  0  0  0  0
   -0.8494    3.0450   -5.8871 H   0  0  0  0  0  0  0  0  0  0  0  0
   -0.2722    2.8535   -2.6981 H   0  0  0  0  0  0  0  0  0  0  0  0
    0.1948    2.6275   -0.3985 H   0  0  0  0  0  0  0  0  0  0  0  0
   -2.2242    0.2577    3.5124 H   0  0  0  0  0  0  0  0  0  0  0  0
   -4.4570    0.0929    2.7277 H   0  0  0  0  0  0  0  0  0  0  0  0
   -7.4358   -0.1342    1.4766 H   0  0  0  0  0  0  0  0  0  0  0  0
   -6.3982   -0.4255    2.9662 H   0  0  0  0  0  0  0  0  0  0  0  0
   -7.7225   -1.5397    2.5562 H   0  0  0  0  0  0  0  0  0  0  0  0
   -3.4629   -3.2858    0.4368 H   0  0  0  0  0  0  0  0  0  0  0  0
   -1.0693   -3.0364    1.1318 H   0  0  0  0  0  0  0  0  0  0  0  0
   -1.4767   -2.8355    4.7033 H   0  0  0  0  0  0  0  0  0  0  0  0
   -0.9022   -4.0707    5.8802 H   0  0  0  0  0  0  0  0  0  0  0  0
    1.3532   -7.5795    6.4305 H   0  0  0  0  0  0  0  0  0  0  0  0
    1.0666   -6.7852    4.8714 H   0  0  0  0  0  0  0  0  0  0  0  0
    2.7773   -7.1477    5.4640 H   0  0  0  0  0  0  0  0  0  0  0  0
    3.1479   -3.7079    4.6983 H   0  0  0  0  0  0  0  0  0  0  0  0
    2.4028   -2.1354    3.0856 H   0  0  0  0  0  0  0  0  0  0  0  0
    6.1260   -1.5795    1.1470 H   0  0  0  0  0  0  0  0  0  0  0  0
    5.0265   -1.2244   -3.4395 H   0  0  0  0  0  0  0  0  0  0  0  0
    6.2035   -2.9114   -4.7641 H   0  0  0  0  0  0  0  0  0  0  0  0
    8.4934   -5.5324   -3.2810 H   0  0  0  0  0  0  0  0  0  0  0  0
    2.3111   -6.4855   -3.3537 H   0  0  0  0  0  0  0  0  0  0  0  0
    5.3514  -10.0378   -1.8160 H   0  0  0  0  0  0  0  0  0  0  0  0
    2.0980  -10.6750   -0.7860 H   0  0  0  0  0  0  0  0  0  0  0  0
    2.7047  -12.1918   -2.8447 H   0  0  0  0  0  0  0  0  0  0  0  0
    0.1063  -12.6801   -2.2832 H   0  0  0  0  0  0  0  0  0  0  0  0
   -1.1728  -10.9046   -3.7240 H   0  0  0  0  0  0  0  0  0  0  0  0
    0.4193   -8.9941   -4.3232 H   0  0  0  0  0  0  0  0  0  0  0  0
    1.7842  -11.0828   -4.9918 H   0  0  0  0  0  0  0  0  0  0  0  0
    2.8791   -9.8710   -4.1477 H   0  0  0  0  0  0  0  0  0  0  0  0
    0.5367   -8.8177   -1.6003 H   0  0  0  0  0  0  0  0  0  0  0  0
  1  2  2  3
  2  3  1  0
  3  4  2  0
  3  5  1  0
  5  6  2  0
  6  7  1  0
  7  8  2  0
  8  9  1  0
  9 10  2  0
 10 11  1  0
 11 12  2  3
 12 13  1  0
 13 14  3  0
 12 15  1  0
 15 16  3  0
  8 17  1  0
 17 18  1  0
 18 19  1  0
 19 20  2  0
 20 21  1  0
 21 22  1  0
 21 23  1  0
  1 24  1  0
 24 25  2  0
 25 26  1  0
 26 27  1  0
 27 28  2  0
 28 29  1  0
 29 30  2  0
 30 31  1  0
 31 32  1  0
 30 33  1  0
 33 34  2  0
 26 35  1  0
 35 36  2  0
 36 37  1  0
 37 38  2  0
 38 39  1  0
 39 40  1  0
 38 41  1  0
 41 42  2  0
 25 43  1  0
 43 44  1  0
 44 45  1  0
 45 46  2  0
 46 47  1  0
 47 48  1  0
 48 49  2  0
 49 50  1  0
 50 51  2  0
 51 52  1  0
 52 53  1  0
 51 54  1  0
 54 55  2  0
 47 56  1  0
 56 57  2  0
 57 58  1  0
 58 59  2  0
 59 60  1  0
 60 61  1  0
 59 62  1  0
 62 63  2  0
 46 64  1  0
 64 65  1  0
 45 66  1  0
 66 67  2  0
 67 68  1  0
 68 69  3  0
 67 70  1  0
 70 71  2  0
 71 72  1  0
 71 73  1  0
 73 74  2  0
 74 75  1  0
 75 76  2  0
 76 77  1  0
 76 78  1  0
 78 79  2  3
 79 80  1  0
 80 81  2  0
 80 82  1  0
 82 83  2  0
 83 84  1  0
 84 85  2  0
 85 86  1  0
 86 87  2  0
 87 88  1  0
 88 89  2  3
 89 90  1  0
 90 91  3  0
 89 92  1  0
 92 93  3  0
 85 94  1  0
 94 95  1  0
 95 96  1  0
 96 97  2  0
 97 98  1  0
 98 99  1  0
 98100  1  0
 11  2  1  0
 23 17  1  0
 65 24  1  0
 72 66  1  0
 77 73  1  0
 88 79  1  0
100 94  1  0
 10  5  1  0
 22 18  1  0
 34 27  1  0
 42 35  1  0
 64 43  2  0
 87 82  1  0
 99 95  1  0
 23  7  1  0
 55 48  1  0
 63 56  1  0
100 84  1  0
  1101  1  0
  6102  1  0
  9103  1  0
 17104  1  0
 18105  1  0
 19106  1  0
 20107  1  0
 21108  1  0
 22109  1  0
 22110  1  0
 23111  1  0
 28112  1  0
 29113  1  0
 32114  1  0
 32115  1  0
 32116  1  0
 33117  1  0
 34118  1  0
 36119  1  0
 37120  1  0
 40121  1  0
 40122  1  0
 40123  1  0
 41124  1  0
 42125  1  0
 49126  1  0
 50127  1  0
 53128  1  0
 53129  1  0
 53130  1  0
 54131  1  0
 55132  1  0
 57133  1  0
 58134  1  0
 61135  1  0
 61136  1  0
 61137  1  0
 62138  1  0
 63139  1  0
 70140  1  0
 74141  1  0
 75142  1  0
 78143  1  0
 83144  1  0
 86145  1  0
 94146  1  0
 95147  1  0
 96148  1  0
 97149  1  0
 98150  1  0
 99151  1  0
 99152  1  0
100153  1  0
M  END

