
     RDKit          3D

150168  0  0  0  0  0  0  0  0999 V2000
   -4.6700   -4.8754    3.4835 C   0  0  0  0  0  0  0  0  0  0  0  0
   -4.1415   -6.1068    3.5830 C   0  0  0  0  0  0  0  0  0  0  0  0
   -3.1207   -6.6209    2.6657 C   0  0  0  0  0  0  0  0  0  0  0  0
   -3.0690   -6.4105    1.4247 O   0  0  0  0  0  0  0  0  0  0  0  0
   -2.1360   -7.3462    3.4270 C   0  0  0  0  0  0  0  0  0  0  0  0
   -0.8702   -7.7732    2.9753 C   0  0  0  0  0  0  0  0  0  0  0  0
   -0.0033   -8.1270    3.9898 C   0  0  0  0  0  0  0  0  0  0  0  0
   -0.3666   -8.1085    5.3781 C   0  0  0  0  0  0  0  0  0  0  0  0
   -1.6288   -7.7401    5.8254 C   0  0  0  0  0  0  0  0  0  0  0  0
   -2.5343   -7.3692    4.7871 C   0  0  0  0  0  0  0  0  0  0  0  0
   -3.8828   -6.7608    4.8930 C   0  0  0  0  0  0  0  0  0  0  0  0
   -4.7694   -6.9098    5.9009 C   0  0  0  0  0  0  0  0  0  0  0  0
   -4.4378   -7.6011    7.1175 C   0  0  0  0  0  0  0  0  0  0  0  0
   -4.1708   -8.1438    8.1063 N   0  0  0  0  0  0  0  0  0  0  0  0
   -6.1337   -6.4631    5.7808 C   0  0  0  0  0  0  0  0  0  0  0  0
   -7.2386   -6.1237    5.7004 N   0  0  0  0  0  0  0  0  0  0  0  0
    1.0277   -8.5068    5.7667 C   0  0  0  0  0  0  0  0  0  0  0  0
    1.2715   -9.9704    6.2333 C   0  0  0  0  0  0  0  0  0  0  0  0
    0.2861  -10.8949    5.5570 C   0  0  0  0  0  0  0  0  0  0  0  0
    0.6056  -10.9163    4.2600 C   0  0  0  0  0  0  0  0  0  0  0  0
    1.8060  -10.0140    4.0997 C   0  0  0  0  0  0  0  0  0  0  0  0
    2.5076  -10.3023    5.4158 C   0  0  0  0  0  0  0  0  0  0  0  0
    1.3947   -8.5341    4.3430 C   0  0  0  0  0  0  0  0  0  0  0  0
   -4.0184   -3.8529    2.6493 C   0  0  0  0  0  0  0  0  0  0  0  0
   -4.4482   -3.5621    1.3519 C   0  0  0  0  0  0  0  0  0  0  0  0
   -3.8086   -2.5656    0.5703 C   0  0  0  0  0  0  0  0  0  0  0  0
   -4.3871   -2.3612   -0.7191 N   0  0  0  0  0  0  0  0  0  0  0  0
   -5.5664   -3.4363   -0.6846 S   0  0  0  0  0  4  0  0  0  0  0  0
   -5.5577   -4.2056    0.7139 N   0  0  0  0  0  0  0  0  0  0  0  0
   -2.7097   -1.8406    1.0707 C   0  0  0  0  0  0  0  0  0  0  0  0
   -2.2544   -2.1540    2.3628 C   0  0  0  0  0  0  0  0  0  0  0  0
   -1.1675   -1.5583    2.9293 N   0  0  0  0  0  0  0  0  0  0  0  0
   -1.1184   -2.3246    4.3915 S   0  0  0  0  0  0  0  0  0  0  0  0
   -2.3843   -3.3870    4.3842 N   0  0  0  0  0  0  0  0  0  0  0  0
   -2.9108   -3.1495    3.1499 C   0  0  0  0  0  0  0  0  0  0  0  0
   -2.0983   -0.7343    0.3075 C   0  0  0  0  0  0  0  0  0  0  0  0
   -1.6292   -0.7677   -1.0176 C   0  0  0  0  0  0  0  0  0  0  0  0
   -1.5145   -1.9628   -1.8114 N   0  0  0  0  0  0  0  0  0  0  0  0
   -0.7753   -3.0704   -1.2623 C   0  0  0  0  0  0  0  0  0  0  0  0
   -1.3310   -4.3587   -1.2337 C   0  0  0  0  0  0  0  0  0  0  0  0
   -0.6154   -5.4206   -0.6670 C   0  0  0  0  0  0  0  0  0  0  0  0
    0.6589   -5.2025   -0.1304 C   0  0  0  0  0  0  0  0  0  0  0  0
    1.5643   -6.5544    0.6194 S   0  0  0  0  0  0  0  0  0  0  0  0
    2.2983   -7.1072   -0.9502 C   0  0  0  0  0  0  0  0  0  0  0  0
    1.2154   -3.9209   -0.1592 C   0  0  0  0  0  0  0  0  0  0  0  0
    0.5026   -2.8589   -0.7160 C   0  0  0  0  0  0  0  0  0  0  0  0
   -2.1218   -2.0284   -3.1245 C   0  0  0  0  0  0  0  0  0  0  0  0
   -1.6088   -2.8946   -4.1114 C   0  0  0  0  0  0  0  0  0  0  0  0
   -2.2349   -2.9944   -5.3602 C   0  0  0  0  0  0  0  0  0  0  0  0
   -3.3706   -2.2327   -5.6425 C   0  0  0  0  0  0  0  0  0  0  0  0
   -4.2169   -2.4206   -7.2154 S   0  0  0  0  0  0  0  0  0  0  0  0
   -3.3550   -1.0199   -7.9926 C   0  0  0  0  0  0  0  0  0  0  0  0
   -3.8684   -1.3504   -4.6791 C   0  0  0  0  0  0  0  0  0  0  0  0
   -3.2438   -1.2380   -3.4362 C   0  0  0  0  0  0  0  0  0  0  0  0
   -1.1017    0.4684   -1.3988 C   0  0  0  0  0  0  0  0  0  0  0  0
   -0.3441    1.0394   -2.7759 S   0  0  0  0  0  0  0  0  0  0  0  0
   -0.0452    2.5889   -2.1281 C   0  0  0  0  0  0  0  0  0  0  0  0
   -0.5340    2.6611   -0.8024 C   0  0  0  0  0  0  0  0  0  0  0  0
   -0.3658    3.7844    0.0941 N   0  0  0  0  0  0  0  0  0  0  0  0
    0.7834    4.6321   -0.0129 C   0  0  0  0  0  0  0  0  0  0  0  0
    0.6312    5.9897   -0.3163 C   0  0  0  0  0  0  0  0  0  0  0  0
    1.7529    6.8205   -0.3803 C   0  0  0  0  0  0  0  0  0  0  0  0
    3.0298    6.3020   -0.1328 C   0  0  0  0  0  0  0  0  0  0  0  0
    4.4801    7.3417   -0.3016 S   0  0  0  0  0  0  0  0  0  0  0  0
    4.3383    8.0690    1.3578 C   0  0  0  0  0  0  0  0  0  0  0  0
    3.1779    4.9508    0.1968 C   0  0  0  0  0  0  0  0  0  0  0  0
    2.0594    4.1197    0.2597 C   0  0  0  0  0  0  0  0  0  0  0  0
   -1.1004    3.8636    1.3229 C   0  0  0  0  0  0  0  0  0  0  0  0
   -2.4009    4.3860    1.3428 C   0  0  0  0  0  0  0  0  0  0  0  0
   -3.0946    4.4917    2.5536 C   0  0  0  0  0  0  0  0  0  0  0  0
   -2.4971    4.0569    3.7450 C   0  0  0  0  0  0  0  0  0  0  0  0
   -3.3615    4.2298    5.3063 S   0  0  0  0  0  0  0  0  0  0  0  0
   -2.5165    5.7901    5.7301 C   0  0  0  0  0  0  0  0  0  0  0  0
   -1.2116    3.5031    3.7184 C   0  0  0  0  0  0  0  0  0  0  0  0
   -0.5071    3.4266    2.5180 C   0  0  0  0  0  0  0  0  0  0  0  0
   -1.1328    1.4421   -0.4480 C   0  0  0  0  0  0  0  0  0  0  0  0
   -1.8304    0.8218    0.9454 S   0  0  0  0  0  0  0  0  0  0  0  0
    0.4505    3.6997   -2.9580 C   0  0  0  0  0  0  0  0  0  0  0  0
    1.8222    3.9081   -3.1493 C   0  0  0  0  0  0  0  0  0  0  0  0
    2.2984    4.8981   -4.0442 C   0  0  0  0  0  0  0  0  0  0  0  0
    3.7193    4.9378   -4.1838 N   0  0  0  0  0  0  0  0  0  0  0  0
    4.1445    3.7644   -3.1882 S   0  0  0  0  0  4  0  0  0  0  0  0
    2.8449    3.1163   -2.5305 N   0  0  0  0  0  0  0  0  0  0  0  0
    1.4126    5.6665   -4.8214 C   0  0  0  0  0  0  0  0  0  0  0  0
    0.0360    5.4334   -4.6632 C   0  0  0  0  0  0  0  0  0  0  0  0
   -0.9074    6.0958   -5.3849 N   0  0  0  0  0  0  0  0  0  0  0  0
   -2.2869    5.4337   -4.7582 S   0  0  0  0  0  0  0  0  0  0  0  0
   -1.7918    4.3376   -3.6220 N   0  0  0  0  0  0  0  0  0  0  0  0
   -0.4452    4.4750   -3.7126 C   0  0  0  0  0  0  0  0  0  0  0  0
    1.9082    6.5492   -5.9009 C   0  0  0  0  0  0  0  0  0  0  0  0
    2.8211    7.5210   -5.7299 C   0  0  0  0  0  0  0  0  0  0  0  0
    3.7199    7.9727   -6.7934 C   0  0  0  0  0  0  0  0  0  0  0  0
    3.5571    7.7548   -8.0234 O   0  0  0  0  0  0  0  0  0  0  0  0
    4.8791    8.6034   -6.1774 C   0  0  0  0  0  0  0  0  0  0  0  0
    6.0520    9.1248   -6.7554 C   0  0  0  0  0  0  0  0  0  0  0  0
    6.2372    9.2084   -8.1280 O   0  0  0  0  0  0  0  0  0  0  0  0
    7.0613    9.6042   -5.8968 C   0  0  0  0  0  0  0  0  0  0  0  0
    6.9104    9.5156   -4.5052 C   0  0  0  0  0  0  0  0  0  0  0  0
    5.7174    9.0335   -3.9443 C   0  0  0  0  0  0  0  0  0  0  0  0
    4.6935    8.6126   -4.8042 C   0  0  0  0  0  0  0  0  0  0  0  0
    3.3388    8.1102   -4.4676 C   0  0  0  0  0  0  0  0  0  0  0  0
    2.5729    8.5746   -3.4499 C   0  0  0  0  0  0  0  0  0  0  0  0
    1.1431    8.3894   -3.4204 C   0  0  0  0  0  0  0  0  0  0  0  0
   -0.0037    8.2641   -3.3766 N   0  0  0  0  0  0  0  0  0  0  0  0
    3.0780    9.5239   -2.4889 C   0  0  0  0  0  0  0  0  0  0  0  0
    3.4721   10.2936   -1.7203 N   0  0  0  0  0  0  0  0  0  0  0  0
   -5.2361   -4.4857    4.3145 H   0  0  0  0  0  0  0  0  0  0  0  0
   -0.5856   -7.7524    1.9333 H   0  0  0  0  0  0  0  0  0  0  0  0
   -1.8499   -7.6702    6.8799 H   0  0  0  0  0  0  0  0  0  0  0  0
    1.5714   -7.7309    6.3432 H   0  0  0  0  0  0  0  0  0  0  0  0
    1.3713  -10.1035    7.3321 H   0  0  0  0  0  0  0  0  0  0  0  0
   -0.4943  -11.4795    6.0294 H   0  0  0  0  0  0  0  0  0  0  0  0
    0.1344  -11.5266    3.4978 H   0  0  0  0  0  0  0  0  0  0  0  0
    2.4115  -10.1932    3.1870 H   0  0  0  0  0  0  0  0  0  0  0  0
    3.3711   -9.6248    5.6183 H   0  0  0  0  0  0  0  0  0  0  0  0
    2.8349  -11.3673    5.5181 H   0  0  0  0  0  0  0  0  0  0  0  0
    2.1667   -7.7833    4.0619 H   0  0  0  0  0  0  0  0  0  0  0  0
   -2.3244   -4.5330   -1.6352 H   0  0  0  0  0  0  0  0  0  0  0  0
   -1.0595   -6.4077   -0.6364 H   0  0  0  0  0  0  0  0  0  0  0  0
    1.5056   -7.2748   -1.7100 H   0  0  0  0  0  0  0  0  0  0  0  0
    2.8343   -8.0625   -0.7800 H   0  0  0  0  0  0  0  0  0  0  0  0
    3.0169   -6.3428   -1.3109 H   0  0  0  0  0  0  0  0  0  0  0  0
    2.1997   -3.7460    0.2589 H   0  0  0  0  0  0  0  0  0  0  0  0
    0.9512   -1.8726   -0.7248 H   0  0  0  0  0  0  0  0  0  0  0  0
   -0.7354   -3.5081   -3.9171 H   0  0  0  0  0  0  0  0  0  0  0  0
   -1.8395   -3.6840   -6.0981 H   0  0  0  0  0  0  0  0  0  0  0  0
   -3.7995   -0.8423   -8.9932 H   0  0  0  0  0  0  0  0  0  0  0  0
   -2.2767   -1.2497   -8.1078 H   0  0  0  0  0  0  0  0  0  0  0  0
   -3.4804   -0.0993   -7.3800 H   0  0  0  0  0  0  0  0  0  0  0  0
   -4.7453   -0.7498   -4.8928 H   0  0  0  0  0  0  0  0  0  0  0  0
   -3.6578   -0.5506   -2.7104 H   0  0  0  0  0  0  0  0  0  0  0  0
   -0.3536    6.3984   -0.5034 H   0  0  0  0  0  0  0  0  0  0  0  0
    1.6262    7.8703   -0.6050 H   0  0  0  0  0  0  0  0  0  0  0  0
    5.1448    8.8198    1.4890 H   0  0  0  0  0  0  0  0  0  0  0  0
    3.3570    8.5757    1.4696 H   0  0  0  0  0  0  0  0  0  0  0  0
    4.4461    7.2777    2.1273 H   0  0  0  0  0  0  0  0  0  0  0  0
    4.1608    4.5423    0.3922 H   0  0  0  0  0  0  0  0  0  0  0  0
    2.1792    3.0730    0.5154 H   0  0  0  0  0  0  0  0  0  0  0  0
   -2.8692    4.7132    0.4276 H   0  0  0  0  0  0  0  0  0  0  0  0
   -4.0914    4.9141    2.5680 H   0  0  0  0  0  0  0  0  0  0  0  0
   -1.4185    5.6271    5.7846 H   0  0  0  0  0  0  0  0  0  0  0  0
   -2.8737    6.1444    6.7168 H   0  0  0  0  0  0  0  0  0  0  0  0
   -2.7421    6.5649    4.9651 H   0  0  0  0  0  0  0  0  0  0  0  0
   -0.7482    3.1534    4.6344 H   0  0  0  0  0  0  0  0  0  0  0  0
    0.4894    3.0098    2.5105 H   0  0  0  0  0  0  0  0  0  0  0  0
    1.6400    6.2592   -6.9104 H   0  0  0  0  0  0  0  0  0  0  0  0
    5.5577    8.8807   -8.8055 H   0  0  0  0  0  0  0  0  0  0  0  0
    7.9773   10.0130   -6.3143 H   0  0  0  0  0  0  0  0  0  0  0  0
    7.7162    9.8421   -3.8589 H   0  0  0  0  0  0  0  0  0  0  0  0
    5.6213    8.9640   -2.8695 H   0  0  0  0  0  0  0  0  0  0  0  0
  1  2  2  3
  2  3  1  0
  3  4  2  0
  3  5  1  0
  5  6  2  0
  6  7  1  0
  7  8  2  0
  8  9  1  0
  9 10  2  0
 10 11  1  0
 11 12  2  3
 12 13  1  0
 13 14  3  0
 12 15  1  0
 15 16  3  0
  8 17  1  0
 17 18  1  0
 18 19  1  0
 19 20  2  0
 20 21  1  0
 21 22  1  0
 21 23  1  0
  1 24  1  0
 24 25  2  0
 25 26  1  0
 26 27  1  0
 27 28  2  0
 28 29  2  0
 26 30  2  0
 30 31  1  0
 31 32  2  0
 32 33  1  0
 33 34  1  0
 34 35  2  0
 30 36  1  0
 36 37  2  0
 37 38  1  0
 38 39  1  0
 39 40  2  0
 40 41  1  0
 41 42  2  0
 42 43  1  0
 43 44  1  0
 42 45  1  0
 45 46  2  0
 38 47  1  0
 47 48  2  0
 48 49  1  0
 49 50  2  0
 50 51  1  0
 51 52  1  0
 50 53  1  0
 53 54  2  0
 37 55  1  0
 55 56  1  0
 56 57  1  0
 57 58  2  0
 58 59  1  0
 59 60  1  0
 60 61  2  0
 61 62  1  0
 62 63  2  0
 63 64  1  0
 64 65  1  0
 63 66  1  0
 66 67  2  0
 59 68  1  0
 68 69  2  0
 69 70  1  0
 70 71  2  0
 71 72  1  0
 72 73  1  0
 71 74  1  0
 74 75  2  0
 58 76  1  0
 76 77  1  0
 57 78  1  0
 78 79  2  0
 79 80  1  0
 80 81  1  0
 81 82  2  0
 82 83  2  0
 80 84  2  0
 84 85  1  0
 85 86  2  0
 86 87  1  0
 87 88  1  0
 88 89  2  0
 84 90  1  0
 90 91  2  3
 91 92  1  0
 92 93  2  0
 92 94  1  0
 94 95  2  0
 95 96  1  0
 95 97  1  0
 97 98  2  0
 98 99  1  0
 99100  2  0
100101  1  0
101102  2  3
102103  1  0
103104  3  0
102105  1  0
105106  3  0
 11  2  1  0
 23 17  1  0
 35 24  1  0
 77 36  1  0
 89 78  1  0
101 91  1  0
 10  5  1  0
 22 18  1  0
 29 25  1  0
 35 31  1  0
 46 39  1  0
 54 47  1  0
 76 55  2  0
 83 79  1  0
 89 85  1  0
100 94  1  0
 23  7  1  0
 67 60  1  0
 75 68  1  0
  1107  1  0
  6108  1  0
  9109  1  0
 17110  1  0
 18111  1  0
 19112  1  0
 20113  1  0
 21114  1  0
 22115  1  0
 22116  1  0
 23117  1  0
 40118  1  0
 41119  1  0
 44120  1  0
 44121  1  0
 44122  1  0
 45123  1  0
 46124  1  0
 48125  1  0
 49126  1  0
 52127  1  0
 52128  1  0
 52129  1  0
 53130  1  0
 54131  1  0
 61132  1  0
 62133  1  0
 65134  1  0
 65135  1  0
 65136  1  0
 66137  1  0
 67138  1  0
 69139  1  0
 70140  1  0
 73141  1  0
 73142  1  0
 73143  1  0
 74144  1  0
 75145  1  0
 90146  1  0
 96147  1  0
 97148  1  0
 98149  1  0
 99150  1  0
M  END

