
     RDKit          3D

148165  0  0  0  0  0  0  0  0999 V2000
   -5.8834    3.6170    2.3174 C   0  0  0  0  0  0  0  0  0  0  0  0
   -5.7552    3.3085    1.0110 C   0  0  0  0  0  0  0  0  0  0  0  0
   -4.7148    2.4502    0.4302 C   0  0  0  0  0  0  0  0  0  0  0  0
   -3.6236    2.1347    0.9712 O   0  0  0  0  0  0  0  0  0  0  0  0
   -5.1431    2.0279   -0.8882 C   0  0  0  0  0  0  0  0  0  0  0  0
   -4.4843    1.1264   -1.7592 C   0  0  0  0  0  0  0  0  0  0  0  0
   -5.1801    0.8627   -2.9264 C   0  0  0  0  0  0  0  0  0  0  0  0
   -6.4580    1.4366   -3.2160 C   0  0  0  0  0  0  0  0  0  0  0  0
   -7.1088    2.3202   -2.3706 C   0  0  0  0  0  0  0  0  0  0  0  0
   -6.3943    2.6336   -1.1804 C   0  0  0  0  0  0  0  0  0  0  0  0
   -6.7603    3.5577   -0.0672 C   0  0  0  0  0  0  0  0  0  0  0  0
   -7.6465    4.5862   -0.1214 C   0  0  0  0  0  0  0  0  0  0  0  0
   -7.6757    5.6282    0.8728 C   0  0  0  0  0  0  0  0  0  0  0  0
   -7.7021    6.4751    1.6616 N   0  0  0  0  0  0  0  0  0  0  0  0
   -8.5208    4.7996   -1.2438 C   0  0  0  0  0  0  0  0  0  0  0  0
   -9.2309    4.9864   -2.1380 N   0  0  0  0  0  0  0  0  0  0  0  0
   -6.5187    0.6907   -4.5180 C   0  0  0  0  0  0  0  0  0  0  0  0
   -6.2912    1.4954   -5.8334 C   0  0  0  0  0  0  0  0  0  0  0  0
   -5.3703    2.6645   -5.5723 C   0  0  0  0  0  0  0  0  0  0  0  0
   -4.1710    2.1507   -5.3056 C   0  0  0  0  0  0  0  0  0  0  0  0
   -4.3138    0.6502   -5.4003 C   0  0  0  0  0  0  0  0  0  0  0  0
   -5.3136    0.5750   -6.5395 C   0  0  0  0  0  0  0  0  0  0  0  0
   -5.2000    0.1193   -4.2331 C   0  0  0  0  0  0  0  0  0  0  0  0
   -4.9187    3.2007    3.3444 C   0  0  0  0  0  0  0  0  0  0  0  0
   -4.8460    1.9290    3.9475 C   0  0  0  0  0  0  0  0  0  0  0  0
   -5.8091    0.8114    3.6444 C   0  0  0  0  0  0  0  0  0  0  0  0
   -7.1380    1.0312    4.3634 C   0  0  0  0  0  0  0  0  0  0  0  0
   -3.8109    1.8844    4.8992 C   0  0  0  0  0  0  0  0  0  0  0  0
   -3.1781    3.0822    5.0575 C   0  0  0  0  0  0  0  0  0  0  0  0
   -3.7378    4.2378    3.9849 S   0  0  0  0  0  0  0  0  0  0  0  0
   -1.9910    2.9208    5.8455 C   0  0  0  0  0  0  0  0  0  0  0  0
   -1.8653    1.5849    6.1358 C   0  0  0  0  0  0  0  0  0  0  0  0
   -3.0666    0.7731    5.6386 C   0  0  0  0  0  0  0  0  0  0  0  0
   -2.6247   -0.3978    4.7048 C   0  0  0  0  0  0  0  0  0  0  0  0
   -1.9697    0.0450    3.3932 C   0  0  0  0  0  0  0  0  0  0  0  0
   -3.9296    0.2745    6.8234 C   0  0  0  0  0  0  0  0  0  0  0  0
   -3.1962   -0.6773    7.7743 C   0  0  0  0  0  0  0  0  0  0  0  0
   -0.5340    1.1724    6.2892 C   0  0  0  0  0  0  0  0  0  0  0  0
    0.3898    2.1972    6.0271 C   0  0  0  0  0  0  0  0  0  0  0  0
   -0.4795    3.6095    5.6445 S   0  0  0  0  0  0  0  0  0  0  0  0
    1.7988    1.9138    5.6341 C   0  0  0  0  0  0  0  0  0  0  0  0
    2.4672    0.8414    6.2523 C   0  0  0  0  0  0  0  0  0  0  0  0
    3.5805    0.2487    5.6502 C   0  0  0  0  0  0  0  0  0  0  0  0
    4.0588    0.7164    4.4196 C   0  0  0  0  0  0  0  0  0  0  0  0
    3.4765    1.8619    3.8492 C   0  0  0  0  0  0  0  0  0  0  0  0
    3.9080    2.3367    2.6465 N   0  0  0  0  0  0  0  0  0  0  0  0
    3.3536    3.4356    2.0722 C   0  0  0  0  0  0  0  0  0  0  0  0
    2.2983    4.0812    2.7079 C   0  0  0  0  0  0  0  0  0  0  0  0
    1.8210    3.5801    3.8753 N   0  0  0  0  0  0  0  0  0  0  0  0
    2.3734    2.4871    4.4741 C   0  0  0  0  0  0  0  0  0  0  0  0
    4.8305   -0.2102    3.5721 C   0  0  0  0  0  0  0  0  0  0  0  0
    6.1267   -0.0320    3.0369 C   0  0  0  0  0  0  0  0  0  0  0  0
    7.1424    0.9497    3.5607 C   0  0  0  0  0  0  0  0  0  0  0  0
    6.9293    2.3772    3.0592 C   0  0  0  0  0  0  0  0  0  0  0  0
    6.3824   -0.9778    2.0188 C   0  0  0  0  0  0  0  0  0  0  0  0
    5.3542   -1.8591    1.8456 C   0  0  0  0  0  0  0  0  0  0  0  0
    4.0377   -1.4897    2.7898 S   0  0  0  0  0  0  0  0  0  0  0  0
    5.5055   -2.5256    0.6003 C   0  0  0  0  0  0  0  0  0  0  0  0
    6.6216   -2.0737   -0.0239 C   0  0  0  0  0  0  0  0  0  0  0  0
    7.3651   -1.0476    0.8351 C   0  0  0  0  0  0  0  0  0  0  0  0
    7.4432    0.3509    0.1543 C   0  0  0  0  0  0  0  0  0  0  0  0
    8.0809    0.3807   -1.2365 C   0  0  0  0  0  0  0  0  0  0  0  0
    8.7614   -1.5756    1.2591 C   0  0  0  0  0  0  0  0  0  0  0  0
    8.7224   -2.8791    2.0645 C   0  0  0  0  0  0  0  0  0  0  0  0
    6.7492   -2.5530   -1.3330 C   0  0  0  0  0  0  0  0  0  0  0  0
    5.6286   -3.3149   -1.6940 C   0  0  0  0  0  0  0  0  0  0  0  0
    4.5337   -3.4380   -0.3958 S   0  0  0  0  0  0  0  0  0  0  0  0
    5.3319   -3.8314   -3.0356 C   0  0  0  0  0  0  0  0  0  0  0  0
    4.2416   -3.4217   -3.7148 C   0  0  0  0  0  0  0  0  0  0  0  0
    3.3575   -2.3270   -3.2947 C   0  0  0  0  0  0  0  0  0  0  0  0
    3.6846   -1.3374   -2.5874 O   0  0  0  0  0  0  0  0  0  0  0  0
    2.0380   -2.5638   -3.8292 C   0  0  0  0  0  0  0  0  0  0  0  0
    0.8485   -1.8919   -3.4671 C   0  0  0  0  0  0  0  0  0  0  0  0
   -0.2966   -2.4834   -3.9645 C   0  0  0  0  0  0  0  0  0  0  0  0
   -0.2829   -3.6683   -4.7700 C   0  0  0  0  0  0  0  0  0  0  0  0
    0.8839   -4.3234   -5.1374 C   0  0  0  0  0  0  0  0  0  0  0  0
    2.0774   -3.7187   -4.6524 C   0  0  0  0  0  0  0  0  0  0  0  0
    3.4850   -4.2045   -4.7372 C   0  0  0  0  0  0  0  0  0  0  0  0
    4.0049   -5.0314   -5.6765 C   0  0  0  0  0  0  0  0  0  0  0  0
    5.4202   -5.2725   -5.7855 C   0  0  0  0  0  0  0  0  0  0  0  0
    6.5564   -5.4684   -5.8828 N   0  0  0  0  0  0  0  0  0  0  0  0
    3.1981   -5.6211   -6.7130 C   0  0  0  0  0  0  0  0  0  0  0  0
    2.5592   -6.1060   -7.5478 N   0  0  0  0  0  0  0  0  0  0  0  0
   -1.7818   -3.6889   -4.7890 C   0  0  0  0  0  0  0  0  0  0  0  0
   -2.4701   -4.7483   -3.8792 C   0  0  0  0  0  0  0  0  0  0  0  0
   -3.9133   -4.3215   -3.7624 C   0  0  0  0  0  0  0  0  0  0  0  0
   -3.9221   -3.2172   -3.0035 C   0  0  0  0  0  0  0  0  0  0  0  0
   -2.4869   -2.9300   -2.6471 C   0  0  0  0  0  0  0  0  0  0  0  0
   -2.0020   -4.3623   -2.4841 C   0  0  0  0  0  0  0  0  0  0  0  0
   -1.7934   -2.4751   -3.9656 C   0  0  0  0  0  0  0  0  0  0  0  0
   -6.7561    4.1329    2.6812 H   0  0  0  0  0  0  0  0  0  0  0  0
   -3.5289    0.6690   -1.5317 H   0  0  0  0  0  0  0  0  0  0  0  0
   -8.0864    2.6963   -2.6195 H   0  0  0  0  0  0  0  0  0  0  0  0
   -7.3312   -0.0698   -4.5665 H   0  0  0  0  0  0  0  0  0  0  0  0
   -7.2124    1.7402   -6.4061 H   0  0  0  0  0  0  0  0  0  0  0  0
   -5.6020    3.7208   -5.6621 H   0  0  0  0  0  0  0  0  0  0  0  0
   -3.2581    2.7163   -5.1450 H   0  0  0  0  0  0  0  0  0  0  0  0
   -3.3632    0.1049   -5.5697 H   0  0  0  0  0  0  0  0  0  0  0  0
   -5.7097   -0.4533   -6.7166 H   0  0  0  0  0  0  0  0  0  0  0  0
   -4.9212    0.9894   -7.4977 H   0  0  0  0  0  0  0  0  0  0  0  0
   -5.2196   -0.9851   -4.1315 H   0  0  0  0  0  0  0  0  0  0  0  0
   -5.4006   -0.1634    3.9593 H   0  0  0  0  0  0  0  0  0  0  0  0
   -5.9859    0.7592    2.5495 H   0  0  0  0  0  0  0  0  0  0  0  0
   -7.5691    2.0207    4.0989 H   0  0  0  0  0  0  0  0  0  0  0  0
   -7.8582    0.2414    4.0631 H   0  0  0  0  0  0  0  0  0  0  0  0
   -6.9925    0.9805    5.4628 H   0  0  0  0  0  0  0  0  0  0  0  0
   -1.9012   -1.0489    5.2366 H   0  0  0  0  0  0  0  0  0  0  0  0
   -3.4844   -1.0557    4.4672 H   0  0  0  0  0  0  0  0  0  0  0  0
   -1.5848   -0.8459    2.8517 H   0  0  0  0  0  0  0  0  0  0  0  0
   -2.7123    0.5422    2.7392 H   0  0  0  0  0  0  0  0  0  0  0  0
   -1.1203    0.7352    3.5777 H   0  0  0  0  0  0  0  0  0  0  0  0
   -4.8293   -0.2465    6.4320 H   0  0  0  0  0  0  0  0  0  0  0  0
   -4.2882    1.1445    7.4155 H   0  0  0  0  0  0  0  0  0  0  0  0
   -2.2968   -0.1915    8.2082 H   0  0  0  0  0  0  0  0  0  0  0  0
   -3.8736   -0.9575    8.6091 H   0  0  0  0  0  0  0  0  0  0  0  0
   -2.8959   -1.6093    7.2512 H   0  0  0  0  0  0  0  0  0  0  0  0
   -0.2486    0.1301    6.3558 H   0  0  0  0  0  0  0  0  0  0  0  0
    2.0616    0.3892    7.1483 H   0  0  0  0  0  0  0  0  0  0  0  0
    3.9956   -0.6549    6.0851 H   0  0  0  0  0  0  0  0  0  0  0  0
    3.7371    3.8039    1.1296 H   0  0  0  0  0  0  0  0  0  0  0  0
    1.8442    4.9580    2.2689 H   0  0  0  0  0  0  0  0  0  0  0  0
    7.1141    0.9444    4.6720 H   0  0  0  0  0  0  0  0  0  0  0  0
    8.1600    0.6162    3.2721 H   0  0  0  0  0  0  0  0  0  0  0  0
    7.9059    2.9103    3.0334 H   0  0  0  0  0  0  0  0  0  0  0  0
    6.5036    2.3951    2.0346 H   0  0  0  0  0  0  0  0  0  0  0  0
    6.2617    2.9329    3.7517 H   0  0  0  0  0  0  0  0  0  0  0  0
    8.0330    1.0322    0.8030 H   0  0  0  0  0  0  0  0  0  0  0  0
    6.4217    0.7853    0.0650 H   0  0  0  0  0  0  0  0  0  0  0  0
    8.3491    1.4297   -1.4944 H   0  0  0  0  0  0  0  0  0  0  0  0
    9.0060   -0.2281   -1.2802 H   0  0  0  0  0  0  0  0  0  0  0  0
    7.3605    0.0289   -2.0035 H   0  0  0  0  0  0  0  0  0  0  0  0
    9.2893   -0.8089    1.8622 H   0  0  0  0  0  0  0  0  0  0  0  0
    9.3791   -1.7641    0.3573 H   0  0  0  0  0  0  0  0  0  0  0  0
    8.2699   -3.6987    1.4649 H   0  0  0  0  0  0  0  0  0  0  0  0
    8.1444   -2.7492    3.0055 H   0  0  0  0  0  0  0  0  0  0  0  0
    9.7579   -3.1791    2.3332 H   0  0  0  0  0  0  0  0  0  0  0  0
    7.5603   -2.3082   -2.0070 H   0  0  0  0  0  0  0  0  0  0  0  0
    5.8856   -4.7050   -3.3415 H   0  0  0  0  0  0  0  0  0  0  0  0
    0.8256   -1.0394   -2.7991 H   0  0  0  0  0  0  0  0  0  0  0  0
    0.8495   -5.2557   -5.6778 H   0  0  0  0  0  0  0  0  0  0  0  0
   -2.2189   -3.5643   -5.8080 H   0  0  0  0  0  0  0  0  0  0  0  0
   -2.3113   -5.8098   -4.1669 H   0  0  0  0  0  0  0  0  0  0  0  0
   -4.7899   -4.8617   -4.0999 H   0  0  0  0  0  0  0  0  0  0  0  0
   -4.8070   -2.7241   -2.6142 H   0  0  0  0  0  0  0  0  0  0  0  0
   -2.3393   -2.2625   -1.7711 H   0  0  0  0  0  0  0  0  0  0  0  0
   -0.9072   -4.4564   -2.3246 H   0  0  0  0  0  0  0  0  0  0  0  0
   -2.5297   -4.9171   -1.6715 H   0  0  0  0  0  0  0  0  0  0  0  0
   -2.2315   -1.5833   -4.4597 H   0  0  0  0  0  0  0  0  0  0  0  0
  1  2  2  3
  2  3  1  0
  3  4  2  0
  3  5  1  0
  5  6  2  0
  6  7  1  0
  7  8  2  0
  8  9  1  0
  9 10  2  0
 10 11  1  0
 11 12  2  3
 12 13  1  0
 13 14  3  0
 12 15  1  0
 15 16  3  0
  8 17  1  0
 17 18  1  0
 18 19  1  0
 19 20  2  0
 20 21  1  0
 21 22  1  0
 21 23  1  0
  1 24  1  0
 24 25  2  0
 25 26  1  0
 26 27  1  0
 25 28  1  0
 28 29  2  0
 29 30  1  0
 29 31  1  0
 31 32  2  0
 32 33  1  0
 33 34  1  0
 34 35  1  0
 33 36  1  0
 36 37  1  0
 32 38  1  0
 38 39  2  0
 39 40  1  0
 39 41  1  0
 41 42  2  0
 42 43  1  0
 43 44  2  0
 44 45  1  0
 45 46  2  0
 46 47  1  0
 47 48  2  0
 48 49  1  0
 49 50  2  0
 44 51  1  0
 51 52  2  0
 52 53  1  0
 53 54  1  0
 52 55  1  0
 55 56  2  0
 56 57  1  0
 56 58  1  0
 58 59  2  0
 59 60  1  0
 60 61  1  0
 61 62  1  0
 60 63  1  0
 63 64  1  0
 59 65  1  0
 65 66  2  0
 66 67  1  0
 66 68  1  0
 68 69  2  3
 69 70  1  0
 70 71  2  0
 70 72  1  0
 72 73  2  0
 73 74  1  0
 74 75  2  0
 75 76  1  0
 76 77  2  0
 77 78  1  0
 78 79  2  3
 79 80  1  0
 80 81  3  0
 79 82  1  0
 82 83  3  0
 75 84  1  0
 84 85  1  0
 85 86  1  0
 86 87  2  0
 87 88  1  0
 88 89  1  0
 88 90  1  0
 11  2  1  0
 23 17  1  0
 30 24  1  0
 40 31  1  0
 50 41  1  0
 57 51  1  0
 67 58  1  0
 78 69  1  0
 90 84  1  0
 10  5  1  0
 22 18  1  0
 33 28  1  0
 50 45  1  0
 60 55  1  0
 77 72  1  0
 89 85  1  0
 23  7  1  0
 90 74  1  0
  1 91  1  0
  6 92  1  0
  9 93  1  0
 17 94  1  0
 18 95  1  0
 19 96  1  0
 20 97  1  0
 21 98  1  0
 22 99  1  0
 22100  1  0
 23101  1  0
 26102  1  0
 26103  1  0
 27104  1  0
 27105  1  0
 27106  1  0
 34107  1  0
 34108  1  0
 35109  1  0
 35110  1  0
 35111  1  0
 36112  1  0
 36113  1  0
 37114  1  0
 37115  1  0
 37116  1  0
 38117  1  0
 42118  1  0
 43119  1  0
 47120  1  0
 48121  1  0
 53122  1  0
 53123  1  0
 54124  1  0
 54125  1  0
 54126  1  0
 61127  1  0
 61128  1  0
 62129  1  0
 62130  1  0
 62131  1  0
 63132  1  0
 63133  1  0
 64134  1  0
 64135  1  0
 64136  1  0
 65137  1  0
 68138  1  0
 73139  1  0
 76140  1  0
 84141  1  0
 85142  1  0
 86143  1  0
 87144  1  0
 88145  1  0
 89146  1  0
 89147  1  0
 90148  1  0
M  END

