
     RDKit          3D

170188  0  0  0  0  0  0  0  0999 V2000
    5.2193    2.3965    0.7337 C   0  0  0  0  0  0  0  0  0  0  0  0
    5.7618    1.9391    1.8764 C   0  0  0  0  0  0  0  0  0  0  0  0
    6.8769    0.9969    1.8996 C   0  0  0  0  0  0  0  0  0  0  0  0
    7.6412    0.7322    0.9320 O   0  0  0  0  0  0  0  0  0  0  0  0
    6.9086    0.3512    3.1970 C   0  0  0  0  0  0  0  0  0  0  0  0
    7.8132   -0.6429    3.6347 C   0  0  0  0  0  0  0  0  0  0  0  0
    7.6274   -1.0300    4.9484 C   0  0  0  0  0  0  0  0  0  0  0  0
    6.5956   -0.4970    5.7844 C   0  0  0  0  0  0  0  0  0  0  0  0
    5.6848    0.4537    5.3527 C   0  0  0  0  0  0  0  0  0  0  0  0
    5.8818    0.8959    4.0134 C   0  0  0  0  0  0  0  0  0  0  0  0
    5.2070    1.9950    3.2629 C   0  0  0  0  0  0  0  0  0  0  0  0
    4.5598    3.0536    3.8163 C   0  0  0  0  0  0  0  0  0  0  0  0
    4.0143    3.0269    5.1461 C   0  0  0  0  0  0  0  0  0  0  0  0
    3.5483    3.0155    6.2038 N   0  0  0  0  0  0  0  0  0  0  0  0
    4.4554    4.3201    3.1369 C   0  0  0  0  0  0  0  0  0  0  0  0
    4.3746    5.3494    2.6152 N   0  0  0  0  0  0  0  0  0  0  0  0
    7.0894   -1.3136    6.9456 C   0  0  0  0  0  0  0  0  0  0  0  0
    6.2738   -2.5670    7.3881 C   0  0  0  0  0  0  0  0  0  0  0  0
    5.5539   -3.1587    6.2050 C   0  0  0  0  0  0  0  0  0  0  0  0
    6.4901   -3.6517    5.3937 C   0  0  0  0  0  0  0  0  0  0  0  0
    7.8201   -3.3965    6.0662 C   0  0  0  0  0  0  0  0  0  0  0  0
    7.3948   -3.5838    7.5103 C   0  0  0  0  0  0  0  0  0  0  0  0
    8.1339   -1.8715    6.0802 C   0  0  0  0  0  0  0  0  0  0  0  0
    3.8110    2.8034    0.6236 C   0  0  0  0  0  0  0  0  0  0  0  0
    2.7098    2.0255    1.0085 C   0  0  0  0  0  0  0  0  0  0  0  0
    2.7644    0.6081    1.2445 N   0  0  0  0  0  0  0  0  0  0  0  0
    2.6556    0.0867    2.5879 C   0  0  0  0  0  0  0  0  0  0  0  0
    1.9838    0.8017    3.5999 C   0  0  0  0  0  0  0  0  0  0  0  0
    1.7737    0.2251    4.8552 C   0  0  0  0  0  0  0  0  0  0  0  0
    2.2177   -1.0750    5.1141 C   0  0  0  0  0  0  0  0  0  0  0  0
    1.8913   -1.8327    6.7071 S   0  0  0  0  0  0  0  0  0  0  0  0
    0.3269   -2.5887    6.1601 C   0  0  0  0  0  0  0  0  0  0  0  0
    2.9054   -1.7832    4.1238 C   0  0  0  0  0  0  0  0  0  0  0  0
    3.1456   -1.1988    2.8801 C   0  0  0  0  0  0  0  0  0  0  0  0
    2.4913   -0.2528    0.1127 C   0  0  0  0  0  0  0  0  0  0  0  0
    3.1413   -0.0444   -1.1187 C   0  0  0  0  0  0  0  0  0  0  0  0
    2.8042   -0.8118   -2.2363 C   0  0  0  0  0  0  0  0  0  0  0  0
    1.8124   -1.7930   -2.1447 C   0  0  0  0  0  0  0  0  0  0  0  0
    1.3551   -2.7475   -3.5918 S   0  0  0  0  0  0  0  0  0  0  0  0
    0.0576   -1.5786   -4.1016 C   0  0  0  0  0  0  0  0  0  0  0  0
    1.1675   -2.0184   -0.9253 C   0  0  0  0  0  0  0  0  0  0  0  0
    1.4951   -1.2482    0.1925 C   0  0  0  0  0  0  0  0  0  0  0  0
    1.5222    2.6575    0.6793 C   0  0  0  0  0  0  0  0  0  0  0  0
   -0.0561    2.1425    0.7395 S   0  0  0  0  0  0  0  0  0  0  0  0
   -0.6620    3.4834   -0.1066 C   0  0  0  0  0  0  0  0  0  0  0  0
    0.4005    4.3458   -0.4850 C   0  0  0  0  0  0  0  0  0  0  0  0
    0.2763    5.5451   -1.2898 N   0  0  0  0  0  0  0  0  0  0  0  0
    1.3780    6.4519   -1.4291 C   0  0  0  0  0  0  0  0  0  0  0  0
    1.8015    7.2177   -0.3332 C   0  0  0  0  0  0  0  0  0  0  0  0
    2.8824    8.0940   -0.4628 C   0  0  0  0  0  0  0  0  0  0  0  0
    3.5477    8.2106   -1.6896 C   0  0  0  0  0  0  0  0  0  0  0  0
    4.9446    9.3241   -1.8531 S   0  0  0  0  0  0  0  0  0  0  0  0
    6.1572    8.0667   -1.3426 C   0  0  0  0  0  0  0  0  0  0  0  0
    3.1151    7.4618   -2.7904 C   0  0  0  0  0  0  0  0  0  0  0  0
    2.0333    6.5857   -2.6624 C   0  0  0  0  0  0  0  0  0  0  0  0
   -0.9986    6.0115   -1.7508 C   0  0  0  0  0  0  0  0  0  0  0  0
   -1.3458    5.8949   -3.1046 C   0  0  0  0  0  0  0  0  0  0  0  0
   -2.5899    6.3511   -3.5516 C   0  0  0  0  0  0  0  0  0  0  0  0
   -3.4880    6.9352   -2.6512 C   0  0  0  0  0  0  0  0  0  0  0  0
   -5.0811    7.5275   -3.2246 S   0  0  0  0  0  0  0  0  0  0  0  0
   -4.4762    9.2143   -3.5348 C   0  0  0  0  0  0  0  0  0  0  0  0
   -3.1406    7.0582   -1.2996 C   0  0  0  0  0  0  0  0  0  0  0  0
   -1.8960    6.6064   -0.8532 C   0  0  0  0  0  0  0  0  0  0  0  0
    1.6202    3.8288   -0.0025 C   0  0  0  0  0  0  0  0  0  0  0  0
    3.2555    4.1750   -0.2272 S   0  0  0  0  0  0  0  0  0  0  0  0
   -2.0578    3.4615   -0.5515 C   0  0  0  0  0  0  0  0  0  0  0  0
   -2.3709    2.9400   -1.8041 C   0  0  0  0  0  0  0  0  0  0  0  0
   -1.5449    2.7113   -2.8386 N   0  0  0  0  0  0  0  0  0  0  0  0
   -2.2708    2.0161   -3.7077 N   0  0  0  0  0  0  0  0  0  0  0  0
   -1.7776    1.5866   -5.0092 C   0  0  0  0  0  0  0  0  0  0  0  0
   -2.1606    2.6038   -6.0752 C   0  0  0  0  0  0  0  0  0  0  0  0
   -3.4989    1.7587   -3.2696 N   0  0  0  0  0  0  0  0  0  0  0  0
   -3.5690    2.3404   -2.0604 C   0  0  0  0  0  0  0  0  0  0  0  0
   -4.5551    2.1871   -1.0767 C   0  0  0  0  0  0  0  0  0  0  0  0
   -4.3248    2.8403    0.1602 C   0  0  0  0  0  0  0  0  0  0  0  0
   -3.0834    3.4665    0.4155 C   0  0  0  0  0  0  0  0  0  0  0  0
   -5.2068    2.7244    1.1839 F   0  0  0  0  0  0  0  0  0  0  0  0
   -5.5608    1.1067   -1.1939 C   0  0  0  0  0  0  0  0  0  0  0  0
   -6.7686    0.9891   -0.5013 C   0  0  0  0  0  0  0  0  0  0  0  0
   -7.3235   -0.3013   -0.5597 C   0  0  0  0  0  0  0  0  0  0  0  0
   -8.8721   -0.7391    0.2418 S   0  0  0  0  0  0  0  0  0  0  0  0
   -8.1632   -0.9498    1.9131 C   0  0  0  0  0  0  0  0  0  0  0  0
   -7.3851   -2.2543    2.0350 C   0  0  0  0  0  0  0  0  0  0  0  0
   -6.5428   -1.2073   -1.2723 C   0  0  0  0  0  0  0  0  0  0  0  0
   -5.2085   -0.3915   -1.8721 S   0  0  0  0  0  0  0  0  0  0  0  0
   -6.8265   -2.6316   -1.5117 C   0  0  0  0  0  0  0  0  0  0  0  0
   -5.9317   -3.6100   -1.2632 C   0  0  0  0  0  0  0  0  0  0  0  0
   -4.6134   -3.4302   -0.6330 C   0  0  0  0  0  0  0  0  0  0  0  0
   -4.2472   -2.4578    0.0770 O   0  0  0  0  0  0  0  0  0  0  0  0
   -3.7985   -4.5877   -0.9179 C   0  0  0  0  0  0  0  0  0  0  0  0
   -2.4298   -4.7572   -0.6055 C   0  0  0  0  0  0  0  0  0  0  0  0
   -1.8821   -5.9119   -1.1260 C   0  0  0  0  0  0  0  0  0  0  0  0
   -2.6243   -6.8456   -1.9208 C   0  0  0  0  0  0  0  0  0  0  0  0
   -3.9704   -6.6891   -2.2167 C   0  0  0  0  0  0  0  0  0  0  0  0
   -4.5669   -5.5230   -1.6564 C   0  0  0  0  0  0  0  0  0  0  0  0
   -5.9675   -5.0174   -1.7698 C   0  0  0  0  0  0  0  0  0  0  0  0
   -7.0699   -5.7602   -2.0454 C   0  0  0  0  0  0  0  0  0  0  0  0
   -8.4049   -5.2466   -1.8864 C   0  0  0  0  0  0  0  0  0  0  0  0
   -9.4831   -4.8433   -1.7629 N   0  0  0  0  0  0  0  0  0  0  0  0
   -6.9970   -7.1608   -2.3753 C   0  0  0  0  0  0  0  0  0  0  0  0
   -6.9578   -8.2867   -2.6401 N   0  0  0  0  0  0  0  0  0  0  0  0
   -1.3908   -7.6751   -2.1259 C   0  0  0  0  0  0  0  0  0  0  0  0
   -0.6954   -7.5627   -3.5172 C   0  0  0  0  0  0  0  0  0  0  0  0
    0.6807   -8.1547   -3.3405 C   0  0  0  0  0  0  0  0  0  0  0  0
    1.3688   -7.2998   -2.5738 C   0  0  0  0  0  0  0  0  0  0  0  0
    0.4331   -6.1567   -2.2638 C   0  0  0  0  0  0  0  0  0  0  0  0
   -0.3044   -6.0937   -3.5912 C   0  0  0  0  0  0  0  0  0  0  0  0
   -0.6381   -6.7307   -1.2936 C   0  0  0  0  0  0  0  0  0  0  0  0
    5.7754    2.3074   -0.1914 H   0  0  0  0  0  0  0  0  0  0  0  0
    8.6061   -1.0414    3.0152 H   0  0  0  0  0  0  0  0  0  0  0  0
    4.9186    0.8163    6.0140 H   0  0  0  0  0  0  0  0  0  0  0  0
    7.4896   -0.7018    7.7847 H   0  0  0  0  0  0  0  0  0  0  0  0
    5.6502   -2.4281    8.2963 H   0  0  0  0  0  0  0  0  0  0  0  0
    4.4875   -3.3074    6.1070 H   0  0  0  0  0  0  0  0  0  0  0  0
    6.3058   -4.2475    4.5061 H   0  0  0  0  0  0  0  0  0  0  0  0
    8.6522   -4.0469    5.7240 H   0  0  0  0  0  0  0  0  0  0  0  0
    7.0340   -4.6171    7.7370 H   0  0  0  0  0  0  0  0  0  0  0  0
    8.1803   -3.2942    8.2490 H   0  0  0  0  0  0  0  0  0  0  0  0
    9.1673   -1.6129    6.4040 H   0  0  0  0  0  0  0  0  0  0  0  0
    1.5946    1.7936    3.4160 H   0  0  0  0  0  0  0  0  0  0  0  0
    1.2414    0.7803    5.6185 H   0  0  0  0  0  0  0  0  0  0  0  0
    0.5278   -3.3571    5.3842 H   0  0  0  0  0  0  0  0  0  0  0  0
   -0.3564   -1.8146    5.7514 H   0  0  0  0  0  0  0  0  0  0  0  0
   -0.1617   -3.0751    7.0292 H   0  0  0  0  0  0  0  0  0  0  0  0
    3.2254   -2.8007    4.2959 H   0  0  0  0  0  0  0  0  0  0  0  0
    3.6732   -1.7679    2.1250 H   0  0  0  0  0  0  0  0  0  0  0  0
    3.9017    0.7155   -1.2167 H   0  0  0  0  0  0  0  0  0  0  0  0
    3.3015   -0.6304   -3.1800 H   0  0  0  0  0  0  0  0  0  0  0  0
   -0.4353   -1.9557   -5.0211 H   0  0  0  0  0  0  0  0  0  0  0  0
    0.5133   -0.5894   -4.3171 H   0  0  0  0  0  0  0  0  0  0  0  0
   -0.7055   -1.4729   -3.2999 H   0  0  0  0  0  0  0  0  0  0  0  0
    0.3949   -2.7719   -0.8484 H   0  0  0  0  0  0  0  0  0  0  0  0
    0.9522   -1.4109    1.1148 H   0  0  0  0  0  0  0  0  0  0  0  0
    1.3017    7.1213    0.6229 H   0  0  0  0  0  0  0  0  0  0  0  0
    3.2097    8.6721    0.3909 H   0  0  0  0  0  0  0  0  0  0  0  0
    7.1687    8.5211   -1.3384 H   0  0  0  0  0  0  0  0  0  0  0  0
    6.1475    7.2154   -2.0549 H   0  0  0  0  0  0  0  0  0  0  0  0
    5.9214    7.7030   -0.3208 H   0  0  0  0  0  0  0  0  0  0  0  0
    3.6205    7.5559   -3.7438 H   0  0  0  0  0  0  0  0  0  0  0  0
    1.7125    6.0049   -3.5167 H   0  0  0  0  0  0  0  0  0  0  0  0
   -0.6639    5.4321   -3.8064 H   0  0  0  0  0  0  0  0  0  0  0  0
   -2.8535    6.2497   -4.5969 H   0  0  0  0  0  0  0  0  0  0  0  0
   -5.3122    9.8348   -3.9142 H   0  0  0  0  0  0  0  0  0  0  0  0
   -4.0915    9.6629   -2.5952 H   0  0  0  0  0  0  0  0  0  0  0  0
   -3.6683    9.1963   -4.2961 H   0  0  0  0  0  0  0  0  0  0  0  0
   -3.8292    7.5105   -0.5986 H   0  0  0  0  0  0  0  0  0  0  0  0
   -1.6290    6.7136    0.1907 H   0  0  0  0  0  0  0  0  0  0  0  0
   -2.2148    0.5978   -5.2649 H   0  0  0  0  0  0  0  0  0  0  0  0
   -0.6718    1.4826   -4.9774 H   0  0  0  0  0  0  0  0  0  0  0  0
   -1.6879    3.5833   -5.8521 H   0  0  0  0  0  0  0  0  0  0  0  0
   -1.8095    2.2538   -7.0707 H   0  0  0  0  0  0  0  0  0  0  0  0
   -3.2642    2.7273   -6.1063 H   0  0  0  0  0  0  0  0  0  0  0  0
   -2.8711    3.8202    1.4184 H   0  0  0  0  0  0  0  0  0  0  0  0
   -7.2186    1.7933    0.0626 H   0  0  0  0  0  0  0  0  0  0  0  0
   -7.5053   -0.0906    2.1678 H   0  0  0  0  0  0  0  0  0  0  0  0
   -8.9996   -0.9688    2.6451 H   0  0  0  0  0  0  0  0  0  0  0  0
   -7.0958   -2.4160    3.0950 H   0  0  0  0  0  0  0  0  0  0  0  0
   -8.0070   -3.1120    1.6961 H   0  0  0  0  0  0  0  0  0  0  0  0
   -6.4606   -2.2049    1.4293 H   0  0  0  0  0  0  0  0  0  0  0  0
   -7.7451   -2.8392   -2.0262 H   0  0  0  0  0  0  0  0  0  0  0  0
   -1.8473   -4.0321   -0.0516 H   0  0  0  0  0  0  0  0  0  0  0  0
   -4.4764   -7.3850   -2.8657 H   0  0  0  0  0  0  0  0  0  0  0  0
   -1.4667   -8.7006   -1.7037 H   0  0  0  0  0  0  0  0  0  0  0  0
   -1.2736   -7.9568   -4.3782 H   0  0  0  0  0  0  0  0  0  0  0  0
    1.0827   -9.0410   -3.8211 H   0  0  0  0  0  0  0  0  0  0  0  0
    2.4222   -7.3766   -2.3234 H   0  0  0  0  0  0  0  0  0  0  0  0
    0.9257   -5.2203   -1.9296 H   0  0  0  0  0  0  0  0  0  0  0  0
    0.3588   -5.8534   -4.4595 H   0  0  0  0  0  0  0  0  0  0  0  0
   -1.1666   -5.3909   -3.6009 H   0  0  0  0  0  0  0  0  0  0  0  0
   -0.2521   -7.1560   -0.3402 H   0  0  0  0  0  0  0  0  0  0  0  0
  1  2  2  3
  2  3  1  0
  3  4  2  0
  3  5  1  0
  5  6  2  0
  6  7  1  0
  7  8  2  0
  8  9  1  0
  9 10  2  0
 10 11  1  0
 11 12  2  3
 12 13  1  0
 13 14  3  0
 12 15  1  0
 15 16  3  0
  8 17  1  0
 17 18  1  0
 18 19  1  0
 19 20  2  0
 20 21  1  0
 21 22  1  0
 21 23  1  0
  1 24  1  0
 24 25  2  0
 25 26  1  0
 26 27  1  0
 27 28  2  0
 28 29  1  0
 29 30  2  0
 30 31  1  0
 31 32  1  0
 30 33  1  0
 33 34  2  0
 26 35  1  0
 35 36  2  0
 36 37  1  0
 37 38  2  0
 38 39  1  0
 39 40  1  0
 38 41  1  0
 41 42  2  0
 25 43  1  0
 43 44  1  0
 44 45  1  0
 45 46  2  0
 46 47  1  0
 47 48  1  0
 48 49  2  0
 49 50  1  0
 50 51  2  0
 51 52  1  0
 52 53  1  0
 51 54  1  0
 54 55  2  0
 47 56  1  0
 56 57  2  0
 57 58  1  0
 58 59  2  0
 59 60  1  0
 60 61  1  0
 59 62  1  0
 62 63  2  0
 46 64  1  0
 64 65  1  0
 45 66  1  0
 66 67  1  0
 67 68  2  0
 68 69  1  0
 69 70  1  0
 70 71  1  0
 69 72  1  0
 72 73  2  0
 73 74  1  0
 74 75  2  0
 75 76  1  0
 75 77  1  0
 74 78  1  0
 78 79  2  0
 79 80  1  0
 80 81  1  0
 81 82  1  0
 82 83  1  0
 80 84  2  0
 84 85  1  0
 84 86  1  0
 86 87  2  3
 87 88  1  0
 88 89  2  0
 88 90  1  0
 90 91  2  0
 91 92  1  0
 92 93  2  0
 93 94  1  0
 94 95  2  0
 95 96  1  0
 96 97  2  3
 97 98  1  0
 98 99  3  0
 97100  1  0
100101  3  0
 93102  1  0
102103  1  0
103104  1  0
104105  2  0
105106  1  0
106107  1  0
106108  1  0
 11  2  1  0
 23 17  1  0
 65 24  1  0
 76 66  2  0
 85 78  1  0
 96 87  1  0
108102  1  0
 10  5  1  0
 22 18  1  0
 34 27  1  0
 42 35  1  0
 64 43  2  0
 73 67  1  0
 95 90  1  0
107103  1  0
 23  7  1  0
 55 48  1  0
 63 56  1  0
108 92  1  0
  1109  1  0
  6110  1  0
  9111  1  0
 17112  1  0
 18113  1  0
 19114  1  0
 20115  1  0
 21116  1  0
 22117  1  0
 22118  1  0
 23119  1  0
 28120  1  0
 29121  1  0
 32122  1  0
 32123  1  0
 32124  1  0
 33125  1  0
 34126  1  0
 36127  1  0
 37128  1  0
 40129  1  0
 40130  1  0
 40131  1  0
 41132  1  0
 42133  1  0
 49134  1  0
 50135  1  0
 53136  1  0
 53137  1  0
 53138  1  0
 54139  1  0
 55140  1  0
 57141  1  0
 58142  1  0
 61143  1  0
 61144  1  0
 61145  1  0
 62146  1  0
 63147  1  0
 70148  1  0
 70149  1  0
 71150  1  0
 71151  1  0
 71152  1  0
 76153  1  0
 79154  1  0
 82155  1  0
 82156  1  0
 83157  1  0
 83158  1  0
 83159  1  0
 86160  1  0
 91161  1  0
 94162  1  0
102163  1  0
103164  1  0
104165  1  0
105166  1  0
106167  1  0
107168  1  0
107169  1  0
108170  1  0
M  END

