
     RDKit          3D

250276  0  0  0  0  0  0  0  0999 V2000
   -4.7986   -4.6603    2.6510 C   0  0  0  0  0  0  0  0  0  0  0  0
   -3.8739   -5.0565    1.7446 C   0  0  0  0  0  0  0  0  0  0  0  0
   -3.2488   -4.1770    0.7472 C   0  0  0  0  0  0  0  0  0  0  0  0
   -3.1494   -2.9219    0.8094 O   0  0  0  0  0  0  0  0  0  0  0  0
   -2.7377   -4.9763   -0.3325 C   0  0  0  0  0  0  0  0  0  0  0  0
   -2.2110   -4.4918   -1.5513 C   0  0  0  0  0  0  0  0  0  0  0  0
   -1.8576   -5.4842   -2.4406 C   0  0  0  0  0  0  0  0  0  0  0  0
   -1.9614   -6.8774   -2.1331 C   0  0  0  0  0  0  0  0  0  0  0  0
   -2.4745   -7.3599   -0.9355 C   0  0  0  0  0  0  0  0  0  0  0  0
   -2.8988   -6.3504   -0.0207 C   0  0  0  0  0  0  0  0  0  0  0  0
   -3.5415   -6.4596    1.3282 C   0  0  0  0  0  0  0  0  0  0  0  0
   -3.7155   -7.5864    2.0641 C   0  0  0  0  0  0  0  0  0  0  0  0
   -4.0766   -7.5355    3.4570 C   0  0  0  0  0  0  0  0  0  0  0  0
   -4.3717   -7.4883    4.5754 N   0  0  0  0  0  0  0  0  0  0  0  0
   -3.5006   -8.9088    1.5366 C   0  0  0  0  0  0  0  0  0  0  0  0
   -3.3463   -9.9776    1.1146 N   0  0  0  0  0  0  0  0  0  0  0  0
   -1.3903   -7.2312   -3.4765 C   0  0  0  0  0  0  0  0  0  0  0  0
    0.1000   -7.6783   -3.5554 C   0  0  0  0  0  0  0  0  0  0  0  0
    0.9143   -6.9919   -2.4776 C   0  0  0  0  0  0  0  0  0  0  0  0
    0.9657   -5.6978   -2.8092 C   0  0  0  0  0  0  0  0  0  0  0  0
    0.1835   -5.5505   -4.0899 C   0  0  0  0  0  0  0  0  0  0  0  0
    0.5484   -6.8646   -4.7536 C   0  0  0  0  0  0  0  0  0  0  0  0
   -1.3278   -5.8035   -3.8103 C   0  0  0  0  0  0  0  0  0  0  0  0
   -5.2708   -3.2652    2.7026 C   0  0  0  0  0  0  0  0  0  0  0  0
   -5.9896   -2.6467    1.6512 C   0  0  0  0  0  0  0  0  0  0  0  0
   -6.8241   -3.3675    0.7129 N   0  0  0  0  0  0  0  0  0  0  0  0
   -7.4764   -2.7046   -0.3783 C   0  0  0  0  0  0  0  0  0  0  0  0
   -8.5661   -1.8519   -0.1402 C   0  0  0  0  0  0  0  0  0  0  0  0
   -9.2387   -1.2532   -1.2127 C   0  0  0  0  0  0  0  0  0  0  0  0
   -8.8314   -1.5124   -2.5243 C   0  0  0  0  0  0  0  0  0  0  0  0
   -9.6849   -0.7324   -3.8980 S   0  0  0  0  0  0  0  0  0  0  0  0
   -8.6842    0.7853   -3.8233 C   0  0  0  0  0  0  0  0  0  0  0  0
   -7.7660   -2.3892   -2.7671 C   0  0  0  0  0  0  0  0  0  0  0  0
   -7.0933   -2.9863   -1.6932 C   0  0  0  0  0  0  0  0  0  0  0  0
   -7.3848   -4.6311    1.1009 C   0  0  0  0  0  0  0  0  0  0  0  0
   -7.0064   -5.8061    0.4367 C   0  0  0  0  0  0  0  0  0  0  0  0
   -7.5226   -7.0393    0.8503 C   0  0  0  0  0  0  0  0  0  0  0  0
   -8.4281   -7.1010    1.9158 C   0  0  0  0  0  0  0  0  0  0  0  0
   -9.0601   -8.6837    2.4697 S   0  0  0  0  0  0  0  0  0  0  0  0
   -7.7181   -8.9336    3.6757 C   0  0  0  0  0  0  0  0  0  0  0  0
   -8.8276   -5.9229    2.5618 C   0  0  0  0  0  0  0  0  0  0  0  0
   -8.3008   -4.6944    2.1588 C   0  0  0  0  0  0  0  0  0  0  0  0
   -5.7257   -1.2719    1.6276 C   0  0  0  0  0  0  0  0  0  0  0  0
   -5.8087   -0.0778    0.4604 S   0  0  0  0  0  0  0  0  0  0  0  0
   -4.8743    1.0790    1.3073 C   0  0  0  0  0  0  0  0  0  0  0  0
   -4.5041    0.5052    2.5508 C   0  0  0  0  0  0  0  0  0  0  0  0
   -4.1441    1.2398    3.7417 N   0  0  0  0  0  0  0  0  0  0  0  0
   -5.0139    1.0824    4.8933 C   0  0  0  0  0  0  0  0  0  0  0  0
   -6.4116    1.1890    4.7508 C   0  0  0  0  0  0  0  0  0  0  0  0
   -7.2565    0.9843    5.8447 C   0  0  0  0  0  0  0  0  0  0  0  0
   -6.7173    0.6541    7.0950 C   0  0  0  0  0  0  0  0  0  0  0  0
   -7.7979    0.3558    8.4948 S   0  0  0  0  0  0  0  0  0  0  0  0
   -7.9025    2.1152    8.9530 C   0  0  0  0  0  0  0  0  0  0  0  0
   -5.3352    0.5245    7.2468 C   0  0  0  0  0  0  0  0  0  0  0  0
   -4.4877    0.7193    6.1517 C   0  0  0  0  0  0  0  0  0  0  0  0
   -2.8497    1.8638    3.9138 C   0  0  0  0  0  0  0  0  0  0  0  0
   -1.7087    1.3869    3.2404 C   0  0  0  0  0  0  0  0  0  0  0  0
   -0.4383    1.8748    3.5748 C   0  0  0  0  0  0  0  0  0  0  0  0
   -0.2987    2.8640    4.5589 C   0  0  0  0  0  0  0  0  0  0  0  0
    1.3207    3.4803    5.0228 S   0  0  0  0  0  0  0  0  0  0  0  0
    1.2826    4.8660    3.8452 C   0  0  0  0  0  0  0  0  0  0  0  0
   -1.4243    3.3626    5.2074 C   0  0  0  0  0  0  0  0  0  0  0  0
   -2.6899    2.8827    4.8758 C   0  0  0  0  0  0  0  0  0  0  0  0
   -4.9635   -0.8112    2.6516 C   0  0  0  0  0  0  0  0  0  0  0  0
   -4.4691   -2.0812    3.6227 S   0  0  0  0  0  0  0  0  0  0  0  0
   -4.0260    2.0193    0.5351 C   0  0  0  0  0  0  0  0  0  0  0  0
   -3.4269    3.2286    0.9596 C   0  0  0  0  0  0  0  0  0  0  0  0
   -4.0465    4.1916    1.8607 N   0  0  0  0  0  0  0  0  0  0  0  0
   -5.4115    4.0511    2.3126 C   0  0  0  0  0  0  0  0  0  0  0  0
   -5.7468    4.3962    3.6333 C   0  0  0  0  0  0  0  0  0  0  0  0
   -7.0747    4.3560    4.0596 C   0  0  0  0  0  0  0  0  0  0  0  0
   -8.0874    3.9831    3.1684 C   0  0  0  0  0  0  0  0  0  0  0  0
   -9.7936    3.9478    3.7167 S   0  0  0  0  0  0  0  0  0  0  0  0
  -10.1071    5.6759    3.2383 C   0  0  0  0  0  0  0  0  0  0  0  0
   -7.7697    3.6592    1.8483 C   0  0  0  0  0  0  0  0  0  0  0  0
   -6.4435    3.7219    1.4142 C   0  0  0  0  0  0  0  0  0  0  0  0
   -3.5223    5.5340    1.9162 C   0  0  0  0  0  0  0  0  0  0  0  0
   -4.1238    6.5535    1.1565 C   0  0  0  0  0  0  0  0  0  0  0  0
   -3.6228    7.8589    1.2042 C   0  0  0  0  0  0  0  0  0  0  0  0
   -2.5207    8.1564    2.0138 C   0  0  0  0  0  0  0  0  0  0  0  0
   -1.8392    9.8145    2.0424 S   0  0  0  0  0  0  0  0  0  0  0  0
   -0.6926    9.4951    0.6609 C   0  0  0  0  0  0  0  0  0  0  0  0
   -1.9341    7.1532    2.7904 C   0  0  0  0  0  0  0  0  0  0  0  0
   -2.4302    5.8477    2.7396 C   0  0  0  0  0  0  0  0  0  0  0  0
   -2.3050    3.5230    0.1529 C   0  0  0  0  0  0  0  0  0  0  0  0
   -0.8075    4.1485    0.5728 S   0  0  0  0  0  0  0  0  0  0  0  0
    0.0743    3.4726   -0.7191 C   0  0  0  0  0  0  0  0  0  0  0  0
   -0.8300    2.7392   -1.5041 C   0  0  0  0  0  0  0  0  0  0  0  0
   -0.5411    2.3108   -2.8514 N   0  0  0  0  0  0  0  0  0  0  0  0
    0.0583    3.2285   -3.7909 C   0  0  0  0  0  0  0  0  0  0  0  0
    0.8668    2.7478   -4.8342 C   0  0  0  0  0  0  0  0  0  0  0  0
    1.5070    3.6378   -5.7009 C   0  0  0  0  0  0  0  0  0  0  0  0
    1.3420    5.0144   -5.5394 C   0  0  0  0  0  0  0  0  0  0  0  0
    2.2575    6.1554   -6.5710 S   0  0  0  0  0  0  0  0  0  0  0  0
    3.6408    6.2598   -5.3968 C   0  0  0  0  0  0  0  0  0  0  0  0
    0.4910    5.5030   -4.5413 C   0  0  0  0  0  0  0  0  0  0  0  0
   -0.1516    4.6184   -3.6751 C   0  0  0  0  0  0  0  0  0  0  0  0
   -1.1492    1.1212   -3.3704 C   0  0  0  0  0  0  0  0  0  0  0  0
   -2.2433    1.2196   -4.2437 C   0  0  0  0  0  0  0  0  0  0  0  0
   -2.8211    0.0677   -4.7800 C   0  0  0  0  0  0  0  0  0  0  0  0
   -2.2979   -1.1897   -4.4587 C   0  0  0  0  0  0  0  0  0  0  0  0
   -3.0790   -2.6702   -5.0820 S   0  0  0  0  0  0  0  0  0  0  0  0
   -4.3421   -2.6981   -3.7708 C   0  0  0  0  0  0  0  0  0  0  0  0
   -1.1863   -1.2890   -3.6107 C   0  0  0  0  0  0  0  0  0  0  0  0
   -0.6109   -0.1359   -3.0676 C   0  0  0  0  0  0  0  0  0  0  0  0
   -2.1151    2.7276   -0.9427 C   0  0  0  0  0  0  0  0  0  0  0  0
   -3.2454    1.5019   -0.8891 S   0  0  0  0  0  0  0  0  0  0  0  0
    1.4793    3.0551   -0.5438 C   0  0  0  0  0  0  0  0  0  0  0  0
    2.4926    2.9369   -1.5076 C   0  0  0  0  0  0  0  0  0  0  0  0
    3.6634    2.3261   -1.0016 C   0  0  0  0  0  0  0  0  0  0  0  0
    4.8741    2.0866   -1.6979 C   0  0  0  0  0  0  0  0  0  0  0  0
    5.0068    2.3216   -3.1491 C   0  0  0  0  0  0  0  0  0  0  0  0
    4.2518    1.6793   -4.1247 C   0  0  0  0  0  0  0  0  0  0  0  0
    4.7244    1.8928   -5.4268 C   0  0  0  0  0  0  0  0  0  0  0  0
    4.0158    1.1028   -6.8249 Cl  0  0  0  0  0  0  0  0  0  0  0  0
    5.8472    2.7103   -5.4797 C   0  0  0  0  0  0  0  0  0  0  0  0
    6.6123    3.0962   -6.7129 C   0  0  0  0  0  0  0  0  0  0  0  0
    5.9525    4.2796   -7.4148 C   0  0  0  0  0  0  0  0  0  0  0  0
    6.2591    3.1586   -3.9089 S   0  0  0  0  0  0  0  0  0  0  0  0
    5.9350    1.5236   -0.9528 C   0  0  0  0  0  0  0  0  0  0  0  0
    5.7856    1.1317    0.3831 C   0  0  0  0  0  0  0  0  0  0  0  0
    4.5592    1.2875    1.0452 C   0  0  0  0  0  0  0  0  0  0  0  0
    4.3242    0.6860    2.3742 C   0  0  0  0  0  0  0  0  0  0  0  0
    3.7069    1.4753    3.7236 S   0  0  0  0  0  0  0  0  0  0  0  0
    3.6476    0.1160    4.7192 C   0  0  0  0  0  0  0  0  0  0  0  0
    3.2050    0.1155    6.1485 C   0  0  0  0  0  0  0  0  0  0  0  0
    4.3865    0.3716    7.0814 C   0  0  0  0  0  0  0  0  0  0  0  0
    4.1438   -0.9735    4.0056 C   0  0  0  0  0  0  0  0  0  0  0  0
    4.5137   -0.6588    2.6960 C   0  0  0  0  0  0  0  0  0  0  0  0
    4.2852   -2.5953    4.6663 Cl  0  0  0  0  0  0  0  0  0  0  0  0
    3.5418    1.9442    0.3387 C   0  0  0  0  0  0  0  0  0  0  0  0
    2.0221    2.3564    0.8886 S   0  0  0  0  0  0  0  0  0  0  0  0
    6.9646    0.6574    0.9649 C   0  0  0  0  0  0  0  0  0  0  0  0
    8.0433    0.6495    0.0933 C   0  0  0  0  0  0  0  0  0  0  0  0
    7.5414    1.2533   -1.4064 S   0  0  0  0  0  0  0  0  0  0  0  0
    9.4236    0.5202    0.5631 C   0  0  0  0  0  0  0  0  0  0  0  0
   10.2257   -0.5161    0.2730 C   0  0  0  0  0  0  0  0  0  0  0  0
   10.0306   -1.4805   -0.8118 C   0  0  0  0  0  0  0  0  0  0  0  0
    8.9814   -1.6430   -1.4903 O   0  0  0  0  0  0  0  0  0  0  0  0
   11.2824   -2.1851   -1.0246 C   0  0  0  0  0  0  0  0  0  0  0  0
   11.5879   -3.1081   -2.0564 C   0  0  0  0  0  0  0  0  0  0  0  0
   12.9032   -3.5308   -2.0601 C   0  0  0  0  0  0  0  0  0  0  0  0
   13.8778   -3.0714   -1.1082 C   0  0  0  0  0  0  0  0  0  0  0  0
   13.5919   -2.1686   -0.1045 C   0  0  0  0  0  0  0  0  0  0  0  0
   12.2335   -1.7369   -0.0690 C   0  0  0  0  0  0  0  0  0  0  0  0
   11.5761   -0.7793    0.8569 C   0  0  0  0  0  0  0  0  0  0  0  0
   11.9840   -0.4625    2.1134 C   0  0  0  0  0  0  0  0  0  0  0  0
   11.1104    0.1765    3.0732 C   0  0  0  0  0  0  0  0  0  0  0  0
   10.4093    0.6861    3.8404 N   0  0  0  0  0  0  0  0  0  0  0  0
   13.2469   -0.8977    2.6532 C   0  0  0  0  0  0  0  0  0  0  0  0
   14.2564   -1.2483    3.1014 N   0  0  0  0  0  0  0  0  0  0  0  0
   14.9428   -3.8753   -1.7808 C   0  0  0  0  0  0  0  0  0  0  0  0
   15.9616   -3.0818   -2.6515 C   0  0  0  0  0  0  0  0  0  0  0  0
   16.6576   -4.1087   -3.5125 C   0  0  0  0  0  0  0  0  0  0  0  0
   15.7533   -4.5401   -4.3953 C   0  0  0  0  0  0  0  0  0  0  0  0
   14.4776   -3.7849   -4.1075 C   0  0  0  0  0  0  0  0  0  0  0  0
   15.0813   -2.4472   -3.7144 C   0  0  0  0  0  0  0  0  0  0  0  0
   13.9488   -4.3453   -2.7558 C   0  0  0  0  0  0  0  0  0  0  0  0
   -5.3444   -5.3741    3.2436 H   0  0  0  0  0  0  0  0  0  0  0  0
   -2.1152   -3.4391   -1.7771 H   0  0  0  0  0  0  0  0  0  0  0  0
   -2.5472   -8.4173   -0.7616 H   0  0  0  0  0  0  0  0  0  0  0  0
   -2.0903   -7.8041   -4.1202 H   0  0  0  0  0  0  0  0  0  0  0  0
    0.2650   -8.7739   -3.6373 H   0  0  0  0  0  0  0  0  0  0  0  0
    1.4361   -7.4502   -1.6432 H   0  0  0  0  0  0  0  0  0  0  0  0
    1.5237   -4.9278   -2.2888 H   0  0  0  0  0  0  0  0  0  0  0  0
    0.4072   -4.6380   -4.6819 H   0  0  0  0  0  0  0  0  0  0  0  0
    1.6406   -6.9599   -4.9692 H   0  0  0  0  0  0  0  0  0  0  0  0
   -0.0358   -7.0785   -5.6828 H   0  0  0  0  0  0  0  0  0  0  0  0
   -2.0152   -5.5096   -4.6368 H   0  0  0  0  0  0  0  0  0  0  0  0
   -8.8960   -1.6572    0.8713 H   0  0  0  0  0  0  0  0  0  0  0  0
  -10.0742   -0.5929   -1.0212 H   0  0  0  0  0  0  0  0  0  0  0  0
   -7.6143    0.5446   -4.0038 H   0  0  0  0  0  0  0  0  0  0  0  0
   -9.0351    1.4841   -4.6098 H   0  0  0  0  0  0  0  0  0  0  0  0
   -8.8021    1.2731   -2.8362 H   0  0  0  0  0  0  0  0  0  0  0  0
   -7.4690   -2.6182   -3.7828 H   0  0  0  0  0  0  0  0  0  0  0  0
   -6.2919   -3.6847   -1.8796 H   0  0  0  0  0  0  0  0  0  0  0  0
   -6.2841   -5.7695   -0.3689 H   0  0  0  0  0  0  0  0  0  0  0  0
   -7.2086   -7.9478    0.3490 H   0  0  0  0  0  0  0  0  0  0  0  0
   -7.8803   -9.8968    4.1994 H   0  0  0  0  0  0  0  0  0  0  0  0
   -7.7147   -8.1125    4.4247 H   0  0  0  0  0  0  0  0  0  0  0  0
   -6.7416   -8.9668    3.1517 H   0  0  0  0  0  0  0  0  0  0  0  0
   -9.5314   -5.9601    3.3845 H   0  0  0  0  0  0  0  0  0  0  0  0
   -8.5909   -3.7907    2.6808 H   0  0  0  0  0  0  0  0  0  0  0  0
   -6.8400    1.4187    3.7878 H   0  0  0  0  0  0  0  0  0  0  0  0
   -8.3266    1.0740    5.7174 H   0  0  0  0  0  0  0  0  0  0  0  0
   -6.8992    2.5910    8.9289 H   0  0  0  0  0  0  0  0  0  0  0  0
   -8.3112    2.1964    9.9800 H   0  0  0  0  0  0  0  0  0  0  0  0
   -8.5841    2.6407    8.2510 H   0  0  0  0  0  0  0  0  0  0  0  0
   -4.9215    0.2540    8.2078 H   0  0  0  0  0  0  0  0  0  0  0  0
   -3.4232    0.5695    6.2829 H   0  0  0  0  0  0  0  0  0  0  0  0
   -1.7993    0.6062    2.4971 H   0  0  0  0  0  0  0  0  0  0  0  0
    0.4348    1.4533    3.0971 H   0  0  0  0  0  0  0  0  0  0  0  0
    0.4991    5.5919    4.1476 H   0  0  0  0  0  0  0  0  0  0  0  0
    2.2671    5.3760    3.8550 H   0  0  0  0  0  0  0  0  0  0  0  0
    1.0785    4.4957    2.8215 H   0  0  0  0  0  0  0  0  0  0  0  0
   -1.3236    4.1243    5.9681 H   0  0  0  0  0  0  0  0  0  0  0  0
   -3.5439    3.2775    5.4069 H   0  0  0  0  0  0  0  0  0  0  0  0
   -4.9834    4.7276    4.3194 H   0  0  0  0  0  0  0  0  0  0  0  0
   -7.3216    4.6182    5.0820 H   0  0  0  0  0  0  0  0  0  0  0  0
   -9.3615    6.3453    3.7159 H   0  0  0  0  0  0  0  0  0  0  0  0
  -11.1216    5.9679    3.5774 H   0  0  0  0  0  0  0  0  0  0  0  0
  -10.0456    5.7803    2.1363 H   0  0  0  0  0  0  0  0  0  0  0  0
   -8.5471    3.3790    1.1499 H   0  0  0  0  0  0  0  0  0  0  0  0
   -6.2252    3.5397    0.3692 H   0  0  0  0  0  0  0  0  0  0  0  0
   -4.9779    6.3311    0.5266 H   0  0  0  0  0  0  0  0  0  0  0  0
   -4.0846    8.6334    0.6017 H   0  0  0  0  0  0  0  0  0  0  0  0
   -1.2578    9.4128   -0.2930 H   0  0  0  0  0  0  0  0  0  0  0  0
   -0.1244    8.5581    0.8360 H   0  0  0  0  0  0  0  0  0  0  0  0
    0.0302   10.3320    0.5873 H   0  0  0  0  0  0  0  0  0  0  0  0
   -1.0810    7.3803    3.4165 H   0  0  0  0  0  0  0  0  0  0  0  0
   -1.9475    5.0750    3.3131 H   0  0  0  0  0  0  0  0  0  0  0  0
    1.0376    1.6842   -4.9503 H   0  0  0  0  0  0  0  0  0  0  0  0
    2.1496    3.2570   -6.4845 H   0  0  0  0  0  0  0  0  0  0  0  0
    4.4242    6.9280   -5.8132 H   0  0  0  0  0  0  0  0  0  0  0  0
    3.2928    6.6724   -4.4277 H   0  0  0  0  0  0  0  0  0  0  0  0
    4.0740    5.2513   -5.2318 H   0  0  0  0  0  0  0  0  0  0  0  0
    0.3444    6.5662   -4.4248 H   0  0  0  0  0  0  0  0  0  0  0  0
   -0.8013    5.0183   -2.9076 H   0  0  0  0  0  0  0  0  0  0  0  0
   -2.6525    2.1905   -4.4895 H   0  0  0  0  0  0  0  0  0  0  0  0
   -3.6767    0.1546   -5.4414 H   0  0  0  0  0  0  0  0  0  0  0  0
   -5.1353   -1.9535   -3.9876 H   0  0  0  0  0  0  0  0  0  0  0  0
   -4.7627   -3.7188   -3.7090 H   0  0  0  0  0  0  0  0  0  0  0  0
   -3.9101   -2.4375   -2.7859 H   0  0  0  0  0  0  0  0  0  0  0  0
   -0.7688   -2.2630   -3.3749 H   0  0  0  0  0  0  0  0  0  0  0  0
    0.2562   -0.2214   -2.4250 H   0  0  0  0  0  0  0  0  0  0  0  0
    2.4072    3.3028   -2.5183 H   0  0  0  0  0  0  0  0  0  0  0  0
    3.4237    1.0187   -3.8952 H   0  0  0  0  0  0  0  0  0  0  0  0
    7.6544    3.3676   -6.4375 H   0  0  0  0  0  0  0  0  0  0  0  0
    6.6540    2.2274   -7.4051 H   0  0  0  0  0  0  0  0  0  0  0  0
    4.8871    4.0534   -7.6450 H   0  0  0  0  0  0  0  0  0  0  0  0
    6.0089    5.1794   -6.7717 H   0  0  0  0  0  0  0  0  0  0  0  0
    6.4862    4.4850   -8.3653 H   0  0  0  0  0  0  0  0  0  0  0  0
    2.7335   -0.8561    6.4065 H   0  0  0  0  0  0  0  0  0  0  0  0
    2.4356    0.9068    6.2975 H   0  0  0  0  0  0  0  0  0  0  0  0
    4.8459    1.3581    6.8516 H   0  0  0  0  0  0  0  0  0  0  0  0
    5.1495   -0.4250    6.9571 H   0  0  0  0  0  0  0  0  0  0  0  0
    4.0351    0.3728    8.1337 H   0  0  0  0  0  0  0  0  0  0  0  0
    4.8943   -1.3882    1.9911 H   0  0  0  0  0  0  0  0  0  0  0  0
    7.0533    0.3887    2.0121 H   0  0  0  0  0  0  0  0  0  0  0  0
    9.7448    1.2696    1.2729 H   0  0  0  0  0  0  0  0  0  0  0  0
   10.8646   -3.4293   -2.7939 H   0  0  0  0  0  0  0  0  0  0  0  0
   14.3701   -1.7919    0.5382 H   0  0  0  0  0  0  0  0  0  0  0  0
   15.3729   -4.6723   -1.1352 H   0  0  0  0  0  0  0  0  0  0  0  0
   16.6333   -2.3920   -2.0949 H   0  0  0  0  0  0  0  0  0  0  0  0
   17.7118   -4.3693   -3.4928 H   0  0  0  0  0  0  0  0  0  0  0  0
   15.9373   -5.2249   -5.2134 H   0  0  0  0  0  0  0  0  0  0  0  0
   13.7460   -3.7625   -4.9404 H   0  0  0  0  0  0  0  0  0  0  0  0
   14.3521   -1.7103   -3.3164 H   0  0  0  0  0  0  0  0  0  0  0  0
   15.6671   -1.9669   -4.5364 H   0  0  0  0  0  0  0  0  0  0  0  0
   13.7533   -5.4381   -2.7250 H   0  0  0  0  0  0  0  0  0  0  0  0
  1  2  2  3
  2  3  1  0
  3  4  2  0
  3  5  1  0
  5  6  2  0
  6  7  1  0
  7  8  2  0
  8  9  1  0
  9 10  2  0
 10 11  1  0
 11 12  2  3
 12 13  1  0
 13 14  3  0
 12 15  1  0
 15 16  3  0
  8 17  1  0
 17 18  1  0
 18 19  1  0
 19 20  2  0
 20 21  1  0
 21 22  1  0
 21 23  1  0
  1 24  1  0
 24 25  2  0
 25 26  1  0
 26 27  1  0
 27 28  2  0
 28 29  1  0
 29 30  2  0
 30 31  1  0
 31 32  1  0
 30 33  1  0
 33 34  2  0
 26 35  1  0
 35 36  2  0
 36 37  1  0
 37 38  2  0
 38 39  1  0
 39 40  1  0
 38 41  1  0
 41 42  2  0
 25 43  1  0
 43 44  1  0
 44 45  1  0
 45 46  2  0
 46 47  1  0
 47 48  1  0
 48 49  2  0
 49 50  1  0
 50 51  2  0
 51 52  1  0
 52 53  1  0
 51 54  1  0
 54 55  2  0
 47 56  1  0
 56 57  2  0
 57 58  1  0
 58 59  2  0
 59 60  1  0
 60 61  1  0
 59 62  1  0
 62 63  2  0
 46 64  1  0
 64 65  1  0
 45 66  1  0
 66 67  2  0
 67 68  1  0
 68 69  1  0
 69 70  2  0
 70 71  1  0
 71 72  2  0
 72 73  1  0
 73 74  1  0
 72 75  1  0
 75 76  2  0
 68 77  1  0
 77 78  2  0
 78 79  1  0
 79 80  2  0
 80 81  1  0
 81 82  1  0
 80 83  1  0
 83 84  2  0
 67 85  1  0
 85 86  1  0
 86 87  1  0
 87 88  2  0
 88 89  1  0
 89 90  1  0
 90 91  2  0
 91 92  1  0
 92 93  2  0
 93 94  1  0
 94 95  1  0
 93 96  1  0
 96 97  2  0
 89 98  1  0
 98 99  2  0
 99100  1  0
100101  2  0
101102  1  0
102103  1  0
101104  1  0
104105  2  0
 88106  1  0
106107  1  0
 87108  1  0
108109  2  0
109110  1  0
110111  2  0
111112  1  0
112113  2  0
113114  1  0
114115  1  0
114116  2  0
116117  1  0
117118  1  0
116119  1  0
111120  1  0
120121  2  0
121122  1  0
122123  1  0
123124  1  0
124125  1  0
125126  1  0
126127  1  0
125128  2  0
128129  1  0
128130  1  0
122131  2  0
131132  1  0
121133  1  0
133134  2  0
134135  1  0
134136  1  0
136137  2  3
137138  1  0
138139  2  0
138140  1  0
140141  2  0
141142  1  0
142143  2  0
143144  1  0
144145  2  0
145146  1  0
146147  2  3
147148  1  0
148149  3  0
147150  1  0
150151  3  0
143152  1  0
152153  1  0
153154  1  0
154155  2  0
155156  1  0
156157  1  0
156158  1  0
 11  2  1  0
 23 17  1  0
 65 24  1  0
107 66  1  0
132108  1  0
146137  1  0
158152  1  0
 10  5  1  0
 22 18  1  0
 34 27  1  0
 42 35  1  0
 64 43  2  0
 76 69  1  0
 84 77  1  0
106 85  2  0
131110  1  0
145140  1  0
157153  1  0
 23  7  1  0
 55 48  1  0
 63 56  1  0
 97 90  1  0
105 98  1  0
119112  1  0
135120  1  0
158142  1  0
129123  2  0
  1159  1  0
  6160  1  0
  9161  1  0
 17162  1  0
 18163  1  0
 19164  1  0
 20165  1  0
 21166  1  0
 22167  1  0
 22168  1  0
 23169  1  0
 28170  1  0
 29171  1  0
 32172  1  0
 32173  1  0
 32174  1  0
 33175  1  0
 34176  1  0
 36177  1  0
 37178  1  0
 40179  1  0
 40180  1  0
 40181  1  0
 41182  1  0
 42183  1  0
 49184  1  0
 50185  1  0
 53186  1  0
 53187  1  0
 53188  1  0
 54189  1  0
 55190  1  0
 57191  1  0
 58192  1  0
 61193  1  0
 61194  1  0
 61195  1  0
 62196  1  0
 63197  1  0
 70198  1  0
 71199  1  0
 74200  1  0
 74201  1  0
 74202  1  0
 75203  1  0
 76204  1  0
 78205  1  0
 79206  1  0
 82207  1  0
 82208  1  0
 82209  1  0
 83210  1  0
 84211  1  0
 91212  1  0
 92213  1  0
 95214  1  0
 95215  1  0
 95216  1  0
 96217  1  0
 97218  1  0
 99219  1  0
100220  1  0
103221  1  0
103222  1  0
103223  1  0
104224  1  0
105225  1  0
109226  1  0
113227  1  0
117228  1  0
117229  1  0
118230  1  0
118231  1  0
118232  1  0
126233  1  0
126234  1  0
127235  1  0
127236  1  0
127237  1  0
129238  1  0
133239  1  0
136240  1  0
141241  1  0
144242  1  0
152243  1  0
153244  1  0
154245  1  0
155246  1  0
156247  1  0
157248  1  0
157249  1  0
158250  1  0
M  END

