
     RDKit          3D

153171  0  0  0  0  0  0  0  0999 V2000
    4.2047   -2.9977   -5.3225 C   0  0  0  0  0  0  0  0  0  0  0  0
    4.6065   -2.0021   -6.1323 C   0  0  0  0  0  0  0  0  0  0  0  0
    4.7492   -2.1761   -7.5808 C   0  0  0  0  0  0  0  0  0  0  0  0
    4.8487   -3.2747   -8.1909 O   0  0  0  0  0  0  0  0  0  0  0  0
    4.6659   -0.8728   -8.2138 C   0  0  0  0  0  0  0  0  0  0  0  0
    4.6998   -0.5744   -9.5976 C   0  0  0  0  0  0  0  0  0  0  0  0
    4.5766    0.7736   -9.8836 C   0  0  0  0  0  0  0  0  0  0  0  0
    4.4086    1.7732   -8.8688 C   0  0  0  0  0  0  0  0  0  0  0  0
    4.3522    1.4860   -7.5168 C   0  0  0  0  0  0  0  0  0  0  0  0
    4.5313    0.1118   -7.2024 C   0  0  0  0  0  0  0  0  0  0  0  0
    4.6569   -0.5305   -5.8674 C   0  0  0  0  0  0  0  0  0  0  0  0
    5.2421    0.0642   -4.7962 C   0  0  0  0  0  0  0  0  0  0  0  0
    5.8036   -0.6765   -3.7010 C   0  0  0  0  0  0  0  0  0  0  0  0
    6.2914   -1.2296   -2.8117 N   0  0  0  0  0  0  0  0  0  0  0  0
    5.6614    1.4426   -4.8190 C   0  0  0  0  0  0  0  0  0  0  0  0
    6.0401    2.5329   -4.8410 N   0  0  0  0  0  0  0  0  0  0  0  0
    4.3740    2.8504   -9.9092 C   0  0  0  0  0  0  0  0  0  0  0  0
    2.9807    3.4656  -10.2236 C   0  0  0  0  0  0  0  0  0  0  0  0
    3.1452    4.2096  -11.5271 C   0  0  0  0  0  0  0  0  0  0  0  0
    3.2978    3.2781  -12.4775 C   0  0  0  0  0  0  0  0  0  0  0  0
    3.2324    1.9387  -11.7834 C   0  0  0  0  0  0  0  0  0  0  0  0
    2.1874    2.2755  -10.7350 C   0  0  0  0  0  0  0  0  0  0  0  0
    4.5419    1.8278  -10.9476 C   0  0  0  0  0  0  0  0  0  0  0  0
    3.4702   -2.7688   -4.0682 C   0  0  0  0  0  0  0  0  0  0  0  0
    2.1744   -2.2406   -4.0849 C   0  0  0  0  0  0  0  0  0  0  0  0
    1.4505   -2.0249   -2.8841 C   0  0  0  0  0  0  0  0  0  0  0  0
    0.0685   -1.7014   -3.0884 N   0  0  0  0  0  0  0  0  0  0  0  0
   -0.0040   -1.6675   -4.6811 S   0  0  0  0  0  4  0  0  0  0  0  0
    1.4251   -2.0212   -5.2883 N   0  0  0  0  0  0  0  0  0  0  0  0
    2.0495   -2.2100   -1.6187 C   0  0  0  0  0  0  0  0  0  0  0  0
    3.3051   -2.8695   -1.6119 C   0  0  0  0  0  0  0  0  0  0  0  0
    3.9445   -3.2505   -0.4758 N   0  0  0  0  0  0  0  0  0  0  0  0
    5.2780   -4.0004   -1.0919 S   0  0  0  0  0  0  0  0  0  0  0  0
    5.1521   -3.8741   -2.7295 N   0  0  0  0  0  0  0  0  0  0  0  0
    3.9800   -3.1945   -2.8363 C   0  0  0  0  0  0  0  0  0  0  0  0
    1.4188   -1.7077   -0.3530 C   0  0  0  0  0  0  0  0  0  0  0  0
    0.5881   -0.5685   -0.1819 C   0  0  0  0  0  0  0  0  0  0  0  0
    0.0346    0.2670   -1.2168 N   0  0  0  0  0  0  0  0  0  0  0  0
   -1.4040    0.4280   -1.2088 C   0  0  0  0  0  0  0  0  0  0  0  0
   -1.9846    1.7122   -1.2175 C   0  0  0  0  0  0  0  0  0  0  0  0
   -3.3672    1.8613   -1.0535 C   0  0  0  0  0  0  0  0  0  0  0  0
   -4.1799    0.7390   -0.8590 C   0  0  0  0  0  0  0  0  0  0  0  0
   -5.9408    0.9356   -0.5685 S   0  0  0  0  0  0  0  0  0  0  0  0
   -6.3911    0.5630   -2.2914 C   0  0  0  0  0  0  0  0  0  0  0  0
   -3.6105   -0.5372   -0.8493 C   0  0  0  0  0  0  0  0  0  0  0  0
   -2.2366   -0.6937   -1.0279 C   0  0  0  0  0  0  0  0  0  0  0  0
    0.8805    1.1088   -2.0361 C   0  0  0  0  0  0  0  0  0  0  0  0
    0.4185    1.5815   -3.2807 C   0  0  0  0  0  0  0  0  0  0  0  0
    1.1759    2.4901   -4.0254 C   0  0  0  0  0  0  0  0  0  0  0  0
    2.4094    2.9331   -3.5442 C   0  0  0  0  0  0  0  0  0  0  0  0
    3.3093    4.1934   -4.4443 S   0  0  0  0  0  0  0  0  0  0  0  0
    2.6915    5.5556   -3.4074 C   0  0  0  0  0  0  0  0  0  0  0  0
    2.9113    2.4213   -2.3424 C   0  0  0  0  0  0  0  0  0  0  0  0
    2.1536    1.5202   -1.5899 C   0  0  0  0  0  0  0  0  0  0  0  0
    0.3028   -0.3401    1.1584 C   0  0  0  0  0  0  0  0  0  0  0  0
   -0.4853    0.9034    1.9572 S   0  0  0  0  0  0  0  0  0  0  0  0
   -0.1115    0.3062    3.5075 C   0  0  0  0  0  0  0  0  0  0  0  0
    0.6185   -0.8931    3.3852 C   0  0  0  0  0  0  0  0  0  0  0  0
    1.2967   -1.5449    4.4690 N   0  0  0  0  0  0  0  0  0  0  0  0
    2.3267   -0.7932    5.1289 C   0  0  0  0  0  0  0  0  0  0  0  0
    3.4475   -0.3602    4.4031 C   0  0  0  0  0  0  0  0  0  0  0  0
    4.4759    0.3350    5.0435 C   0  0  0  0  0  0  0  0  0  0  0  0
    4.3783    0.6229    6.4108 C   0  0  0  0  0  0  0  0  0  0  0  0
    5.7113    1.4917    7.2418 S   0  0  0  0  0  0  0  0  0  0  0  0
    5.1285    3.1425    6.7368 C   0  0  0  0  0  0  0  0  0  0  0  0
    3.2496    0.2144    7.1326 C   0  0  0  0  0  0  0  0  0  0  0  0
    2.2282   -0.4998    6.4954 C   0  0  0  0  0  0  0  0  0  0  0  0
    1.1674   -2.9704    4.6838 C   0  0  0  0  0  0  0  0  0  0  0  0
    2.2035   -3.7115    5.2909 C   0  0  0  0  0  0  0  0  0  0  0  0
    2.0688   -5.0882    5.4907 C   0  0  0  0  0  0  0  0  0  0  0  0
    0.9038   -5.7499    5.0911 C   0  0  0  0  0  0  0  0  0  0  0  0
    0.7275   -7.5145    5.3784 S   0  0  0  0  0  0  0  0  0  0  0  0
    1.4964   -7.9808    3.7932 C   0  0  0  0  0  0  0  0  0  0  0  0
   -0.1295   -5.0299    4.4833 C   0  0  0  0  0  0  0  0  0  0  0  0
   -0.0013   -3.6528    4.2795 C   0  0  0  0  0  0  0  0  0  0  0  0
    0.8301   -1.2088    2.0433 C   0  0  0  0  0  0  0  0  0  0  0  0
    1.7344   -2.3452    1.2129 S   0  0  0  0  0  0  0  0  0  0  0  0
   -0.6309    0.9319    4.7351 C   0  0  0  0  0  0  0  0  0  0  0  0
   -1.5363    0.2445    5.5567 C   0  0  0  0  0  0  0  0  0  0  0  0
   -2.3631    0.9359    6.4776 C   0  0  0  0  0  0  0  0  0  0  0  0
   -3.2954    0.1079    7.1824 N   0  0  0  0  0  0  0  0  0  0  0  0
   -2.9615   -1.3165    6.5402 S   0  0  0  0  0  4  0  0  0  0  0  0
   -1.7946   -1.1604    5.4685 N   0  0  0  0  0  0  0  0  0  0  0  0
   -2.3161    2.3384    6.5810 C   0  0  0  0  0  0  0  0  0  0  0  0
   -1.3025    3.0125    5.8793 C   0  0  0  0  0  0  0  0  0  0  0  0
   -1.1218    4.3563    5.9621 N   0  0  0  0  0  0  0  0  0  0  0  0
    0.0967    4.5667    4.8684 S   0  0  0  0  0  0  0  0  0  0  0  0
    0.4218    3.0649    4.2527 N   0  0  0  0  0  0  0  0  0  0  0  0
   -0.4727    2.3143    4.9469 C   0  0  0  0  0  0  0  0  0  0  0  0
   -3.3458    3.0970    7.3241 C   0  0  0  0  0  0  0  0  0  0  0  0
   -4.6741    2.9556    7.1317 C   0  0  0  0  0  0  0  0  0  0  0  0
   -5.6580    3.3444    8.1311 C   0  0  0  0  0  0  0  0  0  0  0  0
   -5.4855    4.1955    9.0403 O   0  0  0  0  0  0  0  0  0  0  0  0
   -6.8569    2.5607    7.9167 C   0  0  0  0  0  0  0  0  0  0  0  0
   -8.0035    2.5532    8.7080 C   0  0  0  0  0  0  0  0  0  0  0  0
   -9.0485    1.6981    8.3545 C   0  0  0  0  0  0  0  0  0  0  0  0
   -8.9329    0.8642    7.2338 C   0  0  0  0  0  0  0  0  0  0  0  0
   -7.7662    0.8727    6.4322 C   0  0  0  0  0  0  0  0  0  0  0  0
   -7.6537    0.0358    5.3165 O   0  0  0  0  0  0  0  0  0  0  0  0
   -8.6387   -0.9059    4.8997 C   0  0  0  0  0  0  0  0  0  0  0  0
   -6.7083    1.7437    6.7985 C   0  0  0  0  0  0  0  0  0  0  0  0
   -5.3761    2.0516    6.1730 C   0  0  0  0  0  0  0  0  0  0  0  0
   -5.0061    1.8739    4.8768 C   0  0  0  0  0  0  0  0  0  0  0  0
   -4.1562    2.8281    4.2100 C   0  0  0  0  0  0  0  0  0  0  0  0
   -3.4816    3.5925    3.6645 N   0  0  0  0  0  0  0  0  0  0  0  0
   -5.3723    0.7304    4.0909 C   0  0  0  0  0  0  0  0  0  0  0  0
   -5.6302   -0.2025    3.4504 N   0  0  0  0  0  0  0  0  0  0  0  0
    4.2217   -4.0141   -5.6944 H   0  0  0  0  0  0  0  0  0  0  0  0
    4.8167   -1.3276  -10.3701 H   0  0  0  0  0  0  0  0  0  0  0  0
    4.1862    2.2601   -6.7854 H   0  0  0  0  0  0  0  0  0  0  0  0
    5.2168    3.5733   -9.8302 H   0  0  0  0  0  0  0  0  0  0  0  0
    2.5124    4.0468   -9.4018 H   0  0  0  0  0  0  0  0  0  0  0  0
    3.0711    5.2787  -11.6885 H   0  0  0  0  0  0  0  0  0  0  0  0
    3.3722    3.4668  -13.5423 H   0  0  0  0  0  0  0  0  0  0  0  0
    3.0046    1.0734  -12.4413 H   0  0  0  0  0  0  0  0  0  0  0  0
    2.0260    1.4775   -9.9791 H   0  0  0  0  0  0  0  0  0  0  0  0
    1.1964    2.5524  -11.1725 H   0  0  0  0  0  0  0  0  0  0  0  0
    5.4942    1.9074  -11.5195 H   0  0  0  0  0  0  0  0  0  0  0  0
   -1.3617    2.5959   -1.2991 H   0  0  0  0  0  0  0  0  0  0  0  0
   -3.7974    2.8566   -1.0404 H   0  0  0  0  0  0  0  0  0  0  0  0
   -5.8946    1.2756   -2.9846 H   0  0  0  0  0  0  0  0  0  0  0  0
   -7.4908    0.6563   -2.4040 H   0  0  0  0  0  0  0  0  0  0  0  0
   -6.0942   -0.4750   -2.5469 H   0  0  0  0  0  0  0  0  0  0  0  0
   -4.2313   -1.4061   -0.6840 H   0  0  0  0  0  0  0  0  0  0  0  0
   -1.8135   -1.6882   -0.9919 H   0  0  0  0  0  0  0  0  0  0  0  0
   -0.5384    1.2589   -3.6697 H   0  0  0  0  0  0  0  0  0  0  0  0
    0.7904    2.8640   -4.9663 H   0  0  0  0  0  0  0  0  0  0  0  0
    1.5809    5.5644   -3.4012 H   0  0  0  0  0  0  0  0  0  0  0  0
    3.0731    5.4415   -2.3720 H   0  0  0  0  0  0  0  0  0  0  0  0
    3.0560    6.5210   -3.8154 H   0  0  0  0  0  0  0  0  0  0  0  0
    3.8730    2.7575   -1.9698 H   0  0  0  0  0  0  0  0  0  0  0  0
    2.5434    1.1761   -0.6417 H   0  0  0  0  0  0  0  0  0  0  0  0
    3.5344   -0.5830    3.3476 H   0  0  0  0  0  0  0  0  0  0  0  0
    5.3469    0.6450    4.4782 H   0  0  0  0  0  0  0  0  0  0  0  0
    4.0687    3.2871    7.0345 H   0  0  0  0  0  0  0  0  0  0  0  0
    5.7478    3.9120    7.2401 H   0  0  0  0  0  0  0  0  0  0  0  0
    5.2321    3.2563    5.6378 H   0  0  0  0  0  0  0  0  0  0  0  0
    3.1686    0.4353    8.1892 H   0  0  0  0  0  0  0  0  0  0  0  0
    1.3638   -0.8244    7.0581 H   0  0  0  0  0  0  0  0  0  0  0  0
    3.1219   -3.2298    5.6015 H   0  0  0  0  0  0  0  0  0  0  0  0
    2.8753   -5.6415    5.9572 H   0  0  0  0  0  0  0  0  0  0  0  0
    0.8775   -7.6044    2.9482 H   0  0  0  0  0  0  0  0  0  0  0  0
    1.5583   -9.0861    3.7443 H   0  0  0  0  0  0  0  0  0  0  0  0
    2.5226   -7.5603    3.7286 H   0  0  0  0  0  0  0  0  0  0  0  0
   -1.0351   -5.5366    4.1777 H   0  0  0  0  0  0  0  0  0  0  0  0
   -0.8206   -3.1184    3.8098 H   0  0  0  0  0  0  0  0  0  0  0  0
   -2.9996    3.7647    8.1045 H   0  0  0  0  0  0  0  0  0  0  0  0
   -8.0863    3.1936    9.5772 H   0  0  0  0  0  0  0  0  0  0  0  0
   -9.9525    1.6822    8.9482 H   0  0  0  0  0  0  0  0  0  0  0  0
   -9.7606    0.2104    6.9983 H   0  0  0  0  0  0  0  0  0  0  0  0
   -8.2887   -1.3921    3.9637 H   0  0  0  0  0  0  0  0  0  0  0  0
   -9.6013   -0.3904    4.6881 H   0  0  0  0  0  0  0  0  0  0  0  0
   -8.7773   -1.6898    5.6744 H   0  0  0  0  0  0  0  0  0  0  0  0
  1  2  2  3
  2  3  1  0
  3  4  2  0
  3  5  1  0
  5  6  2  0
  6  7  1  0
  7  8  2  0
  8  9  1  0
  9 10  2  0
 10 11  1  0
 11 12  2  3
 12 13  1  0
 13 14  3  0
 12 15  1  0
 15 16  3  0
  8 17  1  0
 17 18  1  0
 18 19  1  0
 19 20  2  0
 20 21  1  0
 21 22  1  0
 21 23  1  0
  1 24  1  0
 24 25  2  0
 25 26  1  0
 26 27  1  0
 27 28  2  0
 28 29  2  0
 26 30  2  0
 30 31  1  0
 31 32  2  0
 32 33  1  0
 33 34  1  0
 34 35  2  0
 30 36  1  0
 36 37  2  0
 37 38  1  0
 38 39  1  0
 39 40  2  0
 40 41  1  0
 41 42  2  0
 42 43  1  0
 43 44  1  0
 42 45  1  0
 45 46  2  0
 38 47  1  0
 47 48  2  0
 48 49  1  0
 49 50  2  0
 50 51  1  0
 51 52  1  0
 50 53  1  0
 53 54  2  0
 37 55  1  0
 55 56  1  0
 56 57  1  0
 57 58  2  0
 58 59  1  0
 59 60  1  0
 60 61  2  0
 61 62  1  0
 62 63  2  0
 63 64  1  0
 64 65  1  0
 63 66  1  0
 66 67  2  0
 59 68  1  0
 68 69  2  0
 69 70  1  0
 70 71  2  0
 71 72  1  0
 72 73  1  0
 71 74  1  0
 74 75  2  0
 58 76  1  0
 76 77  1  0
 57 78  1  0
 78 79  2  0
 79 80  1  0
 80 81  1  0
 81 82  2  0
 82 83  2  0
 80 84  2  0
 84 85  1  0
 85 86  2  0
 86 87  1  0
 87 88  1  0
 88 89  2  0
 84 90  1  0
 90 91  2  3
 91 92  1  0
 92 93  2  0
 92 94  1  0
 94 95  2  0
 95 96  1  0
 96 97  2  0
 97 98  1  0
 98 99  1  0
 99100  1  0
 98101  2  0
101102  1  0
102103  2  3
103104  1  0
104105  3  0
103106  1  0
106107  3  0
 11  2  1  0
 23 17  1  0
 35 24  1  0
 77 36  1  0
 89 78  1  0
102 91  1  0
 10  5  1  0
 22 18  1  0
 29 25  1  0
 35 31  1  0
 46 39  1  0
 54 47  1  0
 76 55  2  0
 83 79  1  0
 89 85  1  0
101 94  1  0
 23  7  1  0
 67 60  1  0
 75 68  1  0
  1108  1  0
  6109  1  0
  9110  1  0
 17111  1  0
 18112  1  0
 19113  1  0
 20114  1  0
 21115  1  0
 22116  1  0
 22117  1  0
 23118  1  0
 40119  1  0
 41120  1  0
 44121  1  0
 44122  1  0
 44123  1  0
 45124  1  0
 46125  1  0
 48126  1  0
 49127  1  0
 52128  1  0
 52129  1  0
 52130  1  0
 53131  1  0
 54132  1  0
 61133  1  0
 62134  1  0
 65135  1  0
 65136  1  0
 65137  1  0
 66138  1  0
 67139  1  0
 69140  1  0
 70141  1  0
 73142  1  0
 73143  1  0
 73144  1  0
 74145  1  0
 75146  1  0
 90147  1  0
 95148  1  0
 96149  1  0
 97150  1  0
100151  1  0
100152  1  0
100153  1  0
M  END

