
     RDKit          3D

208230  0  0  0  0  0  0  0  0999 V2000
   -2.0236   -7.0190   -5.0142 C   0  0  0  0  0  0  0  0  0  0  0  0
   -0.7652   -6.8772   -4.5458 C   0  0  0  0  0  0  0  0  0  0  0  0
   -0.3804   -6.0152   -3.4137 C   0  0  0  0  0  0  0  0  0  0  0  0
   -1.1173   -5.1842   -2.8167 O   0  0  0  0  0  0  0  0  0  0  0  0
    0.9725   -6.3330   -3.0234 C   0  0  0  0  0  0  0  0  0  0  0  0
    1.6782   -5.8243   -1.9070 C   0  0  0  0  0  0  0  0  0  0  0  0
    2.9259   -6.3852   -1.7312 C   0  0  0  0  0  0  0  0  0  0  0  0
    3.4616   -7.3912   -2.6013 C   0  0  0  0  0  0  0  0  0  0  0  0
    2.7705   -7.9060   -3.6832 C   0  0  0  0  0  0  0  0  0  0  0  0
    1.4844   -7.3295   -3.8956 C   0  0  0  0  0  0  0  0  0  0  0  0
    0.4594   -7.6425   -4.9371 C   0  0  0  0  0  0  0  0  0  0  0  0
    0.6843   -8.2635   -6.1223 C   0  0  0  0  0  0  0  0  0  0  0  0
    1.9901   -8.7311   -6.5216 C   0  0  0  0  0  0  0  0  0  0  0  0
    3.0333   -9.0870   -6.8650 N   0  0  0  0  0  0  0  0  0  0  0  0
   -0.3191   -8.3713   -7.1513 C   0  0  0  0  0  0  0  0  0  0  0  0
   -1.1127   -8.4693   -7.9874 N   0  0  0  0  0  0  0  0  0  0  0  0
    4.7213   -7.4474   -1.7855 C   0  0  0  0  0  0  0  0  0  0  0  0
    6.0011   -6.7719   -2.3631 C   0  0  0  0  0  0  0  0  0  0  0  0
    5.6236   -5.6026   -3.2368 C   0  0  0  0  0  0  0  0  0  0  0  0
    5.1170   -4.6693   -2.4275 C   0  0  0  0  0  0  0  0  0  0  0  0
    5.1744   -5.2377   -1.0298 C   0  0  0  0  0  0  0  0  0  0  0  0
    6.4740   -6.0132   -1.1383 C   0  0  0  0  0  0  0  0  0  0  0  0
    4.1691   -6.4225   -0.8932 C   0  0  0  0  0  0  0  0  0  0  0  0
   -3.0919   -6.0711   -4.6386 C   0  0  0  0  0  0  0  0  0  0  0  0
   -4.0870   -6.4541   -3.7270 C   0  0  0  0  0  0  0  0  0  0  0  0
   -4.1983   -7.7528   -3.3490 F   0  0  0  0  0  0  0  0  0  0  0  0
   -4.8939   -5.4878   -3.1161 C   0  0  0  0  0  0  0  0  0  0  0  0
   -5.8267   -5.8947   -2.2187 F   0  0  0  0  0  0  0  0  0  0  0  0
   -4.7068   -4.1089   -3.3888 C   0  0  0  0  0  0  0  0  0  0  0  0
   -3.8283   -3.7553   -4.4481 C   0  0  0  0  0  0  0  0  0  0  0  0
   -3.6705   -2.4652   -4.8408 N   0  0  0  0  0  0  0  0  0  0  0  0
   -2.8019   -2.0848   -5.8157 C   0  0  0  0  0  0  0  0  0  0  0  0
   -2.6699   -0.6167   -6.1130 C   0  0  0  0  0  0  0  0  0  0  0  0
   -1.5976    0.0155   -5.2289 C   0  0  0  0  0  0  0  0  0  0  0  0
   -2.0011   -3.0755   -6.4292 C   0  0  0  0  0  0  0  0  0  0  0  0
   -2.1439   -4.3671   -6.0286 N   0  0  0  0  0  0  0  0  0  0  0  0
   -3.0285   -4.7381   -5.0662 C   0  0  0  0  0  0  0  0  0  0  0  0
   -1.0317   -2.7842   -7.5430 C   0  0  0  0  0  0  0  0  0  0  0  0
   -1.7143   -2.9223   -8.8978 C   0  0  0  0  0  0  0  0  0  0  0  0
   -5.2239   -3.0841   -2.4258 C   0  0  0  0  0  0  0  0  0  0  0  0
   -5.2979   -3.2881   -1.0376 C   0  0  0  0  0  0  0  0  0  0  0  0
   -5.2372   -2.1067   -0.2744 C   0  0  0  0  0  0  0  0  0  0  0  0
   -5.0276   -2.0316    1.1235 C   0  0  0  0  0  0  0  0  0  0  0  0
   -4.9808   -3.2353    1.9709 C   0  0  0  0  0  0  0  0  0  0  0  0
   -4.1209   -4.3165    1.7990 C   0  0  0  0  0  0  0  0  0  0  0  0
   -4.3571   -5.3491    2.7109 C   0  0  0  0  0  0  0  0  0  0  0  0
   -3.6817   -6.5220    2.6778 F   0  0  0  0  0  0  0  0  0  0  0  0
   -5.3765   -5.0773    3.6097 C   0  0  0  0  0  0  0  0  0  0  0  0
   -6.0229   -6.2025    4.8408 S   0  0  0  0  0  0  0  0  0  0  0  0
   -4.8588   -5.6890    6.1521 C   0  0  0  0  0  0  0  0  0  0  0  0
   -3.5802   -6.5147    6.0888 C   0  0  0  0  0  0  0  0  0  0  0  0
   -6.0015   -3.5510    3.2738 S   0  0  0  0  0  0  0  0  0  0  0  0
   -4.6502   -0.7777    1.6393 C   0  0  0  0  0  0  0  0  0  0  0  0
   -4.4806    0.3493    0.8274 C   0  0  0  0  0  0  0  0  0  0  0  0
   -4.7862    0.2915   -0.5468 C   0  0  0  0  0  0  0  0  0  0  0  0
   -4.3653    1.3555   -1.4765 C   0  0  0  0  0  0  0  0  0  0  0  0
   -5.3684    2.1495   -2.5790 S   0  0  0  0  0  0  0  0  0  0  0  0
   -4.1141    2.8610   -3.4478 C   0  0  0  0  0  0  0  0  0  0  0  0
   -4.3110    3.8483   -4.9317 S   0  0  0  0  0  0  0  0  0  0  0  0
   -4.3720    5.4302   -4.0273 C   0  0  0  0  0  0  0  0  0  0  0  0
   -4.4498    6.5894   -5.0096 C   0  0  0  0  0  0  0  0  0  0  0  0
   -2.9041    2.4570   -2.9102 C   0  0  0  0  0  0  0  0  0  0  0  0
   -3.0422    1.5943   -1.8194 C   0  0  0  0  0  0  0  0  0  0  0  0
   -1.7060    2.7504   -3.4583 F   0  0  0  0  0  0  0  0  0  0  0  0
   -5.1803   -0.9538   -1.0571 C   0  0  0  0  0  0  0  0  0  0  0  0
   -5.1945   -1.4128   -2.6714 S   0  0  0  0  0  0  0  0  0  0  0  0
   -3.7770    1.3910    1.4641 C   0  0  0  0  0  0  0  0  0  0  0  0
   -3.3467    1.0753    2.7586 C   0  0  0  0  0  0  0  0  0  0  0  0
   -3.9177   -0.4744    3.1216 S   0  0  0  0  0  0  0  0  0  0  0  0
   -2.1558    1.6561    3.4199 C   0  0  0  0  0  0  0  0  0  0  0  0
   -1.4264    2.7894    2.9960 C   0  0  0  0  0  0  0  0  0  0  0  0
   -1.9267    3.8200    2.1274 N   0  0  0  0  0  0  0  0  0  0  0  0
   -3.0456    4.6245    2.5542 C   0  0  0  0  0  0  0  0  0  0  0  0
   -3.9411    5.1580    1.6081 C   0  0  0  0  0  0  0  0  0  0  0  0
   -4.9919    5.9824    2.0149 C   0  0  0  0  0  0  0  0  0  0  0  0
   -5.1681    6.2799    3.3713 C   0  0  0  0  0  0  0  0  0  0  0  0
   -6.4860    7.3795    3.8866 S   0  0  0  0  0  0  0  0  0  0  0  0
   -5.4193    8.8553    3.9184 C   0  0  0  0  0  0  0  0  0  0  0  0
   -4.2976    5.7350    4.3227 C   0  0  0  0  0  0  0  0  0  0  0  0
   -3.2418    4.9152    3.9176 C   0  0  0  0  0  0  0  0  0  0  0  0
   -1.1755    4.1727    0.9443 C   0  0  0  0  0  0  0  0  0  0  0  0
   -0.6325    3.1683    0.1245 C   0  0  0  0  0  0  0  0  0  0  0  0
    0.1733    3.4977   -0.9681 C   0  0  0  0  0  0  0  0  0  0  0  0
    0.4586    4.8381   -1.2507 C   0  0  0  0  0  0  0  0  0  0  0  0
    1.5670    5.2435   -2.5992 S   0  0  0  0  0  0  0  0  0  0  0  0
    0.2474    5.6136   -3.7910 C   0  0  0  0  0  0  0  0  0  0  0  0
   -0.0686    5.8478   -0.4404 C   0  0  0  0  0  0  0  0  0  0  0  0
   -0.8877    5.5209    0.6467 C   0  0  0  0  0  0  0  0  0  0  0  0
   -0.0969    2.7381    3.4253 C   0  0  0  0  0  0  0  0  0  0  0  0
    1.2841    3.4972    2.8866 S   0  0  0  0  0  0  0  0  0  0  0  0
    2.3811    2.3762    3.5475 C   0  0  0  0  0  0  0  0  0  0  0  0
    1.6303    1.3881    4.2246 C   0  0  0  0  0  0  0  0  0  0  0  0
    2.1939    0.1608    4.7380 N   0  0  0  0  0  0  0  0  0  0  0  0
    3.3673    0.1974    5.5726 C   0  0  0  0  0  0  0  0  0  0  0  0
    4.4109   -0.7256    5.3730 C   0  0  0  0  0  0  0  0  0  0  0  0
    5.5558   -0.6836    6.1721 C   0  0  0  0  0  0  0  0  0  0  0  0
    5.6763    0.2878    7.1717 C   0  0  0  0  0  0  0  0  0  0  0  0
    7.1637    0.3630    8.1658 S   0  0  0  0  0  0  0  0  0  0  0  0
    8.0091    1.4953    7.0167 C   0  0  0  0  0  0  0  0  0  0  0  0
    4.6444    1.2098    7.3798 C   0  0  0  0  0  0  0  0  0  0  0  0
    3.4948    1.1646    6.5829 C   0  0  0  0  0  0  0  0  0  0  0  0
    1.5838   -1.1076    4.4246 C   0  0  0  0  0  0  0  0  0  0  0  0
    1.2821   -2.0204    5.4461 C   0  0  0  0  0  0  0  0  0  0  0  0
    0.6531   -3.2330    5.1478 C   0  0  0  0  0  0  0  0  0  0  0  0
    0.3198   -3.5428    3.8242 C   0  0  0  0  0  0  0  0  0  0  0  0
   -0.4748   -5.1041    3.4360 S   0  0  0  0  0  0  0  0  0  0  0  0
    1.1067   -5.9931    3.2464 C   0  0  0  0  0  0  0  0  0  0  0  0
    0.6154   -2.6353    2.8002 C   0  0  0  0  0  0  0  0  0  0  0  0
    1.2476   -1.4222    3.0976 C   0  0  0  0  0  0  0  0  0  0  0  0
    0.2528    1.6392    4.1319 C   0  0  0  0  0  0  0  0  0  0  0  0
   -1.1021    0.6709    4.3327 S   0  0  0  0  0  0  0  0  0  0  0  0
    3.7212    2.1142    2.9576 C   0  0  0  0  0  0  0  0  0  0  0  0
    4.3312    2.9463    2.0890 C   0  0  0  0  0  0  0  0  0  0  0  0
    4.0957    4.4006    1.9927 C   0  0  0  0  0  0  0  0  0  0  0  0
    3.8294    5.1715    2.9575 O   0  0  0  0  0  0  0  0  0  0  0  0
    4.2952    4.8309    0.6237 C   0  0  0  0  0  0  0  0  0  0  0  0
    4.1553    6.1355    0.0922 C   0  0  0  0  0  0  0  0  0  0  0  0
    4.4888    6.2386   -1.2461 C   0  0  0  0  0  0  0  0  0  0  0  0
    4.9500    5.1238   -2.0202 C   0  0  0  0  0  0  0  0  0  0  0  0
    5.0940    3.8459   -1.5064 C   0  0  0  0  0  0  0  0  0  0  0  0
    4.7153    3.7151   -0.1415 C   0  0  0  0  0  0  0  0  0  0  0  0
    4.8022    2.5217    0.7326 C   0  0  0  0  0  0  0  0  0  0  0  0
    4.9968    1.2434    0.3219 C   0  0  0  0  0  0  0  0  0  0  0  0
    5.6033    0.2603    1.1894 C   0  0  0  0  0  0  0  0  0  0  0  0
    6.1336   -0.5365    1.8477 N   0  0  0  0  0  0  0  0  0  0  0  0
    4.6528    0.8217   -1.0126 C   0  0  0  0  0  0  0  0  0  0  0  0
    4.3190    0.4759   -2.0702 N   0  0  0  0  0  0  0  0  0  0  0  0
    5.1083    6.0068   -3.2212 C   0  0  0  0  0  0  0  0  0  0  0  0
    6.5632    6.4131   -3.5912 C   0  0  0  0  0  0  0  0  0  0  0  0
    6.4413    7.5645   -4.5653 C   0  0  0  0  0  0  0  0  0  0  0  0
    5.9925    8.6118   -3.8584 C   0  0  0  0  0  0  0  0  0  0  0  0
    5.8398    8.1303   -2.4329 C   0  0  0  0  0  0  0  0  0  0  0  0
    7.0340    7.1900   -2.3687 C   0  0  0  0  0  0  0  0  0  0  0  0
    4.6262    7.1480   -2.4372 C   0  0  0  0  0  0  0  0  0  0  0  0
   -2.2915   -7.8264   -5.6767 H   0  0  0  0  0  0  0  0  0  0  0  0
    1.2644   -5.0831   -1.2325 H   0  0  0  0  0  0  0  0  0  0  0  0
    3.1874   -8.7072   -4.2743 H   0  0  0  0  0  0  0  0  0  0  0  0
    4.8906   -8.4283   -1.2875 H   0  0  0  0  0  0  0  0  0  0  0  0
    6.7435   -7.4704   -2.8099 H   0  0  0  0  0  0  0  0  0  0  0  0
    5.7978   -5.4930   -4.3032 H   0  0  0  0  0  0  0  0  0  0  0  0
    4.8212   -3.6681   -2.7217 H   0  0  0  0  0  0  0  0  0  0  0  0
    5.1312   -4.4842   -0.2130 H   0  0  0  0  0  0  0  0  0  0  0  0
    6.6788   -6.6700   -0.2594 H   0  0  0  0  0  0  0  0  0  0  0  0
    7.3620   -5.3671   -1.3340 H   0  0  0  0  0  0  0  0  0  0  0  0
    4.0026   -6.7794    0.1490 H   0  0  0  0  0  0  0  0  0  0  0  0
   -2.4374   -0.4380   -7.1816 H   0  0  0  0  0  0  0  0  0  0  0  0
   -3.6361   -0.1126   -5.9083 H   0  0  0  0  0  0  0  0  0  0  0  0
   -1.8789   -0.0858   -4.1587 H   0  0  0  0  0  0  0  0  0  0  0  0
   -1.5020    1.0928   -5.4751 H   0  0  0  0  0  0  0  0  0  0  0  0
   -0.6195   -0.4802   -5.3888 H   0  0  0  0  0  0  0  0  0  0  0  0
   -0.5833   -1.7784   -7.4427 H   0  0  0  0  0  0  0  0  0  0  0  0
   -0.1924   -3.5116   -7.4938 H   0  0  0  0  0  0  0  0  0  0  0  0
   -0.9883   -2.6870   -9.7036 H   0  0  0  0  0  0  0  0  0  0  0  0
   -2.0690   -3.9639   -9.0379 H   0  0  0  0  0  0  0  0  0  0  0  0
   -2.5778   -2.2288   -8.9768 H   0  0  0  0  0  0  0  0  0  0  0  0
   -5.2388   -4.2664   -0.5939 H   0  0  0  0  0  0  0  0  0  0  0  0
   -3.3619   -4.3642    1.0290 H   0  0  0  0  0  0  0  0  0  0  0  0
   -5.3449   -5.8639    7.1343 H   0  0  0  0  0  0  0  0  0  0  0  0
   -4.6205   -4.6035    6.0746 H   0  0  0  0  0  0  0  0  0  0  0  0
   -2.9095   -6.2361    6.9300 H   0  0  0  0  0  0  0  0  0  0  0  0
   -3.0418   -6.3249    5.1355 H   0  0  0  0  0  0  0  0  0  0  0  0
   -3.8166   -7.5965    6.1648 H   0  0  0  0  0  0  0  0  0  0  0  0
   -3.4574    5.5411   -3.4034 H   0  0  0  0  0  0  0  0  0  0  0  0
   -5.2727    5.4484   -3.3751 H   0  0  0  0  0  0  0  0  0  0  0  0
   -4.5127    7.5481   -4.4480 H   0  0  0  0  0  0  0  0  0  0  0  0
   -5.3493    6.4881   -5.6533 H   0  0  0  0  0  0  0  0  0  0  0  0
   -3.5402    6.6061   -5.6477 H   0  0  0  0  0  0  0  0  0  0  0  0
   -2.2060    1.0961   -1.3506 H   0  0  0  0  0  0  0  0  0  0  0  0
   -3.4582    2.2712    0.9263 H   0  0  0  0  0  0  0  0  0  0  0  0
   -3.8194    4.9388    0.5520 H   0  0  0  0  0  0  0  0  0  0  0  0
   -5.6626    6.3926    1.2733 H   0  0  0  0  0  0  0  0  0  0  0  0
   -6.0455    9.7529    4.1000 H   0  0  0  0  0  0  0  0  0  0  0  0
   -4.6748    8.7679    4.7350 H   0  0  0  0  0  0  0  0  0  0  0  0
   -4.8969    8.9738    2.9443 H   0  0  0  0  0  0  0  0  0  0  0  0
   -4.4243    5.9677    5.3747 H   0  0  0  0  0  0  0  0  0  0  0  0
   -2.5589    4.5369    4.6725 H   0  0  0  0  0  0  0  0  0  0  0  0
   -0.8173    2.1286    0.3479 H   0  0  0  0  0  0  0  0  0  0  0  0
    0.5925    2.7065   -1.5787 H   0  0  0  0  0  0  0  0  0  0  0  0
   -0.3526    6.4797   -3.4390 H   0  0  0  0  0  0  0  0  0  0  0  0
   -0.4093    4.7328   -3.9245 H   0  0  0  0  0  0  0  0  0  0  0  0
    0.7038    5.8646   -4.7701 H   0  0  0  0  0  0  0  0  0  0  0  0
    0.1673    6.8863   -0.6377 H   0  0  0  0  0  0  0  0  0  0  0  0
   -1.2630    6.3179    1.2791 H   0  0  0  0  0  0  0  0  0  0  0  0
    4.3404   -1.4747    4.5943 H   0  0  0  0  0  0  0  0  0  0  0  0
    6.3595   -1.3933    6.0081 H   0  0  0  0  0  0  0  0  0  0  0  0
    8.0331    1.0627    5.9937 H   0  0  0  0  0  0  0  0  0  0  0  0
    9.0479    1.6599    7.3651 H   0  0  0  0  0  0  0  0  0  0  0  0
    7.4753    2.4664    6.9971 H   0  0  0  0  0  0  0  0  0  0  0  0
    4.7324    1.9586    8.1617 H   0  0  0  0  0  0  0  0  0  0  0  0
    2.6984    1.8736    6.7602 H   0  0  0  0  0  0  0  0  0  0  0  0
    1.5231   -1.7876    6.4794 H   0  0  0  0  0  0  0  0  0  0  0  0
    0.4127   -3.9216    5.9453 H   0  0  0  0  0  0  0  0  0  0  0  0
    0.9034   -7.0357    2.9256 H   0  0  0  0  0  0  0  0  0  0  0  0
    1.6412   -6.0157    4.2223 H   0  0  0  0  0  0  0  0  0  0  0  0
    1.7399   -5.4983    2.4787 H   0  0  0  0  0  0  0  0  0  0  0  0
    0.3546   -2.8639    1.7741 H   0  0  0  0  0  0  0  0  0  0  0  0
    1.4731   -0.7263    2.2959 H   0  0  0  0  0  0  0  0  0  0  0  0
    3.9982    1.0748    2.9525 H   0  0  0  0  0  0  0  0  0  0  0  0
    3.8368    6.9915    0.6764 H   0  0  0  0  0  0  0  0  0  0  0  0
    5.4910    3.0431   -2.1148 H   0  0  0  0  0  0  0  0  0  0  0  0
    4.4551    5.7344   -4.0825 H   0  0  0  0  0  0  0  0  0  0  0  0
    7.2275    5.5863   -3.9195 H   0  0  0  0  0  0  0  0  0  0  0  0
    6.7223    7.5801   -5.6129 H   0  0  0  0  0  0  0  0  0  0  0  0
    5.8460    9.6167   -4.2379 H   0  0  0  0  0  0  0  0  0  0  0  0
    5.8064    8.9313   -1.6616 H   0  0  0  0  0  0  0  0  0  0  0  0
    8.0096    7.7129   -2.5173 H   0  0  0  0  0  0  0  0  0  0  0  0
    7.0866    6.5868   -1.4349 H   0  0  0  0  0  0  0  0  0  0  0  0
    3.6574    7.5829   -2.7866 H   0  0  0  0  0  0  0  0  0  0  0  0
  1  2  2  3
  2  3  1  0
  3  4  2  0
  3  5  1  0
  5  6  2  0
  6  7  1  0
  7  8  2  0
  8  9  1  0
  9 10  2  0
 10 11  1  0
 11 12  2  3
 12 13  1  0
 13 14  3  0
 12 15  1  0
 15 16  3  0
  8 17  1  0
 17 18  1  0
 18 19  1  0
 19 20  2  0
 20 21  1  0
 21 22  1  0
 21 23  1  0
  1 24  1  0
 24 25  2  0
 25 26  1  0
 25 27  1  0
 27 28  1  0
 27 29  2  0
 29 30  1  0
 30 31  2  0
 31 32  1  0
 32 33  1  0
 33 34  1  0
 32 35  2  0
 35 36  1  0
 36 37  2  0
 35 38  1  0
 38 39  1  0
 29 40  1  0
 40 41  2  0
 41 42  1  0
 42 43  2  0
 43 44  1  0
 44 45  2  0
 45 46  1  0
 46 47  1  0
 46 48  2  0
 48 49  1  0
 49 50  1  0
 50 51  1  0
 48 52  1  0
 43 53  1  0
 53 54  2  0
 54 55  1  0
 55 56  1  0
 56 57  1  0
 57 58  1  0
 58 59  1  0
 59 60  1  0
 60 61  1  0
 58 62  2  0
 62 63  1  0
 62 64  1  0
 55 65  2  0
 65 66  1  0
 54 67  1  0
 67 68  2  0
 68 69  1  0
 68 70  1  0
 70 71  2  0
 71 72  1  0
 72 73  1  0
 73 74  2  0
 74 75  1  0
 75 76  2  0
 76 77  1  0
 77 78  1  0
 76 79  1  0
 79 80  2  0
 72 81  1  0
 81 82  2  0
 82 83  1  0
 83 84  2  0
 84 85  1  0
 85 86  1  0
 84 87  1  0
 87 88  2  0
 71 89  1  0
 89 90  1  0
 90 91  1  0
 91 92  2  0
 92 93  1  0
 93 94  1  0
 94 95  2  0
 95 96  1  0
 96 97  2  0
 97 98  1  0
 98 99  1  0
 97100  1  0
100101  2  0
 93102  1  0
102103  2  0
103104  1  0
104105  2  0
105106  1  0
106107  1  0
105108  1  0
108109  2  0
 92110  1  0
110111  1  0
 91112  1  0
112113  2  3
113114  1  0
114115  2  0
114116  1  0
116117  2  0
117118  1  0
118119  2  0
119120  1  0
120121  2  0
121122  1  0
122123  2  3
123124  1  0
124125  3  0
123126  1  0
126127  3  0
119128  1  0
128129  1  0
129130  1  0
130131  2  0
131132  1  0
132133  1  0
132134  1  0
 11  2  1  0
 23 17  1  0
 37 24  1  0
 66 40  1  0
111 70  1  0
122113  1  0
134128  1  0
 10  5  1  0
 22 18  1  0
 37 30  1  0
 65 42  1  0
 80 73  1  0
 88 81  1  0
110 89  2  0
121116  1  0
133129  1  0
 23  7  1  0
 52 44  1  0
 69 53  1  0
101 94  1  0
109102  1  0
134118  1  0
 63 56  2  0
  1135  1  0
  6136  1  0
  9137  1  0
 17138  1  0
 18139  1  0
 19140  1  0
 20141  1  0
 21142  1  0
 22143  1  0
 22144  1  0
 23145  1  0
 33146  1  0
 33147  1  0
 34148  1  0
 34149  1  0
 34150  1  0
 38151  1  0
 38152  1  0
 39153  1  0
 39154  1  0
 39155  1  0
 41156  1  0
 45157  1  0
 50158  1  0
 50159  1  0
 51160  1  0
 51161  1  0
 51162  1  0
 60163  1  0
 60164  1  0
 61165  1  0
 61166  1  0
 61167  1  0
 63168  1  0
 67169  1  0
 74170  1  0
 75171  1  0
 78172  1  0
 78173  1  0
 78174  1  0
 79175  1  0
 80176  1  0
 82177  1  0
 83178  1  0
 86179  1  0
 86180  1  0
 86181  1  0
 87182  1  0
 88183  1  0
 95184  1  0
 96185  1  0
 99186  1  0
 99187  1  0
 99188  1  0
100189  1  0
101190  1  0
103191  1  0
104192  1  0
107193  1  0
107194  1  0
107195  1  0
108196  1  0
109197  1  0
112198  1  0
117199  1  0
120200  1  0
128201  1  0
129202  1  0
130203  1  0
131204  1  0
132205  1  0
133206  1  0
133207  1  0
134208  1  0
M  END

