
     RDKit          3D

219242  0  0  0  0  0  0  0  0999 V2000
   -4.2215   -0.6258    5.3646 C   0  0  0  0  0  0  0  0  0  0  0  0
   -4.2074   -1.9838    5.5322 C   0  0  0  0  0  0  0  0  0  0  0  0
   -4.7245   -2.9669    4.5563 C   0  0  0  0  0  0  0  0  0  0  0  0
   -5.8423   -2.8953    3.9894 O   0  0  0  0  0  0  0  0  0  0  0  0
   -4.1290   -4.2302    4.8416 C   0  0  0  0  0  0  0  0  0  0  0  0
   -4.2490   -5.3509    3.9807 C   0  0  0  0  0  0  0  0  0  0  0  0
   -3.6555   -6.4768    4.5180 C   0  0  0  0  0  0  0  0  0  0  0  0
   -2.9581   -6.4946    5.7889 C   0  0  0  0  0  0  0  0  0  0  0  0
   -2.9097   -5.4087    6.6715 C   0  0  0  0  0  0  0  0  0  0  0  0
   -3.5351   -4.2205    6.1465 C   0  0  0  0  0  0  0  0  0  0  0  0
   -3.5538   -2.8217    6.6671 C   0  0  0  0  0  0  0  0  0  0  0  0
   -3.0665   -2.3763    7.8823 C   0  0  0  0  0  0  0  0  0  0  0  0
   -3.0148   -0.9838    8.2317 C   0  0  0  0  0  0  0  0  0  0  0  0
   -2.9187    0.1560    8.4518 N   0  0  0  0  0  0  0  0  0  0  0  0
   -2.5688   -3.2315    8.9001 C   0  0  0  0  0  0  0  0  0  0  0  0
   -2.1725   -3.8686    9.7951 N   0  0  0  0  0  0  0  0  0  0  0  0
   -2.4472   -7.8632    5.4607 C   0  0  0  0  0  0  0  0  0  0  0  0
   -0.9705   -8.0270    4.9571 C   0  0  0  0  0  0  0  0  0  0  0  0
   -0.5533   -6.8593    4.0712 C   0  0  0  0  0  0  0  0  0  0  0  0
   -1.2492   -7.0001    2.9334 C   0  0  0  0  0  0  0  0  0  0  0  0
   -2.1752   -8.1768    3.1020 C   0  0  0  0  0  0  0  0  0  0  0  0
   -1.1878   -9.0655    3.8702 C   0  0  0  0  0  0  0  0  0  0  0  0
   -3.2422   -7.8793    4.2228 C   0  0  0  0  0  0  0  0  0  0  0  0
   -4.3923    0.1281    4.0648 C   0  0  0  0  0  0  0  0  0  0  0  0
   -4.1424    1.5394    3.9080 C   0  0  0  0  0  0  0  0  0  0  0  0
   -3.8560    2.4669    4.9740 N   0  0  0  0  0  0  0  0  0  0  0  0
   -4.4868    2.4077    6.2493 C   0  0  0  0  0  0  0  0  0  0  0  0
   -5.7351    1.7318    6.4638 C   0  0  0  0  0  0  0  0  0  0  0  0
   -6.2739    1.6341    7.7751 C   0  0  0  0  0  0  0  0  0  0  0  0
   -5.6269    2.2222    8.8774 C   0  0  0  0  0  0  0  0  0  0  0  0
   -6.1648    1.8639   10.5471 S   0  0  0  0  0  0  0  0  0  0  0  0
   -6.6735    3.5581   10.9368 C   0  0  0  0  0  0  0  0  0  0  0  0
   -4.4308    2.9334    8.6640 C   0  0  0  0  0  0  0  0  0  0  0  0
   -3.8511    2.9572    7.3810 C   0  0  0  0  0  0  0  0  0  0  0  0
   -3.0062    3.6139    4.6414 C   0  0  0  0  0  0  0  0  0  0  0  0
   -3.5015    4.8998    4.8512 C   0  0  0  0  0  0  0  0  0  0  0  0
   -2.5918    5.9892    4.8822 C   0  0  0  0  0  0  0  0  0  0  0  0
   -1.2147    5.7635    4.7465 C   0  0  0  0  0  0  0  0  0  0  0  0
   -0.0480    7.1281    5.0313 S   0  0  0  0  0  0  0  0  0  0  0  0
   -0.6530    7.5133    6.7091 C   0  0  0  0  0  0  0  0  0  0  0  0
   -0.7523    4.4823    4.3989 C   0  0  0  0  0  0  0  0  0  0  0  0
   -1.6632    3.3985    4.3105 C   0  0  0  0  0  0  0  0  0  0  0  0
   -4.1680    1.8563    2.5565 C   0  0  0  0  0  0  0  0  0  0  0  0
   -3.7122    3.2037    1.6482 S   0  0  0  0  0  0  0  0  0  0  0  0
   -3.7990    2.3391    0.1603 C   0  0  0  0  0  0  0  0  0  0  0  0
   -4.3090    1.0419    0.3393 C   0  0  0  0  0  0  0  0  0  0  0  0
   -5.1575    0.3622   -0.5799 N   0  0  0  0  0  0  0  0  0  0  0  0
   -6.5253    0.1811   -0.1747 C   0  0  0  0  0  0  0  0  0  0  0  0
   -6.9731   -1.0813    0.2539 C   0  0  0  0  0  0  0  0  0  0  0  0
   -8.2800   -1.2416    0.7155 C   0  0  0  0  0  0  0  0  0  0  0  0
   -9.1677   -0.1442    0.7112 C   0  0  0  0  0  0  0  0  0  0  0  0
  -10.7671   -0.2772    1.5046 S   0  0  0  0  0  0  0  0  0  0  0  0
  -11.4740   -1.4964    0.3485 C   0  0  0  0  0  0  0  0  0  0  0  0
   -8.7290    1.1121    0.2478 C   0  0  0  0  0  0  0  0  0  0  0  0
   -7.3928    1.2808   -0.1453 C   0  0  0  0  0  0  0  0  0  0  0  0
   -4.7254   -0.3436   -1.7803 C   0  0  0  0  0  0  0  0  0  0  0  0
   -5.6888   -0.7115   -2.7614 C   0  0  0  0  0  0  0  0  0  0  0  0
   -5.3595   -1.4732   -3.8889 C   0  0  0  0  0  0  0  0  0  0  0  0
   -4.0393   -1.8913   -4.0864 C   0  0  0  0  0  0  0  0  0  0  0  0
   -3.6042   -2.6325   -5.6731 S   0  0  0  0  0  0  0  0  0  0  0  0
   -3.6752   -4.3723   -5.1619 C   0  0  0  0  0  0  0  0  0  0  0  0
   -3.0481   -1.5171   -3.1512 C   0  0  0  0  0  0  0  0  0  0  0  0
   -3.3856   -0.7419   -1.9902 C   0  0  0  0  0  0  0  0  0  0  0  0
   -4.4643    0.8299    1.7010 C   0  0  0  0  0  0  0  0  0  0  0  0
   -4.7089   -0.5619    2.5870 S   0  0  0  0  0  0  0  0  0  0  0  0
   -2.7184    2.5186   -0.7917 C   0  0  0  0  0  0  0  0  0  0  0  0
   -1.3988    2.7429   -0.2910 C   0  0  0  0  0  0  0  0  0  0  0  0
   -0.2691    2.6847   -1.1159 C   0  0  0  0  0  0  0  0  0  0  0  0
   -0.3848    2.5579   -2.4960 C   0  0  0  0  0  0  0  0  0  0  0  0
   -1.7028    2.5333   -3.0268 C   0  0  0  0  0  0  0  0  0  0  0  0
   -1.9252    2.5023   -4.3537 N   0  0  0  0  0  0  0  0  0  0  0  0
   -3.5653    2.3595   -4.3755 S   0  0  0  0  0  0  0  0  0  0  0  0
   -4.0739    2.3765   -2.8030 N   0  0  0  0  0  0  0  0  0  0  0  0
   -2.8618    2.4957   -2.1735 C   0  0  0  0  0  0  0  0  0  0  0  0
    0.8318    2.5670   -3.2817 C   0  0  0  0  0  0  0  0  0  0  0  0
    1.6673    1.4451   -3.3865 C   0  0  0  0  0  0  0  0  0  0  0  0
    1.2850    0.0621   -3.1690 N   0  0  0  0  0  0  0  0  0  0  0  0
    0.8756   -0.7168   -4.3016 C   0  0  0  0  0  0  0  0  0  0  0  0
    1.4153   -2.0069   -4.4964 C   0  0  0  0  0  0  0  0  0  0  0  0
    0.9448   -2.8233   -5.5282 C   0  0  0  0  0  0  0  0  0  0  0  0
   -0.0362   -2.3638   -6.4153 C   0  0  0  0  0  0  0  0  0  0  0  0
   -0.6427   -3.4346   -7.7362 S   0  0  0  0  0  0  0  0  0  0  0  0
    0.6371   -2.9524   -8.9427 C   0  0  0  0  0  0  0  0  0  0  0  0
   -0.5401   -1.0656   -6.2690 C   0  0  0  0  0  0  0  0  0  0  0  0
   -0.0649   -0.2430   -5.2263 C   0  0  0  0  0  0  0  0  0  0  0  0
    1.4725   -0.6059   -1.8909 C   0  0  0  0  0  0  0  0  0  0  0  0
    0.4802   -1.4771   -1.4200 C   0  0  0  0  0  0  0  0  0  0  0  0
    0.7608   -2.4748   -0.4821 C   0  0  0  0  0  0  0  0  0  0  0  0
    2.0697   -2.6124    0.0298 C   0  0  0  0  0  0  0  0  0  0  0  0
    2.4324   -3.8636    1.2657 S   0  0  0  0  0  0  0  0  0  0  0  0
    2.7146   -5.2208    0.0737 C   0  0  0  0  0  0  0  0  0  0  0  0
    3.0381   -1.6745   -0.3189 C   0  0  0  0  0  0  0  0  0  0  0  0
    2.7424   -0.6661   -1.2643 C   0  0  0  0  0  0  0  0  0  0  0  0
    2.9770    1.8540   -3.6152 C   0  0  0  0  0  0  0  0  0  0  0  0
    4.4183    1.0375   -3.7049 S   0  0  0  0  0  0  0  0  0  0  0  0
    5.4563    2.3890   -3.7016 C   0  0  0  0  0  0  0  0  0  0  0  0
    4.6036    3.5419   -3.6468 C   0  0  0  0  0  0  0  0  0  0  0  0
    5.0385    4.8608   -3.9116 N   0  0  0  0  0  0  0  0  0  0  0  0
    4.9154    5.7641   -2.8197 C   0  0  0  0  0  0  0  0  0  0  0  0
    5.7213    5.6013   -1.6693 C   0  0  0  0  0  0  0  0  0  0  0  0
    5.4772    6.3690   -0.5069 C   0  0  0  0  0  0  0  0  0  0  0  0
    4.4335    7.3103   -0.4826 C   0  0  0  0  0  0  0  0  0  0  0  0
    4.2196    8.3905    0.9407 S   0  0  0  0  0  0  0  0  0  0  0  0
    2.9327    7.3726    1.7447 C   0  0  0  0  0  0  0  0  0  0  0  0
    3.6590    7.4971   -1.6448 C   0  0  0  0  0  0  0  0  0  0  0  0
    3.8872    6.7274   -2.7974 C   0  0  0  0  0  0  0  0  0  0  0  0
    5.0840    5.2953   -5.2939 C   0  0  0  0  0  0  0  0  0  0  0  0
    4.5219    4.4962   -6.3185 C   0  0  0  0  0  0  0  0  0  0  0  0
    4.5658    4.9136   -7.6490 C   0  0  0  0  0  0  0  0  0  0  0  0
    5.0715    6.1604   -7.9928 C   0  0  0  0  0  0  0  0  0  0  0  0
    5.0808    6.7065   -9.7084 S   0  0  0  0  0  0  0  0  0  0  0  0
    3.2924    6.4285  -10.0023 C   0  0  0  0  0  0  0  0  0  0  0  0
    5.6305    6.9774   -6.9780 C   0  0  0  0  0  0  0  0  0  0  0  0
    5.6661    6.5384   -5.6379 C   0  0  0  0  0  0  0  0  0  0  0  0
    3.2383    3.1997   -3.5581 C   0  0  0  0  0  0  0  0  0  0  0  0
    1.7844    4.0220   -3.3330 S   0  0  0  0  0  0  0  0  0  0  0  0
    6.9399    2.3488   -3.4051 C   0  0  0  0  0  0  0  0  0  0  0  0
    7.6019    1.2351   -3.0002 C   0  0  0  0  0  0  0  0  0  0  0  0
    7.2262   -0.2117   -3.2899 C   0  0  0  0  0  0  0  0  0  0  0  0
    6.7713   -0.6940   -4.3739 O   0  0  0  0  0  0  0  0  0  0  0  0
    8.0520   -1.0043   -2.4207 C   0  0  0  0  0  0  0  0  0  0  0  0
    7.9421   -2.3901   -2.2886 C   0  0  0  0  0  0  0  0  0  0  0  0
    8.7268   -2.8783   -1.2477 C   0  0  0  0  0  0  0  0  0  0  0  0
    9.5082   -2.0511   -0.3946 C   0  0  0  0  0  0  0  0  0  0  0  0
    9.6628   -0.7068   -0.5425 C   0  0  0  0  0  0  0  0  0  0  0  0
    8.9480   -0.1743   -1.6551 C   0  0  0  0  0  0  0  0  0  0  0  0
    8.8089    1.2566   -2.0831 C   0  0  0  0  0  0  0  0  0  0  0  0
    9.0944    2.2857   -1.2213 C   0  0  0  0  0  0  0  0  0  0  0  0
    8.1115    2.3279   -0.1330 C   0  0  0  0  0  0  0  0  0  0  0  0
    7.3164    2.4283    0.7246 N   0  0  0  0  0  0  0  0  0  0  0  0
   10.4497    2.3863   -0.6842 C   0  0  0  0  0  0  0  0  0  0  0  0
   11.5362    2.3104   -0.2819 N   0  0  0  0  0  0  0  0  0  0  0  0
    9.7857   -3.1870    0.5309 C   0  0  0  0  0  0  0  0  0  0  0  0
    8.9923   -3.2792    1.8619 C   0  0  0  0  0  0  0  0  0  0  0  0
    9.1895   -4.7039    2.3593 C   0  0  0  0  0  0  0  0  0  0  0  0
    8.4584   -5.4825    1.5196 C   0  0  0  0  0  0  0  0  0  0  0  0
    7.8435   -4.5776    0.4932 C   0  0  0  0  0  0  0  0  0  0  0  0
    7.5329   -3.3910    1.4215 C   0  0  0  0  0  0  0  0  0  0  0  0
    9.0209   -4.0593   -0.3927 C   0  0  0  0  0  0  0  0  0  0  0  0
   -3.6730   -0.0420    6.0701 H   0  0  0  0  0  0  0  0  0  0  0  0
   -4.5711   -5.2551    2.9060 H   0  0  0  0  0  0  0  0  0  0  0  0
   -2.3815   -5.4796    7.6614 H   0  0  0  0  0  0  0  0  0  0  0  0
   -2.7708   -8.6235    6.2084 H   0  0  0  0  0  0  0  0  0  0  0  0
   -0.2314   -8.3156    5.7225 H   0  0  0  0  0  0  0  0  0  0  0  0
   -0.0665   -5.9394    4.3959 H   0  0  0  0  0  0  0  0  0  0  0  0
   -1.3020   -6.2640    2.1305 H   0  0  0  0  0  0  0  0  0  0  0  0
   -2.5611   -8.6289    2.1640 H   0  0  0  0  0  0  0  0  0  0  0  0
   -1.6353  -10.0254    4.2335 H   0  0  0  0  0  0  0  0  0  0  0  0
   -0.2540   -9.3291    3.2964 H   0  0  0  0  0  0  0  0  0  0  0  0
   -4.0915   -8.5917    4.2347 H   0  0  0  0  0  0  0  0  0  0  0  0
   -6.3028    1.2683    5.6295 H   0  0  0  0  0  0  0  0  0  0  0  0
   -7.1582    1.0548    7.9193 H   0  0  0  0  0  0  0  0  0  0  0  0
   -6.9565    3.5785   12.0032 H   0  0  0  0  0  0  0  0  0  0  0  0
   -5.8361    4.3030   10.7939 H   0  0  0  0  0  0  0  0  0  0  0  0
   -7.5888    3.8715   10.3913 H   0  0  0  0  0  0  0  0  0  0  0  0
   -3.8834    3.4391    9.4982 H   0  0  0  0  0  0  0  0  0  0  0  0
   -2.9161    3.4689    7.2736 H   0  0  0  0  0  0  0  0  0  0  0  0
   -4.5026    5.0792    5.2172 H   0  0  0  0  0  0  0  0  0  0  0  0
   -2.9686    6.9895    5.1225 H   0  0  0  0  0  0  0  0  0  0  0  0
    0.0864    8.2163    7.1822 H   0  0  0  0  0  0  0  0  0  0  0  0
   -0.5644    6.5953    7.3333 H   0  0  0  0  0  0  0  0  0  0  0  0
   -1.6520    8.0152    6.7114 H   0  0  0  0  0  0  0  0  0  0  0  0
    0.3095    4.3065    4.1577 H   0  0  0  0  0  0  0  0  0  0  0  0
   -1.2966    2.3959    4.1494 H   0  0  0  0  0  0  0  0  0  0  0  0
   -6.3133   -1.9367    0.2023 H   0  0  0  0  0  0  0  0  0  0  0  0
   -8.5498   -2.2334    1.0780 H   0  0  0  0  0  0  0  0  0  0  0  0
  -11.1155   -2.5212    0.6303 H   0  0  0  0  0  0  0  0  0  0  0  0
  -12.5736   -1.5008    0.4829 H   0  0  0  0  0  0  0  0  0  0  0  0
  -11.2393   -1.3141   -0.7234 H   0  0  0  0  0  0  0  0  0  0  0  0
   -9.3741    1.9823    0.2826 H   0  0  0  0  0  0  0  0  0  0  0  0
   -7.0102    2.2503   -0.4843 H   0  0  0  0  0  0  0  0  0  0  0  0
   -6.7110   -0.4919   -2.6583 H   0  0  0  0  0  0  0  0  0  0  0  0
   -6.1592   -1.6476   -4.6359 H   0  0  0  0  0  0  0  0  0  0  0  0
   -4.6712   -4.6719   -4.7379 H   0  0  0  0  0  0  0  0  0  0  0  0
   -2.8591   -4.6580   -4.4397 H   0  0  0  0  0  0  0  0  0  0  0  0
   -3.5237   -5.0025   -6.0827 H   0  0  0  0  0  0  0  0  0  0  0  0
   -2.0269   -1.7764   -3.3686 H   0  0  0  0  0  0  0  0  0  0  0  0
   -2.5961   -0.5409   -1.2456 H   0  0  0  0  0  0  0  0  0  0  0  0
   -1.2053    2.8680    0.7765 H   0  0  0  0  0  0  0  0  0  0  0  0
    0.7094    2.7546   -0.6442 H   0  0  0  0  0  0  0  0  0  0  0  0
    2.1548   -2.4201   -3.8122 H   0  0  0  0  0  0  0  0  0  0  0  0
    1.3531   -3.8253   -5.6029 H   0  0  0  0  0  0  0  0  0  0  0  0
    1.0854   -3.8901   -9.3726 H   0  0  0  0  0  0  0  0  0  0  0  0
    1.4799   -2.3617   -8.5084 H   0  0  0  0  0  0  0  0  0  0  0  0
    0.1513   -2.3835   -9.7646 H   0  0  0  0  0  0  0  0  0  0  0  0
   -1.2919   -0.6886   -6.9528 H   0  0  0  0  0  0  0  0  0  0  0  0
   -0.4803    0.7503   -5.1123 H   0  0  0  0  0  0  0  0  0  0  0  0
   -0.4948   -1.4479   -1.9027 H   0  0  0  0  0  0  0  0  0  0  0  0
   -0.0381   -3.1268   -0.1594 H   0  0  0  0  0  0  0  0  0  0  0  0
    3.2666   -6.0323    0.5897 H   0  0  0  0  0  0  0  0  0  0  0  0
    3.3004   -4.8849   -0.8204 H   0  0  0  0  0  0  0  0  0  0  0  0
    1.7486   -5.6720   -0.2619 H   0  0  0  0  0  0  0  0  0  0  0  0
    4.0176   -1.6855    0.1604 H   0  0  0  0  0  0  0  0  0  0  0  0
    3.5398   -0.0185   -1.5439 H   0  0  0  0  0  0  0  0  0  0  0  0
    6.5070    4.8633   -1.6741 H   0  0  0  0  0  0  0  0  0  0  0  0
    6.1406    6.2137    0.3432 H   0  0  0  0  0  0  0  0  0  0  0  0
    2.3283    8.0280    2.3967 H   0  0  0  0  0  0  0  0  0  0  0  0
    3.3927    6.5718    2.3684 H   0  0  0  0  0  0  0  0  0  0  0  0
    2.2548    6.8994    1.0102 H   0  0  0  0  0  0  0  0  0  0  0  0
    2.8679    8.2498   -1.6541 H   0  0  0  0  0  0  0  0  0  0  0  0
    3.2090    6.8395   -3.6591 H   0  0  0  0  0  0  0  0  0  0  0  0
    4.0134    3.5539   -6.1451 H   0  0  0  0  0  0  0  0  0  0  0  0
    4.0997    4.2302   -8.3749 H   0  0  0  0  0  0  0  0  0  0  0  0
    2.9325    7.1593  -10.7482 H   0  0  0  0  0  0  0  0  0  0  0  0
    3.1501    5.3877  -10.3944 H   0  0  0  0  0  0  0  0  0  0  0  0
    2.6684    6.5625   -9.0888 H   0  0  0  0  0  0  0  0  0  0  0  0
    6.0487    7.9283   -7.2189 H   0  0  0  0  0  0  0  0  0  0  0  0
    6.1554    7.1458   -4.8616 H   0  0  0  0  0  0  0  0  0  0  0  0
    7.3707    3.3042   -3.2136 H   0  0  0  0  0  0  0  0  0  0  0  0
    7.2457   -2.9977   -2.8293 H   0  0  0  0  0  0  0  0  0  0  0  0
   10.0747   -0.1045    0.2075 H   0  0  0  0  0  0  0  0  0  0  0  0
   10.8692   -3.4148    0.5953 H   0  0  0  0  0  0  0  0  0  0  0  0
    9.2105   -2.4943    2.6136 H   0  0  0  0  0  0  0  0  0  0  0  0
    9.7435   -5.0566    3.2249 H   0  0  0  0  0  0  0  0  0  0  0  0
    8.3127   -6.5576    1.6358 H   0  0  0  0  0  0  0  0  0  0  0  0
    6.9656   -4.9815   -0.0618 H   0  0  0  0  0  0  0  0  0  0  0  0
    7.1568   -2.4867    0.8995 H   0  0  0  0  0  0  0  0  0  0  0  0
    6.8097   -3.6283    2.2616 H   0  0  0  0  0  0  0  0  0  0  0  0
    9.6324   -4.8539   -0.9167 H   0  0  0  0  0  0  0  0  0  0  0  0
  1  2  2  3
  2  3  1  0
  3  4  2  0
  3  5  1  0
  5  6  2  0
  6  7  1  0
  7  8  2  0
  8  9  1  0
  9 10  2  0
 10 11  1  0
 11 12  2  3
 12 13  1  0
 13 14  3  0
 12 15  1  0
 15 16  3  0
  8 17  1  0
 17 18  1  0
 18 19  1  0
 19 20  2  0
 20 21  1  0
 21 22  1  0
 21 23  1  0
  1 24  1  0
 24 25  2  0
 25 26  1  0
 26 27  1  0
 27 28  2  0
 28 29  1  0
 29 30  2  0
 30 31  1  0
 31 32  1  0
 30 33  1  0
 33 34  2  0
 26 35  1  0
 35 36  2  0
 36 37  1  0
 37 38  2  0
 38 39  1  0
 39 40  1  0
 38 41  1  0
 41 42  2  0
 25 43  1  0
 43 44  1  0
 44 45  1  0
 45 46  2  0
 46 47  1  0
 47 48  1  0
 48 49  2  0
 49 50  1  0
 50 51  2  0
 51 52  1  0
 52 53  1  0
 51 54  1  0
 54 55  2  0
 47 56  1  0
 56 57  2  0
 57 58  1  0
 58 59  2  0
 59 60  1  0
 60 61  1  0
 59 62  1  0
 62 63  2  0
 46 64  1  0
 64 65  1  0
 45 66  1  0
 66 67  2  0
 67 68  1  0
 68 69  2  0
 69 70  1  0
 70 71  2  0
 71 72  1  0
 72 73  1  0
 73 74  2  0
 69 75  1  0
 75 76  2  0
 76 77  1  0
 77 78  1  0
 78 79  2  0
 79 80  1  0
 80 81  2  0
 81 82  1  0
 82 83  1  0
 81 84  1  0
 84 85  2  0
 77 86  1  0
 86 87  2  0
 87 88  1  0
 88 89  2  0
 89 90  1  0
 90 91  1  0
 89 92  1  0
 92 93  2  0
 76 94  1  0
 94 95  1  0
 95 96  1  0
 96 97  2  0
 97 98  1  0
 98 99  1  0
 99100  2  0
100101  1  0
101102  2  0
102103  1  0
103104  1  0
102105  1  0
105106  2  0
 98107  1  0
107108  2  0
108109  1  0
109110  2  0
110111  1  0
111112  1  0
110113  1  0
113114  2  0
 97115  1  0
115116  1  0
 96117  1  0
117118  2  3
118119  1  0
119120  2  0
119121  1  0
121122  2  0
122123  1  0
123124  2  0
124125  1  0
125126  2  0
126127  1  0
127128  2  3
128129  1  0
129130  3  0
128131  1  0
131132  3  0
124133  1  0
133134  1  0
134135  1  0
135136  2  0
136137  1  0
137138  1  0
137139  1  0
 11  2  1  0
 23 17  1  0
 65 24  1  0
 74 66  1  0
116 75  1  0
127118  1  0
139133  1  0
 10  5  1  0
 22 18  1  0
 34 27  1  0
 42 35  1  0
 64 43  2  0
 74 70  1  0
 85 78  1  0
 93 86  1  0
115 94  2  0
126121  1  0
138134  1  0
 23  7  1  0
 55 48  1  0
 63 56  1  0
106 99  1  0
114107  1  0
139123  1  0
  1140  1  0
  6141  1  0
  9142  1  0
 17143  1  0
 18144  1  0
 19145  1  0
 20146  1  0
 21147  1  0
 22148  1  0
 22149  1  0
 23150  1  0
 28151  1  0
 29152  1  0
 32153  1  0
 32154  1  0
 32155  1  0
 33156  1  0
 34157  1  0
 36158  1  0
 37159  1  0
 40160  1  0
 40161  1  0
 40162  1  0
 41163  1  0
 42164  1  0
 49165  1  0
 50166  1  0
 53167  1  0
 53168  1  0
 53169  1  0
 54170  1  0
 55171  1  0
 57172  1  0
 58173  1  0
 61174  1  0
 61175  1  0
 61176  1  0
 62177  1  0
 63178  1  0
 67179  1  0
 68180  1  0
 79181  1  0
 80182  1  0
 83183  1  0
 83184  1  0
 83185  1  0
 84186  1  0
 85187  1  0
 87188  1  0
 88189  1  0
 91190  1  0
 91191  1  0
 91192  1  0
 92193  1  0
 93194  1  0
100195  1  0
101196  1  0
104197  1  0
104198  1  0
104199  1  0
105200  1  0
106201  1  0
108202  1  0
109203  1  0
112204  1  0
112205  1  0
112206  1  0
113207  1  0
114208  1  0
117209  1  0
122210  1  0
125211  1  0
133212  1  0
134213  1  0
135214  1  0
136215  1  0
137216  1  0
138217  1  0
138218  1  0
139219  1  0
M  END

