
     RDKit          3D

226249  0  0  0  0  0  0  0  0999 V2000
   -0.6813    6.0975    2.5865 C   0  0  0  0  0  0  0  0  0  0  0  0
   -0.4986    6.7143    3.7686 C   0  0  0  0  0  0  0  0  0  0  0  0
   -0.5052    6.0461    5.0758 C   0  0  0  0  0  0  0  0  0  0  0  0
   -0.9218    4.8798    5.3137 O   0  0  0  0  0  0  0  0  0  0  0  0
   -0.0609    6.9767    6.0852 C   0  0  0  0  0  0  0  0  0  0  0  0
    0.3832    6.6340    7.3845 C   0  0  0  0  0  0  0  0  0  0  0  0
    1.0961    7.6361    8.0077 C   0  0  0  0  0  0  0  0  0  0  0  0
    1.3522    8.9113    7.4080 C   0  0  0  0  0  0  0  0  0  0  0  0
    0.9023    9.2587    6.1437 C   0  0  0  0  0  0  0  0  0  0  0  0
    0.1486    8.2433    5.4816 C   0  0  0  0  0  0  0  0  0  0  0  0
   -0.2187    8.1625    4.0346 C   0  0  0  0  0  0  0  0  0  0  0  0
   -0.2222    9.2024    3.1595 C   0  0  0  0  0  0  0  0  0  0  0  0
   -0.1625    9.0180    1.7315 C   0  0  0  0  0  0  0  0  0  0  0  0
   -0.0817    8.8749    0.5831 N   0  0  0  0  0  0  0  0  0  0  0  0
   -0.2232   10.5719    3.6045 C   0  0  0  0  0  0  0  0  0  0  0  0
   -0.2281   11.6708    3.9673 N   0  0  0  0  0  0  0  0  0  0  0  0
    2.2389    9.2892    8.5578 C   0  0  0  0  0  0  0  0  0  0  0  0
    3.7710    9.2512    8.2783 C   0  0  0  0  0  0  0  0  0  0  0  0
    4.4446    9.2677    9.6322 C   0  0  0  0  0  0  0  0  0  0  0  0
    4.2039    8.0737   10.1853 C   0  0  0  0  0  0  0  0  0  0  0  0
    3.3767    7.2957    9.1920 C   0  0  0  0  0  0  0  0  0  0  0  0
    4.0220    7.7974    7.9099 C   0  0  0  0  0  0  0  0  0  0  0  0
    1.9735    7.9806    9.1694 C   0  0  0  0  0  0  0  0  0  0  0  0
   -0.4277    4.6560    2.3971 C   0  0  0  0  0  0  0  0  0  0  0  0
   -1.0208    3.8343    1.4260 C   0  0  0  0  0  0  0  0  0  0  0  0
   -2.0177    4.2591    0.4847 N   0  0  0  0  0  0  0  0  0  0  0  0
   -3.3071    3.5927    0.4350 C   0  0  0  0  0  0  0  0  0  0  0  0
   -3.7754    2.8519    1.5412 C   0  0  0  0  0  0  0  0  0  0  0  0
   -4.9820    2.1497    1.4728 C   0  0  0  0  0  0  0  0  0  0  0  0
   -5.7579    2.1958    0.3092 C   0  0  0  0  0  0  0  0  0  0  0  0
   -7.2774    1.2480    0.1943 S   0  0  0  0  0  0  0  0  0  0  0  0
   -8.3068    2.5615    0.9197 C   0  0  0  0  0  0  0  0  0  0  0  0
   -5.3270    2.9549   -0.7827 C   0  0  0  0  0  0  0  0  0  0  0  0
   -4.1137    3.6437   -0.7257 C   0  0  0  0  0  0  0  0  0  0  0  0
   -1.5860    5.1213   -0.5857 C   0  0  0  0  0  0  0  0  0  0  0  0
   -0.5049    4.7480   -1.4014 C   0  0  0  0  0  0  0  0  0  0  0  0
   -0.1269    5.5450   -2.4826 C   0  0  0  0  0  0  0  0  0  0  0  0
   -0.8175    6.7310   -2.7521 C   0  0  0  0  0  0  0  0  0  0  0  0
   -0.3674    7.7267   -4.1721 S   0  0  0  0  0  0  0  0  0  0  0  0
    0.9295    8.6350   -3.2738 C   0  0  0  0  0  0  0  0  0  0  0  0
   -1.8821    7.1224   -1.9311 C   0  0  0  0  0  0  0  0  0  0  0  0
   -2.2642    6.3202   -0.8522 C   0  0  0  0  0  0  0  0  0  0  0  0
   -0.4329    2.5742    1.4137 C   0  0  0  0  0  0  0  0  0  0  0  0
   -0.6533    1.1953    0.4942 S   0  0  0  0  0  0  0  0  0  0  0  0
    0.6180    0.3442    1.2459 C   0  0  0  0  0  0  0  0  0  0  0  0
    1.2353    1.1608    2.2029 C   0  0  0  0  0  0  0  0  0  0  0  0
    2.2571    0.7320    3.1157 N   0  0  0  0  0  0  0  0  0  0  0  0
    3.6271    0.9272    2.7193 C   0  0  0  0  0  0  0  0  0  0  0  0
    4.4689   -0.1749    2.5126 C   0  0  0  0  0  0  0  0  0  0  0  0
    5.8089    0.0170    2.1617 C   0  0  0  0  0  0  0  0  0  0  0  0
    6.3263    1.3125    2.0437 C   0  0  0  0  0  0  0  0  0  0  0  0
    8.0653    1.5593    1.6726 S   0  0  0  0  0  0  0  0  0  0  0  0
    7.7725    2.0122   -0.0642 C   0  0  0  0  0  0  0  0  0  0  0  0
    5.4938    2.4144    2.2654 C   0  0  0  0  0  0  0  0  0  0  0  0
    4.1502    2.2244    2.5886 C   0  0  0  0  0  0  0  0  0  0  0  0
    1.9120    0.3876    4.4843 C   0  0  0  0  0  0  0  0  0  0  0  0
    2.9098    0.1951    5.4638 C   0  0  0  0  0  0  0  0  0  0  0  0
    2.5671   -0.0452    6.7974 C   0  0  0  0  0  0  0  0  0  0  0  0
    1.2236   -0.0884    7.1792 C   0  0  0  0  0  0  0  0  0  0  0  0
    0.7808   -0.2988    8.9026 S   0  0  0  0  0  0  0  0  0  0  0  0
    0.7903    1.4915    9.2368 C   0  0  0  0  0  0  0  0  0  0  0  0
    0.2243    0.0616    6.2173 C   0  0  0  0  0  0  0  0  0  0  0  0
    0.5611    0.2817    4.8811 C   0  0  0  0  0  0  0  0  0  0  0  0
    0.5961    2.3955    2.2767 C   0  0  0  0  0  0  0  0  0  0  0  0
    0.8402    3.7931    3.1576 S   0  0  0  0  0  0  0  0  0  0  0  0
    0.9968   -1.0190    0.8810 C   0  0  0  0  0  0  0  0  0  0  0  0
    0.0924   -2.0740    0.7184 C   0  0  0  0  0  0  0  0  0  0  0  0
   -1.2546   -2.0873    1.2118 N   0  0  0  0  0  0  0  0  0  0  0  0
   -1.4419   -2.3024    2.6282 C   0  0  0  0  0  0  0  0  0  0  0  0
   -0.5911   -3.1774    3.3326 C   0  0  0  0  0  0  0  0  0  0  0  0
   -0.7546   -3.3759    4.7026 C   0  0  0  0  0  0  0  0  0  0  0  0
   -1.7795   -2.7212    5.3883 C   0  0  0  0  0  0  0  0  0  0  0  0
   -1.9786   -2.9813    7.1513 S   0  0  0  0  0  0  0  0  0  0  0  0
   -2.9710   -4.4949    6.9394 C   0  0  0  0  0  0  0  0  0  0  0  0
   -2.6319   -1.8488    4.6997 C   0  0  0  0  0  0  0  0  0  0  0  0
   -2.4585   -1.6330    3.3281 C   0  0  0  0  0  0  0  0  0  0  0  0
   -2.3495   -2.1500    0.2642 C   0  0  0  0  0  0  0  0  0  0  0  0
   -3.5271   -2.8673    0.5548 C   0  0  0  0  0  0  0  0  0  0  0  0
   -4.5546   -2.9615   -0.3871 C   0  0  0  0  0  0  0  0  0  0  0  0
   -4.4221   -2.3500   -1.6358 C   0  0  0  0  0  0  0  0  0  0  0  0
   -5.7484   -2.4611   -2.8365 S   0  0  0  0  0  0  0  0  0  0  0  0
   -5.0564   -3.9314   -3.6534 C   0  0  0  0  0  0  0  0  0  0  0  0
   -3.2566   -1.6452   -1.9429 C   0  0  0  0  0  0  0  0  0  0  0  0
   -2.2266   -1.5511   -1.0065 C   0  0  0  0  0  0  0  0  0  0  0  0
    0.6602   -3.1265    0.0288 C   0  0  0  0  0  0  0  0  0  0  0  0
    0.0603   -4.5264   -0.6182 S   0  0  0  0  0  0  0  0  0  0  0  0
    1.4858   -4.9544   -1.4655 C   0  0  0  0  0  0  0  0  0  0  0  0
    2.4500   -3.9406   -1.2016 C   0  0  0  0  0  0  0  0  0  0  0  0
    3.8348   -3.9407   -1.5912 N   0  0  0  0  0  0  0  0  0  0  0  0
    4.2455   -3.3163   -2.8302 C   0  0  0  0  0  0  0  0  0  0  0  0
    5.4486   -3.7062   -3.4452 C   0  0  0  0  0  0  0  0  0  0  0  0
    5.7836   -3.2340   -4.7156 C   0  0  0  0  0  0  0  0  0  0  0  0
    4.9093   -2.3856   -5.3980 C   0  0  0  0  0  0  0  0  0  0  0  0
    5.2733   -1.8952   -7.0845 S   0  0  0  0  0  0  0  0  0  0  0  0
    4.4519   -3.3596   -7.7948 C   0  0  0  0  0  0  0  0  0  0  0  0
    3.7290   -1.9557   -4.7859 C   0  0  0  0  0  0  0  0  0  0  0  0
    3.4003   -2.4103   -3.5066 C   0  0  0  0  0  0  0  0  0  0  0  0
    4.7894   -4.1836   -0.5334 C   0  0  0  0  0  0  0  0  0  0  0  0
    4.6061   -5.2663    0.3431 C   0  0  0  0  0  0  0  0  0  0  0  0
    5.4563   -5.4488    1.4351 C   0  0  0  0  0  0  0  0  0  0  0  0
    6.5032   -4.5516    1.6652 C   0  0  0  0  0  0  0  0  0  0  0  0
    7.5924   -4.7955    3.0659 S   0  0  0  0  0  0  0  0  0  0  0  0
    6.5831   -3.7912    4.2027 C   0  0  0  0  0  0  0  0  0  0  0  0
    6.7058   -3.4794    0.7915 C   0  0  0  0  0  0  0  0  0  0  0  0
    5.8433   -3.2851   -0.2903 C   0  0  0  0  0  0  0  0  0  0  0  0
    1.9368   -2.9493   -0.3632 C   0  0  0  0  0  0  0  0  0  0  0  0
    2.4695   -1.4320    0.1234 S   0  0  0  0  0  0  0  0  0  0  0  0
    1.4080   -5.9263   -2.5975 C   0  0  0  0  0  0  0  0  0  0  0  0
    0.3405   -6.8404   -2.6186 C   0  0  0  0  0  0  0  0  0  0  0  0
   -0.3512   -7.3388   -1.5793 N   0  0  0  0  0  0  0  0  0  0  0  0
   -1.4460   -7.8774   -2.1086 N   0  0  0  0  0  0  0  0  0  0  0  0
   -2.4899   -8.5218   -1.3194 C   0  0  0  0  0  0  0  0  0  0  0  0
   -1.9645   -9.8113   -0.7020 C   0  0  0  0  0  0  0  0  0  0  0  0
   -1.5176   -7.7082   -3.4246 N   0  0  0  0  0  0  0  0  0  0  0  0
   -0.3798   -7.0765   -3.7531 C   0  0  0  0  0  0  0  0  0  0  0  0
   -0.0478   -6.4768   -4.9663 C   0  0  0  0  0  0  0  0  0  0  0  0
    1.2241   -5.8670   -5.0482 C   0  0  0  0  0  0  0  0  0  0  0  0
    1.9505   -5.5994   -3.8647 C   0  0  0  0  0  0  0  0  0  0  0  0
    1.6521   -5.3473   -6.2263 F   0  0  0  0  0  0  0  0  0  0  0  0
   -1.1019   -6.2299   -5.9697 C   0  0  0  0  0  0  0  0  0  0  0  0
   -1.6999   -5.0213   -6.1220 C   0  0  0  0  0  0  0  0  0  0  0  0
   -1.2810   -3.7732   -5.4439 C   0  0  0  0  0  0  0  0  0  0  0  0
   -0.3155   -3.6244   -4.6553 O   0  0  0  0  0  0  0  0  0  0  0  0
   -2.1450   -2.6960   -5.8509 C   0  0  0  0  0  0  0  0  0  0  0  0
   -1.9751   -1.3281   -5.5348 C   0  0  0  0  0  0  0  0  0  0  0  0
   -2.8870   -0.4937   -6.1466 C   0  0  0  0  0  0  0  0  0  0  0  0
   -3.9267   -0.9751   -7.0040 C   0  0  0  0  0  0  0  0  0  0  0  0
   -4.0888   -2.3166   -7.3237 C   0  0  0  0  0  0  0  0  0  0  0  0
   -3.1509   -3.1964   -6.7093 C   0  0  0  0  0  0  0  0  0  0  0  0
   -2.9456   -4.6704   -6.9013 C   0  0  0  0  0  0  0  0  0  0  0  0
   -3.7694   -5.5084   -7.5851 C   0  0  0  0  0  0  0  0  0  0  0  0
   -3.4689   -6.8902   -7.8480 C   0  0  0  0  0  0  0  0  0  0  0  0
   -3.2363   -8.0043   -8.0559 N   0  0  0  0  0  0  0  0  0  0  0  0
   -5.0961   -5.1151   -7.9837 C   0  0  0  0  0  0  0  0  0  0  0  0
   -6.1727   -4.8183   -8.2977 N   0  0  0  0  0  0  0  0  0  0  0  0
   -4.3905    0.4338   -7.2566 C   0  0  0  0  0  0  0  0  0  0  0  0
   -5.6723    0.9494   -6.5329 C   0  0  0  0  0  0  0  0  0  0  0  0
   -5.8248    0.2736   -5.1902 C   0  0  0  0  0  0  0  0  0  0  0  0
   -4.8383    0.7347   -4.4194 C   0  0  0  0  0  0  0  0  0  0  0  0
   -4.0418    1.6967   -5.2656 C   0  0  0  0  0  0  0  0  0  0  0  0
   -5.1775    2.3078   -6.0608 C   0  0  0  0  0  0  0  0  0  0  0  0
   -3.3047    0.9253   -6.4021 C   0  0  0  0  0  0  0  0  0  0  0  0
   -0.8917    6.6616    1.6974 H   0  0  0  0  0  0  0  0  0  0  0  0
    0.2919    5.6389    7.7979 H   0  0  0  0  0  0  0  0  0  0  0  0
    1.2358   10.1700    5.6761 H   0  0  0  0  0  0  0  0  0  0  0  0
    1.8691   10.1626    9.1440 H   0  0  0  0  0  0  0  0  0  0  0  0
    4.1452   10.0053    7.5558 H   0  0  0  0  0  0  0  0  0  0  0  0
    5.0970   10.0368   10.0314 H   0  0  0  0  0  0  0  0  0  0  0  0
    4.6213    7.7049   11.1146 H   0  0  0  0  0  0  0  0  0  0  0  0
    3.3702    6.1944    9.3362 H   0  0  0  0  0  0  0  0  0  0  0  0
    5.1061    7.5408    7.8264 H   0  0  0  0  0  0  0  0  0  0  0  0
    3.5112    7.4658    6.9786 H   0  0  0  0  0  0  0  0  0  0  0  0
    1.4364    8.0138   10.1431 H   0  0  0  0  0  0  0  0  0  0  0  0
   -3.1970    2.7875    2.4549 H   0  0  0  0  0  0  0  0  0  0  0  0
   -5.3097    1.5667    2.3231 H   0  0  0  0  0  0  0  0  0  0  0  0
   -8.0214    2.7271    1.9786 H   0  0  0  0  0  0  0  0  0  0  0  0
   -8.1960    3.5093    0.3474 H   0  0  0  0  0  0  0  0  0  0  0  0
   -9.3720    2.2477    0.8819 H   0  0  0  0  0  0  0  0  0  0  0  0
   -5.9222    2.9954   -1.6868 H   0  0  0  0  0  0  0  0  0  0  0  0
   -3.7948    4.1796   -1.6090 H   0  0  0  0  0  0  0  0  0  0  0  0
    0.0300    3.8273   -1.2116 H   0  0  0  0  0  0  0  0  0  0  0  0
    0.6965    5.2372   -3.1134 H   0  0  0  0  0  0  0  0  0  0  0  0
    1.7549    7.9459   -3.0062 H   0  0  0  0  0  0  0  0  0  0  0  0
    1.3327    9.4317   -3.9333 H   0  0  0  0  0  0  0  0  0  0  0  0
    0.5107    9.0985   -2.3583 H   0  0  0  0  0  0  0  0  0  0  0  0
   -2.4187    8.0384   -2.1338 H   0  0  0  0  0  0  0  0  0  0  0  0
   -3.0944    6.6221   -0.2305 H   0  0  0  0  0  0  0  0  0  0  0  0
    4.0877   -1.1813    2.6342 H   0  0  0  0  0  0  0  0  0  0  0  0
    6.4530   -0.8368    2.0118 H   0  0  0  0  0  0  0  0  0  0  0  0
    7.1942    2.9599   -0.1097 H   0  0  0  0  0  0  0  0  0  0  0  0
    8.7532    2.1744   -0.5618 H   0  0  0  0  0  0  0  0  0  0  0  0
    7.2225    1.2058   -0.5931 H   0  0  0  0  0  0  0  0  0  0  0  0
    5.8869    3.4206    2.1868 H   0  0  0  0  0  0  0  0  0  0  0  0
    3.5275    3.0864    2.7702 H   0  0  0  0  0  0  0  0  0  0  0  0
    3.9602    0.2545    5.2142 H   0  0  0  0  0  0  0  0  0  0  0  0
    3.3477   -0.1646    7.5381 H   0  0  0  0  0  0  0  0  0  0  0  0
    1.8203    1.8876    9.1282 H   0  0  0  0  0  0  0  0  0  0  0  0
    0.1110    2.0226    8.5405 H   0  0  0  0  0  0  0  0  0  0  0  0
    0.4492    1.6713   10.2784 H   0  0  0  0  0  0  0  0  0  0  0  0
   -0.8184    0.0285    6.5076 H   0  0  0  0  0  0  0  0  0  0  0  0
   -0.2458    0.4062    4.1694 H   0  0  0  0  0  0  0  0  0  0  0  0
    0.1956   -3.7172    2.8190 H   0  0  0  0  0  0  0  0  0  0  0  0
   -0.0887   -4.0502    5.2271 H   0  0  0  0  0  0  0  0  0  0  0  0
   -3.2795   -4.8711    7.9374 H   0  0  0  0  0  0  0  0  0  0  0  0
   -3.8789   -4.2771    6.3398 H   0  0  0  0  0  0  0  0  0  0  0  0
   -2.3681   -5.2781    6.4351 H   0  0  0  0  0  0  0  0  0  0  0  0
   -3.4195   -1.3300    5.2286 H   0  0  0  0  0  0  0  0  0  0  0  0
   -3.1140   -0.9443    2.8106 H   0  0  0  0  0  0  0  0  0  0  0  0
   -3.6384   -3.3791    1.5014 H   0  0  0  0  0  0  0  0  0  0  0  0
   -5.4511   -3.5188   -0.1480 H   0  0  0  0  0  0  0  0  0  0  0  0
   -5.7316   -4.2445   -4.4774 H   0  0  0  0  0  0  0  0  0  0  0  0
   -4.0638   -3.6869   -4.0756 H   0  0  0  0  0  0  0  0  0  0  0  0
   -4.9576   -4.7622   -2.9266 H   0  0  0  0  0  0  0  0  0  0  0  0
   -3.1375   -1.1840   -2.9130 H   0  0  0  0  0  0  0  0  0  0  0  0
   -1.3274   -1.0135   -1.2832 H   0  0  0  0  0  0  0  0  0  0  0  0
    6.1083   -4.4125   -2.9589 H   0  0  0  0  0  0  0  0  0  0  0  0
    6.7005   -3.5681   -5.1858 H   0  0  0  0  0  0  0  0  0  0  0  0
    4.4741   -3.2927   -8.9022 H   0  0  0  0  0  0  0  0  0  0  0  0
    4.9876   -4.2798   -7.4814 H   0  0  0  0  0  0  0  0  0  0  0  0
    3.3965   -3.4116   -7.4549 H   0  0  0  0  0  0  0  0  0  0  0  0
    3.0498   -1.3002   -5.3142 H   0  0  0  0  0  0  0  0  0  0  0  0
    2.4635   -2.0932   -3.0747 H   0  0  0  0  0  0  0  0  0  0  0  0
    3.7884   -5.9608    0.1910 H   0  0  0  0  0  0  0  0  0  0  0  0
    5.2960   -6.2844    2.1075 H   0  0  0  0  0  0  0  0  0  0  0  0
    6.6239   -2.7210    3.9065 H   0  0  0  0  0  0  0  0  0  0  0  0
    5.5334   -4.1433    4.2010 H   0  0  0  0  0  0  0  0  0  0  0  0
    6.9918   -3.8921    5.2307 H   0  0  0  0  0  0  0  0  0  0  0  0
    7.5235   -2.7878    0.9580 H   0  0  0  0  0  0  0  0  0  0  0  0
    5.9935   -2.4225   -0.9290 H   0  0  0  0  0  0  0  0  0  0  0  0
   -3.3605   -8.7575   -1.9666 H   0  0  0  0  0  0  0  0  0  0  0  0
   -2.8254   -7.8308   -0.5184 H   0  0  0  0  0  0  0  0  0  0  0  0
   -1.6262  -10.5044   -1.5032 H   0  0  0  0  0  0  0  0  0  0  0  0
   -2.7725  -10.3013   -0.1181 H   0  0  0  0  0  0  0  0  0  0  0  0
   -1.1169   -9.5918   -0.0148 H   0  0  0  0  0  0  0  0  0  0  0  0
    2.8284   -5.0008   -3.9509 H   0  0  0  0  0  0  0  0  0  0  0  0
   -1.4882   -7.1136   -6.4354 H   0  0  0  0  0  0  0  0  0  0  0  0
   -1.1755   -0.9540   -4.9082 H   0  0  0  0  0  0  0  0  0  0  0  0
   -4.8316   -2.6109   -8.0463 H   0  0  0  0  0  0  0  0  0  0  0  0
   -4.2932    0.7549   -8.3190 H   0  0  0  0  0  0  0  0  0  0  0  0
   -6.5913    0.9664   -7.1569 H   0  0  0  0  0  0  0  0  0  0  0  0
   -6.6487   -0.3487   -4.8637 H   0  0  0  0  0  0  0  0  0  0  0  0
   -4.7323    0.5537   -3.3561 H   0  0  0  0  0  0  0  0  0  0  0  0
   -3.4125    2.4153   -4.6966 H   0  0  0  0  0  0  0  0  0  0  0  0
   -5.9186    2.8520   -5.4260 H   0  0  0  0  0  0  0  0  0  0  0  0
   -4.8359    2.9727   -6.8906 H   0  0  0  0  0  0  0  0  0  0  0  0
   -2.5416    1.5205   -6.9543 H   0  0  0  0  0  0  0  0  0  0  0  0
  1  2  2  3
  2  3  1  0
  3  4  2  0
  3  5  1  0
  5  6  2  0
  6  7  1  0
  7  8  2  0
  8  9  1  0
  9 10  2  0
 10 11  1  0
 11 12  2  3
 12 13  1  0
 13 14  3  0
 12 15  1  0
 15 16  3  0
  8 17  1  0
 17 18  1  0
 18 19  1  0
 19 20  2  0
 20 21  1  0
 21 22  1  0
 21 23  1  0
  1 24  1  0
 24 25  2  0
 25 26  1  0
 26 27  1  0
 27 28  2  0
 28 29  1  0
 29 30  2  0
 30 31  1  0
 31 32  1  0
 30 33  1  0
 33 34  2  0
 26 35  1  0
 35 36  2  0
 36 37  1  0
 37 38  2  0
 38 39  1  0
 39 40  1  0
 38 41  1  0
 41 42  2  0
 25 43  1  0
 43 44  1  0
 44 45  1  0
 45 46  2  0
 46 47  1  0
 47 48  1  0
 48 49  2  0
 49 50  1  0
 50 51  2  0
 51 52  1  0
 52 53  1  0
 51 54  1  0
 54 55  2  0
 47 56  1  0
 56 57  2  0
 57 58  1  0
 58 59  2  0
 59 60  1  0
 60 61  1  0
 59 62  1  0
 62 63  2  0
 46 64  1  0
 64 65  1  0
 45 66  1  0
 66 67  2  0
 67 68  1  0
 68 69  1  0
 69 70  2  0
 70 71  1  0
 71 72  2  0
 72 73  1  0
 73 74  1  0
 72 75  1  0
 75 76  2  0
 68 77  1  0
 77 78  2  0
 78 79  1  0
 79 80  2  0
 80 81  1  0
 81 82  1  0
 80 83  1  0
 83 84  2  0
 67 85  1  0
 85 86  1  0
 86 87  1  0
 87 88  2  0
 88 89  1  0
 89 90  1  0
 90 91  2  0
 91 92  1  0
 92 93  2  0
 93 94  1  0
 94 95  1  0
 93 96  1  0
 96 97  2  0
 89 98  1  0
 98 99  2  0
 99100  1  0
100101  2  0
101102  1  0
102103  1  0
101104  1  0
104105  2  0
 88106  1  0
106107  1  0
 87108  1  0
108109  1  0
109110  2  0
110111  1  0
111112  1  0
112113  1  0
111114  1  0
114115  2  0
115116  1  0
116117  2  0
117118  1  0
117119  1  0
116120  1  0
120121  2  3
121122  1  0
122123  2  0
122124  1  0
124125  2  0
125126  1  0
126127  2  0
127128  1  0
128129  2  0
129130  1  0
130131  2  3
131132  1  0
132133  3  0
131134  1  0
134135  3  0
127136  1  0
136137  1  0
137138  1  0
138139  2  0
139140  1  0
140141  1  0
140142  1  0
 11  2  1  0
 23 17  1  0
 65 24  1  0
107 66  1  0
118108  2  0
130121  1  0
142136  1  0
 10  5  1  0
 22 18  1  0
 34 27  1  0
 42 35  1  0
 64 43  2  0
 76 69  1  0
 84 77  1  0
106 85  2  0
115109  1  0
129124  1  0
141137  1  0
 23  7  1  0
 55 48  1  0
 63 56  1  0
 97 90  1  0
105 98  1  0
142126  1  0
  1143  1  0
  6144  1  0
  9145  1  0
 17146  1  0
 18147  1  0
 19148  1  0
 20149  1  0
 21150  1  0
 22151  1  0
 22152  1  0
 23153  1  0
 28154  1  0
 29155  1  0
 32156  1  0
 32157  1  0
 32158  1  0
 33159  1  0
 34160  1  0
 36161  1  0
 37162  1  0
 40163  1  0
 40164  1  0
 40165  1  0
 41166  1  0
 42167  1  0
 49168  1  0
 50169  1  0
 53170  1  0
 53171  1  0
 53172  1  0
 54173  1  0
 55174  1  0
 57175  1  0
 58176  1  0
 61177  1  0
 61178  1  0
 61179  1  0
 62180  1  0
 63181  1  0
 70182  1  0
 71183  1  0
 74184  1  0
 74185  1  0
 74186  1  0
 75187  1  0
 76188  1  0
 78189  1  0
 79190  1  0
 82191  1  0
 82192  1  0
 82193  1  0
 83194  1  0
 84195  1  0
 91196  1  0
 92197  1  0
 95198  1  0
 95199  1  0
 95200  1  0
 96201  1  0
 97202  1  0
 99203  1  0
100204  1  0
103205  1  0
103206  1  0
103207  1  0
104208  1  0
105209  1  0
112210  1  0
112211  1  0
113212  1  0
113213  1  0
113214  1  0
118215  1  0
120216  1  0
125217  1  0
128218  1  0
136219  1  0
137220  1  0
138221  1  0
139222  1  0
140223  1  0
141224  1  0
141225  1  0
142226  1  0
M  END

