
     RDKit          3D

172190  0  0  0  0  0  0  0  0999 V2000
   -5.3967    2.6773   -2.7266 C   0  0  0  0  0  0  0  0  0  0  0  0
   -4.8649    3.7898   -2.1794 C   0  0  0  0  0  0  0  0  0  0  0  0
   -5.4883    4.4262   -1.0131 C   0  0  0  0  0  0  0  0  0  0  0  0
   -6.7174    4.4263   -0.7437 O   0  0  0  0  0  0  0  0  0  0  0  0
   -4.4368    4.9682   -0.1740 C   0  0  0  0  0  0  0  0  0  0  0  0
   -4.5658    5.5333    1.1150 C   0  0  0  0  0  0  0  0  0  0  0  0
   -3.3574    5.8883    1.6942 C   0  0  0  0  0  0  0  0  0  0  0  0
   -2.0929    5.6754    1.0545 C   0  0  0  0  0  0  0  0  0  0  0  0
   -1.9643    5.1177   -0.2090 C   0  0  0  0  0  0  0  0  0  0  0  0
   -3.1966    4.7869   -0.8310 C   0  0  0  0  0  0  0  0  0  0  0  0
   -3.4426    4.2230   -2.1771 C   0  0  0  0  0  0  0  0  0  0  0  0
   -2.7721    4.6101   -3.2884 C   0  0  0  0  0  0  0  0  0  0  0  0
   -1.4425    5.1528   -3.2392 C   0  0  0  0  0  0  0  0  0  0  0  0
   -0.3687    5.5830   -3.2186 N   0  0  0  0  0  0  0  0  0  0  0  0
   -3.4229    4.6562   -4.5778 C   0  0  0  0  0  0  0  0  0  0  0  0
   -3.9377    4.6981   -5.6133 N   0  0  0  0  0  0  0  0  0  0  0  0
   -1.3778    6.2230    2.2519 C   0  0  0  0  0  0  0  0  0  0  0  0
   -0.6782    5.1859    3.1769 C   0  0  0  0  0  0  0  0  0  0  0  0
   -0.3860    5.9165    4.4676 C   0  0  0  0  0  0  0  0  0  0  0  0
   -1.5685    6.1209    5.0633 C   0  0  0  0  0  0  0  0  0  0  0  0
   -2.6157    5.5207    4.1573 C   0  0  0  0  0  0  0  0  0  0  0  0
   -1.8296    4.3195    3.6589 C   0  0  0  0  0  0  0  0  0  0  0  0
   -2.6723    6.4446    2.9020 C   0  0  0  0  0  0  0  0  0  0  0  0
   -4.5940    1.5145   -3.1811 C   0  0  0  0  0  0  0  0  0  0  0  0
   -4.6083    0.2220   -2.5945 C   0  0  0  0  0  0  0  0  0  0  0  0
   -5.3939   -0.1438   -1.4351 N   0  0  0  0  0  0  0  0  0  0  0  0
   -4.8272   -0.9579   -0.3939 C   0  0  0  0  0  0  0  0  0  0  0  0
   -5.3232   -2.2480   -0.1687 C   0  0  0  0  0  0  0  0  0  0  0  0
   -4.6911   -3.0950    0.7446 C   0  0  0  0  0  0  0  0  0  0  0  0
   -3.5807   -2.6435    1.4711 C   0  0  0  0  0  0  0  0  0  0  0  0
   -2.7289   -3.7558    2.5907 S   0  0  0  0  0  0  0  0  0  0  0  0
   -3.7727   -3.3300    4.0196 C   0  0  0  0  0  0  0  0  0  0  0  0
   -3.1019   -1.3387    1.2717 C   0  0  0  0  0  0  0  0  0  0  0  0
   -3.7253   -0.4971    0.3406 C   0  0  0  0  0  0  0  0  0  0  0  0
   -6.7666    0.2540   -1.3058 C   0  0  0  0  0  0  0  0  0  0  0  0
   -7.1854    0.9678   -0.1693 C   0  0  0  0  0  0  0  0  0  0  0  0
   -8.4848    1.4724   -0.0945 C   0  0  0  0  0  0  0  0  0  0  0  0
   -9.3791    1.2663   -1.1558 C   0  0  0  0  0  0  0  0  0  0  0  0
  -10.9948    2.0369   -1.1284 S   0  0  0  0  0  0  0  0  0  0  0  0
  -10.4104    3.5447   -1.9699 C   0  0  0  0  0  0  0  0  0  0  0  0
   -8.9875    0.5016   -2.2649 C   0  0  0  0  0  0  0  0  0  0  0  0
   -7.6793    0.0105   -2.3444 C   0  0  0  0  0  0  0  0  0  0  0  0
   -3.5569   -0.5624   -3.0972 C   0  0  0  0  0  0  0  0  0  0  0  0
   -2.7605   -1.8952   -2.5171 S   0  0  0  0  0  0  0  0  0  0  0  0
   -1.2525   -1.6607   -3.2964 C   0  0  0  0  0  0  0  0  0  0  0  0
   -1.4248   -0.4764   -4.0651 C   0  0  0  0  0  0  0  0  0  0  0  0
   -0.3796    0.3632   -4.5751 N   0  0  0  0  0  0  0  0  0  0  0  0
    0.2445    1.3446   -3.6956 C   0  0  0  0  0  0  0  0  0  0  0  0
    1.2126    2.2451   -4.1831 C   0  0  0  0  0  0  0  0  0  0  0  0
    1.8296    3.1656   -3.3334 C   0  0  0  0  0  0  0  0  0  0  0  0
    1.4799    3.2234   -1.9828 C   0  0  0  0  0  0  0  0  0  0  0  0
    2.2541    4.4197   -0.8940 S   0  0  0  0  0  0  0  0  0  0  0  0
    3.6313    3.3096   -0.4690 C   0  0  0  0  0  0  0  0  0  0  0  0
    0.5086    2.3569   -1.4815 C   0  0  0  0  0  0  0  0  0  0  0  0
   -0.0955    1.4184   -2.3217 C   0  0  0  0  0  0  0  0  0  0  0  0
   -0.3543    0.4647   -6.0161 C   0  0  0  0  0  0  0  0  0  0  0  0
   -0.6194    1.6838   -6.6693 C   0  0  0  0  0  0  0  0  0  0  0  0
   -0.6245    1.7455   -8.0698 C   0  0  0  0  0  0  0  0  0  0  0  0
   -0.3935    0.5934   -8.8259 C   0  0  0  0  0  0  0  0  0  0  0  0
   -0.3473    0.6847  -10.6133 S   0  0  0  0  0  0  0  0  0  0  0  0
    1.4533    0.9310  -10.6728 C   0  0  0  0  0  0  0  0  0  0  0  0
   -0.2043   -0.6338   -8.1837 C   0  0  0  0  0  0  0  0  0  0  0  0
   -0.2063   -0.6997   -6.7896 C   0  0  0  0  0  0  0  0  0  0  0  0
   -2.7209    0.0486   -3.9613 C   0  0  0  0  0  0  0  0  0  0  0  0
   -3.2779    1.5963   -4.2467 S   0  0  0  0  0  0  0  0  0  0  0  0
   -0.0032   -2.3702   -2.8051 C   0  0  0  0  0  0  0  0  0  0  0  0
   -0.1736   -3.4052   -1.8459 C   0  0  0  0  0  0  0  0  0  0  0  0
   -1.3492   -4.0683   -1.7014 F   0  0  0  0  0  0  0  0  0  0  0  0
    0.8540   -3.7618   -0.9808 C   0  0  0  0  0  0  0  0  0  0  0  0
    0.6035   -4.6465    0.0208 F   0  0  0  0  0  0  0  0  0  0  0  0
    2.1033   -3.1695   -1.0988 C   0  0  0  0  0  0  0  0  0  0  0  0
    2.3814   -2.3761   -2.2128 C   0  0  0  0  0  0  0  0  0  0  0  0
    3.6632   -2.0452   -2.4977 N   0  0  0  0  0  0  0  0  0  0  0  0
    4.0093   -1.3985   -3.6384 C   0  0  0  0  0  0  0  0  0  0  0  0
    5.4809   -1.2599   -3.9346 C   0  0  0  0  0  0  0  0  0  0  0  0
    6.0350   -2.5719   -4.4838 C   0  0  0  0  0  0  0  0  0  0  0  0
    2.9957   -1.0605   -4.5639 C   0  0  0  0  0  0  0  0  0  0  0  0
    1.6940   -1.3501   -4.2477 N   0  0  0  0  0  0  0  0  0  0  0  0
    1.3447   -1.9869   -3.0958 C   0  0  0  0  0  0  0  0  0  0  0  0
    3.3119   -0.5099   -5.9384 C   0  0  0  0  0  0  0  0  0  0  0  0
    3.8322    0.9363   -5.9213 C   0  0  0  0  0  0  0  0  0  0  0  0
    3.0683   -3.3617   -0.0080 C   0  0  0  0  0  0  0  0  0  0  0  0
    3.8668   -4.5087    0.0667 C   0  0  0  0  0  0  0  0  0  0  0  0
    4.5337   -4.7907    1.2580 C   0  0  0  0  0  0  0  0  0  0  0  0
    4.3525   -3.9468    2.3565 C   0  0  0  0  0  0  0  0  0  0  0  0
    3.6205   -2.8106    2.2046 N   0  0  0  0  0  0  0  0  0  0  0  0
    2.9965   -2.5320    1.0627 N   0  0  0  0  0  0  0  0  0  0  0  0
    4.9157   -4.2919    3.6752 C   0  0  0  0  0  0  0  0  0  0  0  0
    4.3313   -3.9751    4.8488 C   0  0  0  0  0  0  0  0  0  0  0  0
    5.0888   -3.8329    6.0941 C   0  0  0  0  0  0  0  0  0  0  0  0
    6.2405   -4.3016    6.3183 O   0  0  0  0  0  0  0  0  0  0  0  0
    4.3390   -2.9814    6.9942 C   0  0  0  0  0  0  0  0  0  0  0  0
    4.7668   -2.4401    8.2319 C   0  0  0  0  0  0  0  0  0  0  0  0
    3.8858   -1.5191    8.7734 C   0  0  0  0  0  0  0  0  0  0  0  0
    2.6567   -1.1423    8.1389 C   0  0  0  0  0  0  0  0  0  0  0  0
    2.2271   -1.6772    6.9375 C   0  0  0  0  0  0  0  0  0  0  0  0
    3.1062   -2.6402    6.3735 C   0  0  0  0  0  0  0  0  0  0  0  0
    2.9808   -3.3820    5.0947 C   0  0  0  0  0  0  0  0  0  0  0  0
    1.8127   -3.8037    4.5465 C   0  0  0  0  0  0  0  0  0  0  0  0
    0.5346   -3.3251    5.0033 C   0  0  0  0  0  0  0  0  0  0  0  0
   -0.4995   -2.9601    5.3739 N   0  0  0  0  0  0  0  0  0  0  0  0
    1.7666   -4.8593    3.5709 C   0  0  0  0  0  0  0  0  0  0  0  0
    1.7238   -5.7053    2.7828 N   0  0  0  0  0  0  0  0  0  0  0  0
    2.3755   -0.1544    9.2301 C   0  0  0  0  0  0  0  0  0  0  0  0
    2.5738    1.3567    8.9088 C   0  0  0  0  0  0  0  0  0  0  0  0
    3.6606    1.5284    7.8733 C   0  0  0  0  0  0  0  0  0  0  0  0
    4.8055    1.1792    8.4651 C   0  0  0  0  0  0  0  0  0  0  0  0
    4.4585    0.7830    9.8805 C   0  0  0  0  0  0  0  0  0  0  0  0
    3.3497    1.7808   10.1443 C   0  0  0  0  0  0  0  0  0  0  0  0
    3.6329   -0.5383    9.8787 C   0  0  0  0  0  0  0  0  0  0  0  0
   -6.4380    2.4986   -2.5229 H   0  0  0  0  0  0  0  0  0  0  0  0
   -5.5140    5.6569    1.6179 H   0  0  0  0  0  0  0  0  0  0  0  0
   -0.9976    4.9354   -0.6501 H   0  0  0  0  0  0  0  0  0  0  0  0
   -0.8030    7.1490    2.0425 H   0  0  0  0  0  0  0  0  0  0  0  0
    0.1867    4.6400    2.7375 H   0  0  0  0  0  0  0  0  0  0  0  0
    0.5853    6.1453    4.8923 H   0  0  0  0  0  0  0  0  0  0  0  0
   -1.7182    6.5403    6.0526 H   0  0  0  0  0  0  0  0  0  0  0  0
   -3.5895    5.3043    4.6405 H   0  0  0  0  0  0  0  0  0  0  0  0
   -1.5391    3.6132    4.4778 H   0  0  0  0  0  0  0  0  0  0  0  0
   -2.3379    3.7410    2.8526 H   0  0  0  0  0  0  0  0  0  0  0  0
   -2.9136    7.5167    3.1021 H   0  0  0  0  0  0  0  0  0  0  0  0
   -6.1614   -2.6169   -0.7473 H   0  0  0  0  0  0  0  0  0  0  0  0
   -5.0623   -4.1046    0.8788 H   0  0  0  0  0  0  0  0  0  0  0  0
   -3.4348   -3.9173    4.8977 H   0  0  0  0  0  0  0  0  0  0  0  0
   -4.8337   -3.5790    3.8037 H   0  0  0  0  0  0  0  0  0  0  0  0
   -3.6757   -2.2466    4.2533 H   0  0  0  0  0  0  0  0  0  0  0  0
   -2.2372   -0.9873    1.8204 H   0  0  0  0  0  0  0  0  0  0  0  0
   -3.3276    0.4948    0.1701 H   0  0  0  0  0  0  0  0  0  0  0  0
   -6.4888    1.1723    0.6335 H   0  0  0  0  0  0  0  0  0  0  0  0
   -8.7887    2.0566    0.7639 H   0  0  0  0  0  0  0  0  0  0  0  0
  -10.0194    3.2837   -2.9750 H   0  0  0  0  0  0  0  0  0  0  0  0
   -9.6095    4.0354   -1.3750 H   0  0  0  0  0  0  0  0  0  0  0  0
  -11.2595    4.2494   -2.0849 H   0  0  0  0  0  0  0  0  0  0  0  0
   -9.6790    0.3230   -3.0751 H   0  0  0  0  0  0  0  0  0  0  0  0
   -7.3668   -0.5442   -3.2206 H   0  0  0  0  0  0  0  0  0  0  0  0
    1.5070    2.2323   -5.2198 H   0  0  0  0  0  0  0  0  0  0  0  0
    2.5746    3.8461   -3.7339 H   0  0  0  0  0  0  0  0  0  0  0  0
    3.2466    2.3809    0.0031 H   0  0  0  0  0  0  0  0  0  0  0  0
    4.2063    3.0578   -1.3831 H   0  0  0  0  0  0  0  0  0  0  0  0
    4.3030    3.8217    0.2528 H   0  0  0  0  0  0  0  0  0  0  0  0
    0.2253    2.4073   -0.4417 H   0  0  0  0  0  0  0  0  0  0  0  0
   -0.8393    0.7657   -1.8882 H   0  0  0  0  0  0  0  0  0  0  0  0
   -0.8246    2.5789   -6.0991 H   0  0  0  0  0  0  0  0  0  0  0  0
   -0.8123    2.6914   -8.5574 H   0  0  0  0  0  0  0  0  0  0  0  0
    1.7255    1.8924  -10.1903 H   0  0  0  0  0  0  0  0  0  0  0  0
    1.9711    0.0975  -10.1588 H   0  0  0  0  0  0  0  0  0  0  0  0
    1.7843    0.9570  -11.7310 H   0  0  0  0  0  0  0  0  0  0  0  0
   -0.0517   -1.5378   -8.7611 H   0  0  0  0  0  0  0  0  0  0  0  0
   -0.0621   -1.6615   -6.3070 H   0  0  0  0  0  0  0  0  0  0  0  0
    6.0145   -1.0088   -2.9970 H   0  0  0  0  0  0  0  0  0  0  0  0
    5.6934   -0.4506   -4.6523 H   0  0  0  0  0  0  0  0  0  0  0  0
    5.9739   -3.3695   -3.7157 H   0  0  0  0  0  0  0  0  0  0  0  0
    7.0997   -2.4462   -4.7663 H   0  0  0  0  0  0  0  0  0  0  0  0
    5.4671   -2.8950   -5.3815 H   0  0  0  0  0  0  0  0  0  0  0  0
    2.4109   -0.5590   -6.5833 H   0  0  0  0  0  0  0  0  0  0  0  0
    4.0619   -1.1693   -6.4340 H   0  0  0  0  0  0  0  0  0  0  0  0
    3.2308    1.5591   -6.6142 H   0  0  0  0  0  0  0  0  0  0  0  0
    3.7904    1.3801   -4.9034 H   0  0  0  0  0  0  0  0  0  0  0  0
    4.8820    0.9713   -6.2783 H   0  0  0  0  0  0  0  0  0  0  0  0
    3.9139   -5.2063   -0.7582 H   0  0  0  0  0  0  0  0  0  0  0  0
    5.1101   -5.7019    1.3530 H   0  0  0  0  0  0  0  0  0  0  0  0
    5.9059   -4.7288    3.6889 H   0  0  0  0  0  0  0  0  0  0  0  0
    5.7200   -2.6801    8.6909 H   0  0  0  0  0  0  0  0  0  0  0  0
    1.3332   -1.3197    6.4552 H   0  0  0  0  0  0  0  0  0  0  0  0
    1.4697   -0.3926    9.8340 H   0  0  0  0  0  0  0  0  0  0  0  0
    1.6418    1.9301    8.7133 H   0  0  0  0  0  0  0  0  0  0  0  0
    3.5603    1.9380    6.8740 H   0  0  0  0  0  0  0  0  0  0  0  0
    5.7923    1.2466    8.0207 H   0  0  0  0  0  0  0  0  0  0  0  0
    5.3053    0.8117   10.5974 H   0  0  0  0  0  0  0  0  0  0  0  0
    3.6917    2.8469   10.1088 H   0  0  0  0  0  0  0  0  0  0  0  0
    2.7977    1.5997   11.0970 H   0  0  0  0  0  0  0  0  0  0  0  0
    3.4963   -1.0120   10.8786 H   0  0  0  0  0  0  0  0  0  0  0  0
  1  2  2  3
  2  3  1  0
  3  4  2  0
  3  5  1  0
  5  6  2  0
  6  7  1  0
  7  8  2  0
  8  9  1  0
  9 10  2  0
 10 11  1  0
 11 12  2  3
 12 13  1  0
 13 14  3  0
 12 15  1  0
 15 16  3  0
  8 17  1  0
 17 18  1  0
 18 19  1  0
 19 20  2  0
 20 21  1  0
 21 22  1  0
 21 23  1  0
  1 24  1  0
 24 25  2  0
 25 26  1  0
 26 27  1  0
 27 28  2  0
 28 29  1  0
 29 30  2  0
 30 31  1  0
 31 32  1  0
 30 33  1  0
 33 34  2  0
 26 35  1  0
 35 36  2  0
 36 37  1  0
 37 38  2  0
 38 39  1  0
 39 40  1  0
 38 41  1  0
 41 42  2  0
 25 43  1  0
 43 44  1  0
 44 45  1  0
 45 46  2  0
 46 47  1  0
 47 48  1  0
 48 49  2  0
 49 50  1  0
 50 51  2  0
 51 52  1  0
 52 53  1  0
 51 54  1  0
 54 55  2  0
 47 56  1  0
 56 57  2  0
 57 58  1  0
 58 59  2  0
 59 60  1  0
 60 61  1  0
 59 62  1  0
 62 63  2  0
 46 64  1  0
 64 65  1  0
 45 66  1  0
 66 67  2  0
 67 68  1  0
 67 69  1  0
 69 70  1  0
 69 71  2  0
 71 72  1  0
 72 73  2  0
 73 74  1  0
 74 75  1  0
 75 76  1  0
 74 77  2  0
 77 78  1  0
 78 79  2  0
 77 80  1  0
 80 81  1  0
 71 82  1  0
 82 83  2  0
 83 84  1  0
 84 85  2  0
 85 86  1  0
 86 87  2  0
 85 88  1  0
 88 89  2  3
 89 90  1  0
 90 91  2  0
 90 92  1  0
 92 93  2  0
 93 94  1  0
 94 95  2  0
 95 96  1  0
 96 97  2  0
 97 98  1  0
 98 99  2  3
 99100  1  0
100101  3  0
 99102  1  0
102103  3  0
 95104  1  0
104105  1  0
105106  1  0
106107  2  0
107108  1  0
108109  1  0
108110  1  0
 11  2  1  0
 23 17  1  0
 65 24  1  0
 79 66  1  0
 87 82  1  0
 98 89  1  0
110104  1  0
 10  5  1  0
 22 18  1  0
 34 27  1  0
 42 35  1  0
 64 43  2  0
 79 72  1  0
 97 92  1  0
109105  1  0
 23  7  1  0
 55 48  1  0
 63 56  1  0
110 94  1  0
  1111  1  0
  6112  1  0
  9113  1  0
 17114  1  0
 18115  1  0
 19116  1  0
 20117  1  0
 21118  1  0
 22119  1  0
 22120  1  0
 23121  1  0
 28122  1  0
 29123  1  0
 32124  1  0
 32125  1  0
 32126  1  0
 33127  1  0
 34128  1  0
 36129  1  0
 37130  1  0
 40131  1  0
 40132  1  0
 40133  1  0
 41134  1  0
 42135  1  0
 49136  1  0
 50137  1  0
 53138  1  0
 53139  1  0
 53140  1  0
 54141  1  0
 55142  1  0
 57143  1  0
 58144  1  0
 61145  1  0
 61146  1  0
 61147  1  0
 62148  1  0
 63149  1  0
 75150  1  0
 75151  1  0
 76152  1  0
 76153  1  0
 76154  1  0
 80155  1  0
 80156  1  0
 81157  1  0
 81158  1  0
 81159  1  0
 83160  1  0
 84161  1  0
 88162  1  0
 93163  1  0
 96164  1  0
104165  1  0
105166  1  0
106167  1  0
107168  1  0
108169  1  0
109170  1  0
109171  1  0
110172  1  0
M  END

