
     RDKit          3D

174193  0  0  0  0  0  0  0  0999 V2000
    0.3902   -4.2274   -3.4409 C   0  0  0  0  0  0  0  0  0  0  0  0
    0.0189   -4.4350   -4.7173 C   0  0  0  0  0  0  0  0  0  0  0  0
   -1.1997   -3.9632   -5.3845 C   0  0  0  0  0  0  0  0  0  0  0  0
   -2.3300   -3.8018   -4.8573 O   0  0  0  0  0  0  0  0  0  0  0  0
   -0.9200   -3.8366   -6.8046 C   0  0  0  0  0  0  0  0  0  0  0  0
   -1.7239   -3.2067   -7.7857 C   0  0  0  0  0  0  0  0  0  0  0  0
   -1.1038   -3.0727   -9.0138 C   0  0  0  0  0  0  0  0  0  0  0  0
    0.2308   -3.5300   -9.2677 C   0  0  0  0  0  0  0  0  0  0  0  0
    1.0157   -4.1595   -8.3179 C   0  0  0  0  0  0  0  0  0  0  0  0
    0.3849   -4.3270   -7.0569 C   0  0  0  0  0  0  0  0  0  0  0  0
    0.9432   -4.8766   -5.7992 C   0  0  0  0  0  0  0  0  0  0  0  0
    1.9322   -5.8036   -5.6888 C   0  0  0  0  0  0  0  0  0  0  0  0
    2.6855   -6.2663   -6.8204 C   0  0  0  0  0  0  0  0  0  0  0  0
    3.3242   -6.6458   -7.7109 N   0  0  0  0  0  0  0  0  0  0  0  0
    2.2040   -6.4856   -4.4504 C   0  0  0  0  0  0  0  0  0  0  0  0
    2.4231   -7.0446   -3.4581 N   0  0  0  0  0  0  0  0  0  0  0  0
    0.1638   -3.0006  -10.6715 C   0  0  0  0  0  0  0  0  0  0  0  0
   -0.0055   -4.0253  -11.8314 C   0  0  0  0  0  0  0  0  0  0  0  0
   -0.7789   -5.2279  -11.3486 C   0  0  0  0  0  0  0  0  0  0  0  0
   -2.0238   -4.8130  -11.1123 C   0  0  0  0  0  0  0  0  0  0  0  0
   -2.0555   -3.3389  -11.4457 C   0  0  0  0  0  0  0  0  0  0  0  0
   -1.1012   -3.3396  -12.6271 C   0  0  0  0  0  0  0  0  0  0  0  0
   -1.2062   -2.5402  -10.4141 C   0  0  0  0  0  0  0  0  0  0  0  0
   -0.3521   -3.5203   -2.3754 C   0  0  0  0  0  0  0  0  0  0  0  0
    0.0361   -3.5748   -1.0289 C   0  0  0  0  0  0  0  0  0  0  0  0
    1.0753   -4.4218   -0.5144 N   0  0  0  0  0  0  0  0  0  0  0  0
    2.4479   -3.9614   -0.5204 C   0  0  0  0  0  0  0  0  0  0  0  0
    2.7471   -2.5842   -0.5763 C   0  0  0  0  0  0  0  0  0  0  0  0
    4.0686   -2.1415   -0.6010 C   0  0  0  0  0  0  0  0  0  0  0  0
    5.1177   -3.0630   -0.5980 C   0  0  0  0  0  0  0  0  0  0  0  0
    6.8097   -2.4781   -0.6678 S   0  0  0  0  0  0  0  0  0  0  0  0
    6.8609   -2.4884   -2.4873 C   0  0  0  0  0  0  0  0  0  0  0  0
    4.8390   -4.4340   -0.5487 C   0  0  0  0  0  0  0  0  0  0  0  0
    3.5131   -4.8800   -0.5176 C   0  0  0  0  0  0  0  0  0  0  0  0
    0.6705   -5.6554    0.1153 C   0  0  0  0  0  0  0  0  0  0  0  0
    1.1955   -6.0295    1.3636 C   0  0  0  0  0  0  0  0  0  0  0  0
    0.7186   -7.1706    2.0179 C   0  0  0  0  0  0  0  0  0  0  0  0
   -0.2958   -7.9411    1.4376 C   0  0  0  0  0  0  0  0  0  0  0  0
   -0.9577   -9.3647    2.3033 S   0  0  0  0  0  0  0  0  0  0  0  0
   -2.2132   -8.3909    3.1897 C   0  0  0  0  0  0  0  0  0  0  0  0
   -0.8064   -7.5894    0.1852 C   0  0  0  0  0  0  0  0  0  0  0  0
   -0.3300   -6.4534   -0.4715 C   0  0  0  0  0  0  0  0  0  0  0  0
   -0.6299   -2.6403   -0.2546 C   0  0  0  0  0  0  0  0  0  0  0  0
   -0.4025   -2.0676    1.2945 S   0  0  0  0  0  0  0  0  0  0  0  0
   -1.5049   -0.7750    1.1338 C   0  0  0  0  0  0  0  0  0  0  0  0
   -2.0495   -0.8068   -0.1694 C   0  0  0  0  0  0  0  0  0  0  0  0
   -3.1581   -0.0233   -0.6327 N   0  0  0  0  0  0  0  0  0  0  0  0
   -2.9471    1.3237   -1.1152 C   0  0  0  0  0  0  0  0  0  0  0  0
   -1.7218    1.6929   -1.7038 C   0  0  0  0  0  0  0  0  0  0  0  0
   -1.5563    2.9641   -2.2641 C   0  0  0  0  0  0  0  0  0  0  0  0
   -2.6061    3.8887   -2.2377 C   0  0  0  0  0  0  0  0  0  0  0  0
   -2.4389    5.4533   -3.1020 S   0  0  0  0  0  0  0  0  0  0  0  0
   -2.0780    6.4244   -1.6090 C   0  0  0  0  0  0  0  0  0  0  0  0
   -3.8109    3.5505   -1.6141 C   0  0  0  0  0  0  0  0  0  0  0  0
   -3.9751    2.2827   -1.0457 C   0  0  0  0  0  0  0  0  0  0  0  0
   -4.4110   -0.7244   -0.8269 C   0  0  0  0  0  0  0  0  0  0  0  0
   -4.7922   -1.7465    0.0692 C   0  0  0  0  0  0  0  0  0  0  0  0
   -5.9728   -2.4653   -0.1280 C   0  0  0  0  0  0  0  0  0  0  0  0
   -6.7932   -2.1754   -1.2185 C   0  0  0  0  0  0  0  0  0  0  0  0
   -8.3188   -3.0918   -1.4519 S   0  0  0  0  0  0  0  0  0  0  0  0
   -7.5447   -4.3861   -2.4694 C   0  0  0  0  0  0  0  0  0  0  0  0
   -6.4197   -1.1810   -2.1297 C   0  0  0  0  0  0  0  0  0  0  0  0
   -5.2361   -0.4593   -1.9356 C   0  0  0  0  0  0  0  0  0  0  0  0
   -1.5130   -1.8586   -0.9131 C   0  0  0  0  0  0  0  0  0  0  0  0
   -1.5135   -2.2689   -2.5445 S   0  0  0  0  0  0  0  0  0  0  0  0
   -1.5771    0.2903    2.1499 C   0  0  0  0  0  0  0  0  0  0  0  0
   -2.6828    0.9713    2.6781 C   0  0  0  0  0  0  0  0  0  0  0  0
   -4.0400    0.8446    2.2234 C   0  0  0  0  0  0  0  0  0  0  0  0
   -5.1422    0.7806    1.8677 N   0  0  0  0  0  0  0  0  0  0  0  0
   -2.3709    1.7522    3.8043 C   0  0  0  0  0  0  0  0  0  0  0  0
   -1.0329    1.6832    4.1735 C   0  0  0  0  0  0  0  0  0  0  0  0
   -0.2404    0.6846    3.0918 S   0  0  0  0  0  0  0  0  0  0  0  0
   -0.4088    2.2802    5.3694 C   0  0  0  0  0  0  0  0  0  0  0  0
    0.3676    1.5110    6.2600 C   0  0  0  0  0  0  0  0  0  0  0  0
    0.5232    0.1133    6.2364 C   0  0  0  0  0  0  0  0  0  0  0  0
    1.3714   -0.3641    7.2353 C   0  0  0  0  0  0  0  0  0  0  0  0
    1.6803   -1.8031    7.5316 C   0  0  0  0  0  0  0  0  0  0  0  0
    1.8810   -2.6303    6.2622 C   0  0  0  0  0  0  0  0  0  0  0  0
    1.8590    0.9307    8.1952 S   0  0  0  0  0  0  0  0  0  0  0  0
    1.0476    2.1199    7.3211 C   0  0  0  0  0  0  0  0  0  0  0  0
    0.9931    3.5054    7.5684 C   0  0  0  0  0  0  0  0  0  0  0  0
    0.1224    4.2523    6.7410 C   0  0  0  0  0  0  0  0  0  0  0  0
   -0.5343    3.6453    5.6594 C   0  0  0  0  0  0  0  0  0  0  0  0
   -1.4980    4.7881    4.8772 S   0  0  0  0  0  0  0  0  0  0  0  0
   -1.1422    6.0447    5.9390 C   0  0  0  0  0  0  0  0  0  0  0  0
   -1.7528    7.4106    5.8806 C   0  0  0  0  0  0  0  0  0  0  0  0
   -0.9329    8.3362    4.9893 C   0  0  0  0  0  0  0  0  0  0  0  0
   -0.2447    5.5984    6.9060 C   0  0  0  0  0  0  0  0  0  0  0  0
    1.8150    4.1297    8.6413 C   0  0  0  0  0  0  0  0  0  0  0  0
    2.8897    4.8817    8.3408 C   0  0  0  0  0  0  0  0  0  0  0  0
    2.7015    6.3079    8.0628 C   0  0  0  0  0  0  0  0  0  0  0  0
    2.0885    7.1113    8.8152 O   0  0  0  0  0  0  0  0  0  0  0  0
    3.3555    6.6716    6.8270 C   0  0  0  0  0  0  0  0  0  0  0  0
    3.3070    7.9148    6.1557 C   0  0  0  0  0  0  0  0  0  0  0  0
    4.0137    7.9372    4.9681 C   0  0  0  0  0  0  0  0  0  0  0  0
    4.7233    6.8022    4.4582 C   0  0  0  0  0  0  0  0  0  0  0  0
    4.7537    5.5753    5.0996 C   0  0  0  0  0  0  0  0  0  0  0  0
    4.0473    5.5430    6.3349 C   0  0  0  0  0  0  0  0  0  0  0  0
    3.8757    4.4383    7.3090 C   0  0  0  0  0  0  0  0  0  0  0  0
    4.6673    3.3485    7.4501 C   0  0  0  0  0  0  0  0  0  0  0  0
    4.6511    2.5702    8.6648 C   0  0  0  0  0  0  0  0  0  0  0  0
    4.6452    1.9506    9.6423 N   0  0  0  0  0  0  0  0  0  0  0  0
    5.6801    2.9898    6.4926 C   0  0  0  0  0  0  0  0  0  0  0  0
    6.4990    2.6848    5.7339 N   0  0  0  0  0  0  0  0  0  0  0  0
    5.1596    7.5923    3.2576 C   0  0  0  0  0  0  0  0  0  0  0  0
    4.4675    7.2888    1.8951 C   0  0  0  0  0  0  0  0  0  0  0  0
    3.0558    6.8079    2.1344 C   0  0  0  0  0  0  0  0  0  0  0  0
    2.3719    7.8517    2.6065 C   0  0  0  0  0  0  0  0  0  0  0  0
    3.3431    9.0109    2.6754 C   0  0  0  0  0  0  0  0  0  0  0  0
    4.1632    8.7009    1.4322 C   0  0  0  0  0  0  0  0  0  0  0  0
    4.4173    8.7481    3.7734 C   0  0  0  0  0  0  0  0  0  0  0  0
    1.3882   -4.5205   -3.1523 H   0  0  0  0  0  0  0  0  0  0  0  0
   -2.7069   -2.8093   -7.5776 H   0  0  0  0  0  0  0  0  0  0  0  0
    2.0389   -4.4223   -8.5255 H   0  0  0  0  0  0  0  0  0  0  0  0
    0.8785   -2.1746  -10.8746 H   0  0  0  0  0  0  0  0  0  0  0  0
    0.9241   -4.2603  -12.3970 H   0  0  0  0  0  0  0  0  0  0  0  0
   -0.4218   -6.2495  -11.2593 H   0  0  0  0  0  0  0  0  0  0  0  0
   -2.8570   -5.4341  -10.7993 H   0  0  0  0  0  0  0  0  0  0  0  0
   -3.0646   -2.9269  -11.6494 H   0  0  0  0  0  0  0  0  0  0  0  0
   -1.4645   -3.9415  -13.4934 H   0  0  0  0  0  0  0  0  0  0  0  0
   -0.8264   -2.3143  -12.9742 H   0  0  0  0  0  0  0  0  0  0  0  0
   -1.3192   -1.4345  -10.4687 H   0  0  0  0  0  0  0  0  0  0  0  0
    1.9651   -1.8367   -0.5853 H   0  0  0  0  0  0  0  0  0  0  0  0
    4.2784   -1.0803   -0.6343 H   0  0  0  0  0  0  0  0  0  0  0  0
    7.8331   -2.0790   -2.8279 H   0  0  0  0  0  0  0  0  0  0  0  0
    6.7549   -3.5284   -2.8589 H   0  0  0  0  0  0  0  0  0  0  0  0
    6.0449   -1.8615   -2.9054 H   0  0  0  0  0  0  0  0  0  0  0  0
    5.6468   -5.1544   -0.5506 H   0  0  0  0  0  0  0  0  0  0  0  0
    3.3208   -5.9453   -0.5088 H   0  0  0  0  0  0  0  0  0  0  0  0
    1.9432   -5.4181    1.8513 H   0  0  0  0  0  0  0  0  0  0  0  0
    1.1173   -7.4401    2.9888 H   0  0  0  0  0  0  0  0  0  0  0  0
   -2.9010   -7.9022    2.4673 H   0  0  0  0  0  0  0  0  0  0  0  0
   -2.7984   -9.0661    3.8463 H   0  0  0  0  0  0  0  0  0  0  0  0
   -1.7188   -7.6190    3.8142 H   0  0  0  0  0  0  0  0  0  0  0  0
   -1.5882   -8.1825   -0.2715 H   0  0  0  0  0  0  0  0  0  0  0  0
   -0.7540   -6.1865   -1.4290 H   0  0  0  0  0  0  0  0  0  0  0  0
   -0.9096    0.9815   -1.7791 H   0  0  0  0  0  0  0  0  0  0  0  0
   -0.6248    3.2142   -2.7528 H   0  0  0  0  0  0  0  0  0  0  0  0
   -3.0011    6.5199   -1.0015 H   0  0  0  0  0  0  0  0  0  0  0  0
   -1.7414    7.4360   -1.9131 H   0  0  0  0  0  0  0  0  0  0  0  0
   -1.2786    5.9416   -1.0114 H   0  0  0  0  0  0  0  0  0  0  0  0
   -4.6269    4.2605   -1.5836 H   0  0  0  0  0  0  0  0  0  0  0  0
   -4.9207    2.0409   -0.5827 H   0  0  0  0  0  0  0  0  0  0  0  0
   -4.1742   -1.9928    0.9224 H   0  0  0  0  0  0  0  0  0  0  0  0
   -6.2497   -3.2401    0.5739 H   0  0  0  0  0  0  0  0  0  0  0  0
   -8.3384   -5.0547   -2.8621 H   0  0  0  0  0  0  0  0  0  0  0  0
   -6.8399   -4.9853   -1.8574 H   0  0  0  0  0  0  0  0  0  0  0  0
   -7.0057   -3.9323   -3.3262 H   0  0  0  0  0  0  0  0  0  0  0  0
   -7.0433   -0.9726   -2.9898 H   0  0  0  0  0  0  0  0  0  0  0  0
   -4.9488    0.2792   -2.6745 H   0  0  0  0  0  0  0  0  0  0  0  0
   -3.1154    2.2991    4.3671 H   0  0  0  0  0  0  0  0  0  0  0  0
    0.0182   -0.5416    5.5415 H   0  0  0  0  0  0  0  0  0  0  0  0
    0.8484   -2.2384    8.1270 H   0  0  0  0  0  0  0  0  0  0  0  0
    2.6093   -1.8578    8.1388 H   0  0  0  0  0  0  0  0  0  0  0  0
    2.6254   -2.1447    5.5933 H   0  0  0  0  0  0  0  0  0  0  0  0
    2.2482   -3.6426    6.5310 H   0  0  0  0  0  0  0  0  0  0  0  0
    0.9213   -2.7469    5.7163 H   0  0  0  0  0  0  0  0  0  0  0  0
   -1.8141    7.8369    6.9032 H   0  0  0  0  0  0  0  0  0  0  0  0
   -2.7896    7.3390    5.4791 H   0  0  0  0  0  0  0  0  0  0  0  0
   -0.8677    7.9253    3.9615 H   0  0  0  0  0  0  0  0  0  0  0  0
    0.0914    8.4590    5.4044 H   0  0  0  0  0  0  0  0  0  0  0  0
   -1.4210    9.3345    4.9458 H   0  0  0  0  0  0  0  0  0  0  0  0
    0.0579    6.2152    7.7347 H   0  0  0  0  0  0  0  0  0  0  0  0
    1.9356    3.5139    9.5232 H   0  0  0  0  0  0  0  0  0  0  0  0
    2.7654    8.7724    6.5277 H   0  0  0  0  0  0  0  0  0  0  0  0
    5.2610    4.7335    4.6564 H   0  0  0  0  0  0  0  0  0  0  0  0
    6.2579    7.7565    3.2015 H   0  0  0  0  0  0  0  0  0  0  0  0
    5.0593    6.6733    1.1893 H   0  0  0  0  0  0  0  0  0  0  0  0
    2.6432    5.8343    1.8864 H   0  0  0  0  0  0  0  0  0  0  0  0
    1.3046    7.8714    2.8088 H   0  0  0  0  0  0  0  0  0  0  0  0
    2.8752   10.0168    2.7004 H   0  0  0  0  0  0  0  0  0  0  0  0
    5.0731    9.3415    1.3292 H   0  0  0  0  0  0  0  0  0  0  0  0
    3.5712    8.7411    0.4854 H   0  0  0  0  0  0  0  0  0  0  0  0
    5.0644    9.6196    4.0166 H   0  0  0  0  0  0  0  0  0  0  0  0
  1  2  2  3
  2  3  1  0
  3  4  2  0
  3  5  1  0
  5  6  2  0
  6  7  1  0
  7  8  2  0
  8  9  1  0
  9 10  2  0
 10 11  1  0
 11 12  2  3
 12 13  1  0
 13 14  3  0
 12 15  1  0
 15 16  3  0
  8 17  1  0
 17 18  1  0
 18 19  1  0
 19 20  2  0
 20 21  1  0
 21 22  1  0
 21 23  1  0
  1 24  1  0
 24 25  2  0
 25 26  1  0
 26 27  1  0
 27 28  2  0
 28 29  1  0
 29 30  2  0
 30 31  1  0
 31 32  1  0
 30 33  1  0
 33 34  2  0
 26 35  1  0
 35 36  2  0
 36 37  1  0
 37 38  2  0
 38 39  1  0
 39 40  1  0
 38 41  1  0
 41 42  2  0
 25 43  1  0
 43 44  1  0
 44 45  1  0
 45 46  2  0
 46 47  1  0
 47 48  1  0
 48 49  2  0
 49 50  1  0
 50 51  2  0
 51 52  1  0
 52 53  1  0
 51 54  1  0
 54 55  2  0
 47 56  1  0
 56 57  2  0
 57 58  1  0
 58 59  2  0
 59 60  1  0
 60 61  1  0
 59 62  1  0
 62 63  2  0
 46 64  1  0
 64 65  1  0
 45 66  1  0
 66 67  2  0
 67 68  1  0
 68 69  3  0
 67 70  1  0
 70 71  2  0
 71 72  1  0
 71 73  1  0
 73 74  2  0
 74 75  1  0
 75 76  2  0
 76 77  1  0
 77 78  1  0
 76 79  1  0
 79 80  1  0
 80 81  2  0
 81 82  1  0
 82 83  2  0
 83 84  1  0
 84 85  1  0
 85 86  1  0
 86 87  1  0
 85 88  2  0
 81 89  1  0
 89 90  2  3
 90 91  1  0
 91 92  2  0
 91 93  1  0
 93 94  2  0
 94 95  1  0
 95 96  2  0
 96 97  1  0
 97 98  2  0
 98 99  1  0
 99100  2  3
100101  1  0
101102  3  0
100103  1  0
103104  3  0
 96105  1  0
105106  1  0
106107  1  0
107108  2  0
108109  1  0
109110  1  0
109111  1  0
 11  2  1  0
 23 17  1  0
 65 24  1  0
 72 66  1  0
 83 73  1  0
 99 90  1  0
111105  1  0
 10  5  1  0
 22 18  1  0
 34 27  1  0
 42 35  1  0
 64 43  2  0
 80 74  1  0
 88 82  1  0
 98 93  1  0
110106  1  0
 23  7  1  0
 55 48  1  0
 63 56  1  0
111 95  1  0
  1112  1  0
  6113  1  0
  9114  1  0
 17115  1  0
 18116  1  0
 19117  1  0
 20118  1  0
 21119  1  0
 22120  1  0
 22121  1  0
 23122  1  0
 28123  1  0
 29124  1  0
 32125  1  0
 32126  1  0
 32127  1  0
 33128  1  0
 34129  1  0
 36130  1  0
 37131  1  0
 40132  1  0
 40133  1  0
 40134  1  0
 41135  1  0
 42136  1  0
 49137  1  0
 50138  1  0
 53139  1  0
 53140  1  0
 53141  1  0
 54142  1  0
 55143  1  0
 57144  1  0
 58145  1  0
 61146  1  0
 61147  1  0
 61148  1  0
 62149  1  0
 63150  1  0
 70151  1  0
 75152  1  0
 77153  1  0
 77154  1  0
 78155  1  0
 78156  1  0
 78157  1  0
 86158  1  0
 86159  1  0
 87160  1  0
 87161  1  0
 87162  1  0
 88163  1  0
 89164  1  0
 94165  1  0
 97166  1  0
105167  1  0
106168  1  0
107169  1  0
108170  1  0
109171  1  0
110172  1  0
110173  1  0
111174  1  0
M  END

