
     RDKit          3D

230255  0  0  0  0  0  0  0  0999 V2000
   -7.9163    2.2734    6.0988 C   0  0  0  0  0  0  0  0  0  0  0  0
   -7.3229    3.1146    6.9675 C   0  0  0  0  0  0  0  0  0  0  0  0
   -6.0358    2.8741    7.6250 C   0  0  0  0  0  0  0  0  0  0  0  0
   -5.3238    1.8353    7.5231 O   0  0  0  0  0  0  0  0  0  0  0  0
   -5.7158    3.9973    8.4702 C   0  0  0  0  0  0  0  0  0  0  0  0
   -4.4616    4.2540    9.0621 C   0  0  0  0  0  0  0  0  0  0  0  0
   -4.3319    5.5349    9.5556 C   0  0  0  0  0  0  0  0  0  0  0  0
   -5.3714    6.5110    9.4807 C   0  0  0  0  0  0  0  0  0  0  0  0
   -6.6141    6.2651    8.9158 C   0  0  0  0  0  0  0  0  0  0  0  0
   -6.7810    4.9423    8.4042 C   0  0  0  0  0  0  0  0  0  0  0  0
   -7.8418    4.4108    7.4957 C   0  0  0  0  0  0  0  0  0  0  0  0
   -8.8877    5.1116    6.9932 C   0  0  0  0  0  0  0  0  0  0  0  0
   -9.4379    6.2506    7.6699 C   0  0  0  0  0  0  0  0  0  0  0  0
   -9.9057    7.1639    8.2049 N   0  0  0  0  0  0  0  0  0  0  0  0
   -9.3222    4.9222    5.6314 C   0  0  0  0  0  0  0  0  0  0  0  0
   -9.6470    4.7943    4.5226 N   0  0  0  0  0  0  0  0  0  0  0  0
   -4.4521    7.5505   10.0394 C   0  0  0  0  0  0  0  0  0  0  0  0
   -3.8903    8.5875    9.0146 C   0  0  0  0  0  0  0  0  0  0  0  0
   -2.7262    9.2592    9.7056 C   0  0  0  0  0  0  0  0  0  0  0  0
   -1.7607    8.3460    9.7955 C   0  0  0  0  0  0  0  0  0  0  0  0
   -2.2959    7.0858    9.1574 C   0  0  0  0  0  0  0  0  0  0  0  0
   -3.1058    7.7245    8.0411 C   0  0  0  0  0  0  0  0  0  0  0  0
   -3.3883    6.5454   10.1295 C   0  0  0  0  0  0  0  0  0  0  0  0
   -7.1132    1.3619    5.2705 C   0  0  0  0  0  0  0  0  0  0  0  0
   -5.7516    1.8645    4.4124 S   0  0  0  0  0  0  0  0  0  0  0  0
   -5.3260    0.3262    3.9393 C   0  0  0  0  0  0  0  0  0  0  0  0
   -4.1076   -0.0630    3.2883 C   0  0  0  0  0  0  0  0  0  0  0  0
   -3.7990   -1.3900    3.1730 C   0  0  0  0  0  0  0  0  0  0  0  0
   -4.6703   -2.3867    3.6305 O   0  0  0  0  0  0  0  0  0  0  0  0
   -5.9636   -2.1258    4.2407 C   0  0  0  0  0  0  0  0  0  0  0  0
   -5.9323   -2.8830    5.5735 C   0  0  0  0  0  0  0  0  0  0  0  0
   -5.5123   -2.2514    6.7627 C   0  0  0  0  0  0  0  0  0  0  0  0
   -5.3810   -2.9794    7.9507 C   0  0  0  0  0  0  0  0  0  0  0  0
   -5.6535   -4.3556    7.9732 C   0  0  0  0  0  0  0  0  0  0  0  0
   -5.4805   -5.1444    9.2380 C   0  0  0  0  0  0  0  0  0  0  0  0
   -4.0491   -5.6602    9.3773 C   0  0  0  0  0  0  0  0  0  0  0  0
   -5.9925   -5.0026    6.7766 C   0  0  0  0  0  0  0  0  0  0  0  0
   -6.1234   -4.2775    5.5927 C   0  0  0  0  0  0  0  0  0  0  0  0
   -7.0599   -2.6360    3.3038 C   0  0  0  0  0  0  0  0  0  0  0  0
   -8.3440   -2.9684    3.7864 C   0  0  0  0  0  0  0  0  0  0  0  0
   -9.3189   -3.4766    2.9265 C   0  0  0  0  0  0  0  0  0  0  0  0
   -9.0554   -3.6146    1.5578 C   0  0  0  0  0  0  0  0  0  0  0  0
  -10.0848   -4.2284    0.6457 C   0  0  0  0  0  0  0  0  0  0  0  0
   -9.9446   -5.7467    0.6053 C   0  0  0  0  0  0  0  0  0  0  0  0
   -7.8063   -3.2335    1.0584 C   0  0  0  0  0  0  0  0  0  0  0  0
   -6.8223   -2.7401    1.9166 C   0  0  0  0  0  0  0  0  0  0  0  0
   -6.2081   -0.6166    4.4371 C   0  0  0  0  0  0  0  0  0  0  0  0
   -7.2583   -0.0234    5.1677 C   0  0  0  0  0  0  0  0  0  0  0  0
   -2.5551   -1.6200    2.5853 C   0  0  0  0  0  0  0  0  0  0  0  0
   -1.9066   -0.4292    2.2580 C   0  0  0  0  0  0  0  0  0  0  0  0
   -2.8554    0.8880    2.6993 S   0  0  0  0  0  0  0  0  0  0  0  0
   -0.6257   -0.3401    1.5742 C   0  0  0  0  0  0  0  0  0  0  0  0
   -0.4544   -0.0151    0.2246 C   0  0  0  0  0  0  0  0  0  0  0  0
   -1.4261    0.6820   -0.5689 N   0  0  0  0  0  0  0  0  0  0  0  0
   -1.7364    2.0577   -0.2300 C   0  0  0  0  0  0  0  0  0  0  0  0
   -0.7351    2.9246    0.2555 C   0  0  0  0  0  0  0  0  0  0  0  0
   -1.0409    4.2467    0.5982 C   0  0  0  0  0  0  0  0  0  0  0  0
   -2.3477    4.7312    0.4564 C   0  0  0  0  0  0  0  0  0  0  0  0
   -2.7358    6.4375    0.8412 S   0  0  0  0  0  0  0  0  0  0  0  0
   -3.2206    6.0916    2.5608 C   0  0  0  0  0  0  0  0  0  0  0  0
   -3.3530    3.8765   -0.0242 C   0  0  0  0  0  0  0  0  0  0  0  0
   -3.0532    2.5520   -0.3432 C   0  0  0  0  0  0  0  0  0  0  0  0
   -2.1407    0.0054   -1.6292 C   0  0  0  0  0  0  0  0  0  0  0  0
   -2.5667    0.7172   -2.7677 C   0  0  0  0  0  0  0  0  0  0  0  0
   -3.4101    0.1233   -3.7007 C   0  0  0  0  0  0  0  0  0  0  0  0
   -3.8117   -1.2048   -3.5423 C   0  0  0  0  0  0  0  0  0  0  0  0
   -5.0200   -1.9213   -4.6635 S   0  0  0  0  0  0  0  0  0  0  0  0
   -3.8133   -2.2859   -5.9767 C   0  0  0  0  0  0  0  0  0  0  0  0
   -3.3238   -1.9509   -2.4666 C   0  0  0  0  0  0  0  0  0  0  0  0
   -2.4949   -1.3514   -1.5107 C   0  0  0  0  0  0  0  0  0  0  0  0
    0.8615   -0.2223   -0.1690 C   0  0  0  0  0  0  0  0  0  0  0  0
    1.6939   -0.1058   -1.6199 S   0  0  0  0  0  0  0  0  0  0  0  0
    3.1890   -0.5452   -0.9205 C   0  0  0  0  0  0  0  0  0  0  0  0
    3.0303   -0.7634    0.4470 C   0  0  0  0  0  0  0  0  0  0  0  0
    4.1168   -0.8188    1.3779 N   0  0  0  0  0  0  0  0  0  0  0  0
    4.4414    0.3840    2.1085 C   0  0  0  0  0  0  0  0  0  0  0  0
    4.5016    1.6240    1.4460 C   0  0  0  0  0  0  0  0  0  0  0  0
    4.7860    2.7944    2.1593 C   0  0  0  0  0  0  0  0  0  0  0  0
    5.0133    2.7399    3.5369 C   0  0  0  0  0  0  0  0  0  0  0  0
    5.3547    4.2466    4.4529 S   0  0  0  0  0  0  0  0  0  0  0  0
    3.6070    4.6092    4.8286 C   0  0  0  0  0  0  0  0  0  0  0  0
    4.9578    1.5133    4.2030 C   0  0  0  0  0  0  0  0  0  0  0  0
    4.6732    0.3409    3.4927 C   0  0  0  0  0  0  0  0  0  0  0  0
    4.7122   -2.0840    1.7271 C   0  0  0  0  0  0  0  0  0  0  0  0
    3.9257   -3.2443    1.8343 C   0  0  0  0  0  0  0  0  0  0  0  0
    4.4816   -4.4251    2.3410 C   0  0  0  0  0  0  0  0  0  0  0  0
    5.8209   -4.4542    2.7453 C   0  0  0  0  0  0  0  0  0  0  0  0
    6.4916   -5.9139    3.5386 S   0  0  0  0  0  0  0  0  0  0  0  0
    5.8459   -5.4418    5.1729 C   0  0  0  0  0  0  0  0  0  0  0  0
    6.6177   -3.3195    2.5830 C   0  0  0  0  0  0  0  0  0  0  0  0
    6.0713   -2.1437    2.0707 C   0  0  0  0  0  0  0  0  0  0  0  0
    1.7064   -0.6070    0.8208 C   0  0  0  0  0  0  0  0  0  0  0  0
    0.8627   -0.8110    2.2557 S   0  0  0  0  0  0  0  0  0  0  0  0
    4.3724   -0.8958   -1.7086 C   0  0  0  0  0  0  0  0  0  0  0  0
    4.3457   -1.9565   -2.6013 C   0  0  0  0  0  0  0  0  0  0  0  0
    5.2823   -1.8251   -3.6375 C   0  0  0  0  0  0  0  0  0  0  0  0
    5.3793   -2.6622   -4.7608 C   0  0  0  0  0  0  0  0  0  0  0  0
    4.5823   -3.8934   -4.8965 C   0  0  0  0  0  0  0  0  0  0  0  0
    5.0978   -5.1791   -5.0124 C   0  0  0  0  0  0  0  0  0  0  0  0
    4.1082   -6.1703   -5.0501 C   0  0  0  0  0  0  0  0  0  0  0  0
    2.8222   -5.6572   -4.9748 C   0  0  0  0  0  0  0  0  0  0  0  0
    1.3054   -6.6096   -5.0452 S   0  0  0  0  0  0  0  0  0  0  0  0
    1.2100   -6.6243   -6.8656 C   0  0  0  0  0  0  0  0  0  0  0  0
    0.8707   -5.2530   -7.4445 C   0  0  0  0  0  0  0  0  0  0  0  0
    2.9041   -3.9831   -4.8372 S   0  0  0  0  0  0  0  0  0  0  0  0
    6.2267   -2.2208   -5.7929 C   0  0  0  0  0  0  0  0  0  0  0  0
    7.0124   -1.0700   -5.6900 C   0  0  0  0  0  0  0  0  0  0  0  0
    7.0108   -0.3070   -4.5062 C   0  0  0  0  0  0  0  0  0  0  0  0
    8.0206    0.7483   -4.2775 C   0  0  0  0  0  0  0  0  0  0  0  0
    7.8197    1.9939   -3.6738 C   0  0  0  0  0  0  0  0  0  0  0  0
    9.0130    2.6575   -3.3591 C   0  0  0  0  0  0  0  0  0  0  0  0
   10.1470    1.9306   -3.7045 C   0  0  0  0  0  0  0  0  0  0  0  0
   11.8360    2.3604   -3.2841 S   0  0  0  0  0  0  0  0  0  0  0  0
   11.8056    1.4865   -1.6761 C   0  0  0  0  0  0  0  0  0  0  0  0
   12.3117    0.0535   -1.8358 C   0  0  0  0  0  0  0  0  0  0  0  0
    9.6781    0.4890   -4.4231 S   0  0  0  0  0  0  0  0  0  0  0  0
    6.0867   -0.6791   -3.5136 C   0  0  0  0  0  0  0  0  0  0  0  0
    5.5901    0.1810   -2.1512 S   0  0  0  0  0  0  0  0  0  0  0  0
    7.5830   -0.6747   -6.9120 C   0  0  0  0  0  0  0  0  0  0  0  0
    7.1827   -1.4680   -7.9801 C   0  0  0  0  0  0  0  0  0  0  0  0
    6.2265   -2.7353   -7.3960 S   0  0  0  0  0  0  0  0  0  0  0  0
    7.1535   -1.0452   -9.3877 C   0  0  0  0  0  0  0  0  0  0  0  0
    6.5399    0.0718   -9.8099 C   0  0  0  0  0  0  0  0  0  0  0  0
    5.6466    0.8914   -8.9813 C   0  0  0  0  0  0  0  0  0  0  0  0
    5.8771    1.3167   -7.8274 O   0  0  0  0  0  0  0  0  0  0  0  0
    4.4663    1.2083   -9.7485 C   0  0  0  0  0  0  0  0  0  0  0  0
    3.1955    1.5390   -9.2185 C   0  0  0  0  0  0  0  0  0  0  0  0
    2.1630    1.3978  -10.1250 C   0  0  0  0  0  0  0  0  0  0  0  0
    2.3586    0.9969  -11.4830 C   0  0  0  0  0  0  0  0  0  0  0  0
    3.6035    0.7047  -12.0227 C   0  0  0  0  0  0  0  0  0  0  0  0
    4.6767    0.8091  -11.0967 C   0  0  0  0  0  0  0  0  0  0  0  0
    6.0373    0.2486  -11.2073 C   0  0  0  0  0  0  0  0  0  0  0  0
    6.7895    0.1487  -12.3300 C   0  0  0  0  0  0  0  0  0  0  0  0
    6.2862    0.5581  -13.6154 C   0  0  0  0  0  0  0  0  0  0  0  0
    5.8981    0.8917  -14.6574 N   0  0  0  0  0  0  0  0  0  0  0  0
    8.1768   -0.2342  -12.2630 C   0  0  0  0  0  0  0  0  0  0  0  0
    9.2931   -0.5361  -12.2075 N   0  0  0  0  0  0  0  0  0  0  0  0
    0.8728    0.9789  -11.7021 C   0  0  0  0  0  0  0  0  0  0  0  0
    0.2260    2.1444  -12.5070 C   0  0  0  0  0  0  0  0  0  0  0  0
    1.0143    3.4171  -12.2986 C   0  0  0  0  0  0  0  0  0  0  0  0
    0.8243    3.7835  -11.0325 C   0  0  0  0  0  0  0  0  0  0  0  0
   -0.0768    2.7390  -10.4150 C   0  0  0  0  0  0  0  0  0  0  0  0
   -0.9597    2.4469  -11.6160 C   0  0  0  0  0  0  0  0  0  0  0  0
    0.6729    1.3812  -10.3076 C   0  0  0  0  0  0  0  0  0  0  0  0
   -8.9658    2.3717    5.8561 H   0  0  0  0  0  0  0  0  0  0  0  0
   -3.6376    3.5585    9.0313 H   0  0  0  0  0  0  0  0  0  0  0  0
   -7.3242    7.0631    8.7994 H   0  0  0  0  0  0  0  0  0  0  0  0
   -4.7780    7.9694   11.0193 H   0  0  0  0  0  0  0  0  0  0  0  0
   -4.6401    9.2681    8.5583 H   0  0  0  0  0  0  0  0  0  0  0  0
   -2.6442   10.3062    9.9835 H   0  0  0  0  0  0  0  0  0  0  0  0
   -0.7486    8.5306   10.1526 H   0  0  0  0  0  0  0  0  0  0  0  0
   -1.5284    6.3438    8.8380 H   0  0  0  0  0  0  0  0  0  0  0  0
   -2.4777    8.3085    7.3241 H   0  0  0  0  0  0  0  0  0  0  0  0
   -3.7328    7.0096    7.4604 H   0  0  0  0  0  0  0  0  0  0  0  0
   -3.0499    6.3058   11.1617 H   0  0  0  0  0  0  0  0  0  0  0  0
   -5.2633   -1.1999    6.7883 H   0  0  0  0  0  0  0  0  0  0  0  0
   -5.0549   -2.4727    8.8515 H   0  0  0  0  0  0  0  0  0  0  0  0
   -5.7254   -4.5092   10.1231 H   0  0  0  0  0  0  0  0  0  0  0  0
   -6.1820   -6.0078    9.2512 H   0  0  0  0  0  0  0  0  0  0  0  0
   -3.3341   -4.8097    9.3900 H   0  0  0  0  0  0  0  0  0  0  0  0
   -3.9436   -6.2242   10.3299 H   0  0  0  0  0  0  0  0  0  0  0  0
   -3.8053   -6.3398    8.5337 H   0  0  0  0  0  0  0  0  0  0  0  0
   -6.1504   -6.0787    6.7575 H   0  0  0  0  0  0  0  0  0  0  0  0
   -6.3657   -4.8130    4.6884 H   0  0  0  0  0  0  0  0  0  0  0  0
   -8.5738   -2.8631    4.8413 H   0  0  0  0  0  0  0  0  0  0  0  0
  -10.2792   -3.7615    3.3362 H   0  0  0  0  0  0  0  0  0  0  0  0
   -9.9721   -3.8177   -0.3811 H   0  0  0  0  0  0  0  0  0  0  0  0
  -11.1068   -3.9603    0.9873 H   0  0  0  0  0  0  0  0  0  0  0  0
   -8.9014   -6.0337    0.3505 H   0  0  0  0  0  0  0  0  0  0  0  0
  -10.2118   -6.1799    1.5904 H   0  0  0  0  0  0  0  0  0  0  0  0
  -10.6231   -6.1596   -0.1674 H   0  0  0  0  0  0  0  0  0  0  0  0
   -7.5832   -3.3280    0.0035 H   0  0  0  0  0  0  0  0  0  0  0  0
   -5.8686   -2.4477    1.4885 H   0  0  0  0  0  0  0  0  0  0  0  0
   -8.0412   -0.5832    5.6615 H   0  0  0  0  0  0  0  0  0  0  0  0
   -2.1463   -2.6047    2.3903 H   0  0  0  0  0  0  0  0  0  0  0  0
    0.2833    2.5836    0.3660 H   0  0  0  0  0  0  0  0  0  0  0  0
   -0.2565    4.8992    0.9644 H   0  0  0  0  0  0  0  0  0  0  0  0
   -3.9090    5.2221    2.6089 H   0  0  0  0  0  0  0  0  0  0  0  0
   -3.7393    6.9788    2.9721 H   0  0  0  0  0  0  0  0  0  0  0  0
   -2.3179    5.8893    3.1690 H   0  0  0  0  0  0  0  0  0  0  0  0
   -4.3645    4.2407   -0.1383 H   0  0  0  0  0  0  0  0  0  0  0  0
   -3.8552    1.9096   -0.6741 H   0  0  0  0  0  0  0  0  0  0  0  0
   -2.2837    1.7539   -2.9055 H   0  0  0  0  0  0  0  0  0  0  0  0
   -3.7689    0.7121   -4.5422 H   0  0  0  0  0  0  0  0  0  0  0  0
   -3.5194   -1.3403   -6.4862 H   0  0  0  0  0  0  0  0  0  0  0  0
   -2.9201   -2.7939   -5.5545 H   0  0  0  0  0  0  0  0  0  0  0  0
   -4.2902   -2.9552   -6.7252 H   0  0  0  0  0  0  0  0  0  0  0  0
   -3.6277   -2.9849   -2.3345 H   0  0  0  0  0  0  0  0  0  0  0  0
   -2.1733   -1.9294   -0.6546 H   0  0  0  0  0  0  0  0  0  0  0  0
    4.3381    1.6891    0.3799 H   0  0  0  0  0  0  0  0  0  0  0  0
    4.8356    3.7362    1.6297 H   0  0  0  0  0  0  0  0  0  0  0  0
    2.9072    3.9968    4.2186 H   0  0  0  0  0  0  0  0  0  0  0  0
    3.4090    5.6830    4.6267 H   0  0  0  0  0  0  0  0  0  0  0  0
    3.4171    4.4146    5.9029 H   0  0  0  0  0  0  0  0  0  0  0  0
    5.1200    1.4651    5.2713 H   0  0  0  0  0  0  0  0  0  0  0  0
    4.6118   -0.5972    4.0346 H   0  0  0  0  0  0  0  0  0  0  0  0
    2.8733   -3.2276    1.5800 H   0  0  0  0  0  0  0  0  0  0  0  0
    3.8593   -5.3060    2.4581 H   0  0  0  0  0  0  0  0  0  0  0  0
    6.2999   -6.0975    5.9484 H   0  0  0  0  0  0  0  0  0  0  0  0
    6.0968   -4.3851    5.4171 H   0  0  0  0  0  0  0  0  0  0  0  0
    4.7475   -5.5824    5.1926 H   0  0  0  0  0  0  0  0  0  0  0  0
    7.6610   -3.3344    2.8850 H   0  0  0  0  0  0  0  0  0  0  0  0
    6.7004   -1.2638    1.9801 H   0  0  0  0  0  0  0  0  0  0  0  0
    3.6147   -2.7447   -2.5343 H   0  0  0  0  0  0  0  0  0  0  0  0
    6.1565   -5.3952   -5.0507 H   0  0  0  0  0  0  0  0  0  0  0  0
    4.3167   -7.2264   -5.1280 H   0  0  0  0  0  0  0  0  0  0  0  0
    0.4232   -7.3569   -7.1607 H   0  0  0  0  0  0  0  0  0  0  0  0
    2.1769   -6.9891   -7.2729 H   0  0  0  0  0  0  0  0  0  0  0  0
   -0.1583   -5.2465   -7.8546 H   0  0  0  0  0  0  0  0  0  0  0  0
    1.5780   -5.0299   -8.2745 H   0  0  0  0  0  0  0  0  0  0  0  0
    0.9383   -4.4369   -6.7002 H   0  0  0  0  0  0  0  0  0  0  0  0
    6.8479    2.3995   -3.4295 H   0  0  0  0  0  0  0  0  0  0  0  0
    9.0523    3.6111   -2.8531 H   0  0  0  0  0  0  0  0  0  0  0  0
   12.4756    2.0203   -0.9689 H   0  0  0  0  0  0  0  0  0  0  0  0
   10.7874    1.4775   -1.2420 H   0  0  0  0  0  0  0  0  0  0  0  0
   11.6740   -0.5021   -2.5533 H   0  0  0  0  0  0  0  0  0  0  0  0
   13.3586    0.0630   -2.1920 H   0  0  0  0  0  0  0  0  0  0  0  0
   12.2680   -0.4647   -0.8559 H   0  0  0  0  0  0  0  0  0  0  0  0
    8.1263    0.2472   -7.0460 H   0  0  0  0  0  0  0  0  0  0  0  0
    7.4936   -1.7755  -10.1176 H   0  0  0  0  0  0  0  0  0  0  0  0
    3.0326    1.7624   -8.1765 H   0  0  0  0  0  0  0  0  0  0  0  0
    3.7082    0.2993  -13.0198 H   0  0  0  0  0  0  0  0  0  0  0  0
    0.4676   -0.0300  -11.9413 H   0  0  0  0  0  0  0  0  0  0  0  0
   -0.0174    1.9060  -13.5621 H   0  0  0  0  0  0  0  0  0  0  0  0
    1.5439    4.0018  -13.0445 H   0  0  0  0  0  0  0  0  0  0  0  0
    1.1678    4.7029  -10.5732 H   0  0  0  0  0  0  0  0  0  0  0  0
   -0.6120    3.0619   -9.5006 H   0  0  0  0  0  0  0  0  0  0  0  0
   -1.5483    3.3274  -11.9671 H   0  0  0  0  0  0  0  0  0  0  0  0
   -1.6562    1.5885  -11.4619 H   0  0  0  0  0  0  0  0  0  0  0  0
    0.1570    0.6081   -9.6998 H   0  0  0  0  0  0  0  0  0  0  0  0
  1  2  2  3
  2  3  1  0
  3  4  2  0
  3  5  1  0
  5  6  2  0
  6  7  1  0
  7  8  2  0
  8  9  1  0
  9 10  2  0
 10 11  1  0
 11 12  2  3
 12 13  1  0
 13 14  3  0
 12 15  1  0
 15 16  3  0
  8 17  1  0
 17 18  1  0
 18 19  1  0
 19 20  2  0
 20 21  1  0
 21 22  1  0
 21 23  1  0
  1 24  1  0
 24 25  1  0
 25 26  1  0
 26 27  1  0
 27 28  2  0
 28 29  1  0
 29 30  1  0
 30 31  1  0
 31 32  2  0
 32 33  1  0
 33 34  2  0
 34 35  1  0
 35 36  1  0
 34 37  1  0
 37 38  2  0
 30 39  1  0
 39 40  2  0
 40 41  1  0
 41 42  2  0
 42 43  1  0
 43 44  1  0
 42 45  1  0
 45 46  2  0
 30 47  1  0
 47 48  1  0
 28 49  1  0
 49 50  2  0
 50 51  1  0
 50 52  1  0
 52 53  2  0
 53 54  1  0
 54 55  1  0
 55 56  2  0
 56 57  1  0
 57 58  2  0
 58 59  1  0
 59 60  1  0
 58 61  1  0
 61 62  2  0
 54 63  1  0
 63 64  2  0
 64 65  1  0
 65 66  2  0
 66 67  1  0
 67 68  1  0
 66 69  1  0
 69 70  2  0
 53 71  1  0
 71 72  1  0
 72 73  1  0
 73 74  2  0
 74 75  1  0
 75 76  1  0
 76 77  2  0
 77 78  1  0
 78 79  2  0
 79 80  1  0
 80 81  1  0
 79 82  1  0
 82 83  2  0
 75 84  1  0
 84 85  2  0
 85 86  1  0
 86 87  2  0
 87 88  1  0
 88 89  1  0
 87 90  1  0
 90 91  2  0
 74 92  1  0
 92 93  1  0
 73 94  1  0
 94 95  2  0
 95 96  1  0
 96 97  2  0
 97 98  1  0
 98 99  2  0
 99100  1  0
100101  2  0
101102  1  0
102103  1  0
103104  1  0
101105  1  0
 97106  1  0
106107  2  0
107108  1  0
108109  1  0
109110  2  0
110111  1  0
111112  2  0
112113  1  0
113114  1  0
114115  1  0
112116  1  0
108117  2  0
117118  1  0
107119  1  0
119120  2  0
120121  1  0
120122  1  0
122123  2  3
123124  1  0
124125  2  0
124126  1  0
126127  2  0
127128  1  0
128129  2  0
129130  1  0
130131  2  0
131132  1  0
132133  2  3
133134  1  0
134135  3  0
133136  1  0
136137  3  0
129138  1  0
138139  1  0
139140  1  0
140141  2  0
141142  1  0
142143  1  0
142144  1  0
 11  2  1  0
 23 17  1  0
 48 24  2  0
 93 52  1  0
118 94  1  0
132123  1  0
144138  1  0
 10  5  1  0
 22 18  1  0
 47 26  2  0
 62 55  1  0
 70 63  1  0
 92 71  2  0
117 96  1  0
131126  1  0
143139  1  0
 23  7  1  0
 51 27  1  0
 83 76  1  0
 91 84  1  0
105 98  1  0
121106  1  0
144128  1  0
 38 31  1  0
 46 39  1  0
116109  1  0
  1145  1  0
  6146  1  0
  9147  1  0
 17148  1  0
 18149  1  0
 19150  1  0
 20151  1  0
 21152  1  0
 22153  1  0
 22154  1  0
 23155  1  0
 32156  1  0
 33157  1  0
 35158  1  0
 35159  1  0
 36160  1  0
 36161  1  0
 36162  1  0
 37163  1  0
 38164  1  0
 40165  1  0
 41166  1  0
 43167  1  0
 43168  1  0
 44169  1  0
 44170  1  0
 44171  1  0
 45172  1  0
 46173  1  0
 48174  1  0
 49175  1  0
 56176  1  0
 57177  1  0
 60178  1  0
 60179  1  0
 60180  1  0
 61181  1  0
 62182  1  0
 64183  1  0
 65184  1  0
 68185  1  0
 68186  1  0
 68187  1  0
 69188  1  0
 70189  1  0
 77190  1  0
 78191  1  0
 81192  1  0
 81193  1  0
 81194  1  0
 82195  1  0
 83196  1  0
 85197  1  0
 86198  1  0
 89199  1  0
 89200  1  0
 89201  1  0
 90202  1  0
 91203  1  0
 95204  1  0
 99205  1  0
100206  1  0
103207  1  0
103208  1  0
104209  1  0
104210  1  0
104211  1  0
110212  1  0
111213  1  0
114214  1  0
114215  1  0
115216  1  0
115217  1  0
115218  1  0
119219  1  0
122220  1  0
127221  1  0
130222  1  0
138223  1  0
139224  1  0
140225  1  0
141226  1  0
142227  1  0
143228  1  0
143229  1  0
144230  1  0
M  END

