
     RDKit          3D

213232  0  0  0  0  0  0  0  0999 V2000
   -5.3740   -2.2481   -3.1129 C   0  0  0  0  0  0  0  0  0  0  0  0
   -5.2872   -3.5915   -3.0197 C   0  0  0  0  0  0  0  0  0  0  0  0
   -4.2649   -4.3248   -2.2518 C   0  0  0  0  0  0  0  0  0  0  0  0
   -3.1569   -3.8743   -1.8561 O   0  0  0  0  0  0  0  0  0  0  0  0
   -4.7543   -5.6607   -1.9788 C   0  0  0  0  0  0  0  0  0  0  0  0
   -4.1899   -6.6127   -1.0967 C   0  0  0  0  0  0  0  0  0  0  0  0
   -4.9934   -7.7147   -0.8744 C   0  0  0  0  0  0  0  0  0  0  0  0
   -6.2832   -7.8754   -1.4723 C   0  0  0  0  0  0  0  0  0  0  0  0
   -6.8373   -6.9513   -2.3460 C   0  0  0  0  0  0  0  0  0  0  0  0
   -6.0106   -5.8256   -2.6160 C   0  0  0  0  0  0  0  0  0  0  0  0
   -6.3305   -4.5956   -3.3946 C   0  0  0  0  0  0  0  0  0  0  0  0
   -7.2569   -4.4943   -4.3855 C   0  0  0  0  0  0  0  0  0  0  0  0
   -7.9792   -5.6449   -4.8653 C   0  0  0  0  0  0  0  0  0  0  0  0
   -8.5514   -6.5628   -5.2688 N   0  0  0  0  0  0  0  0  0  0  0  0
   -7.4691   -3.2835   -5.1243 C   0  0  0  0  0  0  0  0  0  0  0  0
   -7.6630   -2.3114   -5.7250 N   0  0  0  0  0  0  0  0  0  0  0  0
   -6.4856   -9.1632   -0.7284 C   0  0  0  0  0  0  0  0  0  0  0  0
   -6.3607  -10.4733   -1.5581 C   0  0  0  0  0  0  0  0  0  0  0  0
   -6.2049  -11.5909   -0.5541 C   0  0  0  0  0  0  0  0  0  0  0  0
   -4.9891  -11.4414   -0.0088 C   0  0  0  0  0  0  0  0  0  0  0  0
   -4.3692  -10.2347   -0.6686 C   0  0  0  0  0  0  0  0  0  0  0  0
   -4.9301  -10.4179   -2.0670 C   0  0  0  0  0  0  0  0  0  0  0  0
   -5.1581   -9.0052   -0.1265 C   0  0  0  0  0  0  0  0  0  0  0  0
   -4.4427   -1.3733   -2.3970 C   0  0  0  0  0  0  0  0  0  0  0  0
   -3.1367   -1.0118   -2.8064 C   0  0  0  0  0  0  0  0  0  0  0  0
   -2.6617   -0.9899   -4.1783 N   0  0  0  0  0  0  0  0  0  0  0  0
   -1.3994   -0.3786   -4.4865 C   0  0  0  0  0  0  0  0  0  0  0  0
   -0.2639   -1.1661   -4.7131 C   0  0  0  0  0  0  0  0  0  0  0  0
    0.9823   -0.5613   -4.9017 C   0  0  0  0  0  0  0  0  0  0  0  0
    1.0966    0.8331   -4.8694 C   0  0  0  0  0  0  0  0  0  0  0  0
    2.7040    1.6145   -5.0208 S   0  0  0  0  0  0  0  0  0  0  0  0
    2.9470    1.7165   -3.2197 C   0  0  0  0  0  0  0  0  0  0  0  0
   -0.0442    1.6242   -4.7000 C   0  0  0  0  0  0  0  0  0  0  0  0
   -1.2893    1.0222   -4.5095 C   0  0  0  0  0  0  0  0  0  0  0  0
   -3.5826   -1.0782   -5.2751 C   0  0  0  0  0  0  0  0  0  0  0  0
   -3.4085   -2.0611   -6.2601 C   0  0  0  0  0  0  0  0  0  0  0  0
   -4.2403   -2.0830   -7.3854 C   0  0  0  0  0  0  0  0  0  0  0  0
   -5.2448   -1.1189   -7.5352 C   0  0  0  0  0  0  0  0  0  0  0  0
   -6.2874   -1.1354   -8.9904 S   0  0  0  0  0  0  0  0  0  0  0  0
   -5.2780    0.0999   -9.8703 C   0  0  0  0  0  0  0  0  0  0  0  0
   -5.4282   -0.1429   -6.5479 C   0  0  0  0  0  0  0  0  0  0  0  0
   -4.5994   -0.1190   -5.4255 C   0  0  0  0  0  0  0  0  0  0  0  0
   -2.3935   -0.5795   -1.6944 C   0  0  0  0  0  0  0  0  0  0  0  0
   -0.8016   -0.1283   -1.4078 S   0  0  0  0  0  0  0  0  0  0  0  0
   -1.0100    0.1323    0.2623 C   0  0  0  0  0  0  0  0  0  0  0  0
   -2.3554   -0.0603    0.5805 C   0  0  0  0  0  0  0  0  0  0  0  0
   -2.9814    0.4512    1.7642 N   0  0  0  0  0  0  0  0  0  0  0  0
   -3.9602    1.5028    1.5992 C   0  0  0  0  0  0  0  0  0  0  0  0
   -3.7466    2.5240    0.6539 C   0  0  0  0  0  0  0  0  0  0  0  0
   -4.7433    3.4570    0.3805 C   0  0  0  0  0  0  0  0  0  0  0  0
   -5.9657    3.3930    1.0521 C   0  0  0  0  0  0  0  0  0  0  0  0
   -7.2607    4.5779    0.6677 S   0  0  0  0  0  0  0  0  0  0  0  0
   -7.9186    3.5867   -0.7101 C   0  0  0  0  0  0  0  0  0  0  0  0
   -6.1795    2.4032    2.0208 C   0  0  0  0  0  0  0  0  0  0  0  0
   -5.1830    1.4619    2.2925 C   0  0  0  0  0  0  0  0  0  0  0  0
   -2.7302   -0.1622    3.0441 C   0  0  0  0  0  0  0  0  0  0  0  0
   -2.7383    0.6102    4.2179 C   0  0  0  0  0  0  0  0  0  0  0  0
   -2.6053    0.0010    5.4687 C   0  0  0  0  0  0  0  0  0  0  0  0
   -2.4580   -1.3875    5.5607 C   0  0  0  0  0  0  0  0  0  0  0  0
   -2.4388   -2.1790    7.1712 S   0  0  0  0  0  0  0  0  0  0  0  0
   -0.6292   -2.1369    7.3151 C   0  0  0  0  0  0  0  0  0  0  0  0
   -2.3895   -2.1608    4.3970 C   0  0  0  0  0  0  0  0  0  0  0  0
   -2.5179   -1.5518    3.1425 C   0  0  0  0  0  0  0  0  0  0  0  0
   -3.0779   -0.5088   -0.5245 C   0  0  0  0  0  0  0  0  0  0  0  0
   -4.6491   -1.0356   -0.7403 S   0  0  0  0  0  0  0  0  0  0  0  0
    0.0259    0.6802    1.1387 C   0  0  0  0  0  0  0  0  0  0  0  0
    1.2896    0.1127    1.3791 C   0  0  0  0  0  0  0  0  0  0  0  0
    1.6292   -1.2808    1.2360 N   0  0  0  0  0  0  0  0  0  0  0  0
    2.3113   -1.9536    2.3071 C   0  0  0  0  0  0  0  0  0  0  0  0
    1.7548   -1.9684    3.5966 C   0  0  0  0  0  0  0  0  0  0  0  0
    2.4170   -2.6291    4.6357 C   0  0  0  0  0  0  0  0  0  0  0  0
    3.6400   -3.2669    4.3998 C   0  0  0  0  0  0  0  0  0  0  0  0
    4.4674   -4.1337    5.7334 S   0  0  0  0  0  0  0  0  0  0  0  0
    5.3088   -2.6421    6.3485 C   0  0  0  0  0  0  0  0  0  0  0  0
    4.2045   -3.2404    3.1203 C   0  0  0  0  0  0  0  0  0  0  0  0
    3.5410   -2.5937    2.0755 C   0  0  0  0  0  0  0  0  0  0  0  0
    1.3446   -2.0258    0.0452 C   0  0  0  0  0  0  0  0  0  0  0  0
    0.3924   -3.0572    0.0769 C   0  0  0  0  0  0  0  0  0  0  0  0
    0.1887   -3.8577   -1.0470 C   0  0  0  0  0  0  0  0  0  0  0  0
    0.9532   -3.6522   -2.2048 C   0  0  0  0  0  0  0  0  0  0  0  0
    0.7377   -4.7340   -3.6160 S   0  0  0  0  0  0  0  0  0  0  0  0
    1.9609   -5.9434   -3.0257 C   0  0  0  0  0  0  0  0  0  0  0  0
    1.9067   -2.6281   -2.2342 C   0  0  0  0  0  0  0  0  0  0  0  0
    2.0971   -1.8108   -1.1144 C   0  0  0  0  0  0  0  0  0  0  0  0
    2.1542    1.0443    1.9451 C   0  0  0  0  0  0  0  0  0  0  0  0
    3.8197    1.0850    2.0299 S   0  0  0  0  0  0  0  0  0  0  0  0
    3.8960    2.7427    2.4055 C   0  0  0  0  0  0  0  0  0  0  0  0
    2.5898    3.2701    2.5011 C   0  0  0  0  0  0  0  0  0  0  0  0
    2.3087    4.6402    2.8942 N   0  0  0  0  0  0  0  0  0  0  0  0
    0.9861    5.2031    2.8121 C   0  0  0  0  0  0  0  0  0  0  0  0
    0.3136    5.5745    3.9876 C   0  0  0  0  0  0  0  0  0  0  0  0
   -0.9496    6.1617    3.9197 C   0  0  0  0  0  0  0  0  0  0  0  0
   -1.5604    6.3693    2.6784 C   0  0  0  0  0  0  0  0  0  0  0  0
   -3.1968    7.0977    2.5911 S   0  0  0  0  0  0  0  0  0  0  0  0
   -4.0436    5.5674    3.0891 C   0  0  0  0  0  0  0  0  0  0  0  0
   -0.8885    6.0094    1.5027 C   0  0  0  0  0  0  0  0  0  0  0  0
    0.3912    5.4497    1.5680 C   0  0  0  0  0  0  0  0  0  0  0  0
    3.2896    5.3739    3.6584 C   0  0  0  0  0  0  0  0  0  0  0  0
    3.6768    6.6602    3.2616 C   0  0  0  0  0  0  0  0  0  0  0  0
    4.6483    7.3592    3.9854 C   0  0  0  0  0  0  0  0  0  0  0  0
    5.2379    6.7747    5.1166 C   0  0  0  0  0  0  0  0  0  0  0  0
    6.5229    7.6455    6.0184 S   0  0  0  0  0  0  0  0  0  0  0  0
    5.3725    8.3358    7.2467 C   0  0  0  0  0  0  0  0  0  0  0  0
    4.8408    5.4973    5.5251 C   0  0  0  0  0  0  0  0  0  0  0  0
    3.8618    4.8037    4.8100 C   0  0  0  0  0  0  0  0  0  0  0  0
    1.6375    2.2832    2.1836 C   0  0  0  0  0  0  0  0  0  0  0  0
    0.0319    2.2950    1.6829 S   0  0  0  0  0  0  0  0  0  0  0  0
    5.0696    3.5207    1.9858 C   0  0  0  0  0  0  0  0  0  0  0  0
    6.2826    3.4315    2.6895 C   0  0  0  0  0  0  0  0  0  0  0  0
    6.2672    2.8128    3.9535 O   0  0  0  0  0  0  0  0  0  0  0  0
    7.4074    2.4984    4.7440 C   0  0  0  0  0  0  0  0  0  0  0  0
    7.4637    3.9277    2.0870 C   0  0  0  0  0  0  0  0  0  0  0  0
    8.6487    3.9277    2.7498 F   0  0  0  0  0  0  0  0  0  0  0  0
    7.4377    4.3703    0.7547 C   0  0  0  0  0  0  0  0  0  0  0  0
    6.2015    4.5688    0.1173 C   0  0  0  0  0  0  0  0  0  0  0  0
    6.1239    5.0943   -1.1779 O   0  0  0  0  0  0  0  0  0  0  0  0
    6.4190    6.4573   -1.4503 C   0  0  0  0  0  0  0  0  0  0  0  0
    5.0242    4.1612    0.7401 C   0  0  0  0  0  0  0  0  0  0  0  0
    3.8508    4.2730    0.0633 F   0  0  0  0  0  0  0  0  0  0  0  0
    8.6569    4.2999   -0.0799 C   0  0  0  0  0  0  0  0  0  0  0  0
    8.8741    3.2043   -0.8338 C   0  0  0  0  0  0  0  0  0  0  0  0
    9.2102    3.2803   -2.2507 C   0  0  0  0  0  0  0  0  0  0  0  0
    9.9211    4.1661   -2.7883 O   0  0  0  0  0  0  0  0  0  0  0  0
    8.4658    2.2288   -2.9490 C   0  0  0  0  0  0  0  0  0  0  0  0
    8.2836    2.0326   -4.3237 C   0  0  0  0  0  0  0  0  0  0  0  0
    9.1850    2.9927   -5.4959 Cl  0  0  0  0  0  0  0  0  0  0  0  0
    7.3465    1.0654   -4.7456 C   0  0  0  0  0  0  0  0  0  0  0  0
    7.1313    0.7461   -6.4663 Cl  0  0  0  0  0  0  0  0  0  0  0  0
    6.5563    0.3777   -3.7946 C   0  0  0  0  0  0  0  0  0  0  0  0
    5.3326   -0.7788   -4.3306 Cl  0  0  0  0  0  0  0  0  0  0  0  0
    6.7244    0.6312   -2.4167 C   0  0  0  0  0  0  0  0  0  0  0  0
    5.5153    0.0598   -1.2640 Cl  0  0  0  0  0  0  0  0  0  0  0  0
    7.7613    1.4867   -2.0131 C   0  0  0  0  0  0  0  0  0  0  0  0
    8.1778    1.9052   -0.6552 C   0  0  0  0  0  0  0  0  0  0  0  0
    8.4441    1.0616    0.3681 C   0  0  0  0  0  0  0  0  0  0  0  0
    9.4024    1.4119    1.3851 C   0  0  0  0  0  0  0  0  0  0  0  0
   10.1925    1.6754    2.1896 N   0  0  0  0  0  0  0  0  0  0  0  0
    8.0487   -0.3235    0.3725 C   0  0  0  0  0  0  0  0  0  0  0  0
    7.7369   -1.4396    0.4039 N   0  0  0  0  0  0  0  0  0  0  0  0
   -6.2546   -1.7764   -3.5179 H   0  0  0  0  0  0  0  0  0  0  0  0
   -3.2401   -6.4646   -0.5953 H   0  0  0  0  0  0  0  0  0  0  0  0
   -7.8392   -7.0749   -2.7253 H   0  0  0  0  0  0  0  0  0  0  0  0
   -7.3316   -9.1297   -0.0029 H   0  0  0  0  0  0  0  0  0  0  0  0
   -7.1440  -10.6387   -2.3289 H   0  0  0  0  0  0  0  0  0  0  0  0
   -6.8881  -12.4130   -0.3718 H   0  0  0  0  0  0  0  0  0  0  0  0
   -4.5165  -12.1224    0.6924 H   0  0  0  0  0  0  0  0  0  0  0  0
   -3.2637  -10.1698   -0.5908 H   0  0  0  0  0  0  0  0  0  0  0  0
   -4.7288   -9.5685   -2.7591 H   0  0  0  0  0  0  0  0  0  0  0  0
   -4.6006  -11.3686   -2.5540 H   0  0  0  0  0  0  0  0  0  0  0  0
   -5.1638   -8.8869    0.9804 H   0  0  0  0  0  0  0  0  0  0  0  0
   -0.3463   -2.2452   -4.7106 H   0  0  0  0  0  0  0  0  0  0  0  0
    1.8591   -1.1769   -5.0567 H   0  0  0  0  0  0  0  0  0  0  0  0
    2.1727    2.3655   -2.7602 H   0  0  0  0  0  0  0  0  0  0  0  0
    2.8919    0.7025   -2.7746 H   0  0  0  0  0  0  0  0  0  0  0  0
    3.9473    2.1500   -3.0115 H   0  0  0  0  0  0  0  0  0  0  0  0
    0.0391    2.7025   -4.6807 H   0  0  0  0  0  0  0  0  0  0  0  0
   -2.1627    1.6403   -4.3355 H   0  0  0  0  0  0  0  0  0  0  0  0
   -2.6230   -2.7984   -6.1617 H   0  0  0  0  0  0  0  0  0  0  0  0
   -4.0941   -2.8412   -8.1443 H   0  0  0  0  0  0  0  0  0  0  0  0
   -4.2138   -0.2133   -9.8943 H   0  0  0  0  0  0  0  0  0  0  0  0
   -5.3703    1.0863   -9.3689 H   0  0  0  0  0  0  0  0  0  0  0  0
   -5.6494    0.1885  -10.9118 H   0  0  0  0  0  0  0  0  0  0  0  0
   -6.2034    0.6070   -6.6591 H   0  0  0  0  0  0  0  0  0  0  0  0
   -4.7306    0.6574   -4.6805 H   0  0  0  0  0  0  0  0  0  0  0  0
   -2.8101    2.5822    0.1142 H   0  0  0  0  0  0  0  0  0  0  0  0
   -4.5633    4.2323   -0.3561 H   0  0  0  0  0  0  0  0  0  0  0  0
   -7.1347    3.4358   -1.4799 H   0  0  0  0  0  0  0  0  0  0  0  0
   -8.2713    2.6022   -0.3377 H   0  0  0  0  0  0  0  0  0  0  0  0
   -8.7712    4.1242   -1.1717 H   0  0  0  0  0  0  0  0  0  0  0  0
   -7.1220    2.3553    2.5522 H   0  0  0  0  0  0  0  0  0  0  0  0
   -5.3813    0.6784    3.0140 H   0  0  0  0  0  0  0  0  0  0  0  0
   -2.8757    1.6828    4.1615 H   0  0  0  0  0  0  0  0  0  0  0  0
   -2.6500    0.6066    6.3637 H   0  0  0  0  0  0  0  0  0  0  0  0
   -0.2642   -1.0902    7.2526 H   0  0  0  0  0  0  0  0  0  0  0  0
   -0.1825   -2.7464    6.5029 H   0  0  0  0  0  0  0  0  0  0  0  0
   -0.3296   -2.5684    8.2926 H   0  0  0  0  0  0  0  0  0  0  0  0
   -2.2699   -3.2359    4.4597 H   0  0  0  0  0  0  0  0  0  0  0  0
   -2.5019   -2.1741    2.2555 H   0  0  0  0  0  0  0  0  0  0  0  0
    0.8061   -1.4811    3.7889 H   0  0  0  0  0  0  0  0  0  0  0  0
    1.9811   -2.6477    5.6254 H   0  0  0  0  0  0  0  0  0  0  0  0
    5.9759   -2.2250    5.5623 H   0  0  0  0  0  0  0  0  0  0  0  0
    5.9166   -2.9130    7.2351 H   0  0  0  0  0  0  0  0  0  0  0  0
    4.5595   -1.8782    6.6453 H   0  0  0  0  0  0  0  0  0  0  0  0
    5.1529   -3.7277    2.9345 H   0  0  0  0  0  0  0  0  0  0  0  0
    3.9897   -2.5743    1.0891 H   0  0  0  0  0  0  0  0  0  0  0  0
   -0.1831   -3.2374    0.9748 H   0  0  0  0  0  0  0  0  0  0  0  0
   -0.5455   -4.6526   -1.0152 H   0  0  0  0  0  0  0  0  0  0  0  0
    1.6519   -6.3490   -2.0377 H   0  0  0  0  0  0  0  0  0  0  0  0
    2.0184   -6.7794   -3.7527 H   0  0  0  0  0  0  0  0  0  0  0  0
    2.9597   -5.4690   -2.9424 H   0  0  0  0  0  0  0  0  0  0  0  0
    2.5133   -2.4748   -3.1187 H   0  0  0  0  0  0  0  0  0  0  0  0
    2.8528   -1.0397   -1.1326 H   0  0  0  0  0  0  0  0  0  0  0  0
    0.7704    5.4010    4.9556 H   0  0  0  0  0  0  0  0  0  0  0  0
   -1.4623    6.4460    4.8324 H   0  0  0  0  0  0  0  0  0  0  0  0
   -3.6123    4.6878    2.5679 H   0  0  0  0  0  0  0  0  0  0  0  0
   -3.9418    5.4227    4.1846 H   0  0  0  0  0  0  0  0  0  0  0  0
   -5.1207    5.6470    2.8405 H   0  0  0  0  0  0  0  0  0  0  0  0
   -1.3549    6.1765    0.5393 H   0  0  0  0  0  0  0  0  0  0  0  0
    0.9100    5.1896    0.6537 H   0  0  0  0  0  0  0  0  0  0  0  0
    3.2347    7.1154    2.3822 H   0  0  0  0  0  0  0  0  0  0  0  0
    4.9480    8.3481    3.6600 H   0  0  0  0  0  0  0  0  0  0  0  0
    4.8590    7.5174    7.7949 H   0  0  0  0  0  0  0  0  0  0  0  0
    5.9404    8.9527    7.9767 H   0  0  0  0  0  0  0  0  0  0  0  0
    4.6219    8.9785    6.7428 H   0  0  0  0  0  0  0  0  0  0  0  0
    5.2852    5.0448    6.4038 H   0  0  0  0  0  0  0  0  0  0  0  0
    3.5541    3.8216    5.1476 H   0  0  0  0  0  0  0  0  0  0  0  0
    7.0814    1.9316    5.6376 H   0  0  0  0  0  0  0  0  0  0  0  0
    8.1184    1.8673    4.1699 H   0  0  0  0  0  0  0  0  0  0  0  0
    7.9043    3.4282    5.0851 H   0  0  0  0  0  0  0  0  0  0  0  0
    5.7082    7.1149   -0.9042 H   0  0  0  0  0  0  0  0  0  0  0  0
    7.4552    6.7043   -1.1470 H   0  0  0  0  0  0  0  0  0  0  0  0
    6.3119    6.6418   -2.5413 H   0  0  0  0  0  0  0  0  0  0  0  0
    9.0974    5.2385   -0.3963 H   0  0  0  0  0  0  0  0  0  0  0  0
  1  2  2  3
  2  3  1  0
  3  4  2  0
  3  5  1  0
  5  6  2  0
  6  7  1  0
  7  8  2  0
  8  9  1  0
  9 10  2  0
 10 11  1  0
 11 12  2  3
 12 13  1  0
 13 14  3  0
 12 15  1  0
 15 16  3  0
  8 17  1  0
 17 18  1  0
 18 19  1  0
 19 20  2  0
 20 21  1  0
 21 22  1  0
 21 23  1  0
  1 24  1  0
 24 25  2  0
 25 26  1  0
 26 27  1  0
 27 28  2  0
 28 29  1  0
 29 30  2  0
 30 31  1  0
 31 32  1  0
 30 33  1  0
 33 34  2  0
 26 35  1  0
 35 36  2  0
 36 37  1  0
 37 38  2  0
 38 39  1  0
 39 40  1  0
 38 41  1  0
 41 42  2  0
 25 43  1  0
 43 44  1  0
 44 45  1  0
 45 46  2  0
 46 47  1  0
 47 48  1  0
 48 49  2  0
 49 50  1  0
 50 51  2  0
 51 52  1  0
 52 53  1  0
 51 54  1  0
 54 55  2  0
 47 56  1  0
 56 57  2  0
 57 58  1  0
 58 59  2  0
 59 60  1  0
 60 61  1  0
 59 62  1  0
 62 63  2  0
 46 64  1  0
 64 65  1  0
 45 66  1  0
 66 67  2  0
 67 68  1  0
 68 69  1  0
 69 70  2  0
 70 71  1  0
 71 72  2  0
 72 73  1  0
 73 74  1  0
 72 75  1  0
 75 76  2  0
 68 77  1  0
 77 78  2  0
 78 79  1  0
 79 80  2  0
 80 81  1  0
 81 82  1  0
 80 83  1  0
 83 84  2  0
 67 85  1  0
 85 86  1  0
 86 87  1  0
 87 88  2  0
 88 89  1  0
 89 90  1  0
 90 91  2  0
 91 92  1  0
 92 93  2  0
 93 94  1  0
 94 95  1  0
 93 96  1  0
 96 97  2  0
 89 98  1  0
 98 99  2  0
 99100  1  0
100101  2  0
101102  1  0
102103  1  0
101104  1  0
104105  2  0
 88106  1  0
106107  1  0
 87108  1  0
108109  2  0
109110  1  0
110111  1  0
109112  1  0
112113  1  0
112114  2  0
114115  1  0
115116  1  0
116117  1  0
115118  2  0
118119  1  0
114120  1  0
120121  2  3
121122  1  0
122123  2  0
122124  1  0
124125  2  0
125126  1  0
125127  1  0
127128  1  0
127129  2  0
129130  1  0
129131  1  0
131132  1  0
131133  2  0
133134  1  0
134135  2  3
135136  1  0
136137  3  0
135138  1  0
138139  3  0
 11  2  1  0
 23 17  1  0
 65 24  1  0
107 66  1  0
118108  1  0
134121  1  0
 10  5  1  0
 22 18  1  0
 34 27  1  0
 42 35  1  0
 64 43  2  0
 76 69  1  0
 84 77  1  0
106 85  2  0
133124  1  0
 23  7  1  0
 55 48  1  0
 63 56  1  0
 97 90  1  0
105 98  1  0
  1140  1  0
  6141  1  0
  9142  1  0
 17143  1  0
 18144  1  0
 19145  1  0
 20146  1  0
 21147  1  0
 22148  1  0
 22149  1  0
 23150  1  0
 28151  1  0
 29152  1  0
 32153  1  0
 32154  1  0
 32155  1  0
 33156  1  0
 34157  1  0
 36158  1  0
 37159  1  0
 40160  1  0
 40161  1  0
 40162  1  0
 41163  1  0
 42164  1  0
 49165  1  0
 50166  1  0
 53167  1  0
 53168  1  0
 53169  1  0
 54170  1  0
 55171  1  0
 57172  1  0
 58173  1  0
 61174  1  0
 61175  1  0
 61176  1  0
 62177  1  0
 63178  1  0
 70179  1  0
 71180  1  0
 74181  1  0
 74182  1  0
 74183  1  0
 75184  1  0
 76185  1  0
 78186  1  0
 79187  1  0
 82188  1  0
 82189  1  0
 82190  1  0
 83191  1  0
 84192  1  0
 91193  1  0
 92194  1  0
 95195  1  0
 95196  1  0
 95197  1  0
 96198  1  0
 97199  1  0
 99200  1  0
100201  1  0
103202  1  0
103203  1  0
103204  1  0
104205  1  0
105206  1  0
111207  1  0
111208  1  0
111209  1  0
117210  1  0
117211  1  0
117212  1  0
120213  1  0
M  END

