
     RDKit          3D

239262  0  0  0  0  0  0  0  0999 V2000
   -7.0045   -1.0565   -1.9832 C   0  0  0  0  0  0  0  0  0  0  0  0
   -6.8017   -1.0183   -0.6540 C   0  0  0  0  0  0  0  0  0  0  0  0
   -5.4755   -1.0373   -0.0168 C   0  0  0  0  0  0  0  0  0  0  0  0
   -4.3593   -0.6967   -0.5137 O   0  0  0  0  0  0  0  0  0  0  0  0
   -5.6128   -1.4344    1.3518 C   0  0  0  0  0  0  0  0  0  0  0  0
   -4.5289   -1.6500    2.2450 C   0  0  0  0  0  0  0  0  0  0  0  0
   -4.9347   -1.9038    3.5330 C   0  0  0  0  0  0  0  0  0  0  0  0
   -6.3175   -1.9816    3.9211 C   0  0  0  0  0  0  0  0  0  0  0  0
   -7.3855   -1.8093    3.0449 C   0  0  0  0  0  0  0  0  0  0  0  0
   -6.9796   -1.5315    1.6878 C   0  0  0  0  0  0  0  0  0  0  0  0
   -7.7847   -1.2039    0.4700 C   0  0  0  0  0  0  0  0  0  0  0  0
   -9.1399   -1.0346    0.4288 C   0  0  0  0  0  0  0  0  0  0  0  0
  -10.0071   -1.3314    1.5316 C   0  0  0  0  0  0  0  0  0  0  0  0
  -10.7047   -1.5686    2.4284 N   0  0  0  0  0  0  0  0  0  0  0  0
   -9.8271   -0.4097   -0.6601 C   0  0  0  0  0  0  0  0  0  0  0  0
  -10.3973    0.0822   -1.5506 N   0  0  0  0  0  0  0  0  0  0  0  0
   -5.9168   -2.4026    5.3041 C   0  0  0  0  0  0  0  0  0  0  0  0
   -6.0704   -3.9068    5.7185 C   0  0  0  0  0  0  0  0  0  0  0  0
   -5.9054   -4.8248    4.5231 C   0  0  0  0  0  0  0  0  0  0  0  0
   -4.6127   -4.7426    4.1646 C   0  0  0  0  0  0  0  0  0  0  0  0
   -3.9571   -3.7761    5.1180 C   0  0  0  0  0  0  0  0  0  0  0  0
   -4.7277   -4.1442    6.3812 C   0  0  0  0  0  0  0  0  0  0  0  0
   -4.4982   -2.3039    4.9005 C   0  0  0  0  0  0  0  0  0  0  0  0
   -5.8826   -0.9961   -2.9459 C   0  0  0  0  0  0  0  0  0  0  0  0
   -4.8835   -1.9966   -2.9968 C   0  0  0  0  0  0  0  0  0  0  0  0
   -5.1937   -3.3981   -2.9325 N   0  0  0  0  0  0  0  0  0  0  0  0
   -6.2141   -3.8627   -3.8097 C   0  0  0  0  0  0  0  0  0  0  0  0
   -6.3100   -3.3333   -5.1269 C   0  0  0  0  0  0  0  0  0  0  0  0
   -7.1983   -3.8462   -6.0586 C   0  0  0  0  0  0  0  0  0  0  0  0
   -8.0034   -4.9354   -5.7121 C   0  0  0  0  0  0  0  0  0  0  0  0
   -9.2714   -5.5186   -6.8507 S   0  0  0  0  0  0  0  0  0  0  0  0
   -8.1339   -6.4049   -7.9681 C   0  0  0  0  0  0  0  0  0  0  0  0
   -7.9105   -5.5003   -4.4167 C   0  0  0  0  0  0  0  0  0  0  0  0
   -7.0322   -4.9614   -3.4761 C   0  0  0  0  0  0  0  0  0  0  0  0
   -4.2503   -4.3496   -2.3662 C   0  0  0  0  0  0  0  0  0  0  0  0
   -3.8257   -4.2501   -1.0191 C   0  0  0  0  0  0  0  0  0  0  0  0
   -3.0006   -5.2457   -0.4470 C   0  0  0  0  0  0  0  0  0  0  0  0
   -2.5698   -6.3337   -1.2288 C   0  0  0  0  0  0  0  0  0  0  0  0
   -1.3374   -7.4471   -0.4850 S   0  0  0  0  0  0  0  0  0  0  0  0
   -1.8512   -9.0032   -1.3083 C   0  0  0  0  0  0  0  0  0  0  0  0
   -2.9418   -6.3976   -2.5867 C   0  0  0  0  0  0  0  0  0  0  0  0
   -3.7974   -5.4357   -3.1344 C   0  0  0  0  0  0  0  0  0  0  0  0
   -3.6583   -1.4590   -3.4048 C   0  0  0  0  0  0  0  0  0  0  0  0
   -2.0804   -2.0001   -3.4487 S   0  0  0  0  0  0  0  0  0  0  0  0
   -1.3690   -0.4652   -3.7630 C   0  0  0  0  0  0  0  0  0  0  0  0
   -2.4061    0.4503   -4.0532 C   0  0  0  0  0  0  0  0  0  0  0  0
   -2.3095    1.3932   -5.1531 N   0  0  0  0  0  0  0  0  0  0  0  0
   -1.8849    0.9050   -6.4513 C   0  0  0  0  0  0  0  0  0  0  0  0
   -2.2568   -0.3896   -6.8745 C   0  0  0  0  0  0  0  0  0  0  0  0
   -1.6880   -1.0061   -7.9863 C   0  0  0  0  0  0  0  0  0  0  0  0
   -0.7142   -0.3222   -8.7250 C   0  0  0  0  0  0  0  0  0  0  0  0
    0.0815   -1.1214  -10.1361 S   0  0  0  0  0  0  0  0  0  0  0  0
    0.6932   -2.5709   -9.1930 C   0  0  0  0  0  0  0  0  0  0  0  0
   -0.4106    1.0212   -8.4065 C   0  0  0  0  0  0  0  0  0  0  0  0
   -0.9861    1.6307   -7.2698 C   0  0  0  0  0  0  0  0  0  0  0  0
   -2.7121    2.7619   -4.9956 C   0  0  0  0  0  0  0  0  0  0  0  0
   -4.0660    3.1139   -5.0785 C   0  0  0  0  0  0  0  0  0  0  0  0
   -4.4969    4.4074   -4.7482 C   0  0  0  0  0  0  0  0  0  0  0  0
   -3.5445    5.3768   -4.3699 C   0  0  0  0  0  0  0  0  0  0  0  0
   -4.1158    6.9986   -3.8402 S   0  0  0  0  0  0  0  0  0  0  0  0
   -4.3331    6.4322   -2.1206 C   0  0  0  0  0  0  0  0  0  0  0  0
   -2.1800    5.0642   -4.4161 C   0  0  0  0  0  0  0  0  0  0  0  0
   -1.7626    3.7607   -4.7298 C   0  0  0  0  0  0  0  0  0  0  0  0
   -3.6600   -0.1170   -3.7246 C   0  0  0  0  0  0  0  0  0  0  0  0
   -5.2065    0.4744   -3.4601 S   0  0  0  0  0  0  0  0  0  0  0  0
    0.0390   -0.0719   -3.4705 C   0  0  0  0  0  0  0  0  0  0  0  0
    0.9539   -0.8347   -2.6869 C   0  0  0  0  0  0  0  0  0  0  0  0
    0.5847   -2.0350   -1.9982 N   0  0  0  0  0  0  0  0  0  0  0  0
    1.0086   -3.3275   -2.5300 C   0  0  0  0  0  0  0  0  0  0  0  0
    2.2216   -3.4261   -3.2298 C   0  0  0  0  0  0  0  0  0  0  0  0
    2.6123   -4.6570   -3.7887 C   0  0  0  0  0  0  0  0  0  0  0  0
    1.7763   -5.7736   -3.6752 C   0  0  0  0  0  0  0  0  0  0  0  0
    2.2216   -7.3085   -4.5081 S   0  0  0  0  0  0  0  0  0  0  0  0
    3.0863   -7.9959   -3.0555 C   0  0  0  0  0  0  0  0  0  0  0  0
    0.5379   -5.6479   -3.0483 C   0  0  0  0  0  0  0  0  0  0  0  0
    0.1509   -4.4275   -2.4623 C   0  0  0  0  0  0  0  0  0  0  0  0
    0.0283   -1.8879   -0.6768 C   0  0  0  0  0  0  0  0  0  0  0  0
   -0.9628   -0.9034   -0.4473 C   0  0  0  0  0  0  0  0  0  0  0  0
   -1.3830   -0.5968    0.8238 C   0  0  0  0  0  0  0  0  0  0  0  0
   -0.7777   -1.1861    1.9457 C   0  0  0  0  0  0  0  0  0  0  0  0
   -1.3826   -0.7949    3.5990 S   0  0  0  0  0  0  0  0  0  0  0  0
   -1.3760    1.0224    3.4204 C   0  0  0  0  0  0  0  0  0  0  0  0
    0.2086   -2.1751    1.7396 C   0  0  0  0  0  0  0  0  0  0  0  0
    0.5883   -2.5465    0.4309 C   0  0  0  0  0  0  0  0  0  0  0  0
    2.0050   -0.0640   -2.1850 C   0  0  0  0  0  0  0  0  0  0  0  0
    3.0755   -0.3132   -0.8950 S   0  0  0  0  0  0  0  0  0  0  0  0
    3.5319    1.3033   -0.7438 C   0  0  0  0  0  0  0  0  0  0  0  0
    2.7783    2.0805   -1.6745 C   0  0  0  0  0  0  0  0  0  0  0  0
    2.6579    3.5132   -1.5561 N   0  0  0  0  0  0  0  0  0  0  0  0
    3.8827    4.2886   -1.4359 C   0  0  0  0  0  0  0  0  0  0  0  0
    4.0500    5.1946   -0.3738 C   0  0  0  0  0  0  0  0  0  0  0  0
    5.1518    6.0660   -0.3620 C   0  0  0  0  0  0  0  0  0  0  0  0
    6.1011    6.0339   -1.3924 C   0  0  0  0  0  0  0  0  0  0  0  0
    7.4907    7.1716   -1.3250 S   0  0  0  0  0  0  0  0  0  0  0  0
    8.5145    6.0150   -0.3451 C   0  0  0  0  0  0  0  0  0  0  0  0
    5.9398    5.1397   -2.4733 C   0  0  0  0  0  0  0  0  0  0  0  0
    4.8288    4.2645   -2.4975 C   0  0  0  0  0  0  0  0  0  0  0  0
    1.3923    4.1290   -1.2372 C   0  0  0  0  0  0  0  0  0  0  0  0
    0.6490    3.6681   -0.1186 C   0  0  0  0  0  0  0  0  0  0  0  0
   -0.3527    4.4842    0.4497 C   0  0  0  0  0  0  0  0  0  0  0  0
   -0.5871    5.7727   -0.0963 C   0  0  0  0  0  0  0  0  0  0  0  0
   -1.8449    6.8383    0.6433 S   0  0  0  0  0  0  0  0  0  0  0  0
   -0.7147    8.2150    1.0418 C   0  0  0  0  0  0  0  0  0  0  0  0
    0.0798    6.1691   -1.2751 C   0  0  0  0  0  0  0  0  0  0  0  0
    1.0669    5.3515   -1.8302 C   0  0  0  0  0  0  0  0  0  0  0  0
    1.9810    1.2686   -2.5029 C   0  0  0  0  0  0  0  0  0  0  0  0
    0.6000    1.5434   -3.4182 S   0  0  0  0  0  0  0  0  0  0  0  0
    3.9811    1.7806    0.5746 C   0  0  0  0  0  0  0  0  0  0  0  0
    5.2966    2.0214    1.0044 C   0  0  0  0  0  0  0  0  0  0  0  0
    5.1655    2.5887    2.2801 C   0  0  0  0  0  0  0  0  0  0  0  0
    6.1048    2.9086    3.2919 C   0  0  0  0  0  0  0  0  0  0  0  0
    7.5350    2.5069    3.1844 C   0  0  0  0  0  0  0  0  0  0  0  0
    8.3077    2.9606    2.0926 C   0  0  0  0  0  0  0  0  0  0  0  0
    9.5871    2.4396    1.8833 C   0  0  0  0  0  0  0  0  0  0  0  0
   10.1003    1.4511    2.7389 C   0  0  0  0  0  0  0  0  0  0  0  0
   11.4658    0.8610    2.5155 C   0  0  0  0  0  0  0  0  0  0  0  0
   11.3874   -0.3094    1.5301 C   0  0  0  0  0  0  0  0  0  0  0  0
    9.3274    1.0100    3.8291 C   0  0  0  0  0  0  0  0  0  0  0  0
    8.0575    1.5417    4.0510 C   0  0  0  0  0  0  0  0  0  0  0  0
    5.5439    3.4072    4.4906 C   0  0  0  0  0  0  0  0  0  0  0  0
    4.1693    3.4985    4.6540 C   0  0  0  0  0  0  0  0  0  0  0  0
    3.2516    2.9051    3.7770 C   0  0  0  0  0  0  0  0  0  0  0  0
    2.1683    2.1093    4.3460 C   0  0  0  0  0  0  0  0  0  0  0  0
    2.3176    0.7159    4.3045 C   0  0  0  0  0  0  0  0  0  0  0  0
    1.6019   -0.0905    5.1665 C   0  0  0  0  0  0  0  0  0  0  0  0
    0.6870    0.4532    6.0752 C   0  0  0  0  0  0  0  0  0  0  0  0
   -0.0180   -0.4511    7.0364 C   0  0  0  0  0  0  0  0  0  0  0  0
    0.9297   -0.9147    8.1397 C   0  0  0  0  0  0  0  0  0  0  0  0
    0.5013    1.8588    6.1256 C   0  0  0  0  0  0  0  0  0  0  0  0
    1.2061    2.6747    5.2263 C   0  0  0  0  0  0  0  0  0  0  0  0
    3.7985    2.5769    2.5389 C   0  0  0  0  0  0  0  0  0  0  0  0
    3.1284    2.0979    1.5240 O   0  0  0  0  0  0  0  0  0  0  0  0
    3.9676    3.9405    5.9610 C   0  0  0  0  0  0  0  0  0  0  0  0
    5.2077    4.1514    6.4696 C   0  0  0  0  0  0  0  0  0  0  0  0
    6.1415    3.8076    5.6018 O   0  0  0  0  0  0  0  0  0  0  0  0
    5.3981    4.6540    7.8156 C   0  0  0  0  0  0  0  0  0  0  0  0
    4.7129    5.7274    8.2783 C   0  0  0  0  0  0  0  0  0  0  0  0
    4.0071    6.7680    7.5260 C   0  0  0  0  0  0  0  0  0  0  0  0
    4.0601    6.9529    6.2752 O   0  0  0  0  0  0  0  0  0  0  0  0
    3.3037    7.6468    8.4720 C   0  0  0  0  0  0  0  0  0  0  0  0
    2.5139    8.7719    8.2560 C   0  0  0  0  0  0  0  0  0  0  0  0
    1.9477    9.4248    9.3691 C   0  0  0  0  0  0  0  0  0  0  0  0
    2.1626    8.9260   10.6801 C   0  0  0  0  0  0  0  0  0  0  0  0
    2.9735    7.8050   10.8825 C   0  0  0  0  0  0  0  0  0  0  0  0
    3.5415    7.1890    9.7503 C   0  0  0  0  0  0  0  0  0  0  0  0
    4.4043    5.9999    9.6812 C   0  0  0  0  0  0  0  0  0  0  0  0
    4.6766    5.3042   10.6987 O   0  0  0  0  0  0  0  0  0  0  0  0
   -7.9896   -1.1676   -2.3773 H   0  0  0  0  0  0  0  0  0  0  0  0
   -3.4703   -1.6204    1.9388 H   0  0  0  0  0  0  0  0  0  0  0  0
   -8.4096   -1.9388    3.4030 H   0  0  0  0  0  0  0  0  0  0  0  0
   -6.1815   -1.6274    6.0742 H   0  0  0  0  0  0  0  0  0  0  0  0
   -6.9592   -4.1163    6.3494 H   0  0  0  0  0  0  0  0  0  0  0  0
   -6.6947   -5.3169    3.9510 H   0  0  0  0  0  0  0  0  0  0  0  0
   -4.1691   -5.2079    3.2747 H   0  0  0  0  0  0  0  0  0  0  0  0
   -2.8591   -3.8763    5.1791 H   0  0  0  0  0  0  0  0  0  0  0  0
   -4.5096   -3.4477    7.2285 H   0  0  0  0  0  0  0  0  0  0  0  0
   -4.5473   -5.1909    6.7201 H   0  0  0  0  0  0  0  0  0  0  0  0
   -3.9255   -1.5193    5.4485 H   0  0  0  0  0  0  0  0  0  0  0  0
   -5.6576   -2.5166   -5.4484 H   0  0  0  0  0  0  0  0  0  0  0  0
   -7.2917   -3.3843   -7.0493 H   0  0  0  0  0  0  0  0  0  0  0  0
   -7.1143   -5.9551   -8.0114 H   0  0  0  0  0  0  0  0  0  0  0  0
   -8.0572   -7.4812   -7.6562 H   0  0  0  0  0  0  0  0  0  0  0  0
   -8.5277   -6.3458   -9.0020 H   0  0  0  0  0  0  0  0  0  0  0  0
   -8.5333   -6.3240   -4.1439 H   0  0  0  0  0  0  0  0  0  0  0  0
   -6.9197   -5.4149   -2.4989 H   0  0  0  0  0  0  0  0  0  0  0  0
   -4.1663   -3.4419   -0.4062 H   0  0  0  0  0  0  0  0  0  0  0  0
   -2.6628   -5.1390    0.5917 H   0  0  0  0  0  0  0  0  0  0  0  0
   -2.9488   -9.0720   -1.5152 H   0  0  0  0  0  0  0  0  0  0  0  0
   -1.5788   -9.8537   -0.6492 H   0  0  0  0  0  0  0  0  0  0  0  0
   -1.3043   -9.1394   -2.2765 H   0  0  0  0  0  0  0  0  0  0  0  0
   -2.6421   -7.2186   -3.2421 H   0  0  0  0  0  0  0  0  0  0  0  0
   -4.1319   -5.5777   -4.1844 H   0  0  0  0  0  0  0  0  0  0  0  0
   -2.9405   -0.9926   -6.2968 H   0  0  0  0  0  0  0  0  0  0  0  0
   -1.9997   -2.0350   -8.1869 H   0  0  0  0  0  0  0  0  0  0  0  0
    1.1843   -2.3009   -8.2199 H   0  0  0  0  0  0  0  0  0  0  0  0
   -0.1298   -3.3015   -9.0107 H   0  0  0  0  0  0  0  0  0  0  0  0
    1.4399   -3.0840   -9.8185 H   0  0  0  0  0  0  0  0  0  0  0  0
    0.2907    1.5793   -9.0085 H   0  0  0  0  0  0  0  0  0  0  0  0
   -0.6981    2.6566   -7.0197 H   0  0  0  0  0  0  0  0  0  0  0  0
   -4.7875    2.3663   -5.3650 H   0  0  0  0  0  0  0  0  0  0  0  0
   -5.5565    4.6341   -4.7678 H   0  0  0  0  0  0  0  0  0  0  0  0
   -4.7107    5.3915   -2.1040 H   0  0  0  0  0  0  0  0  0  0  0  0
   -3.3455    6.4296   -1.6012 H   0  0  0  0  0  0  0  0  0  0  0  0
   -5.0788    7.0562   -1.5891 H   0  0  0  0  0  0  0  0  0  0  0  0
   -1.4149    5.8198   -4.1993 H   0  0  0  0  0  0  0  0  0  0  0  0
   -0.6945    3.5340   -4.7585 H   0  0  0  0  0  0  0  0  0  0  0  0
    2.9105   -2.5759   -3.3103 H   0  0  0  0  0  0  0  0  0  0  0  0
    3.5802   -4.7100   -4.3059 H   0  0  0  0  0  0  0  0  0  0  0  0
    4.0091   -7.4099   -2.8222 H   0  0  0  0  0  0  0  0  0  0  0  0
    3.3992   -9.0392   -3.2877 H   0  0  0  0  0  0  0  0  0  0  0  0
    2.4268   -8.0298   -2.1649 H   0  0  0  0  0  0  0  0  0  0  0  0
   -0.1296   -6.4975   -3.0073 H   0  0  0  0  0  0  0  0  0  0  0  0
   -0.8239   -4.3442   -1.9788 H   0  0  0  0  0  0  0  0  0  0  0  0
   -1.4257   -0.3277   -1.2599 H   0  0  0  0  0  0  0  0  0  0  0  0
   -2.1934    0.1262    0.8922 H   0  0  0  0  0  0  0  0  0  0  0  0
   -2.2412    1.3653    2.8101 H   0  0  0  0  0  0  0  0  0  0  0  0
   -0.4199    1.3976    2.9607 H   0  0  0  0  0  0  0  0  0  0  0  0
   -1.5212    1.4725    4.4126 H   0  0  0  0  0  0  0  0  0  0  0  0
    0.6739   -2.6666    2.5904 H   0  0  0  0  0  0  0  0  0  0  0  0
    1.3963   -3.2779    0.2796 H   0  0  0  0  0  0  0  0  0  0  0  0
    3.3205    5.2549    0.4660 H   0  0  0  0  0  0  0  0  0  0  0  0
    5.2505    6.7825    0.4458 H   0  0  0  0  0  0  0  0  0  0  0  0
    8.1532    6.0023    0.7359 H   0  0  0  0  0  0  0  0  0  0  0  0
    8.4349    4.9893   -0.8188 H   0  0  0  0  0  0  0  0  0  0  0  0
    9.5870    6.3826   -0.4325 H   0  0  0  0  0  0  0  0  0  0  0  0
    6.6370    5.1386   -3.3102 H   0  0  0  0  0  0  0  0  0  0  0  0
    4.6719    3.6057   -3.3439 H   0  0  0  0  0  0  0  0  0  0  0  0
    0.8911    2.7192    0.3545 H   0  0  0  0  0  0  0  0  0  0  0  0
   -0.9110    4.1384    1.3212 H   0  0  0  0  0  0  0  0  0  0  0  0
   -1.1777    8.7766    1.8685 H   0  0  0  0  0  0  0  0  0  0  0  0
   -0.6055    8.9032    0.1691 H   0  0  0  0  0  0  0  0  0  0  0  0
    0.2964    7.8719    1.3752 H   0  0  0  0  0  0  0  0  0  0  0  0
   -0.1081    7.1374   -1.7425 H   0  0  0  0  0  0  0  0  0  0  0  0
    1.6982    5.7638   -2.6207 H   0  0  0  0  0  0  0  0  0  0  0  0
    6.2148    1.8517    0.4454 H   0  0  0  0  0  0  0  0  0  0  0  0
    7.8894    3.6833    1.3894 H   0  0  0  0  0  0  0  0  0  0  0  0
   10.1754    2.7991    1.0228 H   0  0  0  0  0  0  0  0  0  0  0  0
   12.1618    1.6482    2.1296 H   0  0  0  0  0  0  0  0  0  0  0  0
   11.8987    0.5058    3.4830 H   0  0  0  0  0  0  0  0  0  0  0  0
   11.1554    0.0551    0.5110 H   0  0  0  0  0  0  0  0  0  0  0  0
   12.3824   -0.8096    1.4990 H   0  0  0  0  0  0  0  0  0  0  0  0
   10.6317   -1.0345    1.8566 H   0  0  0  0  0  0  0  0  0  0  0  0
    9.6841    0.2457    4.5115 H   0  0  0  0  0  0  0  0  0  0  0  0
    7.4280    1.1596    4.8685 H   0  0  0  0  0  0  0  0  0  0  0  0
    3.0884    0.2517    3.6813 H   0  0  0  0  0  0  0  0  0  0  0  0
    1.8009   -1.1631    5.1247 H   0  0  0  0  0  0  0  0  0  0  0  0
   -0.9046    0.0515    7.4728 H   0  0  0  0  0  0  0  0  0  0  0  0
   -0.3740   -1.3302    6.4683 H   0  0  0  0  0  0  0  0  0  0  0  0
    1.3578   -0.0327    8.6828 H   0  0  0  0  0  0  0  0  0  0  0  0
    0.3946   -1.5697    8.8704 H   0  0  0  0  0  0  0  0  0  0  0  0
    1.7789   -1.4990    7.6960 H   0  0  0  0  0  0  0  0  0  0  0  0
   -0.1897    2.3250    6.8281 H   0  0  0  0  0  0  0  0  0  0  0  0
    1.1071    3.7486    5.2790 H   0  0  0  0  0  0  0  0  0  0  0  0
    3.0067    4.1331    6.4492 H   0  0  0  0  0  0  0  0  0  0  0  0
    5.8499    3.9489    8.5259 H   0  0  0  0  0  0  0  0  0  0  0  0
    2.3500    9.1500    7.2484 H   0  0  0  0  0  0  0  0  0  0  0  0
    1.3204   10.2943    9.2264 H   0  0  0  0  0  0  0  0  0  0  0  0
    1.7274    9.4239   11.5394 H   0  0  0  0  0  0  0  0  0  0  0  0
    3.1968    7.4249   11.8447 H   0  0  0  0  0  0  0  0  0  0  0  0
  1  2  2  3
  2  3  1  0
  3  4  2  0
  3  5  1  0
  5  6  2  0
  6  7  1  0
  7  8  2  0
  8  9  1  0
  9 10  2  0
 10 11  1  0
 11 12  2  3
 12 13  1  0
 13 14  3  0
 12 15  1  0
 15 16  3  0
  8 17  1  0
 17 18  1  0
 18 19  1  0
 19 20  2  0
 20 21  1  0
 21 22  1  0
 21 23  1  0
  1 24  1  0
 24 25  2  0
 25 26  1  0
 26 27  1  0
 27 28  2  0
 28 29  1  0
 29 30  2  0
 30 31  1  0
 31 32  1  0
 30 33  1  0
 33 34  2  0
 26 35  1  0
 35 36  2  0
 36 37  1  0
 37 38  2  0
 38 39  1  0
 39 40  1  0
 38 41  1  0
 41 42  2  0
 25 43  1  0
 43 44  1  0
 44 45  1  0
 45 46  2  0
 46 47  1  0
 47 48  1  0
 48 49  2  0
 49 50  1  0
 50 51  2  0
 51 52  1  0
 52 53  1  0
 51 54  1  0
 54 55  2  0
 47 56  1  0
 56 57  2  0
 57 58  1  0
 58 59  2  0
 59 60  1  0
 60 61  1  0
 59 62  1  0
 62 63  2  0
 46 64  1  0
 64 65  1  0
 45 66  1  0
 66 67  2  0
 67 68  1  0
 68 69  1  0
 69 70  2  0
 70 71  1  0
 71 72  2  0
 72 73  1  0
 73 74  1  0
 72 75  1  0
 75 76  2  0
 68 77  1  0
 77 78  2  0
 78 79  1  0
 79 80  2  0
 80 81  1  0
 81 82  1  0
 80 83  1  0
 83 84  2  0
 67 85  1  0
 85 86  1  0
 86 87  1  0
 87 88  2  0
 88 89  1  0
 89 90  1  0
 90 91  2  0
 91 92  1  0
 92 93  2  0
 93 94  1  0
 94 95  1  0
 93 96  1  0
 96 97  2  0
 89 98  1  0
 98 99  2  0
 99100  1  0
100101  2  0
101102  1  0
102103  1  0
101104  1  0
104105  2  0
 88106  1  0
106107  1  0
 87108  1  0
108109  2  0
109110  1  0
110111  2  0
111112  1  0
112113  2  0
113114  1  0
114115  2  0
115116  1  0
116117  1  0
115118  1  0
118119  2  0
111120  1  0
120121  2  0
121122  1  0
122123  1  0
123124  2  0
124125  1  0
125126  2  0
126127  1  0
127128  1  0
126129  1  0
129130  2  0
122131  2  0
131132  1  0
121133  1  0
133134  2  0
134135  1  0
134136  1  0
136137  2  3
137138  1  0
138139  2  0
138140  1  0
140141  2  0
141142  1  0
142143  2  0
143144  1  0
144145  2  0
145146  1  0
146147  2  0
 11  2  1  0
 23 17  1  0
 65 24  1  0
107 66  1  0
132108  1  0
146137  1  0
 10  5  1  0
 22 18  1  0
 34 27  1  0
 42 35  1  0
 64 43  2  0
 76 69  1  0
 84 77  1  0
106 85  2  0
131110  1  0
145140  1  0
 23  7  1  0
 55 48  1  0
 63 56  1  0
 97 90  1  0
105 98  1  0
119112  1  0
135120  1  0
130123  1  0
  1148  1  0
  6149  1  0
  9150  1  0
 17151  1  0
 18152  1  0
 19153  1  0
 20154  1  0
 21155  1  0
 22156  1  0
 22157  1  0
 23158  1  0
 28159  1  0
 29160  1  0
 32161  1  0
 32162  1  0
 32163  1  0
 33164  1  0
 34165  1  0
 36166  1  0
 37167  1  0
 40168  1  0
 40169  1  0
 40170  1  0
 41171  1  0
 42172  1  0
 49173  1  0
 50174  1  0
 53175  1  0
 53176  1  0
 53177  1  0
 54178  1  0
 55179  1  0
 57180  1  0
 58181  1  0
 61182  1  0
 61183  1  0
 61184  1  0
 62185  1  0
 63186  1  0
 70187  1  0
 71188  1  0
 74189  1  0
 74190  1  0
 74191  1  0
 75192  1  0
 76193  1  0
 78194  1  0
 79195  1  0
 82196  1  0
 82197  1  0
 82198  1  0
 83199  1  0
 84200  1  0
 91201  1  0
 92202  1  0
 95203  1  0
 95204  1  0
 95205  1  0
 96206  1  0
 97207  1  0
 99208  1  0
100209  1  0
103210  1  0
103211  1  0
103212  1  0
104213  1  0
105214  1  0
109215  1  0
113216  1  0
114217  1  0
116218  1  0
116219  1  0
117220  1  0
117221  1  0
117222  1  0
118223  1  0
119224  1  0
124225  1  0
125226  1  0
127227  1  0
127228  1  0
128229  1  0
128230  1  0
128231  1  0
129232  1  0
130233  1  0
133234  1  0
136235  1  0
141236  1  0
142237  1  0
143238  1  0
144239  1  0
M  END

