
     RDKit          3D

237260  0  0  0  0  0  0  0  0999 V2000
   -5.7652   -2.1498   -1.4329 C   0  0  0  0  0  0  0  0  0  0  0  0
   -6.1886   -1.0204   -0.8186 C   0  0  0  0  0  0  0  0  0  0  0  0
   -5.3846    0.2127   -0.7064 C   0  0  0  0  0  0  0  0  0  0  0  0
   -4.2015    0.3761   -1.1093 O   0  0  0  0  0  0  0  0  0  0  0  0
   -6.1295    1.2003    0.0352 C   0  0  0  0  0  0  0  0  0  0  0  0
   -5.7147    2.5181    0.3518 C   0  0  0  0  0  0  0  0  0  0  0  0
   -6.6710    3.2599    1.0164 C   0  0  0  0  0  0  0  0  0  0  0  0
   -7.9631    2.7510    1.3457 C   0  0  0  0  0  0  0  0  0  0  0  0
   -8.3666    1.4613    1.0565 C   0  0  0  0  0  0  0  0  0  0  0  0
   -7.3918    0.6569    0.3957 C   0  0  0  0  0  0  0  0  0  0  0  0
   -7.4786   -0.7623   -0.0907 C   0  0  0  0  0  0  0  0  0  0  0  0
   -8.5450   -1.6058    0.0409 C   0  0  0  0  0  0  0  0  0  0  0  0
   -9.7477   -1.2483    0.7443 C   0  0  0  0  0  0  0  0  0  0  0  0
  -10.7282   -0.9759    1.2987 N   0  0  0  0  0  0  0  0  0  0  0  0
   -8.6041   -2.9109   -0.5609 C   0  0  0  0  0  0  0  0  0  0  0  0
   -8.6688   -3.9577   -1.0499 N   0  0  0  0  0  0  0  0  0  0  0  0
   -8.3570    4.0757    1.9294 C   0  0  0  0  0  0  0  0  0  0  0  0
   -8.4396    4.1922    3.4829 C   0  0  0  0  0  0  0  0  0  0  0  0
   -7.4618    3.2382    4.1271 C   0  0  0  0  0  0  0  0  0  0  0  0
   -6.2431    3.7003    3.8442 C   0  0  0  0  0  0  0  0  0  0  0  0
   -6.4295    4.9493    3.0183 C   0  0  0  0  0  0  0  0  0  0  0  0
   -7.6777    5.4891    3.6895 C   0  0  0  0  0  0  0  0  0  0  0  0
   -7.0203    4.5901    1.6185 C   0  0  0  0  0  0  0  0  0  0  0  0
   -4.6101   -2.1575   -2.3452 C   0  0  0  0  0  0  0  0  0  0  0  0
   -4.4841   -1.3332   -3.4837 C   0  0  0  0  0  0  0  0  0  0  0  0
   -5.5991   -0.7870   -4.2374 N   0  0  0  0  0  0  0  0  0  0  0  0
   -5.3649   -0.1516   -5.5001 C   0  0  0  0  0  0  0  0  0  0  0  0
   -4.9028   -0.9106   -6.5913 C   0  0  0  0  0  0  0  0  0  0  0  0
   -4.7592   -0.3200   -7.8472 C   0  0  0  0  0  0  0  0  0  0  0  0
   -5.0705    1.0326   -8.0250 C   0  0  0  0  0  0  0  0  0  0  0  0
   -4.8979    1.7839   -9.6466 S   0  0  0  0  0  0  0  0  0  0  0  0
   -3.0992    2.0102   -9.4845 C   0  0  0  0  0  0  0  0  0  0  0  0
   -5.5480    1.7895   -6.9443 C   0  0  0  0  0  0  0  0  0  0  0  0
   -5.6912    1.2005   -5.6824 C   0  0  0  0  0  0  0  0  0  0  0  0
   -6.9060   -1.3648   -4.1005 C   0  0  0  0  0  0  0  0  0  0  0  0
   -7.1082   -2.7187   -4.4195 C   0  0  0  0  0  0  0  0  0  0  0  0
   -8.3870   -3.2723   -4.3597 C   0  0  0  0  0  0  0  0  0  0  0  0
   -9.4781   -2.4808   -3.9829 C   0  0  0  0  0  0  0  0  0  0  0  0
  -11.1182   -3.2061   -3.9005 S   0  0  0  0  0  0  0  0  0  0  0  0
  -11.4829   -2.8865   -5.6563 C   0  0  0  0  0  0  0  0  0  0  0  0
   -9.2816   -1.1305   -3.6558 C   0  0  0  0  0  0  0  0  0  0  0  0
   -7.9977   -0.5728   -3.7192 C   0  0  0  0  0  0  0  0  0  0  0  0
   -3.1352   -1.1522   -3.8005 C   0  0  0  0  0  0  0  0  0  0  0  0
   -2.2834    0.0514   -4.6041 S   0  0  0  0  0  0  0  0  0  0  0  0
   -0.7486   -0.3951   -4.0082 C   0  0  0  0  0  0  0  0  0  0  0  0
   -0.9250   -1.5277   -3.1875 C   0  0  0  0  0  0  0  0  0  0  0  0
    0.1304   -2.4554   -2.8761 N   0  0  0  0  0  0  0  0  0  0  0  0
    0.4519   -2.7193   -1.4960 C   0  0  0  0  0  0  0  0  0  0  0  0
    0.5970   -1.6569   -0.5838 C   0  0  0  0  0  0  0  0  0  0  0  0
    0.9884   -1.9065    0.7349 C   0  0  0  0  0  0  0  0  0  0  0  0
    1.2118   -3.2209    1.1616 C   0  0  0  0  0  0  0  0  0  0  0  0
    1.7683   -3.5335    2.8372 S   0  0  0  0  0  0  0  0  0  0  0  0
    3.5288   -3.5599    2.3706 C   0  0  0  0  0  0  0  0  0  0  0  0
    1.0078   -4.2884    0.2786 C   0  0  0  0  0  0  0  0  0  0  0  0
    0.6325   -4.0409   -1.0444 C   0  0  0  0  0  0  0  0  0  0  0  0
    0.7134   -3.2311   -3.9570 C   0  0  0  0  0  0  0  0  0  0  0  0
   -0.0239   -3.4951   -5.1353 C   0  0  0  0  0  0  0  0  0  0  0  0
    0.5424   -4.2187   -6.1852 C   0  0  0  0  0  0  0  0  0  0  0  0
    1.8434   -4.7165   -6.0758 C   0  0  0  0  0  0  0  0  0  0  0  0
    2.5656   -5.6321   -7.4433 S   0  0  0  0  0  0  0  0  0  0  0  0
    1.7597   -7.2081   -7.0106 C   0  0  0  0  0  0  0  0  0  0  0  0
    2.5908   -4.4627   -4.9166 C   0  0  0  0  0  0  0  0  0  0  0  0
    2.0331   -3.7176   -3.8695 C   0  0  0  0  0  0  0  0  0  0  0  0
   -2.2649   -1.8762   -3.0544 C   0  0  0  0  0  0  0  0  0  0  0  0
   -3.0811   -2.7234   -1.8597 S   0  0  0  0  0  0  0  0  0  0  0  0
    0.3680    0.5486   -3.7711 C   0  0  0  0  0  0  0  0  0  0  0  0
    0.2488    1.6243   -2.8516 C   0  0  0  0  0  0  0  0  0  0  0  0
   -0.9353    2.4568   -2.6782 N   0  0  0  0  0  0  0  0  0  0  0  0
   -1.6737    2.9530   -3.8215 C   0  0  0  0  0  0  0  0  0  0  0  0
   -1.0333    3.1999   -5.0508 C   0  0  0  0  0  0  0  0  0  0  0  0
   -1.7328    3.8029   -6.1007 C   0  0  0  0  0  0  0  0  0  0  0  0
   -3.0689    4.1830   -5.9309 C   0  0  0  0  0  0  0  0  0  0  0  0
   -3.9452    5.0217   -7.2618 S   0  0  0  0  0  0  0  0  0  0  0  0
   -3.3151    6.6679   -6.8140 C   0  0  0  0  0  0  0  0  0  0  0  0
   -3.7179    3.9279   -4.7194 C   0  0  0  0  0  0  0  0  0  0  0  0
   -3.0279    3.3121   -3.6704 C   0  0  0  0  0  0  0  0  0  0  0  0
   -1.0658    3.2639   -1.5008 C   0  0  0  0  0  0  0  0  0  0  0  0
   -0.6037    4.5915   -1.5275 C   0  0  0  0  0  0  0  0  0  0  0  0
   -0.6895    5.3899   -0.3956 C   0  0  0  0  0  0  0  0  0  0  0  0
   -1.2191    4.8743    0.7859 C   0  0  0  0  0  0  0  0  0  0  0  0
   -1.2431    5.9079    2.2459 S   0  0  0  0  0  0  0  0  0  0  0  0
    0.5161    5.6090    2.6209 C   0  0  0  0  0  0  0  0  0  0  0  0
   -1.6973    3.5521    0.8272 C   0  0  0  0  0  0  0  0  0  0  0  0
   -1.6209    2.7477   -0.3173 C   0  0  0  0  0  0  0  0  0  0  0  0
    1.4240    1.7692   -2.0873 C   0  0  0  0  0  0  0  0  0  0  0  0
    1.6257    2.2365   -0.5037 S   0  0  0  0  0  0  0  0  0  0  0  0
    3.0736    1.4040   -0.2159 C   0  0  0  0  0  0  0  0  0  0  0  0
    3.4835    0.8087   -1.4417 C   0  0  0  0  0  0  0  0  0  0  0  0
    4.8080    0.2834   -1.7394 N   0  0  0  0  0  0  0  0  0  0  0  0
    5.9672    0.7392   -1.0116 C   0  0  0  0  0  0  0  0  0  0  0  0
    6.9691   -0.1749   -0.6372 C   0  0  0  0  0  0  0  0  0  0  0  0
    8.1377    0.2708   -0.0124 C   0  0  0  0  0  0  0  0  0  0  0  0
    8.3252    1.6379    0.2274 C   0  0  0  0  0  0  0  0  0  0  0  0
    9.8677    2.2249    0.9342 S   0  0  0  0  0  0  0  0  0  0  0  0
    9.2292    2.3216    2.6373 C   0  0  0  0  0  0  0  0  0  0  0  0
    7.3389    2.5556   -0.1538 C   0  0  0  0  0  0  0  0  0  0  0  0
    6.1650    2.1111   -0.7668 C   0  0  0  0  0  0  0  0  0  0  0  0
    5.0998   -0.1503   -3.0780 C   0  0  0  0  0  0  0  0  0  0  0  0
    5.3748   -1.4980   -3.3534 C   0  0  0  0  0  0  0  0  0  0  0  0
    5.7233   -1.8895   -4.6515 C   0  0  0  0  0  0  0  0  0  0  0  0
    5.7866   -0.9422   -5.6821 C   0  0  0  0  0  0  0  0  0  0  0  0
    6.2091   -1.4474   -7.3486 S   0  0  0  0  0  0  0  0  0  0  0  0
    7.9640   -0.9676   -7.2015 C   0  0  0  0  0  0  0  0  0  0  0  0
    5.5026    0.4021   -5.4113 C   0  0  0  0  0  0  0  0  0  0  0  0
    5.1829    0.7991   -4.1131 C   0  0  0  0  0  0  0  0  0  0  0  0
    2.4787    0.9749   -2.4243 C   0  0  0  0  0  0  0  0  0  0  0  0
    1.9650   -0.0412   -3.6579 S   0  0  0  0  0  0  0  0  0  0  0  0
    3.4314    1.0327    1.1793 C   0  0  0  0  0  0  0  0  0  0  0  0
    2.6092    1.2983    2.2801 C   0  0  0  0  0  0  0  0  0  0  0  0
    3.0842    0.7660    3.4857 C   0  0  0  0  0  0  0  0  0  0  0  0
    2.4464    0.8706    4.7318 C   0  0  0  0  0  0  0  0  0  0  0  0
    1.0570    1.3358    4.8668 C   0  0  0  0  0  0  0  0  0  0  0  0
    0.5505    2.9395    4.8492 S   0  0  0  0  0  0  0  0  0  0  0  0
   -1.0968    2.6007    4.9644 C   0  0  0  0  0  0  0  0  0  0  0  0
   -2.1888    3.6243    4.9043 C   0  0  0  0  0  0  0  0  0  0  0  0
   -2.8116    3.8782    6.2709 C   0  0  0  0  0  0  0  0  0  0  0  0
   -1.2670    1.2189    5.0233 C   0  0  0  0  0  0  0  0  0  0  0  0
   -2.8343    0.4268    5.0719 Cl  0  0  0  0  0  0  0  0  0  0  0  0
   -0.0600    0.5102    4.9731 C   0  0  0  0  0  0  0  0  0  0  0  0
    0.0212   -1.2453    4.9989 Cl  0  0  0  0  0  0  0  0  0  0  0  0
    3.1532    0.4088    5.8431 C   0  0  0  0  0  0  0  0  0  0  0  0
    4.3874   -0.2375    5.7436 C   0  0  0  0  0  0  0  0  0  0  0  0
    4.9644   -0.4873    4.4733 C   0  0  0  0  0  0  0  0  0  0  0  0
    6.1857   -1.3106    4.3190 C   0  0  0  0  0  0  0  0  0  0  0  0
    6.4840   -2.4738    5.0274 C   0  0  0  0  0  0  0  0  0  0  0  0
    7.7206   -3.0357    4.6898 C   0  0  0  0  0  0  0  0  0  0  0  0
    8.4014   -2.3276    3.7099 C   0  0  0  0  0  0  0  0  0  0  0  0
    9.7400   -2.6879    3.1375 C   0  0  0  0  0  0  0  0  0  0  0  0
   10.7218   -1.5240    3.2474 C   0  0  0  0  0  0  0  0  0  0  0  0
    7.4537   -1.0121    3.2522 S   0  0  0  0  0  0  0  0  0  0  0  0
    4.2974    0.0816    3.3632 C   0  0  0  0  0  0  0  0  0  0  0  0
    4.7225    0.0900    1.7314 S   0  0  0  0  0  0  0  0  0  0  0  0
    4.9642   -0.4887    7.0039 C   0  0  0  0  0  0  0  0  0  0  0  0
    4.1638   -0.0702    8.0720 C   0  0  0  0  0  0  0  0  0  0  0  0
    2.7717    0.6595    7.4564 S   0  0  0  0  0  0  0  0  0  0  0  0
    4.6400    0.0489    9.4649 C   0  0  0  0  0  0  0  0  0  0  0  0
    3.8373    0.1985   10.5377 C   0  0  0  0  0  0  0  0  0  0  0  0
    2.4487   -0.2707   10.6426 C   0  0  0  0  0  0  0  0  0  0  0  0
    1.7727   -0.8389    9.7423 O   0  0  0  0  0  0  0  0  0  0  0  0
    2.0359   -0.1651   12.0205 C   0  0  0  0  0  0  0  0  0  0  0  0
    0.7879   -0.4685   12.5615 C   0  0  0  0  0  0  0  0  0  0  0  0
    0.5918   -0.2878   13.9354 C   0  0  0  0  0  0  0  0  0  0  0  0
    1.6364    0.1974   14.7411 C   0  0  0  0  0  0  0  0  0  0  0  0
    1.3720    0.4277   16.4599 Cl  0  0  0  0  0  0  0  0  0  0  0  0
    2.8834    0.5130   14.1761 C   0  0  0  0  0  0  0  0  0  0  0  0
    3.0817    0.3126   12.7959 C   0  0  0  0  0  0  0  0  0  0  0  0
    4.2538    0.6040   11.9188 C   0  0  0  0  0  0  0  0  0  0  0  0
    5.3773    1.2841   12.2612 C   0  0  0  0  0  0  0  0  0  0  0  0
    6.2477    1.8726   11.2750 C   0  0  0  0  0  0  0  0  0  0  0  0
    6.9449    2.3533   10.4860 N   0  0  0  0  0  0  0  0  0  0  0  0
    5.7688    1.5135   13.6279 C   0  0  0  0  0  0  0  0  0  0  0  0
    6.1139    1.6951   14.7160 N   0  0  0  0  0  0  0  0  0  0  0  0
   -6.2791   -3.0834   -1.3328 H   0  0  0  0  0  0  0  0  0  0  0  0
   -4.7400    2.9133    0.0921 H   0  0  0  0  0  0  0  0  0  0  0  0
   -9.3618    1.1471    1.3121 H   0  0  0  0  0  0  0  0  0  0  0  0
   -9.1725    4.5973    1.3738 H   0  0  0  0  0  0  0  0  0  0  0  0
   -9.4617    4.1721    3.9082 H   0  0  0  0  0  0  0  0  0  0  0  0
   -7.6932    2.3921    4.7699 H   0  0  0  0  0  0  0  0  0  0  0  0
   -5.3150    3.3012    4.2297 H   0  0  0  0  0  0  0  0  0  0  0  0
   -5.5602    5.6418    3.0050 H   0  0  0  0  0  0  0  0  0  0  0  0
   -8.1285    6.3634    3.1569 H   0  0  0  0  0  0  0  0  0  0  0  0
   -7.5292    5.7571    4.7636 H   0  0  0  0  0  0  0  0  0  0  0  0
   -7.0216    5.4264    0.8847 H   0  0  0  0  0  0  0  0  0  0  0  0
   -4.6740   -1.9612   -6.4628 H   0  0  0  0  0  0  0  0  0  0  0  0
   -4.4087   -0.9138   -8.6817 H   0  0  0  0  0  0  0  0  0  0  0  0
   -2.7230    2.5547  -10.3776 H   0  0  0  0  0  0  0  0  0  0  0  0
   -2.5974    1.0219   -9.4388 H   0  0  0  0  0  0  0  0  0  0  0  0
   -2.8628    2.5960   -8.5741 H   0  0  0  0  0  0  0  0  0  0  0  0
   -5.8220    2.8239   -7.0846 H   0  0  0  0  0  0  0  0  0  0  0  0
   -6.0685    1.7859   -4.8540 H   0  0  0  0  0  0  0  0  0  0  0  0
   -6.2718   -3.3385   -4.7182 H   0  0  0  0  0  0  0  0  0  0  0  0
   -8.5302   -4.3165   -4.6138 H   0  0  0  0  0  0  0  0  0  0  0  0
  -10.7330   -3.3842   -6.3077 H   0  0  0  0  0  0  0  0  0  0  0  0
  -11.4818   -1.7930   -5.8444 H   0  0  0  0  0  0  0  0  0  0  0  0
  -12.4936   -3.2873   -5.8940 H   0  0  0  0  0  0  0  0  0  0  0  0
  -10.1194   -0.5135   -3.3540 H   0  0  0  0  0  0  0  0  0  0  0  0
   -7.8532    0.4713   -3.4678 H   0  0  0  0  0  0  0  0  0  0  0  0
    0.4288   -0.6369   -0.9028 H   0  0  0  0  0  0  0  0  0  0  0  0
    1.1267   -1.0780    1.4204 H   0  0  0  0  0  0  0  0  0  0  0  0
    4.1486   -3.6744    3.2825 H   0  0  0  0  0  0  0  0  0  0  0  0
    3.7941   -2.6086    1.8665 H   0  0  0  0  0  0  0  0  0  0  0  0
    3.7198   -4.4134    1.6852 H   0  0  0  0  0  0  0  0  0  0  0  0
    1.1672   -5.3080    0.6094 H   0  0  0  0  0  0  0  0  0  0  0  0
    0.4875   -4.8775   -1.7190 H   0  0  0  0  0  0  0  0  0  0  0  0
   -1.0429   -3.1529   -5.2469 H   0  0  0  0  0  0  0  0  0  0  0  0
   -0.0410   -4.4049   -7.0815 H   0  0  0  0  0  0  0  0  0  0  0  0
    1.9274   -7.9353   -7.8321 H   0  0  0  0  0  0  0  0  0  0  0  0
    2.2016   -7.6116   -6.0752 H   0  0  0  0  0  0  0  0  0  0  0  0
    0.6643   -7.0654   -6.8834 H   0  0  0  0  0  0  0  0  0  0  0  0
    3.6072   -4.8287   -4.8353 H   0  0  0  0  0  0  0  0  0  0  0  0
    2.6380   -3.5061   -2.9969 H   0  0  0  0  0  0  0  0  0  0  0  0
    0.0127    2.9597   -5.1869 H   0  0  0  0  0  0  0  0  0  0  0  0
   -1.2255    3.9926   -7.0384 H   0  0  0  0  0  0  0  0  0  0  0  0
   -3.8534    7.4342   -7.4143 H   0  0  0  0  0  0  0  0  0  0  0  0
   -2.2394    6.7183   -7.0712 H   0  0  0  0  0  0  0  0  0  0  0  0
   -3.4675    6.8680   -5.7337 H   0  0  0  0  0  0  0  0  0  0  0  0
   -4.7563    4.2119   -4.5884 H   0  0  0  0  0  0  0  0  0  0  0  0
   -3.5431    3.1316   -2.7329 H   0  0  0  0  0  0  0  0  0  0  0  0
   -0.1594    4.9944   -2.4268 H   0  0  0  0  0  0  0  0  0  0  0  0
   -0.3135    6.4044   -0.4286 H   0  0  0  0  0  0  0  0  0  0  0  0
    0.7884    4.5435    2.4462 H   0  0  0  0  0  0  0  0  0  0  0  0
    0.7036    5.8479    3.6863 H   0  0  0  0  0  0  0  0  0  0  0  0
    1.1484    6.2582    1.9775 H   0  0  0  0  0  0  0  0  0  0  0  0
   -2.1180    3.1524    1.7458 H   0  0  0  0  0  0  0  0  0  0  0  0
   -1.9882    1.7272   -0.2831 H   0  0  0  0  0  0  0  0  0  0  0  0
    6.8400   -1.2327   -0.8312 H   0  0  0  0  0  0  0  0  0  0  0  0
    8.9048   -0.4450    0.2655 H   0  0  0  0  0  0  0  0  0  0  0  0
    9.9762    2.8513    3.2667 H   0  0  0  0  0  0  0  0  0  0  0  0
    9.0830    1.3020    3.0457 H   0  0  0  0  0  0  0  0  0  0  0  0
    8.2743    2.8864    2.6616 H   0  0  0  0  0  0  0  0  0  0  0  0
    7.4872    3.6189    0.0116 H   0  0  0  0  0  0  0  0  0  0  0  0
    5.4244    2.8347   -1.0831 H   0  0  0  0  0  0  0  0  0  0  0  0
    5.3280   -2.2374   -2.5626 H   0  0  0  0  0  0  0  0  0  0  0  0
    5.9413   -2.9305   -4.8605 H   0  0  0  0  0  0  0  0  0  0  0  0
    8.4919   -1.2257   -8.1420 H   0  0  0  0  0  0  0  0  0  0  0  0
    8.0416    0.1297   -7.0323 H   0  0  0  0  0  0  0  0  0  0  0  0
    8.4427   -1.5146   -6.3580 H   0  0  0  0  0  0  0  0  0  0  0  0
    5.5492    1.1441   -6.1998 H   0  0  0  0  0  0  0  0  0  0  0  0
    4.9847    1.8445   -3.9050 H   0  0  0  0  0  0  0  0  0  0  0  0
    1.6800    1.8450    2.2155 H   0  0  0  0  0  0  0  0  0  0  0  0
   -1.7749    4.5845    4.5375 H   0  0  0  0  0  0  0  0  0  0  0  0
   -2.9668    3.2864    4.1878 H   0  0  0  0  0  0  0  0  0  0  0  0
   -3.6483    4.6047    6.1607 H   0  0  0  0  0  0  0  0  0  0  0  0
   -3.2184    2.9380    6.7059 H   0  0  0  0  0  0  0  0  0  0  0  0
   -2.0547    4.3102    6.9625 H   0  0  0  0  0  0  0  0  0  0  0  0
    5.8219   -2.9167    5.7599 H   0  0  0  0  0  0  0  0  0  0  0  0
    8.1027   -3.9378    5.1515 H   0  0  0  0  0  0  0  0  0  0  0  0
   10.1562   -3.5641    3.6826 H   0  0  0  0  0  0  0  0  0  0  0  0
    9.6139   -2.9795    2.0725 H   0  0  0  0  0  0  0  0  0  0  0  0
   11.7325   -1.8625    2.9395 H   0  0  0  0  0  0  0  0  0  0  0  0
   10.4104   -0.6959    2.5733 H   0  0  0  0  0  0  0  0  0  0  0  0
   10.7700   -1.1616    4.2962 H   0  0  0  0  0  0  0  0  0  0  0  0
    5.9578   -0.8879    7.1471 H   0  0  0  0  0  0  0  0  0  0  0  0
    5.7101    0.0800    9.5892 H   0  0  0  0  0  0  0  0  0  0  0  0
   -0.0146   -0.8305   11.9303 H   0  0  0  0  0  0  0  0  0  0  0  0
   -0.3743   -0.5169   14.3726 H   0  0  0  0  0  0  0  0  0  0  0  0
    3.6522    0.9001   14.8213 H   0  0  0  0  0  0  0  0  0  0  0  0
  1  2  2  3
  2  3  1  0
  3  4  2  0
  3  5  1  0
  5  6  2  0
  6  7  1  0
  7  8  2  0
  8  9  1  0
  9 10  2  0
 10 11  1  0
 11 12  2  3
 12 13  1  0
 13 14  3  0
 12 15  1  0
 15 16  3  0
  8 17  1  0
 17 18  1  0
 18 19  1  0
 19 20  2  0
 20 21  1  0
 21 22  1  0
 21 23  1  0
  1 24  1  0
 24 25  2  0
 25 26  1  0
 26 27  1  0
 27 28  2  0
 28 29  1  0
 29 30  2  0
 30 31  1  0
 31 32  1  0
 30 33  1  0
 33 34  2  0
 26 35  1  0
 35 36  2  0
 36 37  1  0
 37 38  2  0
 38 39  1  0
 39 40  1  0
 38 41  1  0
 41 42  2  0
 25 43  1  0
 43 44  1  0
 44 45  1  0
 45 46  2  0
 46 47  1  0
 47 48  1  0
 48 49  2  0
 49 50  1  0
 50 51  2  0
 51 52  1  0
 52 53  1  0
 51 54  1  0
 54 55  2  0
 47 56  1  0
 56 57  2  0
 57 58  1  0
 58 59  2  0
 59 60  1  0
 60 61  1  0
 59 62  1  0
 62 63  2  0
 46 64  1  0
 64 65  1  0
 45 66  1  0
 66 67  2  0
 67 68  1  0
 68 69  1  0
 69 70  2  0
 70 71  1  0
 71 72  2  0
 72 73  1  0
 73 74  1  0
 72 75  1  0
 75 76  2  0
 68 77  1  0
 77 78  2  0
 78 79  1  0
 79 80  2  0
 80 81  1  0
 81 82  1  0
 80 83  1  0
 83 84  2  0
 67 85  1  0
 85 86  1  0
 86 87  1  0
 87 88  2  0
 88 89  1  0
 89 90  1  0
 90 91  2  0
 91 92  1  0
 92 93  2  0
 93 94  1  0
 94 95  1  0
 93 96  1  0
 96 97  2  0
 89 98  1  0
 98 99  2  0
 99100  1  0
100101  2  0
101102  1  0
102103  1  0
101104  1  0
104105  2  0
 88106  1  0
106107  1  0
 87108  1  0
108109  2  0
109110  1  0
110111  2  0
111112  1  0
112113  1  0
113114  1  0
114115  1  0
115116  1  0
114117  2  0
117118  1  0
117119  1  0
119120  1  0
111121  1  0
121122  2  0
122123  1  0
123124  1  0
124125  2  0
125126  1  0
126127  2  0
127128  1  0
128129  1  0
127130  1  0
123131  2  0
131132  1  0
122133  1  0
133134  2  0
134135  1  0
134136  1  0
136137  2  3
137138  1  0
138139  2  0
138140  1  0
140141  2  0
141142  1  0
142143  2  0
143144  1  0
143145  1  0
145146  2  0
146147  1  0
147148  2  3
148149  1  0
149150  3  0
148151  1  0
151152  3  0
 11  2  1  0
 23 17  1  0
 65 24  1  0
107 66  1  0
132108  1  0
147137  1  0
 10  5  1  0
 22 18  1  0
 34 27  1  0
 42 35  1  0
 64 43  2  0
 76 69  1  0
 84 77  1  0
106 85  2  0
131110  1  0
146140  1  0
 23  7  1  0
 55 48  1  0
 63 56  1  0
 97 90  1  0
105 98  1  0
119112  2  0
135121  1  0
130124  1  0
  1153  1  0
  6154  1  0
  9155  1  0
 17156  1  0
 18157  1  0
 19158  1  0
 20159  1  0
 21160  1  0
 22161  1  0
 22162  1  0
 23163  1  0
 28164  1  0
 29165  1  0
 32166  1  0
 32167  1  0
 32168  1  0
 33169  1  0
 34170  1  0
 36171  1  0
 37172  1  0
 40173  1  0
 40174  1  0
 40175  1  0
 41176  1  0
 42177  1  0
 49178  1  0
 50179  1  0
 53180  1  0
 53181  1  0
 53182  1  0
 54183  1  0
 55184  1  0
 57185  1  0
 58186  1  0
 61187  1  0
 61188  1  0
 61189  1  0
 62190  1  0
 63191  1  0
 70192  1  0
 71193  1  0
 74194  1  0
 74195  1  0
 74196  1  0
 75197  1  0
 76198  1  0
 78199  1  0
 79200  1  0
 82201  1  0
 82202  1  0
 82203  1  0
 83204  1  0
 84205  1  0
 91206  1  0
 92207  1  0
 95208  1  0
 95209  1  0
 95210  1  0
 96211  1  0
 97212  1  0
 99213  1  0
100214  1  0
103215  1  0
103216  1  0
103217  1  0
104218  1  0
105219  1  0
109220  1  0
115221  1  0
115222  1  0
116223  1  0
116224  1  0
116225  1  0
125226  1  0
126227  1  0
128228  1  0
128229  1  0
129230  1  0
129231  1  0
129232  1  0
133233  1  0
136234  1  0
141235  1  0
142236  1  0
145237  1  0
M  END

