
     RDKit          3D

180199  0  0  0  0  0  0  0  0999 V2000
    6.9558   -6.4266    0.1272 C   0  0  0  0  0  0  0  0  0  0  0  0
    6.9644   -5.0842   -0.0395 C   0  0  0  0  0  0  0  0  0  0  0  0
    5.7961   -4.2027    0.1273 C   0  0  0  0  0  0  0  0  0  0  0  0
    4.5983   -4.4912   -0.1358 O   0  0  0  0  0  0  0  0  0  0  0  0
    6.2436   -2.9180    0.6064 C   0  0  0  0  0  0  0  0  0  0  0  0
    5.4321   -1.8729    1.1082 C   0  0  0  0  0  0  0  0  0  0  0  0
    6.1497   -0.8343    1.6692 C   0  0  0  0  0  0  0  0  0  0  0  0
    7.5830   -0.8160    1.7345 C   0  0  0  0  0  0  0  0  0  0  0  0
    8.3798   -1.8378    1.2354 C   0  0  0  0  0  0  0  0  0  0  0  0
    7.6594   -2.9080    0.6341 C   0  0  0  0  0  0  0  0  0  0  0  0
    8.1620   -4.2017    0.0841 C   0  0  0  0  0  0  0  0  0  0  0  0
    9.4025   -4.4523   -0.3981 C   0  0  0  0  0  0  0  0  0  0  0  0
   10.4458   -3.4602   -0.3936 C   0  0  0  0  0  0  0  0  0  0  0  0
   11.2910   -2.6679   -0.4016 N   0  0  0  0  0  0  0  0  0  0  0  0
    9.7077   -5.6694   -1.1012 C   0  0  0  0  0  0  0  0  0  0  0  0
    9.9731   -6.6391   -1.6795 N   0  0  0  0  0  0  0  0  0  0  0  0
    7.5465    0.5027    2.4503 C   0  0  0  0  0  0  0  0  0  0  0  0
    7.9283    1.7571    1.6089 C   0  0  0  0  0  0  0  0  0  0  0  0
    7.4495    2.9473    2.4036 C   0  0  0  0  0  0  0  0  0  0  0  0
    6.1125    2.9276    2.3529 C   0  0  0  0  0  0  0  0  0  0  0  0
    5.7333    1.7260    1.5188 C   0  0  0  0  0  0  0  0  0  0  0  0
    6.8754    1.7730    0.5134 C   0  0  0  0  0  0  0  0  0  0  0  0
    6.0785    0.4793    2.3846 C   0  0  0  0  0  0  0  0  0  0  0  0
    5.7627   -7.1008    0.6600 C   0  0  0  0  0  0  0  0  0  0  0  0
    4.6280   -7.3797   -0.1072 C   0  0  0  0  0  0  0  0  0  0  0  0
    3.4250   -7.2173    0.6082 C   0  0  0  0  0  0  0  0  0  0  0  0
    2.1355   -7.1374    0.0431 C   0  0  0  0  0  0  0  0  0  0  0  0
    1.8738   -7.4299   -1.3794 C   0  0  0  0  0  0  0  0  0  0  0  0
    2.3934   -6.6032   -2.3839 C   0  0  0  0  0  0  0  0  0  0  0  0
    2.1076   -6.8620   -3.7298 C   0  0  0  0  0  0  0  0  0  0  0  0
    2.6405   -6.0570   -4.6854 F   0  0  0  0  0  0  0  0  0  0  0  0
    1.2877   -7.9495   -4.0826 C   0  0  0  0  0  0  0  0  0  0  0  0
    1.0305   -8.2682   -5.5342 C   0  0  0  0  0  0  0  0  0  0  0  0
    2.1146   -9.1922   -6.0791 C   0  0  0  0  0  0  0  0  0  0  0  0
    0.7641   -8.7750   -3.0694 C   0  0  0  0  0  0  0  0  0  0  0  0
   -0.0202   -9.8415   -3.3811 F   0  0  0  0  0  0  0  0  0  0  0  0
    1.0553   -8.5115   -1.7274 C   0  0  0  0  0  0  0  0  0  0  0  0
    1.1249   -6.5735    0.8426 C   0  0  0  0  0  0  0  0  0  0  0  0
    1.3559   -6.1298    2.1482 C   0  0  0  0  0  0  0  0  0  0  0  0
    2.6170   -6.3011    2.7483 C   0  0  0  0  0  0  0  0  0  0  0  0
    2.9567   -5.6297    4.0191 C   0  0  0  0  0  0  0  0  0  0  0  0
    3.7410   -4.4686    4.0055 C   0  0  0  0  0  0  0  0  0  0  0  0
    4.0938   -3.8398    5.1993 C   0  0  0  0  0  0  0  0  0  0  0  0
    3.6493   -4.3569    6.4303 C   0  0  0  0  0  0  0  0  0  0  0  0
    4.0733   -3.7036    7.7208 C   0  0  0  0  0  0  0  0  0  0  0  0
    5.4616   -4.1843    8.1370 C   0  0  0  0  0  0  0  0  0  0  0  0
    2.8622   -5.5257    6.4406 C   0  0  0  0  0  0  0  0  0  0  0  0
    2.5091   -6.1502    5.2389 C   0  0  0  0  0  0  0  0  0  0  0  0
    2.4547   -6.0756    7.6133 F   0  0  0  0  0  0  0  0  0  0  0  0
    4.8807   -2.7344    5.1558 F   0  0  0  0  0  0  0  0  0  0  0  0
    3.6290   -6.8605    1.9460 C   0  0  0  0  0  0  0  0  0  0  0  0
    5.2770   -6.7786    2.2387 S   0  0  0  0  0  0  0  0  0  0  0  0
    0.3263   -5.3103    2.6435 C   0  0  0  0  0  0  0  0  0  0  0  0
   -0.6808   -5.0653    1.7069 C   0  0  0  0  0  0  0  0  0  0  0  0
   -0.3300   -5.9313    0.3037 S   0  0  0  0  0  0  0  0  0  0  0  0
   -1.5760   -3.8858    1.6858 C   0  0  0  0  0  0  0  0  0  0  0  0
   -2.8382   -3.9980    1.0761 C   0  0  0  0  0  0  0  0  0  0  0  0
   -3.3338   -5.2178    0.7432 F   0  0  0  0  0  0  0  0  0  0  0  0
   -3.5680   -2.8571    0.7241 C   0  0  0  0  0  0  0  0  0  0  0  0
   -4.7254   -3.0120    0.0333 F   0  0  0  0  0  0  0  0  0  0  0  0
   -3.0548   -1.5746    0.9845 C   0  0  0  0  0  0  0  0  0  0  0  0
   -1.8587   -1.4587    1.7221 C   0  0  0  0  0  0  0  0  0  0  0  0
   -1.3908   -0.2388    2.0974 N   0  0  0  0  0  0  0  0  0  0  0  0
   -0.1982   -0.0687    2.7245 C   0  0  0  0  0  0  0  0  0  0  0  0
    0.1936    1.3336    3.1234 C   0  0  0  0  0  0  0  0  0  0  0  0
   -0.8494    1.9381    4.0625 C   0  0  0  0  0  0  0  0  0  0  0  0
    0.6115   -1.2079    2.9514 C   0  0  0  0  0  0  0  0  0  0  0  0
    0.1206   -2.4313    2.6149 N   0  0  0  0  0  0  0  0  0  0  0  0
   -1.1019   -2.6023    2.0389 C   0  0  0  0  0  0  0  0  0  0  0  0
    1.9869   -1.1373    3.5650 C   0  0  0  0  0  0  0  0  0  0  0  0
    1.9088   -1.1082    5.0855 C   0  0  0  0  0  0  0  0  0  0  0  0
   -3.6577   -0.3767    0.3523 C   0  0  0  0  0  0  0  0  0  0  0  0
   -2.9304    0.6656   -0.2242 C   0  0  0  0  0  0  0  0  0  0  0  0
   -3.7339    1.6498   -0.8126 C   0  0  0  0  0  0  0  0  0  0  0  0
   -3.2752    2.8140   -1.4564 C   0  0  0  0  0  0  0  0  0  0  0  0
   -1.8359    3.1057   -1.5988 C   0  0  0  0  0  0  0  0  0  0  0  0
   -1.2195    3.0070   -2.8554 C   0  0  0  0  0  0  0  0  0  0  0  0
    0.1565    3.2167   -2.9860 C   0  0  0  0  0  0  0  0  0  0  0  0
    0.7329    3.0881   -4.2074 F   0  0  0  0  0  0  0  0  0  0  0  0
    0.9341    3.5453   -1.8599 C   0  0  0  0  0  0  0  0  0  0  0  0
    2.4241    3.7341   -1.9898 C   0  0  0  0  0  0  0  0  0  0  0  0
    3.1553    2.3971   -1.8956 C   0  0  0  0  0  0  0  0  0  0  0  0
    0.3126    3.6446   -0.6007 C   0  0  0  0  0  0  0  0  0  0  0  0
    1.0363    3.9518    0.5066 F   0  0  0  0  0  0  0  0  0  0  0  0
   -1.0623    3.4251   -0.4744 C   0  0  0  0  0  0  0  0  0  0  0  0
   -4.2532    3.6688   -1.9867 C   0  0  0  0  0  0  0  0  0  0  0  0
   -5.6219    3.3870   -1.9113 C   0  0  0  0  0  0  0  0  0  0  0  0
   -6.0789    2.2026   -1.2931 C   0  0  0  0  0  0  0  0  0  0  0  0
   -7.5050    1.8221   -1.2718 C   0  0  0  0  0  0  0  0  0  0  0  0
   -8.4441    2.6124   -0.5931 C   0  0  0  0  0  0  0  0  0  0  0  0
   -9.7902    2.2386   -0.5600 C   0  0  0  0  0  0  0  0  0  0  0  0
  -10.2182    1.0714   -1.2226 C   0  0  0  0  0  0  0  0  0  0  0  0
  -11.6640    0.6448   -1.1544 C   0  0  0  0  0  0  0  0  0  0  0  0
  -11.9133   -0.2327    0.0684 C   0  0  0  0  0  0  0  0  0  0  0  0
   -9.2723    0.2746   -1.8921 C   0  0  0  0  0  0  0  0  0  0  0  0
   -7.9272    0.6538   -1.9199 C   0  0  0  0  0  0  0  0  0  0  0  0
   -9.6493   -0.8727   -2.5152 F   0  0  0  0  0  0  0  0  0  0  0  0
  -10.6740    3.0100    0.1249 F   0  0  0  0  0  0  0  0  0  0  0  0
   -5.0973    1.3616   -0.7372 C   0  0  0  0  0  0  0  0  0  0  0  0
   -5.3065   -0.0980    0.0850 S   0  0  0  0  0  0  0  0  0  0  0  0
   -6.4172    4.3752   -2.5160 C   0  0  0  0  0  0  0  0  0  0  0  0
   -5.6729    5.4475   -3.0032 C   0  0  0  0  0  0  0  0  0  0  0  0
   -4.0280    5.1360   -2.7749 S   0  0  0  0  0  0  0  0  0  0  0  0
   -6.2316    6.5827   -3.7522 C   0  0  0  0  0  0  0  0  0  0  0  0
   -5.9030    7.8716   -3.5382 C   0  0  0  0  0  0  0  0  0  0  0  0
   -5.2457    8.4016   -2.3323 C   0  0  0  0  0  0  0  0  0  0  0  0
   -4.6605    7.7376   -1.4378 O   0  0  0  0  0  0  0  0  0  0  0  0
   -5.4812    9.8288   -2.2761 C   0  0  0  0  0  0  0  0  0  0  0  0
   -5.1262   10.7194   -1.2509 C   0  0  0  0  0  0  0  0  0  0  0  0
   -5.5510   12.0448   -1.3824 C   0  0  0  0  0  0  0  0  0  0  0  0
   -5.3086   13.0781   -0.4708 C   0  0  0  0  0  0  0  0  0  0  0  0
   -5.8813   14.2825   -0.8711 C   0  0  0  0  0  0  0  0  0  0  0  0
   -5.7894   15.9242    0.0922 Br  0  0  0  0  0  0  0  0  0  0  0  0
   -6.6889   14.0709   -2.3405 S   0  0  0  0  0  0  0  0  0  0  0  0
   -6.3090   12.4411   -2.4827 C   0  0  0  0  0  0  0  0  0  0  0  0
   -6.6737   11.5551   -3.5008 C   0  0  0  0  0  0  0  0  0  0  0  0
   -6.2241   10.2236   -3.3892 C   0  0  0  0  0  0  0  0  0  0  0  0
   -6.4417    9.0504   -4.2808 C   0  0  0  0  0  0  0  0  0  0  0  0
   -6.8170    9.0747   -5.5853 C   0  0  0  0  0  0  0  0  0  0  0  0
   -6.6903    7.9198   -6.4391 C   0  0  0  0  0  0  0  0  0  0  0  0
   -6.5879    6.9973   -7.1332 N   0  0  0  0  0  0  0  0  0  0  0  0
   -7.2455   10.2750   -6.2549 C   0  0  0  0  0  0  0  0  0  0  0  0
   -7.5926   11.2299   -6.8057 N   0  0  0  0  0  0  0  0  0  0  0  0
    7.8856   -6.9724    0.2010 H   0  0  0  0  0  0  0  0  0  0  0  0
    4.3522   -1.9096    1.1139 H   0  0  0  0  0  0  0  0  0  0  0  0
    9.4486   -1.8211    1.3608 H   0  0  0  0  0  0  0  0  0  0  0  0
    7.9640    0.4601    3.4793 H   0  0  0  0  0  0  0  0  0  0  0  0
    8.9860    1.8035    1.2706 H   0  0  0  0  0  0  0  0  0  0  0  0
    8.0561    3.7313    2.8474 H   0  0  0  0  0  0  0  0  0  0  0  0
    5.4486    3.6834    2.7537 H   0  0  0  0  0  0  0  0  0  0  0  0
    4.7101    1.7489    1.0932 H   0  0  0  0  0  0  0  0  0  0  0  0
    6.8860    2.7072   -0.0982 H   0  0  0  0  0  0  0  0  0  0  0  0
    6.9164    0.8996   -0.1715 H   0  0  0  0  0  0  0  0  0  0  0  0
    5.5694    0.4215    3.3720 H   0  0  0  0  0  0  0  0  0  0  0  0
    4.6742   -7.4898   -1.1821 H   0  0  0  0  0  0  0  0  0  0  0  0
    3.0142   -5.7521   -2.1276 H   0  0  0  0  0  0  0  0  0  0  0  0
    0.0401   -8.7551   -5.6570 H   0  0  0  0  0  0  0  0  0  0  0  0
    1.0073   -7.3333   -6.1347 H   0  0  0  0  0  0  0  0  0  0  0  0
    1.9386   -9.3727   -7.1615 H   0  0  0  0  0  0  0  0  0  0  0  0
    3.1181   -8.7312   -5.9574 H   0  0  0  0  0  0  0  0  0  0  0  0
    2.0925  -10.1678   -5.5445 H   0  0  0  0  0  0  0  0  0  0  0  0
    0.6384   -9.1504   -0.9587 H   0  0  0  0  0  0  0  0  0  0  0  0
    4.0858   -4.0551    3.0647 H   0  0  0  0  0  0  0  0  0  0  0  0
    4.0838   -2.5978    7.6023 H   0  0  0  0  0  0  0  0  0  0  0  0
    3.3501   -3.9322    8.5347 H   0  0  0  0  0  0  0  0  0  0  0  0
    6.2161   -3.8904    7.3751 H   0  0  0  0  0  0  0  0  0  0  0  0
    5.7394   -3.7203    9.1082 H   0  0  0  0  0  0  0  0  0  0  0  0
    5.4658   -5.2900    8.2564 H   0  0  0  0  0  0  0  0  0  0  0  0
    1.9054   -7.0506    5.2589 H   0  0  0  0  0  0  0  0  0  0  0  0
    0.3796   -4.7988    3.5994 H   0  0  0  0  0  0  0  0  0  0  0  0
    1.1734    1.3825    3.6316 H   0  0  0  0  0  0  0  0  0  0  0  0
    0.2631    1.9584    2.2103 H   0  0  0  0  0  0  0  0  0  0  0  0
   -0.9866    1.2893    4.9528 H   0  0  0  0  0  0  0  0  0  0  0  0
   -0.5053    2.9405    4.3973 H   0  0  0  0  0  0  0  0  0  0  0  0
   -1.8190    2.0555    3.5379 H   0  0  0  0  0  0  0  0  0  0  0  0
    2.5533   -0.2635    3.1817 H   0  0  0  0  0  0  0  0  0  0  0  0
    2.5677   -2.0294    3.2548 H   0  0  0  0  0  0  0  0  0  0  0  0
    2.9223   -0.9523    5.5079 H   0  0  0  0  0  0  0  0  0  0  0  0
    1.5004   -2.0686    5.4680 H   0  0  0  0  0  0  0  0  0  0  0  0
    1.2527   -0.2809    5.4286 H   0  0  0  0  0  0  0  0  0  0  0  0
   -1.8495    0.6985   -0.2411 H   0  0  0  0  0  0  0  0  0  0  0  0
   -1.8038    2.7437   -3.7285 H   0  0  0  0  0  0  0  0  0  0  0  0
    2.8043    4.4101   -1.1935 H   0  0  0  0  0  0  0  0  0  0  0  0
    2.6664    4.2164   -2.9616 H   0  0  0  0  0  0  0  0  0  0  0  0
    4.2533    2.5668   -1.9005 H   0  0  0  0  0  0  0  0  0  0  0  0
    2.8913    1.7527   -2.7636 H   0  0  0  0  0  0  0  0  0  0  0  0
    2.8828    1.8695   -0.9554 H   0  0  0  0  0  0  0  0  0  0  0  0
   -1.5281    3.4970    0.5023 H   0  0  0  0  0  0  0  0  0  0  0  0
   -8.1267    3.5108   -0.0764 H   0  0  0  0  0  0  0  0  0  0  0  0
  -12.3278    1.5368   -1.1071 H   0  0  0  0  0  0  0  0  0  0  0  0
  -11.9463    0.0838   -2.0728 H   0  0  0  0  0  0  0  0  0  0  0  0
  -12.9857   -0.5163    0.1076 H   0  0  0  0  0  0  0  0  0  0  0  0
  -11.3003   -1.1558    0.0093 H   0  0  0  0  0  0  0  0  0  0  0  0
  -11.6540    0.3192    0.9970 H   0  0  0  0  0  0  0  0  0  0  0  0
   -7.2117    0.0322   -2.4449 H   0  0  0  0  0  0  0  0  0  0  0  0
   -7.4969    4.3239   -2.5957 H   0  0  0  0  0  0  0  0  0  0  0  0
   -7.0067    6.3414   -4.4657 H   0  0  0  0  0  0  0  0  0  0  0  0
   -4.5630   10.3891   -0.3872 H   0  0  0  0  0  0  0  0  0  0  0  0
   -4.7461   12.9587    0.4463 H   0  0  0  0  0  0  0  0  0  0  0  0
   -7.3025   11.9048   -4.3015 H   0  0  0  0  0  0  0  0  0  0  0  0
  1  2  2  3
  2  3  1  0
  3  4  2  0
  3  5  1  0
  5  6  2  0
  6  7  1  0
  7  8  2  0
  8  9  1  0
  9 10  2  0
 10 11  1  0
 11 12  2  3
 12 13  1  0
 13 14  3  0
 12 15  1  0
 15 16  3  0
  8 17  1  0
 17 18  1  0
 18 19  1  0
 19 20  2  0
 20 21  1  0
 21 22  1  0
 21 23  1  0
  1 24  1  0
 24 25  2  0
 25 26  1  0
 26 27  2  0
 27 28  1  0
 28 29  2  0
 29 30  1  0
 30 31  1  0
 30 32  2  0
 32 33  1  0
 33 34  1  0
 32 35  1  0
 35 36  1  0
 35 37  2  0
 27 38  1  0
 38 39  2  0
 39 40  1  0
 40 41  1  0
 41 42  2  0
 42 43  1  0
 43 44  2  0
 44 45  1  0
 45 46  1  0
 44 47  1  0
 47 48  2  0
 47 49  1  0
 43 50  1  0
 40 51  2  0
 51 52  1  0
 39 53  1  0
 53 54  2  0
 54 55  1  0
 54 56  1  0
 56 57  2  0
 57 58  1  0
 57 59  1  0
 59 60  1  0
 59 61  2  0
 61 62  1  0
 62 63  2  0
 63 64  1  0
 64 65  1  0
 65 66  1  0
 64 67  2  0
 67 68  1  0
 68 69  2  0
 67 70  1  0
 70 71  1  0
 61 72  1  0
 72 73  2  0
 73 74  1  0
 74 75  2  0
 75 76  1  0
 76 77  2  0
 77 78  1  0
 78 79  1  0
 78 80  2  0
 80 81  1  0
 81 82  1  0
 80 83  1  0
 83 84  1  0
 83 85  2  0
 75 86  1  0
 86 87  2  0
 87 88  1  0
 88 89  1  0
 89 90  2  0
 90 91  1  0
 91 92  2  0
 92 93  1  0
 93 94  1  0
 92 95  1  0
 95 96  2  0
 95 97  1  0
 91 98  1  0
 88 99  2  0
 99100  1  0
 87101  1  0
101102  2  0
102103  1  0
102104  1  0
104105  2  3
105106  1  0
106107  2  0
106108  1  0
108109  2  0
109110  1  0
110111  1  0
111112  2  0
112113  1  0
112114  1  0
114115  1  0
115116  1  0
116117  2  0
117118  1  0
118119  2  3
119120  1  0
120121  3  0
119122  1  0
122123  3  0
 11  2  1  0
 23 17  1  0
 52 24  1  0
 69 56  1  0
100 72  1  0
118105  1  0
 10  5  1  0
 22 18  1  0
 51 26  1  0
 69 62  1  0
 99 74  1  0
117108  1  0
 23  7  1  0
 37 28  1  0
 55 38  1  0
 85 76  1  0
103 86  1  0
115110  2  0
 48 41  1  0
 96 89  1  0
  1124  1  0
  6125  1  0
  9126  1  0
 17127  1  0
 18128  1  0
 19129  1  0
 20130  1  0
 21131  1  0
 22132  1  0
 22133  1  0
 23134  1  0
 25135  1  0
 29136  1  0
 33137  1  0
 33138  1  0
 34139  1  0
 34140  1  0
 34141  1  0
 37142  1  0
 42143  1  0
 45144  1  0
 45145  1  0
 46146  1  0
 46147  1  0
 46148  1  0
 48149  1  0
 53150  1  0
 65151  1  0
 65152  1  0
 66153  1  0
 66154  1  0
 66155  1  0
 70156  1  0
 70157  1  0
 71158  1  0
 71159  1  0
 71160  1  0
 73161  1  0
 77162  1  0
 81163  1  0
 81164  1  0
 82165  1  0
 82166  1  0
 82167  1  0
 85168  1  0
 90169  1  0
 93170  1  0
 93171  1  0
 94172  1  0
 94173  1  0
 94174  1  0
 96175  1  0
101176  1  0
104177  1  0
109178  1  0
111179  1  0
116180  1  0
M  END

