
     RDKit          3D

187207  0  0  0  0  0  0  0  0999 V2000
    5.4406    6.8952   -1.3180 C   0  0  0  0  0  0  0  0  0  0  0  0
    6.3293    6.0259   -0.7939 C   0  0  0  0  0  0  0  0  0  0  0  0
    5.9978    4.6855   -0.2810 C   0  0  0  0  0  0  0  0  0  0  0  0
    4.9788    4.0021   -0.5644 O   0  0  0  0  0  0  0  0  0  0  0  0
    7.0462    4.2588    0.6146 C   0  0  0  0  0  0  0  0  0  0  0  0
    7.0426    3.1132    1.4429 C   0  0  0  0  0  0  0  0  0  0  0  0
    8.1240    3.0447    2.2990 C   0  0  0  0  0  0  0  0  0  0  0  0
    9.1398    4.0561    2.3640 C   0  0  0  0  0  0  0  0  0  0  0  0
    9.1522    5.1802    1.5481 C   0  0  0  0  0  0  0  0  0  0  0  0
    8.0683    5.2456    0.6286 C   0  0  0  0  0  0  0  0  0  0  0  0
    7.7241    6.3161   -0.3508 C   0  0  0  0  0  0  0  0  0  0  0  0
    8.5900    7.1867   -0.9314 C   0  0  0  0  0  0  0  0  0  0  0  0
    9.9919    7.2051   -0.6010 C   0  0  0  0  0  0  0  0  0  0  0  0
   11.1201    7.2273   -0.3464 N   0  0  0  0  0  0  0  0  0  0  0  0
    8.2046    8.0232   -2.0406 C   0  0  0  0  0  0  0  0  0  0  0  0
    7.8990    8.6909   -2.9378 N   0  0  0  0  0  0  0  0  0  0  0  0
    9.8079    3.3362    3.4948 C   0  0  0  0  0  0  0  0  0  0  0  0
    9.6292    3.9086    4.9347 C   0  0  0  0  0  0  0  0  0  0  0  0
    8.2868    4.5950    5.0571 C   0  0  0  0  0  0  0  0  0  0  0  0
    7.3570    3.6386    4.9881 C   0  0  0  0  0  0  0  0  0  0  0  0
    8.1000    2.3336    4.8145 C   0  0  0  0  0  0  0  0  0  0  0  0
    9.3110    2.6277    5.6863 C   0  0  0  0  0  0  0  0  0  0  0  0
    8.7816    2.2903    3.4140 C   0  0  0  0  0  0  0  0  0  0  0  0
    4.0137    6.5374   -1.4481 C   0  0  0  0  0  0  0  0  0  0  0  0
    3.1382    6.7442   -0.3695 C   0  0  0  0  0  0  0  0  0  0  0  0
    3.5115    7.5040    0.6980 N   0  0  0  0  0  0  0  0  0  0  0  0
    2.6853    7.6854    1.7623 C   0  0  0  0  0  0  0  0  0  0  0  0
    1.4309    7.0712    1.7732 C   0  0  0  0  0  0  0  0  0  0  0  0
    0.5603    7.2981    2.8412 O   0  0  0  0  0  0  0  0  0  0  0  0
   -0.7622    6.7732    2.8813 C   0  0  0  0  0  0  0  0  0  0  0  0
   -1.5234    7.4217    4.0238 C   0  0  0  0  0  0  0  0  0  0  0  0
    1.0697    6.2737    0.7297 N   0  0  0  0  0  0  0  0  0  0  0  0
    1.8859    6.0962   -0.3451 C   0  0  0  0  0  0  0  0  0  0  0  0
    1.5250    5.2264   -1.3886 C   0  0  0  0  0  0  0  0  0  0  0  0
    2.3441    5.1424   -2.5253 C   0  0  0  0  0  0  0  0  0  0  0  0
    3.5818    5.7926   -2.5565 C   0  0  0  0  0  0  0  0  0  0  0  0
    4.4134    5.5898   -3.6111 F   0  0  0  0  0  0  0  0  0  0  0  0
    1.9944    4.3391   -3.5607 F   0  0  0  0  0  0  0  0  0  0  0  0
    0.4803    4.1962   -1.1807 C   0  0  0  0  0  0  0  0  0  0  0  0
    0.7120    3.1135   -0.3058 C   0  0  0  0  0  0  0  0  0  0  0  0
    1.8565    2.9244    0.4912 C   0  0  0  0  0  0  0  0  0  0  0  0
    1.8384    1.7242    1.1945 C   0  0  0  0  0  0  0  0  0  0  0  0
    2.9431    1.2045    2.0606 C   0  0  0  0  0  0  0  0  0  0  0  0
    3.6885    0.0676    1.3659 C   0  0  0  0  0  0  0  0  0  0  0  0
    0.4318    0.8815    0.8168 S   0  0  0  0  0  0  0  0  0  0  0  0
   -0.1925    2.0473   -0.2350 C   0  0  0  0  0  0  0  0  0  0  0  0
   -1.3634    1.9854   -1.0141 C   0  0  0  0  0  0  0  0  0  0  0  0
   -1.6168    3.0920   -1.8523 C   0  0  0  0  0  0  0  0  0  0  0  0
   -0.7015    4.1521   -1.9386 C   0  0  0  0  0  0  0  0  0  0  0  0
   -1.2566    5.2799   -3.0591 S   0  0  0  0  0  0  0  0  0  0  0  0
   -2.6838    4.4512   -3.4170 C   0  0  0  0  0  0  0  0  0  0  0  0
   -3.7411    4.9307   -4.3650 C   0  0  0  0  0  0  0  0  0  0  0  0
   -3.8231    4.0347   -5.5983 C   0  0  0  0  0  0  0  0  0  0  0  0
   -2.7412    3.2753   -2.6716 C   0  0  0  0  0  0  0  0  0  0  0  0
   -2.1639    0.7376   -1.0568 C   0  0  0  0  0  0  0  0  0  0  0  0
   -2.3387   -0.0926   -2.1844 C   0  0  0  0  0  0  0  0  0  0  0  0
   -2.0855    0.2795   -3.5527 N   0  0  0  0  0  0  0  0  0  0  0  0
   -0.7722    0.7348   -3.9550 C   0  0  0  0  0  0  0  0  0  0  0  0
   -0.6312    1.6498   -5.0154 C   0  0  0  0  0  0  0  0  0  0  0  0
    0.6395    2.0560   -5.4336 C   0  0  0  0  0  0  0  0  0  0  0  0
    1.7826    1.5773   -4.7824 C   0  0  0  0  0  0  0  0  0  0  0  0
    3.4121    2.1106   -5.3188 S   0  0  0  0  0  0  0  0  0  0  0  0
    3.7410    0.6019   -6.2808 C   0  0  0  0  0  0  0  0  0  0  0  0
    1.6513    0.7067   -3.6970 C   0  0  0  0  0  0  0  0  0  0  0  0
    0.3837    0.2765   -3.2938 C   0  0  0  0  0  0  0  0  0  0  0  0
   -3.1463    0.0581   -4.5189 C   0  0  0  0  0  0  0  0  0  0  0  0
   -4.4941    0.2535   -4.1478 C   0  0  0  0  0  0  0  0  0  0  0  0
   -5.5294   -0.0657   -5.0303 C   0  0  0  0  0  0  0  0  0  0  0  0
   -5.2418   -0.5844   -6.2956 C   0  0  0  0  0  0  0  0  0  0  0  0
   -6.5763   -1.0777   -7.3914 S   0  0  0  0  0  0  0  0  0  0  0  0
   -6.8212    0.5951   -8.0594 C   0  0  0  0  0  0  0  0  0  0  0  0
   -3.9084   -0.7750   -6.6789 C   0  0  0  0  0  0  0  0  0  0  0  0
   -2.8680   -0.4623   -5.7963 C   0  0  0  0  0  0  0  0  0  0  0  0
   -2.8104   -1.3513   -1.8231 C   0  0  0  0  0  0  0  0  0  0  0  0
   -3.0432   -2.7886   -2.6625 S   0  0  0  0  0  0  0  0  0  0  0  0
   -3.4498   -3.6686   -1.2646 C   0  0  0  0  0  0  0  0  0  0  0  0
   -3.4211   -2.8265   -0.1359 C   0  0  0  0  0  0  0  0  0  0  0  0
   -3.8374   -3.2193    1.1901 N   0  0  0  0  0  0  0  0  0  0  0  0
   -4.9827   -4.0800    1.3483 C   0  0  0  0  0  0  0  0  0  0  0  0
   -6.1187   -3.8998    0.5393 C   0  0  0  0  0  0  0  0  0  0  0  0
   -7.1587   -4.8281    0.5648 C   0  0  0  0  0  0  0  0  0  0  0  0
   -7.0973   -5.9282    1.4249 C   0  0  0  0  0  0  0  0  0  0  0  0
   -8.4008   -7.1619    1.3853 S   0  0  0  0  0  0  0  0  0  0  0  0
   -9.5294   -6.2018    2.4422 C   0  0  0  0  0  0  0  0  0  0  0  0
   -5.9942   -6.0895    2.2736 C   0  0  0  0  0  0  0  0  0  0  0  0
   -4.9386   -5.1691    2.2351 C   0  0  0  0  0  0  0  0  0  0  0  0
   -3.1773   -2.6804    2.3505 C   0  0  0  0  0  0  0  0  0  0  0  0
   -1.7998   -2.8708    2.5356 C   0  0  0  0  0  0  0  0  0  0  0  0
   -1.1473   -2.2994    3.6317 C   0  0  0  0  0  0  0  0  0  0  0  0
   -1.8649   -1.5090    4.5383 C   0  0  0  0  0  0  0  0  0  0  0  0
   -1.0100   -0.7273    5.9044 S   0  0  0  0  0  0  0  0  0  0  0  0
   -0.6084    0.7726    4.9532 C   0  0  0  0  0  0  0  0  0  0  0  0
   -3.2445   -1.3318    4.3721 C   0  0  0  0  0  0  0  0  0  0  0  0
   -3.8997   -1.9187    3.2834 C   0  0  0  0  0  0  0  0  0  0  0  0
   -3.0368   -1.5363   -0.4981 C   0  0  0  0  0  0  0  0  0  0  0  0
   -2.6645   -0.1269    0.3336 S   0  0  0  0  0  0  0  0  0  0  0  0
   -3.6839   -5.1198   -1.2422 C   0  0  0  0  0  0  0  0  0  0  0  0
   -2.8178   -5.9740   -0.6639 C   0  0  0  0  0  0  0  0  0  0  0  0
   -1.5212   -5.5876   -0.0969 C   0  0  0  0  0  0  0  0  0  0  0  0
   -0.8454   -4.5709   -0.4095 O   0  0  0  0  0  0  0  0  0  0  0  0
   -1.1021   -6.6057    0.8378 C   0  0  0  0  0  0  0  0  0  0  0  0
   -0.0220   -6.5263    1.7469 C   0  0  0  0  0  0  0  0  0  0  0  0
    0.0614   -7.6028    2.6089 C   0  0  0  0  0  0  0  0  0  0  0  0
   -0.8512   -8.7052    2.5753 C   0  0  0  0  0  0  0  0  0  0  0  0
   -1.9215   -8.7814    1.6971 C   0  0  0  0  0  0  0  0  0  0  0  0
   -2.0332   -7.6778    0.8045 C   0  0  0  0  0  0  0  0  0  0  0  0
   -3.0834   -7.3779   -0.2139 C   0  0  0  0  0  0  0  0  0  0  0  0
   -4.0005   -8.2408   -0.7264 C   0  0  0  0  0  0  0  0  0  0  0  0
   -4.1493   -9.5914   -0.2581 C   0  0  0  0  0  0  0  0  0  0  0  0
   -4.2904  -10.6816    0.1076 N   0  0  0  0  0  0  0  0  0  0  0  0
   -4.8287   -7.9056   -1.8568 C   0  0  0  0  0  0  0  0  0  0  0  0
   -5.4933   -7.6558   -2.7714 N   0  0  0  0  0  0  0  0  0  0  0  0
   -0.1542   -9.3398    3.7436 C   0  0  0  0  0  0  0  0  0  0  0  0
   -0.8756   -9.2964    5.1242 C   0  0  0  0  0  0  0  0  0  0  0  0
   -1.7507   -8.0680    5.2042 C   0  0  0  0  0  0  0  0  0  0  0  0
   -0.9313   -7.0182    5.2416 C   0  0  0  0  0  0  0  0  0  0  0  0
    0.4765   -7.5652    5.1907 C   0  0  0  0  0  0  0  0  0  0  0  0
    0.2678   -8.8315    6.0039 C   0  0  0  0  0  0  0  0  0  0  0  0
    0.7610   -8.1941    3.7951 C   0  0  0  0  0  0  0  0  0  0  0  0
    5.7055    7.9296   -1.4727 H   0  0  0  0  0  0  0  0  0  0  0  0
    6.2437    2.3823    1.4448 H   0  0  0  0  0  0  0  0  0  0  0  0
    9.9092    5.9424    1.6564 H   0  0  0  0  0  0  0  0  0  0  0  0
   10.8353    2.9750    3.2558 H   0  0  0  0  0  0  0  0  0  0  0  0
   10.4935    4.4900    5.3220 H   0  0  0  0  0  0  0  0  0  0  0  0
    8.0942    5.6461    5.2385 H   0  0  0  0  0  0  0  0  0  0  0  0
    6.2840    3.7773    5.0887 H   0  0  0  0  0  0  0  0  0  0  0  0
    7.5228    1.4246    5.0906 H   0  0  0  0  0  0  0  0  0  0  0  0
   10.1127    1.8521    5.6115 H   0  0  0  0  0  0  0  0  0  0  0  0
    9.0530    2.7978    6.7595 H   0  0  0  0  0  0  0  0  0  0  0  0
    9.1749    1.2952    3.1082 H   0  0  0  0  0  0  0  0  0  0  0  0
    2.9992    8.3073    2.5862 H   0  0  0  0  0  0  0  0  0  0  0  0
   -0.7312    5.6701    3.0288 H   0  0  0  0  0  0  0  0  0  0  0  0
   -1.2848    7.0026    1.9273 H   0  0  0  0  0  0  0  0  0  0  0  0
   -1.0622    7.1504    4.9952 H   0  0  0  0  0  0  0  0  0  0  0  0
   -1.5072    8.5263    3.9102 H   0  0  0  0  0  0  0  0  0  0  0  0
   -2.5765    7.0758    4.0106 H   0  0  0  0  0  0  0  0  0  0  0  0
    2.6763    3.6195    0.5544 H   0  0  0  0  0  0  0  0  0  0  0  0
    2.5130    0.8320    3.0151 H   0  0  0  0  0  0  0  0  0  0  0  0
    3.6587    2.0219    2.2965 H   0  0  0  0  0  0  0  0  0  0  0  0
    3.0063   -0.7950    1.1992 H   0  0  0  0  0  0  0  0  0  0  0  0
    4.5374   -0.2703    1.9924 H   0  0  0  0  0  0  0  0  0  0  0  0
    4.0894    0.4080    0.3853 H   0  0  0  0  0  0  0  0  0  0  0  0
   -3.5142    5.9690   -4.6912 H   0  0  0  0  0  0  0  0  0  0  0  0
   -4.7237    4.9369   -3.8483 H   0  0  0  0  0  0  0  0  0  0  0  0
   -4.6334    4.3961   -6.2685 H   0  0  0  0  0  0  0  0  0  0  0  0
   -4.0490    2.9859   -5.3102 H   0  0  0  0  0  0  0  0  0  0  0  0
   -2.8647    4.0614   -6.1605 H   0  0  0  0  0  0  0  0  0  0  0  0
   -3.5729    2.5898   -2.7151 H   0  0  0  0  0  0  0  0  0  0  0  0
   -1.5027    2.0450   -5.5230 H   0  0  0  0  0  0  0  0  0  0  0  0
    0.7306    2.7455   -6.2613 H   0  0  0  0  0  0  0  0  0  0  0  0
    3.9887   -0.2274   -5.5897 H   0  0  0  0  0  0  0  0  0  0  0  0
    2.8660    0.3281   -6.9042 H   0  0  0  0  0  0  0  0  0  0  0  0
    4.6062    0.7785   -6.9512 H   0  0  0  0  0  0  0  0  0  0  0  0
    2.5302    0.3425   -3.1801 H   0  0  0  0  0  0  0  0  0  0  0  0
    0.3072   -0.4231   -2.4704 H   0  0  0  0  0  0  0  0  0  0  0  0
   -4.7484    0.6302   -3.1649 H   0  0  0  0  0  0  0  0  0  0  0  0
   -6.5563    0.0734   -4.7213 H   0  0  0  0  0  0  0  0  0  0  0  0
   -5.8723    0.9836   -8.4833 H   0  0  0  0  0  0  0  0  0  0  0  0
   -7.1815    1.2729   -7.2579 H   0  0  0  0  0  0  0  0  0  0  0  0
   -7.5853    0.5553   -8.8626 H   0  0  0  0  0  0  0  0  0  0  0  0
   -3.6746   -1.1992   -7.6485 H   0  0  0  0  0  0  0  0  0  0  0  0
   -1.8469   -0.6640   -6.0958 H   0  0  0  0  0  0  0  0  0  0  0  0
   -6.1762   -3.0609   -0.1430 H   0  0  0  0  0  0  0  0  0  0  0  0
   -8.0073   -4.6979   -0.0946 H   0  0  0  0  0  0  0  0  0  0  0  0
  -10.4876   -6.7560    2.5443 H   0  0  0  0  0  0  0  0  0  0  0  0
   -9.7395   -5.2121    1.9808 H   0  0  0  0  0  0  0  0  0  0  0  0
   -9.0801   -6.0647    3.4490 H   0  0  0  0  0  0  0  0  0  0  0  0
   -5.9359   -6.9465    2.9332 H   0  0  0  0  0  0  0  0  0  0  0  0
   -4.0680   -5.3320    2.8588 H   0  0  0  0  0  0  0  0  0  0  0  0
   -1.2324   -3.4620    1.8333 H   0  0  0  0  0  0  0  0  0  0  0  0
   -0.0813   -2.4544    3.7629 H   0  0  0  0  0  0  0  0  0  0  0  0
    0.0122    1.4467    5.5813 H   0  0  0  0  0  0  0  0  0  0  0  0
   -0.0329    0.5090    4.0398 H   0  0  0  0  0  0  0  0  0  0  0  0
   -1.5418    1.3027    4.6698 H   0  0  0  0  0  0  0  0  0  0  0  0
   -3.8057   -0.7293    5.0771 H   0  0  0  0  0  0  0  0  0  0  0  0
   -4.9620   -1.7616    3.1542 H   0  0  0  0  0  0  0  0  0  0  0  0
   -4.6653   -5.4328   -1.5580 H   0  0  0  0  0  0  0  0  0  0  0  0
    0.6477   -5.6756    1.8012 H   0  0  0  0  0  0  0  0  0  0  0  0
   -2.6234   -9.5958    1.7697 H   0  0  0  0  0  0  0  0  0  0  0  0
    0.3465  -10.3019    3.4999 H   0  0  0  0  0  0  0  0  0  0  0  0
   -1.3612  -10.2447    5.4305 H   0  0  0  0  0  0  0  0  0  0  0  0
   -2.8332   -8.0314    5.2690 H   0  0  0  0  0  0  0  0  0  0  0  0
   -1.2359   -5.9839    5.3486 H   0  0  0  0  0  0  0  0  0  0  0  0
    1.2613   -6.8792    5.5735 H   0  0  0  0  0  0  0  0  0  0  0  0
   -0.0349   -8.6391    7.0604 H   0  0  0  0  0  0  0  0  0  0  0  0
    1.1495   -9.5152    5.9957 H   0  0  0  0  0  0  0  0  0  0  0  0
    1.8234   -8.4613    3.6068 H   0  0  0  0  0  0  0  0  0  0  0  0
  1  2  2  3
  2  3  1  0
  3  4  2  0
  3  5  1  0
  5  6  2  0
  6  7  1  0
  7  8  2  0
  8  9  1  0
  9 10  2  0
 10 11  1  0
 11 12  2  3
 12 13  1  0
 13 14  3  0
 12 15  1  0
 15 16  3  0
  8 17  1  0
 17 18  1  0
 18 19  1  0
 19 20  2  0
 20 21  1  0
 21 22  1  0
 21 23  1  0
  1 24  1  0
 24 25  1  0
 25 26  2  0
 26 27  1  0
 27 28  2  0
 28 29  1  0
 29 30  1  0
 30 31  1  0
 28 32  1  0
 32 33  2  0
 33 34  1  0
 34 35  2  0
 35 36  1  0
 36 37  1  0
 35 38  1  0
 34 39  1  0
 39 40  2  0
 40 41  1  0
 41 42  2  0
 42 43  1  0
 43 44  1  0
 42 45  1  0
 45 46  1  0
 46 47  2  0
 47 48  1  0
 48 49  2  0
 49 50  1  0
 50 51  1  0
 51 52  1  0
 52 53  1  0
 51 54  2  0
 47 55  1  0
 55 56  2  0
 56 57  1  0
 57 58  1  0
 58 59  2  0
 59 60  1  0
 60 61  2  0
 61 62  1  0
 62 63  1  0
 61 64  1  0
 64 65  2  0
 57 66  1  0
 66 67  2  0
 67 68  1  0
 68 69  2  0
 69 70  1  0
 70 71  1  0
 69 72  1  0
 72 73  2  0
 56 74  1  0
 74 75  1  0
 75 76  1  0
 76 77  2  0
 77 78  1  0
 78 79  1  0
 79 80  2  0
 80 81  1  0
 81 82  2  0
 82 83  1  0
 83 84  1  0
 82 85  1  0
 85 86  2  0
 78 87  1  0
 87 88  2  0
 88 89  1  0
 89 90  2  0
 90 91  1  0
 91 92  1  0
 90 93  1  0
 93 94  2  0
 77 95  1  0
 95 96  1  0
 76 97  1  0
 97 98  2  3
 98 99  1  0
 99100  2  0
 99101  1  0
101102  2  0
102103  1  0
103104  2  0
104105  1  0
105106  2  0
106107  1  0
107108  2  3
108109  1  0
109110  3  0
108111  1  0
111112  3  0
104113  1  0
113114  1  0
114115  1  0
115116  2  0
116117  1  0
117118  1  0
117119  1  0
 11  2  1  0
 23 17  1  0
 36 24  2  0
 49 39  1  0
 96 55  1  0
107 98  1  0
119113  1  0
 10  5  1  0
 22 18  1  0
 33 25  1  0
 46 40  1  0
 54 48  1  0
 65 58  1  0
 73 66  1  0
 95 74  2  0
106101  1  0
118114  1  0
 23  7  1  0
 86 79  1  0
 94 87  1  0
119103  1  0
  1120  1  0
  6121  1  0
  9122  1  0
 17123  1  0
 18124  1  0
 19125  1  0
 20126  1  0
 21127  1  0
 22128  1  0
 22129  1  0
 23130  1  0
 27131  1  0
 30132  1  0
 30133  1  0
 31134  1  0
 31135  1  0
 31136  1  0
 41137  1  0
 43138  1  0
 43139  1  0
 44140  1  0
 44141  1  0
 44142  1  0
 52143  1  0
 52144  1  0
 53145  1  0
 53146  1  0
 53147  1  0
 54148  1  0
 59149  1  0
 60150  1  0
 63151  1  0
 63152  1  0
 63153  1  0
 64154  1  0
 65155  1  0
 67156  1  0
 68157  1  0
 71158  1  0
 71159  1  0
 71160  1  0
 72161  1  0
 73162  1  0
 80163  1  0
 81164  1  0
 84165  1  0
 84166  1  0
 84167  1  0
 85168  1  0
 86169  1  0
 88170  1  0
 89171  1  0
 92172  1  0
 92173  1  0
 92174  1  0
 93175  1  0
 94176  1  0
 97177  1  0
102178  1  0
105179  1  0
113180  1  0
114181  1  0
115182  1  0
116183  1  0
117184  1  0
118185  1  0
118186  1  0
119187  1  0
M  END

