
     RDKit          3D

207229  0  0  0  0  0  0  0  0999 V2000
   -2.2471    5.5661   -0.2226 C   0  0  0  0  0  0  0  0  0  0  0  0
   -3.0799    5.9852    0.7444 C   0  0  0  0  0  0  0  0  0  0  0  0
   -3.8821    5.1232    1.6200 C   0  0  0  0  0  0  0  0  0  0  0  0
   -3.6302    3.9251    1.9200 O   0  0  0  0  0  0  0  0  0  0  0  0
   -5.0080    5.8861    2.1101 C   0  0  0  0  0  0  0  0  0  0  0  0
   -6.1587    5.3827    2.7553 C   0  0  0  0  0  0  0  0  0  0  0  0
   -7.1932    6.2960    2.8394 C   0  0  0  0  0  0  0  0  0  0  0  0
   -7.0956    7.6384    2.3481 C   0  0  0  0  0  0  0  0  0  0  0  0
   -5.9584    8.1501    1.7470 C   0  0  0  0  0  0  0  0  0  0  0  0
   -4.8867    7.2215    1.6467 C   0  0  0  0  0  0  0  0  0  0  0  0
   -3.5926    7.3712    0.9304 C   0  0  0  0  0  0  0  0  0  0  0  0
   -2.9209    8.5291    0.7107 C   0  0  0  0  0  0  0  0  0  0  0  0
   -3.4594    9.8102    1.0852 C   0  0  0  0  0  0  0  0  0  0  0  0
   -3.8721   10.8487    1.3857 N   0  0  0  0  0  0  0  0  0  0  0  0
   -1.5700    8.5544    0.2163 C   0  0  0  0  0  0  0  0  0  0  0  0
   -0.4833    8.5830   -0.1830 N   0  0  0  0  0  0  0  0  0  0  0  0
   -8.5264    7.8971    2.7205 C   0  0  0  0  0  0  0  0  0  0  0  0
   -8.7830    8.7663    3.9859 C   0  0  0  0  0  0  0  0  0  0  0  0
  -10.2297    8.5358    4.3574 C   0  0  0  0  0  0  0  0  0  0  0  0
  -10.3091    7.2828    4.8185 C   0  0  0  0  0  0  0  0  0  0  0  0
   -8.9167    6.7094    4.7407 C   0  0  0  0  0  0  0  0  0  0  0  0
   -8.1288    7.9603    5.0930 C   0  0  0  0  0  0  0  0  0  0  0  0
   -8.6220    6.5248    3.2240 C   0  0  0  0  0  0  0  0  0  0  0  0
   -2.0664    4.1499   -0.5849 C   0  0  0  0  0  0  0  0  0  0  0  0
   -3.0786    3.2649   -1.0106 C   0  0  0  0  0  0  0  0  0  0  0  0
   -4.4016    3.6805   -1.4037 N   0  0  0  0  0  0  0  0  0  0  0  0
   -5.5348    3.4047   -0.5472 C   0  0  0  0  0  0  0  0  0  0  0  0
   -5.6334    2.1911    0.1563 C   0  0  0  0  0  0  0  0  0  0  0  0
   -6.7979    1.8728    0.8605 C   0  0  0  0  0  0  0  0  0  0  0  0
   -7.8663    2.7751    0.9010 C   0  0  0  0  0  0  0  0  0  0  0  0
   -9.4128    2.2914    1.6807 S   0  0  0  0  0  0  0  0  0  0  0  0
   -8.8537    2.6441    3.3765 C   0  0  0  0  0  0  0  0  0  0  0  0
   -7.7558    4.0123    0.2590 C   0  0  0  0  0  0  0  0  0  0  0  0
   -6.5970    4.3255   -0.4597 C   0  0  0  0  0  0  0  0  0  0  0  0
   -4.6043    4.1828   -2.7531 C   0  0  0  0  0  0  0  0  0  0  0  0
   -3.6105    4.9439   -3.4057 C   0  0  0  0  0  0  0  0  0  0  0  0
   -3.8065    5.4124   -4.7067 C   0  0  0  0  0  0  0  0  0  0  0  0
   -4.9939    5.1310   -5.3846 C   0  0  0  0  0  0  0  0  0  0  0  0
   -5.2367    5.7365   -7.0587 S   0  0  0  0  0  0  0  0  0  0  0  0
   -6.0656    7.2651   -6.5189 C   0  0  0  0  0  0  0  0  0  0  0  0
   -5.9765    4.3511   -4.7691 C   0  0  0  0  0  0  0  0  0  0  0  0
   -5.7812    3.8742   -3.4683 C   0  0  0  0  0  0  0  0  0  0  0  0
   -2.5237    2.0498   -1.4092 C   0  0  0  0  0  0  0  0  0  0  0  0
   -3.1367    0.6098   -1.9915 S   0  0  0  0  0  0  0  0  0  0  0  0
   -1.6196   -0.1485   -2.1904 C   0  0  0  0  0  0  0  0  0  0  0  0
   -0.6160    0.7948   -1.8600 C   0  0  0  0  0  0  0  0  0  0  0  0
    0.7571    0.7182   -2.2904 N   0  0  0  0  0  0  0  0  0  0  0  0
    1.0706    1.3638   -3.5418 C   0  0  0  0  0  0  0  0  0  0  0  0
    0.4061    1.0007   -4.7241 C   0  0  0  0  0  0  0  0  0  0  0  0
    0.6882    1.6624   -5.9267 C   0  0  0  0  0  0  0  0  0  0  0  0
    1.6306    2.6953   -5.9532 C   0  0  0  0  0  0  0  0  0  0  0  0
    1.9664    3.5730   -7.4826 S   0  0  0  0  0  0  0  0  0  0  0  0
    3.2985    2.4437   -7.9978 C   0  0  0  0  0  0  0  0  0  0  0  0
    2.2870    3.0737   -4.7767 C   0  0  0  0  0  0  0  0  0  0  0  0
    2.0049    2.4172   -3.5792 C   0  0  0  0  0  0  0  0  0  0  0  0
    1.8283    0.4050   -1.3663 C   0  0  0  0  0  0  0  0  0  0  0  0
    1.7008    0.6429    0.0179 C   0  0  0  0  0  0  0  0  0  0  0  0
    2.8133    0.5392    0.8570 C   0  0  0  0  0  0  0  0  0  0  0  0
    4.0596    0.1725    0.3307 C   0  0  0  0  0  0  0  0  0  0  0  0
    5.5245    0.2028    1.3623 S   0  0  0  0  0  0  0  0  0  0  0  0
    5.9290    1.9231    0.9231 C   0  0  0  0  0  0  0  0  0  0  0  0
    4.1737   -0.1600   -1.0190 C   0  0  0  0  0  0  0  0  0  0  0  0
    3.0673   -0.0435   -1.8622 C   0  0  0  0  0  0  0  0  0  0  0  0
   -1.1722    1.9837   -1.3880 C   0  0  0  0  0  0  0  0  0  0  0  0
   -0.5412    3.4422   -0.8536 S   0  0  0  0  0  0  0  0  0  0  0  0
   -1.3995   -1.5955   -2.4508 C   0  0  0  0  0  0  0  0  0  0  0  0
    0.1419   -2.3039   -2.4778 S   0  0  0  0  0  0  0  0  0  0  0  0
   -0.2777   -3.9176   -2.2558 C   0  0  0  0  0  0  0  0  0  0  0  0
   -1.6503   -3.9070   -2.1331 C   0  0  0  0  0  0  0  0  0  0  0  0
   -2.7367   -5.1128   -1.7179 S   0  0  0  0  0  0  0  0  0  0  0  0
   -4.0788   -4.0783   -1.7418 C   0  0  0  0  0  0  0  0  0  0  0  0
   -5.4515   -4.5062   -1.4424 C   0  0  0  0  0  0  0  0  0  0  0  0
   -5.6734   -5.7015   -1.1016 O   0  0  0  0  0  0  0  0  0  0  0  0
   -6.5038   -3.5885   -1.5289 O   0  0  0  0  0  0  0  0  0  0  0  0
   -7.8338   -3.8768   -1.1028 C   0  0  0  0  0  0  0  0  0  0  0  0
   -7.9278   -3.8198    0.4151 C   0  0  0  0  0  0  0  0  0  0  0  0
   -3.6750   -2.7761   -2.0576 C   0  0  0  0  0  0  0  0  0  0  0  0
   -2.2852   -2.6779   -2.2593 C   0  0  0  0  0  0  0  0  0  0  0  0
   -4.5554   -1.7600   -2.1819 F   0  0  0  0  0  0  0  0  0  0  0  0
    0.6342   -4.9109   -1.6897 C   0  0  0  0  0  0  0  0  0  0  0  0
    1.8802   -5.2067   -2.2337 C   0  0  0  0  0  0  0  0  0  0  0  0
    2.7934   -5.6981   -1.2842 C   0  0  0  0  0  0  0  0  0  0  0  0
    4.1748   -5.9111   -1.4899 C   0  0  0  0  0  0  0  0  0  0  0  0
    4.7917   -5.8325   -2.8326 C   0  0  0  0  0  0  0  0  0  0  0  0
    4.7832   -4.6317   -3.5611 C   0  0  0  0  0  0  0  0  0  0  0  0
    5.3092   -4.5920   -4.8533 C   0  0  0  0  0  0  0  0  0  0  0  0
    5.8662   -5.7444   -5.4218 C   0  0  0  0  0  0  0  0  0  0  0  0
    6.5098   -5.6873   -7.1011 S   0  0  0  0  0  0  0  0  0  0  0  0
    5.0226   -6.4358   -7.8697 C   0  0  0  0  0  0  0  0  0  0  0  0
    3.9136   -5.4071   -8.0435 C   0  0  0  0  0  0  0  0  0  0  0  0
    5.9176   -6.9336   -4.6815 C   0  0  0  0  0  0  0  0  0  0  0  0
    6.4656   -8.0545   -5.2152 F   0  0  0  0  0  0  0  0  0  0  0  0
    5.3854   -6.9750   -3.3897 C   0  0  0  0  0  0  0  0  0  0  0  0
    4.9575   -6.1291   -0.3456 C   0  0  0  0  0  0  0  0  0  0  0  0
    4.4084   -6.2058    0.9394 C   0  0  0  0  0  0  0  0  0  0  0  0
    3.0213   -6.0733    1.1363 C   0  0  0  0  0  0  0  0  0  0  0  0
    2.4704   -5.9245    2.4976 C   0  0  0  0  0  0  0  0  0  0  0  0
    2.4138   -7.0255    3.3651 C   0  0  0  0  0  0  0  0  0  0  0  0
    2.0594   -6.8440    4.7067 C   0  0  0  0  0  0  0  0  0  0  0  0
    1.7660   -5.5631    5.1892 C   0  0  0  0  0  0  0  0  0  0  0  0
    1.4076   -5.3232    6.9308 S   0  0  0  0  0  0  0  0  0  0  0  0
    3.1483   -4.9604    7.3535 C   0  0  0  0  0  0  0  0  0  0  0  0
    3.2631   -4.6089    8.8259 C   0  0  0  0  0  0  0  0  0  0  0  0
    1.7931   -4.4651    4.3157 C   0  0  0  0  0  0  0  0  0  0  0  0
    2.1474   -4.6456    2.9776 C   0  0  0  0  0  0  0  0  0  0  0  0
    1.5327   -3.2146    4.7772 F   0  0  0  0  0  0  0  0  0  0  0  0
    2.2441   -5.8004   -0.0006 C   0  0  0  0  0  0  0  0  0  0  0  0
    0.6482   -5.2831   -0.0447 S   0  0  0  0  0  0  0  0  0  0  0  0
    5.3682   -6.1455    1.9597 C   0  0  0  0  0  0  0  0  0  0  0  0
    6.6570   -5.9304    1.4825 C   0  0  0  0  0  0  0  0  0  0  0  0
    6.6243   -5.9242   -0.2037 S   0  0  0  0  0  0  0  0  0  0  0  0
    7.7203   -5.2915    2.2686 C   0  0  0  0  0  0  0  0  0  0  0  0
    7.5652   -4.0815    2.8458 C   0  0  0  0  0  0  0  0  0  0  0  0
    6.3276   -3.2803    2.8646 C   0  0  0  0  0  0  0  0  0  0  0  0
    5.3809   -3.3397    2.0364 O   0  0  0  0  0  0  0  0  0  0  0  0
    6.4095   -2.3225    3.9424 C   0  0  0  0  0  0  0  0  0  0  0  0
    5.3900   -1.4523    4.3894 C   0  0  0  0  0  0  0  0  0  0  0  0
    5.7573   -0.6772    5.4724 C   0  0  0  0  0  0  0  0  0  0  0  0
    7.0430   -0.7637    6.0983 C   0  0  0  0  0  0  0  0  0  0  0  0
    8.0407   -1.6271    5.6701 C   0  0  0  0  0  0  0  0  0  0  0  0
    7.6964   -2.4074    4.5324 C   0  0  0  0  0  0  0  0  0  0  0  0
    8.5132   -3.4025    3.7795 C   0  0  0  0  0  0  0  0  0  0  0  0
    9.8658   -3.4558    3.7231 C   0  0  0  0  0  0  0  0  0  0  0  0
   10.7070   -2.6054    4.5233 C   0  0  0  0  0  0  0  0  0  0  0  0
   11.3997   -1.9246    5.1555 N   0  0  0  0  0  0  0  0  0  0  0  0
   10.5589   -4.2422    2.7347 C   0  0  0  0  0  0  0  0  0  0  0  0
   11.1175   -4.8652    1.9356 N   0  0  0  0  0  0  0  0  0  0  0  0
    6.6601    0.3118    7.0719 C   0  0  0  0  0  0  0  0  0  0  0  0
    7.2731    1.7262    6.8530 C   0  0  0  0  0  0  0  0  0  0  0  0
    7.5182    1.9644    5.3817 C   0  0  0  0  0  0  0  0  0  0  0  0
    6.3205    2.0537    4.8043 C   0  0  0  0  0  0  0  0  0  0  0  0
    5.2986    1.8683    5.9010 C   0  0  0  0  0  0  0  0  0  0  0  0
    6.0287    2.5779    7.0240 C   0  0  0  0  0  0  0  0  0  0  0  0
    5.3456    0.4036    6.4300 C   0  0  0  0  0  0  0  0  0  0  0  0
   -1.7410    6.2734   -0.8571 H   0  0  0  0  0  0  0  0  0  0  0  0
   -6.2635    4.3532    3.0706 H   0  0  0  0  0  0  0  0  0  0  0  0
   -5.9520    9.1402    1.3192 H   0  0  0  0  0  0  0  0  0  0  0  0
   -9.1795    8.1168    1.8459 H   0  0  0  0  0  0  0  0  0  0  0  0
   -8.4743    9.8316    3.9083 H   0  0  0  0  0  0  0  0  0  0  0  0
  -11.0350    9.2636    4.3425 H   0  0  0  0  0  0  0  0  0  0  0  0
  -11.1890    6.8134    5.2424 H   0  0  0  0  0  0  0  0  0  0  0  0
   -8.7333    5.8197    5.3796 H   0  0  0  0  0  0  0  0  0  0  0  0
   -7.0272    7.8472    4.9848 H   0  0  0  0  0  0  0  0  0  0  0  0
   -8.3512    8.3511    6.1154 H   0  0  0  0  0  0  0  0  0  0  0  0
   -9.3413    5.8860    2.6647 H   0  0  0  0  0  0  0  0  0  0  0  0
   -4.8316    1.4695    0.1341 H   0  0  0  0  0  0  0  0  0  0  0  0
   -6.8750    0.9130    1.3588 H   0  0  0  0  0  0  0  0  0  0  0  0
   -9.6163    2.2701    4.0903 H   0  0  0  0  0  0  0  0  0  0  0  0
   -8.7363    3.7346    3.5191 H   0  0  0  0  0  0  0  0  0  0  0  0
   -7.8908    2.1336    3.5835 H   0  0  0  0  0  0  0  0  0  0  0  0
   -8.5759    4.7178    0.2870 H   0  0  0  0  0  0  0  0  0  0  0  0
   -6.5325    5.2795   -0.9684 H   0  0  0  0  0  0  0  0  0  0  0  0
   -2.6797    5.1890   -2.9208 H   0  0  0  0  0  0  0  0  0  0  0  0
   -3.0317    5.9981   -5.1870 H   0  0  0  0  0  0  0  0  0  0  0  0
   -6.2983    7.8874   -7.4087 H   0  0  0  0  0  0  0  0  0  0  0  0
   -5.4041    7.8450   -5.8399 H   0  0  0  0  0  0  0  0  0  0  0  0
   -7.0149    7.0118   -6.0002 H   0  0  0  0  0  0  0  0  0  0  0  0
   -6.8923    4.1122   -5.2932 H   0  0  0  0  0  0  0  0  0  0  0  0
   -6.5508    3.2554   -3.0239 H   0  0  0  0  0  0  0  0  0  0  0  0
   -0.3176    0.1965   -4.7193 H   0  0  0  0  0  0  0  0  0  0  0  0
    0.1678    1.3764   -6.8330 H   0  0  0  0  0  0  0  0  0  0  0  0
    2.8666    1.4575   -8.2660 H   0  0  0  0  0  0  0  0  0  0  0  0
    4.0438    2.3205   -7.1848 H   0  0  0  0  0  0  0  0  0  0  0  0
    3.8082    2.8661   -8.8892 H   0  0  0  0  0  0  0  0  0  0  0  0
    2.9976    3.8876   -4.7826 H   0  0  0  0  0  0  0  0  0  0  0  0
    2.5056    2.7322   -2.6718 H   0  0  0  0  0  0  0  0  0  0  0  0
    0.7596    0.9658    0.4391 H   0  0  0  0  0  0  0  0  0  0  0  0
    2.7207    0.7854    1.9094 H   0  0  0  0  0  0  0  0  0  0  0  0
    6.1150    2.0106   -0.1666 H   0  0  0  0  0  0  0  0  0  0  0  0
    5.0946    2.5932    1.2145 H   0  0  0  0  0  0  0  0  0  0  0  0
    6.8446    2.2353    1.4623 H   0  0  0  0  0  0  0  0  0  0  0  0
    5.1324   -0.4585   -1.4251 H   0  0  0  0  0  0  0  0  0  0  0  0
    3.1921   -0.2533   -2.9172 H   0  0  0  0  0  0  0  0  0  0  0  0
   -8.1532   -4.8763   -1.4697 H   0  0  0  0  0  0  0  0  0  0  0  0
   -8.5165   -3.1162   -1.5329 H   0  0  0  0  0  0  0  0  0  0  0  0
   -8.9791   -3.9634    0.7305 H   0  0  0  0  0  0  0  0  0  0  0  0
   -7.3058   -4.6146    0.8724 H   0  0  0  0  0  0  0  0  0  0  0  0
   -7.5746   -2.8334    0.7777 H   0  0  0  0  0  0  0  0  0  0  0  0
    2.1359   -4.9576   -3.2550 H   0  0  0  0  0  0  0  0  0  0  0  0
    4.3523   -3.7330   -3.1334 H   0  0  0  0  0  0  0  0  0  0  0  0
    5.2857   -3.6677   -5.4155 H   0  0  0  0  0  0  0  0  0  0  0  0
    4.6539   -7.2942   -7.2647 H   0  0  0  0  0  0  0  0  0  0  0  0
    5.3100   -6.8231   -8.8716 H   0  0  0  0  0  0  0  0  0  0  0  0
    4.2832   -4.5350   -8.6253 H   0  0  0  0  0  0  0  0  0  0  0  0
    3.5426   -5.0612   -7.0548 H   0  0  0  0  0  0  0  0  0  0  0  0
    3.0614   -5.8658   -8.5915 H   0  0  0  0  0  0  0  0  0  0  0  0
    5.4080   -7.9055   -2.8331 H   0  0  0  0  0  0  0  0  0  0  0  0
    2.6874   -8.0119    3.0108 H   0  0  0  0  0  0  0  0  0  0  0  0
    2.0415   -7.6932    5.3761 H   0  0  0  0  0  0  0  0  0  0  0  0
    3.5221   -4.1046    6.7490 H   0  0  0  0  0  0  0  0  0  0  0  0
    3.7804   -5.8499    7.1334 H   0  0  0  0  0  0  0  0  0  0  0  0
    2.6373   -3.7247    9.0640 H   0  0  0  0  0  0  0  0  0  0  0  0
    2.9414   -5.4704    9.4525 H   0  0  0  0  0  0  0  0  0  0  0  0
    4.3197   -4.3756    9.0725 H   0  0  0  0  0  0  0  0  0  0  0  0
    2.2235   -3.7851    2.3253 H   0  0  0  0  0  0  0  0  0  0  0  0
    5.1197   -6.0721    3.0112 H   0  0  0  0  0  0  0  0  0  0  0  0
    8.6290   -5.8555    2.4022 H   0  0  0  0  0  0  0  0  0  0  0  0
    4.4125   -1.3943    3.9245 H   0  0  0  0  0  0  0  0  0  0  0  0
    8.9807   -1.6898    6.1911 H   0  0  0  0  0  0  0  0  0  0  0  0
    6.6186   -0.0259    8.1293 H   0  0  0  0  0  0  0  0  0  0  0  0
    8.1252    1.9829    7.5164 H   0  0  0  0  0  0  0  0  0  0  0  0
    8.4722    2.1114    4.8878 H   0  0  0  0  0  0  0  0  0  0  0  0
    6.1296    2.3040    3.7705 H   0  0  0  0  0  0  0  0  0  0  0  0
    4.2870    2.2608    5.6675 H   0  0  0  0  0  0  0  0  0  0  0  0
    6.2083    3.6621    6.8219 H   0  0  0  0  0  0  0  0  0  0  0  0
    5.5403    2.4598    8.0198 H   0  0  0  0  0  0  0  0  0  0  0  0
    4.4989    0.1198    7.0941 H   0  0  0  0  0  0  0  0  0  0  0  0
  1  2  2  3
  2  3  1  0
  3  4  2  0
  3  5  1  0
  5  6  2  0
  6  7  1  0
  7  8  2  0
  8  9  1  0
  9 10  2  0
 10 11  1  0
 11 12  2  3
 12 13  1  0
 13 14  3  0
 12 15  1  0
 15 16  3  0
  8 17  1  0
 17 18  1  0
 18 19  1  0
 19 20  2  0
 20 21  1  0
 21 22  1  0
 21 23  1  0
  1 24  1  0
 24 25  2  0
 25 26  1  0
 26 27  1  0
 27 28  2  0
 28 29  1  0
 29 30  2  0
 30 31  1  0
 31 32  1  0
 30 33  1  0
 33 34  2  0
 26 35  1  0
 35 36  2  0
 36 37  1  0
 37 38  2  0
 38 39  1  0
 39 40  1  0
 38 41  1  0
 41 42  2  0
 25 43  1  0
 43 44  1  0
 44 45  1  0
 45 46  2  0
 46 47  1  0
 47 48  1  0
 48 49  2  0
 49 50  1  0
 50 51  2  0
 51 52  1  0
 52 53  1  0
 51 54  1  0
 54 55  2  0
 47 56  1  0
 56 57  2  0
 57 58  1  0
 58 59  2  0
 59 60  1  0
 60 61  1  0
 59 62  1  0
 62 63  2  0
 46 64  1  0
 64 65  1  0
 45 66  1  0
 66 67  1  0
 67 68  1  0
 68 69  2  0
 69 70  1  0
 70 71  1  0
 71 72  1  0
 72 73  2  0
 72 74  1  0
 74 75  1  0
 75 76  1  0
 71 77  2  0
 77 78  1  0
 77 79  1  0
 68 80  1  0
 80 81  2  0
 81 82  1  0
 82 83  2  0
 83 84  1  0
 84 85  2  0
 85 86  1  0
 86 87  2  0
 87 88  1  0
 88 89  1  0
 89 90  1  0
 87 91  1  0
 91 92  1  0
 91 93  2  0
 83 94  1  0
 94 95  2  0
 95 96  1  0
 96 97  1  0
 97 98  2  0
 98 99  1  0
 99100  2  0
100101  1  0
101102  1  0
102103  1  0
100104  1  0
104105  2  0
104106  1  0
 96107  2  0
107108  1  0
 95109  1  0
109110  2  0
110111  1  0
110112  1  0
112113  2  3
113114  1  0
114115  2  0
114116  1  0
116117  2  0
117118  1  0
118119  2  0
119120  1  0
120121  2  0
121122  1  0
122123  2  3
123124  1  0
124125  3  0
123126  1  0
126127  3  0
119128  1  0
128129  1  0
129130  1  0
130131  2  0
131132  1  0
132133  1  0
132134  1  0
 11  2  1  0
 23 17  1  0
 65 24  1  0
 78 66  2  0
108 80  1  0
122113  1  0
134128  1  0
 10  5  1  0
 22 18  1  0
 34 27  1  0
 42 35  1  0
 64 43  2  0
 78 69  1  0
107 82  1  0
121116  1  0
133129  1  0
 23  7  1  0
 55 48  1  0
 63 56  1  0
 93 84  1  0
111 94  1  0
134118  1  0
105 97  1  0
  1135  1  0
  6136  1  0
  9137  1  0
 17138  1  0
 18139  1  0
 19140  1  0
 20141  1  0
 21142  1  0
 22143  1  0
 22144  1  0
 23145  1  0
 28146  1  0
 29147  1  0
 32148  1  0
 32149  1  0
 32150  1  0
 33151  1  0
 34152  1  0
 36153  1  0
 37154  1  0
 40155  1  0
 40156  1  0
 40157  1  0
 41158  1  0
 42159  1  0
 49160  1  0
 50161  1  0
 53162  1  0
 53163  1  0
 53164  1  0
 54165  1  0
 55166  1  0
 57167  1  0
 58168  1  0
 61169  1  0
 61170  1  0
 61171  1  0
 62172  1  0
 63173  1  0
 75174  1  0
 75175  1  0
 76176  1  0
 76177  1  0
 76178  1  0
 81179  1  0
 85180  1  0
 86181  1  0
 89182  1  0
 89183  1  0
 90184  1  0
 90185  1  0
 90186  1  0
 93187  1  0
 98188  1  0
 99189  1  0
102190  1  0
102191  1  0
103192  1  0
103193  1  0
103194  1  0
105195  1  0
109196  1  0
112197  1  0
117198  1  0
120199  1  0
128200  1  0
129201  1  0
130202  1  0
131203  1  0
132204  1  0
133205  1  0
133206  1  0
134207  1  0
M  END

