
     RDKit          3D

202222  0  0  0  0  0  0  0  0999 V2000
   -3.5291   -3.2630    0.4983 C   0  0  0  0  0  0  0  0  0  0  0  0
   -4.7052   -2.8866    1.0433 C   0  0  0  0  0  0  0  0  0  0  0  0
   -4.8838   -2.2168    2.3392 C   0  0  0  0  0  0  0  0  0  0  0  0
   -4.0528   -2.1851    3.2822 O   0  0  0  0  0  0  0  0  0  0  0  0
   -6.2230   -1.6677    2.3998 C   0  0  0  0  0  0  0  0  0  0  0  0
   -6.7626   -0.8243    3.4025 C   0  0  0  0  0  0  0  0  0  0  0  0
   -8.0469   -0.3833    3.1358 C   0  0  0  0  0  0  0  0  0  0  0  0
   -8.7649   -0.7442    1.9481 C   0  0  0  0  0  0  0  0  0  0  0  0
   -8.2342   -1.5515    0.9561 C   0  0  0  0  0  0  0  0  0  0  0  0
   -6.9277   -2.0514    1.2285 C   0  0  0  0  0  0  0  0  0  0  0  0
   -6.0588   -2.9240    0.3876 C   0  0  0  0  0  0  0  0  0  0  0  0
   -6.4777   -3.7122   -0.6417 C   0  0  0  0  0  0  0  0  0  0  0  0
   -5.5976   -4.5647   -1.4011 C   0  0  0  0  0  0  0  0  0  0  0  0
   -4.8984   -5.2424   -2.0303 N   0  0  0  0  0  0  0  0  0  0  0  0
   -7.8559   -3.7971   -1.0490 C   0  0  0  0  0  0  0  0  0  0  0  0
   -8.9581   -3.8808   -1.3953 N   0  0  0  0  0  0  0  0  0  0  0  0
   -9.9426    0.0790    2.3831 C   0  0  0  0  0  0  0  0  0  0  0  0
  -10.2027    1.4400    1.6625 C   0  0  0  0  0  0  0  0  0  0  0  0
   -8.8973    2.0199    1.1735 C   0  0  0  0  0  0  0  0  0  0  0  0
   -8.2031    2.3603    2.2616 C   0  0  0  0  0  0  0  0  0  0  0  0
   -9.0667    2.0138    3.4547 C   0  0  0  0  0  0  0  0  0  0  0  0
  -10.4282    2.3331    2.8706 C   0  0  0  0  0  0  0  0  0  0  0  0
   -9.1981    0.4661    3.5914 C   0  0  0  0  0  0  0  0  0  0  0  0
   -2.1740   -3.0146    1.0342 C   0  0  0  0  0  0  0  0  0  0  0  0
   -1.0423   -3.7434    0.5995 C   0  0  0  0  0  0  0  0  0  0  0  0
   -1.1090   -5.1233    0.1675 N   0  0  0  0  0  0  0  0  0  0  0  0
   -0.1493   -5.6790   -0.7527 C   0  0  0  0  0  0  0  0  0  0  0  0
    0.1610   -5.0175   -1.9512 C   0  0  0  0  0  0  0  0  0  0  0  0
    1.0913   -5.5701   -2.8398 C   0  0  0  0  0  0  0  0  0  0  0  0
    1.6772   -6.8086   -2.5667 C   0  0  0  0  0  0  0  0  0  0  0  0
    2.7699   -7.5647   -3.7766 S   0  0  0  0  0  0  0  0  0  0  0  0
    4.2941   -7.3271   -2.8053 C   0  0  0  0  0  0  0  0  0  0  0  0
    1.3602   -7.4824   -1.3826 C   0  0  0  0  0  0  0  0  0  0  0  0
    0.4654   -6.9131   -0.4748 C   0  0  0  0  0  0  0  0  0  0  0  0
   -2.0808   -6.0002    0.7799 C   0  0  0  0  0  0  0  0  0  0  0  0
   -2.8408   -6.8855   -0.0060 C   0  0  0  0  0  0  0  0  0  0  0  0
   -3.8208   -7.6914    0.5871 C   0  0  0  0  0  0  0  0  0  0  0  0
   -4.0405   -7.6345    1.9700 C   0  0  0  0  0  0  0  0  0  0  0  0
   -5.3189   -8.6420    2.7270 S   0  0  0  0  0  0  0  0  0  0  0  0
   -4.1670  -10.0001    3.1397 C   0  0  0  0  0  0  0  0  0  0  0  0
   -3.2766   -6.7669    2.7575 C   0  0  0  0  0  0  0  0  0  0  0  0
   -2.2940   -5.9639    2.1698 C   0  0  0  0  0  0  0  0  0  0  0  0
    0.1422   -3.0129    0.7910 C   0  0  0  0  0  0  0  0  0  0  0  0
    1.7018   -3.0558    0.1661 S   0  0  0  0  0  0  0  0  0  0  0  0
    2.1781   -1.5070    0.7262 C   0  0  0  0  0  0  0  0  0  0  0  0
    1.0871   -0.9890    1.4599 C   0  0  0  0  0  0  0  0  0  0  0  0
    1.1523    0.1254    2.3647 N   0  0  0  0  0  0  0  0  0  0  0  0
    0.7761    1.4566    1.9349 C   0  0  0  0  0  0  0  0  0  0  0  0
    1.1502    2.5771    2.7028 C   0  0  0  0  0  0  0  0  0  0  0  0
    0.7002    3.8534    2.3598 C   0  0  0  0  0  0  0  0  0  0  0  0
   -0.1224    4.0317    1.2410 C   0  0  0  0  0  0  0  0  0  0  0  0
   -0.7767    5.6562    0.8571 S   0  0  0  0  0  0  0  0  0  0  0  0
   -2.2007    5.4815    1.9783 C   0  0  0  0  0  0  0  0  0  0  0  0
   -0.4323    2.9382    0.4260 C   0  0  0  0  0  0  0  0  0  0  0  0
    0.0122    1.6588    0.7700 C   0  0  0  0  0  0  0  0  0  0  0  0
    1.1773   -0.2172    3.7698 C   0  0  0  0  0  0  0  0  0  0  0  0
    0.1620    0.2351    4.6335 C   0  0  0  0  0  0  0  0  0  0  0  0
    0.0879   -0.2359    5.9472 C   0  0  0  0  0  0  0  0  0  0  0  0
    1.0165   -1.1708    6.4115 C   0  0  0  0  0  0  0  0  0  0  0  0
    0.8766   -1.8215    8.0780 S   0  0  0  0  0  0  0  0  0  0  0  0
   -0.2130   -3.1952    7.5873 C   0  0  0  0  0  0  0  0  0  0  0  0
    2.0432   -1.6102    5.5704 C   0  0  0  0  0  0  0  0  0  0  0  0
    2.1231   -1.1365    4.2556 C   0  0  0  0  0  0  0  0  0  0  0  0
   -0.0199   -1.8297    1.4259 C   0  0  0  0  0  0  0  0  0  0  0  0
   -1.6468   -1.5387    1.6977 S   0  0  0  0  0  0  0  0  0  0  0  0
    3.0761   -0.6306   -0.0607 C   0  0  0  0  0  0  0  0  0  0  0  0
    2.9328   -0.5801   -1.4637 C   0  0  0  0  0  0  0  0  0  0  0  0
    3.3632   -1.6691   -2.2957 N   0  0  0  0  0  0  0  0  0  0  0  0
    4.7112   -2.1539   -2.0937 C   0  0  0  0  0  0  0  0  0  0  0  0
    4.9507   -3.5247   -1.9431 C   0  0  0  0  0  0  0  0  0  0  0  0
    6.2362   -3.9888   -1.6218 C   0  0  0  0  0  0  0  0  0  0  0  0
    7.2839   -3.0804   -1.4289 C   0  0  0  0  0  0  0  0  0  0  0  0
    8.9203   -3.6541   -0.9675 S   0  0  0  0  0  0  0  0  0  0  0  0
    8.5481   -3.6700    0.8124 C   0  0  0  0  0  0  0  0  0  0  0  0
    7.0585   -1.7114   -1.5958 C   0  0  0  0  0  0  0  0  0  0  0  0
    5.7827   -1.2511   -1.9351 C   0  0  0  0  0  0  0  0  0  0  0  0
    2.5537   -2.1186   -3.4050 C   0  0  0  0  0  0  0  0  0  0  0  0
    3.1507   -2.6659   -4.5572 C   0  0  0  0  0  0  0  0  0  0  0  0
    2.3661   -3.0830   -5.6364 C   0  0  0  0  0  0  0  0  0  0  0  0
    0.9713   -2.9680   -5.5747 C   0  0  0  0  0  0  0  0  0  0  0  0
   -0.0405   -3.5190   -6.9530 S   0  0  0  0  0  0  0  0  0  0  0  0
   -0.1677   -5.2392   -6.3532 C   0  0  0  0  0  0  0  0  0  0  0  0
    0.3677   -2.4103   -4.4400 C   0  0  0  0  0  0  0  0  0  0  0  0
    1.1517   -1.9864   -3.3648 C   0  0  0  0  0  0  0  0  0  0  0  0
    3.0573    0.7188   -1.9281 C   0  0  0  0  0  0  0  0  0  0  0  0
    2.7974    1.4516   -3.4092 S   0  0  0  0  0  0  0  0  0  0  0  0
    3.2798    2.9947   -2.8618 C   0  0  0  0  0  0  0  0  0  0  0  0
    3.6933    2.9096   -1.5186 C   0  0  0  0  0  0  0  0  0  0  0  0
    4.7125    3.7685   -0.9805 N   0  0  0  0  0  0  0  0  0  0  0  0
    4.4082    5.1006   -0.5134 C   0  0  0  0  0  0  0  0  0  0  0  0
    5.3659    6.1312   -0.6091 C   0  0  0  0  0  0  0  0  0  0  0  0
    5.0836    7.4155   -0.1384 C   0  0  0  0  0  0  0  0  0  0  0  0
    3.8410    7.6905    0.4383 C   0  0  0  0  0  0  0  0  0  0  0  0
    3.5058    9.3248    1.0967 S   0  0  0  0  0  0  0  0  0  0  0  0
    2.8307    9.9442   -0.4706 C   0  0  0  0  0  0  0  0  0  0  0  0
    2.8706    6.6841    0.5166 C   0  0  0  0  0  0  0  0  0  0  0  0
    3.1494    5.3977    0.0379 C   0  0  0  0  0  0  0  0  0  0  0  0
    6.0753    3.3030   -1.0679 C   0  0  0  0  0  0  0  0  0  0  0  0
    6.5983    2.8553   -2.2935 C   0  0  0  0  0  0  0  0  0  0  0  0
    7.9085    2.3806   -2.3757 C   0  0  0  0  0  0  0  0  0  0  0  0
    8.7132    2.3416   -1.2309 C   0  0  0  0  0  0  0  0  0  0  0  0
   10.3844    1.6952   -1.3372 S   0  0  0  0  0  0  0  0  0  0  0  0
   11.1369    3.3156   -1.7099 C   0  0  0  0  0  0  0  0  0  0  0  0
    8.1996    2.7712   -0.0040 C   0  0  0  0  0  0  0  0  0  0  0  0
    6.8848    3.2528    0.0775 C   0  0  0  0  0  0  0  0  0  0  0  0
    3.4947    1.6242   -1.0267 C   0  0  0  0  0  0  0  0  0  0  0  0
    3.6068    0.9059    0.4850 S   0  0  0  0  0  0  0  0  0  0  0  0
    2.8019    4.2458   -3.4688 C   0  0  0  0  0  0  0  0  0  0  0  0
    1.4114    4.4672   -3.6146 C   0  0  0  0  0  0  0  0  0  0  0  0
    0.5245    3.4864   -3.3036 F   0  0  0  0  0  0  0  0  0  0  0  0
    0.9226    5.7314   -4.0057 C   0  0  0  0  0  0  0  0  0  0  0  0
   -0.4181    5.9127   -4.1238 F   0  0  0  0  0  0  0  0  0  0  0  0
    1.8147    6.8040   -4.2374 C   0  0  0  0  0  0  0  0  0  0  0  0
    3.1800    6.5246   -4.1562 C   0  0  0  0  0  0  0  0  0  0  0  0
    3.6499    5.3060   -3.7853 C   0  0  0  0  0  0  0  0  0  0  0  0
    4.9892    5.3663   -3.7510 N   0  0  0  0  0  0  0  0  0  0  0  0
    5.2725    6.6005   -4.0941 O   0  0  0  0  0  0  0  0  0  0  0  0
    4.2234    7.3459   -4.3434 N   0  0  0  0  0  0  0  0  0  0  0  0
    1.3351    8.1639   -4.5339 C   0  0  0  0  0  0  0  0  0  0  0  0
    0.5388    8.8557   -3.7005 C   0  0  0  0  0  0  0  0  0  0  0  0
    0.0411    8.4750   -2.3634 C   0  0  0  0  0  0  0  0  0  0  0  0
    0.2409    7.3893   -1.7647 O   0  0  0  0  0  0  0  0  0  0  0  0
   -0.6405    9.6299   -1.7898 C   0  0  0  0  0  0  0  0  0  0  0  0
   -1.1863    9.7835   -0.5152 C   0  0  0  0  0  0  0  0  0  0  0  0
   -1.7124   11.0407   -0.1691 C   0  0  0  0  0  0  0  0  0  0  0  0
   -1.6769   12.1101   -1.0873 C   0  0  0  0  0  0  0  0  0  0  0  0
   -1.1136   11.9348   -2.3646 C   0  0  0  0  0  0  0  0  0  0  0  0
   -0.5983   10.6786   -2.6909 C   0  0  0  0  0  0  0  0  0  0  0  0
    0.1195   10.2495   -3.8877 C   0  0  0  0  0  0  0  0  0  0  0  0
    0.3550   10.9640   -4.9004 O   0  0  0  0  0  0  0  0  0  0  0  0
   -3.5113   -3.7204   -0.4691 H   0  0  0  0  0  0  0  0  0  0  0  0
   -6.2105   -0.5164    4.2826 H   0  0  0  0  0  0  0  0  0  0  0  0
   -8.7828   -1.7258    0.0422 H   0  0  0  0  0  0  0  0  0  0  0  0
  -10.8545   -0.5258    2.5902 H   0  0  0  0  0  0  0  0  0  0  0  0
  -11.0230    1.4244    0.9225 H   0  0  0  0  0  0  0  0  0  0  0  0
   -8.5969    2.2054    0.1478 H   0  0  0  0  0  0  0  0  0  0  0  0
   -7.2421    2.8590    2.2673 H   0  0  0  0  0  0  0  0  0  0  0  0
   -8.8066    2.5484    4.3910 H   0  0  0  0  0  0  0  0  0  0  0  0
  -11.2806    2.0082    3.5131 H   0  0  0  0  0  0  0  0  0  0  0  0
  -10.5511    3.4108    2.6062 H   0  0  0  0  0  0  0  0  0  0  0  0
   -9.6704    0.1172    4.5353 H   0  0  0  0  0  0  0  0  0  0  0  0
   -0.3290   -4.0841   -2.1870 H   0  0  0  0  0  0  0  0  0  0  0  0
    1.3280   -5.0534   -3.7568 H   0  0  0  0  0  0  0  0  0  0  0  0
    4.4720   -8.2249   -2.1766 H   0  0  0  0  0  0  0  0  0  0  0  0
    4.2305   -6.4458   -2.1449 H   0  0  0  0  0  0  0  0  0  0  0  0
    5.1506   -7.1975   -3.4987 H   0  0  0  0  0  0  0  0  0  0  0  0
    1.8143   -8.4405   -1.1648 H   0  0  0  0  0  0  0  0  0  0  0  0
    0.2472   -7.4403    0.4450 H   0  0  0  0  0  0  0  0  0  0  0  0
   -2.6976   -6.9258   -1.0801 H   0  0  0  0  0  0  0  0  0  0  0  0
   -4.4181   -8.3506   -0.0306 H   0  0  0  0  0  0  0  0  0  0  0  0
   -3.8723  -10.5343    2.2074 H   0  0  0  0  0  0  0  0  0  0  0  0
   -3.2591   -9.6099    3.6535 H   0  0  0  0  0  0  0  0  0  0  0  0
   -4.6785  -10.7170    3.8164 H   0  0  0  0  0  0  0  0  0  0  0  0
   -3.4422   -6.7179    3.8252 H   0  0  0  0  0  0  0  0  0  0  0  0
   -1.7154   -5.2990    2.7997 H   0  0  0  0  0  0  0  0  0  0  0  0
    1.7787    2.4593    3.5783 H   0  0  0  0  0  0  0  0  0  0  0  0
    0.9739    4.7003    2.9778 H   0  0  0  0  0  0  0  0  0  0  0  0
   -1.8503    5.3867    3.0294 H   0  0  0  0  0  0  0  0  0  0  0  0
   -2.8427    6.3854    1.9044 H   0  0  0  0  0  0  0  0  0  0  0  0
   -2.8037    4.5879    1.7051 H   0  0  0  0  0  0  0  0  0  0  0  0
   -1.0462    3.0774   -0.4581 H   0  0  0  0  0  0  0  0  0  0  0  0
   -0.2668    0.8284    0.1358 H   0  0  0  0  0  0  0  0  0  0  0  0
   -0.6002    0.9160    4.2762 H   0  0  0  0  0  0  0  0  0  0  0  0
   -0.7108    0.1066    6.5949 H   0  0  0  0  0  0  0  0  0  0  0  0
   -1.1197   -2.8041    7.0783 H   0  0  0  0  0  0  0  0  0  0  0  0
   -0.5297   -3.7552    8.4908 H   0  0  0  0  0  0  0  0  0  0  0  0
    0.3254   -3.8874    6.9075 H   0  0  0  0  0  0  0  0  0  0  0  0
    2.7637   -2.3357    5.9243 H   0  0  0  0  0  0  0  0  0  0  0  0
    2.9034   -1.5132    3.6084 H   0  0  0  0  0  0  0  0  0  0  0  0
    4.1347   -4.2213   -2.0481 H   0  0  0  0  0  0  0  0  0  0  0  0
    6.4114   -5.0469   -1.4997 H   0  0  0  0  0  0  0  0  0  0  0  0
    9.4886   -3.8367    1.3828 H   0  0  0  0  0  0  0  0  0  0  0  0
    8.1070   -2.6971    1.1339 H   0  0  0  0  0  0  0  0  0  0  0  0
    7.8433   -4.4976    1.0377 H   0  0  0  0  0  0  0  0  0  0  0  0
    7.8639   -0.9984   -1.4547 H   0  0  0  0  0  0  0  0  0  0  0  0
    5.6343   -0.1859   -2.0683 H   0  0  0  0  0  0  0  0  0  0  0  0
    4.2269   -2.7536   -4.6379 H   0  0  0  0  0  0  0  0  0  0  0  0
    2.8418   -3.5045   -6.5153 H   0  0  0  0  0  0  0  0  0  0  0  0
   -0.9099   -5.7800   -6.9736 H   0  0  0  0  0  0  0  0  0  0  0  0
   -0.5258   -5.2504   -5.3018 H   0  0  0  0  0  0  0  0  0  0  0  0
    0.8064   -5.7588   -6.4393 H   0  0  0  0  0  0  0  0  0  0  0  0
   -0.7085   -2.3179   -4.3930 H   0  0  0  0  0  0  0  0  0  0  0  0
    0.6667   -1.5645   -2.4986 H   0  0  0  0  0  0  0  0  0  0  0  0
    6.3334    5.9449   -1.0565 H   0  0  0  0  0  0  0  0  0  0  0  0
    5.8345    8.1908   -0.2159 H   0  0  0  0  0  0  0  0  0  0  0  0
    1.9699    9.3138   -0.7557 H   0  0  0  0  0  0  0  0  0  0  0  0
    2.4751   10.9909   -0.3368 H   0  0  0  0  0  0  0  0  0  0  0  0
    3.5997    9.9181   -1.2696 H   0  0  0  0  0  0  0  0  0  0  0  0
    1.9079    6.8980    0.9620 H   0  0  0  0  0  0  0  0  0  0  0  0
    2.3964    4.6285    0.1233 H   0  0  0  0  0  0  0  0  0  0  0  0
    5.9979    2.8836   -3.1920 H   0  0  0  0  0  0  0  0  0  0  0  0
    8.2941    2.0408   -3.3307 H   0  0  0  0  0  0  0  0  0  0  0  0
   10.5680    3.8524   -2.5011 H   0  0  0  0  0  0  0  0  0  0  0  0
   11.1769    3.9296   -0.7858 H   0  0  0  0  0  0  0  0  0  0  0  0
   12.1726    3.1547   -2.0761 H   0  0  0  0  0  0  0  0  0  0  0  0
    8.8155    2.7279    0.8876 H   0  0  0  0  0  0  0  0  0  0  0  0
    6.4965    3.5773    1.0325 H   0  0  0  0  0  0  0  0  0  0  0  0
    1.7212    8.6610   -5.4145 H   0  0  0  0  0  0  0  0  0  0  0  0
   -1.1873    8.9632    0.1938 H   0  0  0  0  0  0  0  0  0  0  0  0
   -2.1303   11.1887    0.8194 H   0  0  0  0  0  0  0  0  0  0  0  0
   -2.0758   13.0759   -0.7981 H   0  0  0  0  0  0  0  0  0  0  0  0
   -1.0616   12.7603   -3.0623 H   0  0  0  0  0  0  0  0  0  0  0  0
  1  2  2  3
  2  3  1  0
  3  4  2  0
  3  5  1  0
  5  6  2  0
  6  7  1  0
  7  8  2  0
  8  9  1  0
  9 10  2  0
 10 11  1  0
 11 12  2  3
 12 13  1  0
 13 14  3  0
 12 15  1  0
 15 16  3  0
  8 17  1  0
 17 18  1  0
 18 19  1  0
 19 20  2  0
 20 21  1  0
 21 22  1  0
 21 23  1  0
  1 24  1  0
 24 25  2  0
 25 26  1  0
 26 27  1  0
 27 28  2  0
 28 29  1  0
 29 30  2  0
 30 31  1  0
 31 32  1  0
 30 33  1  0
 33 34  2  0
 26 35  1  0
 35 36  2  0
 36 37  1  0
 37 38  2  0
 38 39  1  0
 39 40  1  0
 38 41  1  0
 41 42  2  0
 25 43  1  0
 43 44  1  0
 44 45  1  0
 45 46  2  0
 46 47  1  0
 47 48  1  0
 48 49  2  0
 49 50  1  0
 50 51  2  0
 51 52  1  0
 52 53  1  0
 51 54  1  0
 54 55  2  0
 47 56  1  0
 56 57  2  0
 57 58  1  0
 58 59  2  0
 59 60  1  0
 60 61  1  0
 59 62  1  0
 62 63  2  0
 46 64  1  0
 64 65  1  0
 45 66  1  0
 66 67  2  0
 67 68  1  0
 68 69  1  0
 69 70  2  0
 70 71  1  0
 71 72  2  0
 72 73  1  0
 73 74  1  0
 72 75  1  0
 75 76  2  0
 68 77  1  0
 77 78  2  0
 78 79  1  0
 79 80  2  0
 80 81  1  0
 81 82  1  0
 80 83  1  0
 83 84  2  0
 67 85  1  0
 85 86  1  0
 86 87  1  0
 87 88  2  0
 88 89  1  0
 89 90  1  0
 90 91  2  0
 91 92  1  0
 92 93  2  0
 93 94  1  0
 94 95  1  0
 93 96  1  0
 96 97  2  0
 89 98  1  0
 98 99  2  0
 99100  1  0
100101  2  0
101102  1  0
102103  1  0
101104  1  0
104105  2  0
 88106  1  0
106107  1  0
 87108  1  0
108109  2  0
109110  1  0
109111  1  0
111112  1  0
111113  2  0
113114  1  0
114115  1  0
115116  2  0
116117  1  0
117118  1  0
113119  1  0
119120  2  3
120121  1  0
121122  2  0
121123  1  0
123124  2  0
124125  1  0
125126  2  0
126127  1  0
127128  2  0
128129  1  0
129130  2  0
 11  2  1  0
 23 17  1  0
 65 24  1  0
107 66  1  0
115108  1  0
129120  1  0
 10  5  1  0
 22 18  1  0
 34 27  1  0
 42 35  1  0
 64 43  2  0
 76 69  1  0
 84 77  1  0
106 85  2  0
118114  2  0
128123  1  0
 23  7  1  0
 55 48  1  0
 63 56  1  0
 97 90  1  0
105 98  1  0
  1131  1  0
  6132  1  0
  9133  1  0
 17134  1  0
 18135  1  0
 19136  1  0
 20137  1  0
 21138  1  0
 22139  1  0
 22140  1  0
 23141  1  0
 28142  1  0
 29143  1  0
 32144  1  0
 32145  1  0
 32146  1  0
 33147  1  0
 34148  1  0
 36149  1  0
 37150  1  0
 40151  1  0
 40152  1  0
 40153  1  0
 41154  1  0
 42155  1  0
 49156  1  0
 50157  1  0
 53158  1  0
 53159  1  0
 53160  1  0
 54161  1  0
 55162  1  0
 57163  1  0
 58164  1  0
 61165  1  0
 61166  1  0
 61167  1  0
 62168  1  0
 63169  1  0
 70170  1  0
 71171  1  0
 74172  1  0
 74173  1  0
 74174  1  0
 75175  1  0
 76176  1  0
 78177  1  0
 79178  1  0
 82179  1  0
 82180  1  0
 82181  1  0
 83182  1  0
 84183  1  0
 91184  1  0
 92185  1  0
 95186  1  0
 95187  1  0
 95188  1  0
 96189  1  0
 97190  1  0
 99191  1  0
100192  1  0
103193  1  0
103194  1  0
103195  1  0
104196  1  0
105197  1  0
119198  1  0
124199  1  0
125200  1  0
126201  1  0
127202  1  0
M  END

