
     RDKit          3D

152172  0  0  0  0  0  0  0  0999 V2000
   -0.0211    6.8560   -3.5632 C   0  0  0  0  0  0  0  0  0  0  0  0
   -0.5197    5.7242   -3.0136 C   0  0  0  0  0  0  0  0  0  0  0  0
    0.3654    4.7189   -2.4531 C   0  0  0  0  0  0  0  0  0  0  0  0
    1.5992    4.6618   -2.3439 O   0  0  0  0  0  0  0  0  0  0  0  0
   -0.4646    3.5960   -1.9478 C   0  0  0  0  0  0  0  0  0  0  0  0
   -0.1059    2.4641   -1.3281 C   0  0  0  0  0  0  0  0  0  0  0  0
   -0.9582    1.4915   -0.8944 C   0  0  0  0  0  0  0  0  0  0  0  0
   -2.3232    1.7396   -1.1342 C   0  0  0  0  0  0  0  0  0  0  0  0
   -2.6821    2.8951   -1.7524 C   0  0  0  0  0  0  0  0  0  0  0  0
   -1.8010    3.8500   -2.1697 C   0  0  0  0  0  0  0  0  0  0  0  0
   -1.8489    5.2041   -2.8418 C   0  0  0  0  0  0  0  0  0  0  0  0
   -2.9894    5.7370   -3.1055 C   0  0  0  0  0  0  0  0  0  0  0  0
   -3.0099    7.0866   -3.6836 C   0  0  0  0  0  0  0  0  0  0  0  0
   -3.0431    8.2370   -4.1721 N   0  0  0  0  0  0  0  0  0  0  0  0
   -4.2370    5.1906   -2.9461 C   0  0  0  0  0  0  0  0  0  0  0  0
   -5.3714    4.7085   -2.7846 N   0  0  0  0  0  0  0  0  0  0  0  0
   -2.6077    0.4006   -0.5367 C   0  0  0  0  0  0  0  0  0  0  0  0
   -2.8177   -0.7354   -1.4898 C   0  0  0  0  0  0  0  0  0  0  0  0
   -1.9918   -0.4950   -2.6945 C   0  0  0  0  0  0  0  0  0  0  0  0
   -0.6973   -0.7365   -2.3807 C   0  0  0  0  0  0  0  0  0  0  0  0
   -0.6751   -1.0007   -0.9366 C   0  0  0  0  0  0  0  0  0  0  0  0
   -1.9722   -1.8244   -0.7838 C   0  0  0  0  0  0  0  0  0  0  0  0
   -1.1433    0.2314   -0.2125 C   0  0  0  0  0  0  0  0  0  0  0  0
    1.4914    6.9445   -3.5226 C   0  0  0  0  0  0  0  0  0  0  0  0
    2.0642    7.3978   -2.3496 C   0  0  0  0  0  0  0  0  0  0  0  0
    3.3858    7.0817   -2.0303 C   0  0  0  0  0  0  0  0  0  0  0  0
    3.8214    7.6181   -0.8140 N   0  0  0  0  0  0  0  0  0  0  0  0
    2.5750    8.4208   -0.2176 S   0  0  0  0  0  4  0  0  0  0  0  0
    1.4493    8.1919   -1.3475 N   0  0  0  0  0  0  0  0  0  0  0  0
    4.0636    6.3039   -2.9652 C   0  0  0  0  0  0  0  0  0  0  0  0
    3.5125    5.8770   -4.1496 C   0  0  0  0  0  0  0  0  0  0  0  0
    4.1503    5.1617   -5.0964 N   0  0  0  0  0  0  0  0  0  0  0  0
    3.0190    4.9267   -6.3152 S   0  0  0  0  0  0  0  0  0  0  0  0
    1.7413    5.7442   -5.6065 N   0  0  0  0  0  0  0  0  0  0  0  0
    2.2000    6.1791   -4.4583 C   0  0  0  0  0  0  0  0  0  0  0  0
    5.1080    5.3707   -2.3277 C   0  0  0  0  0  0  0  0  0  0  0  0
    5.3403    3.7468   -2.8894 S   0  0  0  0  0  0  0  0  0  0  0  0
    6.0707    3.1167   -1.5045 C   0  0  0  0  0  0  0  0  0  0  0  0
    6.3024    1.7058   -1.1378 C   0  0  0  0  0  0  0  0  0  0  0  0
    6.6821    1.3551    0.1560 C   0  0  0  0  0  0  0  0  0  0  0  0
    6.8613    2.4653    0.9322 O   0  0  0  0  0  0  0  0  0  0  0  0
    6.5201    3.7777    0.7882 C   0  0  0  0  0  0  0  0  0  0  0  0
    7.5475    4.7181    1.3107 C   0  0  0  0  0  0  0  0  0  0  0  0
    7.7919    4.5347    2.7949 C   0  0  0  0  0  0  0  0  0  0  0  0
    5.2414    4.0641    1.6375 C   0  0  0  0  0  0  0  0  0  0  0  0
    4.1056    3.1868    1.1519 C   0  0  0  0  0  0  0  0  0  0  0  0
    6.1565    4.1702   -0.6330 C   0  0  0  0  0  0  0  0  0  0  0  0
    5.6356    5.3464   -1.1146 C   0  0  0  0  0  0  0  0  0  0  0  0
    6.7241   -0.0039    0.3854 C   0  0  0  0  0  0  0  0  0  0  0  0
    6.3919   -0.8174   -0.6030 C   0  0  0  0  0  0  0  0  0  0  0  0
    6.0398    0.2314   -1.9184 S   0  0  0  0  0  0  0  0  0  0  0  0
    5.7324   -2.1960   -0.5666 C   0  0  0  0  0  0  0  0  0  0  0  0
    4.9936   -2.6089    0.5433 C   0  0  0  0  0  0  0  0  0  0  0  0
    4.0140   -3.5135    0.2902 C   0  0  0  0  0  0  0  0  0  0  0  0
    2.9570   -3.7927    1.1845 C   0  0  0  0  0  0  0  0  0  0  0  0
    2.9902   -3.5094    2.6013 C   0  0  0  0  0  0  0  0  0  0  0  0
    4.0740   -3.1740    3.4584 C   0  0  0  0  0  0  0  0  0  0  0  0
    3.5641   -2.8512    4.7158 C   0  0  0  0  0  0  0  0  0  0  0  0
    2.6113   -2.7634    5.3061 C   0  0  0  0  0  0  0  0  0  0  0  0
    1.7185   -2.3930    6.8232 S   0  0  0  0  0  0  0  0  0  0  0  0
    1.3232   -0.6039    6.6920 C   0  0  0  0  0  0  0  0  0  0  0  0
    2.6121    0.1674    6.7128 C   0  0  0  0  0  0  0  0  0  0  0  0
    1.4396   -3.3421    3.6683 Se  0  0  0  0  0  2  0  0  0  0  0  0
    1.8302   -4.4545    0.6799 C   0  0  0  0  0  0  0  0  0  0  0  0
    1.6579   -4.8703   -0.5858 C   0  0  0  0  0  0  0  0  0  0  0  0
    2.7231   -4.6122   -1.4833 C   0  0  0  0  0  0  0  0  0  0  0  0
    2.6572   -4.9495   -2.8779 C   0  0  0  0  0  0  0  0  0  0  0  0
    3.7233   -4.9342   -3.8528 C   0  0  0  0  0  0  0  0  0  0  0  0
    3.1097   -5.2763   -5.0550 C   0  0  0  0  0  0  0  0  0  0  0  0
    2.2142   -5.5537   -5.6209 C   0  0  0  0  0  0  0  0  0  0  0  0
    1.1954   -6.0081   -7.0296 S   0  0  0  0  0  0  0  0  0  0  0  0
    0.5322   -4.4944   -7.7166 C   0  0  0  0  0  0  0  0  0  0  0  0
   -0.4429   -3.7686   -6.8194 C   0  0  0  0  0  0  0  0  0  0  0  0
    1.1047   -5.4230   -3.8304 Se  0  0  0  0  0  2  0  0  0  0  0  0
    3.8418   -3.9372   -0.9768 C   0  0  0  0  0  0  0  0  0  0  0  0
    5.0865   -3.0709   -1.8399 S   0  0  0  0  0  0  0  0  0  0  0  0
    0.4379   -5.3285   -0.9409 C   0  0  0  0  0  0  0  0  0  0  0  0
   -0.5660   -5.3266    0.0769 C   0  0  0  0  0  0  0  0  0  0  0  0
    0.3075   -4.7147    1.3767 S   0  0  0  0  0  0  0  0  0  0  0  0
   -1.9506   -5.5559   -0.2359 C   0  0  0  0  0  0  0  0  0  0  0  0
   -2.9525   -4.9936    0.6525 C   0  0  0  0  0  0  0  0  0  0  0  0
   -2.5987   -4.3003    1.7952 C   0  0  0  0  0  0  0  0  0  0  0  0
   -1.5537   -4.1619    2.4829 O   0  0  0  0  0  0  0  0  0  0  0  0
   -3.7983   -3.6427    2.1730 C   0  0  0  0  0  0  0  0  0  0  0  0
   -4.2619   -2.7976    3.1473 C   0  0  0  0  0  0  0  0  0  0  0  0
   -5.4024   -2.2545    3.3652 C   0  0  0  0  0  0  0  0  0  0  0  0
   -6.6526   -2.5444    2.3481 C   0  0  0  0  0  0  0  0  0  0  0  0
   -5.8835   -3.4088    1.5147 C   0  0  0  0  0  0  0  0  0  0  0  0
   -4.8274   -3.9469    1.2712 C   0  0  0  0  0  0  0  0  0  0  0  0
   -4.1613   -5.0276    0.0375 C   0  0  0  0  0  0  0  0  0  0  0  0
   -5.3246   -5.0480   -0.5463 C   0  0  0  0  0  0  0  0  0  0  0  0
   -5.0293   -6.4550   -1.2761 C   0  0  0  0  0  0  0  0  0  0  0  0
   -4.8013   -7.6535   -1.8880 N   0  0  0  0  0  0  0  0  0  0  0  0
   -6.4200   -4.6396   -0.9381 C   0  0  0  0  0  0  0  0  0  0  0  0
   -7.6084   -4.2090   -1.3810 N   0  0  0  0  0  0  0  0  0  0  0  0
   -7.2196   -1.6641    3.3257 C   0  0  0  0  0  0  0  0  0  0  0  0
   -7.4464   -0.2335    2.7203 C   0  0  0  0  0  0  0  0  0  0  0  0
   -6.1662    0.1108    2.0393 C   0  0  0  0  0  0  0  0  0  0  0  0
   -5.2107    0.3223    2.9755 C   0  0  0  0  0  0  0  0  0  0  0  0
   -5.8466    0.0254    4.2684 C   0  0  0  0  0  0  0  0  0  0  0  0
   -7.2607    0.5766    3.9888 C   0  0  0  0  0  0  0  0  0  0  0  0
   -6.2205   -1.4503    4.2522 C   0  0  0  0  0  0  0  0  0  0  0  0
   -0.5355    7.6397   -3.9851 H   0  0  0  0  0  0  0  0  0  0  0  0
    0.9918    2.2917   -1.1765 H   0  0  0  0  0  0  0  0  0  0  0  0
   -3.7453    3.0785   -1.9343 H   0  0  0  0  0  0  0  0  0  0  0  0
   -3.2811    0.4381    0.3259 H   0  0  0  0  0  0  0  0  0  0  0  0
   -3.8367   -1.0481   -1.6570 H   0  0  0  0  0  0  0  0  0  0  0  0
   -2.2397   -0.1869   -3.6908 H   0  0  0  0  0  0  0  0  0  0  0  0
    0.1740   -0.7673   -3.0088 H   0  0  0  0  0  0  0  0  0  0  0  0
    0.2053   -1.4757   -0.5490 H   0  0  0  0  0  0  0  0  0  0  0  0
   -2.2252   -1.8522    0.2944 H   0  0  0  0  0  0  0  0  0  0  0  0
   -1.9584   -2.7548   -1.3036 H   0  0  0  0  0  0  0  0  0  0  0  0
   -0.9004    0.2304    0.8797 H   0  0  0  0  0  0  0  0  0  0  0  0
    7.3422    5.7826    1.0742 H   0  0  0  0  0  0  0  0  0  0  0  0
    8.5139    4.4922    0.8144 H   0  0  0  0  0  0  0  0  0  0  0  0
    8.7429    4.9814    3.1226 H   0  0  0  0  0  0  0  0  0  0  0  0
    7.7544    3.4763    3.0993 H   0  0  0  0  0  0  0  0  0  0  0  0
    6.9965    5.1333    3.3383 H   0  0  0  0  0  0  0  0  0  0  0  0
    5.0331    5.1195    1.6120 H   0  0  0  0  0  0  0  0  0  0  0  0
    5.4478    3.7400    2.6668 H   0  0  0  0  0  0  0  0  0  0  0  0
    4.4576    2.1509    1.0383 H   0  0  0  0  0  0  0  0  0  0  0  0
    3.7531    3.5745    0.1642 H   0  0  0  0  0  0  0  0  0  0  0  0
    3.3011    3.2244    1.9051 H   0  0  0  0  0  0  0  0  0  0  0  0
    5.6848    6.2703   -0.4770 H   0  0  0  0  0  0  0  0  0  0  0  0
    7.0531   -0.3709    1.3819 H   0  0  0  0  0  0  0  0  0  0  0  0
    5.2712   -2.1583    1.4880 H   0  0  0  0  0  0  0  0  0  0  0  0
    5.0925   -3.2320    3.1528 H   0  0  0  0  0  0  0  0  0  0  0  0
    4.6118   -2.5434    5.3815 H   0  0  0  0  0  0  0  0  0  0  0  0
    0.9007   -0.5083    5.6445 H   0  0  0  0  0  0  0  0  0  0  0  0
    0.5984   -0.3000    7.4585 H   0  0  0  0  0  0  0  0  0  0  0  0
    3.5001   -0.4906    6.7866 H   0  0  0  0  0  0  0  0  0  0  0  0
    2.6087    0.9719    7.5045 H   0  0  0  0  0  0  0  0  0  0  0  0
    2.7592    0.7501    5.7616 H   0  0  0  0  0  0  0  0  0  0  0  0
    4.7102   -4.7047   -3.5986 H   0  0  0  0  0  0  0  0  0  0  0  0
    4.1599   -5.2532   -5.8584 H   0  0  0  0  0  0  0  0  0  0  0  0
    1.3843   -3.8154   -7.9457 H   0  0  0  0  0  0  0  0  0  0  0  0
    0.0261   -4.6731   -8.7199 H   0  0  0  0  0  0  0  0  0  0  0  0
   -0.4167   -2.6610   -7.0534 H   0  0  0  0  0  0  0  0  0  0  0  0
   -1.4615   -4.1609   -6.9889 H   0  0  0  0  0  0  0  0  0  0  0  0
   -0.2048   -3.8740   -5.7677 H   0  0  0  0  0  0  0  0  0  0  0  0
    0.1266   -5.7304   -1.8945 H   0  0  0  0  0  0  0  0  0  0  0  0
   -2.2544   -6.1117   -1.0613 H   0  0  0  0  0  0  0  0  0  0  0  0
   -3.3845   -2.5539    3.9067 H   0  0  0  0  0  0  0  0  0  0  0  0
   -6.8631   -3.8278    0.8486 H   0  0  0  0  0  0  0  0  0  0  0  0
   -8.2532   -2.0312    3.6619 H   0  0  0  0  0  0  0  0  0  0  0  0
   -8.3339   -0.1175    2.1785 H   0  0  0  0  0  0  0  0  0  0  0  0
   -5.9540    0.2106    0.9936 H   0  0  0  0  0  0  0  0  0  0  0  0
   -4.1902    0.6361    2.8820 H   0  0  0  0  0  0  0  0  0  0  0  0
   -5.3887    0.3967    5.1706 H   0  0  0  0  0  0  0  0  0  0  0  0
   -7.9665    0.3283    4.7758 H   0  0  0  0  0  0  0  0  0  0  0  0
   -7.1893    1.6639    3.7585 H   0  0  0  0  0  0  0  0  0  0  0  0
   -6.3126   -1.8708    5.3139 H   0  0  0  0  0  0  0  0  0  0  0  0
  1  2  2  3
  2  3  1  0
  3  4  2  0
  3  5  1  0
  5  6  2  0
  6  7  1  0
  7  8  2  0
  8  9  1  0
  9 10  2  0
 10 11  1  0
 11 12  2  3
 12 13  1  0
 13 14  3  0
 12 15  1  0
 15 16  3  0
  8 17  1  0
 17 18  1  0
 18 19  1  0
 19 20  2  0
 20 21  1  0
 21 22  1  0
 21 23  1  0
  1 24  1  0
 24 25  2  0
 25 26  1  0
 26 27  1  0
 27 28  2  0
 28 29  2  0
 26 30  2  0
 30 31  1  0
 31 32  2  0
 32 33  1  0
 33 34  1  0
 34 35  2  0
 30 36  1  0
 36 37  1  0
 37 38  1  0
 38 39  1  0
 39 40  2  0
 40 41  1  0
 41 42  1  0
 42 43  1  0
 43 44  1  0
 42 45  1  0
 45 46  1  0
 42 47  1  0
 47 48  1  0
 40 49  1  0
 49 50  2  0
 50 51  1  0
 50 52  1  0
 52 53  2  0
 53 54  1  0
 54 55  2  0
 55 56  1  0
 56 57  2  0
 57 58  1  0
 58 59  2  0
 59 60  1  0
 60 61  1  0
 61 62  1  0
 59 63  1  0
 55 64  1  0
 64 65  2  0
 65 66  1  0
 66 67  1  0
 67 68  2  0
 68 69  1  0
 69 70  2  0
 70 71  1  0
 71 72  1  0
 72 73  1  0
 70 74  1  0
 66 75  2  0
 75 76  1  0
 65 77  1  0
 77 78  2  0
 78 79  1  0
 78 80  1  0
 80 81  2  3
 81 82  1  0
 82 83  2  0
 82 84  1  0
 84 85  2  0
 85 86  1  0
 86 87  2  0
 87 88  1  0
 88 89  2  0
 89 90  1  0
 90 91  2  3
 91 92  1  0
 92 93  3  0
 91 94  1  0
 94 95  3  0
 87 96  1  0
 96 97  1  0
 97 98  1  0
 98 99  2  0
 99100  1  0
100101  1  0
100102  1  0
 11  2  1  0
 23 17  1  0
 35 24  1  0
 48 36  2  0
 76 52  1  0
 90 81  1  0
102 96  1  0
 10  5  1  0
 22 18  1  0
 29 25  1  0
 35 31  1  0
 47 38  2  0
 75 54  1  0
 89 84  1  0
101 97  1  0
 23  7  1  0
 51 39  1  0
 63 56  1  0
 79 64  1  0
102 86  1  0
 74 67  1  0
  1103  1  0
  6104  1  0
  9105  1  0
 17106  1  0
 18107  1  0
 19108  1  0
 20109  1  0
 21110  1  0
 22111  1  0
 22112  1  0
 23113  1  0
 43114  1  0
 43115  1  0
 44116  1  0
 44117  1  0
 44118  1  0
 45119  1  0
 45120  1  0
 46121  1  0
 46122  1  0
 46123  1  0
 48124  1  0
 49125  1  0
 53126  1  0
 57127  1  0
 58128  1  0
 61129  1  0
 61130  1  0
 62131  1  0
 62132  1  0
 62133  1  0
 68134  1  0
 69135  1  0
 72136  1  0
 72137  1  0
 73138  1  0
 73139  1  0
 73140  1  0
 77141  1  0
 80142  1  0
 85143  1  0
 88144  1  0
 96145  1  0
 97146  1  0
 98147  1  0
 99148  1  0
100149  1  0
101150  1  0
101151  1  0
102152  1  0
M  END

