
     RDKit          3D

243266  0  0  0  0  0  0  0  0999 V2000
   -7.7260    0.6466    1.4353 C   0  0  0  0  0  0  0  0  0  0  0  0
   -8.4392    1.2775    0.4914 C   0  0  0  0  0  0  0  0  0  0  0  0
   -9.2590    2.4532    0.7846 C   0  0  0  0  0  0  0  0  0  0  0  0
   -9.6509    2.8179    1.9241 O   0  0  0  0  0  0  0  0  0  0  0  0
   -9.4093    3.2180   -0.4400 C   0  0  0  0  0  0  0  0  0  0  0  0
   -9.9451    4.5220   -0.5769 C   0  0  0  0  0  0  0  0  0  0  0  0
   -9.7771    5.0607   -1.8424 C   0  0  0  0  0  0  0  0  0  0  0  0
   -9.0970    4.3741   -2.9010 C   0  0  0  0  0  0  0  0  0  0  0  0
   -8.5666    3.1024   -2.7686 C   0  0  0  0  0  0  0  0  0  0  0  0
   -8.7732    2.5107   -1.4957 C   0  0  0  0  0  0  0  0  0  0  0  0
   -8.2945    1.2019   -0.9898 C   0  0  0  0  0  0  0  0  0  0  0  0
   -8.1820    0.0723   -1.7304 C   0  0  0  0  0  0  0  0  0  0  0  0
   -8.0610   -1.2283   -1.1340 C   0  0  0  0  0  0  0  0  0  0  0  0
   -7.9490   -2.2806   -0.6620 N   0  0  0  0  0  0  0  0  0  0  0  0
   -8.3113    0.0765   -3.1615 C   0  0  0  0  0  0  0  0  0  0  0  0
   -8.4176    0.0716   -4.3144 N   0  0  0  0  0  0  0  0  0  0  0  0
   -9.2358    5.5714   -3.7883 C   0  0  0  0  0  0  0  0  0  0  0  0
   -7.9702    6.4522   -4.0219 C   0  0  0  0  0  0  0  0  0  0  0  0
   -7.0823    6.4206   -2.7962 C   0  0  0  0  0  0  0  0  0  0  0  0
   -7.7364    7.0710   -1.8351 C   0  0  0  0  0  0  0  0  0  0  0  0
   -9.0534    7.5144   -2.4321 C   0  0  0  0  0  0  0  0  0  0  0  0
   -8.5824    7.8287   -3.8389 C   0  0  0  0  0  0  0  0  0  0  0  0
   -9.9502    6.2696   -2.7157 C   0  0  0  0  0  0  0  0  0  0  0  0
   -6.5131   -0.1416    1.1678 C   0  0  0  0  0  0  0  0  0  0  0  0
   -5.4402    0.2252    0.3288 C   0  0  0  0  0  0  0  0  0  0  0  0
   -5.2402    1.5434   -0.2300 N   0  0  0  0  0  0  0  0  0  0  0  0
   -4.6268    1.6952   -1.5409 C   0  0  0  0  0  0  0  0  0  0  0  0
   -4.8375    0.7296   -2.5425 C   0  0  0  0  0  0  0  0  0  0  0  0
   -4.2241    0.8556   -3.7927 C   0  0  0  0  0  0  0  0  0  0  0  0
   -3.3903    1.9451   -4.0594 C   0  0  0  0  0  0  0  0  0  0  0  0
   -2.6167    2.1147   -5.6660 S   0  0  0  0  0  0  0  0  0  0  0  0
   -1.0890    1.2848   -5.1396 C   0  0  0  0  0  0  0  0  0  0  0  0
   -3.1647    2.9058   -3.0747 C   0  0  0  0  0  0  0  0  0  0  0  0
   -3.7552    2.7726   -1.8179 C   0  0  0  0  0  0  0  0  0  0  0  0
   -5.3090    2.6786    0.6633 C   0  0  0  0  0  0  0  0  0  0  0  0
   -5.8840    3.8900    0.2413 C   0  0  0  0  0  0  0  0  0  0  0  0
   -5.8101    5.0281    1.0510 C   0  0  0  0  0  0  0  0  0  0  0  0
   -5.1732    4.9650    2.2946 C   0  0  0  0  0  0  0  0  0  0  0  0
   -5.0040    6.4354    3.3087 S   0  0  0  0  0  0  0  0  0  0  0  0
   -6.5800    6.1780    4.1756 C   0  0  0  0  0  0  0  0  0  0  0  0
   -4.6231    3.7544    2.7311 C   0  0  0  0  0  0  0  0  0  0  0  0
   -4.6850    2.6221    1.9212 C   0  0  0  0  0  0  0  0  0  0  0  0
   -4.3964   -0.6806    0.4753 C   0  0  0  0  0  0  0  0  0  0  0  0
   -2.8142   -0.6584    0.0137 S   0  0  0  0  0  0  0  0  0  0  0  0
   -2.2396   -1.8022    1.1643 C   0  0  0  0  0  0  0  0  0  0  0  0
   -3.4000   -2.3443    1.7853 C   0  0  0  0  0  0  0  0  0  0  0  0
   -3.5479   -3.7440    2.0938 N   0  0  0  0  0  0  0  0  0  0  0  0
   -3.5405   -4.7354    1.0144 C   0  0  0  0  0  0  0  0  0  0  0  0
   -3.4991   -6.1180    1.2944 C   0  0  0  0  0  0  0  0  0  0  0  0
   -3.4946   -7.0641    0.2627 C   0  0  0  0  0  0  0  0  0  0  0  0
   -3.5293   -6.6517   -1.0684 C   0  0  0  0  0  0  0  0  0  0  0  0
   -3.5131   -7.8640   -2.3905 S   0  0  0  0  0  0  0  0  0  0  0  0
   -1.6966   -7.9196   -2.4747 C   0  0  0  0  0  0  0  0  0  0  0  0
   -3.5762   -5.2916   -1.3701 C   0  0  0  0  0  0  0  0  0  0  0  0
   -3.5942   -4.3454   -0.3439 C   0  0  0  0  0  0  0  0  0  0  0  0
   -4.0771   -4.0678    3.3986 C   0  0  0  0  0  0  0  0  0  0  0  0
   -3.5279   -3.4666    4.5389 C   0  0  0  0  0  0  0  0  0  0  0  0
   -3.9696   -3.8232    5.8144 C   0  0  0  0  0  0  0  0  0  0  0  0
   -5.0047   -4.7526    5.9635 C   0  0  0  0  0  0  0  0  0  0  0  0
   -5.5199   -5.2588    7.6055 S   0  0  0  0  0  0  0  0  0  0  0  0
   -6.7713   -3.9466    7.7607 C   0  0  0  0  0  0  0  0  0  0  0  0
   -5.6311   -5.2823    4.8274 C   0  0  0  0  0  0  0  0  0  0  0  0
   -5.1829   -4.9269    3.5523 C   0  0  0  0  0  0  0  0  0  0  0  0
   -4.5523   -1.6279    1.4213 C   0  0  0  0  0  0  0  0  0  0  0  0
   -6.0779   -1.5017    2.0973 S   0  0  0  0  0  0  0  0  0  0  0  0
   -1.0224   -1.3544    1.9140 C   0  0  0  0  0  0  0  0  0  0  0  0
   -0.0551   -2.0012    2.7439 C   0  0  0  0  0  0  0  0  0  0  0  0
   -0.0933   -3.3675    3.2016 N   0  0  0  0  0  0  0  0  0  0  0  0
    0.1519   -4.4194    2.2440 C   0  0  0  0  0  0  0  0  0  0  0  0
    1.1934   -4.3039    1.3031 C   0  0  0  0  0  0  0  0  0  0  0  0
    1.5251   -5.3841    0.4783 C   0  0  0  0  0  0  0  0  0  0  0  0
    0.8130   -6.5840    0.5719 C   0  0  0  0  0  0  0  0  0  0  0  0
    1.2844   -7.9903   -0.4412 S   0  0  0  0  0  0  0  0  0  0  0  0
    2.1629   -8.8459    0.9093 C   0  0  0  0  0  0  0  0  0  0  0  0
   -0.2561   -6.6911    1.4671 C   0  0  0  0  0  0  0  0  0  0  0  0
   -0.5731   -5.6183    2.3105 C   0  0  0  0  0  0  0  0  0  0  0  0
   -0.0554   -3.6274    4.6391 C   0  0  0  0  0  0  0  0  0  0  0  0
   -0.4721   -2.6384    5.5617 C   0  0  0  0  0  0  0  0  0  0  0  0
   -0.5727   -2.9295    6.9242 C   0  0  0  0  0  0  0  0  0  0  0  0
   -0.2540   -4.2005    7.3986 C   0  0  0  0  0  0  0  0  0  0  0  0
   -0.5457   -4.6184    9.1194 S   0  0  0  0  0  0  0  0  0  0  0  0
    1.1559   -4.2393    9.6447 C   0  0  0  0  0  0  0  0  0  0  0  0
    0.2483   -5.1615    6.5188 C   0  0  0  0  0  0  0  0  0  0  0  0
    0.3748   -4.8689    5.1566 C   0  0  0  0  0  0  0  0  0  0  0  0
    1.0388   -1.1545    3.0400 C   0  0  0  0  0  0  0  0  0  0  0  0
    2.6634   -1.5025    3.3226 S   0  0  0  0  0  0  0  0  0  0  0  0
    3.2455   -0.0174    2.6978 C   0  0  0  0  0  0  0  0  0  0  0  0
    2.1601    0.7277    2.2156 C   0  0  0  0  0  0  0  0  0  0  0  0
    2.2423    1.5583    1.0337 N   0  0  0  0  0  0  0  0  0  0  0  0
    2.5120    0.9438   -0.2644 C   0  0  0  0  0  0  0  0  0  0  0  0
    2.7069    1.7323   -1.4227 C   0  0  0  0  0  0  0  0  0  0  0  0
    2.8573    1.1344   -2.6806 C   0  0  0  0  0  0  0  0  0  0  0  0
    2.8670   -0.2587   -2.8016 C   0  0  0  0  0  0  0  0  0  0  0  0
    3.0035   -1.0230   -4.4164 S   0  0  0  0  0  0  0  0  0  0  0  0
    1.2477   -1.5098   -4.4814 C   0  0  0  0  0  0  0  0  0  0  0  0
    2.7267   -1.0530   -1.6669 C   0  0  0  0  0  0  0  0  0  0  0  0
    2.5281   -0.4647   -0.4190 C   0  0  0  0  0  0  0  0  0  0  0  0
    1.6399    2.8694    1.1151 C   0  0  0  0  0  0  0  0  0  0  0  0
    2.0904    3.8022    2.0643 C   0  0  0  0  0  0  0  0  0  0  0  0
    1.5148    5.0775    2.1296 C   0  0  0  0  0  0  0  0  0  0  0  0
    0.4689    5.4213    1.2691 C   0  0  0  0  0  0  0  0  0  0  0  0
   -0.2467    7.0634    1.3260 S   0  0  0  0  0  0  0  0  0  0  0  0
    0.8740    7.7253    0.0528 C   0  0  0  0  0  0  0  0  0  0  0  0
   -0.0248    4.4804    0.3618 C   0  0  0  0  0  0  0  0  0  0  0  0
    0.5520    3.2104    0.2873 C   0  0  0  0  0  0  0  0  0  0  0  0
    0.9656    0.0949    2.5063 C   0  0  0  0  0  0  0  0  0  0  0  0
   -0.4534    0.2308    1.6819 S   0  0  0  0  0  0  0  0  0  0  0  0
    4.5959    0.2064    2.1732 C   0  0  0  0  0  0  0  0  0  0  0  0
    5.4249   -0.7684    1.6277 C   0  0  0  0  0  0  0  0  0  0  0  0
    6.3948   -0.0535    0.9501 C   0  0  0  0  0  0  0  0  0  0  0  0
    7.3325   -0.4697   -0.0133 C   0  0  0  0  0  0  0  0  0  0  0  0
    7.5491   -1.8942   -0.3509 C   0  0  0  0  0  0  0  0  0  0  0  0
    7.5529   -2.3132   -1.6922 C   0  0  0  0  0  0  0  0  0  0  0  0
    7.8012   -3.6490   -2.0142 C   0  0  0  0  0  0  0  0  0  0  0  0
    8.0584   -4.5861   -1.0027 C   0  0  0  0  0  0  0  0  0  0  0  0
    8.3239   -6.0215   -1.3670 C   0  0  0  0  0  0  0  0  0  0  0  0
    7.0124   -6.7806   -1.5563 C   0  0  0  0  0  0  0  0  0  0  0  0
    8.0196   -4.1785    0.3388 C   0  0  0  0  0  0  0  0  0  0  0  0
    7.7760   -2.8406    0.6626 C   0  0  0  0  0  0  0  0  0  0  0  0
    7.9790    0.5691   -0.7092 C   0  0  0  0  0  0  0  0  0  0  0  0
    7.7754    1.9072   -0.4103 C   0  0  0  0  0  0  0  0  0  0  0  0
    6.8261    2.3267    0.5371 C   0  0  0  0  0  0  0  0  0  0  0  0
    6.4431    3.7480    0.6970 C   0  0  0  0  0  0  0  0  0  0  0  0
    7.4110    4.7198    1.0110 C   0  0  0  0  0  0  0  0  0  0  0  0
    7.0453    6.0669    1.1246 C   0  0  0  0  0  0  0  0  0  0  0  0
    5.7098    6.4576    0.9278 C   0  0  0  0  0  0  0  0  0  0  0  0
    5.3149    7.9053    1.0263 C   0  0  0  0  0  0  0  0  0  0  0  0
    5.3732    8.5794   -0.3423 C   0  0  0  0  0  0  0  0  0  0  0  0
    4.7532    5.4919    0.5826 C   0  0  0  0  0  0  0  0  0  0  0  0
    5.1149    4.1473    0.4808 C   0  0  0  0  0  0  0  0  0  0  0  0
    6.1205    1.2910    1.1729 C   0  0  0  0  0  0  0  0  0  0  0  0
    5.0573    1.4163    1.9230 O   0  0  0  0  0  0  0  0  0  0  0  0
    8.5193    2.6289   -1.3173 C   0  0  0  0  0  0  0  0  0  0  0  0
    9.0985    1.6685   -2.1359 C   0  0  0  0  0  0  0  0  0  0  0  0
    8.7825    0.4522   -1.7360 O   0  0  0  0  0  0  0  0  0  0  0  0
    9.9293    1.9526   -3.3094 C   0  0  0  0  0  0  0  0  0  0  0  0
    9.8921    1.2277   -4.4444 C   0  0  0  0  0  0  0  0  0  0  0  0
   11.0075    1.1781   -5.3864 C   0  0  0  0  0  0  0  0  0  0  0  0
   12.0005    1.9540   -5.3975 O   0  0  0  0  0  0  0  0  0  0  0  0
   10.8399    0.0115   -6.2244 C   0  0  0  0  0  0  0  0  0  0  0  0
   11.7103   -0.4975   -7.1865 C   0  0  0  0  0  0  0  0  0  0  0  0
   11.3680   -1.6950   -7.8340 C   0  0  0  0  0  0  0  0  0  0  0  0
   12.1921   -2.2074   -8.7791 F   0  0  0  0  0  0  0  0  0  0  0  0
   10.1863   -2.3705   -7.4846 C   0  0  0  0  0  0  0  0  0  0  0  0
    9.8609   -3.5376   -8.1054 F   0  0  0  0  0  0  0  0  0  0  0  0
    9.3247   -1.8472   -6.5062 C   0  0  0  0  0  0  0  0  0  0  0  0
    9.6538   -0.6264   -5.8957 C   0  0  0  0  0  0  0  0  0  0  0  0
    8.9245    0.1658   -4.8694 C   0  0  0  0  0  0  0  0  0  0  0  0
    7.5718    0.2081   -4.7217 C   0  0  0  0  0  0  0  0  0  0  0  0
    6.9041    1.3386   -4.1293 C   0  0  0  0  0  0  0  0  0  0  0  0
    6.3569    2.2495   -3.6684 N   0  0  0  0  0  0  0  0  0  0  0  0
    6.7073   -0.7394   -5.3719 C   0  0  0  0  0  0  0  0  0  0  0  0
    6.0048   -1.4833   -5.9067 N   0  0  0  0  0  0  0  0  0  0  0  0
   -7.9830    0.8073    2.4795 H   0  0  0  0  0  0  0  0  0  0  0  0
  -10.3976    5.0727    0.2379 H   0  0  0  0  0  0  0  0  0  0  0  0
   -7.9949    2.6468   -3.5613 H   0  0  0  0  0  0  0  0  0  0  0  0
   -9.8584    5.3873   -4.6931 H   0  0  0  0  0  0  0  0  0  0  0  0
   -7.4459    6.2832   -4.9881 H   0  0  0  0  0  0  0  0  0  0  0  0
   -6.0699    6.0375   -2.7271 H   0  0  0  0  0  0  0  0  0  0  0  0
   -7.3522    7.3168   -0.8520 H   0  0  0  0  0  0  0  0  0  0  0  0
   -9.5536    8.3440   -1.8946 H   0  0  0  0  0  0  0  0  0  0  0  0
   -9.4156    8.0484   -4.5480 H   0  0  0  0  0  0  0  0  0  0  0  0
   -7.8296    8.6536   -3.8742 H   0  0  0  0  0  0  0  0  0  0  0  0
  -11.0093    6.4976   -2.9557 H   0  0  0  0  0  0  0  0  0  0  0  0
   -5.4708   -0.1254   -2.3585 H   0  0  0  0  0  0  0  0  0  0  0  0
   -4.3888    0.0988   -4.5475 H   0  0  0  0  0  0  0  0  0  0  0  0
   -0.6250    1.8397   -4.2961 H   0  0  0  0  0  0  0  0  0  0  0  0
   -0.3733    1.2537   -5.9871 H   0  0  0  0  0  0  0  0  0  0  0  0
   -1.3270    0.2491   -4.8218 H   0  0  0  0  0  0  0  0  0  0  0  0
   -2.5107    3.7437   -3.2738 H   0  0  0  0  0  0  0  0  0  0  0  0
   -3.5240    3.5145   -1.0676 H   0  0  0  0  0  0  0  0  0  0  0  0
   -6.3534    3.9646   -0.7308 H   0  0  0  0  0  0  0  0  0  0  0  0
   -6.2250    5.9628    0.7030 H   0  0  0  0  0  0  0  0  0  0  0  0
   -6.6232    5.1563    4.6062 H   0  0  0  0  0  0  0  0  0  0  0  0
   -6.6648    6.9154    5.0004 H   0  0  0  0  0  0  0  0  0  0  0  0
   -7.4195    6.3298    3.4678 H   0  0  0  0  0  0  0  0  0  0  0  0
   -4.1208    3.7021    3.6899 H   0  0  0  0  0  0  0  0  0  0  0  0
   -4.1985    1.7111    2.2513 H   0  0  0  0  0  0  0  0  0  0  0  0
   -3.4419   -6.4796    2.3087 H   0  0  0  0  0  0  0  0  0  0  0  0
   -3.4513   -8.1221    0.5070 H   0  0  0  0  0  0  0  0  0  0  0  0
   -1.3801   -8.6023   -3.2930 H   0  0  0  0  0  0  0  0  0  0  0  0
   -1.3008   -8.3033   -1.5151 H   0  0  0  0  0  0  0  0  0  0  0  0
   -1.2877   -6.9052   -2.6739 H   0  0  0  0  0  0  0  0  0  0  0  0
   -3.5975   -4.9624   -2.4059 H   0  0  0  0  0  0  0  0  0  0  0  0
   -3.6591   -3.3127   -0.6419 H   0  0  0  0  0  0  0  0  0  0  0  0
   -2.7603   -2.7215    4.4186 H   0  0  0  0  0  0  0  0  0  0  0  0
   -3.5093   -3.3731    6.6828 H   0  0  0  0  0  0  0  0  0  0  0  0
   -6.3089   -2.9513    7.5889 H   0  0  0  0  0  0  0  0  0  0  0  0
   -7.5924   -4.1110    7.0317 H   0  0  0  0  0  0  0  0  0  0  0  0
   -7.1870   -3.9745    8.7895 H   0  0  0  0  0  0  0  0  0  0  0  0
   -6.4531   -5.9776    4.9314 H   0  0  0  0  0  0  0  0  0  0  0  0
   -5.6928   -5.3329    2.6849 H   0  0  0  0  0  0  0  0  0  0  0  0
    1.7787   -3.3987    1.2385 H   0  0  0  0  0  0  0  0  0  0  0  0
    2.3444   -5.2857   -0.2251 H   0  0  0  0  0  0  0  0  0  0  0  0
    1.4315   -9.2276    1.6534 H   0  0  0  0  0  0  0  0  0  0  0  0
    2.8753   -8.1573    1.4065 H   0  0  0  0  0  0  0  0  0  0  0  0
    2.7265   -9.7068    0.4923 H   0  0  0  0  0  0  0  0  0  0  0  0
   -0.8139   -7.6139    1.5435 H   0  0  0  0  0  0  0  0  0  0  0  0
   -1.3562   -5.7294    3.0453 H   0  0  0  0  0  0  0  0  0  0  0  0
   -0.7926   -1.6586    5.2286 H   0  0  0  0  0  0  0  0  0  0  0  0
   -0.9451   -2.1752    7.6076 H   0  0  0  0  0  0  0  0  0  0  0  0
    1.8799   -4.8588    9.0764 H   0  0  0  0  0  0  0  0  0  0  0  0
    1.3734   -3.1644    9.4790 H   0  0  0  0  0  0  0  0  0  0  0  0
    1.2556   -4.4688   10.7262 H   0  0  0  0  0  0  0  0  0  0  0  0
    0.5233   -6.1430    6.8846 H   0  0  0  0  0  0  0  0  0  0  0  0
    0.7957   -5.6321    4.5232 H   0  0  0  0  0  0  0  0  0  0  0  0
    2.7068    2.8106   -1.3661 H   0  0  0  0  0  0  0  0  0  0  0  0
    2.9576    1.7558   -3.5596 H   0  0  0  0  0  0  0  0  0  0  0  0
    0.6095   -0.7554   -3.9793 H   0  0  0  0  0  0  0  0  0  0  0  0
    1.1151   -2.4924   -3.9775 H   0  0  0  0  0  0  0  0  0  0  0  0
    0.9291   -1.6047   -5.5403 H   0  0  0  0  0  0  0  0  0  0  0  0
    2.7241   -2.1303   -1.7505 H   0  0  0  0  0  0  0  0  0  0  0  0
    2.3695   -1.1248    0.4158 H   0  0  0  0  0  0  0  0  0  0  0  0
    2.9062    3.5515    2.7315 H   0  0  0  0  0  0  0  0  0  0  0  0
    1.8881    5.8037    2.8419 H   0  0  0  0  0  0  0  0  0  0  0  0
    1.9212    7.7057    0.4166 H   0  0  0  0  0  0  0  0  0  0  0  0
    0.7964    7.1347   -0.8840 H   0  0  0  0  0  0  0  0  0  0  0  0
    0.5907    8.7741   -0.1589 H   0  0  0  0  0  0  0  0  0  0  0  0
   -0.8520    4.7285   -0.2947 H   0  0  0  0  0  0  0  0  0  0  0  0
    0.1505    2.4920   -0.4170 H   0  0  0  0  0  0  0  0  0  0  0  0
    5.2408   -1.8332    1.5787 H   0  0  0  0  0  0  0  0  0  0  0  0
    7.3474   -1.6107   -2.4887 H   0  0  0  0  0  0  0  0  0  0  0  0
    7.7902   -3.9542   -3.0559 H   0  0  0  0  0  0  0  0  0  0  0  0
    8.9105   -6.0681   -2.3104 H   0  0  0  0  0  0  0  0  0  0  0  0
    8.9274   -6.5193   -0.5747 H   0  0  0  0  0  0  0  0  0  0  0  0
    6.4750   -6.8594   -0.5879 H   0  0  0  0  0  0  0  0  0  0  0  0
    6.3673   -6.2594   -2.2952 H   0  0  0  0  0  0  0  0  0  0  0  0
    7.2283   -7.8009   -1.9370 H   0  0  0  0  0  0  0  0  0  0  0  0
    8.1929   -4.8939    1.1348 H   0  0  0  0  0  0  0  0  0  0  0  0
    7.7840   -2.5374    1.7033 H   0  0  0  0  0  0  0  0  0  0  0  0
    8.4451    4.4327    1.1677 H   0  0  0  0  0  0  0  0  0  0  0  0
    7.8029    6.8034    1.3622 H   0  0  0  0  0  0  0  0  0  0  0  0
    5.9905    8.4453    1.7284 H   0  0  0  0  0  0  0  0  0  0  0  0
    4.2834    7.9902    1.4312 H   0  0  0  0  0  0  0  0  0  0  0  0
    6.4102    8.5433   -0.7413 H   0  0  0  0  0  0  0  0  0  0  0  0
    4.6853    8.0761   -1.0533 H   0  0  0  0  0  0  0  0  0  0  0  0
    5.0649    9.6429   -0.2488 H   0  0  0  0  0  0  0  0  0  0  0  0
    3.7295    5.7813    0.3857 H   0  0  0  0  0  0  0  0  0  0  0  0
    4.3689    3.4194    0.2014 H   0  0  0  0  0  0  0  0  0  0  0  0
    8.5665    3.7042   -1.4321 H   0  0  0  0  0  0  0  0  0  0  0  0
   10.6861    2.7188   -3.1997 H   0  0  0  0  0  0  0  0  0  0  0  0
   12.6321    0.0169   -7.4249 H   0  0  0  0  0  0  0  0  0  0  0  0
    8.4506   -2.4122   -6.2229 H   0  0  0  0  0  0  0  0  0  0  0  0
  1  2  2  3
  2  3  1  0
  3  4  2  0
  3  5  1  0
  5  6  2  0
  6  7  1  0
  7  8  2  0
  8  9  1  0
  9 10  2  0
 10 11  1  0
 11 12  2  3
 12 13  1  0
 13 14  3  0
 12 15  1  0
 15 16  3  0
  8 17  1  0
 17 18  1  0
 18 19  1  0
 19 20  2  0
 20 21  1  0
 21 22  1  0
 21 23  1  0
  1 24  1  0
 24 25  2  0
 25 26  1  0
 26 27  1  0
 27 28  2  0
 28 29  1  0
 29 30  2  0
 30 31  1  0
 31 32  1  0
 30 33  1  0
 33 34  2  0
 26 35  1  0
 35 36  2  0
 36 37  1  0
 37 38  2  0
 38 39  1  0
 39 40  1  0
 38 41  1  0
 41 42  2  0
 25 43  1  0
 43 44  1  0
 44 45  1  0
 45 46  2  0
 46 47  1  0
 47 48  1  0
 48 49  2  0
 49 50  1  0
 50 51  2  0
 51 52  1  0
 52 53  1  0
 51 54  1  0
 54 55  2  0
 47 56  1  0
 56 57  2  0
 57 58  1  0
 58 59  2  0
 59 60  1  0
 60 61  1  0
 59 62  1  0
 62 63  2  0
 46 64  1  0
 64 65  1  0
 45 66  1  0
 66 67  2  0
 67 68  1  0
 68 69  1  0
 69 70  2  0
 70 71  1  0
 71 72  2  0
 72 73  1  0
 73 74  1  0
 72 75  1  0
 75 76  2  0
 68 77  1  0
 77 78  2  0
 78 79  1  0
 79 80  2  0
 80 81  1  0
 81 82  1  0
 80 83  1  0
 83 84  2  0
 67 85  1  0
 85 86  1  0
 86 87  1  0
 87 88  2  0
 88 89  1  0
 89 90  1  0
 90 91  2  0
 91 92  1  0
 92 93  2  0
 93 94  1  0
 94 95  1  0
 93 96  1  0
 96 97  2  0
 89 98  1  0
 98 99  2  0
 99100  1  0
100101  2  0
101102  1  0
102103  1  0
101104  1  0
104105  2  0
 88106  1  0
106107  1  0
 87108  1  0
108109  2  0
109110  1  0
110111  2  0
111112  1  0
112113  2  0
113114  1  0
114115  2  0
115116  1  0
116117  1  0
115118  1  0
118119  2  0
111120  1  0
120121  2  0
121122  1  0
122123  1  0
123124  2  0
124125  1  0
125126  2  0
126127  1  0
127128  1  0
126129  1  0
129130  2  0
122131  2  0
131132  1  0
121133  1  0
133134  2  0
134135  1  0
134136  1  0
136137  2  3
137138  1  0
138139  2  0
138140  1  0
140141  2  0
141142  1  0
142143  1  0
142144  2  0
144145  1  0
144146  1  0
146147  2  0
147148  1  0
148149  2  3
149150  1  0
150151  3  0
149152  1  0
152153  3  0
 11  2  1  0
 23 17  1  0
 65 24  1  0
107 66  1  0
132108  1  0
148137  1  0
 10  5  1  0
 22 18  1  0
 34 27  1  0
 42 35  1  0
 64 43  2  0
 76 69  1  0
 84 77  1  0
106 85  2  0
131110  1  0
147140  1  0
 23  7  1  0
 55 48  1  0
 63 56  1  0
 97 90  1  0
105 98  1  0
119112  1  0
135120  1  0
130123  1  0
  1154  1  0
  6155  1  0
  9156  1  0
 17157  1  0
 18158  1  0
 19159  1  0
 20160  1  0
 21161  1  0
 22162  1  0
 22163  1  0
 23164  1  0
 28165  1  0
 29166  1  0
 32167  1  0
 32168  1  0
 32169  1  0
 33170  1  0
 34171  1  0
 36172  1  0
 37173  1  0
 40174  1  0
 40175  1  0
 40176  1  0
 41177  1  0
 42178  1  0
 49179  1  0
 50180  1  0
 53181  1  0
 53182  1  0
 53183  1  0
 54184  1  0
 55185  1  0
 57186  1  0
 58187  1  0
 61188  1  0
 61189  1  0
 61190  1  0
 62191  1  0
 63192  1  0
 70193  1  0
 71194  1  0
 74195  1  0
 74196  1  0
 74197  1  0
 75198  1  0
 76199  1  0
 78200  1  0
 79201  1  0
 82202  1  0
 82203  1  0
 82204  1  0
 83205  1  0
 84206  1  0
 91207  1  0
 92208  1  0
 95209  1  0
 95210  1  0
 95211  1  0
 96212  1  0
 97213  1  0
 99214  1  0
100215  1  0
103216  1  0
103217  1  0
103218  1  0
104219  1  0
105220  1  0
109221  1  0
113222  1  0
114223  1  0
116224  1  0
116225  1  0
117226  1  0
117227  1  0
117228  1  0
118229  1  0
119230  1  0
124231  1  0
125232  1  0
127233  1  0
127234  1  0
128235  1  0
128236  1  0
128237  1  0
129238  1  0
130239  1  0
133240  1  0
136241  1  0
141242  1  0
146243  1  0
M  END

