
     RDKit          3D

166182  0  0  0  0  0  0  0  0999 V2000
    3.4935   -4.6210    4.3671 C   0  0  0  0  0  0  0  0  0  0  0  0
    4.5307   -4.2137    3.6030 C   0  0  0  0  0  0  0  0  0  0  0  0
    4.4549   -3.1506    2.5839 C   0  0  0  0  0  0  0  0  0  0  0  0
    3.4677   -2.4044    2.3481 O   0  0  0  0  0  0  0  0  0  0  0  0
    5.7304   -3.0208    1.9345 C   0  0  0  0  0  0  0  0  0  0  0  0
    6.0481   -2.1588    0.8566 C   0  0  0  0  0  0  0  0  0  0  0  0
    7.3378   -2.3013    0.3893 C   0  0  0  0  0  0  0  0  0  0  0  0
    8.2679   -3.2461    0.9327 C   0  0  0  0  0  0  0  0  0  0  0  0
    7.9625   -4.0943    1.9838 C   0  0  0  0  0  0  0  0  0  0  0  0
    6.6477   -3.9357    2.5178 C   0  0  0  0  0  0  0  0  0  0  0  0
    5.9634   -4.6783    3.6230 C   0  0  0  0  0  0  0  0  0  0  0  0
    6.5535   -5.5385    4.4913 C   0  0  0  0  0  0  0  0  0  0  0  0
    5.8223   -6.3132    5.4598 C   0  0  0  0  0  0  0  0  0  0  0  0
    5.2392   -6.9358    6.2429 N   0  0  0  0  0  0  0  0  0  0  0  0
    7.9792   -5.6594    4.6006 C   0  0  0  0  0  0  0  0  0  0  0  0
    9.1324   -5.7353    4.7154 N   0  0  0  0  0  0  0  0  0  0  0  0
    9.3001   -2.8302   -0.0747 C   0  0  0  0  0  0  0  0  0  0  0  0
    9.5720   -3.7849   -1.2811 C   0  0  0  0  0  0  0  0  0  0  0  0
    8.3177   -4.5459   -1.6362 C   0  0  0  0  0  0  0  0  0  0  0  0
    7.4624   -3.6563   -2.1386 C   0  0  0  0  0  0  0  0  0  0  0  0
    8.1592   -2.3126   -2.0971 C   0  0  0  0  0  0  0  0  0  0  0  0
    9.5699   -2.7737   -2.4147 C   0  0  0  0  0  0  0  0  0  0  0  0
    8.3488   -1.8578   -0.6229 C   0  0  0  0  0  0  0  0  0  0  0  0
    2.1190   -4.1826    4.1047 C   0  0  0  0  0  0  0  0  0  0  0  0
    1.5148   -3.0884    4.7199 C   0  0  0  0  0  0  0  0  0  0  0  0
    0.4425   -2.5743    3.9650 C   0  0  0  0  0  0  0  0  0  0  0  0
   -0.2353   -1.3573    4.2073 C   0  0  0  0  0  0  0  0  0  0  0  0
   -0.1406   -0.6689    5.5091 C   0  0  0  0  0  0  0  0  0  0  0  0
   -0.6539   -1.2920    6.6547 C   0  0  0  0  0  0  0  0  0  0  0  0
   -0.5645   -0.6678    7.8991 C   0  0  0  0  0  0  0  0  0  0  0  0
   -1.0882   -1.2860    8.9896 F   0  0  0  0  0  0  0  0  0  0  0  0
    0.0687    0.5830    8.0186 C   0  0  0  0  0  0  0  0  0  0  0  0
    0.1530    1.2634    9.3643 C   0  0  0  0  0  0  0  0  0  0  0  0
   -1.0506    2.1743    9.5834 C   0  0  0  0  0  0  0  0  0  0  0  0
    0.5804    1.2080    6.8668 C   0  0  0  0  0  0  0  0  0  0  0  0
    1.1910    2.4170    6.9583 F   0  0  0  0  0  0  0  0  0  0  0  0
    0.4768    0.5811    5.6200 C   0  0  0  0  0  0  0  0  0  0  0  0
   -1.0098   -0.8475    3.1494 C   0  0  0  0  0  0  0  0  0  0  0  0
   -1.1862   -1.5478    1.9529 C   0  0  0  0  0  0  0  0  0  0  0  0
   -0.6362   -2.8289    1.7713 C   0  0  0  0  0  0  0  0  0  0  0  0
   -0.9000   -3.6287    0.5535 C   0  0  0  0  0  0  0  0  0  0  0  0
   -1.5987   -4.8426    0.6499 C   0  0  0  0  0  0  0  0  0  0  0  0
   -1.9648   -5.5455   -0.4983 C   0  0  0  0  0  0  0  0  0  0  0  0
   -1.6382   -5.0432   -1.7705 C   0  0  0  0  0  0  0  0  0  0  0  0
   -2.0825   -5.7564   -3.0228 C   0  0  0  0  0  0  0  0  0  0  0  0
   -3.3848   -5.1674   -3.5558 C   0  0  0  0  0  0  0  0  0  0  0  0
   -0.9460   -3.8271   -1.8675 C   0  0  0  0  0  0  0  0  0  0  0  0
   -0.5434   -3.1421   -0.7178 C   0  0  0  0  0  0  0  0  0  0  0  0
   -0.7018   -3.2837   -3.0815 F   0  0  0  0  0  0  0  0  0  0  0  0
   -2.6719   -6.6976   -0.3770 F   0  0  0  0  0  0  0  0  0  0  0  0
    0.2115   -3.2944    2.7843 C   0  0  0  0  0  0  0  0  0  0  0  0
    1.3031   -4.5618    2.6773 S   0  0  0  0  0  0  0  0  0  0  0  0
   -1.8896   -0.8192    0.9916 C   0  0  0  0  0  0  0  0  0  0  0  0
   -2.2415    0.4638    1.3962 C   0  0  0  0  0  0  0  0  0  0  0  0
   -1.7481    0.6626    3.0017 S   0  0  0  0  0  0  0  0  0  0  0  0
   -2.8246    1.4458    0.4538 C   0  0  0  0  0  0  0  0  0  0  0  0
   -2.1890    2.6278   -0.0280 C   0  0  0  0  0  0  0  0  0  0  0  0
   -1.1901    3.3822    0.7046 N   0  0  0  0  0  0  0  0  0  0  0  0
   -0.2989    4.2801    0.0197 C   0  0  0  0  0  0  0  0  0  0  0  0
    0.8940    3.8106   -0.5535 C   0  0  0  0  0  0  0  0  0  0  0  0
    1.7752    4.7066   -1.1700 C   0  0  0  0  0  0  0  0  0  0  0  0
    1.4764    6.0773   -1.2033 C   0  0  0  0  0  0  0  0  0  0  0  0
    2.6012    7.2469   -1.9783 S   0  0  0  0  0  0  0  0  0  0  0  0
    1.7992    7.1006   -3.6022 C   0  0  0  0  0  0  0  0  0  0  0  0
    0.2830    6.5446   -0.6366 C   0  0  0  0  0  0  0  0  0  0  0  0
   -0.5954    5.6529   -0.0195 C   0  0  0  0  0  0  0  0  0  0  0  0
   -1.3189    3.6266    2.1150 C   0  0  0  0  0  0  0  0  0  0  0  0
   -2.5107    4.1465    2.6461 C   0  0  0  0  0  0  0  0  0  0  0  0
   -2.5598    4.5763    3.9764 C   0  0  0  0  0  0  0  0  0  0  0  0
   -1.4246    4.4613    4.7916 C   0  0  0  0  0  0  0  0  0  0  0  0
   -1.4522    5.0646    6.4819 S   0  0  0  0  0  0  0  0  0  0  0  0
   -0.8248    6.7135    6.0130 C   0  0  0  0  0  0  0  0  0  0  0  0
   -0.2477    3.9099    4.2756 C   0  0  0  0  0  0  0  0  0  0  0  0
   -0.1872    3.5060    2.9410 C   0  0  0  0  0  0  0  0  0  0  0  0
   -2.5371    2.8790   -1.3817 C   0  0  0  0  0  0  0  0  0  0  0  0
   -1.7891    3.7378   -2.6255 S   0  0  0  0  0  0  0  0  0  0  0  0
   -2.5245    2.8637   -3.8845 C   0  0  0  0  0  0  0  0  0  0  0  0
   -3.3115    1.8421   -3.3326 C   0  0  0  0  0  0  0  0  0  0  0  0
   -3.4656    0.5638   -3.9835 N   0  0  0  0  0  0  0  0  0  0  0  0
   -4.7547   -0.0733   -3.9857 C   0  0  0  0  0  0  0  0  0  0  0  0
   -5.9033    0.6500   -4.3481 C   0  0  0  0  0  0  0  0  0  0  0  0
   -7.1546    0.0253   -4.3393 C   0  0  0  0  0  0  0  0  0  0  0  0
   -7.2704   -1.3181   -3.9666 C   0  0  0  0  0  0  0  0  0  0  0  0
   -8.8838   -2.1026   -3.9166 S   0  0  0  0  0  0  0  0  0  0  0  0
   -9.1473   -1.6966   -2.1619 C   0  0  0  0  0  0  0  0  0  0  0  0
   -6.1263   -2.0450   -3.6144 C   0  0  0  0  0  0  0  0  0  0  0  0
   -4.8766   -1.4239   -3.6187 C   0  0  0  0  0  0  0  0  0  0  0  0
   -2.2873   -0.1590   -4.4185 C   0  0  0  0  0  0  0  0  0  0  0  0
   -1.0920   -0.1155   -3.6699 C   0  0  0  0  0  0  0  0  0  0  0  0
    0.0681   -0.7233   -4.1559 C   0  0  0  0  0  0  0  0  0  0  0  0
    0.0493   -1.4082   -5.3717 C   0  0  0  0  0  0  0  0  0  0  0  0
    1.5652   -2.1041   -6.0422 S   0  0  0  0  0  0  0  0  0  0  0  0
    1.4075   -3.7123   -5.2020 C   0  0  0  0  0  0  0  0  0  0  0  0
   -1.1431   -1.4907   -6.1034 C   0  0  0  0  0  0  0  0  0  0  0  0
   -2.3043   -0.8685   -5.6320 C   0  0  0  0  0  0  0  0  0  0  0  0
   -3.3716    1.9587   -1.9436 C   0  0  0  0  0  0  0  0  0  0  0  0
   -3.7721    0.8201   -0.8087 S   0  0  0  0  0  0  0  0  0  0  0  0
   -2.1339    2.9201   -5.2992 C   0  0  0  0  0  0  0  0  0  0  0  0
   -3.0290    2.7812   -6.3494 C   0  0  0  0  0  0  0  0  0  0  0  0
   -2.4175    2.4185   -7.5555 C   0  0  0  0  0  0  0  0  0  0  0  0
   -3.1321    2.0822   -8.6576 F   0  0  0  0  0  0  0  0  0  0  0  0
   -1.0374    2.2705   -7.4631 C   0  0  0  0  0  0  0  0  0  0  0  0
   -0.5892    2.5479   -5.8662 S   0  0  0  0  0  0  0  0  0  0  0  0
   -0.2079    1.5516   -8.4385 C   0  0  0  0  0  0  0  0  0  0  0  0
   -0.0905    1.9207   -9.7222 C   0  0  0  0  0  0  0  0  0  0  0  0
   -0.6603    3.1510  -10.2178 C   0  0  0  0  0  0  0  0  0  0  0  0
   -1.0994    4.1493  -10.6126 N   0  0  0  0  0  0  0  0  0  0  0  0
    0.6717    1.1101  -10.6355 C   0  0  0  0  0  0  0  0  0  0  0  0
    1.2857    0.4574  -11.3684 N   0  0  0  0  0  0  0  0  0  0  0  0
    3.6033   -5.3053    5.1873 H   0  0  0  0  0  0  0  0  0  0  0  0
    5.3420   -1.4667    0.4190 H   0  0  0  0  0  0  0  0  0  0  0  0
    8.6802   -4.8252    2.3173 H   0  0  0  0  0  0  0  0  0  0  0  0
   10.2076   -2.3681    0.3688 H   0  0  0  0  0  0  0  0  0  0  0  0
   10.4886   -4.4054   -1.1938 H   0  0  0  0  0  0  0  0  0  0  0  0
    8.1580   -5.6209   -1.5970 H   0  0  0  0  0  0  0  0  0  0  0  0
    6.4914   -3.8735   -2.5685 H   0  0  0  0  0  0  0  0  0  0  0  0
    7.7372   -1.5492   -2.7859 H   0  0  0  0  0  0  0  0  0  0  0  0
   10.3392   -1.9778   -2.2949 H   0  0  0  0  0  0  0  0  0  0  0  0
    9.6677   -3.2454   -3.4226 H   0  0  0  0  0  0  0  0  0  0  0  0
    8.6752   -0.7963   -0.4971 H   0  0  0  0  0  0  0  0  0  0  0  0
    1.9311   -2.5949    5.5894 H   0  0  0  0  0  0  0  0  0  0  0  0
   -1.1428   -2.2544    6.5746 H   0  0  0  0  0  0  0  0  0  0  0  0
    0.1943    0.5059   10.1777 H   0  0  0  0  0  0  0  0  0  0  0  0
    1.0908    1.8581    9.4349 H   0  0  0  0  0  0  0  0  0  0  0  0
   -1.0217    3.0193    8.8601 H   0  0  0  0  0  0  0  0  0  0  0  0
   -1.0218    2.5935   10.6115 H   0  0  0  0  0  0  0  0  0  0  0  0
   -2.0002    1.6160    9.4505 H   0  0  0  0  0  0  0  0  0  0  0  0
    0.8844    1.0690    4.7393 H   0  0  0  0  0  0  0  0  0  0  0  0
   -1.8882   -5.2263    1.6205 H   0  0  0  0  0  0  0  0  0  0  0  0
   -1.2989   -5.6776   -3.8074 H   0  0  0  0  0  0  0  0  0  0  0  0
   -2.2267   -6.8379   -2.8222 H   0  0  0  0  0  0  0  0  0  0  0  0
   -3.2183   -4.1310   -3.9162 H   0  0  0  0  0  0  0  0  0  0  0  0
   -4.1647   -5.1635   -2.7646 H   0  0  0  0  0  0  0  0  0  0  0  0
   -3.7488   -5.7765   -4.4127 H   0  0  0  0  0  0  0  0  0  0  0  0
   -0.0009   -2.2058   -0.8202 H   0  0  0  0  0  0  0  0  0  0  0  0
   -2.0934   -1.1898   -0.0042 H   0  0  0  0  0  0  0  0  0  0  0  0
    1.1198    2.7548   -0.5401 H   0  0  0  0  0  0  0  0  0  0  0  0
    2.6842    4.3343   -1.6271 H   0  0  0  0  0  0  0  0  0  0  0  0
    1.9410    6.0761   -4.0074 H   0  0  0  0  0  0  0  0  0  0  0  0
    2.2596    7.8307   -4.2940 H   0  0  0  0  0  0  0  0  0  0  0  0
    0.7144    7.3265   -3.5221 H   0  0  0  0  0  0  0  0  0  0  0  0
    0.0470    7.6008   -0.6581 H   0  0  0  0  0  0  0  0  0  0  0  0
   -1.5068    6.0283    0.4260 H   0  0  0  0  0  0  0  0  0  0  0  0
   -3.3769    4.2620    2.0081 H   0  0  0  0  0  0  0  0  0  0  0  0
   -3.4659    5.0276    4.3659 H   0  0  0  0  0  0  0  0  0  0  0  0
   -1.6007    7.2585    5.4353 H   0  0  0  0  0  0  0  0  0  0  0  0
    0.1001    6.6184    5.4072 H   0  0  0  0  0  0  0  0  0  0  0  0
   -0.5919    7.2839    6.9328 H   0  0  0  0  0  0  0  0  0  0  0  0
    0.6381    3.8300    4.8900 H   0  0  0  0  0  0  0  0  0  0  0  0
    0.7449    3.1217    2.5379 H   0  0  0  0  0  0  0  0  0  0  0  0
   -5.8272    1.6905   -4.6396 H   0  0  0  0  0  0  0  0  0  0  0  0
   -8.0395    0.5906   -4.6135 H   0  0  0  0  0  0  0  0  0  0  0  0
   -9.1286   -0.5965   -2.0142 H   0  0  0  0  0  0  0  0  0  0  0  0
   -8.3564   -2.1668   -1.5407 H   0  0  0  0  0  0  0  0  0  0  0  0
  -10.1321   -2.0859   -1.8437 H   0  0  0  0  0  0  0  0  0  0  0  0
   -6.2070   -3.0841   -3.3179 H   0  0  0  0  0  0  0  0  0  0  0  0
   -4.0046   -1.9873   -3.3106 H   0  0  0  0  0  0  0  0  0  0  0  0
   -1.0559    0.4099   -2.7234 H   0  0  0  0  0  0  0  0  0  0  0  0
    0.9843   -0.6536   -3.5823 H   0  0  0  0  0  0  0  0  0  0  0  0
    2.2353   -4.3736   -5.5330 H   0  0  0  0  0  0  0  0  0  0  0  0
    0.4435   -4.1919   -5.4720 H   0  0  0  0  0  0  0  0  0  0  0  0
    1.4882   -3.5815   -4.1052 H   0  0  0  0  0  0  0  0  0  0  0  0
   -1.1639   -2.0145   -7.0522 H   0  0  0  0  0  0  0  0  0  0  0  0
   -3.2089   -0.9084   -6.2276 H   0  0  0  0  0  0  0  0  0  0  0  0
   -4.1031    2.8572   -6.2315 H   0  0  0  0  0  0  0  0  0  0  0  0
    0.2599    0.6303   -8.0874 H   0  0  0  0  0  0  0  0  0  0  0  0
  1  2  2  3
  2  3  1  0
  3  4  2  0
  3  5  1  0
  5  6  2  0
  6  7  1  0
  7  8  2  0
  8  9  1  0
  9 10  2  0
 10 11  1  0
 11 12  2  3
 12 13  1  0
 13 14  3  0
 12 15  1  0
 15 16  3  0
  8 17  1  0
 17 18  1  0
 18 19  1  0
 19 20  2  0
 20 21  1  0
 21 22  1  0
 21 23  1  0
  1 24  1  0
 24 25  2  0
 25 26  1  0
 26 27  2  0
 27 28  1  0
 28 29  2  0
 29 30  1  0
 30 31  1  0
 30 32  2  0
 32 33  1  0
 33 34  1  0
 32 35  1  0
 35 36  1  0
 35 37  2  0
 27 38  1  0
 38 39  2  0
 39 40  1  0
 40 41  1  0
 41 42  2  0
 42 43  1  0
 43 44  2  0
 44 45  1  0
 45 46  1  0
 44 47  1  0
 47 48  2  0
 47 49  1  0
 43 50  1  0
 40 51  2  0
 51 52  1  0
 39 53  1  0
 53 54  2  0
 54 55  1  0
 54 56  1  0
 56 57  2  0
 57 58  1  0
 58 59  1  0
 59 60  2  0
 60 61  1  0
 61 62  2  0
 62 63  1  0
 63 64  1  0
 62 65  1  0
 65 66  2  0
 58 67  1  0
 67 68  2  0
 68 69  1  0
 69 70  2  0
 70 71  1  0
 71 72  1  0
 70 73  1  0
 73 74  2  0
 57 75  1  0
 75 76  1  0
 76 77  1  0
 77 78  2  0
 78 79  1  0
 79 80  1  0
 80 81  2  0
 81 82  1  0
 82 83  2  0
 83 84  1  0
 84 85  1  0
 83 86  1  0
 86 87  2  0
 79 88  1  0
 88 89  2  0
 89 90  1  0
 90 91  2  0
 91 92  1  0
 92 93  1  0
 91 94  1  0
 94 95  2  0
 78 96  1  0
 96 97  1  0
 77 98  1  0
 98 99  2  0
 99100  1  0
100101  1  0
100102  2  0
102103  1  0
102104  1  0
104105  2  3
105106  1  0
106107  3  0
105108  1  0
108109  3  0
 11  2  1  0
 23 17  1  0
 52 24  1  0
 97 56  1  0
103 98  1  0
 10  5  1  0
 22 18  1  0
 51 26  1  0
 66 59  1  0
 74 67  1  0
 96 75  2  0
 23  7  1  0
 37 28  1  0
 55 38  1  0
 87 80  1  0
 95 88  1  0
 48 41  1  0
  1110  1  0
  6111  1  0
  9112  1  0
 17113  1  0
 18114  1  0
 19115  1  0
 20116  1  0
 21117  1  0
 22118  1  0
 22119  1  0
 23120  1  0
 25121  1  0
 29122  1  0
 33123  1  0
 33124  1  0
 34125  1  0
 34126  1  0
 34127  1  0
 37128  1  0
 42129  1  0
 45130  1  0
 45131  1  0
 46132  1  0
 46133  1  0
 46134  1  0
 48135  1  0
 53136  1  0
 60137  1  0
 61138  1  0
 64139  1  0
 64140  1  0
 64141  1  0
 65142  1  0
 66143  1  0
 68144  1  0
 69145  1  0
 72146  1  0
 72147  1  0
 72148  1  0
 73149  1  0
 74150  1  0
 81151  1  0
 82152  1  0
 85153  1  0
 85154  1  0
 85155  1  0
 86156  1  0
 87157  1  0
 89158  1  0
 90159  1  0
 93160  1  0
 93161  1  0
 93162  1  0
 94163  1  0
 95164  1  0
 99165  1  0
104166  1  0
M  END

