
     RDKit          3D

253276  0  0  0  0  0  0  0  0999 V2000
    6.9035    4.1452    0.9266 C   0  0  0  0  0  0  0  0  0  0  0  0
    7.2422    2.9177    1.3729 C   0  0  0  0  0  0  0  0  0  0  0  0
    6.3053    2.0017    2.0465 C   0  0  0  0  0  0  0  0  0  0  0  0
    5.1405    2.2805    2.4329 O   0  0  0  0  0  0  0  0  0  0  0  0
    6.9183    0.7133    2.1882 C   0  0  0  0  0  0  0  0  0  0  0  0
    6.3083   -0.4560    2.7011 C   0  0  0  0  0  0  0  0  0  0  0  0
    7.0623   -1.5957    2.5346 C   0  0  0  0  0  0  0  0  0  0  0  0
    8.3338   -1.6068    1.8807 C   0  0  0  0  0  0  0  0  0  0  0  0
    8.9440   -0.4572    1.3905 C   0  0  0  0  0  0  0  0  0  0  0  0
    8.2074    0.7478    1.6033 C   0  0  0  0  0  0  0  0  0  0  0  0
    8.5126    2.1440    1.1608 C   0  0  0  0  0  0  0  0  0  0  0  0
    9.7224    2.6094    0.7375 C   0  0  0  0  0  0  0  0  0  0  0  0
    9.9309    3.9582    0.2836 C   0  0  0  0  0  0  0  0  0  0  0  0
   10.1020    5.0343   -0.1008 N   0  0  0  0  0  0  0  0  0  0  0  0
   10.9151    1.8041    0.7967 C   0  0  0  0  0  0  0  0  0  0  0  0
   11.8830    1.1710    0.8368 N   0  0  0  0  0  0  0  0  0  0  0  0
    8.4038   -3.0990    2.0105 C   0  0  0  0  0  0  0  0  0  0  0  0
    8.0938   -3.9399    0.7343 C   0  0  0  0  0  0  0  0  0  0  0  0
    7.8560   -5.3501    1.2184 C   0  0  0  0  0  0  0  0  0  0  0  0
    6.6949   -5.3397    1.8835 C   0  0  0  0  0  0  0  0  0  0  0  0
    6.1780   -3.9208    1.8137 C   0  0  0  0  0  0  0  0  0  0  0  0
    6.6516   -3.5674    0.4141 C   0  0  0  0  0  0  0  0  0  0  0  0
    7.1222   -3.0796    2.7194 C   0  0  0  0  0  0  0  0  0  0  0  0
    5.4888    4.5275    0.7946 C   0  0  0  0  0  0  0  0  0  0  0  0
    4.5963    3.8645   -0.0643 C   0  0  0  0  0  0  0  0  0  0  0  0
    4.9969    3.1021   -1.2293 N   0  0  0  0  0  0  0  0  0  0  0  0
    4.1175    2.1326   -1.8189 C   0  0  0  0  0  0  0  0  0  0  0  0
    3.5686    2.3779   -3.0898 C   0  0  0  0  0  0  0  0  0  0  0  0
    2.6656    1.4762   -3.6499 C   0  0  0  0  0  0  0  0  0  0  0  0
    2.3102    0.3166   -2.9537 C   0  0  0  0  0  0  0  0  0  0  0  0
    1.1265   -0.8227   -3.6711 S   0  0  0  0  0  0  0  0  0  0  0  0
   -0.3180    0.0825   -3.0390 C   0  0  0  0  0  0  0  0  0  0  0  0
    2.8673    0.0571   -1.6951 C   0  0  0  0  0  0  0  0  0  0  0  0
    3.7674    0.9648   -1.1259 C   0  0  0  0  0  0  0  0  0  0  0  0
    6.2051    3.4362   -1.9372 C   0  0  0  0  0  0  0  0  0  0  0  0
    6.4862    4.7714   -2.2774 C   0  0  0  0  0  0  0  0  0  0  0  0
    7.6889    5.0990   -2.9080 C   0  0  0  0  0  0  0  0  0  0  0  0
    8.6095    4.0970   -3.2344 C   0  0  0  0  0  0  0  0  0  0  0  0
   10.1768    4.5223   -3.9966 S   0  0  0  0  0  0  0  0  0  0  0  0
    9.5328    4.4485   -5.6953 C   0  0  0  0  0  0  0  0  0  0  0  0
    8.3236    2.7601   -2.9247 C   0  0  0  0  0  0  0  0  0  0  0  0
    7.1254    2.4320   -2.2818 C   0  0  0  0  0  0  0  0  0  0  0  0
    3.2778    4.0826    0.3428 C   0  0  0  0  0  0  0  0  0  0  0  0
    1.7906    3.5157   -0.1588 S   0  0  0  0  0  0  0  0  0  0  0  0
    0.9036    4.3911    0.9939 C   0  0  0  0  0  0  0  0  0  0  0  0
    1.7797    5.1737    1.7751 C   0  0  0  0  0  0  0  0  0  0  0  0
    1.3715    6.3841    2.4254 N   0  0  0  0  0  0  0  0  0  0  0  0
    1.4115    6.4887    3.8551 C   0  0  0  0  0  0  0  0  0  0  0  0
    0.2601    6.2092    4.5976 C   0  0  0  0  0  0  0  0  0  0  0  0
    0.2508    6.3652    5.9848 C   0  0  0  0  0  0  0  0  0  0  0  0
    1.3927    6.8329    6.6432 C   0  0  0  0  0  0  0  0  0  0  0  0
    1.3636    7.0563    8.4194 S   0  0  0  0  0  0  0  0  0  0  0  0
    0.6951    8.7499    8.3262 C   0  0  0  0  0  0  0  0  0  0  0  0
    2.5529    7.1154    5.9066 C   0  0  0  0  0  0  0  0  0  0  0  0
    2.5594    6.9530    4.5134 C   0  0  0  0  0  0  0  0  0  0  0  0
    0.9248    7.4944    1.6186 C   0  0  0  0  0  0  0  0  0  0  0  0
    1.6315    7.8578    0.4542 C   0  0  0  0  0  0  0  0  0  0  0  0
    1.1908    8.9178   -0.3405 C   0  0  0  0  0  0  0  0  0  0  0  0
    0.0356    9.6267    0.0087 C   0  0  0  0  0  0  0  0  0  0  0  0
   -0.5010   11.0153   -0.9906 S   0  0  0  0  0  0  0  0  0  0  0  0
    0.4034   12.2340    0.0138 C   0  0  0  0  0  0  0  0  0  0  0  0
   -0.6853    9.2613    1.1492 C   0  0  0  0  0  0  0  0  0  0  0  0
   -0.2429    8.2080    1.9545 C   0  0  0  0  0  0  0  0  0  0  0  0
    3.1109    4.9296    1.3975 C   0  0  0  0  0  0  0  0  0  0  0  0
    4.6157    5.4336    1.9504 S   0  0  0  0  0  0  0  0  0  0  0  0
   -0.5522    4.2097    1.1257 C   0  0  0  0  0  0  0  0  0  0  0  0
   -1.1178    3.2803    2.0317 C   0  0  0  0  0  0  0  0  0  0  0  0
   -0.8172    3.1832    3.4346 N   0  0  0  0  0  0  0  0  0  0  0  0
   -1.9357    3.3740    4.3426 C   0  0  0  0  0  0  0  0  0  0  0  0
   -2.8135    4.4647    4.1718 C   0  0  0  0  0  0  0  0  0  0  0  0
   -3.8683    4.6717    5.0628 C   0  0  0  0  0  0  0  0  0  0  0  0
   -4.1065    3.7593    6.0943 C   0  0  0  0  0  0  0  0  0  0  0  0
   -5.4770    4.0318    7.2164 S   0  0  0  0  0  0  0  0  0  0  0  0
   -4.4398    4.7907    8.5069 C   0  0  0  0  0  0  0  0  0  0  0  0
   -3.2929    2.6283    6.2268 C   0  0  0  0  0  0  0  0  0  0  0  0
   -2.2140    2.4373    5.3553 C   0  0  0  0  0  0  0  0  0  0  0  0
    0.4616    2.6889    3.9247 C   0  0  0  0  0  0  0  0  0  0  0  0
    1.2867    1.8805    3.1181 C   0  0  0  0  0  0  0  0  0  0  0  0
    2.4428    1.2865    3.6511 C   0  0  0  0  0  0  0  0  0  0  0  0
    2.7756    1.4756    4.9988 C   0  0  0  0  0  0  0  0  0  0  0  0
    4.1397    0.5684    5.7332 S   0  0  0  0  0  0  0  0  0  0  0  0
    5.2337    2.0123    5.9033 C   0  0  0  0  0  0  0  0  0  0  0  0
    1.9748    2.2906    5.7979 C   0  0  0  0  0  0  0  0  0  0  0  0
    0.8494    2.9186    5.2620 C   0  0  0  0  0  0  0  0  0  0  0  0
   -2.1887    2.5841    1.4720 C   0  0  0  0  0  0  0  0  0  0  0  0
   -2.7778    1.0591    1.8006 S   0  0  0  0  0  0  0  0  0  0  0  0
   -3.4862    0.7990    0.2661 C   0  0  0  0  0  0  0  0  0  0  0  0
   -3.2915    1.9812   -0.4956 C   0  0  0  0  0  0  0  0  0  0  0  0
   -3.8224    2.2499   -1.8163 N   0  0  0  0  0  0  0  0  0  0  0  0
   -4.0291    3.6184   -2.2050 C   0  0  0  0  0  0  0  0  0  0  0  0
   -4.7973    4.4726   -1.3943 C   0  0  0  0  0  0  0  0  0  0  0  0
   -4.9534    5.8135   -1.7388 C   0  0  0  0  0  0  0  0  0  0  0  0
   -4.3561    6.3120   -2.9017 C   0  0  0  0  0  0  0  0  0  0  0  0
   -4.5335    8.0479   -3.3222 S   0  0  0  0  0  0  0  0  0  0  0  0
   -3.0736    8.5471   -2.3593 C   0  0  0  0  0  0  0  0  0  0  0  0
   -3.6132    5.4596   -3.7299 C   0  0  0  0  0  0  0  0  0  0  0  0
   -3.4510    4.1163   -3.3829 C   0  0  0  0  0  0  0  0  0  0  0  0
   -4.5578    1.2783   -2.5663 C   0  0  0  0  0  0  0  0  0  0  0  0
   -3.9986    0.7187   -3.7227 C   0  0  0  0  0  0  0  0  0  0  0  0
   -4.7798   -0.0563   -4.5810 C   0  0  0  0  0  0  0  0  0  0  0  0
   -6.1307   -0.2764   -4.2892 C   0  0  0  0  0  0  0  0  0  0  0  0
   -7.1688   -1.1314   -5.4732 S   0  0  0  0  0  0  0  0  0  0  0  0
   -7.6957    0.4033   -6.2971 C   0  0  0  0  0  0  0  0  0  0  0  0
   -6.6869    0.2485   -3.1173 C   0  0  0  0  0  0  0  0  0  0  0  0
   -5.9084    1.0433   -2.2706 C   0  0  0  0  0  0  0  0  0  0  0  0
   -2.5228    2.9183    0.2100 C   0  0  0  0  0  0  0  0  0  0  0  0
   -1.4699    4.1116   -0.3098 S   0  0  0  0  0  0  0  0  0  0  0  0
   -3.3888   -0.5509   -0.3049 C   0  0  0  0  0  0  0  0  0  0  0  0
   -4.4161   -1.3830   -0.7466 C   0  0  0  0  0  0  0  0  0  0  0  0
   -3.9536   -2.6568   -1.1436 C   0  0  0  0  0  0  0  0  0  0  0  0
   -4.7235   -3.7256   -1.6648 C   0  0  0  0  0  0  0  0  0  0  0  0
   -6.1845   -3.6150   -1.9025 C   0  0  0  0  0  0  0  0  0  0  0  0
   -7.0518   -3.2250   -0.8681 C   0  0  0  0  0  0  0  0  0  0  0  0
   -8.4189   -3.0953   -1.1116 C   0  0  0  0  0  0  0  0  0  0  0  0
   -8.9427   -3.3996   -2.3688 C   0  0  0  0  0  0  0  0  0  0  0  0
   -8.1082   -3.8379   -3.4009 C   0  0  0  0  0  0  0  0  0  0  0  0
   -8.6991   -4.1725   -4.6300 O   0  0  0  0  0  0  0  0  0  0  0  0
   -8.0391   -4.8020   -5.7307 C   0  0  0  0  0  0  0  0  0  0  0  0
   -7.7566   -6.2736   -5.4250 C   0  0  0  0  0  0  0  0  0  0  0  0
   -6.7185   -3.9200   -3.1695 C   0  0  0  0  0  0  0  0  0  0  0  0
   -4.0306   -4.9248   -1.9456 C   0  0  0  0  0  0  0  0  0  0  0  0
   -2.6491   -5.0652   -1.7559 C   0  0  0  0  0  0  0  0  0  0  0  0
   -1.8834   -3.9831   -1.2917 C   0  0  0  0  0  0  0  0  0  0  0  0
   -0.4121   -4.0530   -1.1826 C   0  0  0  0  0  0  0  0  0  0  0  0
    0.2116   -4.0903    0.0753 C   0  0  0  0  0  0  0  0  0  0  0  0
    1.6058   -4.0803    0.1701 C   0  0  0  0  0  0  0  0  0  0  0  0
    2.3853   -4.0082   -0.9869 C   0  0  0  0  0  0  0  0  0  0  0  0
    1.7716   -3.9562   -2.2536 C   0  0  0  0  0  0  0  0  0  0  0  0
    2.5088   -3.8325   -3.4413 O   0  0  0  0  0  0  0  0  0  0  0  0
    3.9001   -3.5231   -3.4962 C   0  0  0  0  0  0  0  0  0  0  0  0
    4.2988   -3.2558   -4.9400 C   0  0  0  0  0  0  0  0  0  0  0  0
    0.3758   -4.0085   -2.3428 C   0  0  0  0  0  0  0  0  0  0  0  0
   -2.5711   -2.8055   -0.9784 C   0  0  0  0  0  0  0  0  0  0  0  0
   -1.9328   -1.3918   -0.3594 S   0  0  0  0  0  0  0  0  0  0  0  0
   -2.1820   -6.3682   -1.9885 C   0  0  0  0  0  0  0  0  0  0  0  0
   -3.1997   -7.2462   -2.3398 C   0  0  0  0  0  0  0  0  0  0  0  0
   -4.6712   -6.4253   -2.3796 S   0  0  0  0  0  0  0  0  0  0  0  0
   -3.0552   -8.7019   -2.4397 C   0  0  0  0  0  0  0  0  0  0  0  0
   -3.3393   -9.5216   -1.4149 C   0  0  0  0  0  0  0  0  0  0  0  0
   -3.9249   -9.1201   -0.1301 C   0  0  0  0  0  0  0  0  0  0  0  0
   -3.9190   -7.9638    0.3714 O   0  0  0  0  0  0  0  0  0  0  0  0
   -4.5389  -10.2814    0.4699 C   0  0  0  0  0  0  0  0  0  0  0  0
   -5.3100  -10.3479    1.6242 C   0  0  0  0  0  0  0  0  0  0  0  0
   -5.9094  -11.5766    1.9711 C   0  0  0  0  0  0  0  0  0  0  0  0
   -6.6882  -11.7147    3.1325 O   0  0  0  0  0  0  0  0  0  0  0  0
   -6.9197  -10.6727    4.0779 C   0  0  0  0  0  0  0  0  0  0  0  0
   -5.7465  -12.7019    1.1319 C   0  0  0  0  0  0  0  0  0  0  0  0
   -6.4087  -13.8892    1.4796 O   0  0  0  0  0  0  0  0  0  0  0  0
   -6.3398  -15.0971    0.7229 C   0  0  0  0  0  0  0  0  0  0  0  0
   -4.9408  -12.6027   -0.0319 C   0  0  0  0  0  0  0  0  0  0  0  0
   -4.3080  -11.3868   -0.3270 C   0  0  0  0  0  0  0  0  0  0  0  0
   -3.4268  -11.0107   -1.4631 C   0  0  0  0  0  0  0  0  0  0  0  0
   -2.6245  -11.8389   -2.1799 C   0  0  0  0  0  0  0  0  0  0  0  0
   -1.5542  -11.3353   -2.9958 C   0  0  0  0  0  0  0  0  0  0  0  0
   -0.6831  -10.9288   -3.6404 N   0  0  0  0  0  0  0  0  0  0  0  0
   -2.6656  -13.2732   -2.0290 C   0  0  0  0  0  0  0  0  0  0  0  0
   -2.6963  -14.4225   -1.9164 N   0  0  0  0  0  0  0  0  0  0  0  0
    7.6047    4.7765    0.4081 H   0  0  0  0  0  0  0  0  0  0  0  0
    5.3092   -0.4743    3.1159 H   0  0  0  0  0  0  0  0  0  0  0  0
    9.8708   -0.5222    0.8493 H   0  0  0  0  0  0  0  0  0  0  0  0
    9.2679   -3.4492    2.6182 H   0  0  0  0  0  0  0  0  0  0  0  0
    8.8142   -3.8417   -0.1051 H   0  0  0  0  0  0  0  0  0  0  0  0
    8.4538   -6.2275    1.0004 H   0  0  0  0  0  0  0  0  0  0  0  0
    6.1901   -6.2066    2.3007 H   0  0  0  0  0  0  0  0  0  0  0  0
    5.0929   -3.7985    2.0086 H   0  0  0  0  0  0  0  0  0  0  0  0
    6.1898   -4.2024   -0.3823 H   0  0  0  0  0  0  0  0  0  0  0  0
    6.5086   -2.4979    0.1342 H   0  0  0  0  0  0  0  0  0  0  0  0
    7.1828   -3.3924    3.7851 H   0  0  0  0  0  0  0  0  0  0  0  0
    3.8261    3.2771   -3.6342 H   0  0  0  0  0  0  0  0  0  0  0  0
    2.2252    1.6855   -4.6218 H   0  0  0  0  0  0  0  0  0  0  0  0
   -1.2185   -0.5509   -3.1783 H   0  0  0  0  0  0  0  0  0  0  0  0
   -0.1948    0.3134   -1.9617 H   0  0  0  0  0  0  0  0  0  0  0  0
   -0.4411    1.0295   -3.6041 H   0  0  0  0  0  0  0  0  0  0  0  0
    2.5979   -0.8410   -1.1562 H   0  0  0  0  0  0  0  0  0  0  0  0
    4.1875    0.7662   -0.1488 H   0  0  0  0  0  0  0  0  0  0  0  0
    5.7829    5.5571   -2.0438 H   0  0  0  0  0  0  0  0  0  0  0  0
    7.9032    6.1338   -3.1449 H   0  0  0  0  0  0  0  0  0  0  0  0
   10.3674    4.6153   -6.4031 H   0  0  0  0  0  0  0  0  0  0  0  0
    8.7680    5.2375   -5.8455 H   0  0  0  0  0  0  0  0  0  0  0  0
    9.0833    3.4564   -5.9000 H   0  0  0  0  0  0  0  0  0  0  0  0
    9.0364    1.9811   -3.1585 H   0  0  0  0  0  0  0  0  0  0  0  0
    6.9256    1.3981   -2.0230 H   0  0  0  0  0  0  0  0  0  0  0  0
   -0.6275    5.8954    4.0880 H   0  0  0  0  0  0  0  0  0  0  0  0
   -0.6500    6.1438    6.5404 H   0  0  0  0  0  0  0  0  0  0  0  0
    1.4966    9.4537    8.0179 H   0  0  0  0  0  0  0  0  0  0  0  0
   -0.1474    8.8040    7.6035 H   0  0  0  0  0  0  0  0  0  0  0  0
    0.3181    9.0483    9.3262 H   0  0  0  0  0  0  0  0  0  0  0  0
    3.4404    7.4761    6.4080 H   0  0  0  0  0  0  0  0  0  0  0  0
    3.4471    7.2065    3.9502 H   0  0  0  0  0  0  0  0  0  0  0  0
    2.5380    7.3350    0.1763 H   0  0  0  0  0  0  0  0  0  0  0  0
    1.7506    9.1926   -1.2231 H   0  0  0  0  0  0  0  0  0  0  0  0
    0.0207   12.2221    1.0563 H   0  0  0  0  0  0  0  0  0  0  0  0
    0.2467   13.2472   -0.4098 H   0  0  0  0  0  0  0  0  0  0  0  0
    1.4907   12.0048    0.0112 H   0  0  0  0  0  0  0  0  0  0  0  0
   -1.5868    9.7993    1.4166 H   0  0  0  0  0  0  0  0  0  0  0  0
   -0.8198    7.9456    2.8284 H   0  0  0  0  0  0  0  0  0  0  0  0
   -2.6659    5.1663    3.3595 H   0  0  0  0  0  0  0  0  0  0  0  0
   -4.5089    5.5344    4.9345 H   0  0  0  0  0  0  0  0  0  0  0  0
   -3.8111    5.5993    8.0806 H   0  0  0  0  0  0  0  0  0  0  0  0
   -3.7912    4.0140    8.9623 H   0  0  0  0  0  0  0  0  0  0  0  0
   -5.0928    5.2199    9.2966 H   0  0  0  0  0  0  0  0  0  0  0  0
   -3.4907    1.9054    7.0068 H   0  0  0  0  0  0  0  0  0  0  0  0
   -1.5977    1.5544    5.4711 H   0  0  0  0  0  0  0  0  0  0  0  0
    1.0143    1.6522    2.0954 H   0  0  0  0  0  0  0  0  0  0  0  0
    3.0393    0.6321    3.0272 H   0  0  0  0  0  0  0  0  0  0  0  0
    5.4537    2.4469    4.9128 H   0  0  0  0  0  0  0  0  0  0  0  0
    6.1859    1.6857    6.3723 H   0  0  0  0  0  0  0  0  0  0  0  0
    4.7594    2.7783    6.5517 H   0  0  0  0  0  0  0  0  0  0  0  0
    2.2123    2.4265    6.8435 H   0  0  0  0  0  0  0  0  0  0  0  0
    0.2514    3.5427    5.9112 H   0  0  0  0  0  0  0  0  0  0  0  0
   -5.2565    4.1024   -0.4913 H   0  0  0  0  0  0  0  0  0  0  0  0
   -5.5308    6.4698   -1.0945 H   0  0  0  0  0  0  0  0  0  0  0  0
   -2.9950    9.6515   -2.3705 H   0  0  0  0  0  0  0  0  0  0  0  0
   -3.1635    8.2015   -1.3061 H   0  0  0  0  0  0  0  0  0  0  0  0
   -2.1555    8.1179   -2.8151 H   0  0  0  0  0  0  0  0  0  0  0  0
   -3.1529    5.8410   -4.6324 H   0  0  0  0  0  0  0  0  0  0  0  0
   -2.8517    3.4708   -4.0092 H   0  0  0  0  0  0  0  0  0  0  0  0
   -2.9727    0.9406   -3.9918 H   0  0  0  0  0  0  0  0  0  0  0  0
   -4.3457   -0.4525   -5.4896 H   0  0  0  0  0  0  0  0  0  0  0  0
   -8.2697    0.1456   -7.2092 H   0  0  0  0  0  0  0  0  0  0  0  0
   -8.3429    0.9947   -5.6177 H   0  0  0  0  0  0  0  0  0  0  0  0
   -6.8118    1.0061   -6.5881 H   0  0  0  0  0  0  0  0  0  0  0  0
   -7.7307    0.0766   -2.8788 H   0  0  0  0  0  0  0  0  0  0  0  0
   -6.3581    1.4947   -1.3959 H   0  0  0  0  0  0  0  0  0  0  0  0
   -5.4508   -1.0813   -0.7556 H   0  0  0  0  0  0  0  0  0  0  0  0
   -6.6650   -3.0111    0.1174 H   0  0  0  0  0  0  0  0  0  0  0  0
   -9.0788   -2.7753   -0.3179 H   0  0  0  0  0  0  0  0  0  0  0  0
  -10.0100   -3.3104   -2.5400 H   0  0  0  0  0  0  0  0  0  0  0  0
   -7.1027   -4.2632   -5.9934 H   0  0  0  0  0  0  0  0  0  0  0  0
   -8.7154   -4.7491   -6.6107 H   0  0  0  0  0  0  0  0  0  0  0  0
   -8.6700   -6.7591   -5.0239 H   0  0  0  0  0  0  0  0  0  0  0  0
   -6.9363   -6.3652   -4.6853 H   0  0  0  0  0  0  0  0  0  0  0  0
   -7.4523   -6.7922   -6.3592 H   0  0  0  0  0  0  0  0  0  0  0  0
   -6.0473   -4.2061   -3.9689 H   0  0  0  0  0  0  0  0  0  0  0  0
   -0.3847   -4.1230    0.9795 H   0  0  0  0  0  0  0  0  0  0  0  0
    2.0833   -4.1106    1.1406 H   0  0  0  0  0  0  0  0  0  0  0  0
    3.4644   -3.9760   -0.8915 H   0  0  0  0  0  0  0  0  0  0  0  0
    4.4936   -4.3743   -3.0997 H   0  0  0  0  0  0  0  0  0  0  0  0
    4.1106   -2.6114   -2.8951 H   0  0  0  0  0  0  0  0  0  0  0  0
    5.3729   -2.9782   -4.9884 H   0  0  0  0  0  0  0  0  0  0  0  0
    3.6930   -2.4193   -5.3503 H   0  0  0  0  0  0  0  0  0  0  0  0
    4.1312   -4.1640   -5.5565 H   0  0  0  0  0  0  0  0  0  0  0  0
   -0.0982   -3.9645   -3.3143 H   0  0  0  0  0  0  0  0  0  0  0  0
   -1.1500   -6.6731   -1.8547 H   0  0  0  0  0  0  0  0  0  0  0  0
   -2.7696   -9.0992   -3.4065 H   0  0  0  0  0  0  0  0  0  0  0  0
   -5.4493   -9.4617    2.2260 H   0  0  0  0  0  0  0  0  0  0  0  0
   -5.9579  -10.3253    4.5067 H   0  0  0  0  0  0  0  0  0  0  0  0
   -7.4476   -9.8248    3.5963 H   0  0  0  0  0  0  0  0  0  0  0  0
   -7.5538  -11.0595    4.9024 H   0  0  0  0  0  0  0  0  0  0  0  0
   -6.7886  -14.9484   -0.2840 H   0  0  0  0  0  0  0  0  0  0  0  0
   -5.2816  -15.4280    0.6269 H   0  0  0  0  0  0  0  0  0  0  0  0
   -6.9123  -15.8912    1.2467 H   0  0  0  0  0  0  0  0  0  0  0  0
   -4.8442  -13.4455   -0.6957 H   0  0  0  0  0  0  0  0  0  0  0  0
  1  2  2  3
  2  3  1  0
  3  4  2  0
  3  5  1  0
  5  6  2  0
  6  7  1  0
  7  8  2  0
  8  9  1  0
  9 10  2  0
 10 11  1  0
 11 12  2  3
 12 13  1  0
 13 14  3  0
 12 15  1  0
 15 16  3  0
  8 17  1  0
 17 18  1  0
 18 19  1  0
 19 20  2  0
 20 21  1  0
 21 22  1  0
 21 23  1  0
  1 24  1  0
 24 25  2  0
 25 26  1  0
 26 27  1  0
 27 28  2  0
 28 29  1  0
 29 30  2  0
 30 31  1  0
 31 32  1  0
 30 33  1  0
 33 34  2  0
 26 35  1  0
 35 36  2  0
 36 37  1  0
 37 38  2  0
 38 39  1  0
 39 40  1  0
 38 41  1  0
 41 42  2  0
 25 43  1  0
 43 44  1  0
 44 45  1  0
 45 46  2  0
 46 47  1  0
 47 48  1  0
 48 49  2  0
 49 50  1  0
 50 51  2  0
 51 52  1  0
 52 53  1  0
 51 54  1  0
 54 55  2  0
 47 56  1  0
 56 57  2  0
 57 58  1  0
 58 59  2  0
 59 60  1  0
 60 61  1  0
 59 62  1  0
 62 63  2  0
 46 64  1  0
 64 65  1  0
 45 66  1  0
 66 67  2  0
 67 68  1  0
 68 69  1  0
 69 70  2  0
 70 71  1  0
 71 72  2  0
 72 73  1  0
 73 74  1  0
 72 75  1  0
 75 76  2  0
 68 77  1  0
 77 78  2  0
 78 79  1  0
 79 80  2  0
 80 81  1  0
 81 82  1  0
 80 83  1  0
 83 84  2  0
 67 85  1  0
 85 86  1  0
 86 87  1  0
 87 88  2  0
 88 89  1  0
 89 90  1  0
 90 91  2  0
 91 92  1  0
 92 93  2  0
 93 94  1  0
 94 95  1  0
 93 96  1  0
 96 97  2  0
 89 98  1  0
 98 99  2  0
 99100  1  0
100101  2  0
101102  1  0
102103  1  0
101104  1  0
104105  2  0
 88106  1  0
106107  1  0
 87108  1  0
108109  2  0
109110  1  0
110111  2  0
111112  1  0
112113  2  0
113114  1  0
114115  2  0
115116  1  0
116117  1  0
117118  1  0
118119  1  0
116120  2  0
111121  1  0
121122  2  0
122123  1  0
123124  1  0
124125  2  0
125126  1  0
126127  2  0
127128  1  0
128129  1  0
129130  1  0
130131  1  0
128132  2  0
123133  2  0
133134  1  0
122135  1  0
135136  2  0
136137  1  0
136138  1  0
138139  2  3
139140  1  0
140141  2  0
140142  1  0
142143  2  0
143144  1  0
144145  1  0
145146  1  0
144147  2  0
147148  1  0
148149  1  0
147150  1  0
150151  2  0
151152  1  0
152153  2  3
153154  1  0
154155  3  0
153156  1  0
156157  3  0
 11  2  1  0
 23 17  1  0
 65 24  1  0
107 66  1  0
134108  1  0
152139  1  0
 10  5  1  0
 22 18  1  0
 34 27  1  0
 42 35  1  0
 64 43  2  0
 76 69  1  0
 84 77  1  0
106 85  2  0
133110  1  0
151142  1  0
 23  7  1  0
 55 48  1  0
 63 56  1  0
 97 90  1  0
105 98  1  0
120112  1  0
137121  1  0
132124  1  0
  1158  1  0
  6159  1  0
  9160  1  0
 17161  1  0
 18162  1  0
 19163  1  0
 20164  1  0
 21165  1  0
 22166  1  0
 22167  1  0
 23168  1  0
 28169  1  0
 29170  1  0
 32171  1  0
 32172  1  0
 32173  1  0
 33174  1  0
 34175  1  0
 36176  1  0
 37177  1  0
 40178  1  0
 40179  1  0
 40180  1  0
 41181  1  0
 42182  1  0
 49183  1  0
 50184  1  0
 53185  1  0
 53186  1  0
 53187  1  0
 54188  1  0
 55189  1  0
 57190  1  0
 58191  1  0
 61192  1  0
 61193  1  0
 61194  1  0
 62195  1  0
 63196  1  0
 70197  1  0
 71198  1  0
 74199  1  0
 74200  1  0
 74201  1  0
 75202  1  0
 76203  1  0
 78204  1  0
 79205  1  0
 82206  1  0
 82207  1  0
 82208  1  0
 83209  1  0
 84210  1  0
 91211  1  0
 92212  1  0
 95213  1  0
 95214  1  0
 95215  1  0
 96216  1  0
 97217  1  0
 99218  1  0
100219  1  0
103220  1  0
103221  1  0
103222  1  0
104223  1  0
105224  1  0
109225  1  0
113226  1  0
114227  1  0
115228  1  0
118229  1  0
118230  1  0
119231  1  0
119232  1  0
119233  1  0
120234  1  0
125235  1  0
126236  1  0
127237  1  0
130238  1  0
130239  1  0
131240  1  0
131241  1  0
131242  1  0
132243  1  0
135244  1  0
138245  1  0
143246  1  0
146247  1  0
146248  1  0
146249  1  0
149250  1  0
149251  1  0
149252  1  0
150253  1  0
M  END

