
     RDKit          3D

154173  0  0  0  0  0  0  0  0999 V2000
   -4.3742    6.9086   -2.3008 C   0  0  0  0  0  0  0  0  0  0  0  0
   -4.7476    5.6771   -2.7147 C   0  0  0  0  0  0  0  0  0  0  0  0
   -4.1413    4.4111   -2.2717 C   0  0  0  0  0  0  0  0  0  0  0  0
   -3.3772    4.2474   -1.2823 O   0  0  0  0  0  0  0  0  0  0  0  0
   -4.5180    3.3661   -3.1933 C   0  0  0  0  0  0  0  0  0  0  0  0
   -4.0835    2.0200   -3.1702 C   0  0  0  0  0  0  0  0  0  0  0  0
   -4.5617    1.2583   -4.2200 C   0  0  0  0  0  0  0  0  0  0  0  0
   -5.4162    1.7854   -5.2411 C   0  0  0  0  0  0  0  0  0  0  0  0
   -5.8377    3.1051   -5.2710 C   0  0  0  0  0  0  0  0  0  0  0  0
   -5.3726    3.9057   -4.1876 C   0  0  0  0  0  0  0  0  0  0  0  0
   -5.6345    5.3459   -3.8755 C   0  0  0  0  0  0  0  0  0  0  0  0
   -6.6241    6.1247   -4.3867 C   0  0  0  0  0  0  0  0  0  0  0  0
   -6.9793    7.3950   -3.8051 C   0  0  0  0  0  0  0  0  0  0  0  0
   -7.2778    8.4090   -3.3362 N   0  0  0  0  0  0  0  0  0  0  0  0
   -7.4983    5.6862   -5.4444 C   0  0  0  0  0  0  0  0  0  0  0  0
   -8.2138    5.3502   -6.2911 N   0  0  0  0  0  0  0  0  0  0  0  0
   -5.4753    0.4432   -5.9072 C   0  0  0  0  0  0  0  0  0  0  0  0
   -6.7908   -0.3671   -5.7192 C   0  0  0  0  0  0  0  0  0  0  0  0
   -6.4667   -1.7849   -6.1250 C   0  0  0  0  0  0  0  0  0  0  0  0
   -5.6615   -2.2740   -5.1762 C   0  0  0  0  0  0  0  0  0  0  0  0
   -5.4701   -1.1715   -4.1650 C   0  0  0  0  0  0  0  0  0  0  0  0
   -6.8617   -0.5661   -4.2145 C   0  0  0  0  0  0  0  0  0  0  0  0
   -4.5930   -0.0930   -4.8678 C   0  0  0  0  0  0  0  0  0  0  0  0
   -3.4042    7.1039   -1.2190 C   0  0  0  0  0  0  0  0  0  0  0  0
   -1.7406    7.3181   -1.5212 S   0  0  0  0  0  0  0  0  0  0  0  0
   -1.3577    6.9645    0.0703 C   0  0  0  0  0  0  0  0  0  0  0  0
   -0.2203    6.4008    0.5342 N   0  0  0  0  0  0  0  0  0  0  0  0
   -0.4680    5.7331    1.6933 C   0  0  0  0  0  0  0  0  0  0  0  0
   -2.1304    5.7576    2.0928 S   0  0  0  0  0  0  0  0  0  0  0  0
   -2.4979    6.7021    0.7633 C   0  0  0  0  0  0  0  0  0  0  0  0
   -3.6542    6.7226    0.0630 N   0  0  0  0  0  0  0  0  0  0  0  0
    0.4582    4.7038    2.1942 C   0  0  0  0  0  0  0  0  0  0  0  0
    1.8260    4.6048    1.8527 C   0  0  0  0  0  0  0  0  0  0  0  0
    2.6288    5.7053    1.3632 N   0  0  0  0  0  0  0  0  0  0  0  0
    2.4420    7.0329    1.9023 C   0  0  0  0  0  0  0  0  0  0  0  0
    2.1723    7.2184    3.2711 C   0  0  0  0  0  0  0  0  0  0  0  0
    1.8843    8.4908    3.7701 C   0  0  0  0  0  0  0  0  0  0  0  0
    1.8633    9.5935    2.9077 C   0  0  0  0  0  0  0  0  0  0  0  0
    1.4078   11.2103    3.5309 S   0  0  0  0  0  0  0  0  0  0  0  0
   -0.3645   10.9715    3.1830 C   0  0  0  0  0  0  0  0  0  0  0  0
    2.1790    9.4274    1.5555 C   0  0  0  0  0  0  0  0  0  0  0  0
    2.4680    8.1551    1.0530 C   0  0  0  0  0  0  0  0  0  0  0  0
    3.6284    5.4811    0.3500 C   0  0  0  0  0  0  0  0  0  0  0  0
    4.9367    5.9638    0.5252 C   0  0  0  0  0  0  0  0  0  0  0  0
    5.9162    5.7114   -0.4371 C   0  0  0  0  0  0  0  0  0  0  0  0
    5.5977    4.9687   -1.5807 C   0  0  0  0  0  0  0  0  0  0  0  0
    6.8653    4.5995   -2.7919 S   0  0  0  0  0  0  0  0  0  0  0  0
    7.3904    3.0783   -1.9402 C   0  0  0  0  0  0  0  0  0  0  0  0
    4.2895    4.5086   -1.7763 C   0  0  0  0  0  0  0  0  0  0  0  0
    3.3072    4.7702   -0.8166 C   0  0  0  0  0  0  0  0  0  0  0  0
    2.2800    3.2864    1.9956 C   0  0  0  0  0  0  0  0  0  0  0  0
    3.6646    2.4419    1.5276 S   0  0  0  0  0  0  0  0  0  0  0  0
    2.9982    0.9083    1.8544 C   0  0  0  0  0  0  0  0  0  0  0  0
    1.6981    1.0635    2.3481 C   0  0  0  0  0  0  0  0  0  0  0  0
    0.8535   -0.0221    2.7601 N   0  0  0  0  0  0  0  0  0  0  0  0
    0.9981   -0.4893    4.1075 C   0  0  0  0  0  0  0  0  0  0  0  0
    0.1137   -0.0453    5.0982 C   0  0  0  0  0  0  0  0  0  0  0  0
    0.2979   -0.4343    6.4265 C   0  0  0  0  0  0  0  0  0  0  0  0
    1.3676   -1.2692    6.7700 C   0  0  0  0  0  0  0  0  0  0  0  0
    1.6329   -1.7122    8.4886 S   0  0  0  0  0  0  0  0  0  0  0  0
    2.6893   -0.2675    8.8231 C   0  0  0  0  0  0  0  0  0  0  0  0
    2.2326   -1.7392    5.7764 C   0  0  0  0  0  0  0  0  0  0  0  0
    2.0466   -1.3534    4.4503 C   0  0  0  0  0  0  0  0  0  0  0  0
   -0.0548   -0.6690    1.8423 C   0  0  0  0  0  0  0  0  0  0  0  0
   -0.6914    0.0604    0.8171 C   0  0  0  0  0  0  0  0  0  0  0  0
   -1.5683   -0.5762   -0.0642 C   0  0  0  0  0  0  0  0  0  0  0  0
   -1.8067   -1.9487    0.0494 C   0  0  0  0  0  0  0  0  0  0  0  0
   -2.9422   -2.7629   -1.0782 S   0  0  0  0  0  0  0  0  0  0  0  0
   -1.6584   -3.1037   -2.3179 C   0  0  0  0  0  0  0  0  0  0  0  0
   -1.1650   -2.6898    1.0488 C   0  0  0  0  0  0  0  0  0  0  0  0
   -0.3004   -2.0547    1.9432 C   0  0  0  0  0  0  0  0  0  0  0  0
    1.3451    2.4030    2.4334 C   0  0  0  0  0  0  0  0  0  0  0  0
   -0.1099    3.1776    2.6971 S   0  0  0  0  0  0  0  0  0  0  0  0
    3.5729   -0.3693    1.4307 C   0  0  0  0  0  0  0  0  0  0  0  0
    5.1783   -0.8821    1.7460 S   0  0  0  0  0  0  0  0  0  0  0  0
    4.8311   -2.3896    1.0986 C   0  0  0  0  0  0  0  0  0  0  0  0
    5.5371   -3.5409    1.0435 N   0  0  0  0  0  0  0  0  0  0  0  0
    4.7355   -4.5206    0.5313 C   0  0  0  0  0  0  0  0  0  0  0  0
    3.1657   -3.9535    0.1169 S   0  0  0  0  0  0  0  0  0  0  0  0
    3.5596   -2.4307    0.6674 C   0  0  0  0  0  0  0  0  0  0  0  0
    2.8087   -1.3303    0.8453 N   0  0  0  0  0  0  0  0  0  0  0  0
    5.2119   -5.8971    0.3148 C   0  0  0  0  0  0  0  0  0  0  0  0
    4.4169   -6.9843    0.3237 C   0  0  0  0  0  0  0  0  0  0  0  0
    4.7348   -8.1940   -0.4346 C   0  0  0  0  0  0  0  0  0  0  0  0
    5.8697   -8.5155   -0.8779 O   0  0  0  0  0  0  0  0  0  0  0  0
    3.4999   -8.9067   -0.6997 C   0  0  0  0  0  0  0  0  0  0  0  0
    3.3175  -10.0408   -1.5263 C   0  0  0  0  0  0  0  0  0  0  0  0
    1.9947  -10.4147   -1.6772 C   0  0  0  0  0  0  0  0  0  0  0  0
    0.9083   -9.7152   -1.0600 C   0  0  0  0  0  0  0  0  0  0  0  0
    1.0799   -8.6080   -0.2455 C   0  0  0  0  0  0  0  0  0  0  0  0
    2.4332   -8.2229   -0.0593 C   0  0  0  0  0  0  0  0  0  0  0  0
    2.9894   -7.1009    0.7371 C   0  0  0  0  0  0  0  0  0  0  0  0
    2.4603   -6.6076    1.8868 C   0  0  0  0  0  0  0  0  0  0  0  0
    3.2681   -5.8881    2.8389 C   0  0  0  0  0  0  0  0  0  0  0  0
    3.9184   -5.3161    3.6095 N   0  0  0  0  0  0  0  0  0  0  0  0
    1.1092   -6.8860    2.3027 C   0  0  0  0  0  0  0  0  0  0  0  0
    0.0257   -7.1039    2.6458 N   0  0  0  0  0  0  0  0  0  0  0  0
   -0.0751  -10.6548   -1.6885 C   0  0  0  0  0  0  0  0  0  0  0  0
   -0.7154  -11.7172   -0.7472 C   0  0  0  0  0  0  0  0  0  0  0  0
   -1.3324  -12.7555   -1.6528 C   0  0  0  0  0  0  0  0  0  0  0  0
   -0.3151  -13.4132   -2.2221 C   0  0  0  0  0  0  0  0  0  0  0  0
    0.9519  -12.7967   -1.6797 C   0  0  0  0  0  0  0  0  0  0  0  0
    0.4831  -12.5148   -0.2612 C   0  0  0  0  0  0  0  0  0  0  0  0
    1.0371  -11.3756   -2.3127 C   0  0  0  0  0  0  0  0  0  0  0  0
   -4.6733    7.7903   -2.8391 H   0  0  0  0  0  0  0  0  0  0  0  0
   -3.4315    1.6175   -2.4054 H   0  0  0  0  0  0  0  0  0  0  0  0
   -6.4567    3.4570   -6.0755 H   0  0  0  0  0  0  0  0  0  0  0  0
   -5.0435    0.4348   -6.9324 H   0  0  0  0  0  0  0  0  0  0  0  0
   -7.6989    0.0665   -6.1943 H   0  0  0  0  0  0  0  0  0  0  0  0
   -6.8846   -2.3448   -6.9541 H   0  0  0  0  0  0  0  0  0  0  0  0
   -5.3132   -3.2985   -5.1036 H   0  0  0  0  0  0  0  0  0  0  0  0
   -5.1168   -1.5008   -3.1642 H   0  0  0  0  0  0  0  0  0  0  0  0
   -7.6613   -1.2735   -3.8976 H   0  0  0  0  0  0  0  0  0  0  0  0
   -6.9728    0.3771   -3.6353 H   0  0  0  0  0  0  0  0  0  0  0  0
   -3.6019   -0.4407   -5.2330 H   0  0  0  0  0  0  0  0  0  0  0  0
    2.1726    6.3732    3.9476 H   0  0  0  0  0  0  0  0  0  0  0  0
    1.6533    8.6151    4.8213 H   0  0  0  0  0  0  0  0  0  0  0  0
   -0.9184   11.8927    3.4576 H   0  0  0  0  0  0  0  0  0  0  0  0
   -0.7583   10.1218    3.7799 H   0  0  0  0  0  0  0  0  0  0  0  0
   -0.5181   10.7697    2.1028 H   0  0  0  0  0  0  0  0  0  0  0  0
    2.1722   10.2786    0.8855 H   0  0  0  0  0  0  0  0  0  0  0  0
    2.6742    8.0402   -0.0036 H   0  0  0  0  0  0  0  0  0  0  0  0
    5.1956    6.5160    1.4202 H   0  0  0  0  0  0  0  0  0  0  0  0
    6.9272    6.0716   -0.2830 H   0  0  0  0  0  0  0  0  0  0  0  0
    6.5439    2.3617   -1.8822 H   0  0  0  0  0  0  0  0  0  0  0  0
    8.2205    2.6097   -2.5080 H   0  0  0  0  0  0  0  0  0  0  0  0
    7.7477    3.3202   -0.9189 H   0  0  0  0  0  0  0  0  0  0  0  0
    4.0350    3.9418   -2.6644 H   0  0  0  0  0  0  0  0  0  0  0  0
    2.2978    4.4126   -0.9727 H   0  0  0  0  0  0  0  0  0  0  0  0
   -0.7043    0.6141    4.8416 H   0  0  0  0  0  0  0  0  0  0  0  0
   -0.3781   -0.0775    7.1898 H   0  0  0  0  0  0  0  0  0  0  0  0
    2.8373   -0.1805    9.9164 H   0  0  0  0  0  0  0  0  0  0  0  0
    3.6726   -0.3930    8.3243 H   0  0  0  0  0  0  0  0  0  0  0  0
    2.2043    0.6649    8.4575 H   0  0  0  0  0  0  0  0  0  0  0  0
    3.0583   -2.3914    6.0327 H   0  0  0  0  0  0  0  0  0  0  0  0
    2.7260   -1.7192    3.6917 H   0  0  0  0  0  0  0  0  0  0  0  0
   -0.5153    1.1204    0.6996 H   0  0  0  0  0  0  0  0  0  0  0  0
   -2.0595   -0.0016   -0.8417 H   0  0  0  0  0  0  0  0  0  0  0  0
   -0.8384   -3.7096   -1.8727 H   0  0  0  0  0  0  0  0  0  0  0  0
   -1.2465   -2.1464   -2.7035 H   0  0  0  0  0  0  0  0  0  0  0  0
   -2.1124   -3.6650   -3.1575 H   0  0  0  0  0  0  0  0  0  0  0  0
   -1.3368   -3.7565    1.1358 H   0  0  0  0  0  0  0  0  0  0  0  0
    0.1979   -2.6505    2.6987 H   0  0  0  0  0  0  0  0  0  0  0  0
    6.2411   -6.0084    0.0014 H   0  0  0  0  0  0  0  0  0  0  0  0
    4.1318  -10.5508   -2.0224 H   0  0  0  0  0  0  0  0  0  0  0  0
    0.2344   -8.0772    0.1646 H   0  0  0  0  0  0  0  0  0  0  0  0
   -0.7709  -10.1600   -2.4024 H   0  0  0  0  0  0  0  0  0  0  0  0
   -1.3850  -11.3168    0.0461 H   0  0  0  0  0  0  0  0  0  0  0  0
   -2.3850  -12.9960   -1.7645 H   0  0  0  0  0  0  0  0  0  0  0  0
   -0.4010  -14.2771   -2.8730 H   0  0  0  0  0  0  0  0  0  0  0  0
    1.8642  -13.4258   -1.7767 H   0  0  0  0  0  0  0  0  0  0  0  0
    1.2062  -11.9330    0.3522 H   0  0  0  0  0  0  0  0  0  0  0  0
    0.2008  -13.4372    0.2975 H   0  0  0  0  0  0  0  0  0  0  0  0
    1.0465  -11.3432   -3.4240 H   0  0  0  0  0  0  0  0  0  0  0  0
  1  2  2  3
  2  3  1  0
  3  4  2  0
  3  5  1  0
  5  6  2  0
  6  7  1  0
  7  8  2  0
  8  9  1  0
  9 10  2  0
 10 11  1  0
 11 12  2  3
 12 13  1  0
 13 14  3  0
 12 15  1  0
 15 16  3  0
  8 17  1  0
 17 18  1  0
 18 19  1  0
 19 20  2  0
 20 21  1  0
 21 22  1  0
 21 23  1  0
  1 24  1  0
 24 25  1  0
 25 26  1  0
 26 27  1  0
 27 28  2  0
 28 29  1  0
 29 30  1  0
 30 31  1  0
 28 32  1  0
 32 33  2  0
 33 34  1  0
 34 35  1  0
 35 36  2  0
 36 37  1  0
 37 38  2  0
 38 39  1  0
 39 40  1  0
 38 41  1  0
 41 42  2  0
 34 43  1  0
 43 44  2  0
 44 45  1  0
 45 46  2  0
 46 47  1  0
 47 48  1  0
 46 49  1  0
 49 50  2  0
 33 51  1  0
 51 52  1  0
 52 53  1  0
 53 54  2  0
 54 55  1  0
 55 56  1  0
 56 57  2  0
 57 58  1  0
 58 59  2  0
 59 60  1  0
 60 61  1  0
 59 62  1  0
 62 63  2  0
 55 64  1  0
 64 65  2  0
 65 66  1  0
 66 67  2  0
 67 68  1  0
 68 69  1  0
 67 70  1  0
 70 71  2  0
 54 72  1  0
 72 73  1  0
 53 74  1  0
 74 75  1  0
 75 76  1  0
 76 77  1  0
 77 78  2  0
 78 79  1  0
 79 80  1  0
 80 81  1  0
 78 82  1  0
 82 83  2  3
 83 84  1  0
 84 85  2  0
 84 86  1  0
 86 87  2  0
 87 88  1  0
 88 89  2  0
 89 90  1  0
 90 91  2  0
 91 92  1  0
 92 93  2  3
 93 94  1  0
 94 95  3  0
 93 96  1  0
 96 97  3  0
 89 98  1  0
 98 99  1  0
 99100  1  0
100101  2  0
101102  1  0
102103  1  0
102104  1  0
 11  2  1  0
 23 17  1  0
 31 24  2  0
 73 32  1  0
 81 74  2  0
 92 83  1  0
104 98  1  0
 10  5  1  0
 22 18  1  0
 30 26  2  0
 42 35  1  0
 50 43  1  0
 72 51  2  0
 80 76  2  0
 91 86  1  0
103 99  1  0
 23  7  1  0
 63 56  1  0
 71 64  1  0
104 88  1  0
  1105  1  0
  6106  1  0
  9107  1  0
 17108  1  0
 18109  1  0
 19110  1  0
 20111  1  0
 21112  1  0
 22113  1  0
 22114  1  0
 23115  1  0
 36116  1  0
 37117  1  0
 40118  1  0
 40119  1  0
 40120  1  0
 41121  1  0
 42122  1  0
 44123  1  0
 45124  1  0
 48125  1  0
 48126  1  0
 48127  1  0
 49128  1  0
 50129  1  0
 57130  1  0
 58131  1  0
 61132  1  0
 61133  1  0
 61134  1  0
 62135  1  0
 63136  1  0
 65137  1  0
 66138  1  0
 69139  1  0
 69140  1  0
 69141  1  0
 70142  1  0
 71143  1  0
 82144  1  0
 87145  1  0
 90146  1  0
 98147  1  0
 99148  1  0
100149  1  0
101150  1  0
102151  1  0
103152  1  0
103153  1  0
104154  1  0
M  END

