
     RDKit          3D

221241  0  0  0  0  0  0  0  0999 V2000
   -7.2860   -1.9850   -2.1067 C   0  0  0  0  0  0  0  0  0  0  0  0
   -7.8082   -2.6032   -1.0253 C   0  0  0  0  0  0  0  0  0  0  0  0
   -7.1359   -2.7652    0.2831 C   0  0  0  0  0  0  0  0  0  0  0  0
   -5.9667   -2.4077    0.5876 O   0  0  0  0  0  0  0  0  0  0  0  0
   -8.0918   -3.2594    1.2416 C   0  0  0  0  0  0  0  0  0  0  0  0
   -7.8790   -3.4148    2.6299 C   0  0  0  0  0  0  0  0  0  0  0  0
   -9.0260   -3.7054    3.3419 C   0  0  0  0  0  0  0  0  0  0  0  0
  -10.3159   -3.8140    2.7326 C   0  0  0  0  0  0  0  0  0  0  0  0
  -10.5308   -3.6526    1.3721 C   0  0  0  0  0  0  0  0  0  0  0  0
   -9.3536   -3.3964    0.6138 C   0  0  0  0  0  0  0  0  0  0  0  0
   -9.2129   -3.0953   -0.8416 C   0  0  0  0  0  0  0  0  0  0  0  0
  -10.1025   -3.4273   -1.8173 C   0  0  0  0  0  0  0  0  0  0  0  0
   -9.8220   -3.2658   -3.2214 C   0  0  0  0  0  0  0  0  0  0  0  0
   -9.6198   -3.1597   -4.3530 N   0  0  0  0  0  0  0  0  0  0  0  0
  -11.3315   -4.1269   -1.5292 C   0  0  0  0  0  0  0  0  0  0  0  0
  -12.3171   -4.6972   -1.3161 N   0  0  0  0  0  0  0  0  0  0  0  0
  -10.9512   -4.0170    4.0777 C   0  0  0  0  0  0  0  0  0  0  0  0
  -11.7308   -2.8166    4.7033 C   0  0  0  0  0  0  0  0  0  0  0  0
  -11.1289   -1.5011    4.2530 C   0  0  0  0  0  0  0  0  0  0  0  0
   -9.9230   -1.4227    4.8173 C   0  0  0  0  0  0  0  0  0  0  0  0
   -9.7462   -2.6790    5.6363 C   0  0  0  0  0  0  0  0  0  0  0  0
  -11.1769   -2.8562    6.1157 C   0  0  0  0  0  0  0  0  0  0  0  0
   -9.6277   -3.9212    4.7013 C   0  0  0  0  0  0  0  0  0  0  0  0
   -5.8822   -1.5437   -2.1742 C   0  0  0  0  0  0  0  0  0  0  0  0
   -4.7411   -2.3258   -1.8773 C   0  0  0  0  0  0  0  0  0  0  0  0
   -4.6348   -3.7593   -2.0344 N   0  0  0  0  0  0  0  0  0  0  0  0
   -3.3497   -4.3560   -2.2837 C   0  0  0  0  0  0  0  0  0  0  0  0
   -2.8989   -5.4141   -1.4810 C   0  0  0  0  0  0  0  0  0  0  0  0
   -1.8047   -6.1847   -1.8834 C   0  0  0  0  0  0  0  0  0  0  0  0
   -1.1557   -5.9137   -3.0948 C   0  0  0  0  0  0  0  0  0  0  0  0
    0.0475   -7.0745   -3.7438 S   0  0  0  0  0  0  0  0  0  0  0  0
    1.5001   -6.0967   -3.2660 C   0  0  0  0  0  0  0  0  0  0  0  0
   -1.5534   -4.8099   -3.8622 C   0  0  0  0  0  0  0  0  0  0  0  0
   -2.6441   -4.0325   -3.4595 C   0  0  0  0  0  0  0  0  0  0  0  0
   -5.7250   -4.5075   -2.5962 C   0  0  0  0  0  0  0  0  0  0  0  0
   -6.3114   -5.5518   -1.8669 C   0  0  0  0  0  0  0  0  0  0  0  0
   -7.3129   -6.3358   -2.4498 C   0  0  0  0  0  0  0  0  0  0  0  0
   -7.7268   -6.0845   -3.7691 C   0  0  0  0  0  0  0  0  0  0  0  0
   -9.0120   -7.0860   -4.5187 S   0  0  0  0  0  0  0  0  0  0  0  0
   -7.8322   -8.1900   -5.3640 C   0  0  0  0  0  0  0  0  0  0  0  0
   -7.1339   -5.0474   -4.4980 C   0  0  0  0  0  0  0  0  0  0  0  0
   -6.1304   -4.2700   -3.9226 C   0  0  0  0  0  0  0  0  0  0  0  0
   -3.6967   -1.5040   -1.4650 C   0  0  0  0  0  0  0  0  0  0  0  0
   -2.2811   -1.7455   -0.6271 S   0  0  0  0  0  0  0  0  0  0  0  0
   -1.8830   -0.0886   -0.4482 C   0  0  0  0  0  0  0  0  0  0  0  0
   -2.8683    0.6553   -1.1556 C   0  0  0  0  0  0  0  0  0  0  0  0
   -2.5947    1.8447   -1.9202 N   0  0  0  0  0  0  0  0  0  0  0  0
   -1.6089    1.7853   -2.9877 C   0  0  0  0  0  0  0  0  0  0  0  0
   -1.3775    0.5895   -3.6996 C   0  0  0  0  0  0  0  0  0  0  0  0
   -0.4441    0.5454   -4.7396 C   0  0  0  0  0  0  0  0  0  0  0  0
    0.2878    1.6918   -5.0743 C   0  0  0  0  0  0  0  0  0  0  0  0
    1.4536    1.6406   -6.4360 S   0  0  0  0  0  0  0  0  0  0  0  0
    2.8162    0.9934   -5.4170 C   0  0  0  0  0  0  0  0  0  0  0  0
    0.0754    2.8834   -4.3745 C   0  0  0  0  0  0  0  0  0  0  0  0
   -0.8740    2.9356   -3.3471 C   0  0  0  0  0  0  0  0  0  0  0  0
   -3.5355    2.9367   -1.8483 C   0  0  0  0  0  0  0  0  0  0  0  0
   -4.0156    3.3655   -0.6006 C   0  0  0  0  0  0  0  0  0  0  0  0
   -5.0002    4.3550   -0.5284 C   0  0  0  0  0  0  0  0  0  0  0  0
   -5.5169    4.9238   -1.7013 C   0  0  0  0  0  0  0  0  0  0  0  0
   -6.8357    6.1393   -1.6056 S   0  0  0  0  0  0  0  0  0  0  0  0
   -5.6995    7.5560   -1.5233 C   0  0  0  0  0  0  0  0  0  0  0  0
   -5.0297    4.5132   -2.9476 C   0  0  0  0  0  0  0  0  0  0  0  0
   -4.0433    3.5260   -3.0235 C   0  0  0  0  0  0  0  0  0  0  0  0
   -3.9061   -0.1764   -1.5814 C   0  0  0  0  0  0  0  0  0  0  0  0
   -5.4658    0.1049   -2.1227 S   0  0  0  0  0  0  0  0  0  0  0  0
   -0.7951    0.4054    0.4821 C   0  0  0  0  0  0  0  0  0  0  0  0
   -0.2089    1.6876    0.3474 C   0  0  0  0  0  0  0  0  0  0  0  0
   -0.7234    2.6363   -0.4518 F   0  0  0  0  0  0  0  0  0  0  0  0
    0.9855    2.0078    0.9927 C   0  0  0  0  0  0  0  0  0  0  0  0
    1.6376    3.1241    0.5876 F   0  0  0  0  0  0  0  0  0  0  0  0
    1.5774    1.1177    1.9010 C   0  0  0  0  0  0  0  0  0  0  0  0
    0.9021   -0.0689    2.2134 C   0  0  0  0  0  0  0  0  0  0  0  0
    1.4350   -0.9380    3.1149 N   0  0  0  0  0  0  0  0  0  0  0  0
    0.8695   -2.1427    3.3894 C   0  0  0  0  0  0  0  0  0  0  0  0
    1.5683   -3.0394    4.3734 C   0  0  0  0  0  0  0  0  0  0  0  0
    0.8803   -3.0286    5.7356 C   0  0  0  0  0  0  0  0  0  0  0  0
   -0.3288   -2.4962    2.7234 C   0  0  0  0  0  0  0  0  0  0  0  0
   -0.8483   -1.6211    1.8223 N   0  0  0  0  0  0  0  0  0  0  0  0
   -0.2743   -0.4278    1.5185 C   0  0  0  0  0  0  0  0  0  0  0  0
   -1.0134   -3.8301    2.8808 C   0  0  0  0  0  0  0  0  0  0  0  0
   -2.4629   -3.6538    3.3270 C   0  0  0  0  0  0  0  0  0  0  0  0
    3.0279    1.2229    2.1650 C   0  0  0  0  0  0  0  0  0  0  0  0
    3.7396    2.4275    2.3416 C   0  0  0  0  0  0  0  0  0  0  0  0
    3.4377    3.3902    3.3642 N   0  0  0  0  0  0  0  0  0  0  0  0
    2.2083    4.1246    3.3599 C   0  0  0  0  0  0  0  0  0  0  0  0
    2.0426    5.2011    2.4762 C   0  0  0  0  0  0  0  0  0  0  0  0
    0.8946    5.9909    2.5412 C   0  0  0  0  0  0  0  0  0  0  0  0
   -0.0847    5.7249    3.5110 C   0  0  0  0  0  0  0  0  0  0  0  0
   -1.5286    6.7779    3.6263 S   0  0  0  0  0  0  0  0  0  0  0  0
   -0.7413    7.9028    4.8263 C   0  0  0  0  0  0  0  0  0  0  0  0
    0.0777    4.6532    4.3948 C   0  0  0  0  0  0  0  0  0  0  0  0
    1.2262    3.8561    4.3235 C   0  0  0  0  0  0  0  0  0  0  0  0
    4.4025    3.6172    4.4128 C   0  0  0  0  0  0  0  0  0  0  0  0
    5.1034    2.5320    4.9754 C   0  0  0  0  0  0  0  0  0  0  0  0
    6.1087    2.7517    5.9204 C   0  0  0  0  0  0  0  0  0  0  0  0
    6.4260    4.0576    6.3171 C   0  0  0  0  0  0  0  0  0  0  0  0
    7.7408    4.3446    7.4990 S   0  0  0  0  0  0  0  0  0  0  0  0
    9.0299    4.4366    6.2174 C   0  0  0  0  0  0  0  0  0  0  0  0
    5.7113    5.1398    5.7876 C   0  0  0  0  0  0  0  0  0  0  0  0
    4.6997    4.9224    4.8472 C   0  0  0  0  0  0  0  0  0  0  0  0
    4.9888    2.3777    1.7238 C   0  0  0  0  0  0  0  0  0  0  0  0
    5.9175    3.6055    1.0574 S   0  0  0  0  0  0  0  0  0  0  0  0
    6.7721    2.5926   -0.0219 C   0  0  0  0  0  0  0  0  0  0  0  0
    6.2984    1.2774    0.1415 C   0  0  0  0  0  0  0  0  0  0  0  0
    6.6022    0.1996   -0.7758 N   0  0  0  0  0  0  0  0  0  0  0  0
    5.5154   -0.4832   -1.4319 C   0  0  0  0  0  0  0  0  0  0  0  0
    5.4579   -1.8908   -1.4391 C   0  0  0  0  0  0  0  0  0  0  0  0
    4.2905   -2.5466   -1.8409 C   0  0  0  0  0  0  0  0  0  0  0  0
    3.1579   -1.8043   -2.2043 C   0  0  0  0  0  0  0  0  0  0  0  0
    1.5885   -2.6179   -2.4727 S   0  0  0  0  0  0  0  0  0  0  0  0
    1.2414   -2.7281   -0.6894 C   0  0  0  0  0  0  0  0  0  0  0  0
    3.2286   -0.4098   -2.2612 C   0  0  0  0  0  0  0  0  0  0  0  0
    4.4077    0.2480   -1.9027 C   0  0  0  0  0  0  0  0  0  0  0  0
    7.9763   -0.2221   -0.9284 C   0  0  0  0  0  0  0  0  0  0  0  0
    8.4301   -0.7741   -2.1419 C   0  0  0  0  0  0  0  0  0  0  0  0
    9.7668   -1.1586   -2.2911 C   0  0  0  0  0  0  0  0  0  0  0  0
   10.6678   -0.9924   -1.2371 C   0  0  0  0  0  0  0  0  0  0  0  0
   12.3800   -1.4998   -1.4232 S   0  0  0  0  0  0  0  0  0  0  0  0
   12.0816   -3.1621   -0.7508 C   0  0  0  0  0  0  0  0  0  0  0  0
   10.2326   -0.4431   -0.0284 C   0  0  0  0  0  0  0  0  0  0  0  0
    8.8980   -0.0605    0.1267 C   0  0  0  0  0  0  0  0  0  0  0  0
    5.2990    1.2061    1.1163 C   0  0  0  0  0  0  0  0  0  0  0  0
    4.0338    0.1368    1.3262 S   0  0  0  0  0  0  0  0  0  0  0  0
    7.4051    3.0465   -1.2768 C   0  0  0  0  0  0  0  0  0  0  0  0
    7.9152    4.2678   -1.4963 C   0  0  0  0  0  0  0  0  0  0  0  0
    8.5044    5.1562   -0.4880 C   0  0  0  0  0  0  0  0  0  0  0  0
    8.5226    4.9708    0.7579 O   0  0  0  0  0  0  0  0  0  0  0  0
    9.2574    6.1864   -1.1771 C   0  0  0  0  0  0  0  0  0  0  0  0
   10.0501    7.1927   -0.6219 C   0  0  0  0  0  0  0  0  0  0  0  0
   10.7791    8.0216   -1.4872 C   0  0  0  0  0  0  0  0  0  0  0  0
   10.7236    7.8157   -2.8790 C   0  0  0  0  0  0  0  0  0  0  0  0
   11.6955    8.8123   -3.9451 Cl  0  0  0  0  0  0  0  0  0  0  0  0
    9.9234    6.7921   -3.4155 C   0  0  0  0  0  0  0  0  0  0  0  0
    9.1645    5.9942   -2.5451 C   0  0  0  0  0  0  0  0  0  0  0  0
    8.2513    4.8532   -2.8320 C   0  0  0  0  0  0  0  0  0  0  0  0
    7.6198    4.5905   -4.0121 C   0  0  0  0  0  0  0  0  0  0  0  0
    7.8910    5.3257   -5.2183 C   0  0  0  0  0  0  0  0  0  0  0  0
    8.0875    5.9107   -6.1992 N   0  0  0  0  0  0  0  0  0  0  0  0
    6.5309    3.6533   -4.1134 C   0  0  0  0  0  0  0  0  0  0  0  0
    5.6545    2.9003   -4.2025 N   0  0  0  0  0  0  0  0  0  0  0  0
   -7.9204   -1.6722   -2.9168 H   0  0  0  0  0  0  0  0  0  0  0  0
   -6.9145   -3.2623    3.1029 H   0  0  0  0  0  0  0  0  0  0  0  0
  -11.5304   -3.6435    0.9680 H   0  0  0  0  0  0  0  0  0  0  0  0
  -11.4320   -5.0147    4.2030 H   0  0  0  0  0  0  0  0  0  0  0  0
  -12.8380   -2.8701    4.6217 H   0  0  0  0  0  0  0  0  0  0  0  0
  -11.6068   -0.7251    3.6615 H   0  0  0  0  0  0  0  0  0  0  0  0
   -9.2432   -0.5801    4.7564 H   0  0  0  0  0  0  0  0  0  0  0  0
   -8.9800   -2.6157    6.4328 H   0  0  0  0  0  0  0  0  0  0  0  0
  -11.3569   -3.8203    6.6455 H   0  0  0  0  0  0  0  0  0  0  0  0
  -11.5335   -2.0127    6.7563 H   0  0  0  0  0  0  0  0  0  0  0  0
   -9.2859   -4.8553    5.1991 H   0  0  0  0  0  0  0  0  0  0  0  0
   -3.4305   -5.6645   -0.5728 H   0  0  0  0  0  0  0  0  0  0  0  0
   -1.4976   -7.0246   -1.2752 H   0  0  0  0  0  0  0  0  0  0  0  0
    1.4837   -5.1355   -3.8141 H   0  0  0  0  0  0  0  0  0  0  0  0
    2.4174   -6.6470   -3.5541 H   0  0  0  0  0  0  0  0  0  0  0  0
    1.4995   -5.9217   -2.1726 H   0  0  0  0  0  0  0  0  0  0  0  0
   -1.0539   -4.5852   -4.7944 H   0  0  0  0  0  0  0  0  0  0  0  0
   -2.9895   -3.2269   -4.0960 H   0  0  0  0  0  0  0  0  0  0  0  0
   -5.9910   -5.7556   -0.8535 H   0  0  0  0  0  0  0  0  0  0  0  0
   -7.7597   -7.1424   -1.8829 H   0  0  0  0  0  0  0  0  0  0  0  0
   -8.3956   -8.9027   -6.0016 H   0  0  0  0  0  0  0  0  0  0  0  0
   -7.1507   -7.6004   -6.0164 H   0  0  0  0  0  0  0  0  0  0  0  0
   -7.2444   -8.7625   -4.6166 H   0  0  0  0  0  0  0  0  0  0  0  0
   -7.4404   -4.8499   -5.5166 H   0  0  0  0  0  0  0  0  0  0  0  0
   -5.6567   -3.4878   -4.5019 H   0  0  0  0  0  0  0  0  0  0  0  0
   -1.9319   -0.3114   -3.4763 H   0  0  0  0  0  0  0  0  0  0  0  0
   -0.2912   -0.3793   -5.2857 H   0  0  0  0  0  0  0  0  0  0  0  0
    2.9541    1.6279   -4.5165 H   0  0  0  0  0  0  0  0  0  0  0  0
    3.7497    1.0006   -6.0155 H   0  0  0  0  0  0  0  0  0  0  0  0
    2.5894   -0.0449   -5.1063 H   0  0  0  0  0  0  0  0  0  0  0  0
    0.6328    3.7733   -4.6345 H   0  0  0  0  0  0  0  0  0  0  0  0
   -1.0339    3.8699   -2.8255 H   0  0  0  0  0  0  0  0  0  0  0  0
   -3.6408    2.9185    0.3121 H   0  0  0  0  0  0  0  0  0  0  0  0
   -5.3834    4.6566    0.4369 H   0  0  0  0  0  0  0  0  0  0  0  0
   -5.0553    7.4749   -0.6215 H   0  0  0  0  0  0  0  0  0  0  0  0
   -6.2968    8.4895   -1.4610 H   0  0  0  0  0  0  0  0  0  0  0  0
   -5.0668    7.5896   -2.4349 H   0  0  0  0  0  0  0  0  0  0  0  0
   -5.4339    4.9334   -3.8583 H   0  0  0  0  0  0  0  0  0  0  0  0
   -3.7129    3.1931   -4.0037 H   0  0  0  0  0  0  0  0  0  0  0  0
    1.6366   -4.0728    3.9772 H   0  0  0  0  0  0  0  0  0  0  0  0
    2.6128   -2.6922    4.5186 H   0  0  0  0  0  0  0  0  0  0  0  0
   -0.1941   -3.3206    5.6488 H   0  0  0  0  0  0  0  0  0  0  0  0
    0.9416   -2.0186    6.1949 H   0  0  0  0  0  0  0  0  0  0  0  0
    1.3703   -3.7696    6.3936 H   0  0  0  0  0  0  0  0  0  0  0  0
   -0.9925   -4.3616    1.9092 H   0  0  0  0  0  0  0  0  0  0  0  0
   -0.5048   -4.4884    3.6135 H   0  0  0  0  0  0  0  0  0  0  0  0
   -2.5085   -3.0198    4.2433 H   0  0  0  0  0  0  0  0  0  0  0  0
   -2.9033   -4.6429    3.5529 H   0  0  0  0  0  0  0  0  0  0  0  0
   -3.0647   -3.1802    2.5183 H   0  0  0  0  0  0  0  0  0  0  0  0
    2.8172    5.4333    1.7552 H   0  0  0  0  0  0  0  0  0  0  0  0
    0.7810    6.8297    1.8652 H   0  0  0  0  0  0  0  0  0  0  0  0
   -0.5336    7.3608    5.7731 H   0  0  0  0  0  0  0  0  0  0  0  0
    0.2076    8.3026    4.4111 H   0  0  0  0  0  0  0  0  0  0  0  0
   -1.4229    8.7536    5.0319 H   0  0  0  0  0  0  0  0  0  0  0  0
   -0.6687    4.4504    5.1541 H   0  0  0  0  0  0  0  0  0  0  0  0
    1.3582    3.0443    5.0261 H   0  0  0  0  0  0  0  0  0  0  0  0
    4.8852    1.5164    4.6653 H   0  0  0  0  0  0  0  0  0  0  0  0
    6.6525    1.9090    6.3281 H   0  0  0  0  0  0  0  0  0  0  0  0
    9.0784    3.4786    5.6544 H   0  0  0  0  0  0  0  0  0  0  0  0
   10.0103    4.6258    6.7035 H   0  0  0  0  0  0  0  0  0  0  0  0
    8.8229    5.2812    5.5235 H   0  0  0  0  0  0  0  0  0  0  0  0
    5.9470    6.1526    6.0941 H   0  0  0  0  0  0  0  0  0  0  0  0
    4.1749    5.7713    4.4300 H   0  0  0  0  0  0  0  0  0  0  0  0
    6.2902   -2.4801   -1.0691 H   0  0  0  0  0  0  0  0  0  0  0  0
    4.2422   -3.6271   -1.7959 H   0  0  0  0  0  0  0  0  0  0  0  0
    1.9980   -3.3672   -0.1863 H   0  0  0  0  0  0  0  0  0  0  0  0
    0.2424   -3.1791   -0.5309 H   0  0  0  0  0  0  0  0  0  0  0  0
    1.2670   -1.7166   -0.2409 H   0  0  0  0  0  0  0  0  0  0  0  0
    2.3529    0.1703   -2.5325 H   0  0  0  0  0  0  0  0  0  0  0  0
    4.4270    1.3325   -1.8987 H   0  0  0  0  0  0  0  0  0  0  0  0
    7.7516   -0.8938   -2.9796 H   0  0  0  0  0  0  0  0  0  0  0  0
   10.1043   -1.5763   -3.2326 H   0  0  0  0  0  0  0  0  0  0  0  0
   13.0011   -3.7807   -0.8647 H   0  0  0  0  0  0  0  0  0  0  0  0
   11.2514   -3.6546   -1.3022 H   0  0  0  0  0  0  0  0  0  0  0  0
   11.8203   -3.0956    0.3278 H   0  0  0  0  0  0  0  0  0  0  0  0
   10.9263   -0.3006    0.7920 H   0  0  0  0  0  0  0  0  0  0  0  0
    8.5852    0.3562    1.0779 H   0  0  0  0  0  0  0  0  0  0  0  0
    7.3413    2.3558   -2.1072 H   0  0  0  0  0  0  0  0  0  0  0  0
   10.1066    7.3324    0.4490 H   0  0  0  0  0  0  0  0  0  0  0  0
   11.4033    8.8036   -1.0785 H   0  0  0  0  0  0  0  0  0  0  0  0
    9.9406    6.6262   -4.4782 H   0  0  0  0  0  0  0  0  0  0  0  0
  1  2  2  3
  2  3  1  0
  3  4  2  0
  3  5  1  0
  5  6  2  0
  6  7  1  0
  7  8  2  0
  8  9  1  0
  9 10  2  0
 10 11  1  0
 11 12  2  3
 12 13  1  0
 13 14  3  0
 12 15  1  0
 15 16  3  0
  8 17  1  0
 17 18  1  0
 18 19  1  0
 19 20  2  0
 20 21  1  0
 21 22  1  0
 21 23  1  0
  1 24  1  0
 24 25  2  0
 25 26  1  0
 26 27  1  0
 27 28  2  0
 28 29  1  0
 29 30  2  0
 30 31  1  0
 31 32  1  0
 30 33  1  0
 33 34  2  0
 26 35  1  0
 35 36  2  0
 36 37  1  0
 37 38  2  0
 38 39  1  0
 39 40  1  0
 38 41  1  0
 41 42  2  0
 25 43  1  0
 43 44  1  0
 44 45  1  0
 45 46  2  0
 46 47  1  0
 47 48  1  0
 48 49  2  0
 49 50  1  0
 50 51  2  0
 51 52  1  0
 52 53  1  0
 51 54  1  0
 54 55  2  0
 47 56  1  0
 56 57  2  0
 57 58  1  0
 58 59  2  0
 59 60  1  0
 60 61  1  0
 59 62  1  0
 62 63  2  0
 46 64  1  0
 64 65  1  0
 45 66  1  0
 66 67  2  0
 67 68  1  0
 67 69  1  0
 69 70  1  0
 69 71  2  0
 71 72  1  0
 72 73  2  0
 73 74  1  0
 74 75  1  0
 75 76  1  0
 74 77  2  0
 77 78  1  0
 78 79  2  0
 77 80  1  0
 80 81  1  0
 71 82  1  0
 82 83  2  0
 83 84  1  0
 84 85  1  0
 85 86  2  0
 86 87  1  0
 87 88  2  0
 88 89  1  0
 89 90  1  0
 88 91  1  0
 91 92  2  0
 84 93  1  0
 93 94  2  0
 94 95  1  0
 95 96  2  0
 96 97  1  0
 97 98  1  0
 96 99  1  0
 99100  2  0
 83101  1  0
101102  1  0
102103  1  0
103104  2  0
104105  1  0
105106  1  0
106107  2  0
107108  1  0
108109  2  0
109110  1  0
110111  1  0
109112  1  0
112113  2  0
105114  1  0
114115  2  0
115116  1  0
116117  2  0
117118  1  0
118119  1  0
117120  1  0
120121  2  0
104122  1  0
122123  1  0
103124  1  0
124125  2  3
125126  1  0
126127  2  0
126128  1  0
128129  2  0
129130  1  0
130131  2  0
131132  1  0
131133  1  0
133134  2  0
134135  1  0
135136  2  3
136137  1  0
137138  3  0
136139  1  0
139140  3  0
 11  2  1  0
 23 17  1  0
 65 24  1  0
 79 66  1  0
123 82  1  0
135125  1  0
 10  5  1  0
 22 18  1  0
 34 27  1  0
 42 35  1  0
 64 43  2  0
 79 72  1  0
 92 85  1  0
100 93  1  0
122101  2  0
134128  1  0
 23  7  1  0
 55 48  1  0
 63 56  1  0
113106  1  0
121114  1  0
  1141  1  0
  6142  1  0
  9143  1  0
 17144  1  0
 18145  1  0
 19146  1  0
 20147  1  0
 21148  1  0
 22149  1  0
 22150  1  0
 23151  1  0
 28152  1  0
 29153  1  0
 32154  1  0
 32155  1  0
 32156  1  0
 33157  1  0
 34158  1  0
 36159  1  0
 37160  1  0
 40161  1  0
 40162  1  0
 40163  1  0
 41164  1  0
 42165  1  0
 49166  1  0
 50167  1  0
 53168  1  0
 53169  1  0
 53170  1  0
 54171  1  0
 55172  1  0
 57173  1  0
 58174  1  0
 61175  1  0
 61176  1  0
 61177  1  0
 62178  1  0
 63179  1  0
 75180  1  0
 75181  1  0
 76182  1  0
 76183  1  0
 76184  1  0
 80185  1  0
 80186  1  0
 81187  1  0
 81188  1  0
 81189  1  0
 86190  1  0
 87191  1  0
 90192  1  0
 90193  1  0
 90194  1  0
 91195  1  0
 92196  1  0
 94197  1  0
 95198  1  0
 98199  1  0
 98200  1  0
 98201  1  0
 99202  1  0
100203  1  0
107204  1  0
108205  1  0
111206  1  0
111207  1  0
111208  1  0
112209  1  0
113210  1  0
115211  1  0
116212  1  0
119213  1  0
119214  1  0
119215  1  0
120216  1  0
121217  1  0
124218  1  0
129219  1  0
130220  1  0
133221  1  0
M  END

