
     RDKit          3D

264287  0  0  0  0  0  0  0  0999 V2000
    3.8779   -1.2539    6.5985 C   0  0  0  0  0  0  0  0  0  0  0  0
    4.1541   -0.0320    6.0903 C   0  0  0  0  0  0  0  0  0  0  0  0
    3.6502    0.4786    4.8073 C   0  0  0  0  0  0  0  0  0  0  0  0
    2.5529    0.1807    4.2625 O   0  0  0  0  0  0  0  0  0  0  0  0
    4.5916    1.4322    4.2821 C   0  0  0  0  0  0  0  0  0  0  0  0
    4.5319    2.0836    3.0265 C   0  0  0  0  0  0  0  0  0  0  0  0
    5.5923    2.9339    2.7865 C   0  0  0  0  0  0  0  0  0  0  0  0
    6.6755    3.1095    3.7081 C   0  0  0  0  0  0  0  0  0  0  0  0
    6.7431    2.4666    4.9328 C   0  0  0  0  0  0  0  0  0  0  0  0
    5.6318    1.6244    5.2269 C   0  0  0  0  0  0  0  0  0  0  0  0
    5.3217    0.8231    6.4513 C   0  0  0  0  0  0  0  0  0  0  0  0
    5.8354    0.9917    7.6956 C   0  0  0  0  0  0  0  0  0  0  0  0
    5.2264    0.3880    8.8528 C   0  0  0  0  0  0  0  0  0  0  0  0
    4.7372   -0.0939    9.7823 N   0  0  0  0  0  0  0  0  0  0  0  0
    6.8980    1.9276    7.9668 C   0  0  0  0  0  0  0  0  0  0  0  0
    7.7550    2.6715    8.2007 N   0  0  0  0  0  0  0  0  0  0  0  0
    7.3200    4.1013    2.7803 C   0  0  0  0  0  0  0  0  0  0  0  0
    8.5492    3.6327    1.9435 C   0  0  0  0  0  0  0  0  0  0  0  0
    8.4336    2.1645    1.6170 C   0  0  0  0  0  0  0  0  0  0  0  0
    7.4188    2.0409    0.7551 C   0  0  0  0  0  0  0  0  0  0  0  0
    6.8685    3.4267    0.5407 C   0  0  0  0  0  0  0  0  0  0  0  0
    8.1745    4.2035    0.5881 C   0  0  0  0  0  0  0  0  0  0  0  0
    6.1970    3.9408    1.8486 C   0  0  0  0  0  0  0  0  0  0  0  0
    3.2015   -2.2596    5.7634 C   0  0  0  0  0  0  0  0  0  0  0  0
    3.7097   -2.6079    4.5057 C   0  0  0  0  0  0  0  0  0  0  0  0
    5.1217   -2.7870    4.2773 N   0  0  0  0  0  0  0  0  0  0  0  0
    5.7271   -2.6647    2.9918 C   0  0  0  0  0  0  0  0  0  0  0  0
    5.7209   -3.7547    2.1103 C   0  0  0  0  0  0  0  0  0  0  0  0
    6.4687   -3.7130    0.9360 C   0  0  0  0  0  0  0  0  0  0  0  0
    7.2461   -2.5880    0.6384 C   0  0  0  0  0  0  0  0  0  0  0  0
    8.2348   -2.5438   -0.8575 S   0  0  0  0  0  0  0  0  0  0  0  0
    6.9270   -1.7528   -1.8360 C   0  0  0  0  0  0  0  0  0  0  0  0
    7.2851   -1.5188    1.5365 C   0  0  0  0  0  0  0  0  0  0  0  0
    6.5086   -1.5457    2.6977 C   0  0  0  0  0  0  0  0  0  0  0  0
    5.8719   -3.4605    5.2945 C   0  0  0  0  0  0  0  0  0  0  0  0
    5.5544   -4.7843    5.6274 C   0  0  0  0  0  0  0  0  0  0  0  0
    6.1751   -5.4061    6.7120 C   0  0  0  0  0  0  0  0  0  0  0  0
    7.0997   -4.6971    7.4885 C   0  0  0  0  0  0  0  0  0  0  0  0
    7.8000   -5.4549    8.9545 S   0  0  0  0  0  0  0  0  0  0  0  0
    6.3944   -4.9719   10.0046 C   0  0  0  0  0  0  0  0  0  0  0  0
    7.4424   -3.3851    7.1398 C   0  0  0  0  0  0  0  0  0  0  0  0
    6.8393   -2.7722    6.0384 C   0  0  0  0  0  0  0  0  0  0  0  0
    2.6804   -2.9745    3.6435 C   0  0  0  0  0  0  0  0  0  0  0  0
    2.5191   -3.0534    1.9913 S   0  0  0  0  0  0  0  0  0  0  0  0
    0.8354   -3.3087    2.0250 C   0  0  0  0  0  0  0  0  0  0  0  0
    0.3900   -3.4249    3.3609 C   0  0  0  0  0  0  0  0  0  0  0  0
   -0.4920   -4.4981    3.7536 N   0  0  0  0  0  0  0  0  0  0  0  0
    0.0574   -5.8244    3.5850 C   0  0  0  0  0  0  0  0  0  0  0  0
    0.5166   -6.5446    4.7023 C   0  0  0  0  0  0  0  0  0  0  0  0
    1.1649   -7.7721    4.5329 C   0  0  0  0  0  0  0  0  0  0  0  0
    1.3622   -8.2886    3.2472 C   0  0  0  0  0  0  0  0  0  0  0  0
    2.2213   -9.8468    3.0193 S   0  0  0  0  0  0  0  0  0  0  0  0
    0.7029  -10.8392    3.1368 C   0  0  0  0  0  0  0  0  0  0  0  0
    0.9125   -7.5812    2.1328 C   0  0  0  0  0  0  0  0  0  0  0  0
    0.2642   -6.3562    2.2994 C   0  0  0  0  0  0  0  0  0  0  0  0
   -1.6092   -4.2985    4.6631 C   0  0  0  0  0  0  0  0  0  0  0  0
   -1.7911   -3.0885    5.3643 C   0  0  0  0  0  0  0  0  0  0  0  0
   -2.8761   -2.9224    6.2278 C   0  0  0  0  0  0  0  0  0  0  0  0
   -3.8130   -3.9463    6.3867 C   0  0  0  0  0  0  0  0  0  0  0  0
   -5.2421   -3.7158    7.4431 S   0  0  0  0  0  0  0  0  0  0  0  0
   -6.2770   -3.0735    6.0878 C   0  0  0  0  0  0  0  0  0  0  0  0
   -3.6346   -5.1611    5.7150 C   0  0  0  0  0  0  0  0  0  0  0  0
   -2.5429   -5.3357    4.8685 C   0  0  0  0  0  0  0  0  0  0  0  0
    1.4551   -3.1054    4.2175 C   0  0  0  0  0  0  0  0  0  0  0  0
    1.5370   -2.5992    5.8199 S   0  0  0  0  0  0  0  0  0  0  0  0
    0.0073   -3.1781    0.7985 C   0  0  0  0  0  0  0  0  0  0  0  0
   -1.3960   -2.9886    0.6753 C   0  0  0  0  0  0  0  0  0  0  0  0
   -2.3472   -2.8966    1.7552 N   0  0  0  0  0  0  0  0  0  0  0  0
   -2.4625   -1.6480    2.5030 C   0  0  0  0  0  0  0  0  0  0  0  0
   -1.5310   -0.5986    2.3149 C   0  0  0  0  0  0  0  0  0  0  0  0
   -1.6539    0.6002    3.0194 C   0  0  0  0  0  0  0  0  0  0  0  0
   -2.7113    0.7887    3.9111 C   0  0  0  0  0  0  0  0  0  0  0  0
   -2.8585    2.3255    4.8153 S   0  0  0  0  0  0  0  0  0  0  0  0
   -1.8837    1.7228    6.2286 C   0  0  0  0  0  0  0  0  0  0  0  0
   -3.6449   -0.2281    4.1012 C   0  0  0  0  0  0  0  0  0  0  0  0
   -3.5133   -1.4406    3.4209 C   0  0  0  0  0  0  0  0  0  0  0  0
   -3.4801   -3.7888    1.6254 C   0  0  0  0  0  0  0  0  0  0  0  0
   -3.2969   -5.1807    1.6866 C   0  0  0  0  0  0  0  0  0  0  0  0
   -4.3705   -6.0535    1.4931 C   0  0  0  0  0  0  0  0  0  0  0  0
   -5.6413   -5.5441    1.1960 C   0  0  0  0  0  0  0  0  0  0  0  0
   -7.0080   -6.6620    0.8826 S   0  0  0  0  0  0  0  0  0  0  0  0
   -6.6730   -6.7534   -0.8980 C   0  0  0  0  0  0  0  0  0  0  0  0
   -5.8323   -4.1673    1.1109 C   0  0  0  0  0  0  0  0  0  0  0  0
   -4.7558   -3.2948    1.3018 C   0  0  0  0  0  0  0  0  0  0  0  0
   -1.7351   -2.5052   -0.5925 C   0  0  0  0  0  0  0  0  0  0  0  0
   -3.0401   -1.5866   -1.0694 S   0  0  0  0  0  0  0  0  0  0  0  0
   -2.2731   -0.8250   -2.3818 C   0  0  0  0  0  0  0  0  0  0  0  0
   -0.9476   -1.3077   -2.4333 C   0  0  0  0  0  0  0  0  0  0  0  0
    0.1210   -0.7125   -3.1872 N   0  0  0  0  0  0  0  0  0  0  0  0
    0.6892   -1.5544   -4.2009 C   0  0  0  0  0  0  0  0  0  0  0  0
    1.9716   -2.1008   -4.0374 C   0  0  0  0  0  0  0  0  0  0  0  0
    2.4625   -3.0296   -4.9594 C   0  0  0  0  0  0  0  0  0  0  0  0
    1.6668   -3.4400   -6.0327 C   0  0  0  0  0  0  0  0  0  0  0  0
    2.2578   -4.7047   -7.1602 S   0  0  0  0  0  0  0  0  0  0  0  0
    1.5247   -6.0709   -6.2082 C   0  0  0  0  0  0  0  0  0  0  0  0
    0.3931   -2.8887   -6.2116 C   0  0  0  0  0  0  0  0  0  0  0  0
   -0.0968   -1.9541   -5.2955 C   0  0  0  0  0  0  0  0  0  0  0  0
    0.7629    0.5231   -2.7583 C   0  0  0  0  0  0  0  0  0  0  0  0
    0.3059    1.2237   -1.6188 C   0  0  0  0  0  0  0  0  0  0  0  0
    0.9252    2.4102   -1.2157 C   0  0  0  0  0  0  0  0  0  0  0  0
    2.0368    2.9008   -1.9070 C   0  0  0  0  0  0  0  0  0  0  0  0
    2.8808    4.3704   -1.3238 S   0  0  0  0  0  0  0  0  0  0  0  0
    2.0800    5.4886   -2.5192 C   0  0  0  0  0  0  0  0  0  0  0  0
    2.5049    2.2125   -3.0293 C   0  0  0  0  0  0  0  0  0  0  0  0
    1.8579    1.0552   -3.4686 C   0  0  0  0  0  0  0  0  0  0  0  0
   -0.7028   -2.2555   -1.4357 C   0  0  0  0  0  0  0  0  0  0  0  0
    0.7226   -2.6934   -0.6779 S   0  0  0  0  0  0  0  0  0  0  0  0
   -2.7948    0.4044   -3.0225 C   0  0  0  0  0  0  0  0  0  0  0  0
   -3.7553    1.2677   -2.4525 C   0  0  0  0  0  0  0  0  0  0  0  0
   -4.6853    0.9297   -1.4055 N   0  0  0  0  0  0  0  0  0  0  0  0
   -5.7296   -0.0493   -1.6634 C   0  0  0  0  0  0  0  0  0  0  0  0
   -5.9836   -0.5108   -2.9754 C   0  0  0  0  0  0  0  0  0  0  0  0
   -6.9464   -1.4928   -3.2136 C   0  0  0  0  0  0  0  0  0  0  0  0
   -7.6908   -2.0117   -2.1543 C   0  0  0  0  0  0  0  0  0  0  0  0
   -8.9117   -3.2919   -2.4615 S   0  0  0  0  0  0  0  0  0  0  0  0
  -10.2245   -2.0957   -2.8605 C   0  0  0  0  0  0  0  0  0  0  0  0
   -7.4664   -1.5566   -0.8529 C   0  0  0  0  0  0  0  0  0  0  0  0
   -6.4786   -0.6024   -0.6039 C   0  0  0  0  0  0  0  0  0  0  0  0
   -4.7418    1.8044   -0.2593 C   0  0  0  0  0  0  0  0  0  0  0  0
   -5.9522    2.4224    0.0998 C   0  0  0  0  0  0  0  0  0  0  0  0
   -5.9736    3.4058    1.0902 C   0  0  0  0  0  0  0  0  0  0  0  0
   -4.7868    3.8098    1.7077 C   0  0  0  0  0  0  0  0  0  0  0  0
   -4.8003    5.1540    2.8906 S   0  0  0  0  0  0  0  0  0  0  0  0
   -4.8769    6.4516    1.6101 C   0  0  0  0  0  0  0  0  0  0  0  0
   -3.5810    3.1797    1.3753 C   0  0  0  0  0  0  0  0  0  0  0  0
   -3.5572    2.1791    0.4007 C   0  0  0  0  0  0  0  0  0  0  0  0
   -3.7707    2.5009   -3.0869 C   0  0  0  0  0  0  0  0  0  0  0  0
   -4.5181    3.9581   -2.7390 S   0  0  0  0  0  0  0  0  0  0  0  0
   -3.7575    4.7751   -4.0212 C   0  0  0  0  0  0  0  0  0  0  0  0
   -2.9468    3.8851   -4.7456 C   0  0  0  0  0  0  0  0  0  0  0  0
   -2.4184    4.1841   -6.0476 N   0  0  0  0  0  0  0  0  0  0  0  0
   -3.2923    4.8016   -7.0138 C   0  0  0  0  0  0  0  0  0  0  0  0
   -2.8368    5.8714   -7.8036 C   0  0  0  0  0  0  0  0  0  0  0  0
   -3.6657    6.4294   -8.7777 C   0  0  0  0  0  0  0  0  0  0  0  0
   -4.9579    5.9220   -8.9750 C   0  0  0  0  0  0  0  0  0  0  0  0
   -5.9922    6.5980  -10.2734 S   0  0  0  0  0  0  0  0  0  0  0  0
   -5.3587    5.4348  -11.5256 C   0  0  0  0  0  0  0  0  0  0  0  0
   -5.4281    4.8723   -8.1796 C   0  0  0  0  0  0  0  0  0  0  0  0
   -4.5965    4.3125   -7.2051 C   0  0  0  0  0  0  0  0  0  0  0  0
   -1.0852    3.7969   -6.4310 C   0  0  0  0  0  0  0  0  0  0  0  0
   -0.0058    3.9959   -5.5609 C   0  0  0  0  0  0  0  0  0  0  0  0
    1.3017    3.7519   -5.9932 C   0  0  0  0  0  0  0  0  0  0  0  0
    1.5402    3.2887   -7.2906 C   0  0  0  0  0  0  0  0  0  0  0  0
    3.2190    3.0561   -7.8811 S   0  0  0  0  0  0  0  0  0  0  0  0
    3.2519    1.2805   -7.4855 C   0  0  0  0  0  0  0  0  0  0  0  0
    0.4647    3.0534   -8.1535 C   0  0  0  0  0  0  0  0  0  0  0  0
   -0.8408    3.2975   -7.7236 C   0  0  0  0  0  0  0  0  0  0  0  0
   -2.9500    2.6232   -4.1547 C   0  0  0  0  0  0  0  0  0  0  0  0
   -2.0864    1.1978   -4.3685 S   0  0  0  0  0  0  0  0  0  0  0  0
   -3.6004    6.2323   -4.0434 C   0  0  0  0  0  0  0  0  0  0  0  0
   -2.8156    6.8756   -3.1638 C   0  0  0  0  0  0  0  0  0  0  0  0
   -2.7101    8.5392   -3.0604 S   0  0  0  0  0  0  0  0  0  0  0  0
   -1.6524    8.5608   -1.7327 C   0  0  0  0  0  0  0  0  0  0  0  0
   -1.2355    9.7171   -1.1610 C   0  0  0  0  0  0  0  0  0  0  0  0
   -1.6297   10.9878   -1.7273 C   0  0  0  0  0  0  0  0  0  0  0  0
   -1.9247   12.0098   -2.1796 N   0  0  0  0  0  0  0  0  0  0  0  0
   -0.4141    9.7949    0.0152 C   0  0  0  0  0  0  0  0  0  0  0  0
    0.2447    9.8736    0.9675 N   0  0  0  0  0  0  0  0  0  0  0  0
   -1.3349    7.2699   -1.3762 N   0  0  0  0  0  0  0  0  0  0  0  0
   -0.4506    6.8306   -0.2709 C   0  0  0  0  0  0  0  0  0  0  0  0
   -1.2190    6.7355    1.0420 C   0  0  0  0  0  0  0  0  0  0  0  0
   -1.9818    6.3489   -2.1618 C   0  0  0  0  0  0  0  0  0  0  0  0
   -1.8131    5.1092   -2.0031 O   0  0  0  0  0  0  0  0  0  0  0  0
    4.3964   -1.6216    7.4748 H   0  0  0  0  0  0  0  0  0  0  0  0
    3.7286    1.9371    2.3165 H   0  0  0  0  0  0  0  0  0  0  0  0
    7.5906    2.6098    5.5809 H   0  0  0  0  0  0  0  0  0  0  0  0
    7.4021    5.1301    3.1958 H   0  0  0  0  0  0  0  0  0  0  0  0
    9.5370    3.9486    2.3375 H   0  0  0  0  0  0  0  0  0  0  0  0
    9.1221    1.3732    1.9046 H   0  0  0  0  0  0  0  0  0  0  0  0
    7.1398    1.1478    0.2177 H   0  0  0  0  0  0  0  0  0  0  0  0
    6.2646    3.5496   -0.3831 H   0  0  0  0  0  0  0  0  0  0  0  0
    8.0441    5.3092    0.5964 H   0  0  0  0  0  0  0  0  0  0  0  0
    8.8883    3.9210   -0.2266 H   0  0  0  0  0  0  0  0  0  0  0  0
    5.5781    4.8614    1.7200 H   0  0  0  0  0  0  0  0  0  0  0  0
    5.1592   -4.6428    2.3512 H   0  0  0  0  0  0  0  0  0  0  0  0
    6.4603   -4.5571    0.2639 H   0  0  0  0  0  0  0  0  0  0  0  0
    5.9871   -2.3328   -1.7673 H   0  0  0  0  0  0  0  0  0  0  0  0
    7.2423   -1.7049   -2.8973 H   0  0  0  0  0  0  0  0  0  0  0  0
    6.7630   -0.7223   -1.4681 H   0  0  0  0  0  0  0  0  0  0  0  0
    7.9533   -0.6902    1.3588 H   0  0  0  0  0  0  0  0  0  0  0  0
    6.5669   -0.7214    3.3972 H   0  0  0  0  0  0  0  0  0  0  0  0
    4.8023   -5.3212    5.0610 H   0  0  0  0  0  0  0  0  0  0  0  0
    5.8982   -6.4203    6.9766 H   0  0  0  0  0  0  0  0  0  0  0  0
    6.5604   -5.3341   11.0414 H   0  0  0  0  0  0  0  0  0  0  0  0
    5.4537   -5.4205    9.6180 H   0  0  0  0  0  0  0  0  0  0  0  0
    6.2935   -3.8637   10.0249 H   0  0  0  0  0  0  0  0  0  0  0  0
    8.1575   -2.8340    7.7362 H   0  0  0  0  0  0  0  0  0  0  0  0
    7.0856   -1.7467    5.7965 H   0  0  0  0  0  0  0  0  0  0  0  0
    0.4025   -6.1303    5.6957 H   0  0  0  0  0  0  0  0  0  0  0  0
    1.5249   -8.3094    5.3987 H   0  0  0  0  0  0  0  0  0  0  0  0
    0.9374  -11.8990    2.9044 H   0  0  0  0  0  0  0  0  0  0  0  0
   -0.0529  -10.4703    2.4121 H   0  0  0  0  0  0  0  0  0  0  0  0
    0.2989  -10.7750    4.1674 H   0  0  0  0  0  0  0  0  0  0  0  0
    1.0759   -7.9657    1.1373 H   0  0  0  0  0  0  0  0  0  0  0  0
   -0.0644   -5.8217    1.4197 H   0  0  0  0  0  0  0  0  0  0  0  0
   -1.1290   -2.2494    5.2171 H   0  0  0  0  0  0  0  0  0  0  0  0
   -3.0180   -1.9781    6.7390 H   0  0  0  0  0  0  0  0  0  0  0  0
   -5.8576   -2.1164    5.7094 H   0  0  0  0  0  0  0  0  0  0  0  0
   -7.3027   -2.8900    6.4622 H   0  0  0  0  0  0  0  0  0  0  0  0
   -6.3250   -3.8087    5.2576 H   0  0  0  0  0  0  0  0  0  0  0  0
   -4.3569   -5.9569    5.8338 H   0  0  0  0  0  0  0  0  0  0  0  0
   -2.4371   -6.2795    4.3530 H   0  0  0  0  0  0  0  0  0  0  0  0
   -0.7049   -0.6881    1.6249 H   0  0  0  0  0  0  0  0  0  0  0  0
   -0.9255    1.3841    2.8686 H   0  0  0  0  0  0  0  0  0  0  0  0
   -0.8717    1.4066    5.8920 H   0  0  0  0  0  0  0  0  0  0  0  0
   -2.4040    0.8668    6.7055 H   0  0  0  0  0  0  0  0  0  0  0  0
   -1.7732    2.5355    6.9746 H   0  0  0  0  0  0  0  0  0  0  0  0
   -4.4591   -0.0974    4.8017 H   0  0  0  0  0  0  0  0  0  0  0  0
   -4.2203   -2.2289    3.6455 H   0  0  0  0  0  0  0  0  0  0  0  0
   -2.3241   -5.5927    1.8893 H   0  0  0  0  0  0  0  0  0  0  0  0
   -4.2148   -7.1224    1.5533 H   0  0  0  0  0  0  0  0  0  0  0  0
   -6.7780   -5.7475   -1.3543 H   0  0  0  0  0  0  0  0  0  0  0  0
   -7.4019   -7.4427   -1.3707 H   0  0  0  0  0  0  0  0  0  0  0  0
   -5.6464   -7.1364   -1.0733 H   0  0  0  0  0  0  0  0  0  0  0  0
   -6.8113   -3.7702    0.8730 H   0  0  0  0  0  0  0  0  0  0  0  0
   -4.9215   -2.2333    1.1956 H   0  0  0  0  0  0  0  0  0  0  0  0
    2.5769   -1.8248   -3.1840 H   0  0  0  0  0  0  0  0  0  0  0  0
    3.4481   -3.4545   -4.8179 H   0  0  0  0  0  0  0  0  0  0  0  0
    1.7536   -7.0320   -6.7120 H   0  0  0  0  0  0  0  0  0  0  0  0
    1.9516   -6.0902   -5.1826 H   0  0  0  0  0  0  0  0  0  0  0  0
    0.4239   -5.9474   -6.1505 H   0  0  0  0  0  0  0  0  0  0  0  0
   -0.2278   -3.2045   -7.0373 H   0  0  0  0  0  0  0  0  0  0  0  0
   -1.0952   -1.5590   -5.4223 H   0  0  0  0  0  0  0  0  0  0  0  0
   -0.5262    0.8639   -1.0293 H   0  0  0  0  0  0  0  0  0  0  0  0
    0.5569    2.9371   -0.3450 H   0  0  0  0  0  0  0  0  0  0  0  0
    2.1811    6.5315   -2.1623 H   0  0  0  0  0  0  0  0  0  0  0  0
    2.5819    5.4005   -3.5036 H   0  0  0  0  0  0  0  0  0  0  0  0
    1.0034    5.2528   -2.6270 H   0  0  0  0  0  0  0  0  0  0  0  0
    3.3648    2.5813   -3.5746 H   0  0  0  0  0  0  0  0  0  0  0  0
    2.2232    0.5743   -4.3625 H   0  0  0  0  0  0  0  0  0  0  0  0
   -5.4420   -0.1212   -3.8252 H   0  0  0  0  0  0  0  0  0  0  0  0
   -7.1196   -1.8392   -4.2246 H   0  0  0  0  0  0  0  0  0  0  0  0
   -9.8951   -1.4182   -3.6772 H   0  0  0  0  0  0  0  0  0  0  0  0
  -10.4796   -1.4990   -1.9583 H   0  0  0  0  0  0  0  0  0  0  0  0
  -11.1281   -2.6420   -3.1973 H   0  0  0  0  0  0  0  0  0  0  0  0
   -8.0531   -1.9433   -0.0290 H   0  0  0  0  0  0  0  0  0  0  0  0
   -6.2986   -0.2942    0.4150 H   0  0  0  0  0  0  0  0  0  0  0  0
   -6.8698    2.1824   -0.4267 H   0  0  0  0  0  0  0  0  0  0  0  0
   -6.9088    3.8952    1.3338 H   0  0  0  0  0  0  0  0  0  0  0  0
   -5.8831    6.4584    1.1357 H   0  0  0  0  0  0  0  0  0  0  0  0
   -4.6907    7.4452    2.0769 H   0  0  0  0  0  0  0  0  0  0  0  0
   -4.1200    6.2726    0.8192 H   0  0  0  0  0  0  0  0  0  0  0  0
   -2.6571    3.4795    1.8556 H   0  0  0  0  0  0  0  0  0  0  0  0
   -2.6141    1.7104    0.1374 H   0  0  0  0  0  0  0  0  0  0  0  0
   -1.8411    6.2680   -7.6606 H   0  0  0  0  0  0  0  0  0  0  0  0
   -3.3030    7.2449   -9.3893 H   0  0  0  0  0  0  0  0  0  0  0  0
   -5.5281    4.3860  -11.1917 H   0  0  0  0  0  0  0  0  0  0  0  0
   -4.2705    5.6074  -11.6846 H   0  0  0  0  0  0  0  0  0  0  0  0
   -5.8958    5.6041  -12.4815 H   0  0  0  0  0  0  0  0  0  0  0  0
   -6.4244    4.4784   -8.3251 H   0  0  0  0  0  0  0  0  0  0  0  0
   -4.9605    3.4824   -6.6105 H   0  0  0  0  0  0  0  0  0  0  0  0
   -0.1703    4.3861   -4.5698 H   0  0  0  0  0  0  0  0  0  0  0  0
    2.1321    3.9441   -5.3343 H   0  0  0  0  0  0  0  0  0  0  0  0
    2.3870    0.7620   -7.9530 H   0  0  0  0  0  0  0  0  0  0  0  0
    4.1904    0.8424   -7.8820 H   0  0  0  0  0  0  0  0  0  0  0  0
    3.2239    1.1425   -6.3857 H   0  0  0  0  0  0  0  0  0  0  0  0
    0.6381    2.6992   -9.1650 H   0  0  0  0  0  0  0  0  0  0  0  0
   -1.6578    3.1249   -8.4103 H   0  0  0  0  0  0  0  0  0  0  0  0
   -4.1728    6.8030   -4.7698 H   0  0  0  0  0  0  0  0  0  0  0  0
    0.4366    7.4855   -0.1827 H   0  0  0  0  0  0  0  0  0  0  0  0
   -0.0287    5.8274   -0.4857 H   0  0  0  0  0  0  0  0  0  0  0  0
   -1.9310    5.8909    0.9932 H   0  0  0  0  0  0  0  0  0  0  0  0
   -1.7719    7.6760    1.2481 H   0  0  0  0  0  0  0  0  0  0  0  0
   -0.5085    6.5435    1.8788 H   0  0  0  0  0  0  0  0  0  0  0  0
  1  2  2  3
  2  3  1  0
  3  4  2  0
  3  5  1  0
  5  6  2  0
  6  7  1  0
  7  8  2  0
  8  9  1  0
  9 10  2  0
 10 11  1  0
 11 12  2  3
 12 13  1  0
 13 14  3  0
 12 15  1  0
 15 16  3  0
  8 17  1  0
 17 18  1  0
 18 19  1  0
 19 20  2  0
 20 21  1  0
 21 22  1  0
 21 23  1  0
  1 24  1  0
 24 25  2  0
 25 26  1  0
 26 27  1  0
 27 28  2  0
 28 29  1  0
 29 30  2  0
 30 31  1  0
 31 32  1  0
 30 33  1  0
 33 34  2  0
 26 35  1  0
 35 36  2  0
 36 37  1  0
 37 38  2  0
 38 39  1  0
 39 40  1  0
 38 41  1  0
 41 42  2  0
 25 43  1  0
 43 44  1  0
 44 45  1  0
 45 46  2  0
 46 47  1  0
 47 48  1  0
 48 49  2  0
 49 50  1  0
 50 51  2  0
 51 52  1  0
 52 53  1  0
 51 54  1  0
 54 55  2  0
 47 56  1  0
 56 57  2  0
 57 58  1  0
 58 59  2  0
 59 60  1  0
 60 61  1  0
 59 62  1  0
 62 63  2  0
 46 64  1  0
 64 65  1  0
 45 66  1  0
 66 67  2  0
 67 68  1  0
 68 69  1  0
 69 70  2  0
 70 71  1  0
 71 72  2  0
 72 73  1  0
 73 74  1  0
 72 75  1  0
 75 76  2  0
 68 77  1  0
 77 78  2  0
 78 79  1  0
 79 80  2  0
 80 81  1  0
 81 82  1  0
 80 83  1  0
 83 84  2  0
 67 85  1  0
 85 86  1  0
 86 87  1  0
 87 88  2  0
 88 89  1  0
 89 90  1  0
 90 91  2  0
 91 92  1  0
 92 93  2  0
 93 94  1  0
 94 95  1  0
 93 96  1  0
 96 97  2  0
 89 98  1  0
 98 99  2  0
 99100  1  0
100101  2  0
101102  1  0
102103  1  0
101104  1  0
104105  2  0
 88106  1  0
106107  1  0
 87108  1  0
108109  2  0
109110  1  0
110111  1  0
111112  2  0
112113  1  0
113114  2  0
114115  1  0
115116  1  0
114117  1  0
117118  2  0
110119  1  0
119120  2  0
120121  1  0
121122  2  0
122123  1  0
123124  1  0
122125  1  0
125126  2  0
109127  1  0
127128  1  0
128129  1  0
129130  2  0
130131  1  0
131132  1  0
132133  2  0
133134  1  0
134135  2  0
135136  1  0
136137  1  0
135138  1  0
138139  2  0
131140  1  0
140141  2  0
141142  1  0
142143  2  0
143144  1  0
144145  1  0
143146  1  0
146147  2  0
130148  1  0
148149  1  0
129150  1  0
150151  2  3
151152  1  0
152153  1  0
153154  2  3
154155  1  0
155156  3  0
154157  1  0
157158  3  0
153159  1  0
159160  1  0
160161  1  0
159162  1  0
162163  2  0
 11  2  1  0
 23 17  1  0
 65 24  1  0
107 66  1  0
149108  1  0
162151  1  0
 10  5  1  0
 22 18  1  0
 34 27  1  0
 42 35  1  0
 64 43  2  0
 76 69  1  0
 84 77  1  0
106 85  2  0
118111  1  0
126119  1  0
148127  2  0
 23  7  1  0
 55 48  1  0
 63 56  1  0
 97 90  1  0
105 98  1  0
139132  1  0
147140  1  0
  1164  1  0
  6165  1  0
  9166  1  0
 17167  1  0
 18168  1  0
 19169  1  0
 20170  1  0
 21171  1  0
 22172  1  0
 22173  1  0
 23174  1  0
 28175  1  0
 29176  1  0
 32177  1  0
 32178  1  0
 32179  1  0
 33180  1  0
 34181  1  0
 36182  1  0
 37183  1  0
 40184  1  0
 40185  1  0
 40186  1  0
 41187  1  0
 42188  1  0
 49189  1  0
 50190  1  0
 53191  1  0
 53192  1  0
 53193  1  0
 54194  1  0
 55195  1  0
 57196  1  0
 58197  1  0
 61198  1  0
 61199  1  0
 61200  1  0
 62201  1  0
 63202  1  0
 70203  1  0
 71204  1  0
 74205  1  0
 74206  1  0
 74207  1  0
 75208  1  0
 76209  1  0
 78210  1  0
 79211  1  0
 82212  1  0
 82213  1  0
 82214  1  0
 83215  1  0
 84216  1  0
 91217  1  0
 92218  1  0
 95219  1  0
 95220  1  0
 95221  1  0
 96222  1  0
 97223  1  0
 99224  1  0
100225  1  0
103226  1  0
103227  1  0
103228  1  0
104229  1  0
105230  1  0
112231  1  0
113232  1  0
116233  1  0
116234  1  0
116235  1  0
117236  1  0
118237  1  0
120238  1  0
121239  1  0
124240  1  0
124241  1  0
124242  1  0
125243  1  0
126244  1  0
133245  1  0
134246  1  0
137247  1  0
137248  1  0
137249  1  0
138250  1  0
139251  1  0
141252  1  0
142253  1  0
145254  1  0
145255  1  0
145256  1  0
146257  1  0
147258  1  0
150259  1  0
160260  1  0
160261  1  0
161262  1  0
161263  1  0
161264  1  0
M  END

