
     RDKit          3D

204224  0  0  0  0  0  0  0  0999 V2000
    6.7893   -3.2588    2.8897 C   0  0  0  0  0  0  0  0  0  0  0  0
    7.4664   -2.4804    3.7659 C   0  0  0  0  0  0  0  0  0  0  0  0
    7.1904   -1.0669    4.0606 C   0  0  0  0  0  0  0  0  0  0  0  0
    6.7038   -0.2195    3.2706 O   0  0  0  0  0  0  0  0  0  0  0  0
    7.6066   -0.7784    5.4136 C   0  0  0  0  0  0  0  0  0  0  0  0
    7.3868    0.4161    6.1326 C   0  0  0  0  0  0  0  0  0  0  0  0
    7.7682    0.3465    7.4565 C   0  0  0  0  0  0  0  0  0  0  0  0
    8.3168   -0.8318    8.0595 C   0  0  0  0  0  0  0  0  0  0  0  0
    8.5480   -2.0027    7.3503 C   0  0  0  0  0  0  0  0  0  0  0  0
    8.1980   -1.9400    5.9715 C   0  0  0  0  0  0  0  0  0  0  0  0
    8.2668   -2.9954    4.9203 C   0  0  0  0  0  0  0  0  0  0  0  0
    9.0628   -4.0947    4.9237 C   0  0  0  0  0  0  0  0  0  0  0  0
    9.8915   -4.4490    6.0478 C   0  0  0  0  0  0  0  0  0  0  0  0
   10.5632   -4.7422    6.9432 N   0  0  0  0  0  0  0  0  0  0  0  0
    9.2478   -4.9021    3.7420 C   0  0  0  0  0  0  0  0  0  0  0  0
    9.4081   -5.5546    2.7982 N   0  0  0  0  0  0  0  0  0  0  0  0
    8.3500   -0.1505    9.3956 C   0  0  0  0  0  0  0  0  0  0  0  0
    7.2407   -0.5437   10.4217 C   0  0  0  0  0  0  0  0  0  0  0  0
    7.2523    0.5307   11.4860 C   0  0  0  0  0  0  0  0  0  0  0  0
    6.7682    1.6399   10.9074 C   0  0  0  0  0  0  0  0  0  0  0  0
    6.4451    1.2745    9.4768 C   0  0  0  0  0  0  0  0  0  0  0  0
    5.9561   -0.1462    9.7104 C   0  0  0  0  0  0  0  0  0  0  0  0
    7.8139    1.0643    8.7683 C   0  0  0  0  0  0  0  0  0  0  0  0
    5.6045   -2.8222    2.1271 C   0  0  0  0  0  0  0  0  0  0  0  0
    5.4756   -1.7317    1.2700 C   0  0  0  0  0  0  0  0  0  0  0  0
    4.1450   -1.4704    0.9077 C   0  0  0  0  0  0  0  0  0  0  0  0
    3.6954   -0.1244    0.4611 C   0  0  0  0  0  0  0  0  0  0  0  0
    3.3121    0.1198   -0.8738 C   0  0  0  0  0  0  0  0  0  0  0  0
    3.5108   -0.8800   -1.8421 O   0  0  0  0  0  0  0  0  0  0  0  0
    3.2239   -0.7441   -3.2363 C   0  0  0  0  0  0  0  0  0  0  0  0
    1.7193   -0.8339   -3.5053 C   0  0  0  0  0  0  0  0  0  0  0  0
    2.7571    1.3716   -1.2092 C   0  0  0  0  0  0  0  0  0  0  0  0
    2.5621    2.3472   -0.2376 C   0  0  0  0  0  0  0  0  0  0  0  0
    2.9611    2.1190    1.0739 C   0  0  0  0  0  0  0  0  0  0  0  0
    3.5485    0.8894    1.4336 C   0  0  0  0  0  0  0  0  0  0  0  0
    3.9689    0.6211    2.7517 O   0  0  0  0  0  0  0  0  0  0  0  0
    3.9491    1.5543    3.8295 C   0  0  0  0  0  0  0  0  0  0  0  0
    5.0494    2.6078    3.6679 C   0  0  0  0  0  0  0  0  0  0  0  0
    3.2473   -2.4293    1.3949 C   0  0  0  0  0  0  0  0  0  0  0  0
    4.0884   -3.5021    2.3654 S   0  0  0  0  0  0  0  0  0  0  0  0
    1.7935   -2.2911    1.4024 C   0  0  0  0  0  0  0  0  0  0  0  0
    0.9316   -2.6332    0.3366 C   0  0  0  0  0  0  0  0  0  0  0  0
    1.1512   -3.6772   -0.6551 N   0  0  0  0  0  0  0  0  0  0  0  0
    2.3973   -4.3688   -0.7778 C   0  0  0  0  0  0  0  0  0  0  0  0
    2.7152   -5.4187    0.0998 C   0  0  0  0  0  0  0  0  0  0  0  0
    3.9113   -6.1320   -0.0603 C   0  0  0  0  0  0  0  0  0  0  0  0
    4.7801   -5.8135   -1.1183 C   0  0  0  0  0  0  0  0  0  0  0  0
    6.3046   -6.7282   -1.3375 S   0  0  0  0  0  0  0  0  0  0  0  0
    7.3287   -5.4952   -0.4732 C   0  0  0  0  0  0  0  0  0  0  0  0
    4.4372   -4.8045   -2.0265 C   0  0  0  0  0  0  0  0  0  0  0  0
    3.2475   -4.0917   -1.8578 C   0  0  0  0  0  0  0  0  0  0  0  0
    0.0274   -4.2774   -1.3206 C   0  0  0  0  0  0  0  0  0  0  0  0
   -0.9650   -4.9327   -0.5728 C   0  0  0  0  0  0  0  0  0  0  0  0
   -2.0586   -5.5178   -1.2173 C   0  0  0  0  0  0  0  0  0  0  0  0
   -2.1667   -5.4525   -2.6121 C   0  0  0  0  0  0  0  0  0  0  0  0
   -3.5625   -6.2139   -3.4400 S   0  0  0  0  0  0  0  0  0  0  0  0
   -2.6653   -7.7750   -3.7303 C   0  0  0  0  0  0  0  0  0  0  0  0
   -1.1788   -4.8015   -3.3612 C   0  0  0  0  0  0  0  0  0  0  0  0
   -0.0794   -4.2274   -2.7185 C   0  0  0  0  0  0  0  0  0  0  0  0
   -0.2356   -1.8661    0.4019 C   0  0  0  0  0  0  0  0  0  0  0  0
   -1.4655   -1.5330   -0.6880 S   0  0  0  0  0  0  0  0  0  0  0  0
   -2.1837   -0.3219    0.2714 C   0  0  0  0  0  0  0  0  0  0  0  0
   -1.4265   -0.1603    1.4416 C   0  0  0  0  0  0  0  0  0  0  0  0
   -1.8848    0.5796    2.5796 N   0  0  0  0  0  0  0  0  0  0  0  0
   -3.1496    0.2242    3.1641 C   0  0  0  0  0  0  0  0  0  0  0  0
   -3.5079   -1.1307    3.3033 C   0  0  0  0  0  0  0  0  0  0  0  0
   -4.7754   -1.4857    3.7692 C   0  0  0  0  0  0  0  0  0  0  0  0
   -5.7083   -0.4908    4.0871 C   0  0  0  0  0  0  0  0  0  0  0  0
   -7.3602   -0.9445    4.6144 S   0  0  0  0  0  0  0  0  0  0  0  0
   -7.9636   -1.2040    2.9149 C   0  0  0  0  0  0  0  0  0  0  0  0
   -5.3498    0.8598    3.9836 C   0  0  0  0  0  0  0  0  0  0  0  0
   -4.0742    1.2171    3.5302 C   0  0  0  0  0  0  0  0  0  0  0  0
   -1.0957    1.6410    3.1308 C   0  0  0  0  0  0  0  0  0  0  0  0
   -0.7122    1.5967    4.4814 C   0  0  0  0  0  0  0  0  0  0  0  0
   -0.0651    2.6873    5.0650 C   0  0  0  0  0  0  0  0  0  0  0  0
    0.1979    3.8378    4.3086 C   0  0  0  0  0  0  0  0  0  0  0  0
    0.8708    5.3056    5.0941 S   0  0  0  0  0  0  0  0  0  0  0  0
    2.6007    4.7983    4.8752 C   0  0  0  0  0  0  0  0  0  0  0  0
   -0.1394    3.8650    2.9459 C   0  0  0  0  0  0  0  0  0  0  0  0
   -0.7728    2.7648    2.3571 C   0  0  0  0  0  0  0  0  0  0  0  0
   -0.3457   -1.0371    1.4707 C   0  0  0  0  0  0  0  0  0  0  0  0
    1.0291   -1.1432    2.4124 S   0  0  0  0  0  0  0  0  0  0  0  0
   -2.9478    0.7576   -0.3453 C   0  0  0  0  0  0  0  0  0  0  0  0
   -2.4006    1.5389   -1.3524 C   0  0  0  0  0  0  0  0  0  0  0  0
   -3.3624    2.1633   -2.1490 C   0  0  0  0  0  0  0  0  0  0  0  0
   -3.1001    2.8276   -3.3582 C   0  0  0  0  0  0  0  0  0  0  0  0
   -1.7154    3.1096   -3.8046 C   0  0  0  0  0  0  0  0  0  0  0  0
   -0.9023    3.9834   -3.0642 C   0  0  0  0  0  0  0  0  0  0  0  0
    0.3940    4.2832   -3.5001 C   0  0  0  0  0  0  0  0  0  0  0  0
    1.1560    5.1288   -2.7636 F   0  0  0  0  0  0  0  0  0  0  0  0
    0.8919    3.7141   -4.6901 C   0  0  0  0  0  0  0  0  0  0  0  0
    2.2676    4.0793   -5.1915 C   0  0  0  0  0  0  0  0  0  0  0  0
    3.3324    3.1597   -4.6079 C   0  0  0  0  0  0  0  0  0  0  0  0
    0.0997    2.7850   -5.3901 C   0  0  0  0  0  0  0  0  0  0  0  0
    0.5768    2.1670   -6.5016 F   0  0  0  0  0  0  0  0  0  0  0  0
   -1.1963    2.4909   -4.9536 C   0  0  0  0  0  0  0  0  0  0  0  0
   -4.2116    3.1276   -4.1627 C   0  0  0  0  0  0  0  0  0  0  0  0
   -5.5271    2.8628   -3.7606 C   0  0  0  0  0  0  0  0  0  0  0  0
   -5.7916    2.2892   -2.4961 C   0  0  0  0  0  0  0  0  0  0  0  0
   -7.1618    2.0663   -1.9936 C   0  0  0  0  0  0  0  0  0  0  0  0
   -7.6224    2.8070   -0.8956 C   0  0  0  0  0  0  0  0  0  0  0  0
   -8.9228    2.6274   -0.4203 C   0  0  0  0  0  0  0  0  0  0  0  0
   -9.7866    1.7008   -1.0407 C   0  0  0  0  0  0  0  0  0  0  0  0
  -11.2081    1.5433   -0.5650 C   0  0  0  0  0  0  0  0  0  0  0  0
  -12.1326    2.5378   -1.2663 C   0  0  0  0  0  0  0  0  0  0  0  0
   -9.3205    0.9614   -2.1457 C   0  0  0  0  0  0  0  0  0  0  0  0
   -8.0142    1.1415   -2.6149 C   0  0  0  0  0  0  0  0  0  0  0  0
  -10.1312    0.0772   -2.7792 F   0  0  0  0  0  0  0  0  0  0  0  0
   -9.3444    3.3515    0.6449 F   0  0  0  0  0  0  0  0  0  0  0  0
   -4.6740    1.9037   -1.7357 C   0  0  0  0  0  0  0  0  0  0  0  0
   -4.6321    0.8571   -0.4071 S   0  0  0  0  0  0  0  0  0  0  0  0
   -6.4720    3.1401   -4.7642 C   0  0  0  0  0  0  0  0  0  0  0  0
   -5.8818    3.5705   -5.9510 C   0  0  0  0  0  0  0  0  0  0  0  0
   -4.2125    3.7030   -5.7428 S   0  0  0  0  0  0  0  0  0  0  0  0
   -6.5873    3.7425   -7.2304 C   0  0  0  0  0  0  0  0  0  0  0  0
   -6.3013    3.0062   -8.3233 C   0  0  0  0  0  0  0  0  0  0  0  0
   -5.3417    1.8679   -8.3730 C   0  0  0  0  0  0  0  0  0  0  0  0
   -4.8043    1.2803   -7.3963 O   0  0  0  0  0  0  0  0  0  0  0  0
   -5.2471    1.4441   -9.7468 C   0  0  0  0  0  0  0  0  0  0  0  0
   -6.0912    2.1769  -10.5243 C   0  0  0  0  0  0  0  0  0  0  0  0
   -6.0249    1.6707  -12.1576 S   0  0  0  0  0  0  0  0  0  0  0  0
   -4.8667    0.4808  -11.7895 C   0  0  0  0  0  0  0  0  0  0  0  0
   -4.1856   -0.4671  -12.5450 C   0  0  0  0  0  0  0  0  0  0  0  0
   -3.3205   -1.2203  -11.7426 C   0  0  0  0  0  0  0  0  0  0  0  0
   -3.4214   -0.6958  -10.1202 S   0  0  0  0  0  0  0  0  0  0  0  0
   -4.5589    0.4821  -10.4602 C   0  0  0  0  0  0  0  0  0  0  0  0
   -6.8389    3.1754   -9.7277 C   0  0  0  0  0  0  0  0  0  0  0  0
   -7.7737    4.0241  -10.2156 C   0  0  0  0  0  0  0  0  0  0  0  0
   -8.1231    4.0209  -11.6172 C   0  0  0  0  0  0  0  0  0  0  0  0
   -8.4186    4.0238  -12.7368 N   0  0  0  0  0  0  0  0  0  0  0  0
   -8.5002    4.9505   -9.3941 C   0  0  0  0  0  0  0  0  0  0  0  0
   -9.0959    5.7082   -8.7544 N   0  0  0  0  0  0  0  0  0  0  0  0
    6.8962   -4.3303    2.9582 H   0  0  0  0  0  0  0  0  0  0  0  0
    6.9168    1.2919    5.7087 H   0  0  0  0  0  0  0  0  0  0  0  0
    8.9007   -2.8885    7.8563 H   0  0  0  0  0  0  0  0  0  0  0  0
    9.3739   -0.0352    9.8149 H   0  0  0  0  0  0  0  0  0  0  0  0
    7.2863   -1.5876   10.7997 H   0  0  0  0  0  0  0  0  0  0  0  0
    7.4946    0.4188   12.5380 H   0  0  0  0  0  0  0  0  0  0  0  0
    6.5495    2.5785   11.4112 H   0  0  0  0  0  0  0  0  0  0  0  0
    5.7330    1.9557    8.9564 H   0  0  0  0  0  0  0  0  0  0  0  0
    5.7484   -0.7156    8.7767 H   0  0  0  0  0  0  0  0  0  0  0  0
    5.0454   -0.2003   10.3609 H   0  0  0  0  0  0  0  0  0  0  0  0
    8.5000    1.9435    8.7716 H   0  0  0  0  0  0  0  0  0  0  0  0
    6.2951   -1.0769    1.0095 H   0  0  0  0  0  0  0  0  0  0  0  0
    3.7351   -1.5704   -3.7769 H   0  0  0  0  0  0  0  0  0  0  0  0
    3.6490    0.2017   -3.6319 H   0  0  0  0  0  0  0  0  0  0  0  0
    1.2437   -1.5419   -2.7960 H   0  0  0  0  0  0  0  0  0  0  0  0
    1.2269    0.1522   -3.3887 H   0  0  0  0  0  0  0  0  0  0  0  0
    1.5443   -1.1888   -4.5433 H   0  0  0  0  0  0  0  0  0  0  0  0
    2.4503    1.6050   -2.2177 H   0  0  0  0  0  0  0  0  0  0  0  0
    2.1140    3.2919   -0.5046 H   0  0  0  0  0  0  0  0  0  0  0  0
    2.7933    2.8992    1.8020 H   0  0  0  0  0  0  0  0  0  0  0  0
    4.1310    0.9989    4.7757 H   0  0  0  0  0  0  0  0  0  0  0  0
    2.9470    2.0193    3.9127 H   0  0  0  0  0  0  0  0  0  0  0  0
    4.9812    3.1100    2.6832 H   0  0  0  0  0  0  0  0  0  0  0  0
    6.0454    2.1489    3.7642 H   0  0  0  0  0  0  0  0  0  0  0  0
    4.9488    3.3711    4.4586 H   0  0  0  0  0  0  0  0  0  0  0  0
    2.0389   -5.6766    0.9072 H   0  0  0  0  0  0  0  0  0  0  0  0
    4.1624   -6.9287    0.6319 H   0  0  0  0  0  0  0  0  0  0  0  0
    7.2570   -4.5134   -0.9850 H   0  0  0  0  0  0  0  0  0  0  0  0
    8.3873   -5.8307   -0.4898 H   0  0  0  0  0  0  0  0  0  0  0  0
    6.9978   -5.3930    0.5801 H   0  0  0  0  0  0  0  0  0  0  0  0
    5.0855   -4.5808   -2.8717 H   0  0  0  0  0  0  0  0  0  0  0  0
    2.9673   -3.3537   -2.5890 H   0  0  0  0  0  0  0  0  0  0  0  0
   -0.8857   -4.9964    0.5073 H   0  0  0  0  0  0  0  0  0  0  0  0
   -2.8208   -6.0259   -0.6347 H   0  0  0  0  0  0  0  0  0  0  0  0
   -3.3582   -8.5088   -4.1944 H   0  0  0  0  0  0  0  0  0  0  0  0
   -2.2929   -8.1889   -2.7685 H   0  0  0  0  0  0  0  0  0  0  0  0
   -1.8109   -7.6007   -4.4228 H   0  0  0  0  0  0  0  0  0  0  0  0
   -1.2572   -4.7453   -4.4412 H   0  0  0  0  0  0  0  0  0  0  0  0
    0.6790   -3.7363   -3.3115 H   0  0  0  0  0  0  0  0  0  0  0  0
   -2.8088   -1.9125    3.0306 H   0  0  0  0  0  0  0  0  0  0  0  0
   -5.0411   -2.5304    3.8521 H   0  0  0  0  0  0  0  0  0  0  0  0
   -7.4663   -2.0926    2.4697 H   0  0  0  0  0  0  0  0  0  0  0  0
   -9.0570   -1.3885    2.9386 H   0  0  0  0  0  0  0  0  0  0  0  0
   -7.7643   -0.3113    2.2826 H   0  0  0  0  0  0  0  0  0  0  0  0
   -6.0599    1.6346    4.2383 H   0  0  0  0  0  0  0  0  0  0  0  0
   -3.8189    2.2653    3.4299 H   0  0  0  0  0  0  0  0  0  0  0  0
   -0.9304    0.7189    5.0771 H   0  0  0  0  0  0  0  0  0  0  0  0
    0.2063    2.6512    6.1161 H   0  0  0  0  0  0  0  0  0  0  0  0
    2.7953    4.5491    3.8114 H   0  0  0  0  0  0  0  0  0  0  0  0
    3.2696    5.6319    5.1673 H   0  0  0  0  0  0  0  0  0  0  0  0
    2.8198    3.9222    5.5208 H   0  0  0  0  0  0  0  0  0  0  0  0
    0.0588    4.7530    2.3556 H   0  0  0  0  0  0  0  0  0  0  0  0
   -1.0696    2.8154    1.3161 H   0  0  0  0  0  0  0  0  0  0  0  0
   -1.3421    1.5415   -1.5746 H   0  0  0  0  0  0  0  0  0  0  0  0
   -1.2815    4.4373   -2.1569 H   0  0  0  0  0  0  0  0  0  0  0  0
    2.2961    4.0109   -6.3001 H   0  0  0  0  0  0  0  0  0  0  0  0
    2.5081    5.1296   -4.9280 H   0  0  0  0  0  0  0  0  0  0  0  0
    3.0755    2.1001   -4.8189 H   0  0  0  0  0  0  0  0  0  0  0  0
    3.4122    3.3196   -3.5114 H   0  0  0  0  0  0  0  0  0  0  0  0
    4.3141    3.3826   -5.0726 H   0  0  0  0  0  0  0  0  0  0  0  0
   -1.7996    1.7824   -5.5117 H   0  0  0  0  0  0  0  0  0  0  0  0
   -6.9699    3.5234   -0.4101 H   0  0  0  0  0  0  0  0  0  0  0  0
  -11.2691    1.6973    0.5335 H   0  0  0  0  0  0  0  0  0  0  0  0
  -11.5693    0.5103   -0.7631 H   0  0  0  0  0  0  0  0  0  0  0  0
  -12.1097    2.3796   -2.3684 H   0  0  0  0  0  0  0  0  0  0  0  0
  -11.8196    3.5815   -1.0448 H   0  0  0  0  0  0  0  0  0  0  0  0
  -13.1733    2.3942   -0.9101 H   0  0  0  0  0  0  0  0  0  0  0  0
   -7.6650    0.5641   -3.4622 H   0  0  0  0  0  0  0  0  0  0  0  0
   -7.5353    2.9707   -4.6611 H   0  0  0  0  0  0  0  0  0  0  0  0
   -7.3529    4.4967   -7.2398 H   0  0  0  0  0  0  0  0  0  0  0  0
   -4.3160   -0.6046  -13.6103 H   0  0  0  0  0  0  0  0  0  0  0  0
   -2.6810   -2.0195  -12.1062 H   0  0  0  0  0  0  0  0  0  0  0  0
  1  2  2  3
  2  3  1  0
  3  4  2  0
  3  5  1  0
  5  6  2  0
  6  7  1  0
  7  8  2  0
  8  9  1  0
  9 10  2  0
 10 11  1  0
 11 12  2  3
 12 13  1  0
 13 14  3  0
 12 15  1  0
 15 16  3  0
  8 17  1  0
 17 18  1  0
 18 19  1  0
 19 20  2  0
 20 21  1  0
 21 22  1  0
 21 23  1  0
  1 24  1  0
 24 25  2  0
 25 26  1  0
 26 27  1  0
 27 28  2  0
 28 29  1  0
 29 30  1  0
 30 31  1  0
 28 32  1  0
 32 33  2  0
 33 34  1  0
 34 35  2  0
 35 36  1  0
 36 37  1  0
 37 38  1  0
 26 39  2  0
 39 40  1  0
 39 41  1  0
 41 42  2  0
 42 43  1  0
 43 44  1  0
 44 45  2  0
 45 46  1  0
 46 47  2  0
 47 48  1  0
 48 49  1  0
 47 50  1  0
 50 51  2  0
 43 52  1  0
 52 53  2  0
 53 54  1  0
 54 55  2  0
 55 56  1  0
 56 57  1  0
 55 58  1  0
 58 59  2  0
 42 60  1  0
 60 61  1  0
 61 62  1  0
 62 63  2  0
 63 64  1  0
 64 65  1  0
 65 66  2  0
 66 67  1  0
 67 68  2  0
 68 69  1  0
 69 70  1  0
 68 71  1  0
 71 72  2  0
 64 73  1  0
 73 74  2  0
 74 75  1  0
 75 76  2  0
 76 77  1  0
 77 78  1  0
 76 79  1  0
 79 80  2  0
 63 81  1  0
 81 82  1  0
 62 83  1  0
 83 84  2  0
 84 85  1  0
 85 86  2  0
 86 87  1  0
 87 88  2  0
 88 89  1  0
 89 90  1  0
 89 91  2  0
 91 92  1  0
 92 93  1  0
 91 94  1  0
 94 95  1  0
 94 96  2  0
 86 97  1  0
 97 98  2  0
 98 99  1  0
 99100  1  0
100101  2  0
101102  1  0
102103  2  0
103104  1  0
104105  1  0
103106  1  0
106107  2  0
106108  1  0
102109  1  0
 99110  2  0
110111  1  0
 98112  1  0
112113  2  0
113114  1  0
113115  1  0
115116  2  3
116117  1  0
117118  2  0
117119  1  0
119120  2  0
120121  1  0
121122  1  0
122123  1  0
123124  2  0
124125  1  0
125126  1  0
120127  1  0
127128  2  3
128129  1  0
129130  3  0
128131  1  0
131132  3  0
 11  2  1  0
 23 17  1  0
 40 24  1  0
 82 41  1  0
111 83  1  0
127116  1  0
 10  5  1  0
 22 18  1  0
 35 27  1  0
 51 44  1  0
 59 52  1  0
 81 60  2  0
110 85  1  0
126119  1  0
 23  7  1  0
 72 65  1  0
 80 73  1  0
 96 87  1  0
114 97  1  0
126122  2  0
107100  1  0
  1133  1  0
  6134  1  0
  9135  1  0
 17136  1  0
 18137  1  0
 19138  1  0
 20139  1  0
 21140  1  0
 22141  1  0
 22142  1  0
 23143  1  0
 25144  1  0
 30145  1  0
 30146  1  0
 31147  1  0
 31148  1  0
 31149  1  0
 32150  1  0
 33151  1  0
 34152  1  0
 37153  1  0
 37154  1  0
 38155  1  0
 38156  1  0
 38157  1  0
 45158  1  0
 46159  1  0
 49160  1  0
 49161  1  0
 49162  1  0
 50163  1  0
 51164  1  0
 53165  1  0
 54166  1  0
 57167  1  0
 57168  1  0
 57169  1  0
 58170  1  0
 59171  1  0
 66172  1  0
 67173  1  0
 70174  1  0
 70175  1  0
 70176  1  0
 71177  1  0
 72178  1  0
 74179  1  0
 75180  1  0
 78181  1  0
 78182  1  0
 78183  1  0
 79184  1  0
 80185  1  0
 84186  1  0
 88187  1  0
 92188  1  0
 92189  1  0
 93190  1  0
 93191  1  0
 93192  1  0
 96193  1  0
101194  1  0
104195  1  0
104196  1  0
105197  1  0
105198  1  0
105199  1  0
107200  1  0
112201  1  0
115202  1  0
123203  1  0
124204  1  0
M  END

