
     RDKit          3D

142159  0  0  0  0  0  0  0  0999 V2000
    1.6934   -6.9843    1.5464 C   0  0  0  0  0  0  0  0  0  0  0  0
    0.9869   -7.0723    2.7285 C   0  0  0  0  0  0  0  0  0  0  0  0
   -0.1173   -6.1958    3.2328 C   0  0  0  0  0  0  0  0  0  0  0  0
   -1.1095   -5.7677    2.6025 O   0  0  0  0  0  0  0  0  0  0  0  0
   -0.0720   -6.1426    4.6571 C   0  0  0  0  0  0  0  0  0  0  0  0
   -0.7083   -5.2084    5.4803 C   0  0  0  0  0  0  0  0  0  0  0  0
   -0.3869   -5.3053    6.8166 C   0  0  0  0  0  0  0  0  0  0  0  0
    0.4886   -6.3170    7.3326 C   0  0  0  0  0  0  0  0  0  0  0  0
    1.1400   -7.2534    6.5374 C   0  0  0  0  0  0  0  0  0  0  0  0
    0.8486   -7.1342    5.1360 C   0  0  0  0  0  0  0  0  0  0  0  0
    1.4477   -7.8210    3.9586 C   0  0  0  0  0  0  0  0  0  0  0  0
    2.1994   -8.9671    4.0369 C   0  0  0  0  0  0  0  0  0  0  0  0
    2.3505   -9.7167    5.2680 C   0  0  0  0  0  0  0  0  0  0  0  0
    2.5238  -10.3182    6.2548 N   0  0  0  0  0  0  0  0  0  0  0  0
    2.9112   -9.5228    2.9338 C   0  0  0  0  0  0  0  0  0  0  0  0
    3.5510   -9.9668    2.0559 N   0  0  0  0  0  0  0  0  0  0  0  0
    0.4025   -5.7220    8.7046 C   0  0  0  0  0  0  0  0  0  0  0  0
    1.6840   -4.9468    9.1402 C   0  0  0  0  0  0  0  0  0  0  0  0
    1.2708   -4.1317   10.3344 C   0  0  0  0  0  0  0  0  0  0  0  0
    0.4543   -3.1691    9.8758 C   0  0  0  0  0  0  0  0  0  0  0  0
    0.3586   -3.3718    8.3874 C   0  0  0  0  0  0  0  0  0  0  0  0
    1.7845   -3.8239    8.1171 C   0  0  0  0  0  0  0  0  0  0  0  0
   -0.4835   -4.6724    8.1814 C   0  0  0  0  0  0  0  0  0  0  0  0
    1.5468   -5.9492    0.4593 C   0  0  0  0  0  0  0  0  0  0  0  0
    0.1747   -5.0167    0.2093 S   0  0  0  0  0  0  0  0  0  0  0  0
    0.9520   -3.5770   -0.1363 C   0  0  0  0  0  0  0  0  0  0  0  0
    2.2795   -3.8861   -0.4403 C   0  0  0  0  0  0  0  0  0  0  0  0
    3.0770   -3.1642   -1.4993 C   0  0  0  0  0  0  0  0  0  0  0  0
    2.5549   -2.2034   -2.1230 O   0  0  0  0  0  0  0  0  0  0  0  0
    4.3289   -3.7890   -2.0137 C   0  0  0  0  0  0  0  0  0  0  0  0
    5.1617   -3.3093   -3.0508 C   0  0  0  0  0  0  0  0  0  0  0  0
    5.0728   -1.9864   -3.7846 C   0  0  0  0  0  0  0  0  0  0  0  0
    5.1462   -0.8028   -2.7951 C   0  0  0  0  0  0  0  0  0  0  0  0
    6.3927   -4.4260   -3.3114 S   0  0  0  0  0  0  0  0  0  0  0  0
    5.9051   -5.5534   -2.1454 C   0  0  0  0  0  0  0  0  0  0  0  0
    6.6706   -6.7851   -1.8118 C   0  0  0  0  0  0  0  0  0  0  0  0
    7.5722   -6.5391   -0.6115 C   0  0  0  0  0  0  0  0  0  0  0  0
    4.7282   -5.0525   -1.5418 C   0  0  0  0  0  0  0  0  0  0  0  0
    3.9283   -5.7642   -0.5167 C   0  0  0  0  0  0  0  0  0  0  0  0
    4.3352   -6.8861   -0.0881 O   0  0  0  0  0  0  0  0  0  0  0  0
    2.6398   -5.1860   -0.0516 C   0  0  0  0  0  0  0  0  0  0  0  0
    0.3464   -2.2377    0.1841 C   0  0  0  0  0  0  0  0  0  0  0  0
    1.0976   -1.0950    0.5649 C   0  0  0  0  0  0  0  0  0  0  0  0
    2.4129   -0.8617    0.3851 N   0  0  0  0  0  0  0  0  0  0  0  0
    2.5847    0.4472    0.5615 N   0  0  0  0  0  0  0  0  0  0  0  0
    3.8507    1.1207    0.3129 C   0  0  0  0  0  0  0  0  0  0  0  0
    3.7706    1.9946   -0.9247 C   0  0  0  0  0  0  0  0  0  0  0  0
    1.4462    1.0810    0.8218 N   0  0  0  0  0  0  0  0  0  0  0  0
    0.5110    0.1112    0.8599 C   0  0  0  0  0  0  0  0  0  0  0  0
   -0.8676    0.3007    0.8435 C   0  0  0  0  0  0  0  0  0  0  0  0
   -1.6614   -0.8462    0.6506 C   0  0  0  0  0  0  0  0  0  0  0  0
   -1.0690   -2.0903    0.3247 C   0  0  0  0  0  0  0  0  0  0  0  0
   -1.9037   -3.1001   -0.0343 F   0  0  0  0  0  0  0  0  0  0  0  0
   -3.0109   -0.7252    0.6007 F   0  0  0  0  0  0  0  0  0  0  0  0
   -1.4042    1.6059    0.4448 C   0  0  0  0  0  0  0  0  0  0  0  0
   -1.7931    2.8821    1.4762 S   0  0  0  0  0  0  0  0  0  0  0  0
   -1.9627    4.0387    0.2619 C   0  0  0  0  0  0  0  0  0  0  0  0
   -1.7014    3.4420   -0.9780 C   0  0  0  0  0  0  0  0  0  0  0  0
   -1.5910    4.1391   -2.2789 C   0  0  0  0  0  0  0  0  0  0  0  0
   -1.9125    5.3538   -2.3821 O   0  0  0  0  0  0  0  0  0  0  0  0
   -1.1205    3.3623   -3.4551 C   0  0  0  0  0  0  0  0  0  0  0  0
   -0.9660    3.8466   -4.7552 C   0  0  0  0  0  0  0  0  0  0  0  0
   -1.1466    5.2616   -5.2329 C   0  0  0  0  0  0  0  0  0  0  0  0
    0.0442    6.1107   -4.8017 C   0  0  0  0  0  0  0  0  0  0  0  0
   -0.4751    2.5812   -5.7398 S   0  0  0  0  0  0  0  0  0  0  0  0
   -0.4261    1.3971   -4.5526 C   0  0  0  0  0  0  0  0  0  0  0  0
   -0.1950   -0.0685   -4.8176 C   0  0  0  0  0  0  0  0  0  0  0  0
   -1.5334   -0.8101   -4.9150 C   0  0  0  0  0  0  0  0  0  0  0  0
   -0.8256    1.9899   -3.3480 C   0  0  0  0  0  0  0  0  0  0  0  0
   -0.9453    1.3000   -2.0428 C   0  0  0  0  0  0  0  0  0  0  0  0
   -0.6863    0.0712   -1.9193 O   0  0  0  0  0  0  0  0  0  0  0  0
   -1.3866    2.0882   -0.8700 C   0  0  0  0  0  0  0  0  0  0  0  0
   -2.1627    5.4722    0.4523 C   0  0  0  0  0  0  0  0  0  0  0  0
   -3.3445    6.0594    0.2042 C   0  0  0  0  0  0  0  0  0  0  0  0
   -4.5898    5.3348    0.0100 C   0  0  0  0  0  0  0  0  0  0  0  0
   -4.9280    4.2942    0.6405 O   0  0  0  0  0  0  0  0  0  0  0  0
   -5.4081    6.0435   -0.9249 C   0  0  0  0  0  0  0  0  0  0  0  0
   -6.6355    5.6193   -1.4862 C   0  0  0  0  0  0  0  0  0  0  0  0
   -7.1576    6.4840   -2.4076 C   0  0  0  0  0  0  0  0  0  0  0  0
   -6.5230    7.7027   -2.8039 C   0  0  0  0  0  0  0  0  0  0  0  0
   -5.3144    8.1418   -2.2460 C   0  0  0  0  0  0  0  0  0  0  0  0
   -4.7500    7.2487   -1.3000 C   0  0  0  0  0  0  0  0  0  0  0  0
   -3.4783    7.3544   -0.5373 C   0  0  0  0  0  0  0  0  0  0  0  0
   -2.6188    8.4083   -0.4607 C   0  0  0  0  0  0  0  0  0  0  0  0
   -1.6488    8.5009    0.6177 C   0  0  0  0  0  0  0  0  0  0  0  0
   -0.8751    8.5953    1.4795 N   0  0  0  0  0  0  0  0  0  0  0  0
   -2.6159    9.4731   -1.4167 C   0  0  0  0  0  0  0  0  0  0  0  0
   -2.5673   10.3179   -2.2169 N   0  0  0  0  0  0  0  0  0  0  0  0
   -7.6292    7.9841   -3.7794 C   0  0  0  0  0  0  0  0  0  0  0  0
   -8.6981    9.0553   -3.4201 C   0  0  0  0  0  0  0  0  0  0  0  0
   -8.8536    9.1201   -1.9118 C   0  0  0  0  0  0  0  0  0  0  0  0
   -9.4373    7.9789   -1.5414 C   0  0  0  0  0  0  0  0  0  0  0  0
   -9.6438    7.1702   -2.8033 C   0  0  0  0  0  0  0  0  0  0  0  0
   -9.9744    8.2996   -3.7544 C   0  0  0  0  0  0  0  0  0  0  0  0
   -8.2692    6.7292   -3.3845 C   0  0  0  0  0  0  0  0  0  0  0  0
    2.5951   -7.5585    1.5208 H   0  0  0  0  0  0  0  0  0  0  0  0
   -1.4001   -4.4503    5.1175 H   0  0  0  0  0  0  0  0  0  0  0  0
    1.9054   -7.8956    6.9729 H   0  0  0  0  0  0  0  0  0  0  0  0
   -0.0461   -6.4103    9.4605 H   0  0  0  0  0  0  0  0  0  0  0  0
    2.6085   -5.5422    9.2741 H   0  0  0  0  0  0  0  0  0  0  0  0
    1.5318   -4.3023   11.3852 H   0  0  0  0  0  0  0  0  0  0  0  0
   -0.0012   -2.4025   10.4798 H   0  0  0  0  0  0  0  0  0  0  0  0
    0.0177   -2.4886    7.7991 H   0  0  0  0  0  0  0  0  0  0  0  0
    2.5495   -3.0309    8.3848 H   0  0  0  0  0  0  0  0  0  0  0  0
    1.9801   -4.1553    7.0772 H   0  0  0  0  0  0  0  0  0  0  0  0
   -1.4780   -4.6804    8.6270 H   0  0  0  0  0  0  0  0  0  0  0  0
    4.1500   -1.9731   -4.4218 H   0  0  0  0  0  0  0  0  0  0  0  0
    5.9521   -1.9075   -4.4623 H   0  0  0  0  0  0  0  0  0  0  0  0
    4.1295   -0.3895   -2.5696 H   0  0  0  0  0  0  0  0  0  0  0  0
    5.7905   -0.0014   -3.2378 H   0  0  0  0  0  0  0  0  0  0  0  0
    5.6028   -1.1120   -1.8144 H   0  0  0  0  0  0  0  0  0  0  0  0
    5.9815   -7.6403   -1.6068 H   0  0  0  0  0  0  0  0  0  0  0  0
    7.2682   -7.0955   -2.7069 H   0  0  0  0  0  0  0  0  0  0  0  0
    8.0411   -7.4911   -0.3122 H   0  0  0  0  0  0  0  0  0  0  0  0
    8.3574   -5.8025   -0.8893 H   0  0  0  0  0  0  0  0  0  0  0  0
    6.9894   -6.1387    0.2517 H   0  0  0  0  0  0  0  0  0  0  0  0
    4.6725    0.3566    0.2014 H   0  0  0  0  0  0  0  0  0  0  0  0
    4.0832    1.7614    1.2053 H   0  0  0  0  0  0  0  0  0  0  0  0
    4.7812    2.2816   -1.2743 H   0  0  0  0  0  0  0  0  0  0  0  0
    3.2130    2.9259   -0.6908 H   0  0  0  0  0  0  0  0  0  0  0  0
    3.2371    1.4546   -1.7512 H   0  0  0  0  0  0  0  0  0  0  0  0
   -2.0910    5.6864   -4.8396 H   0  0  0  0  0  0  0  0  0  0  0  0
   -1.2136    5.2735   -6.3450 H   0  0  0  0  0  0  0  0  0  0  0  0
   -0.1132    7.1651   -5.1219 H   0  0  0  0  0  0  0  0  0  0  0  0
    0.1695    6.1032   -3.6908 H   0  0  0  0  0  0  0  0  0  0  0  0
    0.9840    5.7298   -5.2612 H   0  0  0  0  0  0  0  0  0  0  0  0
    0.3485   -0.1894   -5.7664 H   0  0  0  0  0  0  0  0  0  0  0  0
    0.4311   -0.5193   -4.0317 H   0  0  0  0  0  0  0  0  0  0  0  0
   -1.3574   -1.8692   -5.1556 H   0  0  0  0  0  0  0  0  0  0  0  0
   -2.1745   -0.3486   -5.7099 H   0  0  0  0  0  0  0  0  0  0  0  0
   -2.0834   -0.7642   -3.9432 H   0  0  0  0  0  0  0  0  0  0  0  0
   -1.2377    6.0427    0.4051 H   0  0  0  0  0  0  0  0  0  0  0  0
   -7.1120    4.7001   -1.1935 H   0  0  0  0  0  0  0  0  0  0  0  0
   -4.8764    9.0717   -2.5822 H   0  0  0  0  0  0  0  0  0  0  0  0
   -7.2960    7.9967   -4.8462 H   0  0  0  0  0  0  0  0  0  0  0  0
   -8.5759   10.0444   -3.9080 H   0  0  0  0  0  0  0  0  0  0  0  0
   -8.6459    9.9542   -1.2557 H   0  0  0  0  0  0  0  0  0  0  0  0
   -9.7445    7.7256   -0.5293 H   0  0  0  0  0  0  0  0  0  0  0  0
  -10.4059    6.3640   -2.7329 H   0  0  0  0  0  0  0  0  0  0  0  0
  -10.0332    7.9772   -4.8317 H   0  0  0  0  0  0  0  0  0  0  0  0
  -10.9058    8.8423   -3.4838 H   0  0  0  0  0  0  0  0  0  0  0  0
   -8.3339    5.9490   -4.1867 H   0  0  0  0  0  0  0  0  0  0  0  0
  1  2  2  3
  2  3  1  0
  3  4  2  0
  3  5  1  0
  5  6  2  0
  6  7  1  0
  7  8  2  0
  8  9  1  0
  9 10  2  0
 10 11  1  0
 11 12  2  3
 12 13  1  0
 13 14  3  0
 12 15  1  0
 15 16  3  0
  8 17  1  0
 17 18  1  0
 18 19  1  0
 19 20  2  0
 20 21  1  0
 21 22  1  0
 21 23  1  0
  1 24  1  0
 24 25  1  0
 25 26  1  0
 26 27  2  0
 27 28  1  0
 28 29  2  0
 28 30  1  0
 30 31  2  0
 31 32  1  0
 32 33  1  0
 31 34  1  0
 34 35  1  0
 35 36  1  0
 36 37  1  0
 35 38  2  0
 38 39  1  0
 39 40  2  0
 39 41  1  0
 26 42  1  0
 42 43  1  0
 43 44  2  0
 44 45  1  0
 45 46  1  0
 46 47  1  0
 45 48  1  0
 48 49  2  0
 49 50  1  0
 50 51  2  0
 51 52  1  0
 52 53  1  0
 51 54  1  0
 50 55  1  0
 55 56  1  0
 56 57  1  0
 57 58  2  0
 58 59  1  0
 59 60  2  0
 59 61  1  0
 61 62  2  0
 62 63  1  0
 63 64  1  0
 62 65  1  0
 65 66  1  0
 66 67  1  0
 67 68  1  0
 66 69  2  0
 69 70  1  0
 70 71  2  0
 70 72  1  0
 57 73  1  0
 73 74  2  3
 74 75  1  0
 75 76  2  0
 75 77  1  0
 77 78  2  0
 78 79  1  0
 79 80  2  0
 80 81  1  0
 81 82  2  0
 82 83  1  0
 83 84  2  3
 84 85  1  0
 85 86  3  0
 84 87  1  0
 87 88  3  0
 80 89  1  0
 89 90  1  0
 90 91  1  0
 91 92  2  0
 92 93  1  0
 93 94  1  0
 93 95  1  0
 11  2  1  0
 23 17  1  0
 41 24  2  0
 52 42  2  0
 72 55  2  0
 83 74  1  0
 95 89  1  0
 10  5  1  0
 22 18  1  0
 41 27  1  0
 49 43  1  0
 72 58  1  0
 82 77  1  0
 94 90  1  0
 23  7  1  0
 38 30  1  0
 69 61  1  0
 95 79  1  0
  1 96  1  0
  6 97  1  0
  9 98  1  0
 17 99  1  0
 18100  1  0
 19101  1  0
 20102  1  0
 21103  1  0
 22104  1  0
 22105  1  0
 23106  1  0
 32107  1  0
 32108  1  0
 33109  1  0
 33110  1  0
 33111  1  0
 36112  1  0
 36113  1  0
 37114  1  0
 37115  1  0
 37116  1  0
 46117  1  0
 46118  1  0
 47119  1  0
 47120  1  0
 47121  1  0
 63122  1  0
 63123  1  0
 64124  1  0
 64125  1  0
 64126  1  0
 67127  1  0
 67128  1  0
 68129  1  0
 68130  1  0
 68131  1  0
 73132  1  0
 78133  1  0
 81134  1  0
 89135  1  0
 90136  1  0
 91137  1  0
 92138  1  0
 93139  1  0
 94140  1  0
 94141  1  0
 95142  1  0
M  END

