
     RDKit          3D

213235  0  0  0  0  0  0  0  0999 V2000
   -6.3805    3.9971    4.1194 C   0  0  0  0  0  0  0  0  0  0  0  0
   -5.6881    2.9036    4.5877 C   0  0  0  0  0  0  0  0  0  0  0  0
   -4.3933    2.4609    4.2811 C   0  0  0  0  0  0  0  0  0  0  0  0
   -3.4007    2.9724    3.6873 O   0  0  0  0  0  0  0  0  0  0  0  0
   -4.2387    1.0773    4.8035 C   0  0  0  0  0  0  0  0  0  0  0  0
   -3.2013    0.1605    4.5650 C   0  0  0  0  0  0  0  0  0  0  0  0
   -3.3604   -1.1468    4.9273 C   0  0  0  0  0  0  0  0  0  0  0  0
   -4.5291   -1.5334    5.5250 C   0  0  0  0  0  0  0  0  0  0  0  0
   -5.5659   -0.6123    5.7803 C   0  0  0  0  0  0  0  0  0  0  0  0
   -5.4019    0.7024    5.4051 C   0  0  0  0  0  0  0  0  0  0  0  0
   -6.4337    1.8908    5.2938 C   0  0  0  0  0  0  0  0  0  0  0  0
   -7.6612    1.3720    5.1916 C   0  0  0  0  0  0  0  0  0  0  0  0
   -8.4346    1.8528    4.0429 C   0  0  0  0  0  0  0  0  0  0  0  0
   -9.0608    2.2432    3.1443 N   0  0  0  0  0  0  0  0  0  0  0  0
   -8.2896    0.5851    6.1453 C   0  0  0  0  0  0  0  0  0  0  0  0
   -8.8439   -0.0796    6.9588 N   0  0  0  0  0  0  0  0  0  0  0  0
   -4.0967   -2.9549    5.5201 C   0  0  0  0  0  0  0  0  0  0  0  0
   -4.6688   -3.8134    4.4064 C   0  0  0  0  0  0  0  0  0  0  0  0
   -3.7495   -4.9830    4.2504 C   0  0  0  0  0  0  0  0  0  0  0  0
   -2.6225   -4.5799    3.6642 C   0  0  0  0  0  0  0  0  0  0  0  0
   -2.7194   -3.1029    3.5411 C   0  0  0  0  0  0  0  0  0  0  0  0
   -4.2287   -3.0150    3.1850 C   0  0  0  0  0  0  0  0  0  0  0  0
   -2.7572   -2.5172    4.9392 C   0  0  0  0  0  0  0  0  0  0  0  0
   -5.6215    4.7937    3.0832 C   0  0  0  0  0  0  0  0  0  0  0  0
   -4.3675    5.1823    2.9206 C   0  0  0  0  0  0  0  0  0  0  0  0
   -3.9008    5.4123    1.6362 C   0  0  0  0  0  0  0  0  0  0  0  0
   -2.5748    5.4193    1.2244 C   0  0  0  0  0  0  0  0  0  0  0  0
   -1.4556    5.6908    2.0867 C   0  0  0  0  0  0  0  0  0  0  0  0
   -0.1894    5.1681    2.0317 C   0  0  0  0  0  0  0  0  0  0  0  0
    0.7887    5.6535    2.7989 C   0  0  0  0  0  0  0  0  0  0  0  0
    0.6725    6.6422    3.6609 C   0  0  0  0  0  0  0  0  0  0  0  0
    1.7448    7.5401    4.7191 S   0  0  0  0  0  0  0  0  0  0  0  0
    3.4566    6.9202    4.5248 C   0  0  0  0  0  0  0  0  0  0  0  0
    3.9265    7.0853    3.0962 C   0  0  0  0  0  0  0  0  0  0  0  0
   -1.2609    7.0566    3.4096 Se  0  0  0  0  0  2  0  0  0  0  0  0
   -2.2880    5.2189   -0.1454 C   0  0  0  0  0  0  0  0  0  0  0  0
   -3.1728    5.0292   -1.1316 C   0  0  0  0  0  0  0  0  0  0  0  0
   -4.5075    5.0559   -0.7107 C   0  0  0  0  0  0  0  0  0  0  0  0
   -5.6250    5.1886   -1.6458 C   0  0  0  0  0  0  0  0  0  0  0  0
   -6.9396    5.0426   -1.5689 C   0  0  0  0  0  0  0  0  0  0  0  0
   -7.7621    5.4165   -2.5707 C   0  0  0  0  0  0  0  0  0  0  0  0
   -7.3635    5.9441   -3.7003 C   0  0  0  0  0  0  0  0  0  0  0  0
   -7.9962    6.6147   -5.1954 S   0  0  0  0  0  0  0  0  0  0  0  0
   -8.2946    8.4102   -5.0403 C   0  0  0  0  0  0  0  0  0  0  0  0
   -9.4654    8.7353   -4.1521 C   0  0  0  0  0  0  0  0  0  0  0  0
   -5.3933    5.9395   -3.3269 Se  0  0  0  0  0  2  0  0  0  0  0  0
   -4.7870    5.2275    0.6393 C   0  0  0  0  0  0  0  0  0  0  0  0
   -6.2428    4.7667    1.4388 S   0  0  0  0  0  0  0  0  0  0  0  0
   -2.7357    4.5220   -2.3292 C   0  0  0  0  0  0  0  0  0  0  0  0
   -1.4565    4.2270   -2.4612 C   0  0  0  0  0  0  0  0  0  0  0  0
   -0.8171    4.7032   -0.8784 S   0  0  0  0  0  0  0  0  0  0  0  0
   -0.7052    3.2081   -3.2293 C   0  0  0  0  0  0  0  0  0  0  0  0
    0.2691    3.0531   -4.0639 C   0  0  0  0  0  0  0  0  0  0  0  0
    0.7623    1.7901   -4.3120 C   0  0  0  0  0  0  0  0  0  0  0  0
    1.8609    1.5628   -5.2753 C   0  0  0  0  0  0  0  0  0  0  0  0
    3.1536    1.6786   -4.7676 C   0  0  0  0  0  0  0  0  0  0  0  0
    3.3518    1.9381   -3.4435 O   0  0  0  0  0  0  0  0  0  0  0  0
    4.5618    2.0715   -2.7877 C   0  0  0  0  0  0  0  0  0  0  0  0
    5.4904    3.1196   -3.2924 C   0  0  0  0  0  0  0  0  0  0  0  0
    4.1740    1.5188   -5.6638 C   0  0  0  0  0  0  0  0  0  0  0  0
    3.9276    1.2604   -6.9835 C   0  0  0  0  0  0  0  0  0  0  0  0
    2.6091    1.1525   -7.4452 C   0  0  0  0  0  0  0  0  0  0  0  0
    1.5593    1.3038   -6.5814 C   0  0  0  0  0  0  0  0  0  0  0  0
    0.2400    1.1594   -7.0228 O   0  0  0  0  0  0  0  0  0  0  0  0
    0.0174    1.0174   -8.4698 C   0  0  0  0  0  0  0  0  0  0  0  0
    0.3455    2.3632   -9.0541 C   0  0  0  0  0  0  0  0  0  0  0  0
    0.2164    0.7460   -3.6779 C   0  0  0  0  0  0  0  0  0  0  0  0
   -1.0201    1.5183   -2.7363 S   0  0  0  0  0  0  0  0  0  0  0  0
    0.5914   -0.6581   -3.4006 C   0  0  0  0  0  0  0  0  0  0  0  0
    0.5570   -1.8744   -3.8527 C   0  0  0  0  0  0  0  0  0  0  0  0
   -0.2695   -2.2000   -5.0083 N   0  0  0  0  0  0  0  0  0  0  0  0
   -1.6103   -1.6590   -4.9546 C   0  0  0  0  0  0  0  0  0  0  0  0
   -2.1986   -1.0751   -6.0347 C   0  0  0  0  0  0  0  0  0  0  0  0
   -3.4829   -0.5319   -5.9293 C   0  0  0  0  0  0  0  0  0  0  0  0
   -4.1717   -0.5784   -4.7600 C   0  0  0  0  0  0  0  0  0  0  0  0
   -5.8175    0.0548   -4.5572 S   0  0  0  0  0  0  0  0  0  0  0  0
   -7.0181   -1.2947   -4.7607 C   0  0  0  0  0  0  0  0  0  0  0  0
   -3.5376   -1.1880   -3.6589 C   0  0  0  0  0  0  0  0  0  0  0  0
   -2.2832   -1.7200   -3.7468 C   0  0  0  0  0  0  0  0  0  0  0  0
    0.0232   -3.0467   -6.0631 C   0  0  0  0  0  0  0  0  0  0  0  0
    1.1996   -3.1630   -6.7719 C   0  0  0  0  0  0  0  0  0  0  0  0
    1.3473   -4.0759   -7.8265 C   0  0  0  0  0  0  0  0  0  0  0  0
    0.3262   -4.8900   -8.1911 C   0  0  0  0  0  0  0  0  0  0  0  0
    0.5188   -6.0811   -9.4818 S   0  0  0  0  0  0  0  0  0  0  0  0
    0.9405   -7.7125   -8.7848 C   0  0  0  0  0  0  0  0  0  0  0  0
   -0.8638   -4.8048   -7.5128 C   0  0  0  0  0  0  0  0  0  0  0  0
   -1.0143   -3.9294   -6.4969 C   0  0  0  0  0  0  0  0  0  0  0  0
    1.1154   -2.8685   -3.0558 C   0  0  0  0  0  0  0  0  0  0  0  0
    1.5172   -4.5812   -3.0999 S   0  0  0  0  0  0  0  0  0  0  0  0
    2.3014   -4.7717   -1.6508 C   0  0  0  0  0  0  0  0  0  0  0  0
    2.2495   -3.5134   -1.1113 C   0  0  0  0  0  0  0  0  0  0  0  0
    2.5643   -3.1815    0.2743 N   0  0  0  0  0  0  0  0  0  0  0  0
    2.9304   -1.9112    0.7431 C   0  0  0  0  0  0  0  0  0  0  0  0
    2.3388   -1.4255    1.9218 C   0  0  0  0  0  0  0  0  0  0  0  0
    2.6476   -0.1832    2.3961 C   0  0  0  0  0  0  0  0  0  0  0  0
    3.5545    0.6517    1.7351 C   0  0  0  0  0  0  0  0  0  0  0  0
    3.9167    2.2991    2.4105 S   0  0  0  0  0  0  0  0  0  0  0  0
    2.9895    2.5741    3.9075 C   0  0  0  0  0  0  0  0  0  0  0  0
    4.1249    0.1735    0.5898 C   0  0  0  0  0  0  0  0  0  0  0  0
    3.8088   -1.1060    0.1021 C   0  0  0  0  0  0  0  0  0  0  0  0
    2.4456   -4.1767    1.3058 C   0  0  0  0  0  0  0  0  0  0  0  0
    1.3624   -5.0459    1.3679 C   0  0  0  0  0  0  0  0  0  0  0  0
    1.2240   -5.9135    2.4302 C   0  0  0  0  0  0  0  0  0  0  0  0
    2.1615   -5.9317    3.4497 C   0  0  0  0  0  0  0  0  0  0  0  0
    2.0165   -7.0314    4.8403 S   0  0  0  0  0  0  0  0  0  0  0  0
    1.0363   -6.2088    6.1558 C   0  0  0  0  0  0  0  0  0  0  0  0
    3.2211   -5.0889    3.3926 C   0  0  0  0  0  0  0  0  0  0  0  0
    3.3637   -4.2099    2.3152 C   0  0  0  0  0  0  0  0  0  0  0  0
    1.6286   -2.5575   -1.8868 C   0  0  0  0  0  0  0  0  0  0  0  0
    1.3862   -0.8570   -1.8210 S   0  0  0  0  0  0  0  0  0  0  0  0
    3.0281   -5.8765   -0.8971 C   0  0  0  0  0  0  0  0  0  0  0  0
    4.3075   -5.5661   -0.6516 C   0  0  0  0  0  0  0  0  0  0  0  0
    4.9797   -4.3364   -1.0844 C   0  0  0  0  0  0  0  0  0  0  0  0
    4.5537   -3.5802   -1.9939 O   0  0  0  0  0  0  0  0  0  0  0  0
    6.2085   -4.1290   -0.3410 C   0  0  0  0  0  0  0  0  0  0  0  0
    7.0554   -3.0503   -0.4017 C   0  0  0  0  0  0  0  0  0  0  0  0
    8.1148   -3.0276    0.4929 C   0  0  0  0  0  0  0  0  0  0  0  0
    8.3083   -4.0259    1.3942 C   0  0  0  0  0  0  0  0  0  0  0  0
    7.4241   -5.1159    1.4128 C   0  0  0  0  0  0  0  0  0  0  0  0
    6.3521   -5.1849    0.5381 C   0  0  0  0  0  0  0  0  0  0  0  0
    5.1984   -6.1228    0.3826 C   0  0  0  0  0  0  0  0  0  0  0  0
    5.0396   -7.2523    1.0186 C   0  0  0  0  0  0  0  0  0  0  0  0
    6.0073   -7.6683    2.0065 C   0  0  0  0  0  0  0  0  0  0  0  0
    6.8275   -8.0001    2.8235 N   0  0  0  0  0  0  0  0  0  0  0  0
    3.9724   -8.1963    0.8009 C   0  0  0  0  0  0  0  0  0  0  0  0
    3.1294   -8.9497    0.6277 N   0  0  0  0  0  0  0  0  0  0  0  0
    9.4673   -3.3343    2.0003 C   0  0  0  0  0  0  0  0  0  0  0  0
    9.0843   -2.6293    3.2840 C   0  0  0  0  0  0  0  0  0  0  0  0
    7.6620   -2.1898    3.1451 C   0  0  0  0  0  0  0  0  0  0  0  0
    7.6377   -1.1767    2.2929 C   0  0  0  0  0  0  0  0  0  0  0  0
    9.0062   -1.0120    1.7333 C   0  0  0  0  0  0  0  0  0  0  0  0
    9.8015   -1.3017    3.0223 C   0  0  0  0  0  0  0  0  0  0  0  0
    9.3279   -2.2658    0.9336 C   0  0  0  0  0  0  0  0  0  0  0  0
   -7.3178    4.2145    4.4648 H   0  0  0  0  0  0  0  0  0  0  0  0
   -2.2993    0.5249    4.1080 H   0  0  0  0  0  0  0  0  0  0  0  0
   -6.4311   -0.9813    6.2622 H   0  0  0  0  0  0  0  0  0  0  0  0
   -4.0274   -3.4685    6.4879 H   0  0  0  0  0  0  0  0  0  0  0  0
   -5.7100   -3.9928    4.4679 H   0  0  0  0  0  0  0  0  0  0  0  0
   -3.9886   -6.0094    4.5822 H   0  0  0  0  0  0  0  0  0  0  0  0
   -1.8368   -5.2681    3.3605 H   0  0  0  0  0  0  0  0  0  0  0  0
   -2.0926   -2.6544    2.8218 H   0  0  0  0  0  0  0  0  0  0  0  0
   -4.6192   -2.0364    3.1144 H   0  0  0  0  0  0  0  0  0  0  0  0
   -4.3690   -3.6346    2.2445 H   0  0  0  0  0  0  0  0  0  0  0  0
   -1.8882   -2.6667    5.5729 H   0  0  0  0  0  0  0  0  0  0  0  0
   -3.6953    5.3873    3.8070 H   0  0  0  0  0  0  0  0  0  0  0  0
   -0.0495    4.2851    1.3377 H   0  0  0  0  0  0  0  0  0  0  0  0
    1.8422    5.1683    2.7182 H   0  0  0  0  0  0  0  0  0  0  0  0
    3.4860    5.8881    4.8873 H   0  0  0  0  0  0  0  0  0  0  0  0
    4.1037    7.5902    5.1370 H   0  0  0  0  0  0  0  0  0  0  0  0
    3.0967    7.4241    2.4313 H   0  0  0  0  0  0  0  0  0  0  0  0
    4.7157    7.8149    2.9871 H   0  0  0  0  0  0  0  0  0  0  0  0
    4.3195    6.1048    2.7373 H   0  0  0  0  0  0  0  0  0  0  0  0
   -7.3944    4.5771   -0.6343 H   0  0  0  0  0  0  0  0  0  0  0  0
   -8.9048    5.2675   -2.4502 H   0  0  0  0  0  0  0  0  0  0  0  0
   -8.4341    8.8322   -6.0275 H   0  0  0  0  0  0  0  0  0  0  0  0
   -7.3638    8.9075   -4.6300 H   0  0  0  0  0  0  0  0  0  0  0  0
   -9.0513    9.0782   -3.1856 H   0  0  0  0  0  0  0  0  0  0  0  0
  -10.2105    7.9424   -4.0730 H   0  0  0  0  0  0  0  0  0  0  0  0
  -10.0316    9.6255   -4.5311 H   0  0  0  0  0  0  0  0  0  0  0  0
   -3.4189    4.3359   -3.1851 H   0  0  0  0  0  0  0  0  0  0  0  0
    0.7211    3.9503   -4.5822 H   0  0  0  0  0  0  0  0  0  0  0  0
    4.3128    2.3808   -1.7191 H   0  0  0  0  0  0  0  0  0  0  0  0
    5.0831    1.0817   -2.6140 H   0  0  0  0  0  0  0  0  0  0  0  0
    5.1156    3.6781   -4.1826 H   0  0  0  0  0  0  0  0  0  0  0  0
    6.4477    2.6259   -3.5850 H   0  0  0  0  0  0  0  0  0  0  0  0
    5.8204    3.8493   -2.4757 H   0  0  0  0  0  0  0  0  0  0  0  0
    5.2063    1.5954   -5.2891 H   0  0  0  0  0  0  0  0  0  0  0  0
    4.7400    1.1226   -7.6461 H   0  0  0  0  0  0  0  0  0  0  0  0
    2.5066    0.8981   -8.4690 H   0  0  0  0  0  0  0  0  0  0  0  0
    0.6923    0.2324   -8.7675 H   0  0  0  0  0  0  0  0  0  0  0  0
   -1.0327    0.8090   -8.6337 H   0  0  0  0  0  0  0  0  0  0  0  0
   -0.0616    3.1986   -8.4134 H   0  0  0  0  0  0  0  0  0  0  0  0
    1.3961    2.5794   -9.1842 H   0  0  0  0  0  0  0  0  0  0  0  0
   -0.2182    2.4504  -10.0394 H   0  0  0  0  0  0  0  0  0  0  0  0
   -1.7149   -1.0037   -7.0072 H   0  0  0  0  0  0  0  0  0  0  0  0
   -3.9453   -0.0718   -6.7668 H   0  0  0  0  0  0  0  0  0  0  0  0
   -7.8974   -1.0980   -4.0944 H   0  0  0  0  0  0  0  0  0  0  0  0
   -6.5388   -2.2400   -4.4238 H   0  0  0  0  0  0  0  0  0  0  0  0
   -7.3559   -1.3462   -5.7928 H   0  0  0  0  0  0  0  0  0  0  0  0
   -4.1011   -1.2104   -2.7335 H   0  0  0  0  0  0  0  0  0  0  0  0
   -1.8079   -2.1806   -2.8999 H   0  0  0  0  0  0  0  0  0  0  0  0
    2.0246   -2.5335   -6.5073 H   0  0  0  0  0  0  0  0  0  0  0  0
    2.3138   -4.0918   -8.3038 H   0  0  0  0  0  0  0  0  0  0  0  0
    0.5000   -7.8266   -7.7661 H   0  0  0  0  0  0  0  0  0  0  0  0
    2.0125   -7.8823   -8.8509 H   0  0  0  0  0  0  0  0  0  0  0  0
    0.4324   -8.4763   -9.4245 H   0  0  0  0  0  0  0  0  0  0  0  0
   -1.6576   -5.4646   -7.8481 H   0  0  0  0  0  0  0  0  0  0  0  0
   -1.9571   -3.8559   -5.9708 H   0  0  0  0  0  0  0  0  0  0  0  0
    1.6390   -2.1038    2.4030 H   0  0  0  0  0  0  0  0  0  0  0  0
    2.1912    0.1960    3.3094 H   0  0  0  0  0  0  0  0  0  0  0  0
    3.2773    1.7659    4.6460 H   0  0  0  0  0  0  0  0  0  0  0  0
    1.8919    2.5603    3.7045 H   0  0  0  0  0  0  0  0  0  0  0  0
    3.2303    3.5344    4.3728 H   0  0  0  0  0  0  0  0  0  0  0  0
    4.8328    0.7723    0.0483 H   0  0  0  0  0  0  0  0  0  0  0  0
    4.3168   -1.3537   -0.8231 H   0  0  0  0  0  0  0  0  0  0  0  0
    0.6154   -5.0682    0.5885 H   0  0  0  0  0  0  0  0  0  0  0  0
    0.3934   -6.6077    2.5079 H   0  0  0  0  0  0  0  0  0  0  0  0
   -0.0108   -6.4667    5.9467 H   0  0  0  0  0  0  0  0  0  0  0  0
    1.3444   -6.5330    7.1617 H   0  0  0  0  0  0  0  0  0  0  0  0
    1.1629   -5.0941    6.0386 H   0  0  0  0  0  0  0  0  0  0  0  0
    4.0160   -5.0275    4.1528 H   0  0  0  0  0  0  0  0  0  0  0  0
    4.2240   -3.5376    2.2972 H   0  0  0  0  0  0  0  0  0  0  0  0
    2.5351   -6.7442   -0.6204 H   0  0  0  0  0  0  0  0  0  0  0  0
    6.9084   -2.2388   -1.1064 H   0  0  0  0  0  0  0  0  0  0  0  0
    7.6236   -5.8694    2.1350 H   0  0  0  0  0  0  0  0  0  0  0  0
   10.3993   -3.8819    1.9979 H   0  0  0  0  0  0  0  0  0  0  0  0
    9.3726   -3.1052    4.1871 H   0  0  0  0  0  0  0  0  0  0  0  0
    6.8435   -2.6518    3.6597 H   0  0  0  0  0  0  0  0  0  0  0  0
    6.7763   -0.5765    2.0455 H   0  0  0  0  0  0  0  0  0  0  0  0
    9.2295   -0.0925    1.2507 H   0  0  0  0  0  0  0  0  0  0  0  0
   10.8777   -1.4323    2.8236 H   0  0  0  0  0  0  0  0  0  0  0  0
    9.5693   -0.5731    3.8233 H   0  0  0  0  0  0  0  0  0  0  0  0
   10.1169   -2.2112    0.2079 H   0  0  0  0  0  0  0  0  0  0  0  0
  1  2  2  3
  2  3  1  0
  3  4  2  0
  3  5  1  0
  5  6  2  0
  6  7  1  0
  7  8  2  0
  8  9  1  0
  9 10  2  0
 10 11  1  0
 11 12  2  3
 12 13  1  0
 13 14  3  0
 12 15  1  0
 15 16  3  0
  8 17  1  0
 17 18  1  0
 18 19  1  0
 19 20  2  0
 20 21  1  0
 21 22  1  0
 21 23  1  0
  1 24  1  0
 24 25  2  0
 25 26  1  0
 26 27  2  0
 27 28  1  0
 28 29  2  0
 29 30  1  0
 30 31  2  0
 31 32  1  0
 32 33  1  0
 33 34  1  0
 31 35  1  0
 27 36  1  0
 36 37  2  0
 37 38  1  0
 38 39  1  0
 39 40  2  0
 40 41  1  0
 41 42  2  0
 42 43  1  0
 43 44  1  0
 44 45  1  0
 42 46  1  0
 38 47  2  0
 47 48  1  0
 37 49  1  0
 49 50  2  0
 50 51  1  0
 50 52  1  0
 52 53  2  0
 53 54  1  0
 54 55  1  0
 55 56  2  0
 56 57  1  0
 57 58  1  0
 58 59  1  0
 56 60  1  0
 60 61  2  0
 61 62  1  0
 62 63  2  0
 63 64  1  0
 64 65  1  0
 65 66  1  0
 54 67  2  0
 67 68  1  0
 67 69  1  0
 69 70  2  0
 70 71  1  0
 71 72  1  0
 72 73  2  0
 73 74  1  0
 74 75  2  0
 75 76  1  0
 76 77  1  0
 75 78  1  0
 78 79  2  0
 71 80  1  0
 80 81  2  0
 81 82  1  0
 82 83  2  0
 83 84  1  0
 84 85  1  0
 83 86  1  0
 86 87  2  0
 70 88  1  0
 88 89  1  0
 89 90  1  0
 90 91  2  0
 91 92  1  0
 92 93  1  0
 93 94  2  0
 94 95  1  0
 95 96  2  0
 96 97  1  0
 97 98  1  0
 96 99  1  0
 99100  2  0
 92101  1  0
101102  2  0
102103  1  0
103104  2  0
104105  1  0
105106  1  0
104107  1  0
107108  2  0
 91109  1  0
109110  1  0
 90111  1  0
111112  2  3
112113  1  0
113114  2  0
113115  1  0
115116  2  0
116117  1  0
117118  2  0
118119  1  0
119120  2  0
120121  1  0
121122  2  3
122123  1  0
123124  3  0
122125  1  0
125126  3  0
118127  1  0
127128  1  0
128129  1  0
129130  2  0
130131  1  0
131132  1  0
131133  1  0
 11  2  1  0
 23 17  1  0
 48 24  1  0
 68 52  1  0
110 69  1  0
121112  1  0
133127  1  0
 10  5  1  0
 22 18  1  0
 47 26  1  0
 63 55  1  0
 79 72  1  0
 87 80  1  0
109 88  2  0
120115  1  0
132128  1  0
 23  7  1  0
 35 28  1  0
 51 36  1  0
100 93  1  0
108101  1  0
133117  1  0
 46 39  1  0
  1134  1  0
  6135  1  0
  9136  1  0
 17137  1  0
 18138  1  0
 19139  1  0
 20140  1  0
 21141  1  0
 22142  1  0
 22143  1  0
 23144  1  0
 25145  1  0
 29146  1  0
 30147  1  0
 33148  1  0
 33149  1  0
 34150  1  0
 34151  1  0
 34152  1  0
 40153  1  0
 41154  1  0
 44155  1  0
 44156  1  0
 45157  1  0
 45158  1  0
 45159  1  0
 49160  1  0
 53161  1  0
 58162  1  0
 58163  1  0
 59164  1  0
 59165  1  0
 59166  1  0
 60167  1  0
 61168  1  0
 62169  1  0
 65170  1  0
 65171  1  0
 66172  1  0
 66173  1  0
 66174  1  0
 73175  1  0
 74176  1  0
 77177  1  0
 77178  1  0
 77179  1  0
 78180  1  0
 79181  1  0
 81182  1  0
 82183  1  0
 85184  1  0
 85185  1  0
 85186  1  0
 86187  1  0
 87188  1  0
 94189  1  0
 95190  1  0
 98191  1  0
 98192  1  0
 98193  1  0
 99194  1  0
100195  1  0
102196  1  0
103197  1  0
106198  1  0
106199  1  0
106200  1  0
107201  1  0
108202  1  0
111203  1  0
116204  1  0
119205  1  0
127206  1  0
128207  1  0
129208  1  0
130209  1  0
131210  1  0
132211  1  0
132212  1  0
133213  1  0
M  END

