
     RDKit          3D

185204  0  0  0  0  0  0  0  0999 V2000
    1.7516   -1.0742   -5.5248 C   0  0  0  0  0  0  0  0  0  0  0  0
    0.6785   -1.0610   -6.3330 C   0  0  0  0  0  0  0  0  0  0  0  0
   -0.4899   -1.9339   -6.1525 C   0  0  0  0  0  0  0  0  0  0  0  0
   -0.4877   -3.0715   -5.6097 O   0  0  0  0  0  0  0  0  0  0  0  0
   -1.6558   -1.2671   -6.6699 C   0  0  0  0  0  0  0  0  0  0  0  0
   -3.0010   -1.6390   -6.4577 C   0  0  0  0  0  0  0  0  0  0  0  0
   -3.9093   -0.6750   -6.8449 C   0  0  0  0  0  0  0  0  0  0  0  0
   -3.5303    0.5892   -7.4086 C   0  0  0  0  0  0  0  0  0  0  0  0
   -2.2059    0.9504   -7.6278 C   0  0  0  0  0  0  0  0  0  0  0  0
   -1.2555   -0.0394   -7.2553 C   0  0  0  0  0  0  0  0  0  0  0  0
    0.2281    0.0684   -7.2002 C   0  0  0  0  0  0  0  0  0  0  0  0
    1.0148    0.9027   -7.9208 C   0  0  0  0  0  0  0  0  0  0  0  0
    0.4645    1.8018   -8.9030 C   0  0  0  0  0  0  0  0  0  0  0  0
    0.0335    2.5151   -9.7050 N   0  0  0  0  0  0  0  0  0  0  0  0
    2.4519    0.8429   -7.8718 C   0  0  0  0  0  0  0  0  0  0  0  0
    3.6087    0.8116   -7.8377 N   0  0  0  0  0  0  0  0  0  0  0  0
   -4.9679    1.0252   -7.4325 C   0  0  0  0  0  0  0  0  0  0  0  0
   -5.4034    2.0503   -6.3479 C   0  0  0  0  0  0  0  0  0  0  0  0
   -6.9154    2.0120   -6.3180 C   0  0  0  0  0  0  0  0  0  0  0  0
   -7.2585    0.8331   -5.7801 C   0  0  0  0  0  0  0  0  0  0  0  0
   -5.9627    0.1156   -5.4717 C   0  0  0  0  0  0  0  0  0  0  0  0
   -5.1267    1.3118   -5.0497 C   0  0  0  0  0  0  0  0  0  0  0  0
   -5.3520   -0.2686   -6.8535 C   0  0  0  0  0  0  0  0  0  0  0  0
    1.6815   -1.7652   -4.2367 C   0  0  0  0  0  0  0  0  0  0  0  0
    0.9050   -1.3077   -3.1669 C   0  0  0  0  0  0  0  0  0  0  0  0
    0.4687    0.0578   -3.0115 N   0  0  0  0  0  0  0  0  0  0  0  0
    1.4505    1.1016   -3.1589 C   0  0  0  0  0  0  0  0  0  0  0  0
    1.1457    2.2681   -3.8874 C   0  0  0  0  0  0  0  0  0  0  0  0
    2.1195    3.2550   -4.0636 C   0  0  0  0  0  0  0  0  0  0  0  0
    3.3869    3.1090   -3.4822 C   0  0  0  0  0  0  0  0  0  0  0  0
    4.6390    4.3605   -3.7214 S   0  0  0  0  0  0  0  0  0  0  0  0
    5.4277    3.4870   -5.1171 C   0  0  0  0  0  0  0  0  0  0  0  0
    3.6752    1.9767   -2.7159 C   0  0  0  0  0  0  0  0  0  0  0  0
    2.7176    0.9720   -2.5665 C   0  0  0  0  0  0  0  0  0  0  0  0
   -0.7911    0.3441   -2.3707 C   0  0  0  0  0  0  0  0  0  0  0  0
   -1.9730   -0.2711   -2.8159 C   0  0  0  0  0  0  0  0  0  0  0  0
   -3.1755   -0.0784   -2.1242 C   0  0  0  0  0  0  0  0  0  0  0  0
   -3.1966    0.7031   -0.9615 C   0  0  0  0  0  0  0  0  0  0  0  0
   -4.6939    0.8219    0.0247 S   0  0  0  0  0  0  0  0  0  0  0  0
   -5.3266    2.2999   -0.8304 C   0  0  0  0  0  0  0  0  0  0  0  0
   -2.0249    1.3394   -0.5261 C   0  0  0  0  0  0  0  0  0  0  0  0
   -0.8353    1.1682   -1.2316 C   0  0  0  0  0  0  0  0  0  0  0  0
    0.8775   -2.2470   -2.1486 C   0  0  0  0  0  0  0  0  0  0  0  0
    0.3530   -2.1931   -0.5823 S   0  0  0  0  0  0  0  0  0  0  0  0
    1.0769   -3.6568   -0.0885 C   0  0  0  0  0  0  0  0  0  0  0  0
    1.8087   -4.1608   -1.1996 C   0  0  0  0  0  0  0  0  0  0  0  0
    2.8344   -5.1664   -1.1480 N   0  0  0  0  0  0  0  0  0  0  0  0
    4.2375   -4.7973   -1.0253 C   0  0  0  0  0  0  0  0  0  0  0  0
    5.2148   -5.7878   -0.7883 C   0  0  0  0  0  0  0  0  0  0  0  0
    6.5453   -5.4343   -0.5400 C   0  0  0  0  0  0  0  0  0  0  0  0
    6.9293   -4.0925   -0.5476 C   0  0  0  0  0  0  0  0  0  0  0  0
    8.6283   -3.6412   -0.1774 S   0  0  0  0  0  0  0  0  0  0  0  0
    8.2865   -3.3372    1.5860 C   0  0  0  0  0  0  0  0  0  0  0  0
    5.9832   -3.0971   -0.8089 C   0  0  0  0  0  0  0  0  0  0  0  0
    4.6457   -3.4423   -1.0262 C   0  0  0  0  0  0  0  0  0  0  0  0
    2.4880   -6.4879   -1.5883 C   0  0  0  0  0  0  0  0  0  0  0  0
    2.8756   -6.9241   -2.8669 C   0  0  0  0  0  0  0  0  0  0  0  0
    2.7040   -8.2633   -3.2342 C   0  0  0  0  0  0  0  0  0  0  0  0
    2.1437   -9.1724   -2.3314 C   0  0  0  0  0  0  0  0  0  0  0  0
    2.0103  -10.9095   -2.7671 S   0  0  0  0  0  0  0  0  0  0  0  0
    3.6286  -11.3350   -2.0361 C   0  0  0  0  0  0  0  0  0  0  0  0
    1.7165   -8.7305   -1.0689 C   0  0  0  0  0  0  0  0  0  0  0  0
    1.8906   -7.3923   -0.6991 C   0  0  0  0  0  0  0  0  0  0  0  0
    1.6259   -3.3618   -2.3374 C   0  0  0  0  0  0  0  0  0  0  0  0
    2.3525   -3.2879   -3.8581 S   0  0  0  0  0  0  0  0  0  0  0  0
    1.0356   -4.0416    1.3582 C   0  0  0  0  0  0  0  0  0  0  0  0
    2.2171   -4.2697    2.0915 C   0  0  0  0  0  0  0  0  0  0  0  0
    3.3091   -4.8200    1.5160 F   0  0  0  0  0  0  0  0  0  0  0  0
    2.3393   -3.7762    3.3960 C   0  0  0  0  0  0  0  0  0  0  0  0
    3.5496   -3.8324    4.0092 F   0  0  0  0  0  0  0  0  0  0  0  0
    1.2950   -3.0203    3.9670 C   0  0  0  0  0  0  0  0  0  0  0  0
    0.0241   -3.0957    3.3716 C   0  0  0  0  0  0  0  0  0  0  0  0
   -1.0580   -2.5266    3.9589 N   0  0  0  0  0  0  0  0  0  0  0  0
   -2.2852   -2.5048    3.3755 C   0  0  0  0  0  0  0  0  0  0  0  0
   -3.4292   -1.8997    4.1551 C   0  0  0  0  0  0  0  0  0  0  0  0
   -4.2361   -2.9758    4.8744 C   0  0  0  0  0  0  0  0  0  0  0  0
   -2.4352   -3.0729    2.0877 C   0  0  0  0  0  0  0  0  0  0  0  0
   -1.3371   -3.6199    1.4927 N   0  0  0  0  0  0  0  0  0  0  0  0
   -0.1129   -3.6524    2.0863 C   0  0  0  0  0  0  0  0  0  0  0  0
   -3.7643   -3.1035    1.3564 C   0  0  0  0  0  0  0  0  0  0  0  0
   -3.5852   -3.2626   -0.1500 C   0  0  0  0  0  0  0  0  0  0  0  0
    1.6331   -1.8420    4.8145 C   0  0  0  0  0  0  0  0  0  0  0  0
    0.9106   -1.5038    5.9858 C   0  0  0  0  0  0  0  0  0  0  0  0
    0.0264   -2.3764    6.5435 N   0  0  0  0  0  0  0  0  0  0  0  0
   -0.7495   -2.0164    7.6023 C   0  0  0  0  0  0  0  0  0  0  0  0
   -0.6503   -0.7274    8.1261 C   0  0  0  0  0  0  0  0  0  0  0  0
   -1.4989   -0.3245    9.1677 O   0  0  0  0  0  0  0  0  0  0  0  0
   -1.5598    1.0186    9.6553 C   0  0  0  0  0  0  0  0  0  0  0  0
   -2.3314    1.9016    8.6824 C   0  0  0  0  0  0  0  0  0  0  0  0
    0.2617    0.1343    7.6013 N   0  0  0  0  0  0  0  0  0  0  0  0
    1.0584   -0.2193    6.5591 C   0  0  0  0  0  0  0  0  0  0  0  0
    1.9440    0.7105    5.9964 C   0  0  0  0  0  0  0  0  0  0  0  0
    2.7103    0.3463    4.8817 C   0  0  0  0  0  0  0  0  0  0  0  0
    2.5453   -0.9025    4.2885 C   0  0  0  0  0  0  0  0  0  0  0  0
    3.2158   -1.1514    3.1306 F   0  0  0  0  0  0  0  0  0  0  0  0
    3.5829    1.2300    4.3252 F   0  0  0  0  0  0  0  0  0  0  0  0
    2.0781    2.0758    6.5372 C   0  0  0  0  0  0  0  0  0  0  0  0
    1.7456    3.1643    5.8165 C   0  0  0  0  0  0  0  0  0  0  0  0
    0.8177    3.1581    4.6717 C   0  0  0  0  0  0  0  0  0  0  0  0
    0.2399    2.1464    4.1779 O   0  0  0  0  0  0  0  0  0  0  0  0
    0.5164    4.5242    4.3135 C   0  0  0  0  0  0  0  0  0  0  0  0
   -0.4145    4.9666    3.3374 C   0  0  0  0  0  0  0  0  0  0  0  0
   -0.5379    6.3418    3.2652 C   0  0  0  0  0  0  0  0  0  0  0  0
    0.2038    7.2372    4.1017 C   0  0  0  0  0  0  0  0  0  0  0  0
    1.0991    6.8136    5.0709 C   0  0  0  0  0  0  0  0  0  0  0  0
    1.2624    5.3970    5.1511 C   0  0  0  0  0  0  0  0  0  0  0  0
    2.1059    4.5943    6.0834 C   0  0  0  0  0  0  0  0  0  0  0  0
    3.1561    5.0480    6.8197 C   0  0  0  0  0  0  0  0  0  0  0  0
    4.0269    4.1640    7.5568 C   0  0  0  0  0  0  0  0  0  0  0  0
    4.7256    3.4593    8.1637 N   0  0  0  0  0  0  0  0  0  0  0  0
    3.5677    6.4272    6.8220 C   0  0  0  0  0  0  0  0  0  0  0  0
    3.9222    7.5303    6.8252 N   0  0  0  0  0  0  0  0  0  0  0  0
   -0.4265    8.4191    3.4363 C   0  0  0  0  0  0  0  0  0  0  0  0
    0.4322    9.2208    2.4137 C   0  0  0  0  0  0  0  0  0  0  0  0
    1.4115    8.3033    1.7179 C   0  0  0  0  0  0  0  0  0  0  0  0
    0.6891    7.4892    0.9460 C   0  0  0  0  0  0  0  0  0  0  0  0
   -0.7571    7.8785    1.1435 C   0  0  0  0  0  0  0  0  0  0  0  0
   -0.5803    9.3773    1.2946 C   0  0  0  0  0  0  0  0  0  0  0  0
   -1.2096    7.5079    2.5896 C   0  0  0  0  0  0  0  0  0  0  0  0
    2.5146   -0.3138   -5.6018 H   0  0  0  0  0  0  0  0  0  0  0  0
   -3.2939   -2.5500   -5.9498 H   0  0  0  0  0  0  0  0  0  0  0  0
   -1.9469    1.9398   -7.9634 H   0  0  0  0  0  0  0  0  0  0  0  0
   -5.3655    1.2102   -8.4553 H   0  0  0  0  0  0  0  0  0  0  0  0
   -4.9597    3.0644   -6.4341 H   0  0  0  0  0  0  0  0  0  0  0  0
   -7.5999    2.8153   -6.5657 H   0  0  0  0  0  0  0  0  0  0  0  0
   -8.2603    0.5146   -5.5180 H   0  0  0  0  0  0  0  0  0  0  0  0
   -6.0377   -0.7108   -4.7326 H   0  0  0  0  0  0  0  0  0  0  0  0
   -5.5313    1.8423   -4.1543 H   0  0  0  0  0  0  0  0  0  0  0  0
   -4.0533    1.0783   -4.8693 H   0  0  0  0  0  0  0  0  0  0  0  0
   -5.9945   -0.8969   -7.5139 H   0  0  0  0  0  0  0  0  0  0  0  0
    0.1729    2.3790   -4.3493 H   0  0  0  0  0  0  0  0  0  0  0  0
    1.8847    4.1413   -4.6486 H   0  0  0  0  0  0  0  0  0  0  0  0
    4.7413    3.4733   -5.9933 H   0  0  0  0  0  0  0  0  0  0  0  0
    6.3677    4.0094   -5.3970 H   0  0  0  0  0  0  0  0  0  0  0  0
    5.6819    2.4417   -4.8273 H   0  0  0  0  0  0  0  0  0  0  0  0
    4.6502    1.8645   -2.2586 H   0  0  0  0  0  0  0  0  0  0  0  0
    2.9620    0.0976   -1.9770 H   0  0  0  0  0  0  0  0  0  0  0  0
   -1.9621   -0.9070   -3.6911 H   0  0  0  0  0  0  0  0  0  0  0  0
   -4.0811   -0.5710   -2.4689 H   0  0  0  0  0  0  0  0  0  0  0  0
   -5.6720    2.0174   -1.8463 H   0  0  0  0  0  0  0  0  0  0  0  0
   -4.5430    3.0883   -0.8953 H   0  0  0  0  0  0  0  0  0  0  0  0
   -6.1953    2.7046   -0.2619 H   0  0  0  0  0  0  0  0  0  0  0  0
   -2.0342    1.9419    0.3757 H   0  0  0  0  0  0  0  0  0  0  0  0
    0.0694    1.6348   -0.8635 H   0  0  0  0  0  0  0  0  0  0  0  0
    4.9531   -6.8385   -0.7724 H   0  0  0  0  0  0  0  0  0  0  0  0
    7.2708   -6.2079   -0.3402 H   0  0  0  0  0  0  0  0  0  0  0  0
    9.2483   -3.1973    2.1144 H   0  0  0  0  0  0  0  0  0  0  0  0
    7.6632   -2.4220    1.6936 H   0  0  0  0  0  0  0  0  0  0  0  0
    7.7529   -4.2016    2.0359 H   0  0  0  0  0  0  0  0  0  0  0  0
    6.2693   -2.0511   -0.8038 H   0  0  0  0  0  0  0  0  0  0  0  0
    3.9405   -2.6359   -1.1813 H   0  0  0  0  0  0  0  0  0  0  0  0
    3.3506   -6.2376   -3.5591 H   0  0  0  0  0  0  0  0  0  0  0  0
    3.0332   -8.5946   -4.2122 H   0  0  0  0  0  0  0  0  0  0  0  0
    4.4509  -10.8638   -2.6202 H   0  0  0  0  0  0  0  0  0  0  0  0
    3.6727  -10.9868   -0.9801 H   0  0  0  0  0  0  0  0  0  0  0  0
    3.7548  -12.4375   -2.0531 H   0  0  0  0  0  0  0  0  0  0  0  0
    1.2874   -9.4326   -0.3667 H   0  0  0  0  0  0  0  0  0  0  0  0
    1.6048   -7.0694    0.2957 H   0  0  0  0  0  0  0  0  0  0  0  0
   -4.0892   -1.2922    3.5104 H   0  0  0  0  0  0  0  0  0  0  0  0
   -3.0204   -1.2054    4.9278 H   0  0  0  0  0  0  0  0  0  0  0  0
   -3.6164   -3.4650    5.6577 H   0  0  0  0  0  0  0  0  0  0  0  0
   -4.5931   -3.7489    4.1618 H   0  0  0  0  0  0  0  0  0  0  0  0
   -5.1234   -2.5129    5.3672 H   0  0  0  0  0  0  0  0  0  0  0  0
   -4.3752   -3.9436    1.7452 H   0  0  0  0  0  0  0  0  0  0  0  0
   -4.3182   -2.1578    1.5233 H   0  0  0  0  0  0  0  0  0  0  0  0
   -3.1646   -4.2666   -0.3826 H   0  0  0  0  0  0  0  0  0  0  0  0
   -4.5719   -3.1669   -0.6531 H   0  0  0  0  0  0  0  0  0  0  0  0
   -2.9055   -2.4808   -0.5444 H   0  0  0  0  0  0  0  0  0  0  0  0
   -1.4521   -2.7256    8.0129 H   0  0  0  0  0  0  0  0  0  0  0  0
   -0.5350    1.4236    9.8137 H   0  0  0  0  0  0  0  0  0  0  0  0
   -2.0882    1.0222   10.6355 H   0  0  0  0  0  0  0  0  0  0  0  0
   -2.3784    2.9399    9.0757 H   0  0  0  0  0  0  0  0  0  0  0  0
   -1.8330    1.9236    7.6907 H   0  0  0  0  0  0  0  0  0  0  0  0
   -3.3692    1.5232    8.5592 H   0  0  0  0  0  0  0  0  0  0  0  0
    2.5193    2.1657    7.5169 H   0  0  0  0  0  0  0  0  0  0  0  0
   -0.9916    4.2942    2.7120 H   0  0  0  0  0  0  0  0  0  0  0  0
    1.5781    7.5246    5.7176 H   0  0  0  0  0  0  0  0  0  0  0  0
   -1.0519    9.0460    4.1113 H   0  0  0  0  0  0  0  0  0  0  0  0
    0.8694   10.1681    2.8002 H   0  0  0  0  0  0  0  0  0  0  0  0
    2.4968    8.3450    1.7543 H   0  0  0  0  0  0  0  0  0  0  0  0
    1.0801    6.7570    0.2445 H   0  0  0  0  0  0  0  0  0  0  0  0
   -1.4438    7.5558    0.3324 H   0  0  0  0  0  0  0  0  0  0  0  0
   -0.1623    9.8693    0.3877 H   0  0  0  0  0  0  0  0  0  0  0  0
   -1.5084    9.9092    1.6084 H   0  0  0  0  0  0  0  0  0  0  0  0
   -2.3065    7.5721    2.7767 H   0  0  0  0  0  0  0  0  0  0  0  0
  1  2  2  3
  2  3  1  0
  3  4  2  0
  3  5  1  0
  5  6  2  0
  6  7  1  0
  7  8  2  0
  8  9  1  0
  9 10  2  0
 10 11  1  0
 11 12  2  3
 12 13  1  0
 13 14  3  0
 12 15  1  0
 15 16  3  0
  8 17  1  0
 17 18  1  0
 18 19  1  0
 19 20  2  0
 20 21  1  0
 21 22  1  0
 21 23  1  0
  1 24  1  0
 24 25  2  0
 25 26  1  0
 26 27  1  0
 27 28  2  0
 28 29  1  0
 29 30  2  0
 30 31  1  0
 31 32  1  0
 30 33  1  0
 33 34  2  0
 26 35  1  0
 35 36  2  0
 36 37  1  0
 37 38  2  0
 38 39  1  0
 39 40  1  0
 38 41  1  0
 41 42  2  0
 25 43  1  0
 43 44  1  0
 44 45  1  0
 45 46  2  0
 46 47  1  0
 47 48  1  0
 48 49  2  0
 49 50  1  0
 50 51  2  0
 51 52  1  0
 52 53  1  0
 51 54  1  0
 54 55  2  0
 47 56  1  0
 56 57  2  0
 57 58  1  0
 58 59  2  0
 59 60  1  0
 60 61  1  0
 59 62  1  0
 62 63  2  0
 46 64  1  0
 64 65  1  0
 45 66  1  0
 66 67  2  0
 67 68  1  0
 67 69  1  0
 69 70  1  0
 69 71  2  0
 71 72  1  0
 72 73  2  0
 73 74  1  0
 74 75  1  0
 75 76  1  0
 74 77  2  0
 77 78  1  0
 78 79  2  0
 77 80  1  0
 80 81  1  0
 71 82  1  0
 82 83  1  0
 83 84  2  0
 84 85  1  0
 85 86  2  0
 86 87  1  0
 87 88  1  0
 88 89  1  0
 86 90  1  0
 90 91  2  0
 91 92  1  0
 92 93  2  0
 93 94  1  0
 94 95  1  0
 93 96  1  0
 92 97  1  0
 97 98  2  3
 98 99  1  0
 99100  2  0
 99101  1  0
101102  2  0
102103  1  0
103104  2  0
104105  1  0
105106  2  0
106107  1  0
107108  2  3
108109  1  0
109110  3  0
108111  1  0
111112  3  0
104113  1  0
113114  1  0
114115  1  0
115116  2  0
116117  1  0
117118  1  0
117119  1  0
 11  2  1  0
 23 17  1  0
 65 24  1  0
 79 66  1  0
 94 82  2  0
107 98  1  0
119113  1  0
 10  5  1  0
 22 18  1  0
 34 27  1  0
 42 35  1  0
 64 43  2  0
 79 72  1  0
 91 83  1  0
106101  1  0
118114  1  0
 23  7  1  0
 55 48  1  0
 63 56  1  0
119103  1  0
  1120  1  0
  6121  1  0
  9122  1  0
 17123  1  0
 18124  1  0
 19125  1  0
 20126  1  0
 21127  1  0
 22128  1  0
 22129  1  0
 23130  1  0
 28131  1  0
 29132  1  0
 32133  1  0
 32134  1  0
 32135  1  0
 33136  1  0
 34137  1  0
 36138  1  0
 37139  1  0
 40140  1  0
 40141  1  0
 40142  1  0
 41143  1  0
 42144  1  0
 49145  1  0
 50146  1  0
 53147  1  0
 53148  1  0
 53149  1  0
 54150  1  0
 55151  1  0
 57152  1  0
 58153  1  0
 61154  1  0
 61155  1  0
 61156  1  0
 62157  1  0
 63158  1  0
 75159  1  0
 75160  1  0
 76161  1  0
 76162  1  0
 76163  1  0
 80164  1  0
 80165  1  0
 81166  1  0
 81167  1  0
 81168  1  0
 85169  1  0
 88170  1  0
 88171  1  0
 89172  1  0
 89173  1  0
 89174  1  0
 97175  1  0
102176  1  0
105177  1  0
113178  1  0
114179  1  0
115180  1  0
116181  1  0
117182  1  0
118183  1  0
118184  1  0
119185  1  0
M  END

