
     RDKit          3D

119135  0  0  0  0  0  0  0  0999 V2000
    0.8906   -7.2923   -3.5032 C   0  0  0  0  0  0  0  0  0  0  0  0
    0.3204   -7.2293   -2.2825 C   0  0  0  0  0  0  0  0  0  0  0  0
    0.4056   -6.0793   -1.3692 C   0  0  0  0  0  0  0  0  0  0  0  0
    0.7490   -4.9046   -1.6697 O   0  0  0  0  0  0  0  0  0  0  0  0
    0.0710   -6.5176   -0.0349 C   0  0  0  0  0  0  0  0  0  0  0  0
    0.1294   -5.7451    1.1463 C   0  0  0  0  0  0  0  0  0  0  0  0
   -0.1717   -6.4540    2.2925 C   0  0  0  0  0  0  0  0  0  0  0  0
   -0.5109   -7.8465    2.2865 C   0  0  0  0  0  0  0  0  0  0  0  0
   -0.5689   -8.6101    1.1296 C   0  0  0  0  0  0  0  0  0  0  0  0
   -0.2722   -7.8946   -0.0676 C   0  0  0  0  0  0  0  0  0  0  0  0
   -0.2332   -8.3667   -1.4848 C   0  0  0  0  0  0  0  0  0  0  0  0
   -0.7924   -9.5000   -1.9862 C   0  0  0  0  0  0  0  0  0  0  0  0
   -0.9946   -9.6877   -3.4013 C   0  0  0  0  0  0  0  0  0  0  0  0
   -1.1747   -9.8333   -4.5338 N   0  0  0  0  0  0  0  0  0  0  0  0
   -1.3566  -10.5249   -1.1492 C   0  0  0  0  0  0  0  0  0  0  0  0
   -1.8148  -11.3589   -0.4905 N   0  0  0  0  0  0  0  0  0  0  0  0
   -0.6630   -7.8298    3.7800 C   0  0  0  0  0  0  0  0  0  0  0  0
   -2.1048   -7.8542    4.3746 C   0  0  0  0  0  0  0  0  0  0  0  0
   -3.0676   -7.1855    3.4244 C   0  0  0  0  0  0  0  0  0  0  0  0
   -2.7537   -5.8888    3.4125 C   0  0  0  0  0  0  0  0  0  0  0  0
   -1.5914   -5.7178    4.3628 C   0  0  0  0  0  0  0  0  0  0  0  0
   -1.9829   -6.7454    5.4072 C   0  0  0  0  0  0  0  0  0  0  0  0
   -0.3182   -6.4025    3.7813 C   0  0  0  0  0  0  0  0  0  0  0  0
    1.5440   -6.1177   -4.1074 C   0  0  0  0  0  0  0  0  0  0  0  0
    0.7787   -5.0877   -4.6636 C   0  0  0  0  0  0  0  0  0  0  0  0
    1.3447   -3.8199   -4.9405 C   0  0  0  0  0  0  0  0  0  0  0  0
    0.4090   -2.8460   -5.4199 N   0  0  0  0  0  0  0  0  0  0  0  0
   -0.9390   -3.7017   -5.4103 S   0  0  0  0  0  4  0  0  0  0  0  0
   -0.6321   -5.1788   -4.8920 N   0  0  0  0  0  0  0  0  0  0  0  0
    2.6985   -3.5471   -4.6710 C   0  0  0  0  0  0  0  0  0  0  0  0
    3.4998   -4.6168   -4.2164 C   0  0  0  0  0  0  0  0  0  0  0  0
    4.8219   -4.4847   -3.9274 N   0  0  0  0  0  0  0  0  0  0  0  0
    5.1705   -5.9964   -3.3591 S   0  0  0  0  0  0  0  0  0  0  0  0
    3.7519   -6.8421   -3.4171 N   0  0  0  0  0  0  0  0  0  0  0  0
    2.9196   -5.8990   -3.9341 C   0  0  0  0  0  0  0  0  0  0  0  0
    3.1736   -2.1480   -4.6046 C   0  0  0  0  0  0  0  0  0  0  0  0
    4.4523   -1.6696   -4.8840 C   0  0  0  0  0  0  0  0  0  0  0  0
    4.6817   -0.3569   -4.4278 C   0  0  0  0  0  0  0  0  0  0  0  0
    6.0158    0.2620   -4.5122 C   0  0  0  0  0  0  0  0  0  0  0  0
    6.7426    0.0393   -5.5166 O   0  0  0  0  0  0  0  0  0  0  0  0
    6.4800    1.0642   -3.4643 O   0  0  0  0  0  0  0  0  0  0  0  0
    7.7212    1.7576   -3.5234 C   0  0  0  0  0  0  0  0  0  0  0  0
    3.5621    0.2166   -3.7987 C   0  0  0  0  0  0  0  0  0  0  0  0
    2.3355   -0.9315   -3.8107 S   0  0  0  0  0  0  0  0  0  0  0  0
    3.4081    1.5606   -3.1856 C   0  0  0  0  0  0  0  0  0  0  0  0
    2.5111    1.7227   -2.1013 C   0  0  0  0  0  0  0  0  0  0  0  0
    2.3112    3.0043   -1.5827 C   0  0  0  0  0  0  0  0  0  0  0  0
    1.4452    3.3835   -0.6075 N   0  0  0  0  0  0  0  0  0  0  0  0
    0.5501    2.5207    0.1752 C   0  0  0  0  0  0  0  0  0  0  0  0
    1.2656    2.0000    1.4165 C   0  0  0  0  0  0  0  0  0  0  0  0
    1.6211    4.7231   -0.4799 C   0  0  0  0  0  0  0  0  0  0  0  0
    2.5778    5.1824   -1.3633 C   0  0  0  0  0  0  0  0  0  0  0  0
    3.0050    4.0869   -2.0780 C   0  0  0  0  0  0  0  0  0  0  0  0
    3.8927    3.9721   -3.1464 C   0  0  0  0  0  0  0  0  0  0  0  0
    4.0718    2.6994   -3.7191 C   0  0  0  0  0  0  0  0  0  0  0  0
    2.9467    6.5239   -1.4236 C   0  0  0  0  0  0  0  0  0  0  0  0
    2.2975    7.4206   -0.5590 C   0  0  0  0  0  0  0  0  0  0  0  0
    1.2701    6.9752    0.3097 C   0  0  0  0  0  0  0  0  0  0  0  0
    0.9519    5.6001    0.3766 C   0  0  0  0  0  0  0  0  0  0  0  0
    0.5835    7.9521    1.1761 C   0  0  0  0  0  0  0  0  0  0  0  0
   -0.7435    7.9762    1.4079 C   0  0  0  0  0  0  0  0  0  0  0  0
   -1.3198    8.6002    2.5965 C   0  0  0  0  0  0  0  0  0  0  0  0
   -0.7304    9.4028    3.3695 O   0  0  0  0  0  0  0  0  0  0  0  0
   -2.6514    8.0696    2.7952 C   0  0  0  0  0  0  0  0  0  0  0  0
   -3.5239    8.3329    3.8753 C   0  0  0  0  0  0  0  0  0  0  0  0
   -4.7215    7.6443    3.8073 C   0  0  0  0  0  0  0  0  0  0  0  0
   -5.0429    6.7339    2.7481 C   0  0  0  0  0  0  0  0  0  0  0  0
   -4.1868    6.4594    1.6935 C   0  0  0  0  0  0  0  0  0  0  0  0
   -2.9581    7.1808    1.7301 C   0  0  0  0  0  0  0  0  0  0  0  0
   -1.8349    7.1955    0.7497 C   0  0  0  0  0  0  0  0  0  0  0  0
   -1.9424    6.9413   -0.5793 C   0  0  0  0  0  0  0  0  0  0  0  0
   -3.0769    6.2676   -1.1553 C   0  0  0  0  0  0  0  0  0  0  0  0
   -3.9784    5.7261   -1.6418 N   0  0  0  0  0  0  0  0  0  0  0  0
   -1.0195    7.4944   -1.5357 C   0  0  0  0  0  0  0  0  0  0  0  0
   -0.2888    7.9491   -2.3131 N   0  0  0  0  0  0  0  0  0  0  0  0
   -6.3696    6.4379    3.3831 C   0  0  0  0  0  0  0  0  0  0  0  0
   -6.5081    5.0667    4.1107 C   0  0  0  0  0  0  0  0  0  0  0  0
   -7.7409    5.1831    4.9765 C   0  0  0  0  0  0  0  0  0  0  0  0
   -7.4334    6.0314    5.9650 C   0  0  0  0  0  0  0  0  0  0  0  0
   -6.0060    6.4644    5.7310 C   0  0  0  0  0  0  0  0  0  0  0  0
   -5.4510    5.1506    5.1990 C   0  0  0  0  0  0  0  0  0  0  0  0
   -6.0395    7.3707    4.4654 C   0  0  0  0  0  0  0  0  0  0  0  0
    1.0029   -8.2325   -4.0150 H   0  0  0  0  0  0  0  0  0  0  0  0
    0.4025   -4.6976    1.1584 H   0  0  0  0  0  0  0  0  0  0  0  0
   -0.7948   -9.6604    1.1805 H   0  0  0  0  0  0  0  0  0  0  0  0
    0.0787   -8.4646    4.3171 H   0  0  0  0  0  0  0  0  0  0  0  0
   -2.4374   -8.8366    4.7680 H   0  0  0  0  0  0  0  0  0  0  0  0
   -3.9060   -7.6418    2.9068 H   0  0  0  0  0  0  0  0  0  0  0  0
   -3.2944   -5.1097    2.8859 H   0  0  0  0  0  0  0  0  0  0  0  0
   -1.4408   -4.6844    4.7397 H   0  0  0  0  0  0  0  0  0  0  0  0
   -2.9457   -6.5094    5.9244 H   0  0  0  0  0  0  0  0  0  0  0  0
   -1.1871   -6.9316    6.1657 H   0  0  0  0  0  0  0  0  0  0  0  0
    0.6278   -6.1713    4.3181 H   0  0  0  0  0  0  0  0  0  0  0  0
    5.2197   -2.2779   -5.3449 H   0  0  0  0  0  0  0  0  0  0  0  0
    8.5574    1.0376   -3.6400 H   0  0  0  0  0  0  0  0  0  0  0  0
    7.8662    2.3304   -2.5827 H   0  0  0  0  0  0  0  0  0  0  0  0
    7.7165    2.4689   -4.3764 H   0  0  0  0  0  0  0  0  0  0  0  0
    1.9803    0.8750   -1.6872 H   0  0  0  0  0  0  0  0  0  0  0  0
    0.2032    1.6646   -0.4415 H   0  0  0  0  0  0  0  0  0  0  0  0
   -0.3590    3.0832    0.4775 H   0  0  0  0  0  0  0  0  0  0  0  0
    0.5617    1.3949    2.0243 H   0  0  0  0  0  0  0  0  0  0  0  0
    1.6315    2.8494    2.0317 H   0  0  0  0  0  0  0  0  0  0  0  0
    2.1267    1.3645    1.1239 H   0  0  0  0  0  0  0  0  0  0  0  0
    4.4029    4.8387   -3.5486 H   0  0  0  0  0  0  0  0  0  0  0  0
    4.7019    2.6152   -4.5970 H   0  0  0  0  0  0  0  0  0  0  0  0
    3.7057    6.8682   -2.1154 H   0  0  0  0  0  0  0  0  0  0  0  0
    2.5662    8.4684   -0.5916 H   0  0  0  0  0  0  0  0  0  0  0  0
    0.2056    5.2380    1.0719 H   0  0  0  0  0  0  0  0  0  0  0  0
    1.2215    8.6266    1.7375 H   0  0  0  0  0  0  0  0  0  0  0  0
   -3.2812    9.0071    4.6868 H   0  0  0  0  0  0  0  0  0  0  0  0
   -4.4508    5.7340    0.9421 H   0  0  0  0  0  0  0  0  0  0  0  0
   -7.2386    6.7430    2.7595 H   0  0  0  0  0  0  0  0  0  0  0  0
   -6.4673    4.1678    3.4610 H   0  0  0  0  0  0  0  0  0  0  0  0
   -8.6663    4.6245    4.8846 H   0  0  0  0  0  0  0  0  0  0  0  0
   -8.0670    6.2788    6.8098 H   0  0  0  0  0  0  0  0  0  0  0  0
   -5.4878    6.8901    6.6152 H   0  0  0  0  0  0  0  0  0  0  0  0
   -5.5053    4.3147    5.9362 H   0  0  0  0  0  0  0  0  0  0  0  0
   -4.4058    5.2141    4.8218 H   0  0  0  0  0  0  0  0  0  0  0  0
   -6.7011    8.2636    4.5272 H   0  0  0  0  0  0  0  0  0  0  0  0
  1  2  2  3
  2  3  1  0
  3  4  2  0
  3  5  1  0
  5  6  2  0
  6  7  1  0
  7  8  2  0
  8  9  1  0
  9 10  2  0
 10 11  1  0
 11 12  2  3
 12 13  1  0
 13 14  3  0
 12 15  1  0
 15 16  3  0
  8 17  1  0
 17 18  1  0
 18 19  1  0
 19 20  2  0
 20 21  1  0
 21 22  1  0
 21 23  1  0
  1 24  1  0
 24 25  2  0
 25 26  1  0
 26 27  1  0
 27 28  2  0
 28 29  2  0
 26 30  2  0
 30 31  1  0
 31 32  2  0
 32 33  1  0
 33 34  1  0
 34 35  2  0
 30 36  1  0
 36 37  2  0
 37 38  1  0
 38 39  1  0
 39 40  2  0
 39 41  1  0
 41 42  1  0
 38 43  2  0
 43 44  1  0
 43 45  1  0
 45 46  2  0
 46 47  1  0
 47 48  1  0
 48 49  1  0
 49 50  1  0
 48 51  1  0
 51 52  2  0
 52 53  1  0
 53 54  1  0
 54 55  2  0
 52 56  1  0
 56 57  2  0
 57 58  1  0
 58 59  2  0
 58 60  1  0
 60 61  2  3
 61 62  1  0
 62 63  2  0
 62 64  1  0
 64 65  2  0
 65 66  1  0
 66 67  2  0
 67 68  1  0
 68 69  2  0
 69 70  1  0
 70 71  2  3
 71 72  1  0
 72 73  3  0
 71 74  1  0
 74 75  3  0
 67 76  1  0
 76 77  1  0
 77 78  1  0
 78 79  2  0
 79 80  1  0
 80 81  1  0
 80 82  1  0
 11  2  1  0
 23 17  1  0
 35 24  1  0
 44 36  1  0
 55 45  1  0
 70 61  1  0
 82 76  1  0
 10  5  1  0
 22 18  1  0
 29 25  1  0
 35 31  1  0
 53 47  2  0
 69 64  1  0
 81 77  1  0
 23  7  1  0
 59 51  1  0
 82 66  1  0
  1 83  1  0
  6 84  1  0
  9 85  1  0
 17 86  1  0
 18 87  1  0
 19 88  1  0
 20 89  1  0
 21 90  1  0
 22 91  1  0
 22 92  1  0
 23 93  1  0
 37 94  1  0
 42 95  1  0
 42 96  1  0
 42 97  1  0
 46 98  1  0
 49 99  1  0
 49100  1  0
 50101  1  0
 50102  1  0
 50103  1  0
 54104  1  0
 55105  1  0
 56106  1  0
 57107  1  0
 59108  1  0
 60109  1  0
 65110  1  0
 68111  1  0
 76112  1  0
 77113  1  0
 78114  1  0
 79115  1  0
 80116  1  0
 81117  1  0
 81118  1  0
 82119  1  0
M  END

