
     RDKit          3D

193215  0  0  0  0  0  0  0  0999 V2000
    7.0148    1.0663   -6.8359 C   0  0  0  0  0  0  0  0  0  0  0  0
    7.5046    1.9047   -5.7930 C   0  0  0  0  0  0  0  0  0  0  0  0
    8.6426    2.7511   -6.0858 C   0  0  0  0  0  0  0  0  0  0  0  0
    9.3143    2.8540   -7.1198 O   0  0  0  0  0  0  0  0  0  0  0  0
    8.8182    3.4772   -4.8463 C   0  0  0  0  0  0  0  0  0  0  0  0
    9.8439    4.4159   -4.5509 C   0  0  0  0  0  0  0  0  0  0  0  0
    9.8572    4.9172   -3.2815 C   0  0  0  0  0  0  0  0  0  0  0  0
    8.9502    4.5497   -2.3376 C   0  0  0  0  0  0  0  0  0  0  0  0
    7.9332    3.6251   -2.6901 C   0  0  0  0  0  0  0  0  0  0  0  0
    7.9209    3.1290   -3.9444 C   0  0  0  0  0  0  0  0  0  0  0  0
    6.8604    1.9065   -4.6049 C   0  0  0  0  0  0  0  0  0  0  0  0
    6.3783    1.5991   -3.4615 C   0  0  0  0  0  0  0  0  0  0  0  0
    5.6129    3.3172   -3.8008 C   0  0  0  0  0  0  0  0  0  0  0  0
    5.0686    4.5629   -4.0232 N   0  0  0  0  0  0  0  0  0  0  0  0
    5.8953    1.6244   -2.3899 C   0  0  0  0  0  0  0  0  0  0  0  0
    5.3165    1.6776   -1.0852 N   0  0  0  0  0  0  0  0  0  0  0  0
    9.6086    5.2718   -1.2535 C   0  0  0  0  0  0  0  0  0  0  0  0
    8.7592    6.3779   -0.7118 C   0  0  0  0  0  0  0  0  0  0  0  0
    7.7027    6.5938   -1.7505 C   0  0  0  0  0  0  0  0  0  0  0  0
    8.3731    7.0035   -2.8296 C   0  0  0  0  0  0  0  0  0  0  0  0
    9.7932    7.2428   -2.4981 C   0  0  0  0  0  0  0  0  0  0  0  0
    9.6521    7.5845   -1.0127 C   0  0  0  0  0  0  0  0  0  0  0  0
   10.4757    5.9012   -2.3378 C   0  0  0  0  0  0  0  0  0  0  0  0
    5.7985    0.3104   -6.3815 C   0  0  0  0  0  0  0  0  0  0  0  0
    4.5299    0.7211   -6.8440 C   0  0  0  0  0  0  0  0  0  0  0  0
    3.4457    0.1607   -6.2862 C   0  0  0  0  0  0  0  0  0  0  0  0
    2.1216    0.5250   -6.4266 C   0  0  0  0  0  0  0  0  0  0  0  0
    1.5513    1.4268   -7.4168 C   0  0  0  0  0  0  0  0  0  0  0  0
    1.9042    2.4844   -8.1757 C   0  0  0  0  0  0  0  0  0  0  0  0
    1.1295    2.9321   -9.1804 C   0  0  0  0  0  0  0  0  0  0  0  0
   -0.0398    2.3828   -9.5098 C   0  0  0  0  0  0  0  0  0  0  0  0
   -1.2401    2.5640  -10.8157 S   0  0  0  0  0  0  0  0  0  0  0  0
   -0.8791    1.1402  -11.9471 C   0  0  0  0  0  0  0  0  0  0  0  0
   -1.2757   -0.1558  -11.2455 C   0  0  0  0  0  0  0  0  0  0  0  0
   -0.1414    0.9662   -8.2074 Se  0  0  0  0  0  2  0  0  0  0  0  0
    1.1575   -0.0488   -5.5966 C   0  0  0  0  0  0  0  0  0  0  0  0
    1.3831   -0.9885   -4.6335 C   0  0  0  0  0  0  0  0  0  0  0  0
    2.7182   -1.3682   -4.5106 C   0  0  0  0  0  0  0  0  0  0  0  0
    3.1654   -2.4087   -3.5763 C   0  0  0  0  0  0  0  0  0  0  0  0
    4.3159   -3.2148   -3.7692 C   0  0  0  0  0  0  0  0  0  0  0  0
    4.6257   -4.0471   -2.7795 C   0  0  0  0  0  0  0  0  0  0  0  0
    4.0301   -4.2462   -1.6444 C   0  0  0  0  0  0  0  0  0  0  0  0
    4.1895   -5.2344   -0.2187 S   0  0  0  0  0  0  0  0  0  0  0  0
    5.3315   -4.5439    0.9805 C   0  0  0  0  0  0  0  0  0  0  0  0
    6.7751   -4.4989    0.5791 C   0  0  0  0  0  0  0  0  0  0  0  0
    2.5399   -2.8927   -1.9354 Se  0  0  0  0  0  2  0  0  0  0  0  0
    3.7096   -0.8052   -5.3054 C   0  0  0  0  0  0  0  0  0  0  0  0
    5.4090   -0.8227   -5.2472 S   0  0  0  0  0  0  0  0  0  0  0  0
    0.3452   -1.2809   -3.8224 C   0  0  0  0  0  0  0  0  0  0  0  0
   -0.8456   -0.5841   -4.0408 C   0  0  0  0  0  0  0  0  0  0  0  0
   -0.4802    0.4023   -5.3435 S   0  0  0  0  0  0  0  0  0  0  0  0
   -1.9854   -0.5930   -3.1004 C   0  0  0  0  0  0  0  0  0  0  0  0
   -2.7897    0.5606   -3.0584 C   0  0  0  0  0  0  0  0  0  0  0  0
   -3.7829    0.5108   -2.0133 C   0  0  0  0  0  0  0  0  0  0  0  0
   -4.0121   -0.4053   -1.1672 C   0  0  0  0  0  0  0  0  0  0  0  0
   -3.1145   -1.5929   -1.3003 C   0  0  0  0  0  0  0  0  0  0  0  0
   -3.2243   -2.6209   -0.5244 N   0  0  0  0  0  0  0  0  0  0  0  0
   -2.0463   -3.7052   -1.0048 S   0  0  0  0  0  0  0  0  0  0  0  0
   -1.4166   -2.8078   -2.2332 N   0  0  0  0  0  0  0  0  0  0  0  0
   -2.1676   -1.6250   -2.2382 C   0  0  0  0  0  0  0  0  0  0  0  0
   -4.7952   -0.5280    0.1097 C   0  0  0  0  0  0  0  0  0  0  0  0
   -4.7747    0.2476    1.2317 C   0  0  0  0  0  0  0  0  0  0  0  0
   -5.0272    1.6514    1.2100 N   0  0  0  0  0  0  0  0  0  0  0  0
   -5.2419    2.4414    2.4210 C   0  0  0  0  0  0  0  0  0  0  0  0
   -4.5152    2.5714    3.5077 C   0  0  0  0  0  0  0  0  0  0  0  0
   -5.0157    3.1868    4.6544 C   0  0  0  0  0  0  0  0  0  0  0  0
   -6.2809    3.6971    4.7386 C   0  0  0  0  0  0  0  0  0  0  0  0
   -6.9492    4.4426    6.1954 S   0  0  0  0  0  0  0  0  0  0  0  0
   -7.9923    3.3175    7.1354 C   0  0  0  0  0  0  0  0  0  0  0  0
   -7.0580    3.5697    3.5864 C   0  0  0  0  0  0  0  0  0  0  0  0
   -6.5655    2.9723    2.4748 C   0  0  0  0  0  0  0  0  0  0  0  0
   -5.2855    2.4742    0.1004 C   0  0  0  0  0  0  0  0  0  0  0  0
   -4.4740    3.6153    0.0058 C   0  0  0  0  0  0  0  0  0  0  0  0
   -4.6446    4.5714   -0.9543 C   0  0  0  0  0  0  0  0  0  0  0  0
   -5.6544    4.4604   -1.9048 C   0  0  0  0  0  0  0  0  0  0  0  0
   -5.7750    5.6873   -3.1884 S   0  0  0  0  0  0  0  0  0  0  0  0
   -6.6314    7.1842   -2.7540 C   0  0  0  0  0  0  0  0  0  0  0  0
   -6.4629    3.3466   -1.8234 C   0  0  0  0  0  0  0  0  0  0  0  0
   -6.2693    2.3829   -0.8348 C   0  0  0  0  0  0  0  0  0  0  0  0
   -4.9396   -0.4567    2.4393 C   0  0  0  0  0  0  0  0  0  0  0  0
   -4.2548   -0.2429    4.0939 S   0  0  0  0  0  0  0  0  0  0  0  0
   -4.3351   -1.8584    4.6402 C   0  0  0  0  0  0  0  0  0  0  0  0
   -4.9120   -2.5067    3.5947 C   0  0  0  0  0  0  0  0  0  0  0  0
   -5.5621   -3.8194    3.6301 N   0  0  0  0  0  0  0  0  0  0  0  0
   -6.4935   -4.0973    2.5514 C   0  0  0  0  0  0  0  0  0  0  0  0
   -7.4127   -3.0377    2.3386 C   0  0  0  0  0  0  0  0  0  0  0  0
   -8.2869   -3.1070    1.2402 C   0  0  0  0  0  0  0  0  0  0  0  0
   -8.2389   -4.1569    0.4180 C   0  0  0  0  0  0  0  0  0  0  0  0
   -9.2390   -4.2008   -1.1157 S   0  0  0  0  0  0  0  0  0  0  0  0
   -8.1369   -3.6404   -2.4810 C   0  0  0  0  0  0  0  0  0  0  0  0
   -7.3422   -5.2096    0.6178 C   0  0  0  0  0  0  0  0  0  0  0  0
   -6.4610   -5.1192    1.7380 C   0  0  0  0  0  0  0  0  0  0  0  0
   -5.5734   -4.7206    4.6715 C   0  0  0  0  0  0  0  0  0  0  0  0
   -5.8679   -4.2546    5.9310 C   0  0  0  0  0  0  0  0  0  0  0  0
   -6.0066   -5.0989    7.0322 C   0  0  0  0  0  0  0  0  0  0  0  0
   -5.8371   -6.4711    6.8231 C   0  0  0  0  0  0  0  0  0  0  0  0
   -6.0315   -7.6257    8.1919 S   0  0  0  0  0  0  0  0  0  0  0  0
   -5.9377   -9.3187    7.5337 C   0  0  0  0  0  0  0  0  0  0  0  0
   -5.5414   -6.9443    5.5912 C   0  0  0  0  0  0  0  0  0  0  0  0
   -5.4073   -6.0665    4.5015 C   0  0  0  0  0  0  0  0  0  0  0  0
   -5.1600   -1.6947    2.4849 C   0  0  0  0  0  0  0  0  0  0  0  0
   -5.1251   -2.1130    0.7612 S   0  0  0  0  0  0  0  0  0  0  0  0
   -3.4108   -2.5372    5.6641 C   0  0  0  0  0  0  0  0  0  0  0  0
   -2.0911   -2.5553    5.2311 C   0  0  0  0  0  0  0  0  0  0  0  0
   -1.6672   -1.9699    3.9458 C   0  0  0  0  0  0  0  0  0  0  0  0
   -2.3171   -1.3600    3.0621 O   0  0  0  0  0  0  0  0  0  0  0  0
   -0.2421   -2.2043    3.7812 C   0  0  0  0  0  0  0  0  0  0  0  0
    0.6942   -1.7845    2.8832 C   0  0  0  0  0  0  0  0  0  0  0  0
    2.0208   -1.9621    2.9407 C   0  0  0  0  0  0  0  0  0  0  0  0
    2.5625   -2.6867    4.0649 C   0  0  0  0  0  0  0  0  0  0  0  0
    1.5660   -3.1012    4.9471 C   0  0  0  0  0  0  0  0  0  0  0  0
    0.2571   -2.9078    4.8790 C   0  0  0  0  0  0  0  0  0  0  0  0
   -0.9627   -3.1164    5.7868 C   0  0  0  0  0  0  0  0  0  0  0  0
   -0.6237   -3.6750    7.0128 C   0  0  0  0  0  0  0  0  0  0  0  0
    0.3537   -4.1067    7.2222 C   0  0  0  0  0  0  0  0  0  0  0  0
    1.8430   -4.7338    7.5365 N   0  0  0  0  0  0  0  0  0  0  0  0
   -1.6698   -3.7167    8.0565 C   0  0  0  0  0  0  0  0  0  0  0  0
   -2.6260   -3.7348    9.0152 N   0  0  0  0  0  0  0  0  0  0  0  0
    3.9008   -2.4842    3.5177 C   0  0  0  0  0  0  0  0  0  0  0  0
    4.6145   -1.4238    4.3339 C   0  0  0  0  0  0  0  0  0  0  0  0
    5.7781   -1.0074    3.5119 C   0  0  0  0  0  0  0  0  0  0  0  0
    5.3205   -0.2891    2.4591 C   0  0  0  0  0  0  0  0  0  0  0  0
    3.8370   -0.3196    2.5458 C   0  0  0  0  0  0  0  0  0  0  0  0
    3.6847   -0.2320    4.0707 C   0  0  0  0  0  0  0  0  0  0  0  0
    3.3688   -1.7240    2.3394 C   0  0  0  0  0  0  0  0  0  0  0  0
    7.4375    0.9715   -7.7187 H   0  0  0  0  0  0  0  0  0  0  0  0
   10.5258    4.7038   -5.3341 H   0  0  0  0  0  0  0  0  0  0  0  0
    7.2296    3.4119   -1.9155 H   0  0  0  0  0  0  0  0  0  0  0  0
   10.1698    4.6658   -0.4969 H   0  0  0  0  0  0  0  0  0  0  0  0
    8.4081    6.3053    0.2956 H   0  0  0  0  0  0  0  0  0  0  0  0
    6.6590    6.4342   -1.6847 H   0  0  0  0  0  0  0  0  0  0  0  0
    7.9473    7.1380   -3.8355 H   0  0  0  0  0  0  0  0  0  0  0  0
   10.3101    7.9612   -3.0857 H   0  0  0  0  0  0  0  0  0  0  0  0
   10.6291    7.4475   -0.4985 H   0  0  0  0  0  0  0  0  0  0  0  0
    9.1763    8.5461   -0.8143 H   0  0  0  0  0  0  0  0  0  0  0  0
   11.5365    5.8526   -2.2046 H   0  0  0  0  0  0  0  0  0  0  0  0
    4.5015    1.4493   -7.6576 H   0  0  0  0  0  0  0  0  0  0  0  0
    2.8675    3.0139   -7.9380 H   0  0  0  0  0  0  0  0  0  0  0  0
    1.4125    3.8529   -9.7727 H   0  0  0  0  0  0  0  0  0  0  0  0
    0.2062    1.0566  -12.1119 H   0  0  0  0  0  0  0  0  0  0  0  0
   -1.4096    1.2730  -12.8904 H   0  0  0  0  0  0  0  0  0  0  0  0
   -2.3142   -0.1391  -10.8603 H   0  0  0  0  0  0  0  0  0  0  0  0
   -0.5411   -0.4246  -10.4868 H   0  0  0  0  0  0  0  0  0  0  0  0
   -1.2129   -0.9441  -12.0551 H   0  0  0  0  0  0  0  0  0  0  0  0
    4.8641   -3.1249   -4.7379 H   0  0  0  0  0  0  0  0  0  0  0  0
    5.5924   -4.6850   -2.9518 H   0  0  0  0  0  0  0  0  0  0  0  0
    5.0192   -3.5037    1.1001 H   0  0  0  0  0  0  0  0  0  0  0  0
    5.2201   -5.1208    1.9362 H   0  0  0  0  0  0  0  0  0  0  0  0
    7.0236   -3.4665    0.1540 H   0  0  0  0  0  0  0  0  0  0  0  0
    7.3798   -4.4970    1.5300 H   0  0  0  0  0  0  0  0  0  0  0  0
    7.0904   -5.2744   -0.1093 H   0  0  0  0  0  0  0  0  0  0  0  0
    0.3932   -2.0460   -3.0399 H   0  0  0  0  0  0  0  0  0  0  0  0
   -2.7005    1.3695   -3.6749 H   0  0  0  0  0  0  0  0  0  0  0  0
   -4.3907    1.4313   -2.0571 H   0  0  0  0  0  0  0  0  0  0  0  0
   -3.4604    2.2261    3.4589 H   0  0  0  0  0  0  0  0  0  0  0  0
   -4.3428    3.2494    5.5006 H   0  0  0  0  0  0  0  0  0  0  0  0
   -8.8737    2.9461    6.5362 H   0  0  0  0  0  0  0  0  0  0  0  0
   -8.4458    3.8593    8.0143 H   0  0  0  0  0  0  0  0  0  0  0  0
   -7.4844    2.4411    7.5341 H   0  0  0  0  0  0  0  0  0  0  0  0
   -8.0615    3.9634    3.6368 H   0  0  0  0  0  0  0  0  0  0  0  0
   -7.1768    2.8839    1.5732 H   0  0  0  0  0  0  0  0  0  0  0  0
   -3.6764    3.7317    0.7621 H   0  0  0  0  0  0  0  0  0  0  0  0
   -4.0153    5.4473   -1.0140 H   0  0  0  0  0  0  0  0  0  0  0  0
   -6.3988    7.5601   -1.7332 H   0  0  0  0  0  0  0  0  0  0  0  0
   -6.2923    8.0325   -3.4261 H   0  0  0  0  0  0  0  0  0  0  0  0
   -7.7190    7.1240   -2.8821 H   0  0  0  0  0  0  0  0  0  0  0  0
   -7.2527    3.2691   -2.5423 H   0  0  0  0  0  0  0  0  0  0  0  0
   -6.9099    1.5031   -0.7782 H   0  0  0  0  0  0  0  0  0  0  0  0
   -7.4909   -2.1796    2.9552 H   0  0  0  0  0  0  0  0  0  0  0  0
   -8.9755   -2.2964    1.0532 H   0  0  0  0  0  0  0  0  0  0  0  0
   -8.6807   -3.0842   -3.2519 H   0  0  0  0  0  0  0  0  0  0  0  0
   -7.2954   -3.0927   -2.0143 H   0  0  0  0  0  0  0  0  0  0  0  0
   -7.6571   -4.5437   -2.9628 H   0  0  0  0  0  0  0  0  0  0  0  0
   -7.2878   -6.0572   -0.0127 H   0  0  0  0  0  0  0  0  0  0  0  0
   -5.7745   -5.9502    1.7516 H   0  0  0  0  0  0  0  0  0  0  0  0
   -6.0166   -3.2020    6.1472 H   0  0  0  0  0  0  0  0  0  0  0  0
   -6.2314   -4.7729    8.0210 H   0  0  0  0  0  0  0  0  0  0  0  0
   -4.8986   -9.5865    7.3017 H   0  0  0  0  0  0  0  0  0  0  0  0
   -6.3995   -9.9772    8.3082 H   0  0  0  0  0  0  0  0  0  0  0  0
   -6.5367   -9.3701    6.5869 H   0  0  0  0  0  0  0  0  0  0  0  0
   -5.4072   -7.9982    5.3505 H   0  0  0  0  0  0  0  0  0  0  0  0
   -5.1245   -6.4914    3.5889 H   0  0  0  0  0  0  0  0  0  0  0  0
   -3.6584   -2.8642    6.5649 H   0  0  0  0  0  0  0  0  0  0  0  0
    0.2543   -1.2456    2.0055 H   0  0  0  0  0  0  0  0  0  0  0  0
    2.0193   -3.6453    5.7409 H   0  0  0  0  0  0  0  0  0  0  0  0
    4.4847   -3.3984    3.3516 H   0  0  0  0  0  0  0  0  0  0  0  0
    4.8037   -1.6544    5.3476 H   0  0  0  0  0  0  0  0  0  0  0  0
    6.7954   -1.2536    3.7582 H   0  0  0  0  0  0  0  0  0  0  0  0
    5.9574    0.1994    1.7260 H   0  0  0  0  0  0  0  0  0  0  0  0
    3.3179    0.4514    2.0024 H   0  0  0  0  0  0  0  0  0  0  0  0
    4.0826    0.7067    4.4318 H   0  0  0  0  0  0  0  0  0  0  0  0
    2.6516   -0.4573    4.3932 H   0  0  0  0  0  0  0  0  0  0  0  0
    3.4734   -2.1231    1.3347 H   0  0  0  0  0  0  0  0  0  0  0  0
  1  2  2  3
  2  3  1  0
  3  4  2  0
  3  5  1  0
  5  6  2  0
  6  7  1  0
  7  8  2  0
  8  9  1  0
  9 10  2  0
 10 11  1  0
 11 12  2  3
 12 13  1  0
 13 14  3  0
 12 15  1  0
 15 16  3  0
  8 17  1  0
 17 18  1  0
 18 19  1  0
 19 20  2  0
 20 21  1  0
 21 22  1  0
 21 23  1  0
  1 24  1  0
 24 25  2  0
 25 26  1  0
 26 27  2  0
 27 28  1  0
 28 29  2  0
 29 30  1  0
 30 31  2  0
 31 32  1  0
 32 33  1  0
 33 34  1  0
 31 35  1  0
 27 36  1  0
 36 37  2  0
 37 38  1  0
 38 39  1  0
 39 40  2  0
 40 41  1  0
 41 42  2  0
 42 43  1  0
 43 44  1  0
 44 45  1  0
 42 46  1  0
 38 47  2  0
 47 48  1  0
 37 49  1  0
 49 50  2  0
 50 51  1  0
 50 52  1  0
 52 53  2  0
 53 54  1  0
 54 55  2  0
 55 56  1  0
 56 57  2  0
 57 58  1  0
 58 59  1  0
 59 60  2  0
 55 61  1  0
 61 62  2  0
 62 63  1  0
 63 64  1  0
 64 65  2  0
 65 66  1  0
 66 67  2  0
 67 68  1  0
 68 69  1  0
 67 70  1  0
 70 71  2  0
 63 72  1  0
 72 73  2  0
 73 74  1  0
 74 75  2  0
 75 76  1  0
 76 77  1  0
 75 78  1  0
 78 79  2  0
 62 80  1  0
 80 81  1  0
 81 82  1  0
 82 83  2  0
 83 84  1  0
 84 85  1  0
 85 86  2  0
 86 87  1  0
 87 88  2  0
 88 89  1  0
 89 90  1  0
 88 91  1  0
 91 92  2  0
 84 93  1  0
 93 94  2  0
 94 95  1  0
 95 96  2  0
 96 97  1  0
 97 98  1  0
 96 99  1  0
 99100  2  0
 83101  1  0
101102  1  0
 82103  1  0
103104  2  3
104105  1  0
105106  2  0
105107  1  0
107108  2  0
108109  1  0
109110  2  0
110111  1  0
111112  2  0
112113  1  0
113114  2  3
114115  1  0
115116  3  0
114117  1  0
117118  3  0
110119  1  0
119120  1  0
120121  1  0
121122  2  0
122123  1  0
123124  1  0
123125  1  0
 11  2  1  0
 23 17  1  0
 48 24  1  0
 60 52  1  0
102 61  1  0
113104  1  0
125119  1  0
 10  5  1  0
 22 18  1  0
 47 26  1  0
 60 56  1  0
 71 64  1  0
 79 72  1  0
101 80  2  0
112107  1  0
124120  1  0
 23  7  1  0
 35 28  1  0
 51 36  1  0
 92 85  1  0
100 93  1  0
125109  1  0
 46 39  1  0
  1126  1  0
  6127  1  0
  9128  1  0
 17129  1  0
 18130  1  0
 19131  1  0
 20132  1  0
 21133  1  0
 22134  1  0
 22135  1  0
 23136  1  0
 25137  1  0
 29138  1  0
 30139  1  0
 33140  1  0
 33141  1  0
 34142  1  0
 34143  1  0
 34144  1  0
 40145  1  0
 41146  1  0
 44147  1  0
 44148  1  0
 45149  1  0
 45150  1  0
 45151  1  0
 49152  1  0
 53153  1  0
 54154  1  0
 65155  1  0
 66156  1  0
 69157  1  0
 69158  1  0
 69159  1  0
 70160  1  0
 71161  1  0
 73162  1  0
 74163  1  0
 77164  1  0
 77165  1  0
 77166  1  0
 78167  1  0
 79168  1  0
 86169  1  0
 87170  1  0
 90171  1  0
 90172  1  0
 90173  1  0
 91174  1  0
 92175  1  0
 94176  1  0
 95177  1  0
 98178  1  0
 98179  1  0
 98180  1  0
 99181  1  0
100182  1  0
103183  1  0
108184  1  0
111185  1  0
119186  1  0
120187  1  0
121188  1  0
122189  1  0
123190  1  0
124191  1  0
124192  1  0
125193  1  0
M  END

