
     RDKit          3D

159176  0  0  0  0  0  0  0  0999 V2000
    1.2292    4.8885    3.0009 C   0  0  0  0  0  0  0  0  0  0  0  0
    0.6666    4.8104    1.7695 C   0  0  0  0  0  0  0  0  0  0  0  0
   -0.1887    3.6524    1.3590 C   0  0  0  0  0  0  0  0  0  0  0  0
   -0.9767    3.0246    2.1083 O   0  0  0  0  0  0  0  0  0  0  0  0
   -0.1671    3.5168   -0.0564 C   0  0  0  0  0  0  0  0  0  0  0  0
   -0.9760    2.6290   -0.7796 C   0  0  0  0  0  0  0  0  0  0  0  0
   -1.0137    2.9262   -2.1094 C   0  0  0  0  0  0  0  0  0  0  0  0
   -0.3230    4.0366   -2.7128 C   0  0  0  0  0  0  0  0  0  0  0  0
    0.4709    4.9033   -2.0341 C   0  0  0  0  0  0  0  0  0  0  0  0
    0.5771    4.5960   -0.6276 C   0  0  0  0  0  0  0  0  0  0  0  0
    1.1437    5.4086    0.4844 C   0  0  0  0  0  0  0  0  0  0  0  0
    1.9838    6.4706    0.3224 C   0  0  0  0  0  0  0  0  0  0  0  0
    2.8651    6.5310   -0.8315 C   0  0  0  0  0  0  0  0  0  0  0  0
    3.5161    6.5266   -1.7910 N   0  0  0  0  0  0  0  0  0  0  0  0
    2.2389    7.3762    1.4286 C   0  0  0  0  0  0  0  0  0  0  0  0
    2.3690    8.1334    2.3025 N   0  0  0  0  0  0  0  0  0  0  0  0
   -1.0382    3.8618   -3.9912 C   0  0  0  0  0  0  0  0  0  0  0  0
   -2.2220    4.8473   -4.2993 C   0  0  0  0  0  0  0  0  0  0  0  0
   -2.9994    4.2352   -5.4455 C   0  0  0  0  0  0  0  0  0  0  0  0
   -3.6148    3.1428   -4.9561 C   0  0  0  0  0  0  0  0  0  0  0  0
   -3.2360    3.0761   -3.4783 C   0  0  0  0  0  0  0  0  0  0  0  0
   -3.2228    4.5769   -3.1705 C   0  0  0  0  0  0  0  0  0  0  0  0
   -1.7202    2.6786   -3.4188 C   0  0  0  0  0  0  0  0  0  0  0  0
    1.4242    3.6696    3.8407 C   0  0  0  0  0  0  0  0  0  0  0  0
    0.3707    2.9983    4.5171 C   0  0  0  0  0  0  0  0  0  0  0  0
   -0.8219    3.6467    5.0066 N   0  0  0  0  0  0  0  0  0  0  0  0
   -1.7607    2.8841    5.7723 C   0  0  0  0  0  0  0  0  0  0  0  0
   -2.9859    2.4695    5.2196 C   0  0  0  0  0  0  0  0  0  0  0  0
   -3.8905    1.7535    6.0060 C   0  0  0  0  0  0  0  0  0  0  0  0
   -3.5542    1.4021    7.3153 C   0  0  0  0  0  0  0  0  0  0  0  0
   -4.8006    0.6443    8.3903 S   0  0  0  0  0  0  0  0  0  0  0  0
   -5.2476    2.2475    9.1816 C   0  0  0  0  0  0  0  0  0  0  0  0
   -2.2847    1.7029    7.8248 C   0  0  0  0  0  0  0  0  0  0  0  0
   -1.4081    2.4723    7.0548 C   0  0  0  0  0  0  0  0  0  0  0  0
   -0.8254    5.0650    5.2429 C   0  0  0  0  0  0  0  0  0  0  0  0
   -1.9063    5.8300    4.7935 C   0  0  0  0  0  0  0  0  0  0  0  0
   -1.9751    7.1918    5.0826 C   0  0  0  0  0  0  0  0  0  0  0  0
   -0.9947    7.8177    5.8573 C   0  0  0  0  0  0  0  0  0  0  0  0
   -1.1483    9.5596    6.2867 S   0  0  0  0  0  0  0  0  0  0  0  0
   -0.2511   10.1979    4.8324 C   0  0  0  0  0  0  0  0  0  0  0  0
    0.0797    7.0627    6.3505 C   0  0  0  0  0  0  0  0  0  0  0  0
    0.1757    5.6824    6.0440 C   0  0  0  0  0  0  0  0  0  0  0  0
    0.5567    1.6131    4.5026 C   0  0  0  0  0  0  0  0  0  0  0  0
   -0.4747    0.2921    4.5593 S   0  0  0  0  0  0  0  0  0  0  0  0
    0.6298   -0.8313    3.8825 C   0  0  0  0  0  0  0  0  0  0  0  0
    1.8227   -0.1322    3.6366 C   0  0  0  0  0  0  0  0  0  0  0  0
    3.0686   -0.7391    3.3097 N   0  0  0  0  0  0  0  0  0  0  0  0
    3.9348   -0.9736    4.4281 C   0  0  0  0  0  0  0  0  0  0  0  0
    5.2230   -0.3983    4.4802 C   0  0  0  0  0  0  0  0  0  0  0  0
    6.0640   -0.6279    5.5827 C   0  0  0  0  0  0  0  0  0  0  0  0
    5.6196   -1.4380    6.6350 C   0  0  0  0  0  0  0  0  0  0  0  0
    6.7483   -1.8523    7.9648 S   0  0  0  0  0  0  0  0  0  0  0  0
    5.7757   -1.0762    9.3013 C   0  0  0  0  0  0  0  0  0  0  0  0
    4.3475   -2.0277    6.5766 C   0  0  0  0  0  0  0  0  0  0  0  0
    3.5017   -1.7547    5.5008 C   0  0  0  0  0  0  0  0  0  0  0  0
    3.4620   -0.9753    1.9404 C   0  0  0  0  0  0  0  0  0  0  0  0
    4.6002   -1.7576    1.6374 C   0  0  0  0  0  0  0  0  0  0  0  0
    4.9698   -1.9878    0.3228 C   0  0  0  0  0  0  0  0  0  0  0  0
    4.1866   -1.5325   -0.7345 C   0  0  0  0  0  0  0  0  0  0  0  0
    4.6606   -1.8529   -2.4393 S   0  0  0  0  0  0  0  0  0  0  0  0
    4.3590   -3.6496   -2.3264 C   0  0  0  0  0  0  0  0  0  0  0  0
    3.0161   -0.8151   -0.4609 C   0  0  0  0  0  0  0  0  0  0  0  0
    2.6668   -0.4981    0.8627 C   0  0  0  0  0  0  0  0  0  0  0  0
    1.7233    1.2046    3.9450 C   0  0  0  0  0  0  0  0  0  0  0  0
    2.6087    2.5010    3.3694 S   0  0  0  0  0  0  0  0  0  0  0  0
    0.2011   -1.9928    3.0429 C   0  0  0  0  0  0  0  0  0  0  0  0
   -1.0024   -1.9023    2.3259 C   0  0  0  0  0  0  0  0  0  0  0  0
   -2.1016   -1.2041    2.6191 N   0  0  0  0  0  0  0  0  0  0  0  0
   -2.8895   -1.3386    1.5344 N   0  0  0  0  0  0  0  0  0  0  0  0
   -4.1585   -0.6336    1.3902 C   0  0  0  0  0  0  0  0  0  0  0  0
   -5.2406   -1.3004    2.2264 C   0  0  0  0  0  0  0  0  0  0  0  0
   -2.3380   -2.0319    0.5733 N   0  0  0  0  0  0  0  0  0  0  0  0
   -1.1483   -2.4464    1.0542 C   0  0  0  0  0  0  0  0  0  0  0  0
   -0.1244   -3.1422    0.4276 C   0  0  0  0  0  0  0  0  0  0  0  0
    0.9995   -3.4778    1.2380 C   0  0  0  0  0  0  0  0  0  0  0  0
    1.1136   -2.9632    2.5723 C   0  0  0  0  0  0  0  0  0  0  0  0
    2.2069   -3.3042    3.2875 F   0  0  0  0  0  0  0  0  0  0  0  0
    2.0102   -4.2506    0.7684 F   0  0  0  0  0  0  0  0  0  0  0  0
   -0.1311   -3.2881   -1.0610 C   0  0  0  0  0  0  0  0  0  0  0  0
   -0.9603   -2.2265   -2.0733 S   0  0  0  0  0  0  0  0  0  0  0  0
   -0.3186   -2.8577   -3.4973 C   0  0  0  0  0  0  0  0  0  0  0  0
   -0.6223   -2.4321   -4.7882 C   0  0  0  0  0  0  0  0  0  0  0  0
    0.0779   -3.0597   -5.8258 C   0  0  0  0  0  0  0  0  0  0  0  0
   -0.0751   -2.8029   -7.1775 C   0  0  0  0  0  0  0  0  0  0  0  0
    0.7638   -3.6081   -7.9712 C   0  0  0  0  0  0  0  0  0  0  0  0
    1.7366   -4.5930   -6.9875 S   0  0  0  0  0  0  0  0  0  0  0  0
    1.0120   -4.0644   -5.5463 C   0  0  0  0  0  0  0  0  0  0  0  0
    1.2986   -4.4998   -4.2480 C   0  0  0  0  0  0  0  0  0  0  0  0
    0.5965   -3.8615   -3.2089 C   0  0  0  0  0  0  0  0  0  0  0  0
    0.6992   -4.1231   -1.8435 C   0  0  0  0  0  0  0  0  0  0  0  0
    0.8642   -3.5117   -9.4418 C   0  0  0  0  0  0  0  0  0  0  0  0
    0.5537   -4.5192  -10.2875 C   0  0  0  0  0  0  0  0  0  0  0  0
    0.2087   -5.9053   -9.8726 C   0  0  0  0  0  0  0  0  0  0  0  0
   -0.0391   -6.3091   -8.7042 O   0  0  0  0  0  0  0  0  0  0  0  0
    0.0742   -6.7195  -11.0580 C   0  0  0  0  0  0  0  0  0  0  0  0
   -0.3353   -8.0482  -11.1333 C   0  0  0  0  0  0  0  0  0  0  0  0
   -0.6491   -8.5662  -12.3907 C   0  0  0  0  0  0  0  0  0  0  0  0
   -1.2990  -10.3642  -12.5712 Br  0  0  0  0  0  0  0  0  0  0  0  0
   -0.5524   -7.7509  -13.5396 C   0  0  0  0  0  0  0  0  0  0  0  0
   -0.1114   -6.4344  -13.4379 C   0  0  0  0  0  0  0  0  0  0  0  0
    0.2530   -5.9338  -12.1824 C   0  0  0  0  0  0  0  0  0  0  0  0
    0.6293   -4.5443  -11.7851 C   0  0  0  0  0  0  0  0  0  0  0  0
    1.0284   -3.5692  -12.6233 C   0  0  0  0  0  0  0  0  0  0  0  0
    0.8880   -2.1644  -12.3085 C   0  0  0  0  0  0  0  0  0  0  0  0
    0.6960   -1.0517  -12.0522 N   0  0  0  0  0  0  0  0  0  0  0  0
    1.4386   -3.8521  -13.9706 C   0  0  0  0  0  0  0  0  0  0  0  0
    1.7311   -4.0641  -15.0766 N   0  0  0  0  0  0  0  0  0  0  0  0
    1.9355    5.7031    3.2591 H   0  0  0  0  0  0  0  0  0  0  0  0
   -1.6421    1.9076   -0.3186 H   0  0  0  0  0  0  0  0  0  0  0  0
    0.8732    5.8114   -2.4834 H   0  0  0  0  0  0  0  0  0  0  0  0
   -0.3816    3.6412   -4.8665 H   0  0  0  0  0  0  0  0  0  0  0  0
   -1.9179    5.8954   -4.4390 H   0  0  0  0  0  0  0  0  0  0  0  0
   -3.0923    4.6311   -6.4593 H   0  0  0  0  0  0  0  0  0  0  0  0
   -4.3578    2.5220   -5.4683 H   0  0  0  0  0  0  0  0  0  0  0  0
   -3.9256    2.4549   -2.8686 H   0  0  0  0  0  0  0  0  0  0  0  0
   -2.8656    4.8224   -2.1468 H   0  0  0  0  0  0  0  0  0  0  0  0
   -4.2195    5.0660   -3.2981 H   0  0  0  0  0  0  0  0  0  0  0  0
   -1.4565    1.7009   -3.8905 H   0  0  0  0  0  0  0  0  0  0  0  0
   -3.2004    2.6516    4.1593 H   0  0  0  0  0  0  0  0  0  0  0  0
   -4.8435    1.4122    5.5799 H   0  0  0  0  0  0  0  0  0  0  0  0
   -6.1684    2.6846    8.6910 H   0  0  0  0  0  0  0  0  0  0  0  0
   -4.4148    2.9908    9.1229 H   0  0  0  0  0  0  0  0  0  0  0  0
   -5.4736    2.0671   10.2620 H   0  0  0  0  0  0  0  0  0  0  0  0
   -1.9840    1.4233    8.8112 H   0  0  0  0  0  0  0  0  0  0  0  0
   -0.4472    2.7661    7.4720 H   0  0  0  0  0  0  0  0  0  0  0  0
   -2.6840    5.3414    4.2123 H   0  0  0  0  0  0  0  0  0  0  0  0
   -2.8369    7.7490    4.7324 H   0  0  0  0  0  0  0  0  0  0  0  0
   -0.0539   11.2700    4.9904 H   0  0  0  0  0  0  0  0  0  0  0  0
    0.7225    9.6748    4.7017 H   0  0  0  0  0  0  0  0  0  0  0  0
   -0.8593   10.0845    3.9134 H   0  0  0  0  0  0  0  0  0  0  0  0
    0.8139    7.5049    7.0045 H   0  0  0  0  0  0  0  0  0  0  0  0
    1.0068    5.1060    6.4218 H   0  0  0  0  0  0  0  0  0  0  0  0
    5.5598    0.2185    3.6715 H   0  0  0  0  0  0  0  0  0  0  0  0
    7.0692   -0.2050    5.5761 H   0  0  0  0  0  0  0  0  0  0  0  0
    5.6391    0.0209    9.1380 H   0  0  0  0  0  0  0  0  0  0  0  0
    4.7868   -1.5733    9.4044 H   0  0  0  0  0  0  0  0  0  0  0  0
    6.3185   -1.2208   10.2561 H   0  0  0  0  0  0  0  0  0  0  0  0
    3.9927   -2.6772    7.3798 H   0  0  0  0  0  0  0  0  0  0  0  0
    2.5026   -2.1488    5.5474 H   0  0  0  0  0  0  0  0  0  0  0  0
    5.1809   -2.2088    2.4502 H   0  0  0  0  0  0  0  0  0  0  0  0
    5.8858   -2.5335    0.1372 H   0  0  0  0  0  0  0  0  0  0  0  0
    4.3534   -4.0881   -3.3359 H   0  0  0  0  0  0  0  0  0  0  0  0
    3.3905   -3.8609   -1.8493 H   0  0  0  0  0  0  0  0  0  0  0  0
    5.1719   -4.1330   -1.7255 H   0  0  0  0  0  0  0  0  0  0  0  0
    2.4007   -0.4432   -1.2640 H   0  0  0  0  0  0  0  0  0  0  0  0
    1.7983    0.1369    1.0496 H   0  0  0  0  0  0  0  0  0  0  0  0
   -4.4585   -0.6110    0.3116 H   0  0  0  0  0  0  0  0  0  0  0  0
   -4.0389    0.4119    1.7215 H   0  0  0  0  0  0  0  0  0  0  0  0
   -4.9898   -1.2358    3.3096 H   0  0  0  0  0  0  0  0  0  0  0  0
   -5.3581   -2.3755    1.9522 H   0  0  0  0  0  0  0  0  0  0  0  0
   -6.2065   -0.7955    2.0610 H   0  0  0  0  0  0  0  0  0  0  0  0
   -1.3402   -1.6415   -5.0071 H   0  0  0  0  0  0  0  0  0  0  0  0
   -0.7542   -2.0734   -7.6014 H   0  0  0  0  0  0  0  0  0  0  0  0
    2.0278   -5.2781   -4.0272 H   0  0  0  0  0  0  0  0  0  0  0  0
    1.3311   -4.9004   -1.4350 H   0  0  0  0  0  0  0  0  0  0  0  0
    1.0607   -2.5352   -9.8293 H   0  0  0  0  0  0  0  0  0  0  0  0
   -0.4552   -8.6574  -10.2273 H   0  0  0  0  0  0  0  0  0  0  0  0
   -0.8458   -8.1372  -14.5018 H   0  0  0  0  0  0  0  0  0  0  0  0
   -0.1422   -5.8127  -14.3157 H   0  0  0  0  0  0  0  0  0  0  0  0
  1  2  2  3
  2  3  1  0
  3  4  2  0
  3  5  1  0
  5  6  2  0
  6  7  1  0
  7  8  2  0
  8  9  1  0
  9 10  2  0
 10 11  1  0
 11 12  2  3
 12 13  1  0
 13 14  3  0
 12 15  1  0
 15 16  3  0
  8 17  1  0
 17 18  1  0
 18 19  1  0
 19 20  2  0
 20 21  1  0
 21 22  1  0
 21 23  1  0
  1 24  1  0
 24 25  2  0
 25 26  1  0
 26 27  1  0
 27 28  2  0
 28 29  1  0
 29 30  2  0
 30 31  1  0
 31 32  1  0
 30 33  1  0
 33 34  2  0
 26 35  1  0
 35 36  2  0
 36 37  1  0
 37 38  2  0
 38 39  1  0
 39 40  1  0
 38 41  1  0
 41 42  2  0
 25 43  1  0
 43 44  1  0
 44 45  1  0
 45 46  2  0
 46 47  1  0
 47 48  1  0
 48 49  2  0
 49 50  1  0
 50 51  2  0
 51 52  1  0
 52 53  1  0
 51 54  1  0
 54 55  2  0
 47 56  1  0
 56 57  2  0
 57 58  1  0
 58 59  2  0
 59 60  1  0
 60 61  1  0
 59 62  1  0
 62 63  2  0
 46 64  1  0
 64 65  1  0
 45 66  1  0
 66 67  1  0
 67 68  2  0
 68 69  1  0
 69 70  1  0
 70 71  1  0
 69 72  1  0
 72 73  2  0
 73 74  1  0
 74 75  2  0
 75 76  1  0
 76 77  1  0
 75 78  1  0
 74 79  1  0
 79 80  1  0
 80 81  1  0
 81 82  2  0
 82 83  1  0
 83 84  1  0
 84 85  2  0
 85 86  1  0
 86 87  1  0
 87 88  1  0
 88 89  2  0
 89 90  1  0
 85 91  1  0
 91 92  2  3
 92 93  1  0
 93 94  2  0
 93 95  1  0
 95 96  2  0
 96 97  1  0
 97 98  1  0
 97 99  2  0
 99100  1  0
100101  2  0
101102  1  0
102103  2  3
103104  1  0
104105  3  0
103106  1  0
106107  3  0
 11  2  1  0
 23 17  1  0
 65 24  1  0
 76 66  2  0
 90 79  2  0
102 92  1  0
 10  5  1  0
 22 18  1  0
 34 27  1  0
 42 35  1  0
 64 43  2  0
 73 67  1  0
 89 81  1  0
101 95  1  0
 23  7  1  0
 55 48  1  0
 63 56  1  0
 87 83  2  0
  1108  1  0
  6109  1  0
  9110  1  0
 17111  1  0
 18112  1  0
 19113  1  0
 20114  1  0
 21115  1  0
 22116  1  0
 22117  1  0
 23118  1  0
 28119  1  0
 29120  1  0
 32121  1  0
 32122  1  0
 32123  1  0
 33124  1  0
 34125  1  0
 36126  1  0
 37127  1  0
 40128  1  0
 40129  1  0
 40130  1  0
 41131  1  0
 42132  1  0
 49133  1  0
 50134  1  0
 53135  1  0
 53136  1  0
 53137  1  0
 54138  1  0
 55139  1  0
 57140  1  0
 58141  1  0
 61142  1  0
 61143  1  0
 61144  1  0
 62145  1  0
 63146  1  0
 70147  1  0
 70148  1  0
 71149  1  0
 71150  1  0
 71151  1  0
 82152  1  0
 84153  1  0
 88154  1  0
 90155  1  0
 91156  1  0
 96157  1  0
 99158  1  0
100159  1  0
M  END

