
     RDKit          3D

181201  0  0  0  0  0  0  0  0999 V2000
   -6.6423   -1.3136    2.1480 C   0  0  0  0  0  0  0  0  0  0  0  0
   -6.4260   -1.5761    3.4494 C   0  0  0  0  0  0  0  0  0  0  0  0
   -5.1408   -1.9591    4.0377 C   0  0  0  0  0  0  0  0  0  0  0  0
   -4.1434   -2.4198    3.4194 O   0  0  0  0  0  0  0  0  0  0  0  0
   -5.1756   -1.6780    5.4528 C   0  0  0  0  0  0  0  0  0  0  0  0
   -4.0952   -1.7293    6.3570 C   0  0  0  0  0  0  0  0  0  0  0  0
   -4.3595   -1.1459    7.5829 C   0  0  0  0  0  0  0  0  0  0  0  0
   -5.6269   -0.5542    7.9105 C   0  0  0  0  0  0  0  0  0  0  0  0
   -6.7018   -0.5246    7.0344 C   0  0  0  0  0  0  0  0  0  0  0  0
   -6.4553   -1.1447    5.7751 C   0  0  0  0  0  0  0  0  0  0  0  0
   -7.3254   -1.2058    4.5792 C   0  0  0  0  0  0  0  0  0  0  0  0
   -8.6850   -1.1835    4.5703 C   0  0  0  0  0  0  0  0  0  0  0  0
   -9.4527   -1.5118    3.3954 C   0  0  0  0  0  0  0  0  0  0  0  0
  -10.0802   -1.7757    2.4594 N   0  0  0  0  0  0  0  0  0  0  0  0
   -9.4535   -0.9752    5.7637 C   0  0  0  0  0  0  0  0  0  0  0  0
  -10.0892   -0.8041    6.7189 N   0  0  0  0  0  0  0  0  0  0  0  0
   -5.0756   -0.0593    9.2125 C   0  0  0  0  0  0  0  0  0  0  0  0
   -4.7115    1.4533    9.2825 C   0  0  0  0  0  0  0  0  0  0  0  0
   -3.8523    1.6191   10.5049 C   0  0  0  0  0  0  0  0  0  0  0  0
   -2.6809    1.0287   10.2221 C   0  0  0  0  0  0  0  0  0  0  0  0
   -2.8005    0.4863    8.8135 C   0  0  0  0  0  0  0  0  0  0  0  0
   -3.6336    1.6015    8.2207 C   0  0  0  0  0  0  0  0  0  0  0  0
   -3.8015   -0.7074    8.8970 C   0  0  0  0  0  0  0  0  0  0  0  0
   -5.5748   -1.3842    1.1390 C   0  0  0  0  0  0  0  0  0  0  0  0
   -5.2097   -2.5779    0.5589 C   0  0  0  0  0  0  0  0  0  0  0  0
   -5.7862   -3.7840    0.8302 N   0  0  0  0  0  0  0  0  0  0  0  0
   -5.2143   -4.7669    0.0898 C   0  0  0  0  0  0  0  0  0  0  0  0
   -5.6112   -6.2092    0.1770 C   0  0  0  0  0  0  0  0  0  0  0  0
   -4.7612   -6.9347    1.2081 C   0  0  0  0  0  0  0  0  0  0  0  0
   -3.9936   -4.1652   -0.9008 S   0  0  0  0  0  0  0  0  0  0  0  0
   -4.1819   -2.5869   -0.3563 C   0  0  0  0  0  0  0  0  0  0  0  0
   -3.4826   -1.4293   -0.7306 C   0  0  0  0  0  0  0  0  0  0  0  0
   -3.8466   -0.1214   -0.2732 C   0  0  0  0  0  0  0  0  0  0  0  0
   -4.8802   -0.1880    0.6878 C   0  0  0  0  0  0  0  0  0  0  0  0
   -5.0478    1.1964    1.3335 S   0  0  0  0  0  0  0  0  0  0  0  0
   -4.1381    2.1989    0.3964 C   0  0  0  0  0  0  0  0  0  0  0  0
   -4.9566    3.4419    0.1578 C   0  0  0  0  0  0  0  0  0  0  0  0
   -6.0775    3.2563   -0.8758 C   0  0  0  0  0  0  0  0  0  0  0  0
   -4.5424    0.8283    0.5387 N   0  0  0  0  0  0  0  0  0  0  0  0
   -2.2743   -1.5792   -1.5852 C   0  0  0  0  0  0  0  0  0  0  0  0
   -1.8499   -0.7554   -2.6455 C   0  0  0  0  0  0  0  0  0  0  0  0
   -2.4478    0.5039   -2.9666 N   0  0  0  0  0  0  0  0  0  0  0  0
   -3.3883    0.5138   -4.0471 C   0  0  0  0  0  0  0  0  0  0  0  0
   -4.7684    0.4484   -3.7965 C   0  0  0  0  0  0  0  0  0  0  0  0
   -5.6750    0.3859   -4.8566 C   0  0  0  0  0  0  0  0  0  0  0  0
   -5.2045    0.3588   -6.1797 C   0  0  0  0  0  0  0  0  0  0  0  0
   -6.3630    0.2135   -7.5449 S   0  0  0  0  0  0  0  0  0  0  0  0
   -6.5076    2.0079   -7.7951 C   0  0  0  0  0  0  0  0  0  0  0  0
   -3.8309    0.4147   -6.4328 C   0  0  0  0  0  0  0  0  0  0  0  0
   -2.9291    0.5053   -5.3742 C   0  0  0  0  0  0  0  0  0  0  0  0
   -1.9636    1.7280   -2.3660 C   0  0  0  0  0  0  0  0  0  0  0  0
   -0.7920    1.7323   -1.5647 C   0  0  0  0  0  0  0  0  0  0  0  0
   -0.3112    2.9075   -0.9928 C   0  0  0  0  0  0  0  0  0  0  0  0
   -1.0239    4.1002   -1.1555 C   0  0  0  0  0  0  0  0  0  0  0  0
   -0.4394    5.6138   -0.3933 S   0  0  0  0  0  0  0  0  0  0  0  0
   -1.0528    5.1842    1.2742 C   0  0  0  0  0  0  0  0  0  0  0  0
   -2.1902    4.1174   -1.9306 C   0  0  0  0  0  0  0  0  0  0  0  0
   -2.6550    2.9433   -2.5323 C   0  0  0  0  0  0  0  0  0  0  0  0
   -0.6035   -1.1626   -3.1374 C   0  0  0  0  0  0  0  0  0  0  0  0
    0.5093   -0.4808   -4.1885 S   0  0  0  0  0  0  0  0  0  0  0  0
    1.7930   -1.5138   -3.7658 C   0  0  0  0  0  0  0  0  0  0  0  0
    1.3426   -2.3773   -2.7308 C   0  0  0  0  0  0  0  0  0  0  0  0
    2.2090   -3.0304   -1.7925 N   0  0  0  0  0  0  0  0  0  0  0  0
    2.3255   -2.4464   -0.4725 C   0  0  0  0  0  0  0  0  0  0  0  0
    2.0961   -3.2319    0.6769 C   0  0  0  0  0  0  0  0  0  0  0  0
    2.0893   -2.6430    1.9421 C   0  0  0  0  0  0  0  0  0  0  0  0
    2.3314   -1.2758    2.0775 C   0  0  0  0  0  0  0  0  0  0  0  0
    2.3011   -0.5191    3.7038 S   0  0  0  0  0  0  0  0  0  0  0  0
    0.5897    0.0719    3.5380 C   0  0  0  0  0  0  0  0  0  0  0  0
    2.5812   -0.4920    0.9456 C   0  0  0  0  0  0  0  0  0  0  0  0
    2.5778   -1.0790   -0.3186 C   0  0  0  0  0  0  0  0  0  0  0  0
    2.7080   -4.3598   -2.0439 C   0  0  0  0  0  0  0  0  0  0  0  0
    3.9924   -4.7256   -1.6097 C   0  0  0  0  0  0  0  0  0  0  0  0
    4.4647   -6.0172   -1.8007 C   0  0  0  0  0  0  0  0  0  0  0  0
    3.6432   -6.9887   -2.3915 C   0  0  0  0  0  0  0  0  0  0  0  0
    4.2258   -8.6801   -2.5690 S   0  0  0  0  0  0  0  0  0  0  0  0
    3.7424   -9.1602   -0.8828 C   0  0  0  0  0  0  0  0  0  0  0  0
    2.3663   -6.6397   -2.8363 C   0  0  0  0  0  0  0  0  0  0  0  0
    1.9054   -5.3268   -2.6922 C   0  0  0  0  0  0  0  0  0  0  0  0
   -0.0084   -2.1757   -2.4613 C   0  0  0  0  0  0  0  0  0  0  0  0
   -1.0221   -2.6818   -1.2375 S   0  0  0  0  0  0  0  0  0  0  0  0
    3.1888   -1.2957   -4.2176 C   0  0  0  0  0  0  0  0  0  0  0  0
    3.5790   -0.4175   -5.2212 C   0  0  0  0  0  0  0  0  0  0  0  0
    4.9749   -0.1646   -5.2611 C   0  0  0  0  0  0  0  0  0  0  0  0
    5.6151    0.7363   -6.2377 C   0  0  0  0  0  0  0  0  0  0  0  0
    6.7524    0.2884   -6.9408 C   0  0  0  0  0  0  0  0  0  0  0  0
    7.4100    1.1589   -7.8014 C   0  0  0  0  0  0  0  0  0  0  0  0
    6.9944    2.4761   -7.9430 C   0  0  0  0  0  0  0  0  0  0  0  0
    5.8771    2.9242   -7.2246 C   0  0  0  0  0  0  0  0  0  0  0  0
    5.1843    2.0549   -6.3736 C   0  0  0  0  0  0  0  0  0  0  0  0
    5.6752   -0.8257   -4.2491 C   0  0  0  0  0  0  0  0  0  0  0  0
    4.5717   -1.7168   -3.3520 S   0  0  0  0  0  0  0  0  0  0  0  0
    6.9794   -0.3979   -3.7339 C   0  0  0  0  0  0  0  0  0  0  0  0
    7.1151    0.3623   -2.6239 C   0  0  0  0  0  0  0  0  0  0  0  0
    5.9985    0.7771   -1.7618 C   0  0  0  0  0  0  0  0  0  0  0  0
    4.8572    1.0868   -2.1581 O   0  0  0  0  0  0  0  0  0  0  0  0
    6.5470    1.2304   -0.5087 C   0  0  0  0  0  0  0  0  0  0  0  0
    5.7820    1.7813    0.5408 C   0  0  0  0  0  0  0  0  0  0  0  0
    6.5338    2.4985    1.4482 C   0  0  0  0  0  0  0  0  0  0  0  0
    7.9419    2.6915    1.3244 C   0  0  0  0  0  0  0  0  0  0  0  0
    8.7035    2.1259    0.3148 C   0  0  0  0  0  0  0  0  0  0  0  0
    7.9530    1.3322   -0.6153 C   0  0  0  0  0  0  0  0  0  0  0  0
    8.3762    0.7875   -1.9421 C   0  0  0  0  0  0  0  0  0  0  0  0
    9.6240    0.8105   -2.4575 C   0  0  0  0  0  0  0  0  0  0  0  0
   10.7868    1.0028   -1.6367 C   0  0  0  0  0  0  0  0  0  0  0  0
   11.7501    1.1494   -1.0080 N   0  0  0  0  0  0  0  0  0  0  0  0
    9.8660    0.7979   -3.8760 C   0  0  0  0  0  0  0  0  0  0  0  0
   10.0804    0.8393   -5.0186 N   0  0  0  0  0  0  0  0  0  0  0  0
    7.9302    3.6913    2.4507 C   0  0  0  0  0  0  0  0  0  0  0  0
    8.0177    5.1977    2.0455 C   0  0  0  0  0  0  0  0  0  0  0  0
    7.5963    5.9716    3.2635 C   0  0  0  0  0  0  0  0  0  0  0  0
    6.2817    5.7746    3.4048 C   0  0  0  0  0  0  0  0  0  0  0  0
    5.8609    4.8621    2.2807 C   0  0  0  0  0  0  0  0  0  0  0  0
    6.7754    5.4008    1.1917 C   0  0  0  0  0  0  0  0  0  0  0  0
    6.4842    3.4628    2.5981 C   0  0  0  0  0  0  0  0  0  0  0  0
   -7.5586   -0.8339    1.8494 H   0  0  0  0  0  0  0  0  0  0  0  0
   -3.1145   -2.0859    6.0766 H   0  0  0  0  0  0  0  0  0  0  0  0
   -7.6008    0.0171    7.2795 H   0  0  0  0  0  0  0  0  0  0  0  0
   -5.5906   -0.4779   10.1146 H   0  0  0  0  0  0  0  0  0  0  0  0
   -5.5600    2.1696    9.2171 H   0  0  0  0  0  0  0  0  0  0  0  0
   -4.0391    2.2609   11.3538 H   0  0  0  0  0  0  0  0  0  0  0  0
   -1.7766    1.1249   10.8076 H   0  0  0  0  0  0  0  0  0  0  0  0
   -1.8349    0.2801    8.3114 H   0  0  0  0  0  0  0  0  0  0  0  0
   -3.1185    2.5921    8.2324 H   0  0  0  0  0  0  0  0  0  0  0  0
   -3.9956    1.4036    7.1823 H   0  0  0  0  0  0  0  0  0  0  0  0
   -3.5154   -1.5412    9.5678 H   0  0  0  0  0  0  0  0  0  0  0  0
   -6.6854   -6.2798    0.4554 H   0  0  0  0  0  0  0  0  0  0  0  0
   -5.4839   -6.6820   -0.8239 H   0  0  0  0  0  0  0  0  0  0  0  0
   -4.8927   -6.4899    2.2239 H   0  0  0  0  0  0  0  0  0  0  0  0
   -3.6851   -6.8982    0.9267 H   0  0  0  0  0  0  0  0  0  0  0  0
   -5.0800   -7.9949    1.2495 H   0  0  0  0  0  0  0  0  0  0  0  0
   -4.2747    4.2301   -0.1983 H   0  0  0  0  0  0  0  0  0  0  0  0
   -5.3664    3.8448    1.1040 H   0  0  0  0  0  0  0  0  0  0  0  0
   -6.1064    2.2088   -1.2688 H   0  0  0  0  0  0  0  0  0  0  0  0
   -5.8934    3.9392   -1.7404 H   0  0  0  0  0  0  0  0  0  0  0  0
   -7.0513    3.5143   -0.4135 H   0  0  0  0  0  0  0  0  0  0  0  0
   -5.1328    0.4198   -2.7811 H   0  0  0  0  0  0  0  0  0  0  0  0
   -6.7357    0.3238   -4.6561 H   0  0  0  0  0  0  0  0  0  0  0  0
   -7.1908    2.2066   -8.6415 H   0  0  0  0  0  0  0  0  0  0  0  0
   -6.9322    2.4793   -6.8799 H   0  0  0  0  0  0  0  0  0  0  0  0
   -5.5083    2.4528   -8.0048 H   0  0  0  0  0  0  0  0  0  0  0  0
   -3.4646    0.3782   -7.4473 H   0  0  0  0  0  0  0  0  0  0  0  0
   -1.8679    0.5516   -5.5814 H   0  0  0  0  0  0  0  0  0  0  0  0
   -0.2226    0.8249   -1.3892 H   0  0  0  0  0  0  0  0  0  0  0  0
    0.5831    2.8863   -0.3914 H   0  0  0  0  0  0  0  0  0  0  0  0
   -0.5039    4.2983    1.6740 H   0  0  0  0  0  0  0  0  0  0  0  0
   -0.8796    6.0444    1.9537 H   0  0  0  0  0  0  0  0  0  0  0  0
   -2.1449    4.9657    1.2477 H   0  0  0  0  0  0  0  0  0  0  0  0
   -2.7479    5.0324   -2.0473 H   0  0  0  0  0  0  0  0  0  0  0  0
   -3.5576    2.9946   -3.1212 H   0  0  0  0  0  0  0  0  0  0  0  0
    1.8798   -4.2872    0.5772 H   0  0  0  0  0  0  0  0  0  0  0  0
    1.8989   -3.2582    2.8081 H   0  0  0  0  0  0  0  0  0  0  0  0
    0.2804    0.5621    4.4812 H   0  0  0  0  0  0  0  0  0  0  0  0
   -0.0924   -0.7856    3.3430 H   0  0  0  0  0  0  0  0  0  0  0  0
    0.5180    0.8044    2.7048 H   0  0  0  0  0  0  0  0  0  0  0  0
    2.7454    0.5705    1.0494 H   0  0  0  0  0  0  0  0  0  0  0  0
    2.7745   -0.4610   -1.1887 H   0  0  0  0  0  0  0  0  0  0  0  0
    4.6114   -3.9952   -1.1162 H   0  0  0  0  0  0  0  0  0  0  0  0
    5.4573   -6.2835   -1.4463 H   0  0  0  0  0  0  0  0  0  0  0  0
    3.8820  -10.2583   -0.7741 H   0  0  0  0  0  0  0  0  0  0  0  0
    2.6718   -8.9024   -0.6908 H   0  0  0  0  0  0  0  0  0  0  0  0
    4.3913   -8.6390   -0.1513 H   0  0  0  0  0  0  0  0  0  0  0  0
    1.7275   -7.3787   -3.3097 H   0  0  0  0  0  0  0  0  0  0  0  0
    0.9092   -5.0808   -3.0270 H   0  0  0  0  0  0  0  0  0  0  0  0
    2.8727    0.0581   -5.8921 H   0  0  0  0  0  0  0  0  0  0  0  0
    7.1232   -0.7219   -6.8006 H   0  0  0  0  0  0  0  0  0  0  0  0
    8.2871    0.8053   -8.3465 H   0  0  0  0  0  0  0  0  0  0  0  0
    7.5205    3.1571   -8.5989 H   0  0  0  0  0  0  0  0  0  0  0  0
    5.5622    3.9595   -7.3159 H   0  0  0  0  0  0  0  0  0  0  0  0
    4.3466    2.4213   -5.7957 H   0  0  0  0  0  0  0  0  0  0  0  0
    7.8342   -0.6957   -4.3057 H   0  0  0  0  0  0  0  0  0  0  0  0
    4.6967    1.8045    0.5523 H   0  0  0  0  0  0  0  0  0  0  0  0
    9.7494    2.3999    0.2189 H   0  0  0  0  0  0  0  0  0  0  0  0
    8.5665    3.3763    3.3156 H   0  0  0  0  0  0  0  0  0  0  0  0
    8.9795    5.5137    1.5828 H   0  0  0  0  0  0  0  0  0  0  0  0
    8.2019    6.6504    3.8530 H   0  0  0  0  0  0  0  0  0  0  0  0
    5.6491    6.2589    4.1331 H   0  0  0  0  0  0  0  0  0  0  0  0
    4.7721    4.8532    2.0631 H   0  0  0  0  0  0  0  0  0  0  0  0
    6.5739    6.4753    0.9581 H   0  0  0  0  0  0  0  0  0  0  0  0
    6.7672    4.8138    0.2433 H   0  0  0  0  0  0  0  0  0  0  0  0
    6.1726    2.9994    3.5689 H   0  0  0  0  0  0  0  0  0  0  0  0
  1  2  2  3
  2  3  1  0
  3  4  2  0
  3  5  1  0
  5  6  2  0
  6  7  1  0
  7  8  2  0
  8  9  1  0
  9 10  2  0
 10 11  1  0
 11 12  2  3
 12 13  1  0
 13 14  3  0
 12 15  1  0
 15 16  3  0
  8 17  1  0
 17 18  1  0
 18 19  1  0
 19 20  2  0
 20 21  1  0
 21 22  1  0
 21 23  1  0
  1 24  1  0
 24 25  2  0
 25 26  1  0
 26 27  2  0
 27 28  1  0
 28 29  1  0
 27 30  1  0
 30 31  1  0
 31 32  2  0
 32 33  1  0
 33 34  2  0
 34 35  1  0
 35 36  1  0
 36 37  1  0
 37 38  1  0
 36 39  2  0
 32 40  1  0
 40 41  2  0
 41 42  1  0
 42 43  1  0
 43 44  2  0
 44 45  1  0
 45 46  2  0
 46 47  1  0
 47 48  1  0
 46 49  1  0
 49 50  2  0
 42 51  1  0
 51 52  2  0
 52 53  1  0
 53 54  2  0
 54 55  1  0
 55 56  1  0
 54 57  1  0
 57 58  2  0
 41 59  1  0
 59 60  1  0
 60 61  1  0
 61 62  2  0
 62 63  1  0
 63 64  1  0
 64 65  2  0
 65 66  1  0
 66 67  2  0
 67 68  1  0
 68 69  1  0
 67 70  1  0
 70 71  2  0
 63 72  1  0
 72 73  2  0
 73 74  1  0
 74 75  2  0
 75 76  1  0
 76 77  1  0
 75 78  1  0
 78 79  2  0
 62 80  1  0
 80 81  1  0
 61 82  1  0
 82 83  2  0
 83 84  1  0
 84 85  1  0
 85 86  2  0
 86 87  1  0
 87 88  2  0
 88 89  1  0
 89 90  2  0
 84 91  2  0
 91 92  1  0
 91 93  1  0
 93 94  2  3
 94 95  1  0
 95 96  2  0
 95 97  1  0
 97 98  2  0
 98 99  1  0
 99100  2  0
100101  1  0
101102  2  0
102103  1  0
103104  2  3
104105  1  0
105106  3  0
104107  1  0
107108  3  0
100109  1  0
109110  1  0
110111  1  0
111112  2  0
112113  1  0
113114  1  0
113115  1  0
 11  2  1  0
 23 17  1  0
 34 24  1  0
 81 40  1  0
 92 82  1  0
103 94  1  0
115109  1  0
 10  5  1  0
 22 18  1  0
 31 25  1  0
 39 33  1  0
 50 43  1  0
 58 51  1  0
 80 59  2  0
 90 85  1  0
102 97  1  0
114110  1  0
 23  7  1  0
 71 64  1  0
 79 72  1  0
115 99  1  0
  1116  1  0
  6117  1  0
  9118  1  0
 17119  1  0
 18120  1  0
 19121  1  0
 20122  1  0
 21123  1  0
 22124  1  0
 22125  1  0
 23126  1  0
 28127  1  0
 28128  1  0
 29129  1  0
 29130  1  0
 29131  1  0
 37132  1  0
 37133  1  0
 38134  1  0
 38135  1  0
 38136  1  0
 44137  1  0
 45138  1  0
 48139  1  0
 48140  1  0
 48141  1  0
 49142  1  0
 50143  1  0
 52144  1  0
 53145  1  0
 56146  1  0
 56147  1  0
 56148  1  0
 57149  1  0
 58150  1  0
 65151  1  0
 66152  1  0
 69153  1  0
 69154  1  0
 69155  1  0
 70156  1  0
 71157  1  0
 73158  1  0
 74159  1  0
 77160  1  0
 77161  1  0
 77162  1  0
 78163  1  0
 79164  1  0
 83165  1  0
 86166  1  0
 87167  1  0
 88168  1  0
 89169  1  0
 90170  1  0
 93171  1  0
 98172  1  0
101173  1  0
109174  1  0
110175  1  0
111176  1  0
112177  1  0
113178  1  0
114179  1  0
114180  1  0
115181  1  0
M  END

