
     RDKit          3D

186206  0  0  0  0  0  0  0  0999 V2000
   -0.6549   -3.8972   -4.5492 C   0  0  0  0  0  0  0  0  0  0  0  0
   -1.5047   -3.9318   -3.3648 C   0  0  0  0  0  0  0  0  0  0  0  0
   -1.1808   -3.3447   -2.1626 C   0  0  0  0  0  0  0  0  0  0  0  0
   -0.2805   -2.4592   -1.8969 O   0  0  0  0  0  0  0  0  0  0  0  0
   -2.0827   -3.9194   -1.1964 C   0  0  0  0  0  0  0  0  0  0  0  0
   -2.1238   -3.7036    0.1758 C   0  0  0  0  0  0  0  0  0  0  0  0
   -3.0553   -4.4654    0.8455 C   0  0  0  0  0  0  0  0  0  0  0  0
   -3.8860   -5.3659    0.2547 C   0  0  0  0  0  0  0  0  0  0  0  0
   -3.7778   -5.5175   -1.1802 C   0  0  0  0  0  0  0  0  0  0  0  0
   -2.8707   -4.7681   -1.8019 C   0  0  0  0  0  0  0  0  0  0  0  0
   -2.5024   -4.8595   -3.5511 C   0  0  0  0  0  0  0  0  0  0  0  0
   -3.7175   -5.3260   -3.7619 C   0  0  0  0  0  0  0  0  0  0  0  0
   -3.6957   -6.8295   -3.8629 C   0  0  0  0  0  0  0  0  0  0  0  0
   -3.6788   -8.0113   -3.9220 N   0  0  0  0  0  0  0  0  0  0  0  0
   -4.8704   -4.5814   -3.8155 C   0  0  0  0  0  0  0  0  0  0  0  0
   -5.8857   -3.9330   -3.8771 N   0  0  0  0  0  0  0  0  0  0  0  0
   -4.4991   -5.8225    1.4929 C   0  0  0  0  0  0  0  0  0  0  0  0
   -3.9019   -7.0687    2.1191 C   0  0  0  0  0  0  0  0  0  0  0  0
   -2.4931   -7.1393    1.6522 C   0  0  0  0  0  0  0  0  0  0  0  0
   -1.7563   -6.2157    2.3153 C   0  0  0  0  0  0  0  0  0  0  0  0
   -2.7353   -5.4360    3.1015 C   0  0  0  0  0  0  0  0  0  0  0  0
   -3.6854   -6.5737    3.5437 C   0  0  0  0  0  0  0  0  0  0  0  0
   -3.6575   -4.7344    2.1724 C   0  0  0  0  0  0  0  0  0  0  0  0
    0.5682   -3.2118   -4.2590 C   0  0  0  0  0  0  0  0  0  0  0  0
    1.2170   -2.1521   -4.7271 C   0  0  0  0  0  0  0  0  0  0  0  0
    0.7889   -1.5245   -5.9628 N   0  0  0  0  0  0  0  0  0  0  0  0
    0.3828   -0.2081   -6.1308 C   0  0  0  0  0  0  0  0  0  0  0  0
    0.8578    0.5332   -7.2167 C   0  0  0  0  0  0  0  0  0  0  0  0
    0.5041    1.8096   -7.4551 C   0  0  0  0  0  0  0  0  0  0  0  0
   -0.3887    2.4654   -6.5962 C   0  0  0  0  0  0  0  0  0  0  0  0
   -0.9216    4.1234   -6.8700 S   0  0  0  0  0  0  0  0  0  0  0  0
    0.2206    5.3384   -6.1436 C   0  0  0  0  0  0  0  0  0  0  0  0
   -0.8512    1.7343   -5.5300 C   0  0  0  0  0  0  0  0  0  0  0  0
   -0.4828    0.4274   -5.2870 C   0  0  0  0  0  0  0  0  0  0  0  0
    0.8217   -2.3875   -7.1379 C   0  0  0  0  0  0  0  0  0  0  0  0
    1.9467   -3.2043   -7.3259 C   0  0  0  0  0  0  0  0  0  0  0  0
    2.0089   -4.0389   -8.4316 C   0  0  0  0  0  0  0  0  0  0  0  0
    0.9881   -4.0685   -9.3421 C   0  0  0  0  0  0  0  0  0  0  0  0
    1.0545   -5.1514  -10.7585 S   0  0  0  0  0  0  0  0  0  0  0  0
    2.6050   -6.1206  -10.7169 C   0  0  0  0  0  0  0  0  0  0  0  0
   -0.1068   -3.2659   -9.1534 C   0  0  0  0  0  0  0  0  0  0  0  0
   -0.1779   -2.4438   -8.0612 C   0  0  0  0  0  0  0  0  0  0  0  0
    2.3759   -1.7960   -4.0677 C   0  0  0  0  0  0  0  0  0  0  0  0
    3.4707   -0.4167   -4.0321 S   0  0  0  0  0  0  0  0  0  0  0  0
    4.3986   -0.8415   -2.6978 C   0  0  0  0  0  0  0  0  0  0  0  0
    3.8953   -2.0413   -2.2867 C   0  0  0  0  0  0  0  0  0  0  0  0
    4.4159   -2.7987   -1.1914 N   0  0  0  0  0  0  0  0  0  0  0  0
    3.7847   -4.0047   -0.7185 C   0  0  0  0  0  0  0  0  0  0  0  0
    3.3987   -4.2469    0.5536 C   0  0  0  0  0  0  0  0  0  0  0  0
    2.9730   -5.5536    0.8860 C   0  0  0  0  0  0  0  0  0  0  0  0
    2.9463   -6.5464   -0.0658 C   0  0  0  0  0  0  0  0  0  0  0  0
    2.4068   -8.1826    0.3550 S   0  0  0  0  0  0  0  0  0  0  0  0
    0.6296   -8.2830    0.0789 C   0  0  0  0  0  0  0  0  0  0  0  0
    3.3422   -6.2800   -1.3526 C   0  0  0  0  0  0  0  0  0  0  0  0
    3.7645   -5.0215   -1.6987 C   0  0  0  0  0  0  0  0  0  0  0  0
    5.7069   -2.6227   -0.6662 C   0  0  0  0  0  0  0  0  0  0  0  0
    6.0659   -2.5116    0.6417 C   0  0  0  0  0  0  0  0  0  0  0  0
    7.4084   -2.5399    1.0466 C   0  0  0  0  0  0  0  0  0  0  0  0
    8.4044   -2.6803    0.1355 C   0  0  0  0  0  0  0  0  0  0  0  0
   10.1489   -2.8670    0.5821 S   0  0  0  0  0  0  0  0  0  0  0  0
   10.5254   -4.6697    0.6389 C   0  0  0  0  0  0  0  0  0  0  0  0
    8.0869   -2.7875   -1.2051 C   0  0  0  0  0  0  0  0  0  0  0  0
    6.7578   -2.7541   -1.6001 C   0  0  0  0  0  0  0  0  0  0  0  0
    2.8097   -2.4822   -3.0562 C   0  0  0  0  0  0  0  0  0  0  0  0
    1.5902   -3.7298   -2.9248 S   0  0  0  0  0  0  0  0  0  0  0  0
    5.1869    0.1005   -1.7158 C   0  0  0  0  0  0  0  0  0  0  0  0
    4.3444    0.8524   -1.1333 C   0  0  0  0  0  0  0  0  0  0  0  0
    3.9744    1.8848   -0.2188 C   0  0  0  0  0  0  0  0  0  0  0  0
    2.6166    1.9688    0.2270 C   0  0  0  0  0  0  0  0  0  0  0  0
    2.3198    2.9643    1.0343 C   0  0  0  0  0  0  0  0  0  0  0  0
    1.0129    3.1790    1.5419 C   0  0  0  0  0  0  0  0  0  0  0  0
   -0.0617    2.2869    1.3012 C   0  0  0  0  0  0  0  0  0  0  0  0
   -0.6470    1.3759    0.6071 C   0  0  0  0  0  0  0  0  0  0  0  0
   -1.5880    0.5073    0.9770 C   0  0  0  0  0  0  0  0  0  0  0  0
   -2.0953    0.4566    2.2161 C   0  0  0  0  0  0  0  0  0  0  0  0
   -3.3205   -0.5487    3.0175 S   0  0  0  0  0  0  0  0  0  0  0  0
   -3.2757   -0.1410    4.8069 C   0  0  0  0  0  0  0  0  0  0  0  0
   -1.9267   -0.6142    5.3465 C   0  0  0  0  0  0  0  0  0  0  0  0
   -1.1344    1.8539    3.0843 Se  0  0  0  0  0  2  0  0  0  0  0  0
    0.8210    4.2834    2.3567 C   0  0  0  0  0  0  0  0  0  0  0  0
    1.7526    5.1973    2.7463 C   0  0  0  0  0  0  0  0  0  0  0  0
    3.0436    4.9534    2.2418 C   0  0  0  0  0  0  0  0  0  0  0  0
    4.1991    5.7670    2.5190 C   0  0  0  0  0  0  0  0  0  0  0  0
    4.5162    7.0001    2.8729 C   0  0  0  0  0  0  0  0  0  0  0  0
    5.7129    7.3930    3.2928 C   0  0  0  0  0  0  0  0  0  0  0  0
    6.7645    6.5846    3.4099 C   0  0  0  0  0  0  0  0  0  0  0  0
    8.4404    6.7116    3.9305 S   0  0  0  0  0  0  0  0  0  0  0  0
    9.1135    5.0061    4.0376 C   0  0  0  0  0  0  0  0  0  0  0  0
    8.3847    4.2559    5.1562 C   0  0  0  0  0  0  0  0  0  0  0  0
    5.9342    4.8840    2.8024 Se  0  0  0  0  0  2  0  0  0  0  0  0
    3.2610    3.8410    1.4026 C   0  0  0  0  0  0  0  0  0  0  0  0
    4.6405    3.2275    0.5648 S   0  0  0  0  0  0  0  0  0  0  0  0
    1.2986    6.2163    3.5274 C   0  0  0  0  0  0  0  0  0  0  0  0
    0.0150    6.2634    3.8546 C   0  0  0  0  0  0  0  0  0  0  0  0
   -0.6274    4.8306    3.0568 S   0  0  0  0  0  0  0  0  0  0  0  0
   -0.9355    7.1625    4.5615 C   0  0  0  0  0  0  0  0  0  0  0  0
   -1.7398    6.4921    5.4014 C   0  0  0  0  0  0  0  0  0  0  0  0
   -1.7481    5.0779    5.7088 C   0  0  0  0  0  0  0  0  0  0  0  0
   -0.7807    4.2624    5.4520 O   0  0  0  0  0  0  0  0  0  0  0  0
   -2.9774    4.6971    6.3578 C   0  0  0  0  0  0  0  0  0  0  0  0
   -3.4040    3.4525    6.7377 C   0  0  0  0  0  0  0  0  0  0  0  0
   -4.6508    3.2539    7.2711 C   0  0  0  0  0  0  0  0  0  0  0  0
   -5.4713    4.3527    7.4213 C   0  0  0  0  0  0  0  0  0  0  0  0
   -5.0251    5.6186    7.0342 C   0  0  0  0  0  0  0  0  0  0  0  0
   -3.7745    5.8237    6.4954 C   0  0  0  0  0  0  0  0  0  0  0  0
   -3.0667    6.9825    5.9204 C   0  0  0  0  0  0  0  0  0  0  0  0
   -3.4720    8.2201    5.8338 C   0  0  0  0  0  0  0  0  0  0  0  0
   -4.8334    8.5384    6.4139 C   0  0  0  0  0  0  0  0  0  0  0  0
   -5.8145    8.7811    6.8447 N   0  0  0  0  0  0  0  0  0  0  0  0
   -2.8676    9.2185    5.2887 C   0  0  0  0  0  0  0  0  0  0  0  0
   -2.2232   10.2562    4.7170 N   0  0  0  0  0  0  0  0  0  0  0  0
   -6.6106    3.5426    7.9655 C   0  0  0  0  0  0  0  0  0  0  0  0
   -7.6958    3.2840    6.9454 C   0  0  0  0  0  0  0  0  0  0  0  0
   -7.0582    3.3343    5.6013 C   0  0  0  0  0  0  0  0  0  0  0  0
   -6.2714    2.2667    5.5013 C   0  0  0  0  0  0  0  0  0  0  0  0
   -6.3571    1.5067    6.7965 C   0  0  0  0  0  0  0  0  0  0  0  0
   -7.8320    1.7760    7.1228 C   0  0  0  0  0  0  0  0  0  0  0  0
   -5.6833    2.3590    7.8228 C   0  0  0  0  0  0  0  0  0  0  0  0
   -0.9700   -4.3105   -5.4086 H   0  0  0  0  0  0  0  0  0  0  0  0
   -1.4755   -3.0102    0.6699 H   0  0  0  0  0  0  0  0  0  0  0  0
   -4.4578   -6.2381   -1.5874 H   0  0  0  0  0  0  0  0  0  0  0  0
   -5.5663   -5.6794    1.5753 H   0  0  0  0  0  0  0  0  0  0  0  0
   -4.4759   -7.9802    2.0582 H   0  0  0  0  0  0  0  0  0  0  0  0
   -2.1494   -7.8292    0.8986 H   0  0  0  0  0  0  0  0  0  0  0  0
   -0.6799   -6.1532    2.2025 H   0  0  0  0  0  0  0  0  0  0  0  0
   -2.3213   -4.8801    3.9315 H   0  0  0  0  0  0  0  0  0  0  0  0
   -4.5811   -6.1948    4.0283 H   0  0  0  0  0  0  0  0  0  0  0  0
   -3.1103   -7.3027    4.1253 H   0  0  0  0  0  0  0  0  0  0  0  0
   -4.2545   -3.9085    2.6126 H   0  0  0  0  0  0  0  0  0  0  0  0
    1.5585    0.0441   -7.8920 H   0  0  0  0  0  0  0  0  0  0  0  0
    0.8623    2.3861   -8.3036 H   0  0  0  0  0  0  0  0  0  0  0  0
    0.8831    4.8361   -5.4434 H   0  0  0  0  0  0  0  0  0  0  0  0
    0.8574    5.7733   -6.9644 H   0  0  0  0  0  0  0  0  0  0  0  0
   -0.2734    6.1564   -5.6336 H   0  0  0  0  0  0  0  0  0  0  0  0
   -1.5334    2.2123   -4.8487 H   0  0  0  0  0  0  0  0  0  0  0  0
   -0.8969   -0.0548   -4.4247 H   0  0  0  0  0  0  0  0  0  0  0  0
    2.7334   -3.1598   -6.6090 H   0  0  0  0  0  0  0  0  0  0  0  0
    2.8721   -4.6575   -8.5919 H   0  0  0  0  0  0  0  0  0  0  0  0
    3.4054   -5.4524  -10.3587 H   0  0  0  0  0  0  0  0  0  0  0  0
    2.7647   -6.4872  -11.7654 H   0  0  0  0  0  0  0  0  0  0  0  0
    2.3879   -6.9762  -10.0191 H   0  0  0  0  0  0  0  0  0  0  0  0
   -0.9199   -3.2780   -9.8876 H   0  0  0  0  0  0  0  0  0  0  0  0
   -1.0544   -1.7995   -7.9244 H   0  0  0  0  0  0  0  0  0  0  0  0
    3.3808   -3.4815    1.2939 H   0  0  0  0  0  0  0  0  0  0  0  0
    2.6738   -5.7232    1.9019 H   0  0  0  0  0  0  0  0  0  0  0  0
    0.3757   -8.8711   -0.8515 H   0  0  0  0  0  0  0  0  0  0  0  0
    0.1460   -8.7664    0.9270 H   0  0  0  0  0  0  0  0  0  0  0  0
    0.1877   -7.2399   -0.0555 H   0  0  0  0  0  0  0  0  0  0  0  0
    3.3140   -7.0944   -2.0674 H   0  0  0  0  0  0  0  0  0  0  0  0
    4.1045   -4.8436   -2.6962 H   0  0  0  0  0  0  0  0  0  0  0  0
    5.2958   -2.3870    1.4053 H   0  0  0  0  0  0  0  0  0  0  0  0
    7.6450   -2.4517    2.1124 H   0  0  0  0  0  0  0  0  0  0  0  0
   11.2012   -4.8612    1.4667 H   0  0  0  0  0  0  0  0  0  0  0  0
    9.5964   -5.2760    0.6196 H   0  0  0  0  0  0  0  0  0  0  0  0
   11.0510   -4.9791   -0.3170 H   0  0  0  0  0  0  0  0  0  0  0  0
    8.8653   -2.8980   -1.9403 H   0  0  0  0  0  0  0  0  0  0  0  0
    6.5164   -2.8499   -2.6534 H   0  0  0  0  0  0  0  0  0  0  0  0
    6.1942   -0.0405   -1.7196 H   0  0  0  0  0  0  0  0  0  0  0  0
    3.2872    0.6591   -1.7882 H   0  0  0  0  0  0  0  0  0  0  0  0
    1.9025    1.1757   -0.1070 H   0  0  0  0  0  0  0  0  0  0  0  0
   -0.2780    1.3178   -0.5093 H   0  0  0  0  0  0  0  0  0  0  0  0
   -2.0441   -0.2487    0.2473 H   0  0  0  0  0  0  0  0  0  0  0  0
   -3.2928    0.9482    4.9537 H   0  0  0  0  0  0  0  0  0  0  0  0
   -4.1142   -0.5968    5.3446 H   0  0  0  0  0  0  0  0  0  0  0  0
   -2.0509   -1.4260    6.0706 H   0  0  0  0  0  0  0  0  0  0  0  0
   -1.3580    0.2561    5.7837 H   0  0  0  0  0  0  0  0  0  0  0  0
   -1.2829   -0.9631    4.5136 H   0  0  0  0  0  0  0  0  0  0  0  0
    3.6706    7.7868    2.7706 H   0  0  0  0  0  0  0  0  0  0  0  0
    5.9023    8.4855    3.5855 H   0  0  0  0  0  0  0  0  0  0  0  0
    8.9170    4.4208    3.1116 H   0  0  0  0  0  0  0  0  0  0  0  0
   10.1888    4.9779    4.2027 H   0  0  0  0  0  0  0  0  0  0  0  0
    9.1111    3.8639    5.8836 H   0  0  0  0  0  0  0  0  0  0  0  0
    7.8335    3.3714    4.7770 H   0  0  0  0  0  0  0  0  0  0  0  0
    7.6361    4.9364    5.6205 H   0  0  0  0  0  0  0  0  0  0  0  0
    1.9837    7.0041    3.9211 H   0  0  0  0  0  0  0  0  0  0  0  0
   -0.9033    8.1769    4.3757 H   0  0  0  0  0  0  0  0  0  0  0  0
   -2.7946    2.5563    6.6302 H   0  0  0  0  0  0  0  0  0  0  0  0
   -5.6932    6.4132    7.1944 H   0  0  0  0  0  0  0  0  0  0  0  0
   -6.9118    3.8303    8.9802 H   0  0  0  0  0  0  0  0  0  0  0  0
   -8.6116    3.8220    7.0447 H   0  0  0  0  0  0  0  0  0  0  0  0
   -7.2160    4.0858    4.8580 H   0  0  0  0  0  0  0  0  0  0  0  0
   -5.6911    2.0209    4.6337 H   0  0  0  0  0  0  0  0  0  0  0  0
   -6.0754    0.4754    6.7554 H   0  0  0  0  0  0  0  0  0  0  0  0
   -8.0859    1.4856    8.1662 H   0  0  0  0  0  0  0  0  0  0  0  0
   -8.5260    1.3173    6.3798 H   0  0  0  0  0  0  0  0  0  0  0  0
   -5.4172    1.8543    8.7716 H   0  0  0  0  0  0  0  0  0  0  0  0
  1  2  2  3
  2  3  1  0
  3  4  2  0
  3  5  1  0
  5  6  2  0
  6  7  1  0
  7  8  2  0
  8  9  1  0
  9 10  2  0
 10 11  1  0
 11 12  2  3
 12 13  1  0
 13 14  3  0
 12 15  1  0
 15 16  3  0
  8 17  1  0
 17 18  1  0
 18 19  1  0
 19 20  2  0
 20 21  1  0
 21 22  1  0
 21 23  1  0
  1 24  1  0
 24 25  2  0
 25 26  1  0
 26 27  1  0
 27 28  2  0
 28 29  1  0
 29 30  2  0
 30 31  1  0
 31 32  1  0
 30 33  1  0
 33 34  2  0
 26 35  1  0
 35 36  2  0
 36 37  1  0
 37 38  2  0
 38 39  1  0
 39 40  1  0
 38 41  1  0
 41 42  2  0
 25 43  1  0
 43 44  1  0
 44 45  1  0
 45 46  2  0
 46 47  1  0
 47 48  1  0
 48 49  2  0
 49 50  1  0
 50 51  2  0
 51 52  1  0
 52 53  1  0
 51 54  1  0
 54 55  2  0
 47 56  1  0
 56 57  2  0
 57 58  1  0
 58 59  2  0
 59 60  1  0
 60 61  1  0
 59 62  1  0
 62 63  2  0
 46 64  1  0
 64 65  1  0
 45 66  1  0
 66 67  2  3
 67 68  1  0
 68 69  2  0
 69 70  1  0
 70 71  2  0
 71 72  1  0
 72 73  2  0
 73 74  1  0
 74 75  2  0
 75 76  1  0
 76 77  1  0
 77 78  1  0
 75 79  1  0
 71 80  1  0
 80 81  2  0
 81 82  1  0
 82 83  1  0
 83 84  2  0
 84 85  1  0
 85 86  2  0
 86 87  1  0
 87 88  1  0
 88 89  1  0
 86 90  1  0
 82 91  2  0
 91 92  1  0
 81 93  1  0
 93 94  2  0
 94 95  1  0
 94 96  1  0
 96 97  2  3
 97 98  1  0
 98 99  2  0
 98100  1  0
100101  2  0
101102  1  0
102103  2  0
103104  1  0
104105  2  0
105106  1  0
106107  2  3
107108  1  0
108109  3  0
107110  1  0
110111  3  0
103112  1  0
112113  1  0
113114  1  0
114115  2  0
115116  1  0
116117  1  0
116118  1  0
 11  2  1  0
 23 17  1  0
 65 24  1  0
 92 68  1  0
106 97  1  0
118112  1  0
 10  5  1  0
 22 18  1  0
 34 27  1  0
 42 35  1  0
 64 43  2  0
 91 70  1  0
105100  1  0
117113  1  0
 23  7  1  0
 55 48  1  0
 63 56  1  0
 79 72  1  0
 95 80  1  0
118102  1  0
 90 83  1  0
  1119  1  0
  6120  1  0
  9121  1  0
 17122  1  0
 18123  1  0
 19124  1  0
 20125  1  0
 21126  1  0
 22127  1  0
 22128  1  0
 23129  1  0
 28130  1  0
 29131  1  0
 32132  1  0
 32133  1  0
 32134  1  0
 33135  1  0
 34136  1  0
 36137  1  0
 37138  1  0
 40139  1  0
 40140  1  0
 40141  1  0
 41142  1  0
 42143  1  0
 49144  1  0
 50145  1  0
 53146  1  0
 53147  1  0
 53148  1  0
 54149  1  0
 55150  1  0
 57151  1  0
 58152  1  0
 61153  1  0
 61154  1  0
 61155  1  0
 62156  1  0
 63157  1  0
 66158  1  0
 67159  1  0
 69160  1  0
 73161  1  0
 74162  1  0
 77163  1  0
 77164  1  0
 78165  1  0
 78166  1  0
 78167  1  0
 84168  1  0
 85169  1  0
 88170  1  0
 88171  1  0
 89172  1  0
 89173  1  0
 89174  1  0
 93175  1  0
 96176  1  0
101177  1  0
104178  1  0
112179  1  0
113180  1  0
114181  1  0
115182  1  0
116183  1  0
117184  1  0
117185  1  0
118186  1  0
M  END

