
     RDKit          3D

199218  0  0  0  0  0  0  0  0999 V2000
    0.6234   -5.4175    2.6033 C   0  0  0  0  0  0  0  0  0  0  0  0
   -0.6769   -5.1476    2.8568 C   0  0  0  0  0  0  0  0  0  0  0  0
   -1.3036   -3.8076    2.8205 C   0  0  0  0  0  0  0  0  0  0  0  0
   -0.8515   -2.7856    2.2435 O   0  0  0  0  0  0  0  0  0  0  0  0
   -2.5775   -3.8547    3.5000 C   0  0  0  0  0  0  0  0  0  0  0  0
   -3.2988   -2.7520    4.0222 C   0  0  0  0  0  0  0  0  0  0  0  0
   -4.2564   -3.1038    4.9574 C   0  0  0  0  0  0  0  0  0  0  0  0
   -4.5253   -4.4586    5.3276 C   0  0  0  0  0  0  0  0  0  0  0  0
   -3.8464   -5.5410    4.7897 C   0  0  0  0  0  0  0  0  0  0  0  0
   -2.8458   -5.2017    3.8408 C   0  0  0  0  0  0  0  0  0  0  0  0
   -1.7392   -6.0646    3.3592 C   0  0  0  0  0  0  0  0  0  0  0  0
   -1.8386   -7.4046    3.1592 C   0  0  0  0  0  0  0  0  0  0  0  0
   -0.6926   -8.2658    3.1064 C   0  0  0  0  0  0  0  0  0  0  0  0
    0.1916   -9.0270    3.1619 N   0  0  0  0  0  0  0  0  0  0  0  0
   -3.1158   -8.0595    3.1796 C   0  0  0  0  0  0  0  0  0  0  0  0
   -4.1744   -8.5473    3.1519 N   0  0  0  0  0  0  0  0  0  0  0  0
   -5.4659   -3.9980    6.3957 C   0  0  0  0  0  0  0  0  0  0  0  0
   -4.9231   -4.0838    7.8584 C   0  0  0  0  0  0  0  0  0  0  0  0
   -5.8489   -3.2339    8.6942 C   0  0  0  0  0  0  0  0  0  0  0  0
   -5.6168   -1.9679    8.3412 C   0  0  0  0  0  0  0  0  0  0  0  0
   -4.5405   -2.0020    7.2828 C   0  0  0  0  0  0  0  0  0  0  0  0
   -3.7210   -3.1564    7.8341 C   0  0  0  0  0  0  0  0  0  0  0  0
   -5.2006   -2.6085    6.0073 C   0  0  0  0  0  0  0  0  0  0  0  0
    1.5754   -4.3464    2.2811 C   0  0  0  0  0  0  0  0  0  0  0  0
    1.8252   -3.9145    0.9733 C   0  0  0  0  0  0  0  0  0  0  0  0
    1.9706   -4.8009   -0.1407 N   0  0  0  0  0  0  0  0  0  0  0  0
    1.0503   -4.6933   -1.2360 C   0  0  0  0  0  0  0  0  0  0  0  0
    1.5085   -4.3623   -2.5223 C   0  0  0  0  0  0  0  0  0  0  0  0
    0.6227   -4.3113   -3.5983 C   0  0  0  0  0  0  0  0  0  0  0  0
   -0.7398   -4.5913   -3.3928 C   0  0  0  0  0  0  0  0  0  0  0  0
   -1.8761   -4.5534   -4.7759 S   0  0  0  0  0  0  0  0  0  0  0  0
   -1.8014   -6.3535   -5.0420 C   0  0  0  0  0  0  0  0  0  0  0  0
   -1.2056   -4.8856   -2.1122 C   0  0  0  0  0  0  0  0  0  0  0  0
   -0.3174   -4.9391   -1.0352 C   0  0  0  0  0  0  0  0  0  0  0  0
    3.1773   -5.5963   -0.2591 C   0  0  0  0  0  0  0  0  0  0  0  0
    4.3746   -5.1978    0.3678 C   0  0  0  0  0  0  0  0  0  0  0  0
    5.5410   -5.9468    0.2224 C   0  0  0  0  0  0  0  0  0  0  0  0
    5.5367   -7.1174   -0.5436 C   0  0  0  0  0  0  0  0  0  0  0  0
    7.0521   -8.0590   -0.7519 S   0  0  0  0  0  0  0  0  0  0  0  0
    7.3598   -7.4559   -2.4415 C   0  0  0  0  0  0  0  0  0  0  0  0
    4.3489   -7.5404   -1.1467 C   0  0  0  0  0  0  0  0  0  0  0  0
    3.1708   -6.7910   -1.0024 C   0  0  0  0  0  0  0  0  0  0  0  0
    2.2261   -2.5808    0.9439 C   0  0  0  0  0  0  0  0  0  0  0  0
    2.4206   -1.4672   -0.2908 S   0  0  0  0  0  0  0  0  0  0  0  0
    2.6573   -0.1450    0.7666 C   0  0  0  0  0  0  0  0  0  0  0  0
    2.5939   -0.6076    2.1042 C   0  0  0  0  0  0  0  0  0  0  0  0
    2.8009    0.2144    3.2712 N   0  0  0  0  0  0  0  0  0  0  0  0
    1.9429    0.0382    4.4264 C   0  0  0  0  0  0  0  0  0  0  0  0
    2.4816    0.0548    5.7324 C   0  0  0  0  0  0  0  0  0  0  0  0
    1.6694   -0.2221    6.8368 C   0  0  0  0  0  0  0  0  0  0  0  0
    0.3225   -0.5457    6.6503 C   0  0  0  0  0  0  0  0  0  0  0  0
   -0.6866   -1.0142    8.0598 S   0  0  0  0  0  0  0  0  0  0  0  0
   -0.0235   -2.7104    8.1140 C   0  0  0  0  0  0  0  0  0  0  0  0
   -0.2301   -0.5300    5.3619 C   0  0  0  0  0  0  0  0  0  0  0  0
    0.5701   -0.2211    4.2619 C   0  0  0  0  0  0  0  0  0  0  0  0
    3.9642    1.0760    3.3381 C   0  0  0  0  0  0  0  0  0  0  0  0
    3.8929    2.3246    3.9824 C   0  0  0  0  0  0  0  0  0  0  0  0
    5.0131    3.1596    4.0306 C   0  0  0  0  0  0  0  0  0  0  0  0
    6.2152    2.7560    3.4478 C   0  0  0  0  0  0  0  0  0  0  0  0
    7.6619    3.8085    3.5609 S   0  0  0  0  0  0  0  0  0  0  0  0
    8.2244    3.0543    5.1161 C   0  0  0  0  0  0  0  0  0  0  0  0
    6.2887    1.5230    2.7907 C   0  0  0  0  0  0  0  0  0  0  0  0
    5.1764    0.6833    2.7454 C   0  0  0  0  0  0  0  0  0  0  0  0
    2.3409   -1.9754    2.1495 C   0  0  0  0  0  0  0  0  0  0  0  0
    1.9244   -3.0696    3.3528 S   0  0  0  0  0  0  0  0  0  0  0  0
    2.6452    1.2719    0.3482 C   0  0  0  0  0  0  0  0  0  0  0  0
    2.9577    1.8068   -0.9093 C   0  0  0  0  0  0  0  0  0  0  0  0
    3.3182    1.0185   -2.1070 C   0  0  0  0  0  0  0  0  0  0  0  0
    4.6309    0.4997   -2.2686 C   0  0  0  0  0  0  0  0  0  0  0  0
    4.9684   -0.1586   -3.4645 C   0  0  0  0  0  0  0  0  0  0  0  0
    4.0312   -0.3191   -4.4872 C   0  0  0  0  0  0  0  0  0  0  0  0
    4.4032   -1.0636   -5.7416 C   0  0  0  0  0  0  0  0  0  0  0  0
    4.2483   -2.5690   -5.5428 C   0  0  0  0  0  0  0  0  0  0  0  0
    2.7273    0.1520   -4.3153 C   0  0  0  0  0  0  0  0  0  0  0  0
    2.3627    0.8454   -3.1521 C   0  0  0  0  0  0  0  0  0  0  0  0
    0.9246    1.3351   -3.0535 C   0  0  0  0  0  0  0  0  0  0  0  0
    0.0442    0.3556   -2.2787 C   0  0  0  0  0  0  0  0  0  0  0  0
    5.7104    0.6455   -1.2124 C   0  0  0  0  0  0  0  0  0  0  0  0
    6.1186   -0.7078   -0.6287 C   0  0  0  0  0  0  0  0  0  0  0  0
    2.7030    3.1826   -1.0041 C   0  0  0  0  0  0  0  0  0  0  0  0
    2.1106    3.7295    0.1254 C   0  0  0  0  0  0  0  0  0  0  0  0
    1.9536    2.5072    1.2660 S   0  0  0  0  0  0  0  0  0  0  0  0
    1.3767    5.0153    0.1142 C   0  0  0  0  0  0  0  0  0  0  0  0
    1.9561    6.1258   -0.5187 C   0  0  0  0  0  0  0  0  0  0  0  0
    3.2842    6.1288   -0.8229 F   0  0  0  0  0  0  0  0  0  0  0  0
    1.1569    7.1782   -0.9595 C   0  0  0  0  0  0  0  0  0  0  0  0
    1.7181    8.1696   -1.7027 F   0  0  0  0  0  0  0  0  0  0  0  0
   -0.2284    7.1477   -0.7737 C   0  0  0  0  0  0  0  0  0  0  0  0
   -0.7984    6.1271    0.0036 C   0  0  0  0  0  0  0  0  0  0  0  0
   -2.1408    6.0750    0.2198 N   0  0  0  0  0  0  0  0  0  0  0  0
   -2.7342    5.0462    0.8900 C   0  0  0  0  0  0  0  0  0  0  0  0
   -4.2249    5.1068    1.0975 C   0  0  0  0  0  0  0  0  0  0  0  0
   -4.5681    5.8205    2.3998 C   0  0  0  0  0  0  0  0  0  0  0  0
   -1.9228    3.9924    1.3710 C   0  0  0  0  0  0  0  0  0  0  0  0
   -0.5914    4.0277    1.1083 N   0  0  0  0  0  0  0  0  0  0  0  0
    0.0048    5.0601    0.4563 C   0  0  0  0  0  0  0  0  0  0  0  0
   -2.4695    2.7737    2.0644 C   0  0  0  0  0  0  0  0  0  0  0  0
   -2.7379    1.6574    1.0604 C   0  0  0  0  0  0  0  0  0  0  0  0
   -1.0784    7.9580   -1.6618 C   0  0  0  0  0  0  0  0  0  0  0  0
   -1.3186    7.5670   -2.9312 C   0  0  0  0  0  0  0  0  0  0  0  0
   -0.9753    6.2415   -3.4917 C   0  0  0  0  0  0  0  0  0  0  0  0
   -0.2838    5.3454   -2.9377 O   0  0  0  0  0  0  0  0  0  0  0  0
   -1.6172    6.0989   -4.7705 C   0  0  0  0  0  0  0  0  0  0  0  0
   -1.5703    4.9673   -5.6157 C   0  0  0  0  0  0  0  0  0  0  0  0
   -2.2915    5.1108   -6.7812 C   0  0  0  0  0  0  0  0  0  0  0  0
   -3.0565    6.2789   -7.0926 C   0  0  0  0  0  0  0  0  0  0  0  0
   -3.1307    7.3778   -6.2492 C   0  0  0  0  0  0  0  0  0  0  0  0
   -2.3394    7.2813   -5.0696 C   0  0  0  0  0  0  0  0  0  0  0  0
   -2.1052    8.2829   -3.9796 C   0  0  0  0  0  0  0  0  0  0  0  0
   -2.2686    9.6256   -4.0833 C   0  0  0  0  0  0  0  0  0  0  0  0
   -1.7670   10.5583   -3.1028 C   0  0  0  0  0  0  0  0  0  0  0  0
   -1.3638   11.3345   -2.3424 N   0  0  0  0  0  0  0  0  0  0  0  0
   -2.8345   10.2492   -5.2564 C   0  0  0  0  0  0  0  0  0  0  0  0
   -3.2742   10.7660   -6.1942 N   0  0  0  0  0  0  0  0  0  0  0  0
   -3.5081    5.6611   -8.3838 C   0  0  0  0  0  0  0  0  0  0  0  0
   -4.9655    5.1112   -8.4703 C   0  0  0  0  0  0  0  0  0  0  0  0
   -5.4195    4.6258   -7.1093 C   0  0  0  0  0  0  0  0  0  0  0  0
   -4.6973    3.5458   -6.8328 C   0  0  0  0  0  0  0  0  0  0  0  0
   -3.7710    3.3228   -8.0072 C   0  0  0  0  0  0  0  0  0  0  0  0
   -4.6937    3.7641   -9.1238 C   0  0  0  0  0  0  0  0  0  0  0  0
   -2.7160    4.4696   -8.0672 C   0  0  0  0  0  0  0  0  0  0  0  0
    1.0128   -6.4141    2.6799 H   0  0  0  0  0  0  0  0  0  0  0  0
   -3.0264   -1.7208    3.8312 H   0  0  0  0  0  0  0  0  0  0  0  0
   -3.9837   -6.5385    5.1811 H   0  0  0  0  0  0  0  0  0  0  0  0
   -6.5101   -4.3360    6.2529 H   0  0  0  0  0  0  0  0  0  0  0  0
   -4.7366   -5.1029    8.2507 H   0  0  0  0  0  0  0  0  0  0  0  0
   -6.4788   -3.5517    9.5172 H   0  0  0  0  0  0  0  0  0  0  0  0
   -6.0311   -1.0875    8.8323 H   0  0  0  0  0  0  0  0  0  0  0  0
   -3.9959   -1.0492    7.1314 H   0  0  0  0  0  0  0  0  0  0  0  0
   -2.9004   -3.4863    7.1698 H   0  0  0  0  0  0  0  0  0  0  0  0
   -3.2971   -2.9512    8.8460 H   0  0  0  0  0  0  0  0  0  0  0  0
   -6.0825   -2.0682    5.6169 H   0  0  0  0  0  0  0  0  0  0  0  0
    2.5529   -4.1357   -2.6832 H   0  0  0  0  0  0  0  0  0  0  0  0
    0.9844   -4.0707   -4.5874 H   0  0  0  0  0  0  0  0  0  0  0  0
   -1.9960   -6.8941   -4.0897 H   0  0  0  0  0  0  0  0  0  0  0  0
   -2.5709   -6.6447   -5.7855 H   0  0  0  0  0  0  0  0  0  0  0  0
   -0.7955   -6.6414   -5.4279 H   0  0  0  0  0  0  0  0  0  0  0  0
   -2.2594   -5.1046   -1.9480 H   0  0  0  0  0  0  0  0  0  0  0  0
   -0.6863   -5.1980   -0.0520 H   0  0  0  0  0  0  0  0  0  0  0  0
    4.4215   -4.2975    0.9631 H   0  0  0  0  0  0  0  0  0  0  0  0
    6.4400   -5.6401    0.7311 H   0  0  0  0  0  0  0  0  0  0  0  0
    7.3456   -6.3481   -2.4755 H   0  0  0  0  0  0  0  0  0  0  0  0
    8.3519   -7.8110   -2.7766 H   0  0  0  0  0  0  0  0  0  0  0  0
    6.5894   -7.8513   -3.1340 H   0  0  0  0  0  0  0  0  0  0  0  0
    4.3267   -8.4534   -1.7282 H   0  0  0  0  0  0  0  0  0  0  0  0
    2.2599   -7.1465   -1.4699 H   0  0  0  0  0  0  0  0  0  0  0  0
    3.5308    0.2370    5.8932 H   0  0  0  0  0  0  0  0  0  0  0  0
    2.0951   -0.2185    7.8309 H   0  0  0  0  0  0  0  0  0  0  0  0
   -0.2168   -3.2337    7.1499 H   0  0  0  0  0  0  0  0  0  0  0  0
    1.0687   -2.6736    8.3013 H   0  0  0  0  0  0  0  0  0  0  0  0
   -0.5186   -3.2860    8.9255 H   0  0  0  0  0  0  0  0  0  0  0  0
   -1.2767   -0.7683    5.2262 H   0  0  0  0  0  0  0  0  0  0  0  0
    0.1247   -0.2221    3.2766 H   0  0  0  0  0  0  0  0  0  0  0  0
    2.9671    2.6660    4.4257 H   0  0  0  0  0  0  0  0  0  0  0  0
    4.9495    4.1204    4.5366 H   0  0  0  0  0  0  0  0  0  0  0  0
    9.1489    3.5637    5.4552 H   0  0  0  0  0  0  0  0  0  0  0  0
    8.4305    1.9728    4.9523 H   0  0  0  0  0  0  0  0  0  0  0  0
    7.4370    3.1641    5.8974 H   0  0  0  0  0  0  0  0  0  0  0  0
    7.2171    1.2107    2.3191 H   0  0  0  0  0  0  0  0  0  0  0  0
    5.2608   -0.2761    2.2518 H   0  0  0  0  0  0  0  0  0  0  0  0
    5.9698   -0.5377   -3.6040 H   0  0  0  0  0  0  0  0  0  0  0  0
    3.7652   -0.7430   -6.5928 H   0  0  0  0  0  0  0  0  0  0  0  0
    5.4582   -0.8411   -6.0183 H   0  0  0  0  0  0  0  0  0  0  0  0
    4.5551   -3.1018   -6.4709 H   0  0  0  0  0  0  0  0  0  0  0  0
    4.8891   -2.9162   -4.7068 H   0  0  0  0  0  0  0  0  0  0  0  0
    3.1872   -2.8177   -5.3202 H   0  0  0  0  0  0  0  0  0  0  0  0
    2.0005   -0.0074   -5.0995 H   0  0  0  0  0  0  0  0  0  0  0  0
    0.4901    1.4621   -4.0696 H   0  0  0  0  0  0  0  0  0  0  0  0
    0.8567    2.3337   -2.5802 H   0  0  0  0  0  0  0  0  0  0  0  0
   -1.0249    0.6609   -2.3681 H   0  0  0  0  0  0  0  0  0  0  0  0
    0.1494   -0.6744   -2.6896 H   0  0  0  0  0  0  0  0  0  0  0  0
    0.3131    0.3608   -1.2003 H   0  0  0  0  0  0  0  0  0  0  0  0
    5.4027    1.3077   -0.3786 H   0  0  0  0  0  0  0  0  0  0  0  0
    6.6022    1.1137   -1.6729 H   0  0  0  0  0  0  0  0  0  0  0  0
    6.9278   -0.5644    0.1188 H   0  0  0  0  0  0  0  0  0  0  0  0
    5.2648   -1.1961   -0.1237 H   0  0  0  0  0  0  0  0  0  0  0  0
    6.4997   -1.3865   -1.4196 H   0  0  0  0  0  0  0  0  0  0  0  0
    2.8125    3.7298   -1.9327 H   0  0  0  0  0  0  0  0  0  0  0  0
   -4.6699    4.0925    1.0813 H   0  0  0  0  0  0  0  0  0  0  0  0
   -4.6849    5.6599    0.2485 H   0  0  0  0  0  0  0  0  0  0  0  0
   -5.6688    5.8872    2.5037 H   0  0  0  0  0  0  0  0  0  0  0  0
   -4.1575    6.8531    2.3938 H   0  0  0  0  0  0  0  0  0  0  0  0
   -4.1588    5.2646    3.2698 H   0  0  0  0  0  0  0  0  0  0  0  0
   -1.7197    2.4058    2.8030 H   0  0  0  0  0  0  0  0  0  0  0  0
   -3.3939    2.9995    2.6331 H   0  0  0  0  0  0  0  0  0  0  0  0
   -3.0032    0.7262    1.5979 H   0  0  0  0  0  0  0  0  0  0  0  0
   -1.8364    1.4676    0.4417 H   0  0  0  0  0  0  0  0  0  0  0  0
   -3.5809    1.9334    0.3921 H   0  0  0  0  0  0  0  0  0  0  0  0
   -1.5173    8.8524   -1.2542 H   0  0  0  0  0  0  0  0  0  0  0  0
   -1.0230    4.0645   -5.3738 H   0  0  0  0  0  0  0  0  0  0  0  0
   -3.7461    8.2195   -6.5127 H   0  0  0  0  0  0  0  0  0  0  0  0
   -3.1564    6.2024   -9.2879 H   0  0  0  0  0  0  0  0  0  0  0  0
   -5.6794    5.7630   -9.0052 H   0  0  0  0  0  0  0  0  0  0  0  0
   -6.2352    5.0227   -6.5125 H   0  0  0  0  0  0  0  0  0  0  0  0
   -4.8249    2.9041   -5.9595 H   0  0  0  0  0  0  0  0  0  0  0  0
   -3.3631    2.2966   -8.0994 H   0  0  0  0  0  0  0  0  0  0  0  0
   -5.6091    3.1294   -9.2263 H   0  0  0  0  0  0  0  0  0  0  0  0
   -4.1847    3.8448  -10.1196 H   0  0  0  0  0  0  0  0  0  0  0  0
   -1.8819    4.2942   -8.7743 H   0  0  0  0  0  0  0  0  0  0  0  0
  1  2  2  3
  2  3  1  0
  3  4  2  0
  3  5  1  0
  5  6  2  0
  6  7  1  0
  7  8  2  0
  8  9  1  0
  9 10  2  0
 10 11  1  0
 11 12  2  3
 12 13  1  0
 13 14  3  0
 12 15  1  0
 15 16  3  0
  8 17  1  0
 17 18  1  0
 18 19  1  0
 19 20  2  0
 20 21  1  0
 21 22  1  0
 21 23  1  0
  1 24  1  0
 24 25  2  0
 25 26  1  0
 26 27  1  0
 27 28  2  0
 28 29  1  0
 29 30  2  0
 30 31  1  0
 31 32  1  0
 30 33  1  0
 33 34  2  0
 26 35  1  0
 35 36  2  0
 36 37  1  0
 37 38  2  0
 38 39  1  0
 39 40  1  0
 38 41  1  0
 41 42  2  0
 25 43  1  0
 43 44  1  0
 44 45  1  0
 45 46  2  0
 46 47  1  0
 47 48  1  0
 48 49  2  0
 49 50  1  0
 50 51  2  0
 51 52  1  0
 52 53  1  0
 51 54  1  0
 54 55  2  0
 47 56  1  0
 56 57  2  0
 57 58  1  0
 58 59  2  0
 59 60  1  0
 60 61  1  0
 59 62  1  0
 62 63  2  0
 46 64  1  0
 64 65  1  0
 45 66  1  0
 66 67  2  0
 67 68  1  0
 68 69  2  0
 69 70  1  0
 70 71  2  0
 71 72  1  0
 72 73  1  0
 71 74  1  0
 74 75  2  0
 75 76  1  0
 76 77  1  0
 69 78  1  0
 78 79  1  0
 67 80  1  0
 80 81  2  0
 81 82  1  0
 81 83  1  0
 83 84  2  0
 84 85  1  0
 84 86  1  0
 86 87  1  0
 86 88  2  0
 88 89  1  0
 89 90  2  0
 90 91  1  0
 91 92  1  0
 92 93  1  0
 91 94  2  0
 94 95  1  0
 95 96  2  0
 94 97  1  0
 97 98  1  0
 88 99  1  0
 99100  2  3
100101  1  0
101102  2  0
101103  1  0
103104  2  0
104105  1  0
105106  2  0
106107  1  0
107108  2  0
108109  1  0
109110  2  3
110111  1  0
111112  3  0
110113  1  0
113114  3  0
106115  1  0
115116  1  0
116117  1  0
117118  2  0
118119  1  0
119120  1  0
119121  1  0
 11  2  1  0
 23 17  1  0
 65 24  1  0
 82 66  1  0
 96 83  1  0
109100  1  0
121115  1  0
 10  5  1  0
 22 18  1  0
 34 27  1  0
 42 35  1  0
 64 43  2  0
 75 68  1  0
 96 89  1  0
108103  1  0
120116  1  0
 23  7  1  0
 55 48  1  0
 63 56  1  0
121105  1  0
  1122  1  0
  6123  1  0
  9124  1  0
 17125  1  0
 18126  1  0
 19127  1  0
 20128  1  0
 21129  1  0
 22130  1  0
 22131  1  0
 23132  1  0
 28133  1  0
 29134  1  0
 32135  1  0
 32136  1  0
 32137  1  0
 33138  1  0
 34139  1  0
 36140  1  0
 37141  1  0
 40142  1  0
 40143  1  0
 40144  1  0
 41145  1  0
 42146  1  0
 49147  1  0
 50148  1  0
 53149  1  0
 53150  1  0
 53151  1  0
 54152  1  0
 55153  1  0
 57154  1  0
 58155  1  0
 61156  1  0
 61157  1  0
 61158  1  0
 62159  1  0
 63160  1  0
 70161  1  0
 72162  1  0
 72163  1  0
 73164  1  0
 73165  1  0
 73166  1  0
 74167  1  0
 76168  1  0
 76169  1  0
 77170  1  0
 77171  1  0
 77172  1  0
 78173  1  0
 78174  1  0
 79175  1  0
 79176  1  0
 79177  1  0
 80178  1  0
 92179  1  0
 92180  1  0
 93181  1  0
 93182  1  0
 93183  1  0
 97184  1  0
 97185  1  0
 98186  1  0
 98187  1  0
 98188  1  0
 99189  1  0
104190  1  0
107191  1  0
115192  1  0
116193  1  0
117194  1  0
118195  1  0
119196  1  0
120197  1  0
120198  1  0
121199  1  0
M  END

