
     RDKit          3D

171189  0  0  0  0  0  0  0  0999 V2000
    1.1460    0.5836    4.5870 C   0  0  0  0  0  0  0  0  0  0  0  0
    1.3087    1.9244    4.6301 C   0  0  0  0  0  0  0  0  0  0  0  0
    2.3116    2.6786    3.8709 C   0  0  0  0  0  0  0  0  0  0  0  0
    3.3810    2.2207    3.3926 O   0  0  0  0  0  0  0  0  0  0  0  0
    1.9668    4.0816    3.8976 C   0  0  0  0  0  0  0  0  0  0  0  0
    2.5823    5.1201    3.1636 C   0  0  0  0  0  0  0  0  0  0  0  0
    1.9496    6.3430    3.2846 C   0  0  0  0  0  0  0  0  0  0  0  0
    0.7791    6.5402    4.0763 C   0  0  0  0  0  0  0  0  0  0  0  0
    0.1781    5.5301    4.8057 C   0  0  0  0  0  0  0  0  0  0  0  0
    0.8276    4.2619    4.7200 C   0  0  0  0  0  0  0  0  0  0  0  0
    0.4233    2.9419    5.2974 C   0  0  0  0  0  0  0  0  0  0  0  0
   -0.5331    2.7374    6.2511 C   0  0  0  0  0  0  0  0  0  0  0  0
   -0.9235    1.4362    6.7283 C   0  0  0  0  0  0  0  0  0  0  0  0
   -1.2614    0.4008    7.1168 N   0  0  0  0  0  0  0  0  0  0  0  0
   -1.2160    3.8161    6.9105 C   0  0  0  0  0  0  0  0  0  0  0  0
   -1.7854    4.6733    7.4437 N   0  0  0  0  0  0  0  0  0  0  0  0
    0.7087    7.9781    3.6515 C   0  0  0  0  0  0  0  0  0  0  0  0
   -0.3718    8.3844    2.6019 C   0  0  0  0  0  0  0  0  0  0  0  0
   -0.6556    7.2263    1.6759 C   0  0  0  0  0  0  0  0  0  0  0  0
    0.4430    7.0475    0.9410 C   0  0  0  0  0  0  0  0  0  0  0  0
    1.4378    8.0920    1.3932 C   0  0  0  0  0  0  0  0  0  0  0  0
    0.4773    9.2299    1.6737 C   0  0  0  0  0  0  0  0  0  0  0  0
    1.9151    7.7804    2.8459 C   0  0  0  0  0  0  0  0  0  0  0  0
    1.6146   -0.2887    3.4866 C   0  0  0  0  0  0  0  0  0  0  0  0
    1.5137   -1.6930    3.5027 C   0  0  0  0  0  0  0  0  0  0  0  0
    1.5339   -2.4832    4.7019 N   0  0  0  0  0  0  0  0  0  0  0  0
    2.8051   -3.0289    5.1259 C   0  0  0  0  0  0  0  0  0  0  0  0
    3.9773   -2.2520    5.0236 C   0  0  0  0  0  0  0  0  0  0  0  0
    5.2152   -2.7885    5.3716 C   0  0  0  0  0  0  0  0  0  0  0  0
    5.3045   -4.1000    5.8451 C   0  0  0  0  0  0  0  0  0  0  0  0
    6.9011   -4.7918    6.2754 S   0  0  0  0  0  0  0  0  0  0  0  0
    6.8843   -4.0985    7.9564 C   0  0  0  0  0  0  0  0  0  0  0  0
    4.1452   -4.8818    5.9566 C   0  0  0  0  0  0  0  0  0  0  0  0
    2.9020   -4.3525    5.5909 C   0  0  0  0  0  0  0  0  0  0  0  0
    0.3093   -2.7579    5.4151 C   0  0  0  0  0  0  0  0  0  0  0  0
    0.3200   -2.9285    6.8108 C   0  0  0  0  0  0  0  0  0  0  0  0
   -0.8582   -3.2331    7.5000 C   0  0  0  0  0  0  0  0  0  0  0  0
   -2.0687   -3.3394    6.8079 C   0  0  0  0  0  0  0  0  0  0  0  0
   -3.5750   -3.7489    7.6911 S   0  0  0  0  0  0  0  0  0  0  0  0
   -3.9945   -2.0083    8.0018 C   0  0  0  0  0  0  0  0  0  0  0  0
   -2.0969   -3.1480    5.4247 C   0  0  0  0  0  0  0  0  0  0  0  0
   -0.9187   -2.8519    4.7299 C   0  0  0  0  0  0  0  0  0  0  0  0
    1.6468   -2.2397    2.2301 C   0  0  0  0  0  0  0  0  0  0  0  0
    1.3474   -3.7485    1.5505 S   0  0  0  0  0  0  0  0  0  0  0  0
    1.5998   -3.2136   -0.0561 C   0  0  0  0  0  0  0  0  0  0  0  0
    1.9294   -1.8433   -0.0352 C   0  0  0  0  0  0  0  0  0  0  0  0
    2.6650   -1.1918   -1.0811 N   0  0  0  0  0  0  0  0  0  0  0  0
    4.0621   -0.9101   -0.8578 C   0  0  0  0  0  0  0  0  0  0  0  0
    4.9046   -1.8811   -0.2878 C   0  0  0  0  0  0  0  0  0  0  0  0
    6.2443   -1.5864   -0.0101 C   0  0  0  0  0  0  0  0  0  0  0  0
    6.7540   -0.3193   -0.3012 C   0  0  0  0  0  0  0  0  0  0  0  0
    8.4672    0.0644    0.0667 S   0  0  0  0  0  0  0  0  0  0  0  0
    8.0937    0.6941    1.7324 C   0  0  0  0  0  0  0  0  0  0  0  0
    5.9298    0.6483   -0.8876 C   0  0  0  0  0  0  0  0  0  0  0  0
    4.5930    0.3568   -1.1625 C   0  0  0  0  0  0  0  0  0  0  0  0
    2.0137   -0.6911   -2.2607 C   0  0  0  0  0  0  0  0  0  0  0  0
    0.9024    0.1613   -2.1561 C   0  0  0  0  0  0  0  0  0  0  0  0
    0.3897    0.7849   -3.3010 C   0  0  0  0  0  0  0  0  0  0  0  0
    0.9727    0.5490   -4.5507 C   0  0  0  0  0  0  0  0  0  0  0  0
    0.4030    1.4501   -5.9952 S   0  0  0  0  0  0  0  0  0  0  0  0
    1.8234    2.5905   -6.0009 C   0  0  0  0  0  0  0  0  0  0  0  0
    2.0388   -0.3483   -4.6629 C   0  0  0  0  0  0  0  0  0  0  0  0
    2.5659   -0.9538   -3.5215 C   0  0  0  0  0  0  0  0  0  0  0  0
    1.9035   -1.3448    1.2539 C   0  0  0  0  0  0  0  0  0  0  0  0
    1.8914    0.2038    1.8753 S   0  0  0  0  0  0  0  0  0  0  0  0
    0.9399   -3.8342   -1.2076 C   0  0  0  0  0  0  0  0  0  0  0  0
    1.1143   -5.1071   -1.7432 C   0  0  0  0  0  0  0  0  0  0  0  0
    0.3044   -5.3378   -2.8735 C   0  0  0  0  0  0  0  0  0  0  0  0
    0.3844   -6.8029   -3.8301 Cl  0  0  0  0  0  0  0  0  0  0  0  0
   -0.5409   -4.2681   -3.1694 C   0  0  0  0  0  0  0  0  0  0  0  0
   -0.2562   -3.0512   -2.0675 S   0  0  0  0  0  0  0  0  0  0  0  0
   -1.3727   -4.0277   -4.3558 C   0  0  0  0  0  0  0  0  0  0  0  0
   -0.9219   -3.0540   -5.2539 C   0  0  0  0  0  0  0  0  0  0  0  0
    0.4024   -2.7851   -5.3471 F   0  0  0  0  0  0  0  0  0  0  0  0
   -1.8315   -2.2351   -5.9189 C   0  0  0  0  0  0  0  0  0  0  0  0
   -1.3334   -1.2441   -6.6904 F   0  0  0  0  0  0  0  0  0  0  0  0
   -3.2193   -2.3981   -5.7232 C   0  0  0  0  0  0  0  0  0  0  0  0
   -3.6550   -3.5636   -5.0488 C   0  0  0  0  0  0  0  0  0  0  0  0
   -4.9735   -3.8897   -4.9927 N   0  0  0  0  0  0  0  0  0  0  0  0
   -5.4324   -4.9529   -4.2760 C   0  0  0  0  0  0  0  0  0  0  0  0
   -6.9148   -5.2208   -4.2798 C   0  0  0  0  0  0  0  0  0  0  0  0
   -7.6144   -4.4119   -3.1924 C   0  0  0  0  0  0  0  0  0  0  0  0
   -4.5093   -5.7064   -3.5082 C   0  0  0  0  0  0  0  0  0  0  0  0
   -3.1903   -5.3776   -3.5648 N   0  0  0  0  0  0  0  0  0  0  0  0
   -2.7337   -4.3575   -4.3365 C   0  0  0  0  0  0  0  0  0  0  0  0
   -4.9114   -6.8962   -2.6693 C   0  0  0  0  0  0  0  0  0  0  0  0
   -4.8101   -8.1833   -3.4802 C   0  0  0  0  0  0  0  0  0  0  0  0
   -4.1946   -1.2861   -5.9609 C   0  0  0  0  0  0  0  0  0  0  0  0
   -3.8462   -0.0173   -5.6800 C   0  0  0  0  0  0  0  0  0  0  0  0
   -3.1930    0.8649   -6.6509 C   0  0  0  0  0  0  0  0  0  0  0  0
   -2.7794    0.5315   -7.7942 O   0  0  0  0  0  0  0  0  0  0  0  0
   -3.2798    2.2312   -6.1814 C   0  0  0  0  0  0  0  0  0  0  0  0
   -2.5705    3.3462   -6.6831 C   0  0  0  0  0  0  0  0  0  0  0  0
   -2.7166    4.4894   -5.9202 C   0  0  0  0  0  0  0  0  0  0  0  0
   -3.5390    4.5505   -4.7490 C   0  0  0  0  0  0  0  0  0  0  0  0
   -4.2375    3.4646   -4.2581 C   0  0  0  0  0  0  0  0  0  0  0  0
   -4.0939    2.2698   -5.0232 C   0  0  0  0  0  0  0  0  0  0  0  0
   -4.5151    0.8812   -4.6891 C   0  0  0  0  0  0  0  0  0  0  0  0
   -5.2159    0.4912   -3.5962 C   0  0  0  0  0  0  0  0  0  0  0  0
   -6.0016    1.4056   -2.8054 C   0  0  0  0  0  0  0  0  0  0  0  0
   -6.6476    2.1242   -2.1688 N   0  0  0  0  0  0  0  0  0  0  0  0
   -5.1609   -0.8599   -3.1049 C   0  0  0  0  0  0  0  0  0  0  0  0
   -5.1000   -1.9320   -2.6793 N   0  0  0  0  0  0  0  0  0  0  0  0
   -3.1458    5.9791   -4.5226 C   0  0  0  0  0  0  0  0  0  0  0  0
   -2.1538    6.2835   -3.3582 C   0  0  0  0  0  0  0  0  0  0  0  0
   -1.2495    5.0946   -3.1325 C   0  0  0  0  0  0  0  0  0  0  0  0
   -0.4650    5.0072   -4.2073 C   0  0  0  0  0  0  0  0  0  0  0  0
   -0.8527    6.1472   -5.1229 C   0  0  0  0  0  0  0  0  0  0  0  0
   -1.1730    7.1962   -4.0758 C   0  0  0  0  0  0  0  0  0  0  0  0
   -2.2810    5.9078   -5.7068 C   0  0  0  0  0  0  0  0  0  0  0  0
    0.4902    0.0887    5.2715 H   0  0  0  0  0  0  0  0  0  0  0  0
    3.4415    4.9671    2.5230 H   0  0  0  0  0  0  0  0  0  0  0  0
   -0.7403    5.7184    5.3273 H   0  0  0  0  0  0  0  0  0  0  0  0
    0.8413    8.7005    4.4891 H   0  0  0  0  0  0  0  0  0  0  0  0
   -1.2679    8.8842    3.0198 H   0  0  0  0  0  0  0  0  0  0  0  0
   -1.5915    6.6936    1.5611 H   0  0  0  0  0  0  0  0  0  0  0  0
    0.5507    6.3440    0.1200 H   0  0  0  0  0  0  0  0  0  0  0  0
    2.2442    8.3168    0.6627 H   0  0  0  0  0  0  0  0  0  0  0  0
   -0.0737    9.5806    0.7650 H   0  0  0  0  0  0  0  0  0  0  0  0
    0.9516   10.1059    2.1745 H   0  0  0  0  0  0  0  0  0  0  0  0
    2.7866    8.3800    3.1917 H   0  0  0  0  0  0  0  0  0  0  0  0
    3.9326   -1.2264    4.6765 H   0  0  0  0  0  0  0  0  0  0  0  0
    6.1075   -2.1806    5.2777 H   0  0  0  0  0  0  0  0  0  0  0  0
    7.8048   -4.4167    8.4878 H   0  0  0  0  0  0  0  0  0  0  0  0
    6.8629   -2.9896    7.9086 H   0  0  0  0  0  0  0  0  0  0  0  0
    5.9983   -4.4690    8.5147 H   0  0  0  0  0  0  0  0  0  0  0  0
    4.2099   -5.9013    6.3146 H   0  0  0  0  0  0  0  0  0  0  0  0
    2.0218   -4.9808    5.6478 H   0  0  0  0  0  0  0  0  0  0  0  0
    1.2427   -2.8370    7.3712 H   0  0  0  0  0  0  0  0  0  0  0  0
   -0.8335   -3.3670    8.5734 H   0  0  0  0  0  0  0  0  0  0  0  0
   -3.1969   -1.5175    8.5988 H   0  0  0  0  0  0  0  0  0  0  0  0
   -4.1282   -1.4673    7.0426 H   0  0  0  0  0  0  0  0  0  0  0  0
   -4.9447   -1.9627    8.5715 H   0  0  0  0  0  0  0  0  0  0  0  0
   -3.0292   -3.2266    4.8812 H   0  0  0  0  0  0  0  0  0  0  0  0
   -0.9645   -2.7201    3.6576 H   0  0  0  0  0  0  0  0  0  0  0  0
    4.5265   -2.8657   -0.0557 H   0  0  0  0  0  0  0  0  0  0  0  0
    6.8772   -2.3427    0.4342 H   0  0  0  0  0  0  0  0  0  0  0  0
    7.6817   -0.1175    2.3670 H   0  0  0  0  0  0  0  0  0  0  0  0
    7.3637    1.5263    1.6763 H   0  0  0  0  0  0  0  0  0  0  0  0
    9.0276    1.0727    2.1947 H   0  0  0  0  0  0  0  0  0  0  0  0
    6.3223    1.6314   -1.1192 H   0  0  0  0  0  0  0  0  0  0  0  0
    3.9617    1.1290   -1.5871 H   0  0  0  0  0  0  0  0  0  0  0  0
    0.4631    0.3728   -1.1903 H   0  0  0  0  0  0  0  0  0  0  0  0
   -0.4435    1.4706   -3.2079 H   0  0  0  0  0  0  0  0  0  0  0  0
    2.1165    2.8813   -4.9699 H   0  0  0  0  0  0  0  0  0  0  0  0
    1.5561    3.5012   -6.5729 H   0  0  0  0  0  0  0  0  0  0  0  0
    2.6903    2.0921   -6.4883 H   0  0  0  0  0  0  0  0  0  0  0  0
    2.4940   -0.5327   -5.6254 H   0  0  0  0  0  0  0  0  0  0  0  0
    3.4205   -1.6135   -3.6151 H   0  0  0  0  0  0  0  0  0  0  0  0
    1.8343   -5.8220   -1.3628 H   0  0  0  0  0  0  0  0  0  0  0  0
   -7.1363   -6.2971   -4.1492 H   0  0  0  0  0  0  0  0  0  0  0  0
   -7.3399   -4.9203   -5.2649 H   0  0  0  0  0  0  0  0  0  0  0  0
   -7.1934   -4.6547   -2.1901 H   0  0  0  0  0  0  0  0  0  0  0  0
   -8.6990   -4.6507   -3.1908 H   0  0  0  0  0  0  0  0  0  0  0  0
   -7.4902   -3.3245   -3.3841 H   0  0  0  0  0  0  0  0  0  0  0  0
   -4.2250   -6.9684   -1.7992 H   0  0  0  0  0  0  0  0  0  0  0  0
   -5.9365   -6.7844   -2.2528 H   0  0  0  0  0  0  0  0  0  0  0  0
   -5.0536   -9.0548   -2.8356 H   0  0  0  0  0  0  0  0  0  0  0  0
   -5.5166   -8.1546   -4.3393 H   0  0  0  0  0  0  0  0  0  0  0  0
   -3.7791   -8.3013   -3.8724 H   0  0  0  0  0  0  0  0  0  0  0  0
   -5.2195   -1.5380   -5.7151 H   0  0  0  0  0  0  0  0  0  0  0  0
   -1.9094    3.3005   -7.5395 H   0  0  0  0  0  0  0  0  0  0  0  0
   -4.7720    3.5410   -3.3247 H   0  0  0  0  0  0  0  0  0  0  0  0
   -3.9886    6.6999   -4.6228 H   0  0  0  0  0  0  0  0  0  0  0  0
   -2.6128    6.7039   -2.4372 H   0  0  0  0  0  0  0  0  0  0  0  0
   -1.1847    4.4750   -2.2439 H   0  0  0  0  0  0  0  0  0  0  0  0
    0.3536    4.3105   -4.3294 H   0  0  0  0  0  0  0  0  0  0  0  0
   -0.0834    6.4334   -5.8672 H   0  0  0  0  0  0  0  0  0  0  0  0
   -1.6473    8.1134   -4.4921 H   0  0  0  0  0  0  0  0  0  0  0  0
   -0.2942    7.4812   -3.4514 H   0  0  0  0  0  0  0  0  0  0  0  0
   -2.5790    6.6012   -6.5234 H   0  0  0  0  0  0  0  0  0  0  0  0
  1  2  2  3
  2  3  1  0
  3  4  2  0
  3  5  1  0
  5  6  2  0
  6  7  1  0
  7  8  2  0
  8  9  1  0
  9 10  2  0
 10 11  1  0
 11 12  2  3
 12 13  1  0
 13 14  3  0
 12 15  1  0
 15 16  3  0
  8 17  1  0
 17 18  1  0
 18 19  1  0
 19 20  2  0
 20 21  1  0
 21 22  1  0
 21 23  1  0
  1 24  1  0
 24 25  2  0
 25 26  1  0
 26 27  1  0
 27 28  2  0
 28 29  1  0
 29 30  2  0
 30 31  1  0
 31 32  1  0
 30 33  1  0
 33 34  2  0
 26 35  1  0
 35 36  2  0
 36 37  1  0
 37 38  2  0
 38 39  1  0
 39 40  1  0
 38 41  1  0
 41 42  2  0
 25 43  1  0
 43 44  1  0
 44 45  1  0
 45 46  2  0
 46 47  1  0
 47 48  1  0
 48 49  2  0
 49 50  1  0
 50 51  2  0
 51 52  1  0
 52 53  1  0
 51 54  1  0
 54 55  2  0
 47 56  1  0
 56 57  2  0
 57 58  1  0
 58 59  2  0
 59 60  1  0
 60 61  1  0
 59 62  1  0
 62 63  2  0
 46 64  1  0
 64 65  1  0
 45 66  1  0
 66 67  2  0
 67 68  1  0
 68 69  1  0
 68 70  2  0
 70 71  1  0
 70 72  1  0
 72 73  2  0
 73 74  1  0
 73 75  1  0
 75 76  1  0
 75 77  2  0
 77 78  1  0
 78 79  2  0
 79 80  1  0
 80 81  1  0
 81 82  1  0
 80 83  2  0
 83 84  1  0
 84 85  2  0
 83 86  1  0
 86 87  1  0
 77 88  1  0
 88 89  2  3
 89 90  1  0
 90 91  2  0
 90 92  1  0
 92 93  2  0
 93 94  1  0
 94 95  2  0
 95 96  1  0
 96 97  2  0
 97 98  1  0
 98 99  2  3
 99100  1  0
100101  3  0
 99102  1  0
102103  3  0
 95104  1  0
104105  1  0
105106  1  0
106107  2  0
107108  1  0
108109  1  0
108110  1  0
 11  2  1  0
 23 17  1  0
 65 24  1  0
 71 66  1  0
 85 72  1  0
 98 89  1  0
110104  1  0
 10  5  1  0
 22 18  1  0
 34 27  1  0
 42 35  1  0
 64 43  2  0
 85 78  1  0
 97 92  1  0
109105  1  0
 23  7  1  0
 55 48  1  0
 63 56  1  0
110 94  1  0
  1111  1  0
  6112  1  0
  9113  1  0
 17114  1  0
 18115  1  0
 19116  1  0
 20117  1  0
 21118  1  0
 22119  1  0
 22120  1  0
 23121  1  0
 28122  1  0
 29123  1  0
 32124  1  0
 32125  1  0
 32126  1  0
 33127  1  0
 34128  1  0
 36129  1  0
 37130  1  0
 40131  1  0
 40132  1  0
 40133  1  0
 41134  1  0
 42135  1  0
 49136  1  0
 50137  1  0
 53138  1  0
 53139  1  0
 53140  1  0
 54141  1  0
 55142  1  0
 57143  1  0
 58144  1  0
 61145  1  0
 61146  1  0
 61147  1  0
 62148  1  0
 63149  1  0
 67150  1  0
 81151  1  0
 81152  1  0
 82153  1  0
 82154  1  0
 82155  1  0
 86156  1  0
 86157  1  0
 87158  1  0
 87159  1  0
 87160  1  0
 88161  1  0
 93162  1  0
 96163  1  0
104164  1  0
105165  1  0
106166  1  0
107167  1  0
108168  1  0
109169  1  0
109170  1  0
110171  1  0
M  END

