
     RDKit          3D

122138  0  0  0  0  0  0  0  0999 V2000
    0.7816   -1.3133   -9.0388 C   0  0  0  0  0  0  0  0  0  0  0  0
    0.5182   -0.0851   -9.5309 C   0  0  0  0  0  0  0  0  0  0  0  0
    0.4256    1.1502   -8.7394 C   0  0  0  0  0  0  0  0  0  0  0  0
    0.8798    1.3307   -7.5784 O   0  0  0  0  0  0  0  0  0  0  0  0
   -0.3561    2.1174   -9.4788 C   0  0  0  0  0  0  0  0  0  0  0  0
   -0.7243    3.4149   -9.0541 C   0  0  0  0  0  0  0  0  0  0  0  0
   -1.5364    4.0866   -9.9492 C   0  0  0  0  0  0  0  0  0  0  0  0
   -1.9573    3.5248  -11.1957 C   0  0  0  0  0  0  0  0  0  0  0  0
   -1.5773    2.2666  -11.6304 C   0  0  0  0  0  0  0  0  0  0  0  0
   -0.7437    1.5533  -10.7226 C   0  0  0  0  0  0  0  0  0  0  0  0
   -0.1313    0.1970  -10.8495 C   0  0  0  0  0  0  0  0  0  0  0  0
   -0.0666   -0.5766  -11.9632 C   0  0  0  0  0  0  0  0  0  0  0  0
    0.8316   -1.6969  -12.0740 C   0  0  0  0  0  0  0  0  0  0  0  0
    1.5552   -2.5958  -12.1676 N   0  0  0  0  0  0  0  0  0  0  0  0
   -0.9105   -0.3527  -13.1092 C   0  0  0  0  0  0  0  0  0  0  0  0
   -1.6101   -0.2009  -14.0240 N   0  0  0  0  0  0  0  0  0  0  0  0
   -2.7365    4.7662  -11.5154 C   0  0  0  0  0  0  0  0  0  0  0  0
   -2.1576    5.7455  -12.5816 C   0  0  0  0  0  0  0  0  0  0  0  0
   -0.6478    5.6798  -12.5807 C   0  0  0  0  0  0  0  0  0  0  0  0
   -0.2478    6.2058  -11.4224 C   0  0  0  0  0  0  0  0  0  0  0  0
   -1.4964    6.6094  -10.6759 C   0  0  0  0  0  0  0  0  0  0  0  0
   -2.3394    7.0639  -11.8549 C   0  0  0  0  0  0  0  0  0  0  0  0
   -2.3007    5.3453  -10.2424 C   0  0  0  0  0  0  0  0  0  0  0  0
    1.0653   -1.5817   -7.6173 C   0  0  0  0  0  0  0  0  0  0  0  0
    2.2583   -1.1740   -7.0013 C   0  0  0  0  0  0  0  0  0  0  0  0
    2.4997   -1.4411   -5.6298 C   0  0  0  0  0  0  0  0  0  0  0  0
    3.7528   -0.9367   -5.1350 N   0  0  0  0  0  0  0  0  0  0  0  0
    4.3200   -0.2435   -6.4492 S   0  0  0  0  0  4  0  0  0  0  0  0
    3.2907   -0.4320   -7.6604 N   0  0  0  0  0  0  0  0  0  0  0  0
    1.5617   -2.1239   -4.8394 C   0  0  0  0  0  0  0  0  0  0  0  0
    0.3772   -2.5655   -5.4604 C   0  0  0  0  0  0  0  0  0  0  0  0
   -0.5642   -3.2935   -4.8060 N   0  0  0  0  0  0  0  0  0  0  0  0
   -1.6519   -3.5430   -6.0302 S   0  0  0  0  0  0  0  0  0  0  0  0
   -1.0171   -2.8005   -7.3642 N   0  0  0  0  0  0  0  0  0  0  0  0
    0.1469   -2.3146   -6.8485 C   0  0  0  0  0  0  0  0  0  0  0  0
    1.7725   -2.3429   -3.3988 C   0  0  0  0  0  0  0  0  0  0  0  0
    0.6146   -2.0149   -2.2155 S   0  0  0  0  0  0  0  0  0  0  0  0
    1.4962   -2.7098   -0.9770 C   0  0  0  0  0  0  0  0  0  0  0  0
    1.1195   -2.8621    0.4155 C   0  0  0  0  0  0  0  0  0  0  0  0
    2.0245   -3.3933    1.2913 C   0  0  0  0  0  0  0  0  0  0  0  0
    3.2854   -3.8133    0.8501 O   0  0  0  0  0  0  0  0  0  0  0  0
    3.5503   -4.1394   -0.5355 C   0  0  0  0  0  0  0  0  0  0  0  0
    3.0970   -5.6121   -0.7631 C   0  0  0  0  0  0  0  0  0  0  0  0
    3.6115   -6.5899    0.2971 C   0  0  0  0  0  0  0  0  0  0  0  0
    5.0766   -3.9103   -0.7697 C   0  0  0  0  0  0  0  0  0  0  0  0
    5.7593   -4.7705   -1.8488 C   0  0  0  0  0  0  0  0  0  0  0  0
    2.6934   -3.2351   -1.4462 C   0  0  0  0  0  0  0  0  0  0  0  0
    2.8465   -3.0254   -2.8286 C   0  0  0  0  0  0  0  0  0  0  0  0
    1.5595   -3.4771    2.6005 C   0  0  0  0  0  0  0  0  0  0  0  0
    0.2333   -3.0510    2.7140 C   0  0  0  0  0  0  0  0  0  0  0  0
   -0.3281   -2.5359    1.2036 S   0  0  0  0  0  0  0  0  0  0  0  0
   -0.5370   -3.0566    3.9613 C   0  0  0  0  0  0  0  0  0  0  0  0
   -1.9180   -2.9397    4.0922 C   0  0  0  0  0  0  0  0  0  0  0  0
   -2.3675   -3.0458    5.4223 C   0  0  0  0  0  0  0  0  0  0  0  0
   -4.1121   -3.0204    5.8515 S   0  0  0  0  0  0  0  0  0  0  0  0
   -4.3296   -1.2128    5.6731 C   0  0  0  0  0  0  0  0  0  0  0  0
   -5.4227   -0.9083    4.6609 C   0  0  0  0  0  0  0  0  0  0  0  0
   -1.3296   -3.2210    6.3315 C   0  0  0  0  0  0  0  0  0  0  0  0
    0.1207   -3.3021    5.4883 S   0  0  0  0  0  0  0  0  0  0  0  0
   -1.4095   -3.5763    7.7469 C   0  0  0  0  0  0  0  0  0  0  0  0
   -1.2599   -2.6582    8.7148 C   0  0  0  0  0  0  0  0  0  0  0  0
   -1.6609   -1.2543    8.6441 C   0  0  0  0  0  0  0  0  0  0  0  0
   -2.0170   -0.6335    7.6112 O   0  0  0  0  0  0  0  0  0  0  0  0
   -1.5168   -0.6642    9.9608 C   0  0  0  0  0  0  0  0  0  0  0  0
   -1.7009    0.7003   10.2999 C   0  0  0  0  0  0  0  0  0  0  0  0
   -1.2039    1.0340   11.5464 C   0  0  0  0  0  0  0  0  0  0  0  0
   -0.5574    0.0901   12.4117 C   0  0  0  0  0  0  0  0  0  0  0  0
   -0.4305   -1.2552   12.1118 C   0  0  0  0  0  0  0  0  0  0  0  0
   -0.9536   -1.6323   10.8403 C   0  0  0  0  0  0  0  0  0  0  0  0
   -0.7637   -2.9141   10.0953 C   0  0  0  0  0  0  0  0  0  0  0  0
    0.0978   -3.8968   10.4390 C   0  0  0  0  0  0  0  0  0  0  0  0
    0.3974   -4.2197   11.8080 C   0  0  0  0  0  0  0  0  0  0  0  0
    0.6663   -4.4873   12.9051 N   0  0  0  0  0  0  0  0  0  0  0  0
    0.9386   -4.5228    9.4485 C   0  0  0  0  0  0  0  0  0  0  0  0
    1.6593   -4.9733    8.6663 N   0  0  0  0  0  0  0  0  0  0  0  0
   -0.1747    1.1882   13.3521 C   0  0  0  0  0  0  0  0  0  0  0  0
    1.3116    1.6659   13.2860 C   0  0  0  0  0  0  0  0  0  0  0  0
    1.3516    2.9764   14.0315 C   0  0  0  0  0  0  0  0  0  0  0  0
    0.6922    3.8666   13.2747 C   0  0  0  0  0  0  0  0  0  0  0  0
    0.2426    3.1264   12.0363 C   0  0  0  0  0  0  0  0  0  0  0  0
    1.4442    2.2080   11.8661 C   0  0  0  0  0  0  0  0  0  0  0  0
   -0.8797    2.1490   12.4934 C   0  0  0  0  0  0  0  0  0  0  0  0
    0.5242   -2.1855   -9.6244 H   0  0  0  0  0  0  0  0  0  0  0  0
   -0.4222    3.8441   -8.1052 H   0  0  0  0  0  0  0  0  0  0  0  0
   -1.9217    1.8968  -12.5805 H   0  0  0  0  0  0  0  0  0  0  0  0
   -3.8359    4.5991  -11.5791 H   0  0  0  0  0  0  0  0  0  0  0  0
   -2.6284    5.6856  -13.5852 H   0  0  0  0  0  0  0  0  0  0  0  0
   -0.0038    5.3540  -13.3904 H   0  0  0  0  0  0  0  0  0  0  0  0
    0.7824    6.3692  -11.1214 H   0  0  0  0  0  0  0  0  0  0  0  0
   -1.3410    7.3724   -9.8825 H   0  0  0  0  0  0  0  0  0  0  0  0
   -1.9055    7.9344  -12.4024 H   0  0  0  0  0  0  0  0  0  0  0  0
   -3.4031    7.2812  -11.5872 H   0  0  0  0  0  0  0  0  0  0  0  0
   -3.1333    5.5395   -9.5296 H   0  0  0  0  0  0  0  0  0  0  0  0
    3.3827   -5.9680   -1.7744 H   0  0  0  0  0  0  0  0  0  0  0  0
    1.9877   -5.6657   -0.7266 H   0  0  0  0  0  0  0  0  0  0  0  0
    3.2524   -7.6116    0.0567 H   0  0  0  0  0  0  0  0  0  0  0  0
    3.2240   -6.3162    1.2985 H   0  0  0  0  0  0  0  0  0  0  0  0
    4.7188   -6.6024    0.3244 H   0  0  0  0  0  0  0  0  0  0  0  0
    5.6168   -4.1012    0.1779 H   0  0  0  0  0  0  0  0  0  0  0  0
    5.2519   -2.8408   -1.0156 H   0  0  0  0  0  0  0  0  0  0  0  0
    6.7945   -4.4043   -2.0053 H   0  0  0  0  0  0  0  0  0  0  0  0
    5.2407   -4.7341   -2.8217 H   0  0  0  0  0  0  0  0  0  0  0  0
    5.8308   -5.8308   -1.5272 H   0  0  0  0  0  0  0  0  0  0  0  0
    3.6613   -3.3995   -3.4253 H   0  0  0  0  0  0  0  0  0  0  0  0
    2.1493   -3.8769    3.4106 H   0  0  0  0  0  0  0  0  0  0  0  0
   -2.5951   -2.8181    3.2507 H   0  0  0  0  0  0  0  0  0  0  0  0
   -3.3967   -0.7108    5.3456 H   0  0  0  0  0  0  0  0  0  0  0  0
   -4.6232   -0.7902    6.6582 H   0  0  0  0  0  0  0  0  0  0  0  0
   -6.3791   -1.3920    4.9625 H   0  0  0  0  0  0  0  0  0  0  0  0
   -5.5900    0.1873    4.6120 H   0  0  0  0  0  0  0  0  0  0  0  0
   -5.1209   -1.2637    3.6534 H   0  0  0  0  0  0  0  0  0  0  0  0
   -1.2159   -4.6175    7.9759 H   0  0  0  0  0  0  0  0  0  0  0  0
   -2.0928    1.4370    9.6069 H   0  0  0  0  0  0  0  0  0  0  0  0
    0.1165   -1.9068   12.7782 H   0  0  0  0  0  0  0  0  0  0  0  0
   -0.6006    1.0716   14.3778 H   0  0  0  0  0  0  0  0  0  0  0  0
    2.0709    0.9178   13.5920 H   0  0  0  0  0  0  0  0  0  0  0  0
    1.8965    3.1939   14.9425 H   0  0  0  0  0  0  0  0  0  0  0  0
    0.6224    4.9319   13.4694 H   0  0  0  0  0  0  0  0  0  0  0  0
   -0.0036    3.7682   11.1638 H   0  0  0  0  0  0  0  0  0  0  0  0
    1.3327    1.4397   11.0682 H   0  0  0  0  0  0  0  0  0  0  0  0
    2.3976    2.7626   11.6843 H   0  0  0  0  0  0  0  0  0  0  0  0
   -1.7772    2.6198   12.9568 H   0  0  0  0  0  0  0  0  0  0  0  0
  1  2  2  3
  2  3  1  0
  3  4  2  0
  3  5  1  0
  5  6  2  0
  6  7  1  0
  7  8  2  0
  8  9  1  0
  9 10  2  0
 10 11  1  0
 11 12  2  3
 12 13  1  0
 13 14  3  0
 12 15  1  0
 15 16  3  0
  8 17  1  0
 17 18  1  0
 18 19  1  0
 19 20  2  0
 20 21  1  0
 21 22  1  0
 21 23  1  0
  1 24  1  0
 24 25  2  0
 25 26  1  0
 26 27  1  0
 27 28  2  0
 28 29  2  0
 26 30  2  0
 30 31  1  0
 31 32  2  0
 32 33  1  0
 33 34  1  0
 34 35  2  0
 30 36  1  0
 36 37  1  0
 37 38  1  0
 38 39  1  0
 39 40  2  0
 40 41  1  0
 41 42  1  0
 42 43  1  0
 43 44  1  0
 42 45  1  0
 45 46  1  0
 42 47  1  0
 47 48  1  0
 40 49  1  0
 49 50  2  0
 50 51  1  0
 50 52  1  0
 52 53  2  0
 53 54  1  0
 54 55  1  0
 55 56  1  0
 56 57  1  0
 54 58  2  0
 58 59  1  0
 58 60  1  0
 60 61  2  3
 61 62  1  0
 62 63  2  0
 62 64  1  0
 64 65  2  0
 65 66  1  0
 66 67  2  0
 67 68  1  0
 68 69  2  0
 69 70  1  0
 70 71  2  3
 71 72  1  0
 72 73  3  0
 71 74  1  0
 74 75  3  0
 67 76  1  0
 76 77  1  0
 77 78  1  0
 78 79  2  0
 79 80  1  0
 80 81  1  0
 80 82  1  0
 11  2  1  0
 23 17  1  0
 35 24  1  0
 48 36  2  0
 59 52  1  0
 70 61  1  0
 82 76  1  0
 10  5  1  0
 22 18  1  0
 29 25  1  0
 35 31  1  0
 47 38  2  0
 69 64  1  0
 81 77  1  0
 23  7  1  0
 51 39  1  0
 82 66  1  0
  1 83  1  0
  6 84  1  0
  9 85  1  0
 17 86  1  0
 18 87  1  0
 19 88  1  0
 20 89  1  0
 21 90  1  0
 22 91  1  0
 22 92  1  0
 23 93  1  0
 43 94  1  0
 43 95  1  0
 44 96  1  0
 44 97  1  0
 44 98  1  0
 45 99  1  0
 45100  1  0
 46101  1  0
 46102  1  0
 46103  1  0
 48104  1  0
 49105  1  0
 53106  1  0
 56107  1  0
 56108  1  0
 57109  1  0
 57110  1  0
 57111  1  0
 60112  1  0
 65113  1  0
 68114  1  0
 76115  1  0
 77116  1  0
 78117  1  0
 79118  1  0
 80119  1  0
 81120  1  0
 81121  1  0
 82122  1  0
M  END

