
     RDKit          3D

256281  0  0  0  0  0  0  0  0999 V2000
   -1.7667    0.8134    7.9357 C   0  0  0  0  0  0  0  0  0  0  0  0
   -0.8489    0.0967    8.6238 C   0  0  0  0  0  0  0  0  0  0  0  0
   -0.8163    0.0870   10.0875 C   0  0  0  0  0  0  0  0  0  0  0  0
   -1.7243    0.5272   10.8497 O   0  0  0  0  0  0  0  0  0  0  0  0
    0.4567   -0.4458   10.5277 C   0  0  0  0  0  0  0  0  0  0  0  0
    0.8728   -0.6759   11.8639 C   0  0  0  0  0  0  0  0  0  0  0  0
    2.0993   -1.3168   11.9597 C   0  0  0  0  0  0  0  0  0  0  0  0
    2.8898   -1.6680   10.8259 C   0  0  0  0  0  0  0  0  0  0  0  0
    2.5105   -1.4213    9.5222 C   0  0  0  0  0  0  0  0  0  0  0  0
    1.2304   -0.8048    9.3847 C   0  0  0  0  0  0  0  0  0  0  0  0
    0.4092   -0.5783    8.1553 C   0  0  0  0  0  0  0  0  0  0  0  0
    0.5849   -1.2423    6.9866 C   0  0  0  0  0  0  0  0  0  0  0  0
   -0.5088   -1.5417    6.1024 C   0  0  0  0  0  0  0  0  0  0  0  0
   -1.3615   -1.7934    5.3695 N   0  0  0  0  0  0  0  0  0  0  0  0
    1.8669   -1.7402    6.5567 C   0  0  0  0  0  0  0  0  0  0  0  0
    2.8904   -2.1533    6.2029 N   0  0  0  0  0  0  0  0  0  0  0  0
    3.9090   -2.3279   11.7123 C   0  0  0  0  0  0  0  0  0  0  0  0
    3.9323   -3.8865   11.7450 C   0  0  0  0  0  0  0  0  0  0  0  0
    2.5508   -4.4261   11.4539 C   0  0  0  0  0  0  0  0  0  0  0  0
    1.7975   -4.1086   12.5033 C   0  0  0  0  0  0  0  0  0  0  0  0
    2.6933   -3.3604   13.4728 C   0  0  0  0  0  0  0  0  0  0  0  0
    3.9840   -4.1241   13.2409 C   0  0  0  0  0  0  0  0  0  0  0  0
    3.0934   -1.9767   12.8754 C   0  0  0  0  0  0  0  0  0  0  0  0
   -1.6552    1.3279    6.5548 C   0  0  0  0  0  0  0  0  0  0  0  0
   -2.7460    1.6961    5.7486 C   0  0  0  0  0  0  0  0  0  0  0  0
   -4.0824    1.2281    6.0023 N   0  0  0  0  0  0  0  0  0  0  0  0
   -5.1097    2.0868    6.5235 C   0  0  0  0  0  0  0  0  0  0  0  0
   -6.4404    1.8777    6.1321 C   0  0  0  0  0  0  0  0  0  0  0  0
   -7.4802    2.5634    6.7552 C   0  0  0  0  0  0  0  0  0  0  0  0
   -7.2021    3.4565    7.8013 C   0  0  0  0  0  0  0  0  0  0  0  0
   -8.5568    4.2757    8.6598 S   0  0  0  0  0  0  0  0  0  0  0  0
   -8.8006    2.9674    9.8993 C   0  0  0  0  0  0  0  0  0  0  0  0
   -5.8762    3.7155    8.1608 C   0  0  0  0  0  0  0  0  0  0  0  0
   -4.8268    3.0437    7.5182 C   0  0  0  0  0  0  0  0  0  0  0  0
   -4.3089   -0.1944    5.9793 C   0  0  0  0  0  0  0  0  0  0  0  0
   -4.2414   -0.8908    4.7646 C   0  0  0  0  0  0  0  0  0  0  0  0
   -4.3776   -2.2805    4.7442 C   0  0  0  0  0  0  0  0  0  0  0  0
   -4.5800   -2.9871    5.9396 C   0  0  0  0  0  0  0  0  0  0  0  0
   -4.6916   -4.7793    5.9247 S   0  0  0  0  0  0  0  0  0  0  0  0
   -2.9015   -5.0366    6.1329 C   0  0  0  0  0  0  0  0  0  0  0  0
   -4.7004   -2.2901    7.1494 C   0  0  0  0  0  0  0  0  0  0  0  0
   -4.5762   -0.8974    7.1666 C   0  0  0  0  0  0  0  0  0  0  0  0
   -2.3196    2.1301    4.4872 C   0  0  0  0  0  0  0  0  0  0  0  0
   -3.0639    2.4165    2.9916 S   0  0  0  0  0  0  0  0  0  0  0  0
   -1.6013    2.4335    2.0950 C   0  0  0  0  0  0  0  0  0  0  0  0
   -0.5472    2.1487    2.9833 C   0  0  0  0  0  0  0  0  0  0  0  0
    0.7048    1.5690    2.5862 N   0  0  0  0  0  0  0  0  0  0  0  0
    1.7875    2.4515    2.2323 C   0  0  0  0  0  0  0  0  0  0  0  0
    2.0373    3.6104    2.9915 C   0  0  0  0  0  0  0  0  0  0  0  0
    3.0864    4.4682    2.6530 C   0  0  0  0  0  0  0  0  0  0  0  0
    3.8771    4.1952    1.5281 C   0  0  0  0  0  0  0  0  0  0  0  0
    5.2009    5.3197    1.0734 S   0  0  0  0  0  0  0  0  0  0  0  0
    6.4755    4.4496    2.0365 C   0  0  0  0  0  0  0  0  0  0  0  0
    3.6175    3.0619    0.7519 C   0  0  0  0  0  0  0  0  0  0  0  0
    2.5872    2.1825    1.1044 C   0  0  0  0  0  0  0  0  0  0  0  0
    0.8339    0.1184    2.5802 C   0  0  0  0  0  0  0  0  0  0  0  0
   -0.2873   -0.7099    2.3362 C   0  0  0  0  0  0  0  0  0  0  0  0
   -0.1459   -2.0898    2.2077 C   0  0  0  0  0  0  0  0  0  0  0  0
    1.0988   -2.6939    2.4228 C   0  0  0  0  0  0  0  0  0  0  0  0
    1.3082   -4.4701    2.1894 S   0  0  0  0  0  0  0  0  0  0  0  0
    0.0578   -4.9673    3.4231 C   0  0  0  0  0  0  0  0  0  0  0  0
    2.2094   -1.8919    2.7347 C   0  0  0  0  0  0  0  0  0  0  0  0
    2.0804   -0.4985    2.8065 C   0  0  0  0  0  0  0  0  0  0  0  0
   -0.9805    2.0749    4.3022 C   0  0  0  0  0  0  0  0  0  0  0  0
   -0.2115    1.5789    5.6994 S   0  0  0  0  0  0  0  0  0  0  0  0
   -1.4959    2.3712    0.6186 C   0  0  0  0  0  0  0  0  0  0  0  0
   -2.0558    3.2379   -0.3450 C   0  0  0  0  0  0  0  0  0  0  0  0
   -2.8260    4.4023   -0.0122 N   0  0  0  0  0  0  0  0  0  0  0  0
   -4.1359    4.6152   -0.5721 C   0  0  0  0  0  0  0  0  0  0  0  0
   -5.2757    4.2166    0.1428 C   0  0  0  0  0  0  0  0  0  0  0  0
   -6.5467    4.5726   -0.3123 C   0  0  0  0  0  0  0  0  0  0  0  0
   -6.6928    5.3264   -1.4862 C   0  0  0  0  0  0  0  0  0  0  0  0
   -8.3152    5.9194   -1.9829 S   0  0  0  0  0  0  0  0  0  0  0  0
   -8.8489    4.3708   -2.7761 C   0  0  0  0  0  0  0  0  0  0  0  0
   -5.5561    5.6719   -2.2327 C   0  0  0  0  0  0  0  0  0  0  0  0
   -4.2809    5.3633   -1.7518 C   0  0  0  0  0  0  0  0  0  0  0  0
   -2.2412    5.4341    0.7993 C   0  0  0  0  0  0  0  0  0  0  0  0
   -2.9468    5.9635    1.8961 C   0  0  0  0  0  0  0  0  0  0  0  0
   -2.4001    7.0063    2.6439 C   0  0  0  0  0  0  0  0  0  0  0  0
   -1.1487    7.5420    2.2965 C   0  0  0  0  0  0  0  0  0  0  0  0
   -0.4686    8.9203    3.2298 S   0  0  0  0  0  0  0  0  0  0  0  0
    0.4438    7.8567    4.3901 C   0  0  0  0  0  0  0  0  0  0  0  0
   -0.4480    7.0274    1.1961 C   0  0  0  0  0  0  0  0  0  0  0  0
   -0.9878    5.9681    0.4606 C   0  0  0  0  0  0  0  0  0  0  0  0
   -1.6364    2.8915   -1.6441 C   0  0  0  0  0  0  0  0  0  0  0  0
   -1.8638    3.4351   -3.2265 S   0  0  0  0  0  0  0  0  0  0  0  0
   -0.8061    2.2825   -3.9354 C   0  0  0  0  0  0  0  0  0  0  0  0
   -0.3037    1.4613   -2.9244 C   0  0  0  0  0  0  0  0  0  0  0  0
    0.3845    0.2140   -3.1317 N   0  0  0  0  0  0  0  0  0  0  0  0
   -0.2556   -0.9917   -2.6634 C   0  0  0  0  0  0  0  0  0  0  0  0
   -1.5255   -1.3615   -3.1437 C   0  0  0  0  0  0  0  0  0  0  0  0
   -2.1476   -2.5233   -2.6768 C   0  0  0  0  0  0  0  0  0  0  0  0
   -1.5029   -3.3233   -1.7220 C   0  0  0  0  0  0  0  0  0  0  0  0
   -2.2957   -4.8178   -1.1050 S   0  0  0  0  0  0  0  0  0  0  0  0
   -1.1838   -5.9378   -2.0125 C   0  0  0  0  0  0  0  0  0  0  0  0
   -0.2567   -2.9470   -1.2187 C   0  0  0  0  0  0  0  0  0  0  0  0
    0.3599   -1.7826   -1.6749 C   0  0  0  0  0  0  0  0  0  0  0  0
    1.8127    0.1783   -3.3157 C   0  0  0  0  0  0  0  0  0  0  0  0
    2.3709   -0.8422   -4.1043 C   0  0  0  0  0  0  0  0  0  0  0  0
    3.7470   -1.0729   -4.1028 C   0  0  0  0  0  0  0  0  0  0  0  0
    4.5727   -0.3216   -3.2617 C   0  0  0  0  0  0  0  0  0  0  0  0
    6.3179   -0.7107   -3.1429 S   0  0  0  0  0  0  0  0  0  0  0  0
    6.0735   -2.0119   -1.8973 C   0  0  0  0  0  0  0  0  0  0  0  0
    4.0271    0.7241   -2.5075 C   0  0  0  0  0  0  0  0  0  0  0  0
    2.6581    0.9827   -2.5427 C   0  0  0  0  0  0  0  0  0  0  0  0
   -0.7833    1.8416   -1.6851 C   0  0  0  0  0  0  0  0  0  0  0  0
   -0.5287    1.2348   -0.1661 S   0  0  0  0  0  0  0  0  0  0  0  0
   -0.6930    1.9139   -5.3534 C   0  0  0  0  0  0  0  0  0  0  0  0
    0.5864    1.8766   -5.9219 C   0  0  0  0  0  0  0  0  0  0  0  0
    1.5223    2.7945   -5.5667 N   0  0  0  0  0  0  0  0  0  0  0  0
    2.8162    2.7372   -5.9878 C   0  0  0  0  0  0  0  0  0  0  0  0
    3.7089    3.8643   -5.6025 C   0  0  0  0  0  0  0  0  0  0  0  0
    4.5525    4.4859   -6.5439 C   0  0  0  0  0  0  0  0  0  0  0  0
    5.3396    5.5837   -6.1614 C   0  0  0  0  0  0  0  0  0  0  0  0
    5.2507    6.1039   -4.8627 C   0  0  0  0  0  0  0  0  0  0  0  0
    6.0217    7.2170   -4.5294 O   0  0  0  0  0  0  0  0  0  0  0  0
    5.4652    8.4040   -3.9584 C   0  0  0  0  0  0  0  0  0  0  0  0
    6.5920    9.3569   -3.5876 C   0  0  0  0  0  0  0  0  0  0  0  0
    4.4095    5.4848   -3.9272 C   0  0  0  0  0  0  0  0  0  0  0  0
    3.6347    4.3876   -4.3037 C   0  0  0  0  0  0  0  0  0  0  0  0
    2.8084    3.8339   -3.3759 F   0  0  0  0  0  0  0  0  0  0  0  0
    4.3546    5.9116   -2.6373 F   0  0  0  0  0  0  0  0  0  0  0  0
    6.1528    6.1798   -7.0736 F   0  0  0  0  0  0  0  0  0  0  0  0
    4.5783    4.0808   -7.8401 F   0  0  0  0  0  0  0  0  0  0  0  0
    3.2216    1.6062   -6.7589 C   0  0  0  0  0  0  0  0  0  0  0  0
    4.6272    1.3037   -7.1311 C   0  0  0  0  0  0  0  0  0  0  0  0
    5.6750    1.3804   -6.1881 C   0  0  0  0  0  0  0  0  0  0  0  0
    5.4592    1.8413   -4.9368 F   0  0  0  0  0  0  0  0  0  0  0  0
    6.9565    0.9386   -6.5236 C   0  0  0  0  0  0  0  0  0  0  0  0
    7.9557    1.0336   -5.6078 F   0  0  0  0  0  0  0  0  0  0  0  0
    7.2172    0.4146   -7.7997 C   0  0  0  0  0  0  0  0  0  0  0  0
    8.4797   -0.0786   -8.1383 O   0  0  0  0  0  0  0  0  0  0  0  0
    9.0725   -1.1982   -7.4834 C   0  0  0  0  0  0  0  0  0  0  0  0
    8.4308   -2.4899   -7.9673 C   0  0  0  0  0  0  0  0  0  0  0  0
    6.1989    0.3803   -8.7548 C   0  0  0  0  0  0  0  0  0  0  0  0
    6.4435   -0.1068   -9.9969 F   0  0  0  0  0  0  0  0  0  0  0  0
    4.9113    0.8154   -8.4257 C   0  0  0  0  0  0  0  0  0  0  0  0
    3.9276    0.7529   -9.3666 F   0  0  0  0  0  0  0  0  0  0  0  0
    2.2616    0.7088   -7.1311 N   0  0  0  0  0  0  0  0  0  0  0  0
    0.9615    0.8237   -6.7708 C   0  0  0  0  0  0  0  0  0  0  0  0
    0.0111   -0.1503   -7.1323 C   0  0  0  0  0  0  0  0  0  0  0  0
   -1.3251    0.0397   -6.7434 C   0  0  0  0  0  0  0  0  0  0  0  0
   -1.6763    1.0672   -5.8780 C   0  0  0  0  0  0  0  0  0  0  0  0
    0.4826   -1.4977   -7.5339 C   0  0  0  0  0  0  0  0  0  0  0  0
   -0.2393   -2.3740   -8.2583 C   0  0  0  0  0  0  0  0  0  0  0  0
   -1.3650   -2.0130   -9.1204 C   0  0  0  0  0  0  0  0  0  0  0  0
   -1.5493   -0.8839   -9.6560 O   0  0  0  0  0  0  0  0  0  0  0  0
   -2.2553   -3.1422   -9.2318 C   0  0  0  0  0  0  0  0  0  0  0  0
   -3.5497   -3.1399   -9.8063 C   0  0  0  0  0  0  0  0  0  0  0  0
   -4.2636   -4.2960   -9.5644 C   0  0  0  0  0  0  0  0  0  0  0  0
   -3.7442   -5.3908   -8.7928 C   0  0  0  0  0  0  0  0  0  0  0  0
   -2.4768   -5.4031   -8.2372 C   0  0  0  0  0  0  0  0  0  0  0  0
   -1.7069   -4.2321   -8.4997 C   0  0  0  0  0  0  0  0  0  0  0  0
   -0.3637   -3.8450   -7.9861 C   0  0  0  0  0  0  0  0  0  0  0  0
    0.5858   -4.6807   -7.4758 C   0  0  0  0  0  0  0  0  0  0  0  0
    0.3774   -6.1032   -7.3307 C   0  0  0  0  0  0  0  0  0  0  0  0
    0.2252   -7.2467   -7.2194 N   0  0  0  0  0  0  0  0  0  0  0  0
    1.9178   -4.2447   -7.1583 C   0  0  0  0  0  0  0  0  0  0  0  0
    2.9945   -3.9131   -6.9019 N   0  0  0  0  0  0  0  0  0  0  0  0
   -5.0653   -6.0958   -8.8874 C   0  0  0  0  0  0  0  0  0  0  0  0
   -5.9915   -6.0870   -7.6354 C   0  0  0  0  0  0  0  0  0  0  0  0
   -5.7889   -4.8214   -6.8340 C   0  0  0  0  0  0  0  0  0  0  0  0
   -6.2581   -3.8192   -7.5739 C   0  0  0  0  0  0  0  0  0  0  0  0
   -6.7716   -4.4379   -8.8548 C   0  0  0  0  0  0  0  0  0  0  0  0
   -7.3169   -5.7364   -8.2918 C   0  0  0  0  0  0  0  0  0  0  0  0
   -5.5845   -4.9891   -9.6973 C   0  0  0  0  0  0  0  0  0  0  0  0
   -2.6293    1.1781    8.4887 H   0  0  0  0  0  0  0  0  0  0  0  0
    0.2581   -0.4575   12.7279 H   0  0  0  0  0  0  0  0  0  0  0  0
    3.1185   -1.7557    8.7098 H   0  0  0  0  0  0  0  0  0  0  0  0
    4.9108   -1.8361   11.7012 H   0  0  0  0  0  0  0  0  0  0  0  0
    4.7510   -4.3545   11.1533 H   0  0  0  0  0  0  0  0  0  0  0  0
    2.2117   -4.9989   10.5953 H   0  0  0  0  0  0  0  0  0  0  0  0
    0.7527   -4.3641   12.6431 H   0  0  0  0  0  0  0  0  0  0  0  0
    2.3408   -3.3267   14.5238 H   0  0  0  0  0  0  0  0  0  0  0  0
    3.9262   -5.1992   13.5289 H   0  0  0  0  0  0  0  0  0  0  0  0
    4.8690   -3.6638   13.7322 H   0  0  0  0  0  0  0  0  0  0  0  0
    3.5870   -1.2790   13.5930 H   0  0  0  0  0  0  0  0  0  0  0  0
   -6.6720    1.1574    5.3594 H   0  0  0  0  0  0  0  0  0  0  0  0
   -8.5037    2.3557    6.4705 H   0  0  0  0  0  0  0  0  0  0  0  0
   -8.4822    3.3481   10.8915 H   0  0  0  0  0  0  0  0  0  0  0  0
   -8.2345    2.0424    9.6527 H   0  0  0  0  0  0  0  0  0  0  0  0
   -9.8806    2.7236    9.9411 H   0  0  0  0  0  0  0  0  0  0  0  0
   -5.6545    4.4043    8.9678 H   0  0  0  0  0  0  0  0  0  0  0  0
   -3.8045    3.2275    7.8333 H   0  0  0  0  0  0  0  0  0  0  0  0
   -4.0469   -0.3622    3.8427 H   0  0  0  0  0  0  0  0  0  0  0  0
   -4.2930   -2.8137    3.8060 H   0  0  0  0  0  0  0  0  0  0  0  0
   -2.6448   -6.0532    5.7772 H   0  0  0  0  0  0  0  0  0  0  0  0
   -2.3224   -4.3065    5.5300 H   0  0  0  0  0  0  0  0  0  0  0  0
   -2.6302   -4.9392    7.2040 H   0  0  0  0  0  0  0  0  0  0  0  0
   -4.8848   -2.8191    8.0786 H   0  0  0  0  0  0  0  0  0  0  0  0
   -4.6439   -0.3621    8.1100 H   0  0  0  0  0  0  0  0  0  0  0  0
    1.4318    3.8366    3.8597 H   0  0  0  0  0  0  0  0  0  0  0  0
    3.2909    5.3340    3.2696 H   0  0  0  0  0  0  0  0  0  0  0  0
    6.2643    3.3638    2.1248 H   0  0  0  0  0  0  0  0  0  0  0  0
    6.5429    4.8886    3.0540 H   0  0  0  0  0  0  0  0  0  0  0  0
    7.4520    4.5637    1.5275 H   0  0  0  0  0  0  0  0  0  0  0  0
    4.2200    2.8533   -0.1216 H   0  0  0  0  0  0  0  0  0  0  0  0
    2.4077    1.2957    0.5049 H   0  0  0  0  0  0  0  0  0  0  0  0
   -1.2699   -0.2903    2.1753 H   0  0  0  0  0  0  0  0  0  0  0  0
   -1.0163   -2.6904    1.9547 H   0  0  0  0  0  0  0  0  0  0  0  0
    0.2725   -6.0031    3.7475 H   0  0  0  0  0  0  0  0  0  0  0  0
    0.0789   -4.3051    4.3165 H   0  0  0  0  0  0  0  0  0  0  0  0
   -0.9609   -4.9424    2.9663 H   0  0  0  0  0  0  0  0  0  0  0  0
    3.1781   -2.3470    2.8803 H   0  0  0  0  0  0  0  0  0  0  0  0
    2.9594    0.1009    3.0182 H   0  0  0  0  0  0  0  0  0  0  0  0
   -5.1721    3.6490    1.0585 H   0  0  0  0  0  0  0  0  0  0  0  0
   -7.4188    4.3053    0.2667 H   0  0  0  0  0  0  0  0  0  0  0  0
   -9.1881    4.6028   -3.8084 H   0  0  0  0  0  0  0  0  0  0  0  0
   -8.0534    3.5947   -2.8236 H   0  0  0  0  0  0  0  0  0  0  0  0
   -9.7143    3.9735   -2.1965 H   0  0  0  0  0  0  0  0  0  0  0  0
   -5.6494    6.2543   -3.1408 H   0  0  0  0  0  0  0  0  0  0  0  0
   -3.4038    5.7191   -2.2781 H   0  0  0  0  0  0  0  0  0  0  0  0
   -3.9122    5.5583    2.1728 H   0  0  0  0  0  0  0  0  0  0  0  0
   -2.9487    7.4057    3.4893 H   0  0  0  0  0  0  0  0  0  0  0  0
   -0.2742    7.3389    5.0585 H   0  0  0  0  0  0  0  0  0  0  0  0
    1.0516    7.1132    3.8310 H   0  0  0  0  0  0  0  0  0  0  0  0
    1.1221    8.4892    4.9900 H   0  0  0  0  0  0  0  0  0  0  0  0
    0.5085    7.4490    0.9122 H   0  0  0  0  0  0  0  0  0  0  0  0
   -0.4430    5.5844   -0.3903 H   0  0  0  0  0  0  0  0  0  0  0  0
   -2.0319   -0.7508   -3.8784 H   0  0  0  0  0  0  0  0  0  0  0  0
   -3.1244   -2.7996   -3.0570 H   0  0  0  0  0  0  0  0  0  0  0  0
   -1.0479   -5.5765   -3.0580 H   0  0  0  0  0  0  0  0  0  0  0  0
   -0.1976   -5.9669   -1.4879 H   0  0  0  0  0  0  0  0  0  0  0  0
   -1.6287   -6.9626   -2.0228 H   0  0  0  0  0  0  0  0  0  0  0  0
    0.2519   -3.5652   -0.4892 H   0  0  0  0  0  0  0  0  0  0  0  0
    1.3183   -1.5045   -1.2545 H   0  0  0  0  0  0  0  0  0  0  0  0
    1.7341   -1.5042   -4.6843 H   0  0  0  0  0  0  0  0  0  0  0  0
    4.1641   -1.8794   -4.6886 H   0  0  0  0  0  0  0  0  0  0  0  0
    5.5857   -1.5914   -0.9995 H   0  0  0  0  0  0  0  0  0  0  0  0
    7.0591   -2.4328   -1.6177 H   0  0  0  0  0  0  0  0  0  0  0  0
    5.4467   -2.8175   -2.3211 H   0  0  0  0  0  0  0  0  0  0  0  0
    4.6697    1.2997   -1.8534 H   0  0  0  0  0  0  0  0  0  0  0  0
    2.2474    1.7546   -1.9108 H   0  0  0  0  0  0  0  0  0  0  0  0
    4.8850    8.1804   -3.0457 H   0  0  0  0  0  0  0  0  0  0  0  0
    4.7882    8.8977   -4.6911 H   0  0  0  0  0  0  0  0  0  0  0  0
    7.2414    8.8778   -2.8236 H   0  0  0  0  0  0  0  0  0  0  0  0
    6.1725   10.3021   -3.1759 H   0  0  0  0  0  0  0  0  0  0  0  0
    7.1932    9.5944   -4.4957 H   0  0  0  0  0  0  0  0  0  0  0  0
    8.9758   -1.1085   -6.3827 H   0  0  0  0  0  0  0  0  0  0  0  0
   10.1609   -1.2284   -7.7275 H   0  0  0  0  0  0  0  0  0  0  0  0
    8.9674   -3.3597   -7.5339 H   0  0  0  0  0  0  0  0  0  0  0  0
    7.3618   -2.5248   -7.6687 H   0  0  0  0  0  0  0  0  0  0  0  0
    8.4988   -2.5512   -9.0774 H   0  0  0  0  0  0  0  0  0  0  0  0
   -2.0792   -0.7093   -6.9464 H   0  0  0  0  0  0  0  0  0  0  0  0
   -2.6768    1.0583   -5.4430 H   0  0  0  0  0  0  0  0  0  0  0  0
    1.3000   -1.8601   -6.9399 H   0  0  0  0  0  0  0  0  0  0  0  0
   -3.9780   -2.2798  -10.2972 H   0  0  0  0  0  0  0  0  0  0  0  0
   -2.1580   -6.1963   -7.5760 H   0  0  0  0  0  0  0  0  0  0  0  0
   -5.0177   -7.0617   -9.4327 H   0  0  0  0  0  0  0  0  0  0  0  0
   -5.9928   -7.0222   -7.0444 H   0  0  0  0  0  0  0  0  0  0  0  0
   -5.4050   -4.7427   -5.8267 H   0  0  0  0  0  0  0  0  0  0  0  0
   -6.3172   -2.7807   -7.2686 H   0  0  0  0  0  0  0  0  0  0  0  0
   -7.5007   -3.8164   -9.4158 H   0  0  0  0  0  0  0  0  0  0  0  0
   -7.6328   -6.4657   -9.0738 H   0  0  0  0  0  0  0  0  0  0  0  0
   -8.1526   -5.5995   -7.5702 H   0  0  0  0  0  0  0  0  0  0  0  0
   -5.8339   -5.2613  -10.7356 H   0  0  0  0  0  0  0  0  0  0  0  0
  1  2  2  3
  2  3  1  0
  3  4  2  0
  3  5  1  0
  5  6  2  0
  6  7  1  0
  7  8  2  0
  8  9  1  0
  9 10  2  0
 10 11  1  0
 11 12  2  3
 12 13  1  0
 13 14  3  0
 12 15  1  0
 15 16  3  0
  8 17  1  0
 17 18  1  0
 18 19  1  0
 19 20  2  0
 20 21  1  0
 21 22  1  0
 21 23  1  0
  1 24  1  0
 24 25  2  0
 25 26  1  0
 26 27  1  0
 27 28  2  0
 28 29  1  0
 29 30  2  0
 30 31  1  0
 31 32  1  0
 30 33  1  0
 33 34  2  0
 26 35  1  0
 35 36  2  0
 36 37  1  0
 37 38  2  0
 38 39  1  0
 39 40  1  0
 38 41  1  0
 41 42  2  0
 25 43  1  0
 43 44  1  0
 44 45  1  0
 45 46  2  0
 46 47  1  0
 47 48  1  0
 48 49  2  0
 49 50  1  0
 50 51  2  0
 51 52  1  0
 52 53  1  0
 51 54  1  0
 54 55  2  0
 47 56  1  0
 56 57  2  0
 57 58  1  0
 58 59  2  0
 59 60  1  0
 60 61  1  0
 59 62  1  0
 62 63  2  0
 46 64  1  0
 64 65  1  0
 45 66  1  0
 66 67  2  0
 67 68  1  0
 68 69  1  0
 69 70  2  0
 70 71  1  0
 71 72  2  0
 72 73  1  0
 73 74  1  0
 72 75  1  0
 75 76  2  0
 68 77  1  0
 77 78  2  0
 78 79  1  0
 79 80  2  0
 80 81  1  0
 81 82  1  0
 80 83  1  0
 83 84  2  0
 67 85  1  0
 85 86  1  0
 86 87  1  0
 87 88  2  0
 88 89  1  0
 89 90  1  0
 90 91  2  0
 91 92  1  0
 92 93  2  0
 93 94  1  0
 94 95  1  0
 93 96  1  0
 96 97  2  0
 89 98  1  0
 98 99  2  0
 99100  1  0
100101  2  0
101102  1  0
102103  1  0
101104  1  0
104105  2  0
 88106  1  0
106107  1  0
 87108  1  0
108109  1  0
109110  2  0
110111  1  0
111112  1  0
112113  2  0
113114  1  0
114115  2  0
115116  1  0
116117  1  0
117118  1  0
115119  1  0
119120  2  0
120121  1  0
119122  1  0
114123  1  0
113124  1  0
111125  2  0
125126  1  0
126127  2  0
127128  1  0
127129  1  0
129130  1  0
129131  2  0
131132  1  0
132133  1  0
133134  1  0
131135  1  0
135136  1  0
135137  2  0
137138  1  0
125139  1  0
139140  2  0
140141  1  0
141142  2  0
142143  1  0
141144  1  0
144145  2  3
145146  1  0
146147  2  0
146148  1  0
148149  2  0
149150  1  0
150151  2  0
151152  1  0
152153  2  0
153154  1  0
154155  2  3
155156  1  0
156157  3  0
155158  1  0
158159  3  0
151160  1  0
160161  1  0
161162  1  0
162163  2  0
163164  1  0
164165  1  0
164166  1  0
 11  2  1  0
 23 17  1  0
 65 24  1  0
107 66  1  0
143108  2  0
154145  1  0
166160  1  0
 10  5  1  0
 22 18  1  0
 34 27  1  0
 42 35  1  0
 64 43  2  0
 76 69  1  0
 84 77  1  0
106 85  2  0
140109  1  0
153148  1  0
165161  1  0
 23  7  1  0
 55 48  1  0
 63 56  1  0
 97 90  1  0
105 98  1  0
120112  1  0
137126  1  0
166150  1  0
  1167  1  0
  6168  1  0
  9169  1  0
 17170  1  0
 18171  1  0
 19172  1  0
 20173  1  0
 21174  1  0
 22175  1  0
 22176  1  0
 23177  1  0
 28178  1  0
 29179  1  0
 32180  1  0
 32181  1  0
 32182  1  0
 33183  1  0
 34184  1  0
 36185  1  0
 37186  1  0
 40187  1  0
 40188  1  0
 40189  1  0
 41190  1  0
 42191  1  0
 49192  1  0
 50193  1  0
 53194  1  0
 53195  1  0
 53196  1  0
 54197  1  0
 55198  1  0
 57199  1  0
 58200  1  0
 61201  1  0
 61202  1  0
 61203  1  0
 62204  1  0
 63205  1  0
 70206  1  0
 71207  1  0
 74208  1  0
 74209  1  0
 74210  1  0
 75211  1  0
 76212  1  0
 78213  1  0
 79214  1  0
 82215  1  0
 82216  1  0
 82217  1  0
 83218  1  0
 84219  1  0
 91220  1  0
 92221  1  0
 95222  1  0
 95223  1  0
 95224  1  0
 96225  1  0
 97226  1  0
 99227  1  0
100228  1  0
103229  1  0
103230  1  0
103231  1  0
104232  1  0
105233  1  0
117234  1  0
117235  1  0
118236  1  0
118237  1  0
118238  1  0
133239  1  0
133240  1  0
134241  1  0
134242  1  0
134243  1  0
142244  1  0
143245  1  0
144246  1  0
149247  1  0
152248  1  0
160249  1  0
161250  1  0
162251  1  0
163252  1  0
164253  1  0
165254  1  0
165255  1  0
166256  1  0
M  END

