
     RDKit          3D

226246  0  0  0  0  0  0  0  0999 V2000
    4.8807    3.3833    4.1901 C   0  0  0  0  0  0  0  0  0  0  0  0
    6.0552    2.8101    4.5256 C   0  0  0  0  0  0  0  0  0  0  0  0
    6.1792    1.4461    4.9661 C   0  0  0  0  0  0  0  0  0  0  0  0
    5.3009    0.8130    5.6103 O   0  0  0  0  0  0  0  0  0  0  0  0
    7.4597    0.9368    4.7910 C   0  0  0  0  0  0  0  0  0  0  0  0
    7.9994   -0.3266    5.1750 C   0  0  0  0  0  0  0  0  0  0  0  0
    9.2081   -0.6513    4.6612 C   0  0  0  0  0  0  0  0  0  0  0  0
    9.9835    0.3219    3.9707 C   0  0  0  0  0  0  0  0  0  0  0  0
    9.6143    1.6482    3.6828 C   0  0  0  0  0  0  0  0  0  0  0  0
    8.2255    1.9250    4.0361 C   0  0  0  0  0  0  0  0  0  0  0  0
    7.4170    3.1839    3.9365 C   0  0  0  0  0  0  0  0  0  0  0  0
    7.9078    4.3576    3.4121 C   0  0  0  0  0  0  0  0  0  0  0  0
    7.3452    5.6565    3.5858 C   0  0  0  0  0  0  0  0  0  0  0  0
    6.9923    6.8019    3.6400 N   0  0  0  0  0  0  0  0  0  0  0  0
    9.0474    4.2845    2.4537 C   0  0  0  0  0  0  0  0  0  0  0  0
    9.9256    4.3455    1.6940 N   0  0  0  0  0  0  0  0  0  0  0  0
   10.8124   -0.7760    3.3653 C   0  0  0  0  0  0  0  0  0  0  0  0
   10.4452   -1.3951    1.9810 C   0  0  0  0  0  0  0  0  0  0  0  0
    8.9372   -1.5451    1.8067 C   0  0  0  0  0  0  0  0  0  0  0  0
    8.5348   -2.4936    2.6287 C   0  0  0  0  0  0  0  0  0  0  0  0
    9.7309   -2.8924    3.3766 C   0  0  0  0  0  0  0  0  0  0  0  0
   10.7541   -2.8512    2.2900 C   0  0  0  0  0  0  0  0  0  0  0  0
   10.1963   -1.7182    4.2892 C   0  0  0  0  0  0  0  0  0  0  0  0
    3.7278    2.5846    3.8491 C   0  0  0  0  0  0  0  0  0  0  0  0
    2.8241    1.8063    4.6298 C   0  0  0  0  0  0  0  0  0  0  0  0
    2.6343    1.8377    6.0466 N   0  0  0  0  0  0  0  0  0  0  0  0
    2.6064    3.1490    6.7271 C   0  0  0  0  0  0  0  0  0  0  0  0
    2.7733    3.2481    8.1483 C   0  0  0  0  0  0  0  0  0  0  0  0
    2.4255    4.3988    8.8146 C   0  0  0  0  0  0  0  0  0  0  0  0
    1.9027    5.4854    8.1659 C   0  0  0  0  0  0  0  0  0  0  0  0
    1.5952    7.0844    8.9250 S   0  0  0  0  0  0  0  0  0  0  0  0
    0.5542    6.5700   10.3623 C   0  0  0  0  0  0  0  0  0  0  0  0
    1.8590    5.4495    6.7148 C   0  0  0  0  0  0  0  0  0  0  0  0
    2.1670    4.2818    6.0197 C   0  0  0  0  0  0  0  0  0  0  0  0
    2.2140    0.5711    6.7510 C   0  0  0  0  0  0  0  0  0  0  0  0
    2.7422   -0.6592    6.3346 C   0  0  0  0  0  0  0  0  0  0  0  0
    2.4925   -1.8535    7.0648 C   0  0  0  0  0  0  0  0  0  0  0  0
    1.8458   -1.7477    8.3048 C   0  0  0  0  0  0  0  0  0  0  0  0
    1.5071   -3.1855    9.3359 S   0  0  0  0  0  0  0  0  0  0  0  0
    3.1066   -4.0742    9.0971 C   0  0  0  0  0  0  0  0  0  0  0  0
    1.1975   -0.5313    8.6392 C   0  0  0  0  0  0  0  0  0  0  0  0
    1.3130    0.5852    7.8211 C   0  0  0  0  0  0  0  0  0  0  0  0
    1.8754    1.1383    3.7928 C   0  0  0  0  0  0  0  0  0  0  0  0
    0.5636    0.0942    4.1126 S   0  0  0  0  0  0  0  0  0  0  0  0
    0.0909   -0.0158    2.4619 C   0  0  0  0  0  0  0  0  0  0  0  0
    0.8873    0.8769    1.7334 C   0  0  0  0  0  0  0  0  0  0  0  0
    0.6579    1.3589    0.3929 N   0  0  0  0  0  0  0  0  0  0  0  0
   -0.1708    2.5526    0.2349 C   0  0  0  0  0  0  0  0  0  0  0  0
    0.0409    3.7020    1.0348 C   0  0  0  0  0  0  0  0  0  0  0  0
   -0.9380    4.6872    1.1196 C   0  0  0  0  0  0  0  0  0  0  0  0
   -2.1312    4.6039    0.3892 C   0  0  0  0  0  0  0  0  0  0  0  0
   -3.2507    5.9957    0.4414 S   0  0  0  0  0  0  0  0  0  0  0  0
   -4.8647    5.1310    0.6091 C   0  0  0  0  0  0  0  0  0  0  0  0
   -2.2775    3.5268   -0.5027 C   0  0  0  0  0  0  0  0  0  0  0  0
   -1.3375    2.4865   -0.5590 C   0  0  0  0  0  0  0  0  0  0  0  0
    1.6429    0.9525   -0.5860 C   0  0  0  0  0  0  0  0  0  0  0  0
    1.6352   -0.4000   -1.0572 C   0  0  0  0  0  0  0  0  0  0  0  0
    2.7826   -0.9148   -1.6529 C   0  0  0  0  0  0  0  0  0  0  0  0
    3.9008   -0.1584   -1.8388 C   0  0  0  0  0  0  0  0  0  0  0  0
    5.4794   -0.9059   -2.3228 S   0  0  0  0  0  0  0  0  0  0  0  0
    5.4307   -0.5937   -4.1263 C   0  0  0  0  0  0  0  0  0  0  0  0
    3.8853    1.1943   -1.4331 C   0  0  0  0  0  0  0  0  0  0  0  0
    2.7710    1.7655   -0.8115 C   0  0  0  0  0  0  0  0  0  0  0  0
    1.9163    1.4082    2.5082 C   0  0  0  0  0  0  0  0  0  0  0  0
    3.1974    2.4768    2.2414 S   0  0  0  0  0  0  0  0  0  0  0  0
   -1.0702   -0.7832    1.9553 C   0  0  0  0  0  0  0  0  0  0  0  0
   -0.9800   -2.1649    1.7852 C   0  0  0  0  0  0  0  0  0  0  0  0
    0.2042   -2.9408    1.9326 O   0  0  0  0  0  0  0  0  0  0  0  0
    0.9833   -3.3711    3.0716 C   0  0  0  0  0  0  0  0  0  0  0  0
    0.2330   -4.2393    4.1004 C   0  0  0  0  0  0  0  0  0  0  0  0
   -2.1182   -2.8569    1.4098 C   0  0  0  0  0  0  0  0  0  0  0  0
   -2.1087   -4.2392    1.6798 O   0  0  0  0  0  0  0  0  0  0  0  0
   -2.9161   -4.8879    2.6396 C   0  0  0  0  0  0  0  0  0  0  0  0
   -2.6139   -6.3775    2.6402 C   0  0  0  0  0  0  0  0  0  0  0  0
   -3.2051   -2.2036    0.7448 C   0  0  0  0  0  0  0  0  0  0  0  0
   -3.3537   -0.8678    1.1186 C   0  0  0  0  0  0  0  0  0  0  0  0
   -2.2810   -0.1701    1.7103 C   0  0  0  0  0  0  0  0  0  0  0  0
   -2.4465    1.1356    1.9214 N   0  0  0  0  0  0  0  0  0  0  0  0
   -4.0357    1.3779    1.4746 S   0  0  0  0  0  0  0  0  0  0  0  0
   -4.4831   -0.1326    0.9607 N   0  0  0  0  0  0  0  0  0  0  0  0
   -3.8450   -2.7946   -0.5354 C   0  0  0  0  0  0  0  0  0  0  0  0
   -3.1929   -3.2428   -1.7522 C   0  0  0  0  0  0  0  0  0  0  0  0
   -1.9970   -4.1180   -1.8662 N   0  0  0  0  0  0  0  0  0  0  0  0
   -1.7851   -5.2082   -0.9328 C   0  0  0  0  0  0  0  0  0  0  0  0
   -2.6546   -6.2236   -0.7800 C   0  0  0  0  0  0  0  0  0  0  0  0
   -2.1338   -7.5149   -0.5124 C   0  0  0  0  0  0  0  0  0  0  0  0
   -0.8002   -7.7136   -0.1210 C   0  0  0  0  0  0  0  0  0  0  0  0
   -0.1226   -9.3360    0.0716 S   0  0  0  0  0  0  0  0  0  0  0  0
    1.6339   -9.1051   -0.4515 C   0  0  0  0  0  0  0  0  0  0  0  0
   -0.0162   -6.5971    0.1311 C   0  0  0  0  0  0  0  0  0  0  0  0
   -0.5270   -5.3694   -0.3144 C   0  0  0  0  0  0  0  0  0  0  0  0
   -1.0658   -4.0732   -3.0128 C   0  0  0  0  0  0  0  0  0  0  0  0
   -0.5691   -5.3383   -3.6042 C   0  0  0  0  0  0  0  0  0  0  0  0
    0.5475   -5.3925   -4.3954 C   0  0  0  0  0  0  0  0  0  0  0  0
    1.2012   -4.2291   -4.7604 C   0  0  0  0  0  0  0  0  0  0  0  0
    2.7698   -4.3127   -5.6045 S   0  0  0  0  0  0  0  0  0  0  0  0
    2.1620   -5.1765   -7.1136 C   0  0  0  0  0  0  0  0  0  0  0  0
    0.5561   -3.0003   -4.4613 C   0  0  0  0  0  0  0  0  0  0  0  0
   -0.5142   -2.9151   -3.5361 C   0  0  0  0  0  0  0  0  0  0  0  0
   -3.8170   -2.7270   -2.9292 C   0  0  0  0  0  0  0  0  0  0  0  0
   -3.5358   -2.7124   -4.5910 S   0  0  0  0  0  0  0  0  0  0  0  0
   -4.6445   -1.4929   -4.9290 C   0  0  0  0  0  0  0  0  0  0  0  0
   -5.3884   -1.2402   -3.7952 C   0  0  0  0  0  0  0  0  0  0  0  0
   -6.5451   -0.3345   -3.7881 N   0  0  0  0  0  0  0  0  0  0  0  0
   -6.5764    0.9656   -3.0949 C   0  0  0  0  0  0  0  0  0  0  0  0
   -5.4661    1.8226   -3.1025 C   0  0  0  0  0  0  0  0  0  0  0  0
   -5.5982    3.2064   -2.9662 C   0  0  0  0  0  0  0  0  0  0  0  0
   -6.8677    3.7741   -2.6909 C   0  0  0  0  0  0  0  0  0  0  0  0
   -7.1390    5.5966   -2.5857 S   0  0  0  0  0  0  0  0  0  0  0  0
   -5.4325    6.2449   -2.6043 C   0  0  0  0  0  0  0  0  0  0  0  0
   -7.9638    2.9171   -2.5193 C   0  0  0  0  0  0  0  0  0  0  0  0
   -7.8187    1.5318   -2.7092 C   0  0  0  0  0  0  0  0  0  0  0  0
   -7.5509   -0.5303   -4.8209 C   0  0  0  0  0  0  0  0  0  0  0  0
   -7.9286    0.5316   -5.6679 C   0  0  0  0  0  0  0  0  0  0  0  0
   -8.8894    0.3437   -6.6645 C   0  0  0  0  0  0  0  0  0  0  0  0
   -9.4610   -0.9307   -6.8799 C   0  0  0  0  0  0  0  0  0  0  0  0
  -10.7000   -1.2686   -8.1774 S   0  0  0  0  0  0  0  0  0  0  0  0
  -10.8820    0.4011   -8.9097 C   0  0  0  0  0  0  0  0  0  0  0  0
   -9.0428   -1.9963   -6.0647 C   0  0  0  0  0  0  0  0  0  0  0  0
   -8.0899   -1.7947   -5.0506 C   0  0  0  0  0  0  0  0  0  0  0  0
   -4.9094   -1.9637   -2.7012 C   0  0  0  0  0  0  0  0  0  0  0  0
   -5.3396   -2.0915   -1.0728 S   0  0  0  0  0  0  0  0  0  0  0  0
   -4.4888   -0.5571   -6.0582 C   0  0  0  0  0  0  0  0  0  0  0  0
   -3.6437    0.4818   -6.0031 C   0  0  0  0  0  0  0  0  0  0  0  0
   -2.6967    0.7647   -4.9423 C   0  0  0  0  0  0  0  0  0  0  0  0
   -2.3143   -0.0080   -4.0047 O   0  0  0  0  0  0  0  0  0  0  0  0
   -2.2705    2.1180   -5.0104 C   0  0  0  0  0  0  0  0  0  0  0  0
   -1.2762    2.7114   -4.2287 C   0  0  0  0  0  0  0  0  0  0  0  0
   -0.8080    3.9405   -4.5759 C   0  0  0  0  0  0  0  0  0  0  0  0
    0.2494    4.6313   -3.9116 O   0  0  0  0  0  0  0  0  0  0  0  0
    1.3209    4.0350   -3.1967 C   0  0  0  0  0  0  0  0  0  0  0  0
    1.4794    2.8079   -3.1361 O   0  0  0  0  0  0  0  0  0  0  0  0
    2.3745    4.9866   -2.7914 C   0  0  0  0  0  0  0  0  0  0  0  0
   -1.4094    4.6358   -5.6793 C   0  0  0  0  0  0  0  0  0  0  0  0
   -2.4254    4.0460   -6.4467 C   0  0  0  0  0  0  0  0  0  0  0  0
   -2.8570    2.7587   -6.1054 C   0  0  0  0  0  0  0  0  0  0  0  0
   -3.7344    1.7494   -6.7867 C   0  0  0  0  0  0  0  0  0  0  0  0
   -4.2881    2.0129   -7.9885 C   0  0  0  0  0  0  0  0  0  0  0  0
   -4.5474    0.9009   -8.9370 C   0  0  0  0  0  0  0  0  0  0  0  0
   -4.6479    0.0563   -9.6870 N   0  0  0  0  0  0  0  0  0  0  0  0
   -4.5882    3.3317   -8.4299 C   0  0  0  0  0  0  0  0  0  0  0  0
   -4.8589    4.4328   -8.8245 N   0  0  0  0  0  0  0  0  0  0  0  0
    4.8975    4.3593    3.7864 H   0  0  0  0  0  0  0  0  0  0  0  0
    7.3609   -1.1537    5.4342 H   0  0  0  0  0  0  0  0  0  0  0  0
   10.3272    2.3062    3.2007 H   0  0  0  0  0  0  0  0  0  0  0  0
   11.8244   -0.6285    3.5196 H   0  0  0  0  0  0  0  0  0  0  0  0
   11.0076   -1.0029    1.0575 H   0  0  0  0  0  0  0  0  0  0  0  0
    8.2111   -0.8402    1.3393 H   0  0  0  0  0  0  0  0  0  0  0  0
    7.5047   -2.6914    2.8078 H   0  0  0  0  0  0  0  0  0  0  0  0
    9.6532   -3.8141    3.9187 H   0  0  0  0  0  0  0  0  0  0  0  0
   10.5799   -3.5727    1.4623 H   0  0  0  0  0  0  0  0  0  0  0  0
   11.8120   -3.0708    2.5790 H   0  0  0  0  0  0  0  0  0  0  0  0
   10.9200   -1.9445    5.1400 H   0  0  0  0  0  0  0  0  0  0  0  0
    3.3105    2.4593    8.6959 H   0  0  0  0  0  0  0  0  0  0  0  0
    2.4083    4.3550    9.9209 H   0  0  0  0  0  0  0  0  0  0  0  0
   -0.2632    5.9168   10.0999 H   0  0  0  0  0  0  0  0  0  0  0  0
    0.1573    7.5107   10.8062 H   0  0  0  0  0  0  0  0  0  0  0  0
    1.2024    6.1311   11.1418 H   0  0  0  0  0  0  0  0  0  0  0  0
    1.6404    6.3174    6.0987 H   0  0  0  0  0  0  0  0  0  0  0  0
    1.9930    4.3210    4.9908 H   0  0  0  0  0  0  0  0  0  0  0  0
    3.2640   -0.7781    5.3811 H   0  0  0  0  0  0  0  0  0  0  0  0
    2.8333   -2.7909    6.6495 H   0  0  0  0  0  0  0  0  0  0  0  0
    3.2567   -4.3109    8.0500 H   0  0  0  0  0  0  0  0  0  0  0  0
    2.9713   -5.0513    9.5927 H   0  0  0  0  0  0  0  0  0  0  0  0
    3.9698   -3.5399    9.5449 H   0  0  0  0  0  0  0  0  0  0  0  0
    0.6996   -0.4342    9.5807 H   0  0  0  0  0  0  0  0  0  0  0  0
    0.6048    1.3446    8.0850 H   0  0  0  0  0  0  0  0  0  0  0  0
    0.9190    3.8208    1.6069 H   0  0  0  0  0  0  0  0  0  0  0  0
   -0.6959    5.5248    1.7606 H   0  0  0  0  0  0  0  0  0  0  0  0
   -4.9024    4.2144    0.0037 H   0  0  0  0  0  0  0  0  0  0  0  0
   -5.6311    5.8221    0.2086 H   0  0  0  0  0  0  0  0  0  0  0  0
   -5.0985    4.9674    1.6573 H   0  0  0  0  0  0  0  0  0  0  0  0
   -3.1791    3.4193   -1.0907 H   0  0  0  0  0  0  0  0  0  0  0  0
   -1.5383    1.5843   -1.1457 H   0  0  0  0  0  0  0  0  0  0  0  0
    0.7776   -0.9947   -0.8191 H   0  0  0  0  0  0  0  0  0  0  0  0
    2.7470   -1.9848   -1.8993 H   0  0  0  0  0  0  0  0  0  0  0  0
    5.4592   -1.6136   -4.6105 H   0  0  0  0  0  0  0  0  0  0  0  0
    4.5031   -0.0467   -4.4446 H   0  0  0  0  0  0  0  0  0  0  0  0
    6.4195   -0.0732   -4.3557 H   0  0  0  0  0  0  0  0  0  0  0  0
    4.7906    1.8262   -1.4001 H   0  0  0  0  0  0  0  0  0  0  0  0
    2.7318    2.7547   -0.4336 H   0  0  0  0  0  0  0  0  0  0  0  0
    1.8205   -4.0086    2.7016 H   0  0  0  0  0  0  0  0  0  0  0  0
    1.4262   -2.4803    3.5599 H   0  0  0  0  0  0  0  0  0  0  0  0
   -0.5889   -3.7064    4.5616 H   0  0  0  0  0  0  0  0  0  0  0  0
    0.9258   -4.5108    4.9074 H   0  0  0  0  0  0  0  0  0  0  0  0
   -0.1235   -5.1633    3.6258 H   0  0  0  0  0  0  0  0  0  0  0  0
   -4.0071   -4.7008    2.4208 H   0  0  0  0  0  0  0  0  0  0  0  0
   -2.6370   -4.5026    3.6744 H   0  0  0  0  0  0  0  0  0  0  0  0
   -3.2747   -6.9379    1.9184 H   0  0  0  0  0  0  0  0  0  0  0  0
   -1.5277   -6.6283    2.3661 H   0  0  0  0  0  0  0  0  0  0  0  0
   -2.7931   -6.7785    3.6499 H   0  0  0  0  0  0  0  0  0  0  0  0
   -3.5533   -6.2057   -1.2867 H   0  0  0  0  0  0  0  0  0  0  0  0
   -2.7539   -8.4053   -0.6417 H   0  0  0  0  0  0  0  0  0  0  0  0
    1.6648   -8.3908   -1.2784 H   0  0  0  0  0  0  0  0  0  0  0  0
    2.0684  -10.0762   -0.7699 H   0  0  0  0  0  0  0  0  0  0  0  0
    2.2592   -8.7643    0.4174 H   0  0  0  0  0  0  0  0  0  0  0  0
    1.0781   -6.6419    0.1623 H   0  0  0  0  0  0  0  0  0  0  0  0
    0.2382   -4.5660   -0.1377 H   0  0  0  0  0  0  0  0  0  0  0  0
   -0.9985   -6.3678   -3.7518 H   0  0  0  0  0  0  0  0  0  0  0  0
    1.1342   -6.3301   -4.3678 H   0  0  0  0  0  0  0  0  0  0  0  0
    1.1767   -4.8083   -7.4795 H   0  0  0  0  0  0  0  0  0  0  0  0
    2.9328   -4.9756   -7.8939 H   0  0  0  0  0  0  0  0  0  0  0  0
    2.1863   -6.2614   -6.9410 H   0  0  0  0  0  0  0  0  0  0  0  0
    0.8999   -2.0252   -4.8856 H   0  0  0  0  0  0  0  0  0  0  0  0
   -0.9422   -2.0324   -3.2992 H   0  0  0  0  0  0  0  0  0  0  0  0
   -4.5456    1.4284   -3.3922 H   0  0  0  0  0  0  0  0  0  0  0  0
   -4.6958    3.7947   -3.0935 H   0  0  0  0  0  0  0  0  0  0  0  0
   -5.0457    6.3462   -3.6051 H   0  0  0  0  0  0  0  0  0  0  0  0
   -4.7909    5.6689   -1.9643 H   0  0  0  0  0  0  0  0  0  0  0  0
   -5.4632    7.2501   -2.1237 H   0  0  0  0  0  0  0  0  0  0  0  0
   -8.9737    3.3214   -2.3223 H   0  0  0  0  0  0  0  0  0  0  0  0
   -8.7335    0.9700   -2.7468 H   0  0  0  0  0  0  0  0  0  0  0  0
   -7.5195    1.5310   -5.5566 H   0  0  0  0  0  0  0  0  0  0  0  0
   -9.1780    1.2115   -7.2391 H   0  0  0  0  0  0  0  0  0  0  0  0
  -11.5406    0.2937   -9.7909 H   0  0  0  0  0  0  0  0  0  0  0  0
   -9.9200    0.8004   -9.2548 H   0  0  0  0  0  0  0  0  0  0  0  0
  -11.3854    1.0661   -8.1980 H   0  0  0  0  0  0  0  0  0  0  0  0
   -9.4645   -2.9989   -6.1959 H   0  0  0  0  0  0  0  0  0  0  0  0
   -7.7981   -2.6112   -4.4281 H   0  0  0  0  0  0  0  0  0  0  0  0
   -5.2756   -0.5860   -6.7723 H   0  0  0  0  0  0  0  0  0  0  0  0
   -0.8685    2.1577   -3.3829 H   0  0  0  0  0  0  0  0  0  0  0  0
    2.9446    4.4544   -2.0135 H   0  0  0  0  0  0  0  0  0  0  0  0
    2.9927    5.1998   -3.6780 H   0  0  0  0  0  0  0  0  0  0  0  0
    1.9064    5.9320   -2.4024 H   0  0  0  0  0  0  0  0  0  0  0  0
   -1.0446    5.5991   -6.0161 H   0  0  0  0  0  0  0  0  0  0  0  0
   -2.7648    4.5819   -7.3363 H   0  0  0  0  0  0  0  0  0  0  0  0
  1  2  2  3
  2  3  1  0
  3  4  2  0
  3  5  1  0
  5  6  2  0
  6  7  1  0
  7  8  2  0
  8  9  1  0
  9 10  2  0
 10 11  1  0
 11 12  2  3
 12 13  1  0
 13 14  3  0
 12 15  1  0
 15 16  3  0
  8 17  1  0
 17 18  1  0
 18 19  1  0
 19 20  2  0
 20 21  1  0
 21 22  1  0
 21 23  1  0
  1 24  1  0
 24 25  2  0
 25 26  1  0
 26 27  1  0
 27 28  2  0
 28 29  1  0
 29 30  2  0
 30 31  1  0
 31 32  1  0
 30 33  1  0
 33 34  2  0
 26 35  1  0
 35 36  2  0
 36 37  1  0
 37 38  2  0
 38 39  1  0
 39 40  1  0
 38 41  1  0
 41 42  2  0
 25 43  1  0
 43 44  1  0
 44 45  1  0
 45 46  2  0
 46 47  1  0
 47 48  1  0
 48 49  2  0
 49 50  1  0
 50 51  2  0
 51 52  1  0
 52 53  1  0
 51 54  1  0
 54 55  2  0
 47 56  1  0
 56 57  2  0
 57 58  1  0
 58 59  2  0
 59 60  1  0
 60 61  1  0
 59 62  1  0
 62 63  2  0
 46 64  1  0
 64 65  1  0
 45 66  1  0
 66 67  2  0
 67 68  1  0
 68 69  1  0
 69 70  1  0
 67 71  1  0
 71 72  1  0
 72 73  1  0
 73 74  1  0
 71 75  2  0
 75 76  1  0
 76 77  1  0
 77 78  2  0
 78 79  1  0
 79 80  1  0
 75 81  1  0
 81 82  2  0
 82 83  1  0
 83 84  1  0
 84 85  2  0
 85 86  1  0
 86 87  2  0
 87 88  1  0
 88 89  1  0
 87 90  1  0
 90 91  2  0
 83 92  1  0
 92 93  2  0
 93 94  1  0
 94 95  2  0
 95 96  1  0
 96 97  1  0
 95 98  1  0
 98 99  2  0
 82100  1  0
100101  1  0
101102  1  0
102103  2  0
103104  1  0
104105  1  0
105106  2  0
106107  1  0
107108  2  0
108109  1  0
109110  1  0
108111  1  0
111112  2  0
104113  1  0
113114  2  0
114115  1  0
115116  2  0
116117  1  0
117118  1  0
116119  1  0
119120  2  0
103121  1  0
121122  1  0
102123  1  0
123124  2  3
124125  1  0
125126  2  0
125127  1  0
127128  2  0
128129  1  0
129130  1  0
130131  1  0
131132  2  0
131133  1  0
129134  2  0
134135  1  0
135136  2  0
136137  1  0
137138  2  3
138139  1  0
139140  3  0
138141  1  0
141142  3  0
 11  2  1  0
 23 17  1  0
 65 24  1  0
 77 66  1  0
122 81  1  0
137124  1  0
 10  5  1  0
 22 18  1  0
 34 27  1  0
 42 35  1  0
 64 43  2  0
 80 76  2  0
 91 84  1  0
 99 92  1  0
121100  2  0
136127  1  0
 23  7  1  0
 55 48  1  0
 63 56  1  0
112105  1  0
120113  1  0
  1143  1  0
  6144  1  0
  9145  1  0
 17146  1  0
 18147  1  0
 19148  1  0
 20149  1  0
 21150  1  0
 22151  1  0
 22152  1  0
 23153  1  0
 28154  1  0
 29155  1  0
 32156  1  0
 32157  1  0
 32158  1  0
 33159  1  0
 34160  1  0
 36161  1  0
 37162  1  0
 40163  1  0
 40164  1  0
 40165  1  0
 41166  1  0
 42167  1  0
 49168  1  0
 50169  1  0
 53170  1  0
 53171  1  0
 53172  1  0
 54173  1  0
 55174  1  0
 57175  1  0
 58176  1  0
 61177  1  0
 61178  1  0
 61179  1  0
 62180  1  0
 63181  1  0
 69182  1  0
 69183  1  0
 70184  1  0
 70185  1  0
 70186  1  0
 73187  1  0
 73188  1  0
 74189  1  0
 74190  1  0
 74191  1  0
 85192  1  0
 86193  1  0
 89194  1  0
 89195  1  0
 89196  1  0
 90197  1  0
 91198  1  0
 93199  1  0
 94200  1  0
 97201  1  0
 97202  1  0
 97203  1  0
 98204  1  0
 99205  1  0
106206  1  0
107207  1  0
110208  1  0
110209  1  0
110210  1  0
111211  1  0
112212  1  0
114213  1  0
115214  1  0
118215  1  0
118216  1  0
118217  1  0
119218  1  0
120219  1  0
123220  1  0
128221  1  0
133222  1  0
133223  1  0
133224  1  0
134225  1  0
135226  1  0
M  END

