
     RDKit          3D

216236  0  0  0  0  0  0  0  0999 V2000
    4.0028   -4.7651    0.0900 C   0  0  0  0  0  0  0  0  0  0  0  0
    4.1590   -4.8048    1.4229 C   0  0  0  0  0  0  0  0  0  0  0  0
    4.9076   -3.8319    2.2138 C   0  0  0  0  0  0  0  0  0  0  0  0
    5.5415   -2.8369    1.7652 O   0  0  0  0  0  0  0  0  0  0  0  0
    4.9086   -4.2642    3.5999 C   0  0  0  0  0  0  0  0  0  0  0  0
    5.3503   -3.5179    4.7196 C   0  0  0  0  0  0  0  0  0  0  0  0
    5.0371   -4.0916    5.9387 C   0  0  0  0  0  0  0  0  0  0  0  0
    4.3492   -5.3421    6.0556 C   0  0  0  0  0  0  0  0  0  0  0  0
    3.9330   -6.0901    4.9698 C   0  0  0  0  0  0  0  0  0  0  0  0
    4.2081   -5.5001    3.7015 C   0  0  0  0  0  0  0  0  0  0  0  0
    3.6966   -5.8898    2.3491 C   0  0  0  0  0  0  0  0  0  0  0  0
    2.7626   -6.8480    2.0714 C   0  0  0  0  0  0  0  0  0  0  0  0
    2.1154   -6.9604    0.7873 C   0  0  0  0  0  0  0  0  0  0  0  0
    1.6003   -7.0705   -0.2466 N   0  0  0  0  0  0  0  0  0  0  0  0
    2.2388   -7.7608    3.0554 C   0  0  0  0  0  0  0  0  0  0  0  0
    1.7864   -8.4938    3.8318 N   0  0  0  0  0  0  0  0  0  0  0  0
    4.3891   -5.2438    7.5446 C   0  0  0  0  0  0  0  0  0  0  0  0
    5.4173   -6.1546    8.2758 C   0  0  0  0  0  0  0  0  0  0  0  0
    5.5168   -5.6132    9.6799 C   0  0  0  0  0  0  0  0  0  0  0  0
    6.1456   -4.4366    9.5845 C   0  0  0  0  0  0  0  0  0  0  0  0
    6.4542   -4.2300    8.1201 C   0  0  0  0  0  0  0  0  0  0  0  0
    6.7550   -5.6701    7.7419 C   0  0  0  0  0  0  0  0  0  0  0  0
    5.0831   -3.9597    7.4315 C   0  0  0  0  0  0  0  0  0  0  0  0
    3.7401   -3.5485   -0.7032 C   0  0  0  0  0  0  0  0  0  0  0  0
    3.0026   -2.4025   -0.3120 C   0  0  0  0  0  0  0  0  0  0  0  0
    2.7629   -1.9308    1.0319 N   0  0  0  0  0  0  0  0  0  0  0  0
    3.2821   -0.6279    1.4283 C   0  0  0  0  0  0  0  0  0  0  0  0
    2.6484    0.1414    2.4323 C   0  0  0  0  0  0  0  0  0  0  0  0
    3.1896    1.3593    2.8541 C   0  0  0  0  0  0  0  0  0  0  0  0
    4.3430    1.8629    2.2477 C   0  0  0  0  0  0  0  0  0  0  0  0
    5.0324    3.4165    2.8152 S   0  0  0  0  0  0  0  0  0  0  0  0
    6.4287    2.6585    3.7272 C   0  0  0  0  0  0  0  0  0  0  0  0
    4.9502    1.1483    1.2075 C   0  0  0  0  0  0  0  0  0  0  0  0
    4.4325   -0.0947    0.8115 C   0  0  0  0  0  0  0  0  0  0  0  0
    1.8055   -2.6228    1.8620 C   0  0  0  0  0  0  0  0  0  0  0  0
    0.5789   -3.0545    1.3338 C   0  0  0  0  0  0  0  0  0  0  0  0
   -0.3608   -3.6823    2.1580 C   0  0  0  0  0  0  0  0  0  0  0  0
   -0.0703   -3.9298    3.5011 C   0  0  0  0  0  0  0  0  0  0  0  0
   -1.2097   -4.8719    4.5117 S   0  0  0  0  0  0  0  0  0  0  0  0
   -2.1210   -3.4071    5.0849 C   0  0  0  0  0  0  0  0  0  0  0  0
    1.1368   -3.4848    4.0408 C   0  0  0  0  0  0  0  0  0  0  0  0
    2.0561   -2.8092    3.2372 C   0  0  0  0  0  0  0  0  0  0  0  0
    2.4713   -1.7492   -1.4184 C   0  0  0  0  0  0  0  0  0  0  0  0
    1.3162   -0.5651   -1.5337 S   0  0  0  0  0  0  0  0  0  0  0  0
    1.1654   -0.6931   -3.2228 C   0  0  0  0  0  0  0  0  0  0  0  0
    2.0510   -1.6715   -3.7221 C   0  0  0  0  0  0  0  0  0  0  0  0
    2.1994   -2.0006   -5.1232 N   0  0  0  0  0  0  0  0  0  0  0  0
    2.2418   -0.9562   -6.1225 C   0  0  0  0  0  0  0  0  0  0  0  0
    1.6572   -1.1397   -7.3958 C   0  0  0  0  0  0  0  0  0  0  0  0
    1.6739   -0.1078   -8.3423 C   0  0  0  0  0  0  0  0  0  0  0  0
    2.2836    1.1142   -8.0426 C   0  0  0  0  0  0  0  0  0  0  0  0
    2.2976    2.4286   -9.2619 S   0  0  0  0  0  0  0  0  0  0  0  0
    0.7126    3.1348   -8.7036 C   0  0  0  0  0  0  0  0  0  0  0  0
    2.8793    1.3020   -6.7929 C   0  0  0  0  0  0  0  0  0  0  0  0
    2.8753    0.2722   -5.8446 C   0  0  0  0  0  0  0  0  0  0  0  0
    2.3373   -3.3710   -5.5313 C   0  0  0  0  0  0  0  0  0  0  0  0
    3.6086   -3.9627   -5.6074 C   0  0  0  0  0  0  0  0  0  0  0  0
    3.7404   -5.3047   -5.9797 C   0  0  0  0  0  0  0  0  0  0  0  0
    2.6079   -6.0494   -6.3436 C   0  0  0  0  0  0  0  0  0  0  0  0
    2.7749   -7.7777   -6.7981 S   0  0  0  0  0  0  0  0  0  0  0  0
    3.2266   -7.4163   -8.5248 C   0  0  0  0  0  0  0  0  0  0  0  0
    1.3444   -5.4459   -6.3242 C   0  0  0  0  0  0  0  0  0  0  0  0
    1.2098   -4.1135   -5.9161 C   0  0  0  0  0  0  0  0  0  0  0  0
    2.7428   -2.2700   -2.6475 C   0  0  0  0  0  0  0  0  0  0  0  0
    3.6962   -3.6323   -2.4153 S   0  0  0  0  0  0  0  0  0  0  0  0
    0.1629    0.1036   -3.9247 C   0  0  0  0  0  0  0  0  0  0  0  0
   -1.2083   -0.1261   -3.6624 C   0  0  0  0  0  0  0  0  0  0  0  0
   -1.8701   -1.4084   -3.7713 N   0  0  0  0  0  0  0  0  0  0  0  0
   -1.7121   -2.3939   -2.7311 C   0  0  0  0  0  0  0  0  0  0  0  0
   -0.7151   -3.3757   -2.8353 C   0  0  0  0  0  0  0  0  0  0  0  0
   -0.7117   -4.4877   -1.9891 C   0  0  0  0  0  0  0  0  0  0  0  0
   -1.7291   -4.6484   -1.0449 C   0  0  0  0  0  0  0  0  0  0  0  0
   -1.7396   -6.1006    0.0094 S   0  0  0  0  0  0  0  0  0  0  0  0
   -2.6547   -7.1404   -1.1698 C   0  0  0  0  0  0  0  0  0  0  0  0
   -2.7044   -3.6483   -0.8945 C   0  0  0  0  0  0  0  0  0  0  0  0
   -2.6980   -2.5322   -1.7430 C   0  0  0  0  0  0  0  0  0  0  0  0
   -2.7825   -1.6823   -4.8701 C   0  0  0  0  0  0  0  0  0  0  0  0
   -3.3959   -0.6400   -5.6039 C   0  0  0  0  0  0  0  0  0  0  0  0
   -4.3115   -0.9220   -6.6205 C   0  0  0  0  0  0  0  0  0  0  0  0
   -4.6265   -2.2454   -6.9442 C   0  0  0  0  0  0  0  0  0  0  0  0
   -5.7689   -2.6041   -8.2783 S   0  0  0  0  0  0  0  0  0  0  0  0
   -7.2480   -2.5414   -7.2188 C   0  0  0  0  0  0  0  0  0  0  0  0
   -4.0022   -3.2899   -6.2549 C   0  0  0  0  0  0  0  0  0  0  0  0
   -3.0969   -3.0116   -5.2269 C   0  0  0  0  0  0  0  0  0  0  0  0
   -1.8680    1.0474   -3.2955 C   0  0  0  0  0  0  0  0  0  0  0  0
   -3.2624    1.3340   -2.4033 S   0  0  0  0  0  0  0  0  0  0  0  0
   -2.8762    2.9672   -2.0912 C   0  0  0  0  0  0  0  0  0  0  0  0
   -1.6340    3.2792   -2.6776 C   0  0  0  0  0  0  0  0  0  0  0  0
   -0.8611    4.4662   -2.4101 N   0  0  0  0  0  0  0  0  0  0  0  0
   -0.1029    5.0988   -3.4676 C   0  0  0  0  0  0  0  0  0  0  0  0
    1.1405    5.7107   -3.1946 C   0  0  0  0  0  0  0  0  0  0  0  0
    1.8850    6.2929   -4.2246 C   0  0  0  0  0  0  0  0  0  0  0  0
    1.3951    6.2902   -5.5335 C   0  0  0  0  0  0  0  0  0  0  0  0
    2.3297    7.0885   -6.8402 S   0  0  0  0  0  0  0  0  0  0  0  0
    3.2973    5.5997   -7.2397 C   0  0  0  0  0  0  0  0  0  0  0  0
    0.1642    5.6891   -5.8184 C   0  0  0  0  0  0  0  0  0  0  0  0
   -0.5824    5.1014   -4.7914 C   0  0  0  0  0  0  0  0  0  0  0  0
   -0.6719    4.8767   -1.0473 C   0  0  0  0  0  0  0  0  0  0  0  0
   -1.1465    6.1244   -0.6199 C   0  0  0  0  0  0  0  0  0  0  0  0
   -0.9761    6.5243    0.7071 C   0  0  0  0  0  0  0  0  0  0  0  0
   -0.2929    5.6932    1.6066 C   0  0  0  0  0  0  0  0  0  0  0  0
   -0.0604    6.2084    3.3092 S   0  0  0  0  0  0  0  0  0  0  0  0
    1.3684    7.2675    2.9307 C   0  0  0  0  0  0  0  0  0  0  0  0
    0.1953    4.4521    1.1775 C   0  0  0  0  0  0  0  0  0  0  0  0
   -0.0035    4.0390   -0.1435 C   0  0  0  0  0  0  0  0  0  0  0  0
   -1.1247    2.1768   -3.3542 C   0  0  0  0  0  0  0  0  0  0  0  0
    0.4250    1.7831   -3.8214 S   0  0  0  0  0  0  0  0  0  0  0  0
   -3.5909    3.8033   -1.1142 C   0  0  0  0  0  0  0  0  0  0  0  0
   -3.4568    3.5544    0.2680 C   0  0  0  0  0  0  0  0  0  0  0  0
   -2.7040    2.5166    0.7267 N   0  0  0  0  0  0  0  0  0  0  0  0
   -2.5133    2.3113    2.0555 C   0  0  0  0  0  0  0  0  0  0  0  0
   -3.0816    3.1927    2.9773 C   0  0  0  0  0  0  0  0  0  0  0  0
   -2.8553    3.0132    4.3463 O   0  0  0  0  0  0  0  0  0  0  0  0
   -3.3461    3.9190    5.3305 C   0  0  0  0  0  0  0  0  0  0  0  0
   -2.8895    3.4734    6.7101 C   0  0  0  0  0  0  0  0  0  0  0  0
   -3.8432    4.2239    2.5269 N   0  0  0  0  0  0  0  0  0  0  0  0
   -4.0675    4.4197    1.1993 C   0  0  0  0  0  0  0  0  0  0  0  0
   -4.8906    5.4726    0.7517 C   0  0  0  0  0  0  0  0  0  0  0  0
   -4.9811    5.7343   -0.6248 C   0  0  0  0  0  0  0  0  0  0  0  0
   -4.3238    4.9146   -1.5505 C   0  0  0  0  0  0  0  0  0  0  0  0
   -4.4146    5.1914   -2.8736 F   0  0  0  0  0  0  0  0  0  0  0  0
   -5.7178    6.7819   -1.0746 F   0  0  0  0  0  0  0  0  0  0  0  0
   -5.6071    6.3430    1.7094 C   0  0  0  0  0  0  0  0  0  0  0  0
   -6.4907    5.8768    2.6177 C   0  0  0  0  0  0  0  0  0  0  0  0
   -6.8718    4.4698    2.8068 C   0  0  0  0  0  0  0  0  0  0  0  0
   -6.7551    3.5395    1.9628 O   0  0  0  0  0  0  0  0  0  0  0  0
   -7.4424    4.3239    4.1262 C   0  0  0  0  0  0  0  0  0  0  0  0
   -7.7777    3.1483    4.7983 C   0  0  0  0  0  0  0  0  0  0  0  0
   -8.2180    3.2411    6.1296 C   0  0  0  0  0  0  0  0  0  0  0  0
   -8.6440    1.7864    7.0121 Cl  0  0  0  0  0  0  0  0  0  0  0  0
   -8.2874    4.4953    6.7615 C   0  0  0  0  0  0  0  0  0  0  0  0
   -7.9344    5.6652    6.0713 C   0  0  0  0  0  0  0  0  0  0  0  0
   -7.5344    5.5679    4.7289 C   0  0  0  0  0  0  0  0  0  0  0  0
   -7.0802    6.6198    3.7749 C   0  0  0  0  0  0  0  0  0  0  0  0
   -7.3518    7.9487    3.8423 C   0  0  0  0  0  0  0  0  0  0  0  0
   -7.0712    8.8514    2.7583 C   0  0  0  0  0  0  0  0  0  0  0  0
   -6.8593    9.5846    1.8899 N   0  0  0  0  0  0  0  0  0  0  0  0
   -8.0824    8.5329    4.9353 C   0  0  0  0  0  0  0  0  0  0  0  0
   -8.6730    9.0206    5.8085 N   0  0  0  0  0  0  0  0  0  0  0  0
    3.8527   -5.6894   -0.4442 H   0  0  0  0  0  0  0  0  0  0  0  0
    5.8383   -2.5559    4.6367 H   0  0  0  0  0  0  0  0  0  0  0  0
    3.4116   -7.0118    5.1224 H   0  0  0  0  0  0  0  0  0  0  0  0
    3.3816   -5.1860    8.0064 H   0  0  0  0  0  0  0  0  0  0  0  0
    5.2299   -7.2468    8.2001 H   0  0  0  0  0  0  0  0  0  0  0  0
    5.2507   -6.1333   10.5967 H   0  0  0  0  0  0  0  0  0  0  0  0
    6.4705   -3.8271   10.4228 H   0  0  0  0  0  0  0  0  0  0  0  0
    7.2564   -3.4909    7.9049 H   0  0  0  0  0  0  0  0  0  0  0  0
    6.8992   -5.8399    6.6512 H   0  0  0  0  0  0  0  0  0  0  0  0
    7.6358   -6.0977    8.2880 H   0  0  0  0  0  0  0  0  0  0  0  0
    4.5112   -3.0839    7.8162 H   0  0  0  0  0  0  0  0  0  0  0  0
    1.7306   -0.1893    2.8967 H   0  0  0  0  0  0  0  0  0  0  0  0
    2.7059    1.9136    3.6522 H   0  0  0  0  0  0  0  0  0  0  0  0
    6.6205    3.2504    4.6442 H   0  0  0  0  0  0  0  0  0  0  0  0
    7.3346    2.6605    3.0876 H   0  0  0  0  0  0  0  0  0  0  0  0
    6.2065    1.6158    4.0366 H   0  0  0  0  0  0  0  0  0  0  0  0
    5.8347    1.5400    0.7132 H   0  0  0  0  0  0  0  0  0  0  0  0
    4.9353   -0.6309    0.0155 H   0  0  0  0  0  0  0  0  0  0  0  0
    0.3317   -2.8638    0.3018 H   0  0  0  0  0  0  0  0  0  0  0  0
   -1.3202   -3.9785    1.7579 H   0  0  0  0  0  0  0  0  0  0  0  0
   -1.4328   -2.6571    5.5317 H   0  0  0  0  0  0  0  0  0  0  0  0
   -2.6762   -2.9479    4.2415 H   0  0  0  0  0  0  0  0  0  0  0  0
   -2.8431   -3.7230    5.8691 H   0  0  0  0  0  0  0  0  0  0  0  0
    1.3704   -3.6597    5.0812 H   0  0  0  0  0  0  0  0  0  0  0  0
    2.9643   -2.4326    3.6839 H   0  0  0  0  0  0  0  0  0  0  0  0
    1.1688   -2.0671   -7.6653 H   0  0  0  0  0  0  0  0  0  0  0  0
    1.2111   -0.2606   -9.3098 H   0  0  0  0  0  0  0  0  0  0  0  0
    0.7439    3.3392   -7.6163 H   0  0  0  0  0  0  0  0  0  0  0  0
    0.5357    4.0821   -9.2451 H   0  0  0  0  0  0  0  0  0  0  0  0
   -0.1137    2.4257   -8.9268 H   0  0  0  0  0  0  0  0  0  0  0  0
    3.3569    2.2441   -6.5515 H   0  0  0  0  0  0  0  0  0  0  0  0
    3.3510    0.4428   -4.8849 H   0  0  0  0  0  0  0  0  0  0  0  0
    4.4884   -3.3889   -5.3448 H   0  0  0  0  0  0  0  0  0  0  0  0
    4.7226   -5.7677   -5.9852 H   0  0  0  0  0  0  0  0  0  0  0  0
    4.1510   -6.7987   -8.5609 H   0  0  0  0  0  0  0  0  0  0  0  0
    2.3994   -6.8784   -9.0341 H   0  0  0  0  0  0  0  0  0  0  0  0
    3.4125   -8.3757   -9.0582 H   0  0  0  0  0  0  0  0  0  0  0  0
    0.4623   -6.0043   -6.6178 H   0  0  0  0  0  0  0  0  0  0  0  0
    0.2330   -3.6508   -5.9231 H   0  0  0  0  0  0  0  0  0  0  0  0
    0.0122   -3.3303   -3.6226 H   0  0  0  0  0  0  0  0  0  0  0  0
    0.0501   -5.2477   -2.1048 H   0  0  0  0  0  0  0  0  0  0  0  0
   -2.6624   -8.1803   -0.7927 H   0  0  0  0  0  0  0  0  0  0  0  0
   -3.7032   -6.7819   -1.2589 H   0  0  0  0  0  0  0  0  0  0  0  0
   -2.1710   -7.1234   -2.1642 H   0  0  0  0  0  0  0  0  0  0  0  0
   -3.4832   -3.7541   -0.1453 H   0  0  0  0  0  0  0  0  0  0  0  0
   -3.4982   -1.8033   -1.6666 H   0  0  0  0  0  0  0  0  0  0  0  0
   -3.2039    0.3974   -5.3893 H   0  0  0  0  0  0  0  0  0  0  0  0
   -4.7866   -0.1044   -7.1513 H   0  0  0  0  0  0  0  0  0  0  0  0
   -8.1391   -2.8033   -7.8272 H   0  0  0  0  0  0  0  0  0  0  0  0
   -7.3918   -1.5198   -6.8107 H   0  0  0  0  0  0  0  0  0  0  0  0
   -7.1659   -3.2653   -6.3824 H   0  0  0  0  0  0  0  0  0  0  0  0
   -4.2223   -4.3205   -6.5124 H   0  0  0  0  0  0  0  0  0  0  0  0
   -2.6370   -3.8497   -4.7208 H   0  0  0  0  0  0  0  0  0  0  0  0
    1.5473    5.7258   -2.1910 H   0  0  0  0  0  0  0  0  0  0  0  0
    2.8371    6.7585   -3.9982 H   0  0  0  0  0  0  0  0  0  0  0  0
    2.6206    4.7815   -7.5427 H   0  0  0  0  0  0  0  0  0  0  0  0
    3.9818    5.8207   -8.0861 H   0  0  0  0  0  0  0  0  0  0  0  0
    3.8979    5.2784   -6.3645 H   0  0  0  0  0  0  0  0  0  0  0  0
   -0.2253    5.6937   -6.8285 H   0  0  0  0  0  0  0  0  0  0  0  0
   -1.5399    4.6525   -5.0281 H   0  0  0  0  0  0  0  0  0  0  0  0
   -1.6616    6.7759   -1.3137 H   0  0  0  0  0  0  0  0  0  0  0  0
   -1.3572    7.4811    1.0342 H   0  0  0  0  0  0  0  0  0  0  0  0
    2.1704    6.6773    2.4377 H   0  0  0  0  0  0  0  0  0  0  0  0
    1.7675    7.7017    3.8738 H   0  0  0  0  0  0  0  0  0  0  0  0
    1.0544    8.1027    2.2725 H   0  0  0  0  0  0  0  0  0  0  0  0
    0.7213    3.8000    1.8660 H   0  0  0  0  0  0  0  0  0  0  0  0
    0.3689    3.0758   -0.4687 H   0  0  0  0  0  0  0  0  0  0  0  0
   -1.9083    1.4772    2.3889 H   0  0  0  0  0  0  0  0  0  0  0  0
   -2.9543    4.9429    5.1345 H   0  0  0  0  0  0  0  0  0  0  0  0
   -4.4562    3.9420    5.2999 H   0  0  0  0  0  0  0  0  0  0  0  0
   -1.7782    3.4321    6.7419 H   0  0  0  0  0  0  0  0  0  0  0  0
   -3.2439    4.1958    7.4732 H   0  0  0  0  0  0  0  0  0  0  0  0
   -3.3007    2.4648    6.9370 H   0  0  0  0  0  0  0  0  0  0  0  0
   -5.3298    7.3853    1.6866 H   0  0  0  0  0  0  0  0  0  0  0  0
   -7.6850    2.1844    4.3114 H   0  0  0  0  0  0  0  0  0  0  0  0
   -8.5966    4.5603    7.7962 H   0  0  0  0  0  0  0  0  0  0  0  0
   -7.9472    6.6031    6.6023 H   0  0  0  0  0  0  0  0  0  0  0  0
  1  2  2  3
  2  3  1  0
  3  4  2  0
  3  5  1  0
  5  6  2  0
  6  7  1  0
  7  8  2  0
  8  9  1  0
  9 10  2  0
 10 11  1  0
 11 12  2  3
 12 13  1  0
 13 14  3  0
 12 15  1  0
 15 16  3  0
  8 17  1  0
 17 18  1  0
 18 19  1  0
 19 20  2  0
 20 21  1  0
 21 22  1  0
 21 23  1  0
  1 24  1  0
 24 25  2  0
 25 26  1  0
 26 27  1  0
 27 28  2  0
 28 29  1  0
 29 30  2  0
 30 31  1  0
 31 32  1  0
 30 33  1  0
 33 34  2  0
 26 35  1  0
 35 36  2  0
 36 37  1  0
 37 38  2  0
 38 39  1  0
 39 40  1  0
 38 41  1  0
 41 42  2  0
 25 43  1  0
 43 44  1  0
 44 45  1  0
 45 46  2  0
 46 47  1  0
 47 48  1  0
 48 49  2  0
 49 50  1  0
 50 51  2  0
 51 52  1  0
 52 53  1  0
 51 54  1  0
 54 55  2  0
 47 56  1  0
 56 57  2  0
 57 58  1  0
 58 59  2  0
 59 60  1  0
 60 61  1  0
 59 62  1  0
 62 63  2  0
 46 64  1  0
 64 65  1  0
 45 66  1  0
 66 67  2  0
 67 68  1  0
 68 69  1  0
 69 70  2  0
 70 71  1  0
 71 72  2  0
 72 73  1  0
 73 74  1  0
 72 75  1  0
 75 76  2  0
 68 77  1  0
 77 78  2  0
 78 79  1  0
 79 80  2  0
 80 81  1  0
 81 82  1  0
 80 83  1  0
 83 84  2  0
 67 85  1  0
 85 86  1  0
 86 87  1  0
 87 88  2  0
 88 89  1  0
 89 90  1  0
 90 91  2  0
 91 92  1  0
 92 93  2  0
 93 94  1  0
 94 95  1  0
 93 96  1  0
 96 97  2  0
 89 98  1  0
 98 99  2  0
 99100  1  0
100101  2  0
101102  1  0
102103  1  0
101104  1  0
104105  2  0
 88106  1  0
106107  1  0
 87108  1  0
108109  1  0
109110  2  0
110111  1  0
111112  2  0
112113  1  0
113114  1  0
114115  1  0
112116  1  0
116117  2  0
117118  1  0
118119  2  0
119120  1  0
120121  1  0
119122  1  0
118123  1  0
123124  2  3
124125  1  0
125126  2  0
125127  1  0
127128  2  0
128129  1  0
129130  1  0
129131  2  0
131132  1  0
132133  2  0
133134  1  0
134135  2  3
135136  1  0
136137  3  0
135138  1  0
138139  3  0
 11  2  1  0
 23 17  1  0
 65 24  1  0
107 66  1  0
120108  2  0
134124  1  0
 10  5  1  0
 22 18  1  0
 34 27  1  0
 42 35  1  0
 64 43  2  0
 76 69  1  0
 84 77  1  0
106 85  2  0
117109  1  0
133127  1  0
 23  7  1  0
 55 48  1  0
 63 56  1  0
 97 90  1  0
105 98  1  0
  1140  1  0
  6141  1  0
  9142  1  0
 17143  1  0
 18144  1  0
 19145  1  0
 20146  1  0
 21147  1  0
 22148  1  0
 22149  1  0
 23150  1  0
 28151  1  0
 29152  1  0
 32153  1  0
 32154  1  0
 32155  1  0
 33156  1  0
 34157  1  0
 36158  1  0
 37159  1  0
 40160  1  0
 40161  1  0
 40162  1  0
 41163  1  0
 42164  1  0
 49165  1  0
 50166  1  0
 53167  1  0
 53168  1  0
 53169  1  0
 54170  1  0
 55171  1  0
 57172  1  0
 58173  1  0
 61174  1  0
 61175  1  0
 61176  1  0
 62177  1  0
 63178  1  0
 70179  1  0
 71180  1  0
 74181  1  0
 74182  1  0
 74183  1  0
 75184  1  0
 76185  1  0
 78186  1  0
 79187  1  0
 82188  1  0
 82189  1  0
 82190  1  0
 83191  1  0
 84192  1  0
 91193  1  0
 92194  1  0
 95195  1  0
 95196  1  0
 95197  1  0
 96198  1  0
 97199  1  0
 99200  1  0
100201  1  0
103202  1  0
103203  1  0
103204  1  0
104205  1  0
105206  1  0
111207  1  0
114208  1  0
114209  1  0
115210  1  0
115211  1  0
115212  1  0
123213  1  0
128214  1  0
131215  1  0
132216  1  0
M  END

