
     RDKit          3D

209232  0  0  0  0  0  0  0  0999 V2000
    4.5309   -6.9434    1.9185 C   0  0  0  0  0  0  0  0  0  0  0  0
    5.3681   -6.0471    2.4759 C   0  0  0  0  0  0  0  0  0  0  0  0
    6.1939   -6.3488    3.6468 C   0  0  0  0  0  0  0  0  0  0  0  0
    6.6006   -7.4902    3.9928 O   0  0  0  0  0  0  0  0  0  0  0  0
    6.3456   -5.1251    4.4211 C   0  0  0  0  0  0  0  0  0  0  0  0
    6.9442   -4.9698    5.6942 C   0  0  0  0  0  0  0  0  0  0  0  0
    6.8283   -3.6913    6.2150 C   0  0  0  0  0  0  0  0  0  0  0  0
    6.1343   -2.6327    5.5430 C   0  0  0  0  0  0  0  0  0  0  0  0
    5.5430   -2.7773    4.3034 C   0  0  0  0  0  0  0  0  0  0  0  0
    5.6981   -4.0681    3.7323 C   0  0  0  0  0  0  0  0  0  0  0  0
    5.2335   -4.5660    2.4212 C   0  0  0  0  0  0  0  0  0  0  0  0
    5.1568   -3.8359    1.2834 C   0  0  0  0  0  0  0  0  0  0  0  0
    5.2705   -4.4650   -0.0088 C   0  0  0  0  0  0  0  0  0  0  0  0
    5.3805   -4.9614   -1.0469 N   0  0  0  0  0  0  0  0  0  0  0  0
    5.2086   -2.3970    1.2841 C   0  0  0  0  0  0  0  0  0  0  0  0
    5.2515   -1.2396    1.2720 N   0  0  0  0  0  0  0  0  0  0  0  0
    6.4385   -1.6928    6.6698 C   0  0  0  0  0  0  0  0  0  0  0  0
    7.5298   -0.6078    6.4230 C   0  0  0  0  0  0  0  0  0  0  0  0
    8.5527   -1.1195    5.4356 C   0  0  0  0  0  0  0  0  0  0  0  0
    9.2139   -2.1011    6.0479 C   0  0  0  0  0  0  0  0  0  0  0  0
    8.6231   -2.2228    7.4347 C   0  0  0  0  0  0  0  0  0  0  0  0
    8.3372   -0.7552    7.6983 C   0  0  0  0  0  0  0  0  0  0  0  0
    7.1648   -2.7694    7.3507 C   0  0  0  0  0  0  0  0  0  0  0  0
    3.2358   -6.5306    1.3353 C   0  0  0  0  0  0  0  0  0  0  0  0
    2.2818   -5.8436    2.1076 C   0  0  0  0  0  0  0  0  0  0  0  0
    2.2406   -5.5513    3.5450 C   0  0  0  0  0  0  0  0  0  0  0  0
    3.0631   -5.9610    4.4067 O   0  0  0  0  0  0  0  0  0  0  0  0
    1.0880   -4.7738    3.8605 N   0  0  0  0  0  0  0  0  0  0  0  0
    0.8477   -4.0393    5.1002 C   0  0  0  0  0  0  0  0  0  0  0  0
    1.4511   -2.6423    5.0184 C   0  0  0  0  0  0  0  0  0  0  0  0
    0.4349   -4.5694    2.6102 C   0  0  0  0  0  0  0  0  0  0  0  0
   -0.6168   -3.8895    2.4719 O   0  0  0  0  0  0  0  0  0  0  0  0
    1.1662   -5.2516    1.5382 C   0  0  0  0  0  0  0  0  0  0  0  0
    0.9172   -5.3101    0.1605 C   0  0  0  0  0  0  0  0  0  0  0  0
    1.7843   -6.0957   -0.6199 C   0  0  0  0  0  0  0  0  0  0  0  0
    2.9335   -6.7255   -0.0266 C   0  0  0  0  0  0  0  0  0  0  0  0
    3.7248   -7.4460   -0.8619 N   0  0  0  0  0  0  0  0  0  0  0  0
    2.9183   -7.2391   -2.2907 S   0  0  0  0  0  0  0  0  0  0  0  0
    1.6121   -6.2829   -1.9520 N   0  0  0  0  0  0  0  0  0  0  0  0
   -0.1044   -4.4413   -0.4346 C   0  0  0  0  0  0  0  0  0  0  0  0
    0.0721   -3.0577   -0.5864 C   0  0  0  0  0  0  0  0  0  0  0  0
    1.3353   -2.4184   -0.8396 N   0  0  0  0  0  0  0  0  0  0  0  0
    1.6731   -1.2332   -0.0931 C   0  0  0  0  0  0  0  0  0  0  0  0
    1.7485   -1.2767    1.3061 C   0  0  0  0  0  0  0  0  0  0  0  0
    2.0483   -0.1208    2.0332 C   0  0  0  0  0  0  0  0  0  0  0  0
    2.2688    1.0900    1.3675 C   0  0  0  0  0  0  0  0  0  0  0  0
    2.6229    2.5777    2.3040 S   0  0  0  0  0  0  0  0  0  0  0  0
    0.8708    3.0505    2.4360 C   0  0  0  0  0  0  0  0  0  0  0  0
    2.2070    1.1394   -0.0292 C   0  0  0  0  0  0  0  0  0  0  0  0
    1.9071   -0.0151   -0.7568 C   0  0  0  0  0  0  0  0  0  0  0  0
    2.0867   -2.7654   -2.0279 C   0  0  0  0  0  0  0  0  0  0  0  0
    3.4711   -2.5259   -2.0907 C   0  0  0  0  0  0  0  0  0  0  0  0
    4.1983   -2.8424   -3.2405 C   0  0  0  0  0  0  0  0  0  0  0  0
    3.5519   -3.3941   -4.3501 C   0  0  0  0  0  0  0  0  0  0  0  0
    4.4868   -3.7979   -5.8254 S   0  0  0  0  0  0  0  0  0  0  0  0
    4.2419   -2.1558   -6.5721 C   0  0  0  0  0  0  0  0  0  0  0  0
    2.1747   -3.6288   -4.3066 C   0  0  0  0  0  0  0  0  0  0  0  0
    1.4438   -3.3115   -3.1590 C   0  0  0  0  0  0  0  0  0  0  0  0
   -1.1451   -2.4119   -0.7220 C   0  0  0  0  0  0  0  0  0  0  0  0
   -1.5840   -0.8175   -0.9317 S   0  0  0  0  0  0  0  0  0  0  0  0
   -3.2424   -1.1688   -1.0439 C   0  0  0  0  0  0  0  0  0  0  0  0
   -3.4517   -2.5550   -0.9484 C   0  0  0  0  0  0  0  0  0  0  0  0
   -4.6674   -3.2220   -1.3243 N   0  0  0  0  0  0  0  0  0  0  0  0
   -4.6687   -4.1656   -2.4170 C   0  0  0  0  0  0  0  0  0  0  0  0
   -5.5270   -5.2786   -2.3957 C   0  0  0  0  0  0  0  0  0  0  0  0
   -5.5204   -6.1989   -3.4484 C   0  0  0  0  0  0  0  0  0  0  0  0
   -4.6602   -6.0140   -4.5372 C   0  0  0  0  0  0  0  0  0  0  0  0
   -4.6620   -7.1840   -5.8967 S   0  0  0  0  0  0  0  0  0  0  0  0
   -3.3548   -8.2181   -5.1672 C   0  0  0  0  0  0  0  0  0  0  0  0
   -3.8097   -4.9053   -4.5720 C   0  0  0  0  0  0  0  0  0  0  0  0
   -3.8113   -3.9866   -3.5195 C   0  0  0  0  0  0  0  0  0  0  0  0
   -5.9025   -2.8463   -0.7016 C   0  0  0  0  0  0  0  0  0  0  0  0
   -6.8722   -2.1397   -1.4290 C   0  0  0  0  0  0  0  0  0  0  0  0
   -8.0845   -1.7935   -0.8290 C   0  0  0  0  0  0  0  0  0  0  0  0
   -8.3488   -2.1786    0.4913 C   0  0  0  0  0  0  0  0  0  0  0  0
   -9.9013   -1.7234    1.2647 S   0  0  0  0  0  0  0  0  0  0  0  0
  -10.7581   -3.2305    0.7143 C   0  0  0  0  0  0  0  0  0  0  0  0
   -7.3919   -2.9050    1.2116 C   0  0  0  0  0  0  0  0  0  0  0  0
   -6.1648   -3.2243    0.6218 C   0  0  0  0  0  0  0  0  0  0  0  0
   -2.2391   -3.2138   -0.7390 C   0  0  0  0  0  0  0  0  0  0  0  0
   -1.7713   -4.8140   -0.5098 S   0  0  0  0  0  0  0  0  0  0  0  0
   -4.2263   -0.1144   -1.2573 C   0  0  0  0  0  0  0  0  0  0  0  0
   -4.6437    0.6971   -0.2038 C   0  0  0  0  0  0  0  0  0  0  0  0
   -4.8844    2.0307   -0.5790 C   0  0  0  0  0  0  0  0  0  0  0  0
   -5.0493    3.1174    0.3101 C   0  0  0  0  0  0  0  0  0  0  0  0
   -5.0723    2.9184    1.7784 C   0  0  0  0  0  0  0  0  0  0  0  0
   -4.0396    3.4377    2.5806 C   0  0  0  0  0  0  0  0  0  0  0  0
   -4.0538    3.2432    3.9637 C   0  0  0  0  0  0  0  0  0  0  0  0
   -5.0856    2.5124    4.5568 C   0  0  0  0  0  0  0  0  0  0  0  0
   -6.0930    1.9532    3.7630 C   0  0  0  0  0  0  0  0  0  0  0  0
   -7.3600    0.9211    4.5038 S   0  0  0  0  0  0  0  0  0  0  0  0
   -6.2953   -0.5527    4.7430 C   0  0  0  0  0  0  0  0  0  0  0  0
   -5.5844   -0.9869    3.4640 C   0  0  0  0  0  0  0  0  0  0  0  0
   -6.0935    2.1655    2.3784 C   0  0  0  0  0  0  0  0  0  0  0  0
   -4.9686    4.4099   -0.2469 C   0  0  0  0  0  0  0  0  0  0  0  0
   -4.6799    4.6275   -1.5989 C   0  0  0  0  0  0  0  0  0  0  0  0
   -4.5453    3.5433   -2.4887 C   0  0  0  0  0  0  0  0  0  0  0  0
   -4.0338    3.7212   -3.8641 C   0  0  0  0  0  0  0  0  0  0  0  0
   -4.8233    3.3670   -4.9680 C   0  0  0  0  0  0  0  0  0  0  0  0
   -4.3099    3.4857   -6.2630 C   0  0  0  0  0  0  0  0  0  0  0  0
   -3.0029    3.9431   -6.4623 C   0  0  0  0  0  0  0  0  0  0  0  0
   -2.2051    4.2872   -5.3638 C   0  0  0  0  0  0  0  0  0  0  0  0
   -0.5232    4.8634   -5.6127 S   0  0  0  0  0  0  0  0  0  0  0  0
    0.2051    3.2014   -5.4309 C   0  0  0  0  0  0  0  0  0  0  0  0
    1.7070    3.2625   -5.6594 C   0  0  0  0  0  0  0  0  0  0  0  0
   -2.7210    4.1771   -4.0681 C   0  0  0  0  0  0  0  0  0  0  0  0
   -4.6736    2.2556   -1.9438 C   0  0  0  0  0  0  0  0  0  0  0  0
   -4.1796    0.8194   -2.6571 S   0  0  0  0  0  0  0  0  0  0  0  0
   -4.3835    5.9666   -1.8912 C   0  0  0  0  0  0  0  0  0  0  0  0
   -4.4013    6.7874   -0.7702 C   0  0  0  0  0  0  0  0  0  0  0  0
   -4.8871    5.8813    0.5691 S   0  0  0  0  0  0  0  0  0  0  0  0
   -3.7439    8.1044   -0.7518 C   0  0  0  0  0  0  0  0  0  0  0  0
   -2.5160    8.2950   -0.2195 C   0  0  0  0  0  0  0  0  0  0  0  0
   -1.7438    7.3036    0.5485 C   0  0  0  0  0  0  0  0  0  0  0  0
   -2.2006    6.4529    1.3551 O   0  0  0  0  0  0  0  0  0  0  0  0
   -0.3390    7.4988    0.2912 C   0  0  0  0  0  0  0  0  0  0  0  0
    0.7128    6.6283    0.6518 C   0  0  0  0  0  0  0  0  0  0  0  0
    1.9253    6.9517    0.0786 C   0  0  0  0  0  0  0  0  0  0  0  0
    2.1016    8.0647   -0.8057 C   0  0  0  0  0  0  0  0  0  0  0  0
    1.0761    8.9372   -1.1443 C   0  0  0  0  0  0  0  0  0  0  0  0
   -0.1772    8.6330   -0.5417 C   0  0  0  0  0  0  0  0  0  0  0  0
   -1.5106    9.2643   -0.7507 C   0  0  0  0  0  0  0  0  0  0  0  0
   -1.7520   10.5357   -1.1503 C   0  0  0  0  0  0  0  0  0  0  0  0
   -3.0714   11.1112   -1.0949 C   0  0  0  0  0  0  0  0  0  0  0  0
   -4.1292   11.5796   -1.0498 N   0  0  0  0  0  0  0  0  0  0  0  0
   -0.6931   11.4369   -1.5255 C   0  0  0  0  0  0  0  0  0  0  0  0
    0.1510   12.1700   -1.8278 N   0  0  0  0  0  0  0  0  0  0  0  0
    3.5294    7.6654   -1.0436 C   0  0  0  0  0  0  0  0  0  0  0  0
    3.8765    6.9745   -2.3983 C   0  0  0  0  0  0  0  0  0  0  0  0
    2.6872    6.1862   -2.8991 C   0  0  0  0  0  0  0  0  0  0  0  0
    2.5307    5.1587   -2.0638 C   0  0  0  0  0  0  0  0  0  0  0  0
    3.6150    5.2862   -1.0177 C   0  0  0  0  0  0  0  0  0  0  0  0
    4.7298    5.8254   -1.8950 C   0  0  0  0  0  0  0  0  0  0  0  0
    3.3507    6.5361   -0.1239 C   0  0  0  0  0  0  0  0  0  0  0  0
    4.6853   -8.0007    2.0925 H   0  0  0  0  0  0  0  0  0  0  0  0
    7.4371   -5.7759    6.2205 H   0  0  0  0  0  0  0  0  0  0  0  0
    5.0041   -1.9658    3.8410 H   0  0  0  0  0  0  0  0  0  0  0  0
    5.5376   -1.3408    7.2193 H   0  0  0  0  0  0  0  0  0  0  0  0
    7.1440    0.4126    6.2151 H   0  0  0  0  0  0  0  0  0  0  0  0
    8.7615   -0.7337    4.4429 H   0  0  0  0  0  0  0  0  0  0  0  0
   10.0556   -2.6499    5.6395 H   0  0  0  0  0  0  0  0  0  0  0  0
    9.2747   -2.7247    8.1800 H   0  0  0  0  0  0  0  0  0  0  0  0
    7.7437   -0.5762    8.6262 H   0  0  0  0  0  0  0  0  0  0  0  0
    9.2565   -0.1211    7.7152 H   0  0  0  0  0  0  0  0  0  0  0  0
    6.7142   -3.0665    8.3242 H   0  0  0  0  0  0  0  0  0  0  0  0
   -0.2453   -3.9606    5.2789 H   0  0  0  0  0  0  0  0  0  0  0  0
    1.2981   -4.5877    5.9550 H   0  0  0  0  0  0  0  0  0  0  0  0
    2.5268   -2.7024    4.7463 H   0  0  0  0  0  0  0  0  0  0  0  0
    1.3553   -2.1337    6.0003 H   0  0  0  0  0  0  0  0  0  0  0  0
    0.9115   -2.0434    4.2548 H   0  0  0  0  0  0  0  0  0  0  0  0
    1.5918   -2.2092    1.8280 H   0  0  0  0  0  0  0  0  0  0  0  0
    2.1063   -0.1651    3.1133 H   0  0  0  0  0  0  0  0  0  0  0  0
    0.2894    2.2410    2.9263 H   0  0  0  0  0  0  0  0  0  0  0  0
    0.7904    3.9719    3.0483 H   0  0  0  0  0  0  0  0  0  0  0  0
    0.4563    3.2474    1.4247 H   0  0  0  0  0  0  0  0  0  0  0  0
    2.3784    2.0728   -0.5503 H   0  0  0  0  0  0  0  0  0  0  0  0
    1.8384    0.0413   -1.8353 H   0  0  0  0  0  0  0  0  0  0  0  0
    3.9911   -2.0971   -1.2451 H   0  0  0  0  0  0  0  0  0  0  0  0
    5.2632   -2.6561   -3.2676 H   0  0  0  0  0  0  0  0  0  0  0  0
    4.6737   -1.3713   -5.9164 H   0  0  0  0  0  0  0  0  0  0  0  0
    4.7553   -2.1250   -7.5549 H   0  0  0  0  0  0  0  0  0  0  0  0
    3.1592   -1.9635   -6.7259 H   0  0  0  0  0  0  0  0  0  0  0  0
    1.6663   -4.0496   -5.1649 H   0  0  0  0  0  0  0  0  0  0  0  0
    0.3759   -3.4854   -3.1616 H   0  0  0  0  0  0  0  0  0  0  0  0
   -6.1896   -5.4450   -1.5566 H   0  0  0  0  0  0  0  0  0  0  0  0
   -6.1808   -7.0558   -3.4165 H   0  0  0  0  0  0  0  0  0  0  0  0
   -3.1177   -9.0466   -5.8657 H   0  0  0  0  0  0  0  0  0  0  0  0
   -3.7036   -8.6449   -4.2048 H   0  0  0  0  0  0  0  0  0  0  0  0
   -2.4373   -7.6166   -5.0003 H   0  0  0  0  0  0  0  0  0  0  0  0
   -3.1458   -4.7536   -5.4140 H   0  0  0  0  0  0  0  0  0  0  0  0
   -3.1487   -3.1322   -3.5714 H   0  0  0  0  0  0  0  0  0  0  0  0
   -6.6772   -1.8482   -2.4532 H   0  0  0  0  0  0  0  0  0  0  0  0
   -8.8205   -1.2337   -1.3917 H   0  0  0  0  0  0  0  0  0  0  0  0
  -10.2947   -4.1215    1.1882 H   0  0  0  0  0  0  0  0  0  0  0  0
  -10.7053   -3.3227   -0.3912 H   0  0  0  0  0  0  0  0  0  0  0  0
  -11.8225   -3.1735    1.0180 H   0  0  0  0  0  0  0  0  0  0  0  0
   -7.5900   -3.2074    2.2313 H   0  0  0  0  0  0  0  0  0  0  0  0
   -5.4269   -3.7824    1.1829 H   0  0  0  0  0  0  0  0  0  0  0  0
   -4.5808    0.3733    0.8269 H   0  0  0  0  0  0  0  0  0  0  0  0
   -3.2164    3.9817    2.1322 H   0  0  0  0  0  0  0  0  0  0  0  0
   -3.2572    3.6478    4.5741 H   0  0  0  0  0  0  0  0  0  0  0  0
   -5.0821    2.3519    5.6269 H   0  0  0  0  0  0  0  0  0  0  0  0
   -6.9447   -1.3829    5.0929 H   0  0  0  0  0  0  0  0  0  0  0  0
   -5.5451   -0.3474    5.5355 H   0  0  0  0  0  0  0  0  0  0  0  0
   -5.2441   -2.0398    3.5594 H   0  0  0  0  0  0  0  0  0  0  0  0
   -4.6928   -0.3514    3.2852 H   0  0  0  0  0  0  0  0  0  0  0  0
   -6.2684   -0.8999    2.5966 H   0  0  0  0  0  0  0  0  0  0  0  0
   -6.8779    1.7343    1.7669 H   0  0  0  0  0  0  0  0  0  0  0  0
   -5.8330    2.9987   -4.8243 H   0  0  0  0  0  0  0  0  0  0  0  0
   -4.9230    3.2161   -7.1143 H   0  0  0  0  0  0  0  0  0  0  0  0
   -2.6119    4.0278   -7.4681 H   0  0  0  0  0  0  0  0  0  0  0  0
    0.0075    2.8206   -4.4059 H   0  0  0  0  0  0  0  0  0  0  0  0
   -0.2508    2.5086   -6.1700 H   0  0  0  0  0  0  0  0  0  0  0  0
    2.1408    2.2449   -5.5602 H   0  0  0  0  0  0  0  0  0  0  0  0
    1.9251    3.6454   -6.6785 H   0  0  0  0  0  0  0  0  0  0  0  0
    2.1824    3.9272   -4.9079 H   0  0  0  0  0  0  0  0  0  0  0  0
   -2.0962    4.4296   -3.2190 H   0  0  0  0  0  0  0  0  0  0  0  0
   -4.0517    6.3129   -2.8617 H   0  0  0  0  0  0  0  0  0  0  0  0
   -4.0993    8.7935   -1.5034 H   0  0  0  0  0  0  0  0  0  0  0  0
    0.5675    5.7435    1.2525 H   0  0  0  0  0  0  0  0  0  0  0  0
    1.2303    9.7220   -1.8665 H   0  0  0  0  0  0  0  0  0  0  0  0
    4.2733    8.4167   -0.6945 H   0  0  0  0  0  0  0  0  0  0  0  0
    4.3555    7.6298   -3.1549 H   0  0  0  0  0  0  0  0  0  0  0  0
    2.1160    6.3615   -3.8040 H   0  0  0  0  0  0  0  0  0  0  0  0
    1.8083    4.3572   -2.1709 H   0  0  0  0  0  0  0  0  0  0  0  0
    3.8468    4.3508   -0.4667 H   0  0  0  0  0  0  0  0  0  0  0  0
    5.0406    5.1164   -2.6993 H   0  0  0  0  0  0  0  0  0  0  0  0
    5.6291    6.1539   -1.3231 H   0  0  0  0  0  0  0  0  0  0  0  0
    3.9778    6.6004    0.7925 H   0  0  0  0  0  0  0  0  0  0  0  0
  1  2  2  3
  2  3  1  0
  3  4  2  0
  3  5  1  0
  5  6  2  0
  6  7  1  0
  7  8  2  0
  8  9  1  0
  9 10  2  0
 10 11  1  0
 11 12  2  3
 12 13  1  0
 13 14  3  0
 12 15  1  0
 15 16  3  0
  8 17  1  0
 17 18  1  0
 18 19  1  0
 19 20  2  0
 20 21  1  0
 21 22  1  0
 21 23  1  0
  1 24  1  0
 24 25  2  0
 25 26  1  0
 26 27  2  0
 26 28  1  0
 28 29  1  0
 29 30  1  0
 28 31  1  0
 31 32  2  0
 31 33  1  0
 33 34  2  0
 34 35  1  0
 35 36  1  0
 36 37  2  0
 37 38  1  0
 38 39  1  0
 34 40  1  0
 40 41  2  0
 41 42  1  0
 42 43  1  0
 43 44  2  0
 44 45  1  0
 45 46  2  0
 46 47  1  0
 47 48  1  0
 46 49  1  0
 49 50  2  0
 42 51  1  0
 51 52  2  0
 52 53  1  0
 53 54  2  0
 54 55  1  0
 55 56  1  0
 54 57  1  0
 57 58  2  0
 41 59  1  0
 59 60  1  0
 60 61  1  0
 61 62  2  0
 62 63  1  0
 63 64  1  0
 64 65  2  0
 65 66  1  0
 66 67  2  0
 67 68  1  0
 68 69  1  0
 67 70  1  0
 70 71  2  0
 63 72  1  0
 72 73  2  0
 73 74  1  0
 74 75  2  0
 75 76  1  0
 76 77  1  0
 75 78  1  0
 78 79  2  0
 62 80  1  0
 80 81  1  0
 61 82  1  0
 82 83  2  0
 83 84  1  0
 84 85  2  0
 85 86  1  0
 86 87  2  0
 87 88  1  0
 88 89  2  0
 89 90  1  0
 90 91  1  0
 91 92  1  0
 92 93  1  0
 90 94  2  0
 85 95  1  0
 95 96  2  0
 96 97  1  0
 97 98  1  0
 98 99  2  0
 99100  1  0
100101  2  0
101102  1  0
102103  1  0
103104  1  0
104105  1  0
102106  2  0
 97107  2  0
107108  1  0
 96109  1  0
109110  2  0
110111  1  0
110112  1  0
112113  2  3
113114  1  0
114115  2  0
114116  1  0
116117  2  0
117118  1  0
118119  2  0
119120  1  0
120121  2  0
121122  1  0
122123  2  3
123124  1  0
124125  3  0
123126  1  0
126127  3  0
119128  1  0
128129  1  0
129130  1  0
130131  2  0
131132  1  0
132133  1  0
132134  1  0
 11  2  1  0
 23 17  1  0
 36 24  1  0
 81 40  1  0
108 82  1  0
122113  1  0
134128  1  0
 10  5  1  0
 22 18  1  0
 33 25  1  0
 39 35  2  0
 50 43  1  0
 58 51  1  0
 80 59  2  0
107 84  1  0
121116  1  0
133129  1  0
 23  7  1  0
 71 64  1  0
 79 72  1  0
 94 86  1  0
111 95  1  0
134118  1  0
106 98  1  0
  1135  1  0
  6136  1  0
  9137  1  0
 17138  1  0
 18139  1  0
 19140  1  0
 20141  1  0
 21142  1  0
 22143  1  0
 22144  1  0
 23145  1  0
 29146  1  0
 29147  1  0
 30148  1  0
 30149  1  0
 30150  1  0
 44151  1  0
 45152  1  0
 48153  1  0
 48154  1  0
 48155  1  0
 49156  1  0
 50157  1  0
 52158  1  0
 53159  1  0
 56160  1  0
 56161  1  0
 56162  1  0
 57163  1  0
 58164  1  0
 65165  1  0
 66166  1  0
 69167  1  0
 69168  1  0
 69169  1  0
 70170  1  0
 71171  1  0
 73172  1  0
 74173  1  0
 77174  1  0
 77175  1  0
 77176  1  0
 78177  1  0
 79178  1  0
 83179  1  0
 87180  1  0
 88181  1  0
 89182  1  0
 92183  1  0
 92184  1  0
 93185  1  0
 93186  1  0
 93187  1  0
 94188  1  0
 99189  1  0
100190  1  0
101191  1  0
104192  1  0
104193  1  0
105194  1  0
105195  1  0
105196  1  0
106197  1  0
109198  1  0
112199  1  0
117200  1  0
120201  1  0
128202  1  0
129203  1  0
130204  1  0
131205  1  0
132206  1  0
133207  1  0
133208  1  0
134209  1  0
M  END

