
     RDKit          3D

265289  0  0  0  0  0  0  0  0999 V2000
    4.7578   -3.2023   -4.2873 C   0  0  0  0  0  0  0  0  0  0  0  0
    4.4561   -4.4694   -3.9020 C   0  0  0  0  0  0  0  0  0  0  0  0
    3.1114   -4.9764   -3.7813 C   0  0  0  0  0  0  0  0  0  0  0  0
    2.0429   -4.4187   -4.1759 O   0  0  0  0  0  0  0  0  0  0  0  0
    3.1130   -6.1798   -3.0139 C   0  0  0  0  0  0  0  0  0  0  0  0
    2.0191   -7.0061   -2.7083 C   0  0  0  0  0  0  0  0  0  0  0  0
    2.3712   -8.1070   -1.9290 C   0  0  0  0  0  0  0  0  0  0  0  0
    3.6979   -8.3263   -1.4618 C   0  0  0  0  0  0  0  0  0  0  0  0
    4.7858   -7.5428   -1.8092 C   0  0  0  0  0  0  0  0  0  0  0  0
    4.4421   -6.4329   -2.6272 C   0  0  0  0  0  0  0  0  0  0  0  0
    5.3586   -5.4672   -3.2634 C   0  0  0  0  0  0  0  0  0  0  0  0
    6.5589   -5.1479   -2.7690 C   0  0  0  0  0  0  0  0  0  0  0  0
    7.7501   -5.4410   -3.5550 C   0  0  0  0  0  0  0  0  0  0  0  0
    8.7264   -5.6649   -4.1827 N   0  0  0  0  0  0  0  0  0  0  0  0
    6.7273   -5.0381   -1.3069 C   0  0  0  0  0  0  0  0  0  0  0  0
    6.9522   -4.9579   -0.1509 N   0  0  0  0  0  0  0  0  0  0  0  0
    3.2213   -9.4878   -0.6540 C   0  0  0  0  0  0  0  0  0  0  0  0
    3.0234   -9.2408    0.8667 C   0  0  0  0  0  0  0  0  0  0  0  0
    2.5445   -7.8079    1.1093 C   0  0  0  0  0  0  0  0  0  0  0  0
    1.2915   -7.7369    0.6682 C   0  0  0  0  0  0  0  0  0  0  0  0
    0.9765   -9.0786    0.0711 C   0  0  0  0  0  0  0  0  0  0  0  0
    1.6997   -9.9626    1.0717 C   0  0  0  0  0  0  0  0  0  0  0  0
    1.8655   -9.3177   -1.1960 C   0  0  0  0  0  0  0  0  0  0  0  0
    3.7509   -2.1677   -4.0546 C   0  0  0  0  0  0  0  0  0  0  0  0
    3.0837   -1.2865   -4.9228 C   0  0  0  0  0  0  0  0  0  0  0  0
    2.7831   -1.5665   -6.3151 N   0  0  0  0  0  0  0  0  0  0  0  0
    2.4790   -0.4985   -7.2436 C   0  0  0  0  0  0  0  0  0  0  0  0
    3.2670    0.6784   -7.2503 C   0  0  0  0  0  0  0  0  0  0  0  0
    2.8968    1.7727   -8.0276 C   0  0  0  0  0  0  0  0  0  0  0  0
    1.7683    1.7095   -8.8324 C   0  0  0  0  0  0  0  0  0  0  0  0
    1.2094    3.1786   -9.7186 S   0  0  0  0  0  0  0  0  0  0  0  0
   -0.0954    3.5856   -8.5256 C   0  0  0  0  0  0  0  0  0  0  0  0
    1.0031    0.5510   -8.8719 C   0  0  0  0  0  0  0  0  0  0  0  0
    1.3709   -0.5472   -8.1161 C   0  0  0  0  0  0  0  0  0  0  0  0
    2.5003   -2.9399   -6.7339 C   0  0  0  0  0  0  0  0  0  0  0  0
    3.5397   -3.7729   -7.1705 C   0  0  0  0  0  0  0  0  0  0  0  0
    3.2683   -5.0628   -7.6576 C   0  0  0  0  0  0  0  0  0  0  0  0
    1.9615   -5.5487   -7.6300 C   0  0  0  0  0  0  0  0  0  0  0  0
    1.6179   -7.2493   -8.1413 S   0  0  0  0  0  0  0  0  0  0  0  0
    0.6800   -6.8406   -9.6504 C   0  0  0  0  0  0  0  0  0  0  0  0
    0.9186   -4.7411   -7.1929 C   0  0  0  0  0  0  0  0  0  0  0  0
    1.1879   -3.4415   -6.7691 C   0  0  0  0  0  0  0  0  0  0  0  0
    2.4615   -0.2491   -4.1707 C   0  0  0  0  0  0  0  0  0  0  0  0
    1.3539    0.9720   -4.4689 S   0  0  0  0  0  0  0  0  0  0  0  0
    1.2662    1.5689   -2.8582 C   0  0  0  0  0  0  0  0  0  0  0  0
    2.1328    0.7709   -2.0726 C   0  0  0  0  0  0  0  0  0  0  0  0
    2.7047    1.0858   -0.7635 N   0  0  0  0  0  0  0  0  0  0  0  0
    4.1299    0.8470   -0.5445 C   0  0  0  0  0  0  0  0  0  0  0  0
    5.0852    1.2703   -1.4881 C   0  0  0  0  0  0  0  0  0  0  0  0
    6.4414    1.3130   -1.1638 C   0  0  0  0  0  0  0  0  0  0  0  0
    6.8543    0.9658    0.1247 C   0  0  0  0  0  0  0  0  0  0  0  0
    8.5950    1.0896    0.5866 S   0  0  0  0  0  0  0  0  0  0  0  0
    8.5439    2.8603    1.0164 C   0  0  0  0  0  0  0  0  0  0  0  0
    5.9210    0.5003    1.0484 C   0  0  0  0  0  0  0  0  0  0  0  0
    4.5732    0.4074    0.7201 C   0  0  0  0  0  0  0  0  0  0  0  0
    2.1505    1.9696    0.2506 C   0  0  0  0  0  0  0  0  0  0  0  0
    2.8433    3.1691    0.5186 C   0  0  0  0  0  0  0  0  0  0  0  0
    2.6594    3.8864    1.6829 C   0  0  0  0  0  0  0  0  0  0  0  0
    1.7820    3.4208    2.6487 C   0  0  0  0  0  0  0  0  0  0  0  0
    1.5987    4.3310    4.1893 S   0  0  0  0  0  0  0  0  0  0  0  0
    2.5679    3.1290    5.1747 C   0  0  0  0  0  0  0  0  0  0  0  0
    1.0665    2.2312    2.4118 C   0  0  0  0  0  0  0  0  0  0  0  0
    1.2569    1.5126    1.2267 C   0  0  0  0  0  0  0  0  0  0  0  0
    2.6608   -0.2722   -2.8428 C   0  0  0  0  0  0  0  0  0  0  0  0
    3.6255   -1.5683   -2.4635 S   0  0  0  0  0  0  0  0  0  0  0  0
    0.0906    2.3071   -2.3550 C   0  0  0  0  0  0  0  0  0  0  0  0
    0.1313    3.4074   -1.4878 C   0  0  0  0  0  0  0  0  0  0  0  0
    1.0676    4.5126   -1.6658 N   0  0  0  0  0  0  0  0  0  0  0  0
    1.8287    4.5849   -2.9239 C   0  0  0  0  0  0  0  0  0  0  0  0
    3.2226    4.4693   -2.9433 C   0  0  0  0  0  0  0  0  0  0  0  0
    3.9411    4.6459   -4.1227 C   0  0  0  0  0  0  0  0  0  0  0  0
    3.2686    4.8841   -5.3192 C   0  0  0  0  0  0  0  0  0  0  0  0
    4.2041    5.2415   -6.8346 S   0  0  0  0  0  0  0  0  0  0  0  0
    5.4423    3.9099   -6.7100 C   0  0  0  0  0  0  0  0  0  0  0  0
    1.8787    4.9497   -5.3314 C   0  0  0  0  0  0  0  0  0  0  0  0
    1.1561    4.8141   -4.1352 C   0  0  0  0  0  0  0  0  0  0  0  0
    1.0123    5.7424   -0.8900 C   0  0  0  0  0  0  0  0  0  0  0  0
    2.2132    6.3928   -0.4802 C   0  0  0  0  0  0  0  0  0  0  0  0
    2.1537    7.5875    0.2382 C   0  0  0  0  0  0  0  0  0  0  0  0
    0.9190    8.1334    0.5829 C   0  0  0  0  0  0  0  0  0  0  0  0
    0.8288    9.5864    1.6341 S   0  0  0  0  0  0  0  0  0  0  0  0
    0.6968   10.7573    0.2536 C   0  0  0  0  0  0  0  0  0  0  0  0
   -0.2632    7.5510    0.1045 C   0  0  0  0  0  0  0  0  0  0  0  0
   -0.1911    6.4062   -0.6809 C   0  0  0  0  0  0  0  0  0  0  0  0
   -1.0229    3.3777   -0.6591 C   0  0  0  0  0  0  0  0  0  0  0  0
   -1.4386    3.8839    0.9053 S   0  0  0  0  0  0  0  0  0  0  0  0
   -2.9131    2.9988    1.0708 C   0  0  0  0  0  0  0  0  0  0  0  0
   -3.0876    2.3494   -0.1642 C   0  0  0  0  0  0  0  0  0  0  0  0
   -4.3812    2.1231   -0.7485 N   0  0  0  0  0  0  0  0  0  0  0  0
   -5.2041    3.2928   -1.0123 C   0  0  0  0  0  0  0  0  0  0  0  0
   -4.6155    4.4979   -1.4514 C   0  0  0  0  0  0  0  0  0  0  0  0
   -5.4015    5.6061   -1.7545 C   0  0  0  0  0  0  0  0  0  0  0  0
   -6.7801    5.5348   -1.6167 C   0  0  0  0  0  0  0  0  0  0  0  0
   -7.7797    6.9715   -2.0215 S   0  0  0  0  0  0  0  0  0  0  0  0
   -7.5212    7.8198   -0.4353 C   0  0  0  0  0  0  0  0  0  0  0  0
   -7.3932    4.3505   -1.1839 C   0  0  0  0  0  0  0  0  0  0  0  0
   -6.5974    3.2388   -0.8965 C   0  0  0  0  0  0  0  0  0  0  0  0
   -4.6622    0.8652   -1.4430 C   0  0  0  0  0  0  0  0  0  0  0  0
   -4.1424   -0.3428   -0.9505 C   0  0  0  0  0  0  0  0  0  0  0  0
   -4.3624   -1.5381   -1.6430 C   0  0  0  0  0  0  0  0  0  0  0  0
   -5.1168   -1.5335   -2.8170 C   0  0  0  0  0  0  0  0  0  0  0  0
   -5.5006   -3.0804   -3.6521 S   0  0  0  0  0  0  0  0  0  0  0  0
   -4.3876   -2.8630   -5.0762 C   0  0  0  0  0  0  0  0  0  0  0  0
   -5.6193   -0.3346   -3.3230 C   0  0  0  0  0  0  0  0  0  0  0  0
   -5.3747    0.8553   -2.6512 C   0  0  0  0  0  0  0  0  0  0  0  0
   -1.9735    2.4779   -1.0050 C   0  0  0  0  0  0  0  0  0  0  0  0
   -1.4215    1.5331   -2.2754 S   0  0  0  0  0  0  0  0  0  0  0  0
   -3.0231    2.1247    2.2542 C   0  0  0  0  0  0  0  0  0  0  0  0
   -3.9318    2.0235    3.3466 C   0  0  0  0  0  0  0  0  0  0  0  0
   -5.0548    2.8861    3.5912 N   0  0  0  0  0  0  0  0  0  0  0  0
   -5.0223    3.7853    4.7164 C   0  0  0  0  0  0  0  0  0  0  0  0
   -3.9420    4.6630    4.9070 C   0  0  0  0  0  0  0  0  0  0  0  0
   -3.8726    5.5058    6.0216 C   0  0  0  0  0  0  0  0  0  0  0  0
   -4.8946    5.4543    6.9830 C   0  0  0  0  0  0  0  0  0  0  0  0
   -4.8382    6.5065    8.4278 S   0  0  0  0  0  0  0  0  0  0  0  0
   -4.0491    5.2969    9.5361 C   0  0  0  0  0  0  0  0  0  0  0  0
   -5.9806    4.6007    6.8141 C   0  0  0  0  0  0  0  0  0  0  0  0
   -6.0456    3.7787    5.6977 C   0  0  0  0  0  0  0  0  0  0  0  0
   -6.3611    2.5476    3.0459 C   0  0  0  0  0  0  0  0  0  0  0  0
   -7.0748    3.4760    2.2714 C   0  0  0  0  0  0  0  0  0  0  0  0
   -8.3986    3.2056    1.8712 C   0  0  0  0  0  0  0  0  0  0  0  0
   -8.9851    1.9790    2.2141 C   0  0  0  0  0  0  0  0  0  0  0  0
  -10.6312    1.5559    1.6247 S   0  0  0  0  0  0  0  0  0  0  0  0
  -10.0917    0.9199    0.0106 C   0  0  0  0  0  0  0  0  0  0  0  0
   -8.3146    1.0957    3.0527 C   0  0  0  0  0  0  0  0  0  0  0  0
   -7.0179    1.3894    3.4714 C   0  0  0  0  0  0  0  0  0  0  0  0
   -3.6063    0.9258    4.1753 C   0  0  0  0  0  0  0  0  0  0  0  0
   -4.1798    0.2094    5.5848 S   0  0  0  0  0  0  0  0  0  0  0  0
   -3.0184   -1.0740    5.6118 C   0  0  0  0  0  0  0  0  0  0  0  0
   -2.2365   -0.9478    4.4525 C   0  0  0  0  0  0  0  0  0  0  0  0
   -1.1937   -1.8541    4.0726 N   0  0  0  0  0  0  0  0  0  0  0  0
    0.1444   -1.5905    4.6254 C   0  0  0  0  0  0  0  0  0  0  0  0
    1.3141   -2.2413    4.1506 C   0  0  0  0  0  0  0  0  0  0  0  0
    2.5775   -1.8539    4.5980 C   0  0  0  0  0  0  0  0  0  0  0  0
    2.7056   -0.9161    5.6242 C   0  0  0  0  0  0  0  0  0  0  0  0
    4.3200   -0.4133    6.2240 S   0  0  0  0  0  0  0  0  0  0  0  0
    4.4894   -1.8614    7.3118 C   0  0  0  0  0  0  0  0  0  0  0  0
    1.5674   -0.3731    6.2138 C   0  0  0  0  0  0  0  0  0  0  0  0
    0.3190   -0.6685    5.6835 C   0  0  0  0  0  0  0  0  0  0  0  0
   -1.5412   -2.8227    3.0190 C   0  0  0  0  0  0  0  0  0  0  0  0
   -2.7847   -3.5056    3.0554 C   0  0  0  0  0  0  0  0  0  0  0  0
   -3.0861   -4.5203    2.1424 C   0  0  0  0  0  0  0  0  0  0  0  0
   -2.1847   -4.8481    1.1346 C   0  0  0  0  0  0  0  0  0  0  0  0
   -2.4990   -6.2468    0.0484 S   0  0  0  0  0  0  0  0  0  0  0  0
   -3.5807   -5.3865   -1.1291 C   0  0  0  0  0  0  0  0  0  0  0  0
   -1.0108   -4.0942    1.0033 C   0  0  0  0  0  0  0  0  0  0  0  0
   -0.7264   -3.0534    1.9030 C   0  0  0  0  0  0  0  0  0  0  0  0
   -2.5787    0.1697    3.7458 C   0  0  0  0  0  0  0  0  0  0  0  0
   -1.9764    0.7764    2.3542 S   0  0  0  0  0  0  0  0  0  0  0  0
   -3.0237   -2.3126    6.4345 C   0  0  0  0  0  0  0  0  0  0  0  0
   -2.0721   -2.6623    7.3391 C   0  0  0  0  0  0  0  0  0  0  0  0
   -1.4644   -1.7218    8.2832 C   0  0  0  0  0  0  0  0  0  0  0  0
   -2.0099   -0.6617    8.6957 O   0  0  0  0  0  0  0  0  0  0  0  0
   -0.2201   -2.2828    8.7826 C   0  0  0  0  0  0  0  0  0  0  0  0
    0.6641   -1.7715    9.7445 C   0  0  0  0  0  0  0  0  0  0  0  0
    0.3681   -0.2502   10.5645 Cl  0  0  0  0  0  0  0  0  0  0  0  0
    1.8115   -2.5029   10.0418 C   0  0  0  0  0  0  0  0  0  0  0  0
    2.0922   -3.7132    9.3769 C   0  0  0  0  0  0  0  0  0  0  0  0
    3.7089   -4.6654    9.7673 Br  0  0  0  0  0  0  0  0  0  0  0  0
    1.1651   -4.2349    8.4419 C   0  0  0  0  0  0  0  0  0  0  0  0
   -0.0063   -3.5155    8.1682 C   0  0  0  0  0  0  0  0  0  0  0  0
   -1.1673   -3.8529    7.2750 C   0  0  0  0  0  0  0  0  0  0  0  0
   -1.3628   -5.0132    6.6150 C   0  0  0  0  0  0  0  0  0  0  0  0
   -2.7275   -5.4277    6.2118 C   0  0  0  0  0  0  0  0  0  0  0  0
   -3.7477   -5.8266    5.8740 N   0  0  0  0  0  0  0  0  0  0  0  0
   -0.2996   -5.9481    6.2323 C   0  0  0  0  0  0  0  0  0  0  0  0
    0.5432   -6.6680    5.9022 N   0  0  0  0  0  0  0  0  0  0  0  0
    5.7943   -2.9081   -4.3123 H   0  0  0  0  0  0  0  0  0  0  0  0
    0.9918   -6.7788   -2.9844 H   0  0  0  0  0  0  0  0  0  0  0  0
    5.7864   -7.7517   -1.4373 H   0  0  0  0  0  0  0  0  0  0  0  0
    3.7052  -10.4401   -0.9217 H   0  0  0  0  0  0  0  0  0  0  0  0
    3.8657   -9.5582    1.5195 H   0  0  0  0  0  0  0  0  0  0  0  0
    3.0770   -6.9990    1.5957 H   0  0  0  0  0  0  0  0  0  0  0  0
    0.6467   -6.8650    0.7310 H   0  0  0  0  0  0  0  0  0  0  0  0
   -0.0906   -9.2942   -0.0682 H   0  0  0  0  0  0  0  0  0  0  0  0
    1.3064   -9.8819    2.1104 H   0  0  0  0  0  0  0  0  0  0  0  0
    1.7426  -11.0335    0.7881 H   0  0  0  0  0  0  0  0  0  0  0  0
    1.5523  -10.1530   -1.8750 H   0  0  0  0  0  0  0  0  0  0  0  0
    4.1477    0.7266   -6.6222 H   0  0  0  0  0  0  0  0  0  0  0  0
    3.5276    2.6578   -8.0530 H   0  0  0  0  0  0  0  0  0  0  0  0
   -0.4701    4.6044   -8.7465 H   0  0  0  0  0  0  0  0  0  0  0  0
   -0.9383    2.8691   -8.6067 H   0  0  0  0  0  0  0  0  0  0  0  0
    0.2961    3.5559   -7.4876 H   0  0  0  0  0  0  0  0  0  0  0  0
    0.1243    0.4965   -9.4950 H   0  0  0  0  0  0  0  0  0  0  0  0
    0.7103   -1.3968   -8.1758 H   0  0  0  0  0  0  0  0  0  0  0  0
    4.5516   -3.4088   -7.1883 H   0  0  0  0  0  0  0  0  0  0  0  0
    4.0725   -5.6848   -8.0349 H   0  0  0  0  0  0  0  0  0  0  0  0
    1.3751   -6.4427  -10.4172 H   0  0  0  0  0  0  0  0  0  0  0  0
    0.2027   -7.7596  -10.0465 H   0  0  0  0  0  0  0  0  0  0  0  0
   -0.1271   -6.1057   -9.4429 H   0  0  0  0  0  0  0  0  0  0  0  0
   -0.1066   -5.0987   -7.1694 H   0  0  0  0  0  0  0  0  0  0  0  0
    0.3618   -2.8209   -6.4717 H   0  0  0  0  0  0  0  0  0  0  0  0
    4.7791    1.6077   -2.4652 H   0  0  0  0  0  0  0  0  0  0  0  0
    7.1562    1.6651   -1.8992 H   0  0  0  0  0  0  0  0  0  0  0  0
    9.5831    3.2506    1.0051 H   0  0  0  0  0  0  0  0  0  0  0  0
    7.9493    3.4321    0.2772 H   0  0  0  0  0  0  0  0  0  0  0  0
    8.1215    3.0066    2.0340 H   0  0  0  0  0  0  0  0  0  0  0  0
    6.2428    0.2248    2.0463 H   0  0  0  0  0  0  0  0  0  0  0  0
    3.8696    0.0380    1.4583 H   0  0  0  0  0  0  0  0  0  0  0  0
    3.6623    3.4593   -0.1111 H   0  0  0  0  0  0  0  0  0  0  0  0
    3.2849    4.7594    1.9026 H   0  0  0  0  0  0  0  0  0  0  0  0
    2.6218    3.4659    6.2352 H   0  0  0  0  0  0  0  0  0  0  0  0
    3.6225    3.1174    4.7818 H   0  0  0  0  0  0  0  0  0  0  0  0
    2.1066    2.1265    5.1136 H   0  0  0  0  0  0  0  0  0  0  0  0
    0.4496    1.8195    3.1880 H   0  0  0  0  0  0  0  0  0  0  0  0
    0.7746    0.5535    1.0929 H   0  0  0  0  0  0  0  0  0  0  0  0
    3.7882    4.2635   -2.0600 H   0  0  0  0  0  0  0  0  0  0  0  0
    5.0204    4.6141   -4.0849 H   0  0  0  0  0  0  0  0  0  0  0  0
    5.8510    3.7168   -7.7232 H   0  0  0  0  0  0  0  0  0  0  0  0
    5.0053    2.9875   -6.2795 H   0  0  0  0  0  0  0  0  0  0  0  0
    6.2712    4.2414   -6.0462 H   0  0  0  0  0  0  0  0  0  0  0  0
    1.3466    5.1824   -6.2419 H   0  0  0  0  0  0  0  0  0  0  0  0
    0.0897    4.9183   -4.1474 H   0  0  0  0  0  0  0  0  0  0  0  0
    3.1730    5.9785   -0.6877 H   0  0  0  0  0  0  0  0  0  0  0  0
    3.0880    8.0662    0.5568 H   0  0  0  0  0  0  0  0  0  0  0  0
    1.5377   10.6343   -0.4583 H   0  0  0  0  0  0  0  0  0  0  0  0
   -0.2704   10.6144   -0.2639 H   0  0  0  0  0  0  0  0  0  0  0  0
    0.7285   11.7856    0.6733 H   0  0  0  0  0  0  0  0  0  0  0  0
   -1.2200    7.9756    0.3606 H   0  0  0  0  0  0  0  0  0  0  0  0
   -1.1158    6.0381   -1.1133 H   0  0  0  0  0  0  0  0  0  0  0  0
   -3.5604    4.5734   -1.6200 H   0  0  0  0  0  0  0  0  0  0  0  0
   -4.9178    6.5021   -2.1359 H   0  0  0  0  0  0  0  0  0  0  0  0
   -7.8512    7.1742    0.4003 H   0  0  0  0  0  0  0  0  0  0  0  0
   -6.4530    8.0858   -0.3179 H   0  0  0  0  0  0  0  0  0  0  0  0
   -8.1267    8.7573   -0.4337 H   0  0  0  0  0  0  0  0  0  0  0  0
   -8.4765    4.2854   -1.1174 H   0  0  0  0  0  0  0  0  0  0  0  0
   -7.0713    2.3141   -0.6129 H   0  0  0  0  0  0  0  0  0  0  0  0
   -3.5833   -0.3770   -0.0261 H   0  0  0  0  0  0  0  0  0  0  0  0
   -4.0070   -2.4761   -1.2338 H   0  0  0  0  0  0  0  0  0  0  0  0
   -4.8940   -2.2703   -5.8750 H   0  0  0  0  0  0  0  0  0  0  0  0
   -3.4460   -2.3756   -4.7715 H   0  0  0  0  0  0  0  0  0  0  0  0
   -4.1290   -3.8617   -5.4852 H   0  0  0  0  0  0  0  0  0  0  0  0
   -6.2168   -0.3188   -4.2216 H   0  0  0  0  0  0  0  0  0  0  0  0
   -5.7420    1.7682   -3.0864 H   0  0  0  0  0  0  0  0  0  0  0  0
   -3.1576    4.6868    4.1613 H   0  0  0  0  0  0  0  0  0  0  0  0
   -3.0401    6.2020    6.1245 H   0  0  0  0  0  0  0  0  0  0  0  0
   -3.1305    5.7612    9.9697 H   0  0  0  0  0  0  0  0  0  0  0  0
   -4.7860    5.0907   10.3514 H   0  0  0  0  0  0  0  0  0  0  0  0
   -3.7717    4.3322    9.0403 H   0  0  0  0  0  0  0  0  0  0  0  0
   -6.7677    4.5614    7.5623 H   0  0  0  0  0  0  0  0  0  0  0  0
   -6.9032    3.1427    5.6150 H   0  0  0  0  0  0  0  0  0  0  0  0
   -6.6313    4.4231    1.9967 H   0  0  0  0  0  0  0  0  0  0  0  0
   -8.9363    3.9346    1.2819 H   0  0  0  0  0  0  0  0  0  0  0  0
   -9.0370    0.5814    0.0164 H   0  0  0  0  0  0  0  0  0  0  0  0
  -10.7236    0.0429   -0.2334 H   0  0  0  0  0  0  0  0  0  0  0  0
  -10.2289    1.7081   -0.7563 H   0  0  0  0  0  0  0  0  0  0  0  0
   -8.7770    0.1714    3.3917 H   0  0  0  0  0  0  0  0  0  0  0  0
   -6.5604    0.7636    4.2084 H   0  0  0  0  0  0  0  0  0  0  0  0
    1.2900   -3.0576    3.4454 H   0  0  0  0  0  0  0  0  0  0  0  0
    3.4690   -2.2949    4.1463 H   0  0  0  0  0  0  0  0  0  0  0  0
    4.4889   -2.8034    6.7086 H   0  0  0  0  0  0  0  0  0  0  0  0
    5.4263   -1.7888    7.9111 H   0  0  0  0  0  0  0  0  0  0  0  0
    3.6132   -1.8791    7.9922 H   0  0  0  0  0  0  0  0  0  0  0  0
    1.6432    0.3051    7.0548 H   0  0  0  0  0  0  0  0  0  0  0  0
   -0.5141   -0.1639    6.1391 H   0  0  0  0  0  0  0  0  0  0  0  0
   -3.5429   -3.2233    3.7435 H   0  0  0  0  0  0  0  0  0  0  0  0
   -4.0213   -5.0718    2.2451 H   0  0  0  0  0  0  0  0  0  0  0  0
   -4.4335   -4.9267   -0.6026 H   0  0  0  0  0  0  0  0  0  0  0  0
   -3.0174   -4.6186   -1.6834 H   0  0  0  0  0  0  0  0  0  0  0  0
   -3.9711   -6.1289   -1.8509 H   0  0  0  0  0  0  0  0  0  0  0  0
   -0.3080   -4.3243    0.2048 H   0  0  0  0  0  0  0  0  0  0  0  0
    0.1203   -2.4191    1.6808 H   0  0  0  0  0  0  0  0  0  0  0  0
   -3.4318   -3.0964    5.8047 H   0  0  0  0  0  0  0  0  0  0  0  0
    2.5073   -2.1159   10.7923 H   0  0  0  0  0  0  0  0  0  0  0  0
    1.4027   -5.1692    7.9577 H   0  0  0  0  0  0  0  0  0  0  0  0
  1  2  2  3
  2  3  1  0
  3  4  2  0
  3  5  1  0
  5  6  2  0
  6  7  1  0
  7  8  2  0
  8  9  1  0
  9 10  2  0
 10 11  1  0
 11 12  2  3
 12 13  1  0
 13 14  3  0
 12 15  1  0
 15 16  3  0
  8 17  1  0
 17 18  1  0
 18 19  1  0
 19 20  2  0
 20 21  1  0
 21 22  1  0
 21 23  1  0
  1 24  1  0
 24 25  2  0
 25 26  1  0
 26 27  1  0
 27 28  2  0
 28 29  1  0
 29 30  2  0
 30 31  1  0
 31 32  1  0
 30 33  1  0
 33 34  2  0
 26 35  1  0
 35 36  2  0
 36 37  1  0
 37 38  2  0
 38 39  1  0
 39 40  1  0
 38 41  1  0
 41 42  2  0
 25 43  1  0
 43 44  1  0
 44 45  1  0
 45 46  2  0
 46 47  1  0
 47 48  1  0
 48 49  2  0
 49 50  1  0
 50 51  2  0
 51 52  1  0
 52 53  1  0
 51 54  1  0
 54 55  2  0
 47 56  1  0
 56 57  2  0
 57 58  1  0
 58 59  2  0
 59 60  1  0
 60 61  1  0
 59 62  1  0
 62 63  2  0
 46 64  1  0
 64 65  1  0
 45 66  1  0
 66 67  2  0
 67 68  1  0
 68 69  1  0
 69 70  2  0
 70 71  1  0
 71 72  2  0
 72 73  1  0
 73 74  1  0
 72 75  1  0
 75 76  2  0
 68 77  1  0
 77 78  2  0
 78 79  1  0
 79 80  2  0
 80 81  1  0
 81 82  1  0
 80 83  1  0
 83 84  2  0
 67 85  1  0
 85 86  1  0
 86 87  1  0
 87 88  2  0
 88 89  1  0
 89 90  1  0
 90 91  2  0
 91 92  1  0
 92 93  2  0
 93 94  1  0
 94 95  1  0
 93 96  1  0
 96 97  2  0
 89 98  1  0
 98 99  2  0
 99100  1  0
100101  2  0
101102  1  0
102103  1  0
101104  1  0
104105  2  0
 88106  1  0
106107  1  0
 87108  1  0
108109  2  0
109110  1  0
110111  1  0
111112  2  0
112113  1  0
113114  2  0
114115  1  0
115116  1  0
114117  1  0
117118  2  0
110119  1  0
119120  2  0
120121  1  0
121122  2  0
122123  1  0
123124  1  0
122125  1  0
125126  2  0
109127  1  0
127128  1  0
128129  1  0
129130  2  0
130131  1  0
131132  1  0
132133  2  0
133134  1  0
134135  2  0
135136  1  0
136137  1  0
135138  1  0
138139  2  0
131140  1  0
140141  2  0
141142  1  0
142143  2  0
143144  1  0
144145  1  0
143146  1  0
146147  2  0
130148  1  0
148149  1  0
129150  1  0
150151  2  3
151152  1  0
152153  2  0
152154  1  0
154155  2  0
155156  1  0
155157  1  0
157158  2  0
158159  1  0
158160  1  0
160161  2  0
161162  1  0
162163  2  3
163164  1  0
164165  3  0
163166  1  0
166167  3  0
 11  2  1  0
 23 17  1  0
 65 24  1  0
107 66  1  0
149108  1  0
162151  1  0
 10  5  1  0
 22 18  1  0
 34 27  1  0
 42 35  1  0
 64 43  2  0
 76 69  1  0
 84 77  1  0
106 85  2  0
118111  1  0
126119  1  0
148127  2  0
161154  1  0
 23  7  1  0
 55 48  1  0
 63 56  1  0
 97 90  1  0
105 98  1  0
139132  1  0
147140  1  0
  1168  1  0
  6169  1  0
  9170  1  0
 17171  1  0
 18172  1  0
 19173  1  0
 20174  1  0
 21175  1  0
 22176  1  0
 22177  1  0
 23178  1  0
 28179  1  0
 29180  1  0
 32181  1  0
 32182  1  0
 32183  1  0
 33184  1  0
 34185  1  0
 36186  1  0
 37187  1  0
 40188  1  0
 40189  1  0
 40190  1  0
 41191  1  0
 42192  1  0
 49193  1  0
 50194  1  0
 53195  1  0
 53196  1  0
 53197  1  0
 54198  1  0
 55199  1  0
 57200  1  0
 58201  1  0
 61202  1  0
 61203  1  0
 61204  1  0
 62205  1  0
 63206  1  0
 70207  1  0
 71208  1  0
 74209  1  0
 74210  1  0
 74211  1  0
 75212  1  0
 76213  1  0
 78214  1  0
 79215  1  0
 82216  1  0
 82217  1  0
 82218  1  0
 83219  1  0
 84220  1  0
 91221  1  0
 92222  1  0
 95223  1  0
 95224  1  0
 95225  1  0
 96226  1  0
 97227  1  0
 99228  1  0
100229  1  0
103230  1  0
103231  1  0
103232  1  0
104233  1  0
105234  1  0
112235  1  0
113236  1  0
116237  1  0
116238  1  0
116239  1  0
117240  1  0
118241  1  0
120242  1  0
121243  1  0
124244  1  0
124245  1  0
124246  1  0
125247  1  0
126248  1  0
133249  1  0
134250  1  0
137251  1  0
137252  1  0
137253  1  0
138254  1  0
139255  1  0
141256  1  0
142257  1  0
145258  1  0
145259  1  0
145260  1  0
146261  1  0
147262  1  0
150263  1  0
157264  1  0
160265  1  0
M  END

