
     RDKit          3D

160179  0  0  0  0  0  0  0  0999 V2000
    6.9571    0.1610    2.0614 C   0  0  0  0  0  0  0  0  0  0  0  0
    7.1232    1.3802    1.4802 C   0  0  0  0  0  0  0  0  0  0  0  0
    7.1267    2.6923    2.1466 C   0  0  0  0  0  0  0  0  0  0  0  0
    6.8743    2.9047    3.3937 O   0  0  0  0  0  0  0  0  0  0  0  0
    7.4054    3.7019    1.1409 C   0  0  0  0  0  0  0  0  0  0  0  0
    7.1464    5.1325    1.2385 C   0  0  0  0  0  0  0  0  0  0  0  0
    7.0700    5.7008   -0.0484 C   0  0  0  0  0  0  0  0  0  0  0  0
    7.2248    4.9795   -1.2685 C   0  0  0  0  0  0  0  0  0  0  0  0
    7.6542    3.7348   -1.3714 C   0  0  0  0  0  0  0  0  0  0  0  0
    7.6605    3.0278   -0.0959 C   0  0  0  0  0  0  0  0  0  0  0  0
    7.5109    1.5592    0.0455 C   0  0  0  0  0  0  0  0  0  0  0  0
    7.3974    0.6119   -0.9709 C   0  0  0  0  0  0  0  0  0  0  0  0
    7.8130    0.8769   -2.3024 C   0  0  0  0  0  0  0  0  0  0  0  0
    8.0778    1.1200   -3.3862 N   0  0  0  0  0  0  0  0  0  0  0  0
    6.6127   -0.6085   -0.8876 C   0  0  0  0  0  0  0  0  0  0  0  0
    5.9611   -1.5463   -0.8530 N   0  0  0  0  0  0  0  0  0  0  0  0
    6.8369    6.1869   -2.0932 C   0  0  0  0  0  0  0  0  0  0  0  0
    7.9889    6.8817   -2.9287 C   0  0  0  0  0  0  0  0  0  0  0  0
    7.4530    8.2541   -3.2600 C   0  0  0  0  0  0  0  0  0  0  0  0
    7.4680    8.9525   -2.1257 C   0  0  0  0  0  0  0  0  0  0  0  0
    7.9632    8.0212   -1.0384 C   0  0  0  0  0  0  0  0  0  0  0  0
    9.0016    7.2398   -1.8606 C   0  0  0  0  0  0  0  0  0  0  0  0
    6.7897    6.9359   -0.8330 C   0  0  0  0  0  0  0  0  0  0  0  0
    5.7326   -0.1339    3.0001 C   0  0  0  0  0  0  0  0  0  0  0  0
    4.6176    0.6702    3.1678 C   0  0  0  0  0  0  0  0  0  0  0  0
    3.3250    0.1172    3.6986 C   0  0  0  0  0  0  0  0  0  0  0  0
    2.2016    1.0448    3.5931 N   0  0  0  0  0  0  0  0  0  0  0  0
    2.9483    2.2752    2.8879 S   0  0  0  0  0  4  0  0  0  0  0  0
    4.5128    2.0155    2.6524 N   0  0  0  0  0  0  0  0  0  0  0  0
    3.1584   -1.2641    3.7469 C   0  0  0  0  0  0  0  0  0  0  0  0
    4.3276   -2.0327    3.8615 C   0  0  0  0  0  0  0  0  0  0  0  0
    4.3523   -3.3566    4.1670 N   0  0  0  0  0  0  0  0  0  0  0  0
    5.9789   -3.6743    3.9556 S   0  0  0  0  0  0  0  0  0  0  0  0
    6.7244   -2.2897    3.4482 N   0  0  0  0  0  0  0  0  0  0  0  0
    5.6636   -1.4686    3.4857 C   0  0  0  0  0  0  0  0  0  0  0  0
    1.9203   -1.8633    3.0546 C   0  0  0  0  0  0  0  0  0  0  0  0
    1.0048   -2.8791    3.4454 C   0  0  0  0  0  0  0  0  0  0  0  0
    0.9802   -3.5008    4.7997 N   0  0  0  0  0  0  0  0  0  0  0  0
   -0.1240   -3.0928    5.6566 C   0  0  0  0  0  0  0  0  0  0  0  0
   -1.4433   -3.3540    5.2882 C   0  0  0  0  0  0  0  0  0  0  0  0
   -2.5142   -2.7002    5.9112 C   0  0  0  0  0  0  0  0  0  0  0  0
   -2.2827   -1.8663    7.0021 C   0  0  0  0  0  0  0  0  0  0  0  0
   -3.6557   -1.2341    7.9800 S   0  0  0  0  0  0  0  0  0  0  0  0
   -3.9917    0.2449    6.9397 C   0  0  0  0  0  0  0  0  0  0  0  0
   -0.9400   -1.7619    7.5396 C   0  0  0  0  0  0  0  0  0  0  0  0
    0.1402   -2.3506    6.8642 C   0  0  0  0  0  0  0  0  0  0  0  0
    1.7568   -4.6288    5.0533 C   0  0  0  0  0  0  0  0  0  0  0  0
    1.9436   -5.6528    4.0653 C   0  0  0  0  0  0  0  0  0  0  0  0
    2.6810   -6.8090    4.3240 C   0  0  0  0  0  0  0  0  0  0  0  0
    3.3208   -6.9977    5.5817 C   0  0  0  0  0  0  0  0  0  0  0  0
    4.2836   -8.5551    5.8198 S   0  0  0  0  0  0  0  0  0  0  0  0
    4.7792   -8.4266    7.5977 C   0  0  0  0  0  0  0  0  0  0  0  0
    3.1864   -5.9811    6.5857 C   0  0  0  0  0  0  0  0  0  0  0  0
    2.4316   -4.8127    6.3219 C   0  0  0  0  0  0  0  0  0  0  0  0
   -0.0143   -2.9531    2.4478 C   0  0  0  0  0  0  0  0  0  0  0  0
   -1.3552   -3.9118    1.9950 S   0  0  0  0  0  0  0  0  0  0  0  0
   -1.7439   -2.9817    0.5963 C   0  0  0  0  0  0  0  0  0  0  0  0
   -0.7822   -1.9656    0.4957 C   0  0  0  0  0  0  0  0  0  0  0  0
   -0.6128   -1.0514   -0.6439 N   0  0  0  0  0  0  0  0  0  0  0  0
   -0.1289   -1.5857   -1.8853 C   0  0  0  0  0  0  0  0  0  0  0  0
    0.9506   -2.4984   -1.9504 C   0  0  0  0  0  0  0  0  0  0  0  0
    1.5423   -2.8510   -3.1884 C   0  0  0  0  0  0  0  0  0  0  0  0
    1.0495   -2.3016   -4.3820 C   0  0  0  0  0  0  0  0  0  0  0  0
    1.9699   -2.5703   -5.9385 S   0  0  0  0  0  0  0  0  0  0  0  0
    0.8977   -3.9488   -6.5429 C   0  0  0  0  0  0  0  0  0  0  0  0
   -0.0221   -1.3655   -4.3378 C   0  0  0  0  0  0  0  0  0  0  0  0
   -0.5994   -1.0149   -3.0986 C   0  0  0  0  0  0  0  0  0  0  0  0
   -0.5780    0.3477   -0.3900 C   0  0  0  0  0  0  0  0  0  0  0  0
   -1.5912    1.0060    0.3899 C   0  0  0  0  0  0  0  0  0  0  0  0
   -1.5142    2.3806    0.6459 C   0  0  0  0  0  0  0  0  0  0  0  0
   -0.3490    3.1244    0.1818 C   0  0  0  0  0  0  0  0  0  0  0  0
   -0.1270    4.9202    0.3251 S   0  0  0  0  0  0  0  0  0  0  0  0
   -1.1288    5.2967    1.8156 C   0  0  0  0  0  0  0  0  0  0  0  0
    0.5985    2.4809   -0.6432 C   0  0  0  0  0  0  0  0  0  0  0  0
    0.4994    1.1208   -0.9267 C   0  0  0  0  0  0  0  0  0  0  0  0
    0.1425   -1.9995    1.4735 C   0  0  0  0  0  0  0  0  0  0  0  0
    1.5545   -1.1220    1.5556 S   0  0  0  0  0  0  0  0  0  0  0  0
   -2.8368   -3.2518   -0.3842 C   0  0  0  0  0  0  0  0  0  0  0  0
   -3.2119   -2.2789   -1.3551 C   0  0  0  0  0  0  0  0  0  0  0  0
   -4.0966   -2.6064   -2.3947 C   0  0  0  0  0  0  0  0  0  0  0  0
   -4.7764   -3.8248   -2.3818 C   0  0  0  0  0  0  0  0  0  0  0  0
   -4.4355   -4.8198   -1.4195 C   0  0  0  0  0  0  0  0  0  0  0  0
   -3.5029   -4.5170   -0.4028 C   0  0  0  0  0  0  0  0  0  0  0  0
   -5.7527   -4.1700   -3.3917 C   0  0  0  0  0  0  0  0  0  0  0  0
   -6.4462   -3.2575   -4.1493 C   0  0  0  0  0  0  0  0  0  0  0  0
   -7.0245   -1.9806   -3.6852 C   0  0  0  0  0  0  0  0  0  0  0  0
   -6.7853   -1.4247   -2.5673 O   0  0  0  0  0  0  0  0  0  0  0  0
   -7.8120   -1.4316   -4.7671 C   0  0  0  0  0  0  0  0  0  0  0  0
   -8.4359   -0.1644   -4.7973 C   0  0  0  0  0  0  0  0  0  0  0  0
   -8.9331    0.1135   -6.0825 C   0  0  0  0  0  0  0  0  0  0  0  0
   -8.8439   -0.8110   -7.2059 C   0  0  0  0  0  0  0  0  0  0  0  0
   -8.3318   -2.0887   -7.1931 C   0  0  0  0  0  0  0  0  0  0  0  0
   -7.6971   -2.3599   -5.9166 C   0  0  0  0  0  0  0  0  0  0  0  0
   -6.7068   -3.3807   -5.5800 C   0  0  0  0  0  0  0  0  0  0  0  0
   -6.1102   -4.4396   -6.2759 C   0  0  0  0  0  0  0  0  0  0  0  0
   -6.1862   -4.9769   -7.6135 C   0  0  0  0  0  0  0  0  0  0  0  0
   -6.1527   -5.6206   -8.5795 N   0  0  0  0  0  0  0  0  0  0  0  0
   -4.7980   -4.2772   -6.1075 C   0  0  0  0  0  0  0  0  0  0  0  0
   -3.6606   -3.8513   -6.0562 N   0  0  0  0  0  0  0  0  0  0  0  0
   -9.4823    0.2605   -8.0667 C   0  0  0  0  0  0  0  0  0  0  0  0
  -10.9941    0.0060   -8.5049 C   0  0  0  0  0  0  0  0  0  0  0  0
  -11.5006    1.3274   -9.0488 C   0  0  0  0  0  0  0  0  0  0  0  0
  -11.6166    2.1700   -7.9996 C   0  0  0  0  0  0  0  0  0  0  0  0
  -11.1514    1.3553   -6.7753 C   0  0  0  0  0  0  0  0  0  0  0  0
  -11.7199    0.0036   -7.1813 C   0  0  0  0  0  0  0  0  0  0  0  0
   -9.5870    1.1655   -6.9155 C   0  0  0  0  0  0  0  0  0  0  0  0
    7.1305   -0.7542    1.5206 H   0  0  0  0  0  0  0  0  0  0  0  0
    6.8631    5.6410    2.1560 H   0  0  0  0  0  0  0  0  0  0  0  0
    7.7545    3.4133   -2.3828 H   0  0  0  0  0  0  0  0  0  0  0  0
    5.8701    6.0165   -2.6216 H   0  0  0  0  0  0  0  0  0  0  0  0
    8.3713    6.2856   -3.7880 H   0  0  0  0  0  0  0  0  0  0  0  0
    7.0844    8.6021   -4.2131 H   0  0  0  0  0  0  0  0  0  0  0  0
    7.1845   10.0009   -1.9897 H   0  0  0  0  0  0  0  0  0  0  0  0
    8.3297    8.4725   -0.1043 H   0  0  0  0  0  0  0  0  0  0  0  0
    9.8795    7.9043   -2.2515 H   0  0  0  0  0  0  0  0  0  0  0  0
    9.4884    6.3939   -1.3305 H   0  0  0  0  0  0  0  0  0  0  0  0
    5.7855    7.3644   -0.6274 H   0  0  0  0  0  0  0  0  0  0  0  0
   -1.6690   -4.0156    4.4720 H   0  0  0  0  0  0  0  0  0  0  0  0
   -3.5216   -2.8815    5.5243 H   0  0  0  0  0  0  0  0  0  0  0  0
   -4.5900    0.9495    7.5542 H   0  0  0  0  0  0  0  0  0  0  0  0
   -3.0676    0.7822    6.6218 H   0  0  0  0  0  0  0  0  0  0  0  0
   -4.6206    0.0170    6.0457 H   0  0  0  0  0  0  0  0  0  0  0  0
   -0.7386   -1.2319    8.4787 H   0  0  0  0  0  0  0  0  0  0  0  0
    1.1814   -2.1971    7.1814 H   0  0  0  0  0  0  0  0  0  0  0  0
    1.4413   -5.5448    3.0660 H   0  0  0  0  0  0  0  0  0  0  0  0
    2.7822   -7.5895    3.5481 H   0  0  0  0  0  0  0  0  0  0  0  0
    3.9080   -8.3811    8.3065 H   0  0  0  0  0  0  0  0  0  0  0  0
    5.3432   -9.3510    7.8282 H   0  0  0  0  0  0  0  0  0  0  0  0
    5.4691   -7.5614    7.8006 H   0  0  0  0  0  0  0  0  0  0  0  0
    3.6534   -6.0203    7.5846 H   0  0  0  0  0  0  0  0  0  0  0  0
    2.3498   -4.0257    7.0879 H   0  0  0  0  0  0  0  0  0  0  0  0
    1.4099   -2.9036   -1.0209 H   0  0  0  0  0  0  0  0  0  0  0  0
    2.4400   -3.5320   -3.1606 H   0  0  0  0  0  0  0  0  0  0  0  0
    1.5301   -4.6917   -7.0407 H   0  0  0  0  0  0  0  0  0  0  0  0
    0.3147   -4.5091   -5.7771 H   0  0  0  0  0  0  0  0  0  0  0  0
    0.1996   -3.6272   -7.3352 H   0  0  0  0  0  0  0  0  0  0  0  0
   -0.3306   -0.8863   -5.2533 H   0  0  0  0  0  0  0  0  0  0  0  0
   -1.3742   -0.2755   -3.0635 H   0  0  0  0  0  0  0  0  0  0  0  0
   -2.4370    0.4115    0.7774 H   0  0  0  0  0  0  0  0  0  0  0  0
   -2.3011    2.8445    1.2450 H   0  0  0  0  0  0  0  0  0  0  0  0
   -1.2142    4.5228    2.6338 H   0  0  0  0  0  0  0  0  0  0  0  0
   -0.6993    6.1640    2.3525 H   0  0  0  0  0  0  0  0  0  0  0  0
   -2.1239    5.6893    1.5308 H   0  0  0  0  0  0  0  0  0  0  0  0
    1.4543    3.0006   -1.0781 H   0  0  0  0  0  0  0  0  0  0  0  0
    1.3078    0.6710   -1.5271 H   0  0  0  0  0  0  0  0  0  0  0  0
   -2.8654   -1.2437   -1.4030 H   0  0  0  0  0  0  0  0  0  0  0  0
   -4.2357   -1.8040   -3.1845 H   0  0  0  0  0  0  0  0  0  0  0  0
   -4.9569   -5.8174   -1.4699 H   0  0  0  0  0  0  0  0  0  0  0  0
   -3.3231   -5.3103    0.3529 H   0  0  0  0  0  0  0  0  0  0  0  0
   -5.4022   -5.1258   -3.8234 H   0  0  0  0  0  0  0  0  0  0  0  0
   -8.3937    0.5879   -3.9702 H   0  0  0  0  0  0  0  0  0  0  0  0
   -8.3382   -2.7546   -8.0770 H   0  0  0  0  0  0  0  0  0  0  0  0
   -8.8226    0.6062   -8.9025 H   0  0  0  0  0  0  0  0  0  0  0  0
  -11.1658   -0.8704   -9.1780 H   0  0  0  0  0  0  0  0  0  0  0  0
  -11.7472    1.6032  -10.0818 H   0  0  0  0  0  0  0  0  0  0  0  0
  -11.8947    3.2356   -8.0172 H   0  0  0  0  0  0  0  0  0  0  0  0
  -11.5180    1.7445   -5.8006 H   0  0  0  0  0  0  0  0  0  0  0  0
  -12.8996   -0.0535   -7.2712 H   0  0  0  0  0  0  0  0  0  0  0  0
  -11.4719   -0.8408   -6.5212 H   0  0  0  0  0  0  0  0  0  0  0  0
   -9.0314    2.1482   -7.0389 H   0  0  0  0  0  0  0  0  0  0  0  0
  1  2  2  3
  2  3  1  0
  3  4  2  0
  3  5  1  0
  5  6  2  0
  6  7  1  0
  7  8  2  0
  8  9  1  0
  9 10  2  0
 10 11  1  0
 11 12  2  3
 12 13  1  0
 13 14  3  0
 12 15  1  0
 15 16  3  0
  8 17  1  0
 17 18  1  0
 18 19  1  0
 19 20  2  0
 20 21  1  0
 21 22  1  0
 21 23  1  0
  1 24  1  0
 24 25  2  0
 25 26  1  0
 26 27  1  0
 27 28  2  0
 28 29  2  0
 26 30  2  0
 30 31  1  0
 31 32  2  0
 32 33  1  0
 33 34  1  0
 34 35  2  0
 30 36  1  0
 36 37  2  0
 37 38  1  0
 38 39  1  0
 39 40  2  0
 40 41  1  0
 41 42  2  0
 42 43  1  0
 43 44  1  0
 42 45  1  0
 45 46  2  0
 38 47  1  0
 47 48  2  0
 48 49  1  0
 49 50  2  0
 50 51  1  0
 51 52  1  0
 50 53  1  0
 53 54  2  0
 37 55  1  0
 55 56  1  0
 56 57  1  0
 57 58  2  0
 58 59  1  0
 59 60  1  0
 60 61  2  0
 61 62  1  0
 62 63  2  0
 63 64  1  0
 64 65  1  0
 63 66  1  0
 66 67  2  0
 59 68  1  0
 68 69  2  0
 69 70  1  0
 70 71  2  0
 71 72  1  0
 72 73  1  0
 71 74  1  0
 74 75  2  0
 58 76  1  0
 76 77  1  0
 57 78  1  0
 78 79  2  0
 79 80  1  0
 80 81  2  0
 81 82  1  0
 82 83  2  0
 81 84  1  0
 84 85  2  3
 85 86  1  0
 86 87  2  0
 86 88  1  0
 88 89  2  0
 89 90  1  0
 90 91  2  0
 91 92  1  0
 92 93  2  0
 93 94  1  0
 94 95  2  3
 95 96  1  0
 96 97  3  0
 95 98  1  0
 98 99  3  0
 91100  1  0
100101  1  0
101102  1  0
102103  2  0
103104  1  0
104105  1  0
104106  1  0
 11  2  1  0
 23 17  1  0
 35 24  1  0
 77 36  1  0
 83 78  1  0
 94 85  1  0
106100  1  0
 10  5  1  0
 22 18  1  0
 29 25  1  0
 35 31  1  0
 46 39  1  0
 54 47  1  0
 76 55  2  0
 93 88  1  0
105101  1  0
 23  7  1  0
 67 60  1  0
 75 68  1  0
106 90  1  0
  1107  1  0
  6108  1  0
  9109  1  0
 17110  1  0
 18111  1  0
 19112  1  0
 20113  1  0
 21114  1  0
 22115  1  0
 22116  1  0
 23117  1  0
 40118  1  0
 41119  1  0
 44120  1  0
 44121  1  0
 44122  1  0
 45123  1  0
 46124  1  0
 48125  1  0
 49126  1  0
 52127  1  0
 52128  1  0
 52129  1  0
 53130  1  0
 54131  1  0
 61132  1  0
 62133  1  0
 65134  1  0
 65135  1  0
 65136  1  0
 66137  1  0
 67138  1  0
 69139  1  0
 70140  1  0
 73141  1  0
 73142  1  0
 73143  1  0
 74144  1  0
 75145  1  0
 79146  1  0
 80147  1  0
 82148  1  0
 83149  1  0
 84150  1  0
 89151  1  0
 92152  1  0
100153  1  0
101154  1  0
102155  1  0
103156  1  0
104157  1  0
105158  1  0
105159  1  0
106160  1  0
M  END

