
     RDKit          3D

189207  0  0  0  0  0  0  0  0999 V2000
   -6.7780   -0.1314    0.3705 C   0  0  0  0  0  0  0  0  0  0  0  0
   -6.4639    1.1725    0.2093 C   0  0  0  0  0  0  0  0  0  0  0  0
   -5.1592    1.7684    0.5443 C   0  0  0  0  0  0  0  0  0  0  0  0
   -4.1641    1.1657    1.0341 O   0  0  0  0  0  0  0  0  0  0  0  0
   -5.2013    3.1866    0.2839 C   0  0  0  0  0  0  0  0  0  0  0  0
   -4.1500    4.1135    0.4637 C   0  0  0  0  0  0  0  0  0  0  0  0
   -4.5044    5.4207    0.1860 C   0  0  0  0  0  0  0  0  0  0  0  0
   -5.8218    5.8007   -0.2274 C   0  0  0  0  0  0  0  0  0  0  0  0
   -6.8531    4.8965   -0.4092 C   0  0  0  0  0  0  0  0  0  0  0  0
   -6.4986    3.5348   -0.1750 C   0  0  0  0  0  0  0  0  0  0  0  0
   -7.3210    2.2895   -0.3190 C   0  0  0  0  0  0  0  0  0  0  0  0
   -8.4885    2.1749   -1.0048 C   0  0  0  0  0  0  0  0  0  0  0  0
   -9.1728    0.9214   -1.1895 C   0  0  0  0  0  0  0  0  0  0  0  0
   -9.7412   -0.0776   -1.3459 N   0  0  0  0  0  0  0  0  0  0  0  0
   -9.0934    3.2792   -1.6936 C   0  0  0  0  0  0  0  0  0  0  0  0
   -9.5851    4.1604   -2.2612 N   0  0  0  0  0  0  0  0  0  0  0  0
   -5.4130    7.2419   -0.2625 C   0  0  0  0  0  0  0  0  0  0  0  0
   -5.8936    8.1628    0.8999 C   0  0  0  0  0  0  0  0  0  0  0  0
   -6.0275    7.3632    2.1773 C   0  0  0  0  0  0  0  0  0  0  0  0
   -4.7885    7.0263    2.5440 C   0  0  0  0  0  0  0  0  0  0  0  0
   -3.8628    7.5989    1.4993 C   0  0  0  0  0  0  0  0  0  0  0  0
   -4.6015    8.8911    1.2066 C   0  0  0  0  0  0  0  0  0  0  0  0
   -4.0591    6.8551    0.1421 C   0  0  0  0  0  0  0  0  0  0  0  0
   -5.7485   -1.1301    0.7071 C   0  0  0  0  0  0  0  0  0  0  0  0
   -5.5258   -1.5381    2.0359 C   0  0  0  0  0  0  0  0  0  0  0  0
   -6.3578   -1.2666    3.1342 C   0  0  0  0  0  0  0  0  0  0  0  0
   -5.8059   -1.6985    4.3386 C   0  0  0  0  0  0  0  0  0  0  0  0
   -6.4553   -1.5841    5.6837 C   0  0  0  0  0  0  0  0  0  0  0  0
   -7.4162   -2.7418    5.9188 C   0  0  0  0  0  0  0  0  0  0  0  0
   -4.3051   -2.4131    4.0529 S   0  0  0  0  0  0  0  0  0  0  0  0
   -4.3338   -2.1775    2.3901 C   0  0  0  0  0  0  0  0  0  0  0  0
   -3.3004   -2.4096    1.4687 C   0  0  0  0  0  0  0  0  0  0  0  0
   -3.5643   -2.0865    0.1146 C   0  0  0  0  0  0  0  0  0  0  0  0
   -4.7803   -1.4935   -0.2412 C   0  0  0  0  0  0  0  0  0  0  0  0
   -4.7630   -1.1171   -1.8822 S   0  0  0  0  0  0  0  0  0  0  0  0
   -3.2093   -1.7027   -2.1672 C   0  0  0  0  0  0  0  0  0  0  0  0
   -2.4948   -1.6355   -3.4819 C   0  0  0  0  0  0  0  0  0  0  0  0
   -2.1510   -3.0340   -3.9937 C   0  0  0  0  0  0  0  0  0  0  0  0
   -2.6724   -2.1739   -0.9759 C   0  0  0  0  0  0  0  0  0  0  0  0
   -1.9191   -2.5753    1.9543 C   0  0  0  0  0  0  0  0  0  0  0  0
   -0.9142   -3.3652    1.3480 C   0  0  0  0  0  0  0  0  0  0  0  0
   -1.1547   -4.6185    0.6479 N   0  0  0  0  0  0  0  0  0  0  0  0
   -0.0430   -5.4087    0.1971 C   0  0  0  0  0  0  0  0  0  0  0  0
    0.8859   -5.9055    1.1260 C   0  0  0  0  0  0  0  0  0  0  0  0
    2.0434   -6.5523    0.6884 C   0  0  0  0  0  0  0  0  0  0  0  0
    2.2661   -6.7436   -0.6809 C   0  0  0  0  0  0  0  0  0  0  0  0
    3.7958   -7.4854   -1.2477 S   0  0  0  0  0  0  0  0  0  0  0  0
    3.1969   -9.1935   -1.0600 C   0  0  0  0  0  0  0  0  0  0  0  0
    1.3124   -6.3034   -1.6097 C   0  0  0  0  0  0  0  0  0  0  0  0
    0.1657   -5.6331   -1.1717 C   0  0  0  0  0  0  0  0  0  0  0  0
   -2.4267   -5.2817    0.7653 C   0  0  0  0  0  0  0  0  0  0  0  0
   -2.9595   -5.5613    2.0348 C   0  0  0  0  0  0  0  0  0  0  0  0
   -4.2249   -6.1441    2.1566 C   0  0  0  0  0  0  0  0  0  0  0  0
   -4.9593   -6.4713    1.0120 C   0  0  0  0  0  0  0  0  0  0  0  0
   -6.5911   -7.1932    1.1774 S   0  0  0  0  0  0  0  0  0  0  0  0
   -7.4622   -5.5935    1.1887 C   0  0  0  0  0  0  0  0  0  0  0  0
   -4.4237   -6.2173   -0.2574 C   0  0  0  0  0  0  0  0  0  0  0  0
   -3.1626   -5.6259   -0.3801 C   0  0  0  0  0  0  0  0  0  0  0  0
    0.3350   -2.7400    1.4871 C   0  0  0  0  0  0  0  0  0  0  0  0
    1.7605   -2.7806    0.5987 S   0  0  0  0  0  0  0  0  0  0  0  0
    2.4306   -1.3933    1.3245 C   0  0  0  0  0  0  0  0  0  0  0  0
    1.5135   -0.8722    2.2444 C   0  0  0  0  0  0  0  0  0  0  0  0
    1.8404    0.1286    3.2241 N   0  0  0  0  0  0  0  0  0  0  0  0
    2.8790   -0.2128    4.1521 C   0  0  0  0  0  0  0  0  0  0  0  0
    4.0571    0.5403    4.2104 C   0  0  0  0  0  0  0  0  0  0  0  0
    5.0879    0.1612    5.0806 C   0  0  0  0  0  0  0  0  0  0  0  0
    4.9333   -0.9591    5.9115 C   0  0  0  0  0  0  0  0  0  0  0  0
    6.2604   -1.4506    7.0145 S   0  0  0  0  0  0  0  0  0  0  0  0
    6.7861   -2.8685    5.9938 C   0  0  0  0  0  0  0  0  0  0  0  0
    3.7392   -1.6885    5.8788 C   0  0  0  0  0  0  0  0  0  0  0  0
    2.7237   -1.3296    4.9908 C   0  0  0  0  0  0  0  0  0  0  0  0
    0.9010    1.1763    3.5498 C   0  0  0  0  0  0  0  0  0  0  0  0
    0.5123    1.4111    4.8855 C   0  0  0  0  0  0  0  0  0  0  0  0
   -0.4541    2.3763    5.1800 C   0  0  0  0  0  0  0  0  0  0  0  0
   -1.0351    3.1217    4.1493 C   0  0  0  0  0  0  0  0  0  0  0  0
   -2.2991    4.3417    4.5284 S   0  0  0  0  0  0  0  0  0  0  0  0
   -3.6732    3.1692    4.2994 C   0  0  0  0  0  0  0  0  0  0  0  0
   -0.6331    2.9189    2.8260 C   0  0  0  0  0  0  0  0  0  0  0  0
    0.3260    1.9479    2.5290 C   0  0  0  0  0  0  0  0  0  0  0  0
    0.3539   -1.6397    2.2864 C   0  0  0  0  0  0  0  0  0  0  0  0
   -1.1966   -1.2809    2.7859 S   0  0  0  0  0  0  0  0  0  0  0  0
    3.4847   -0.6011    0.6761 C   0  0  0  0  0  0  0  0  0  0  0  0
    3.1878    0.4075   -0.2751 C   0  0  0  0  0  0  0  0  0  0  0  0
    1.9081    0.8523   -0.6549 C   0  0  0  0  0  0  0  0  0  0  0  0
    1.9485    1.9137   -1.5634 C   0  0  0  0  0  0  0  0  0  0  0  0
    0.7942    2.6551   -2.0890 C   0  0  0  0  0  0  0  0  0  0  0  0
    0.9780    3.7367   -2.7057 O   0  0  0  0  0  0  0  0  0  0  0  0
   -0.5029    2.1658   -1.8919 O   0  0  0  0  0  0  0  0  0  0  0  0
   -1.6573    2.9263   -2.2162 C   0  0  0  0  0  0  0  0  0  0  0  0
   -2.8873    2.0407   -2.1362 C   0  0  0  0  0  0  0  0  0  0  0  0
    3.5560    2.2503   -1.9551 S   0  0  0  0  0  0  0  0  0  0  0  0
    4.2181    1.0594   -0.9740 C   0  0  0  0  0  0  0  0  0  0  0  0
    5.5656    0.6770   -0.8463 C   0  0  0  0  0  0  0  0  0  0  0  0
    5.8360   -0.2572    0.1596 C   0  0  0  0  0  0  0  0  0  0  0  0
    4.8441   -0.8736    0.8819 C   0  0  0  0  0  0  0  0  0  0  0  0
    5.4048   -1.8112    1.6620 N   0  0  0  0  0  0  0  0  0  0  0  0
    6.7065   -1.7390    1.3974 N   0  0  0  0  0  0  0  0  0  0  0  0
    7.6996   -2.5972    2.0272 C   0  0  0  0  0  0  0  0  0  0  0  0
    8.5678   -1.7874    2.9858 C   0  0  0  0  0  0  0  0  0  0  0  0
    7.0108   -0.8196    0.4869 N   0  0  0  0  0  0  0  0  0  0  0  0
    6.6161    1.1250   -1.7758 C   0  0  0  0  0  0  0  0  0  0  0  0
    6.5319    1.0784   -3.1222 C   0  0  0  0  0  0  0  0  0  0  0  0
    7.3869    1.8956   -3.9836 C   0  0  0  0  0  0  0  0  0  0  0  0
    8.4303    2.5023   -3.6219 O   0  0  0  0  0  0  0  0  0  0  0  0
    6.7884    1.9609   -5.3012 C   0  0  0  0  0  0  0  0  0  0  0  0
    7.2875    2.5951   -6.4436 C   0  0  0  0  0  0  0  0  0  0  0  0
    6.6086    2.4251   -7.6667 C   0  0  0  0  0  0  0  0  0  0  0  0
    7.1729    2.9591   -8.9231 C   0  0  0  0  0  0  0  0  0  0  0  0
    8.1593    3.7547   -8.8849 O   0  0  0  0  0  0  0  0  0  0  0  0
    6.6764    2.5091  -10.1482 O   0  0  0  0  0  0  0  0  0  0  0  0
    7.2419    2.8905  -11.3977 C   0  0  0  0  0  0  0  0  0  0  0  0
    5.4187    1.6664   -7.6960 C   0  0  0  0  0  0  0  0  0  0  0  0
    4.9209    1.0632   -6.5278 C   0  0  0  0  0  0  0  0  0  0  0  0
    5.6257    1.2067   -5.3201 C   0  0  0  0  0  0  0  0  0  0  0  0
    5.4470    0.5309   -4.0026 C   0  0  0  0  0  0  0  0  0  0  0  0
    4.6608   -0.5510   -3.7669 C   0  0  0  0  0  0  0  0  0  0  0  0
    4.9793   -1.5264   -2.7601 C   0  0  0  0  0  0  0  0  0  0  0  0
    5.2136   -2.3279   -1.9573 N   0  0  0  0  0  0  0  0  0  0  0  0
    3.4985   -0.8577   -4.5569 C   0  0  0  0  0  0  0  0  0  0  0  0
    2.5613   -1.1312   -5.1758 N   0  0  0  0  0  0  0  0  0  0  0  0
   -7.7796   -0.5084    0.2603 H   0  0  0  0  0  0  0  0  0  0  0  0
   -3.1616    3.8309    0.7967 H   0  0  0  0  0  0  0  0  0  0  0  0
   -7.8358    5.2448   -0.6836 H   0  0  0  0  0  0  0  0  0  0  0  0
   -5.4596    7.7019   -1.2761 H   0  0  0  0  0  0  0  0  0  0  0  0
   -6.7632    8.8101    0.6573 H   0  0  0  0  0  0  0  0  0  0  0  0
   -6.9345    7.1738    2.7411 H   0  0  0  0  0  0  0  0  0  0  0  0
   -4.5095    6.5330    3.4669 H   0  0  0  0  0  0  0  0  0  0  0  0
   -2.8066    7.7174    1.8258 H   0  0  0  0  0  0  0  0  0  0  0  0
   -4.6767    9.5724    2.0888 H   0  0  0  0  0  0  0  0  0  0  0  0
   -4.1927    9.4516    0.3379 H   0  0  0  0  0  0  0  0  0  0  0  0
   -3.2859    7.0652   -0.6311 H   0  0  0  0  0  0  0  0  0  0  0  0
   -7.3092   -0.7537    3.0609 H   0  0  0  0  0  0  0  0  0  0  0  0
   -7.0043   -0.6215    5.7527 H   0  0  0  0  0  0  0  0  0  0  0  0
   -5.6698   -1.5892    6.4721 H   0  0  0  0  0  0  0  0  0  0  0  0
   -7.8704   -2.6392    6.9286 H   0  0  0  0  0  0  0  0  0  0  0  0
   -6.8770   -3.7139    5.8645 H   0  0  0  0  0  0  0  0  0  0  0  0
   -8.2231   -2.7281    5.1566 H   0  0  0  0  0  0  0  0  0  0  0  0
   -1.5549   -1.0577   -3.3597 H   0  0  0  0  0  0  0  0  0  0  0  0
   -3.1271   -1.1149   -4.2353 H   0  0  0  0  0  0  0  0  0  0  0  0
   -1.4465   -3.5350   -3.2982 H   0  0  0  0  0  0  0  0  0  0  0  0
   -1.6739   -2.9624   -4.9903 H   0  0  0  0  0  0  0  0  0  0  0  0
   -3.0714   -3.6485   -4.0918 H   0  0  0  0  0  0  0  0  0  0  0  0
   -1.6580   -2.5338   -0.9240 H   0  0  0  0  0  0  0  0  0  0  0  0
    0.7390   -5.7342    2.1861 H   0  0  0  0  0  0  0  0  0  0  0  0
    2.7857   -6.8754    1.4100 H   0  0  0  0  0  0  0  0  0  0  0  0
    3.9958   -9.8966   -1.3733 H   0  0  0  0  0  0  0  0  0  0  0  0
    2.9458   -9.3937    0.0058 H   0  0  0  0  0  0  0  0  0  0  0  0
    2.3029   -9.3574   -1.6960 H   0  0  0  0  0  0  0  0  0  0  0  0
    1.4758   -6.4588   -2.6698 H   0  0  0  0  0  0  0  0  0  0  0  0
   -0.5361   -5.2587   -1.9028 H   0  0  0  0  0  0  0  0  0  0  0  0
   -2.4064   -5.3030    2.9282 H   0  0  0  0  0  0  0  0  0  0  0  0
   -4.6393   -6.3175    3.1406 H   0  0  0  0  0  0  0  0  0  0  0  0
   -8.3991   -5.6910    1.7714 H   0  0  0  0  0  0  0  0  0  0  0  0
   -7.7097   -5.3092    0.1488 H   0  0  0  0  0  0  0  0  0  0  0  0
   -6.8472   -4.7964    1.6504 H   0  0  0  0  0  0  0  0  0  0  0  0
   -4.9882   -6.4648   -1.1444 H   0  0  0  0  0  0  0  0  0  0  0  0
   -2.7805   -5.4035   -1.3662 H   0  0  0  0  0  0  0  0  0  0  0  0
    4.1808    1.4132    3.5800 H   0  0  0  0  0  0  0  0  0  0  0  0
    6.0041    0.7383    5.1119 H   0  0  0  0  0  0  0  0  0  0  0  0
    7.8774   -3.0283    6.1305 H   0  0  0  0  0  0  0  0  0  0  0  0
    6.2412   -3.7806    6.3202 H   0  0  0  0  0  0  0  0  0  0  0  0
    6.5855   -2.6980    4.9197 H   0  0  0  0  0  0  0  0  0  0  0  0
    3.6088   -2.5538    6.5169 H   0  0  0  0  0  0  0  0  0  0  0  0
    1.8110   -1.9174    4.9509 H   0  0  0  0  0  0  0  0  0  0  0  0
    0.9359    0.8288    5.6940 H   0  0  0  0  0  0  0  0  0  0  0  0
   -0.7617    2.5335    6.2074 H   0  0  0  0  0  0  0  0  0  0  0  0
   -3.6518    2.7507    3.2719 H   0  0  0  0  0  0  0  0  0  0  0  0
   -3.5986    2.3428    5.0394 H   0  0  0  0  0  0  0  0  0  0  0  0
   -4.6349    3.7000    4.4473 H   0  0  0  0  0  0  0  0  0  0  0  0
   -1.0729    3.5048    2.0305 H   0  0  0  0  0  0  0  0  0  0  0  0
    0.6161    1.8075    1.5029 H   0  0  0  0  0  0  0  0  0  0  0  0
    0.9805    0.4245   -0.2838 H   0  0  0  0  0  0  0  0  0  0  0  0
   -1.7551    3.7744   -1.5000 H   0  0  0  0  0  0  0  0  0  0  0  0
   -1.5746    3.3302   -3.2501 H   0  0  0  0  0  0  0  0  0  0  0  0
   -2.8835    1.3113   -2.9728 H   0  0  0  0  0  0  0  0  0  0  0  0
   -2.8874    1.4833   -1.1786 H   0  0  0  0  0  0  0  0  0  0  0  0
   -3.8054    2.6621   -2.2069 H   0  0  0  0  0  0  0  0  0  0  0  0
    8.3385   -3.0595    1.2480 H   0  0  0  0  0  0  0  0  0  0  0  0
    7.1885   -3.4105    2.5866 H   0  0  0  0  0  0  0  0  0  0  0  0
    7.9319   -1.2182    3.6948 H   0  0  0  0  0  0  0  0  0  0  0  0
    9.2243   -2.4683    3.5619 H   0  0  0  0  0  0  0  0  0  0  0  0
    9.1982   -1.0663    2.4167 H   0  0  0  0  0  0  0  0  0  0  0  0
    7.4988    1.5626   -1.3284 H   0  0  0  0  0  0  0  0  0  0  0  0
    8.2077    3.1654   -6.3802 H   0  0  0  0  0  0  0  0  0  0  0  0
    7.1208    3.9804  -11.5421 H   0  0  0  0  0  0  0  0  0  0  0  0
    8.3195    2.6256  -11.4225 H   0  0  0  0  0  0  0  0  0  0  0  0
    6.7199    2.3494  -12.2082 H   0  0  0  0  0  0  0  0  0  0  0  0
    4.8875    1.5210   -8.6309 H   0  0  0  0  0  0  0  0  0  0  0  0
    4.0261    0.4753   -6.6134 H   0  0  0  0  0  0  0  0  0  0  0  0
  1  2  2  3
  2  3  1  0
  3  4  2  0
  3  5  1  0
  5  6  2  0
  6  7  1  0
  7  8  2  0
  8  9  1  0
  9 10  2  0
 10 11  1  0
 11 12  2  3
 12 13  1  0
 13 14  3  0
 12 15  1  0
 15 16  3  0
  8 17  1  0
 17 18  1  0
 18 19  1  0
 19 20  2  0
 20 21  1  0
 21 22  1  0
 21 23  1  0
  1 24  1  0
 24 25  2  0
 25 26  1  0
 26 27  2  0
 27 28  1  0
 28 29  1  0
 27 30  1  0
 30 31  1  0
 31 32  2  0
 32 33  1  0
 33 34  2  0
 34 35  1  0
 35 36  1  0
 36 37  1  0
 37 38  1  0
 36 39  2  0
 32 40  1  0
 40 41  2  0
 41 42  1  0
 42 43  1  0
 43 44  2  0
 44 45  1  0
 45 46  2  0
 46 47  1  0
 47 48  1  0
 46 49  1  0
 49 50  2  0
 42 51  1  0
 51 52  2  0
 52 53  1  0
 53 54  2  0
 54 55  1  0
 55 56  1  0
 54 57  1  0
 57 58  2  0
 41 59  1  0
 59 60  1  0
 60 61  1  0
 61 62  2  0
 62 63  1  0
 63 64  1  0
 64 65  2  0
 65 66  1  0
 66 67  2  0
 67 68  1  0
 68 69  1  0
 67 70  1  0
 70 71  2  0
 63 72  1  0
 72 73  2  0
 73 74  1  0
 74 75  2  0
 75 76  1  0
 76 77  1  0
 75 78  1  0
 78 79  2  0
 62 80  1  0
 80 81  1  0
 61 82  1  0
 82 83  2  0
 83 84  1  0
 84 85  2  0
 85 86  1  0
 86 87  2  0
 86 88  1  0
 88 89  1  0
 89 90  1  0
 85 91  1  0
 91 92  1  0
 92 93  2  0
 93 94  1  0
 94 95  1  0
 95 96  2  0
 96 97  1  0
 97 98  1  0
 98 99  1  0
 97100  1  0
 93101  1  0
101102  2  3
102103  1  0
103104  2  0
103105  1  0
105106  2  0
106107  1  0
107108  1  0
108109  2  0
108110  1  0
110111  1  0
107112  2  0
112113  1  0
113114  2  0
114115  1  0
115116  2  3
116117  1  0
117118  3  0
116119  1  0
119120  3  0
 11  2  1  0
 23 17  1  0
 34 24  1  0
 81 40  1  0
 95 82  1  0
115102  1  0
 10  5  1  0
 22 18  1  0
 31 25  1  0
 39 33  1  0
 50 43  1  0
 58 51  1  0
 80 59  2  0
 92 83  1  0
100 94  2  0
114105  1  0
 23  7  1  0
 71 64  1  0
 79 72  1  0
  1121  1  0
  6122  1  0
  9123  1  0
 17124  1  0
 18125  1  0
 19126  1  0
 20127  1  0
 21128  1  0
 22129  1  0
 22130  1  0
 23131  1  0
 26132  1  0
 28133  1  0
 28134  1  0
 29135  1  0
 29136  1  0
 29137  1  0
 37138  1  0
 37139  1  0
 38140  1  0
 38141  1  0
 38142  1  0
 39143  1  0
 44144  1  0
 45145  1  0
 48146  1  0
 48147  1  0
 48148  1  0
 49149  1  0
 50150  1  0
 52151  1  0
 53152  1  0
 56153  1  0
 56154  1  0
 56155  1  0
 57156  1  0
 58157  1  0
 65158  1  0
 66159  1  0
 69160  1  0
 69161  1  0
 69162  1  0
 70163  1  0
 71164  1  0
 73165  1  0
 74166  1  0
 77167  1  0
 77168  1  0
 77169  1  0
 78170  1  0
 79171  1  0
 84172  1  0
 89173  1  0
 89174  1  0
 90175  1  0
 90176  1  0
 90177  1  0
 98178  1  0
 98179  1  0
 99180  1  0
 99181  1  0
 99182  1  0
101183  1  0
106184  1  0
111185  1  0
111186  1  0
111187  1  0
112188  1  0
113189  1  0
M  END

