
     RDKit          3D

213235  0  0  0  0  0  0  0  0999 V2000
   -3.4002    0.3547    5.2715 C   0  0  0  0  0  0  0  0  0  0  0  0
   -2.3472    1.1998    5.3013 C   0  0  0  0  0  0  0  0  0  0  0  0
   -1.1537    1.0785    4.4521 C   0  0  0  0  0  0  0  0  0  0  0  0
   -0.7052    0.0191    3.9435 O   0  0  0  0  0  0  0  0  0  0  0  0
   -0.5994    2.3891    4.2237 C   0  0  0  0  0  0  0  0  0  0  0  0
    0.2999    2.7369    3.1915 C   0  0  0  0  0  0  0  0  0  0  0  0
    0.4222    4.0946    2.9952 C   0  0  0  0  0  0  0  0  0  0  0  0
   -0.2883    5.0682    3.7665 C   0  0  0  0  0  0  0  0  0  0  0  0
   -1.1744    4.7331    4.7850 C   0  0  0  0  0  0  0  0  0  0  0  0
   -1.3198    3.3311    5.0018 C   0  0  0  0  0  0  0  0  0  0  0  0
   -2.3412    2.6049    5.8108 C   0  0  0  0  0  0  0  0  0  0  0  0
   -2.9880    3.0729    6.9073 C   0  0  0  0  0  0  0  0  0  0  0  0
   -2.7832    4.4054    7.4138 C   0  0  0  0  0  0  0  0  0  0  0  0
   -2.6225    5.4733    7.8338 N   0  0  0  0  0  0  0  0  0  0  0  0
   -3.8122    2.2141    7.7221 C   0  0  0  0  0  0  0  0  0  0  0  0
   -4.4803    1.5281    8.3668 N   0  0  0  0  0  0  0  0  0  0  0  0
    0.2622    6.1726    2.9075 C   0  0  0  0  0  0  0  0  0  0  0  0
    1.4134    7.0400    3.4944 C   0  0  0  0  0  0  0  0  0  0  0  0
    2.0246    7.7681    2.3178 C   0  0  0  0  0  0  0  0  0  0  0  0
    2.6588    6.8505    1.5919 C   0  0  0  0  0  0  0  0  0  0  0  0
    2.4732    5.5311    2.2969 C   0  0  0  0  0  0  0  0  0  0  0  0
    2.5230    6.0281    3.7375 C   0  0  0  0  0  0  0  0  0  0  0  0
    0.9713    5.1658    2.1055 C   0  0  0  0  0  0  0  0  0  0  0  0
   -3.4548   -0.7409    4.2907 C   0  0  0  0  0  0  0  0  0  0  0  0
   -3.4996   -0.4715    2.9185 C   0  0  0  0  0  0  0  0  0  0  0  0
   -4.5073    0.3680    2.3345 N   0  0  0  0  0  0  0  0  0  0  0  0
   -4.3506    1.7940    2.1780 C   0  0  0  0  0  0  0  0  0  0  0  0
   -5.4729    2.6411    2.2633 C   0  0  0  0  0  0  0  0  0  0  0  0
   -5.3548    4.0078    2.0071 C   0  0  0  0  0  0  0  0  0  0  0  0
   -4.1107    4.5558    1.6873 C   0  0  0  0  0  0  0  0  0  0  0  0
   -3.9968    6.2991    1.2759 S   0  0  0  0  0  0  0  0  0  0  0  0
   -3.7820    6.8382    2.9955 C   0  0  0  0  0  0  0  0  0  0  0  0
   -2.9823    3.7306    1.6101 C   0  0  0  0  0  0  0  0  0  0  0  0
   -3.1006    2.3533    1.8584 C   0  0  0  0  0  0  0  0  0  0  0  0
   -5.7522   -0.2629    1.9932 C   0  0  0  0  0  0  0  0  0  0  0  0
   -6.5673   -0.8115    3.0001 C   0  0  0  0  0  0  0  0  0  0  0  0
   -7.7627   -1.4497    2.6665 C   0  0  0  0  0  0  0  0  0  0  0  0
   -8.1539   -1.5493    1.3263 C   0  0  0  0  0  0  0  0  0  0  0  0
   -9.6753   -2.3949    0.8922 S   0  0  0  0  0  0  0  0  0  0  0  0
   -8.8562   -4.0130    0.7250 C   0  0  0  0  0  0  0  0  0  0  0  0
   -7.3510   -0.9959    0.3203 C   0  0  0  0  0  0  0  0  0  0  0  0
   -6.1604   -0.3439    0.6546 C   0  0  0  0  0  0  0  0  0  0  0  0
   -2.8587   -1.4649    2.1872 C   0  0  0  0  0  0  0  0  0  0  0  0
   -2.0868   -1.3766    0.7136 S   0  0  0  0  0  0  0  0  0  0  0  0
   -1.1529   -2.7856    0.9470 C   0  0  0  0  0  0  0  0  0  0  0  0
   -1.5110   -3.3870    2.1837 C   0  0  0  0  0  0  0  0  0  0  0  0
   -1.4441   -4.8255    2.4134 N   0  0  0  0  0  0  0  0  0  0  0  0
   -1.4532   -5.7201    1.2710 C   0  0  0  0  0  0  0  0  0  0  0  0
   -2.3143   -5.4874    0.1797 C   0  0  0  0  0  0  0  0  0  0  0  0
   -2.2476   -6.2941   -0.9565 C   0  0  0  0  0  0  0  0  0  0  0  0
   -1.3545   -7.3732   -0.9963 C   0  0  0  0  0  0  0  0  0  0  0  0
   -1.1936   -8.3524   -2.4926 S   0  0  0  0  0  0  0  0  0  0  0  0
    0.2106   -7.3651   -3.1084 C   0  0  0  0  0  0  0  0  0  0  0  0
   -0.5778   -7.6777    0.1279 C   0  0  0  0  0  0  0  0  0  0  0  0
   -0.6271   -6.8556    1.2556 C   0  0  0  0  0  0  0  0  0  0  0  0
   -1.7022   -5.4077    3.7189 C   0  0  0  0  0  0  0  0  0  0  0  0
   -2.5638   -6.5130    3.8527 C   0  0  0  0  0  0  0  0  0  0  0  0
   -2.7714   -7.1058    5.1046 C   0  0  0  0  0  0  0  0  0  0  0  0
   -2.1280   -6.6044    6.2382 C   0  0  0  0  0  0  0  0  0  0  0  0
   -2.3693   -7.3804    7.8398 S   0  0  0  0  0  0  0  0  0  0  0  0
   -3.7430   -6.2821    8.3117 C   0  0  0  0  0  0  0  0  0  0  0  0
   -1.2771   -5.4988    6.1149 C   0  0  0  0  0  0  0  0  0  0  0  0
   -1.0715   -4.9081    4.8676 C   0  0  0  0  0  0  0  0  0  0  0  0
   -2.3984   -2.5429    2.8825 C   0  0  0  0  0  0  0  0  0  0  0  0
   -2.6783   -2.2398    4.5188 S   0  0  0  0  0  0  0  0  0  0  0  0
   -0.0665   -3.1486    0.0037 C   0  0  0  0  0  0  0  0  0  0  0  0
    1.3115   -3.2204    0.3151 C   0  0  0  0  0  0  0  0  0  0  0  0
    1.8913   -3.6555    1.5609 N   0  0  0  0  0  0  0  0  0  0  0  0
    2.6733   -4.8844    1.5558 C   0  0  0  0  0  0  0  0  0  0  0  0
    2.3482   -5.9385    0.6801 C   0  0  0  0  0  0  0  0  0  0  0  0
    3.0150   -7.1642    0.7594 C   0  0  0  0  0  0  0  0  0  0  0  0
    4.0393   -7.3501    1.6877 C   0  0  0  0  0  0  0  0  0  0  0  0
    4.7923   -8.9765    1.8817 S   0  0  0  0  0  0  0  0  0  0  0  0
    6.3014   -8.5260    0.9616 C   0  0  0  0  0  0  0  0  0  0  0  0
    4.4376   -6.2841    2.4999 C   0  0  0  0  0  0  0  0  0  0  0  0
    3.7834   -5.0514    2.4120 C   0  0  0  0  0  0  0  0  0  0  0  0
    1.8989   -2.7781    2.7066 C   0  0  0  0  0  0  0  0  0  0  0  0
    1.8598   -3.3123    4.0045 C   0  0  0  0  0  0  0  0  0  0  0  0
    1.9141   -2.4823    5.1214 C   0  0  0  0  0  0  0  0  0  0  0  0
    2.0490   -1.1058    4.9590 C   0  0  0  0  0  0  0  0  0  0  0  0
    2.1052   -0.0384    6.4033 S   0  0  0  0  0  0  0  0  0  0  0  0
    3.8892   -0.2798    6.6667 C   0  0  0  0  0  0  0  0  0  0  0  0
    2.1290   -0.5622    3.6725 C   0  0  0  0  0  0  0  0  0  0  0  0
    2.0204   -1.3874    2.5502 C   0  0  0  0  0  0  0  0  0  0  0  0
    2.1144   -2.9005   -0.7809 C   0  0  0  0  0  0  0  0  0  0  0  0
    3.6702   -2.2724   -0.8513 S   0  0  0  0  0  0  0  0  0  0  0  0
    3.5180   -1.6846   -2.4424 C   0  0  0  0  0  0  0  0  0  0  0  0
    2.2271   -1.9872   -2.9162 C   0  0  0  0  0  0  0  0  0  0  0  0
    1.7551   -1.6085   -4.2291 N   0  0  0  0  0  0  0  0  0  0  0  0
    0.4231   -1.0986   -4.4203 C   0  0  0  0  0  0  0  0  0  0  0  0
   -0.0674   -0.0637   -3.6059 C   0  0  0  0  0  0  0  0  0  0  0  0
   -1.3853    0.3790   -3.7503 C   0  0  0  0  0  0  0  0  0  0  0  0
   -2.2253   -0.2089   -4.7055 C   0  0  0  0  0  0  0  0  0  0  0  0
   -3.9472    0.2760   -4.8041 S   0  0  0  0  0  0  0  0  0  0  0  0
   -4.4584   -0.8824   -3.4961 C   0  0  0  0  0  0  0  0  0  0  0  0
   -1.7310   -1.2180   -5.5428 C   0  0  0  0  0  0  0  0  0  0  0  0
   -0.4093   -1.6563   -5.4075 C   0  0  0  0  0  0  0  0  0  0  0  0
    2.6384   -1.7574   -5.3620 C   0  0  0  0  0  0  0  0  0  0  0  0
    3.4398   -2.9084   -5.4909 C   0  0  0  0  0  0  0  0  0  0  0  0
    4.4059   -2.9901   -6.5005 C   0  0  0  0  0  0  0  0  0  0  0  0
    4.5757   -1.9288   -7.3949 C   0  0  0  0  0  0  0  0  0  0  0  0
    5.8741   -1.9981   -8.6329 S   0  0  0  0  0  0  0  0  0  0  0  0
    7.1098   -1.2057   -7.5534 C   0  0  0  0  0  0  0  0  0  0  0  0
    3.7503   -0.8019   -7.3059 C   0  0  0  0  0  0  0  0  0  0  0  0
    2.7774   -0.7217   -6.3036 C   0  0  0  0  0  0  0  0  0  0  0  0
    1.4599   -2.6364   -1.9382 C   0  0  0  0  0  0  0  0  0  0  0  0
   -0.1840   -2.7548   -1.6577 S   0  0  0  0  0  0  0  0  0  0  0  0
    4.2316   -0.4804   -2.8830 C   0  0  0  0  0  0  0  0  0  0  0  0
    5.0901   -0.4360   -3.9250 N   0  0  0  0  0  0  0  0  0  0  0  0
    5.3383    0.8037   -4.3536 N   0  0  0  0  0  0  0  0  0  0  0  0
    4.6410    1.7533   -3.6837 C   0  0  0  0  0  0  0  0  0  0  0  0
    3.7064    1.0601   -2.4661 S   0  0  0  0  0  0  0  0  0  0  0  0
    4.6772    3.1889   -4.0147 C   0  0  0  0  0  0  0  0  0  0  0  0
    3.5691    3.9388   -4.2098 C   0  0  0  0  0  0  0  0  0  0  0  0
    2.2191    3.4060   -4.4531 C   0  0  0  0  0  0  0  0  0  0  0  0
    1.8883    2.1918   -4.4871 O   0  0  0  0  0  0  0  0  0  0  0  0
    1.3452    4.4876   -4.8267 C   0  0  0  0  0  0  0  0  0  0  0  0
   -0.0192    4.3864   -5.1760 C   0  0  0  0  0  0  0  0  0  0  0  0
   -0.5893    5.5771   -5.5695 C   0  0  0  0  0  0  0  0  0  0  0  0
    0.1482    6.8024   -5.6514 C   0  0  0  0  0  0  0  0  0  0  0  0
    1.4930    6.9062   -5.3304 C   0  0  0  0  0  0  0  0  0  0  0  0
    2.0877    5.6937   -4.8670 C   0  0  0  0  0  0  0  0  0  0  0  0
    3.4827    5.4246   -4.4105 C   0  0  0  0  0  0  0  0  0  0  0  0
    4.4017    6.3570   -4.0373 C   0  0  0  0  0  0  0  0  0  0  0  0
    4.1323    7.7708   -4.0724 C   0  0  0  0  0  0  0  0  0  0  0  0
    3.9297    8.9100   -4.0901 N   0  0  0  0  0  0  0  0  0  0  0  0
    5.6884    6.0193   -3.4806 C   0  0  0  0  0  0  0  0  0  0  0  0
    6.7309    5.7621   -3.0582 N   0  0  0  0  0  0  0  0  0  0  0  0
   -1.0717    7.5244   -6.1399 C   0  0  0  0  0  0  0  0  0  0  0  0
   -1.1254    7.8680   -7.6590 C   0  0  0  0  0  0  0  0  0  0  0  0
   -2.5632    8.2208   -7.9510 C   0  0  0  0  0  0  0  0  0  0  0  0
   -3.2561    7.0756   -7.8656 C   0  0  0  0  0  0  0  0  0  0  0  0
   -2.2610    5.9950   -7.5184 C   0  0  0  0  0  0  0  0  0  0  0  0
   -1.0778    6.5078   -8.3276 C   0  0  0  0  0  0  0  0  0  0  0  0
   -1.8282    6.2696   -6.0485 C   0  0  0  0  0  0  0  0  0  0  0  0
   -4.3279    0.5984    5.7633 H   0  0  0  0  0  0  0  0  0  0  0  0
    0.7630    2.0159    2.5301 H   0  0  0  0  0  0  0  0  0  0  0  0
   -1.7591    5.4857    5.2859 H   0  0  0  0  0  0  0  0  0  0  0  0
   -0.5199    6.7273    2.3378 H   0  0  0  0  0  0  0  0  0  0  0  0
    1.1442    7.6803    4.3586 H   0  0  0  0  0  0  0  0  0  0  0  0
    2.0084    8.8355    2.1277 H   0  0  0  0  0  0  0  0  0  0  0  0
    3.2617    7.0396    0.7061 H   0  0  0  0  0  0  0  0  0  0  0  0
    3.1988    4.7319    2.0373 H   0  0  0  0  0  0  0  0  0  0  0  0
    3.5001    6.5013    4.0037 H   0  0  0  0  0  0  0  0  0  0  0  0
    2.2716    5.2533    4.4997 H   0  0  0  0  0  0  0  0  0  0  0  0
    0.6300    5.0878    1.0476 H   0  0  0  0  0  0  0  0  0  0  0  0
   -6.4478    2.2416    2.5145 H   0  0  0  0  0  0  0  0  0  0  0  0
   -6.2360    4.6384    2.0535 H   0  0  0  0  0  0  0  0  0  0  0  0
   -3.9638    7.9292    3.0568 H   0  0  0  0  0  0  0  0  0  0  0  0
   -4.4872    6.3102    3.6779 H   0  0  0  0  0  0  0  0  0  0  0  0
   -2.7424    6.6324    3.3174 H   0  0  0  0  0  0  0  0  0  0  0  0
   -2.0202    4.1447    1.3389 H   0  0  0  0  0  0  0  0  0  0  0  0
   -2.2276    1.7246    1.7574 H   0  0  0  0  0  0  0  0  0  0  0  0
   -6.2848   -0.7323    4.0413 H   0  0  0  0  0  0  0  0  0  0  0  0
   -8.3930   -1.8570    3.4490 H   0  0  0  0  0  0  0  0  0  0  0  0
   -8.4193   -4.3239    1.6965 H   0  0  0  0  0  0  0  0  0  0  0  0
   -8.0618   -3.9604   -0.0498 H   0  0  0  0  0  0  0  0  0  0  0  0
   -9.6071   -4.7682    0.4132 H   0  0  0  0  0  0  0  0  0  0  0  0
   -7.6468   -1.0745   -0.7218 H   0  0  0  0  0  0  0  0  0  0  0  0
   -5.5345    0.0744   -0.1240 H   0  0  0  0  0  0  0  0  0  0  0  0
   -3.0186   -4.6639    0.1929 H   0  0  0  0  0  0  0  0  0  0  0  0
   -2.8842   -6.0796   -1.8103 H   0  0  0  0  0  0  0  0  0  0  0  0
   -0.0769   -6.2955   -3.1995 H   0  0  0  0  0  0  0  0  0  0  0  0
    1.0731   -7.4547   -2.4136 H   0  0  0  0  0  0  0  0  0  0  0  0
    0.5170   -7.7408   -4.1060 H   0  0  0  0  0  0  0  0  0  0  0  0
    0.1012   -8.5226    0.1050 H   0  0  0  0  0  0  0  0  0  0  0  0
    0.0193   -7.0631    2.1001 H   0  0  0  0  0  0  0  0  0  0  0  0
   -3.0804   -6.9221    2.9925 H   0  0  0  0  0  0  0  0  0  0  0  0
   -3.4293   -7.9614    5.1865 H   0  0  0  0  0  0  0  0  0  0  0  0
   -3.3987   -5.2248    8.3362 H   0  0  0  0  0  0  0  0  0  0  0  0
   -4.0932   -6.5676    9.3253 H   0  0  0  0  0  0  0  0  0  0  0  0
   -4.5843   -6.3929    7.5935 H   0  0  0  0  0  0  0  0  0  0  0  0
   -0.7807   -5.0909    6.9875 H   0  0  0  0  0  0  0  0  0  0  0  0
   -0.4506   -4.0352    4.8038 H   0  0  0  0  0  0  0  0  0  0  0  0
    1.5628   -5.8281   -0.0560 H   0  0  0  0  0  0  0  0  0  0  0  0
    2.7072   -7.9801    0.1195 H   0  0  0  0  0  0  0  0  0  0  0  0
    6.0480   -8.0225    0.0056 H   0  0  0  0  0  0  0  0  0  0  0  0
    6.9270   -7.8534    1.5801 H   0  0  0  0  0  0  0  0  0  0  0  0
    6.8746   -9.4435    0.7396 H   0  0  0  0  0  0  0  0  0  0  0  0
    5.2469   -6.4122    3.2048 H   0  0  0  0  0  0  0  0  0  0  0  0
    4.1394   -4.2364    3.0296 H   0  0  0  0  0  0  0  0  0  0  0  0
    1.7834   -4.3787    4.1457 H   0  0  0  0  0  0  0  0  0  0  0  0
    1.8666   -2.9162    6.1126 H   0  0  0  0  0  0  0  0  0  0  0  0
    4.4633    0.1978    5.8476 H   0  0  0  0  0  0  0  0  0  0  0  0
    4.1796    0.1885    7.6279 H   0  0  0  0  0  0  0  0  0  0  0  0
    4.1339   -1.3622    6.7173 H   0  0  0  0  0  0  0  0  0  0  0  0
    2.2514    0.5024    3.5408 H   0  0  0  0  0  0  0  0  0  0  0  0
    2.0695   -0.9487    1.5611 H   0  0  0  0  0  0  0  0  0  0  0  0
    0.5635    0.3778   -2.8415 H   0  0  0  0  0  0  0  0  0  0  0  0
   -1.7585    1.1663   -3.1078 H   0  0  0  0  0  0  0  0  0  0  0  0
   -4.1341   -1.9151   -3.7431 H   0  0  0  0  0  0  0  0  0  0  0  0
   -4.0220   -0.5772   -2.5225 H   0  0  0  0  0  0  0  0  0  0  0  0
   -5.5674   -0.8651   -3.4174 H   0  0  0  0  0  0  0  0  0  0  0  0
   -2.3771   -1.6775   -6.2810 H   0  0  0  0  0  0  0  0  0  0  0  0
   -0.0425   -2.4539   -6.0477 H   0  0  0  0  0  0  0  0  0  0  0  0
    3.3452   -3.7273   -4.7868 H   0  0  0  0  0  0  0  0  0  0  0  0
    5.0410   -3.8692   -6.5681 H   0  0  0  0  0  0  0  0  0  0  0  0
    7.2698   -1.8125   -6.6365 H   0  0  0  0  0  0  0  0  0  0  0  0
    8.0701   -1.1205   -8.1037 H   0  0  0  0  0  0  0  0  0  0  0  0
    6.7701   -0.1889   -7.2681 H   0  0  0  0  0  0  0  0  0  0  0  0
    3.8801    0.0244   -7.9969 H   0  0  0  0  0  0  0  0  0  0  0  0
    2.1747    0.1744   -6.2212 H   0  0  0  0  0  0  0  0  0  0  0  0
    5.6584    3.6156   -4.1476 H   0  0  0  0  0  0  0  0  0  0  0  0
   -0.5642    3.4520   -5.1510 H   0  0  0  0  0  0  0  0  0  0  0  0
    2.0142    7.8348   -5.4617 H   0  0  0  0  0  0  0  0  0  0  0  0
   -1.4216    8.3244   -5.4511 H   0  0  0  0  0  0  0  0  0  0  0  0
   -0.3776    8.6107   -8.0131 H   0  0  0  0  0  0  0  0  0  0  0  0
   -2.9568    9.1812   -8.2674 H   0  0  0  0  0  0  0  0  0  0  0  0
   -4.3088    6.9556   -8.0961 H   0  0  0  0  0  0  0  0  0  0  0  0
   -2.5958    4.9611   -7.7417 H   0  0  0  0  0  0  0  0  0  0  0  0
   -0.1361    5.9454   -8.1485 H   0  0  0  0  0  0  0  0  0  0  0  0
   -1.2758    6.5408   -9.4238 H   0  0  0  0  0  0  0  0  0  0  0  0
   -2.6487    6.2748   -5.2988 H   0  0  0  0  0  0  0  0  0  0  0  0
  1  2  2  3
  2  3  1  0
  3  4  2  0
  3  5  1  0
  5  6  2  0
  6  7  1  0
  7  8  2  0
  8  9  1  0
  9 10  2  0
 10 11  1  0
 11 12  2  3
 12 13  1  0
 13 14  3  0
 12 15  1  0
 15 16  3  0
  8 17  1  0
 17 18  1  0
 18 19  1  0
 19 20  2  0
 20 21  1  0
 21 22  1  0
 21 23  1  0
  1 24  1  0
 24 25  2  0
 25 26  1  0
 26 27  1  0
 27 28  2  0
 28 29  1  0
 29 30  2  0
 30 31  1  0
 31 32  1  0
 30 33  1  0
 33 34  2  0
 26 35  1  0
 35 36  2  0
 36 37  1  0
 37 38  2  0
 38 39  1  0
 39 40  1  0
 38 41  1  0
 41 42  2  0
 25 43  1  0
 43 44  1  0
 44 45  1  0
 45 46  2  0
 46 47  1  0
 47 48  1  0
 48 49  2  0
 49 50  1  0
 50 51  2  0
 51 52  1  0
 52 53  1  0
 51 54  1  0
 54 55  2  0
 47 56  1  0
 56 57  2  0
 57 58  1  0
 58 59  2  0
 59 60  1  0
 60 61  1  0
 59 62  1  0
 62 63  2  0
 46 64  1  0
 64 65  1  0
 45 66  1  0
 66 67  2  0
 67 68  1  0
 68 69  1  0
 69 70  2  0
 70 71  1  0
 71 72  2  0
 72 73  1  0
 73 74  1  0
 72 75  1  0
 75 76  2  0
 68 77  1  0
 77 78  2  0
 78 79  1  0
 79 80  2  0
 80 81  1  0
 81 82  1  0
 80 83  1  0
 83 84  2  0
 67 85  1  0
 85 86  1  0
 86 87  1  0
 87 88  2  0
 88 89  1  0
 89 90  1  0
 90 91  2  0
 91 92  1  0
 92 93  2  0
 93 94  1  0
 94 95  1  0
 93 96  1  0
 96 97  2  0
 89 98  1  0
 98 99  2  0
 99100  1  0
100101  2  0
101102  1  0
102103  1  0
101104  1  0
104105  2  0
 88106  1  0
106107  1  0
 87108  1  0
108109  2  0
109110  1  0
110111  2  0
111112  1  0
111113  1  0
113114  2  3
114115  1  0
115116  2  0
115117  1  0
117118  2  0
118119  1  0
119120  2  0
120121  1  0
121122  2  0
122123  1  0
123124  2  3
124125  1  0
125126  3  0
124127  1  0
127128  3  0
120129  1  0
129130  1  0
130131  1  0
131132  2  0
132133  1  0
133134  1  0
133135  1  0
 11  2  1  0
 23 17  1  0
 65 24  1  0
107 66  1  0
112108  1  0
123114  1  0
135129  1  0
 10  5  1  0
 22 18  1  0
 34 27  1  0
 42 35  1  0
 64 43  2  0
 76 69  1  0
 84 77  1  0
106 85  2  0
122117  1  0
134130  1  0
 23  7  1  0
 55 48  1  0
 63 56  1  0
 97 90  1  0
105 98  1  0
135119  1  0
  1136  1  0
  6137  1  0
  9138  1  0
 17139  1  0
 18140  1  0
 19141  1  0
 20142  1  0
 21143  1  0
 22144  1  0
 22145  1  0
 23146  1  0
 28147  1  0
 29148  1  0
 32149  1  0
 32150  1  0
 32151  1  0
 33152  1  0
 34153  1  0
 36154  1  0
 37155  1  0
 40156  1  0
 40157  1  0
 40158  1  0
 41159  1  0
 42160  1  0
 49161  1  0
 50162  1  0
 53163  1  0
 53164  1  0
 53165  1  0
 54166  1  0
 55167  1  0
 57168  1  0
 58169  1  0
 61170  1  0
 61171  1  0
 61172  1  0
 62173  1  0
 63174  1  0
 70175  1  0
 71176  1  0
 74177  1  0
 74178  1  0
 74179  1  0
 75180  1  0
 76181  1  0
 78182  1  0
 79183  1  0
 82184  1  0
 82185  1  0
 82186  1  0
 83187  1  0
 84188  1  0
 91189  1  0
 92190  1  0
 95191  1  0
 95192  1  0
 95193  1  0
 96194  1  0
 97195  1  0
 99196  1  0
100197  1  0
103198  1  0
103199  1  0
103200  1  0
104201  1  0
105202  1  0
113203  1  0
118204  1  0
121205  1  0
129206  1  0
130207  1  0
131208  1  0
132209  1  0
133210  1  0
134211  1  0
134212  1  0
135213  1  0
M  END

