
     RDKit          3D

182201  0  0  0  0  0  0  0  0999 V2000
    2.0936    2.1910   -2.9672 C   0  0  0  0  0  0  0  0  0  0  0  0
    2.9569    2.6044   -3.9073 C   0  0  0  0  0  0  0  0  0  0  0  0
    2.6175    2.8804   -5.3082 C   0  0  0  0  0  0  0  0  0  0  0  0
    1.5703    2.5208   -5.9086 O   0  0  0  0  0  0  0  0  0  0  0  0
    3.6542    3.7261   -5.8706 C   0  0  0  0  0  0  0  0  0  0  0  0
    3.6302    4.3852   -7.1219 C   0  0  0  0  0  0  0  0  0  0  0  0
    4.6808    5.2666   -7.3119 C   0  0  0  0  0  0  0  0  0  0  0  0
    5.7008    5.4889   -6.3331 C   0  0  0  0  0  0  0  0  0  0  0  0
    5.7231    4.8601   -5.1015 C   0  0  0  0  0  0  0  0  0  0  0  0
    4.6607    3.9397   -4.8893 C   0  0  0  0  0  0  0  0  0  0  0  0
    4.3189    3.1681   -3.6638 C   0  0  0  0  0  0  0  0  0  0  0  0
    5.1645    2.8387   -2.6523 C   0  0  0  0  0  0  0  0  0  0  0  0
    6.5388    3.2707   -2.6194 C   0  0  0  0  0  0  0  0  0  0  0  0
    7.6481    3.6032   -2.5797 N   0  0  0  0  0  0  0  0  0  0  0  0
    4.7983    1.9149   -1.6085 C   0  0  0  0  0  0  0  0  0  0  0  0
    4.5146    1.1726   -0.7676 N   0  0  0  0  0  0  0  0  0  0  0  0
    6.3500    6.5114   -7.2145 C   0  0  0  0  0  0  0  0  0  0  0  0
    6.1605    7.9978   -6.7952 C   0  0  0  0  0  0  0  0  0  0  0  0
    6.5394    8.8210   -8.0035 C   0  0  0  0  0  0  0  0  0  0  0  0
    5.5742    8.6252   -8.9111 C   0  0  0  0  0  0  0  0  0  0  0  0
    4.5797    7.6766   -8.2848 C   0  0  0  0  0  0  0  0  0  0  0  0
    4.6519    8.1787   -6.8531 C   0  0  0  0  0  0  0  0  0  0  0  0
    5.2971    6.2946   -8.2133 C   0  0  0  0  0  0  0  0  0  0  0  0
    0.7884    1.5847   -3.2618 C   0  0  0  0  0  0  0  0  0  0  0  0
   -0.4109    1.9146   -2.6088 C   0  0  0  0  0  0  0  0  0  0  0  0
   -0.5303    2.9342   -1.6015 N   0  0  0  0  0  0  0  0  0  0  0  0
    0.1986    2.8044   -0.3596 C   0  0  0  0  0  0  0  0  0  0  0  0
    0.4863    1.5316    0.1745 C   0  0  0  0  0  0  0  0  0  0  0  0
    1.2460    1.4064    1.3374 C   0  0  0  0  0  0  0  0  0  0  0  0
    1.7127    2.5483    1.9965 C   0  0  0  0  0  0  0  0  0  0  0  0
    2.7169    2.3835    3.4684 S   0  0  0  0  0  0  0  0  0  0  0  0
    1.2947    2.1798    4.5835 C   0  0  0  0  0  0  0  0  0  0  0  0
    1.4186    3.8178    1.4849 C   0  0  0  0  0  0  0  0  0  0  0  0
    0.6700    3.9459    0.3107 C   0  0  0  0  0  0  0  0  0  0  0  0
   -1.5527    3.9365   -1.7673 C   0  0  0  0  0  0  0  0  0  0  0  0
   -1.7431    4.5503   -3.0185 C   0  0  0  0  0  0  0  0  0  0  0  0
   -2.7799    5.4656   -3.2061 C   0  0  0  0  0  0  0  0  0  0  0  0
   -3.6469    5.7694   -2.1494 C   0  0  0  0  0  0  0  0  0  0  0  0
   -5.0136    6.9005   -2.4084 S   0  0  0  0  0  0  0  0  0  0  0  0
   -6.1511    5.5850   -2.9463 C   0  0  0  0  0  0  0  0  0  0  0  0
   -3.4541    5.1782   -0.8967 C   0  0  0  0  0  0  0  0  0  0  0  0
   -2.4149    4.2651   -0.7043 C   0  0  0  0  0  0  0  0  0  0  0  0
   -1.3713    0.9174   -2.7692 C   0  0  0  0  0  0  0  0  0  0  0  0
   -2.6887    0.5353   -1.8284 S   0  0  0  0  0  0  0  0  0  0  0  0
   -2.7453   -1.1263   -2.2242 C   0  0  0  0  0  0  0  0  0  0  0  0
   -1.6639   -1.3682   -3.1187 C   0  0  0  0  0  0  0  0  0  0  0  0
   -1.1495   -2.6587   -3.4817 N   0  0  0  0  0  0  0  0  0  0  0  0
   -1.4985   -3.1231   -4.7980 C   0  0  0  0  0  0  0  0  0  0  0  0
   -0.5029   -3.3412   -5.7655 C   0  0  0  0  0  0  0  0  0  0  0  0
   -0.8548   -3.6589   -7.0815 C   0  0  0  0  0  0  0  0  0  0  0  0
   -2.2024   -3.7417   -7.4495 C   0  0  0  0  0  0  0  0  0  0  0  0
   -2.6467   -4.0350   -9.1659 S   0  0  0  0  0  0  0  0  0  0  0  0
   -2.8263   -5.8349   -8.9594 C   0  0  0  0  0  0  0  0  0  0  0  0
   -3.2009   -3.5324   -6.4905 C   0  0  0  0  0  0  0  0  0  0  0  0
   -2.8519   -3.2256   -5.1719 C   0  0  0  0  0  0  0  0  0  0  0  0
   -0.0902   -3.2814   -2.6985 C   0  0  0  0  0  0  0  0  0  0  0  0
    0.4775   -2.6209   -1.5835 C   0  0  0  0  0  0  0  0  0  0  0  0
    1.3913   -3.2692   -0.7520 C   0  0  0  0  0  0  0  0  0  0  0  0
    1.7603   -4.5903   -1.0122 C   0  0  0  0  0  0  0  0  0  0  0  0
    2.8748   -5.4476    0.1021 S   0  0  0  0  0  0  0  0  0  0  0  0
    1.5256   -6.2473    1.0223 C   0  0  0  0  0  0  0  0  0  0  0  0
    1.2238   -5.2554   -2.1193 C   0  0  0  0  0  0  0  0  0  0  0  0
    0.2956   -4.6166   -2.9445 C   0  0  0  0  0  0  0  0  0  0  0  0
   -0.9529   -0.1986   -3.4195 C   0  0  0  0  0  0  0  0  0  0  0  0
    0.6337    0.0246   -3.9296 S   0  0  0  0  0  0  0  0  0  0  0  0
   -3.4757   -2.0853   -1.3323 C   0  0  0  0  0  0  0  0  0  0  0  0
   -4.4973   -1.6092   -0.4906 C   0  0  0  0  0  0  0  0  0  0  0  0
   -5.2650   -0.5152   -0.6348 N   0  0  0  0  0  0  0  0  0  0  0  0
   -5.8841   -0.3668    0.5316 N   0  0  0  0  0  0  0  0  0  0  0  0
   -6.8514    0.6875    0.7999 C   0  0  0  0  0  0  0  0  0  0  0  0
   -8.2655    0.1332    0.7013 C   0  0  0  0  0  0  0  0  0  0  0  0
   -5.5338   -1.2867    1.4247 N   0  0  0  0  0  0  0  0  0  0  0  0
   -4.6714   -2.0858    0.7766 C   0  0  0  0  0  0  0  0  0  0  0  0
   -3.8505   -3.0816    1.3059 C   0  0  0  0  0  0  0  0  0  0  0  0
   -3.0450   -3.7842    0.3862 C   0  0  0  0  0  0  0  0  0  0  0  0
   -2.8927   -3.3122   -0.9346 C   0  0  0  0  0  0  0  0  0  0  0  0
   -3.4564   -3.0702    2.7338 C   0  0  0  0  0  0  0  0  0  0  0  0
   -2.8907   -1.8910    3.2635 C   0  0  0  0  0  0  0  0  0  0  0  0
   -2.8879   -0.7344    2.5490 F   0  0  0  0  0  0  0  0  0  0  0  0
   -2.2211   -1.9126    4.4857 C   0  0  0  0  0  0  0  0  0  0  0  0
   -1.6672   -0.7619    4.9523 F   0  0  0  0  0  0  0  0  0  0  0  0
   -2.0598   -3.1167    5.1873 C   0  0  0  0  0  0  0  0  0  0  0  0
   -2.7060   -4.2750    4.7208 C   0  0  0  0  0  0  0  0  0  0  0  0
   -2.6570   -5.4328    5.4299 N   0  0  0  0  0  0  0  0  0  0  0  0
   -3.2663   -6.5734    5.0049 C   0  0  0  0  0  0  0  0  0  0  0  0
   -3.1941   -7.7794    5.9088 C   0  0  0  0  0  0  0  0  0  0  0  0
   -3.9426   -7.5261    7.2164 C   0  0  0  0  0  0  0  0  0  0  0  0
   -3.9497   -6.5575    3.7596 C   0  0  0  0  0  0  0  0  0  0  0  0
   -3.9866   -5.3962    3.0509 N   0  0  0  0  0  0  0  0  0  0  0  0
   -3.3959   -4.2549    3.4921 C   0  0  0  0  0  0  0  0  0  0  0  0
   -4.6704   -7.7510    3.1844 C   0  0  0  0  0  0  0  0  0  0  0  0
   -6.0502   -7.9180    3.8123 C   0  0  0  0  0  0  0  0  0  0  0  0
   -1.1967   -3.1485    6.3855 C   0  0  0  0  0  0  0  0  0  0  0  0
    0.1176   -2.8446    6.3382 C   0  0  0  0  0  0  0  0  0  0  0  0
    0.8696   -2.5108    5.1185 C   0  0  0  0  0  0  0  0  0  0  0  0
    0.5481   -2.8150    3.9355 O   0  0  0  0  0  0  0  0  0  0  0  0
    2.0807   -1.8208    5.4914 C   0  0  0  0  0  0  0  0  0  0  0  0
    3.0253   -1.2283    4.6227 C   0  0  0  0  0  0  0  0  0  0  0  0
    4.0420   -0.5594    5.2786 C   0  0  0  0  0  0  0  0  0  0  0  0
    4.1245   -0.4674    6.7062 C   0  0  0  0  0  0  0  0  0  0  0  0
    3.2019   -1.0461    7.5626 C   0  0  0  0  0  0  0  0  0  0  0  0
    2.1645   -1.7685    6.9082 C   0  0  0  0  0  0  0  0  0  0  0  0
    1.0157   -2.5239    7.4914 C   0  0  0  0  0  0  0  0  0  0  0  0
    0.9254   -3.0098    8.7566 C   0  0  0  0  0  0  0  0  0  0  0  0
    1.9274   -2.7568    9.7573 C   0  0  0  0  0  0  0  0  0  0  0  0
    2.7282   -2.5615   10.5720 N   0  0  0  0  0  0  0  0  0  0  0  0
   -0.1061   -3.9323    9.1563 C   0  0  0  0  0  0  0  0  0  0  0  0
   -0.9294   -4.6752    9.4848 N   0  0  0  0  0  0  0  0  0  0  0  0
    5.3720    0.3580    6.5966 C   0  0  0  0  0  0  0  0  0  0  0  0
    6.7322   -0.3227    6.9375 C   0  0  0  0  0  0  0  0  0  0  0  0
    6.6659   -1.7980    6.6169 C   0  0  0  0  0  0  0  0  0  0  0  0
    6.5896   -1.8949    5.2893 C   0  0  0  0  0  0  0  0  0  0  0  0
    6.6093   -0.4827    4.7503 C   0  0  0  0  0  0  0  0  0  0  0  0
    7.5615    0.1417    5.7525 C   0  0  0  0  0  0  0  0  0  0  0  0
    5.2921    0.2565    5.1372 C   0  0  0  0  0  0  0  0  0  0  0  0
    2.3478    2.3020   -1.9279 H   0  0  0  0  0  0  0  0  0  0  0  0
    2.8363    4.2586   -7.8453 H   0  0  0  0  0  0  0  0  0  0  0  0
    6.4592    5.1274   -4.3609 H   0  0  0  0  0  0  0  0  0  0  0  0
    7.3733    6.2286   -7.5514 H   0  0  0  0  0  0  0  0  0  0  0  0
    6.6482    8.2959   -5.8426 H   0  0  0  0  0  0  0  0  0  0  0  0
    7.3641    9.5203   -8.0900 H   0  0  0  0  0  0  0  0  0  0  0  0
    5.4829    9.1401   -9.8620 H   0  0  0  0  0  0  0  0  0  0  0  0
    3.5716    7.6720   -8.7508 H   0  0  0  0  0  0  0  0  0  0  0  0
    4.3303    9.2426   -6.7336 H   0  0  0  0  0  0  0  0  0  0  0  0
    4.0915    7.5570   -6.1219 H   0  0  0  0  0  0  0  0  0  0  0  0
    5.6556    5.8831   -9.1822 H   0  0  0  0  0  0  0  0  0  0  0  0
    0.1301    0.6335   -0.3132 H   0  0  0  0  0  0  0  0  0  0  0  0
    1.4716    0.4222    1.7288 H   0  0  0  0  0  0  0  0  0  0  0  0
    0.6414    3.0766    4.5357 H   0  0  0  0  0  0  0  0  0  0  0  0
    0.7132    1.2773    4.3005 H   0  0  0  0  0  0  0  0  0  0  0  0
    1.6611    2.0522    5.6215 H   0  0  0  0  0  0  0  0  0  0  0  0
    1.7873    4.7052    1.9843 H   0  0  0  0  0  0  0  0  0  0  0  0
    0.4739    4.9313   -0.0888 H   0  0  0  0  0  0  0  0  0  0  0  0
   -1.0877    4.3175   -3.8459 H   0  0  0  0  0  0  0  0  0  0  0  0
   -2.9194    5.9279   -4.1764 H   0  0  0  0  0  0  0  0  0  0  0  0
   -5.7641    5.1042   -3.8684 H   0  0  0  0  0  0  0  0  0  0  0  0
   -6.2587    4.8230   -2.1453 H   0  0  0  0  0  0  0  0  0  0  0  0
   -7.1466    6.0257   -3.1590 H   0  0  0  0  0  0  0  0  0  0  0  0
   -4.1209    5.4078   -0.0771 H   0  0  0  0  0  0  0  0  0  0  0  0
   -2.2963    3.7934    0.2628 H   0  0  0  0  0  0  0  0  0  0  0  0
    0.5421   -3.2343   -5.5055 H   0  0  0  0  0  0  0  0  0  0  0  0
   -0.0796   -3.8105   -7.8204 H   0  0  0  0  0  0  0  0  0  0  0  0
   -2.9452   -6.3054   -9.9569 H   0  0  0  0  0  0  0  0  0  0  0  0
   -3.7308   -6.0448   -8.3497 H   0  0  0  0  0  0  0  0  0  0  0  0
   -1.9300   -6.2619   -8.4648 H   0  0  0  0  0  0  0  0  0  0  0  0
   -4.2455   -3.5872   -6.7692 H   0  0  0  0  0  0  0  0  0  0  0  0
   -3.6327   -3.0472   -4.4435 H   0  0  0  0  0  0  0  0  0  0  0  0
    0.1920   -1.6104   -1.3266 H   0  0  0  0  0  0  0  0  0  0  0  0
    1.7935   -2.7477    0.1081 H   0  0  0  0  0  0  0  0  0  0  0  0
    0.9418   -6.9006    0.3401 H   0  0  0  0  0  0  0  0  0  0  0  0
    1.9545   -6.8702    1.8329 H   0  0  0  0  0  0  0  0  0  0  0  0
    0.8556   -5.4816    1.4684 H   0  0  0  0  0  0  0  0  0  0  0  0
    1.4930   -6.2867   -2.3160 H   0  0  0  0  0  0  0  0  0  0  0  0
   -0.1470   -5.1838   -3.7508 H   0  0  0  0  0  0  0  0  0  0  0  0
   -6.6815    1.0958    1.8198 H   0  0  0  0  0  0  0  0  0  0  0  0
   -6.7212    1.5154    0.0651 H   0  0  0  0  0  0  0  0  0  0  0  0
   -8.9990    0.9446    0.8926 H   0  0  0  0  0  0  0  0  0  0  0  0
   -8.4399   -0.2833   -0.3148 H   0  0  0  0  0  0  0  0  0  0  0  0
   -8.4173   -0.6678    1.4524 H   0  0  0  0  0  0  0  0  0  0  0  0
   -2.4169   -4.5989    0.7268 H   0  0  0  0  0  0  0  0  0  0  0  0
   -2.2248   -3.8500   -1.5747 H   0  0  0  0  0  0  0  0  0  0  0  0
   -2.1293   -7.9816    6.1445 H   0  0  0  0  0  0  0  0  0  0  0  0
   -3.6032   -8.6971    5.4431 H   0  0  0  0  0  0  0  0  0  0  0  0
   -3.4641   -6.6982    7.7836 H   0  0  0  0  0  0  0  0  0  0  0  0
   -5.0024   -7.2588    7.0137 H   0  0  0  0  0  0  0  0  0  0  0  0
   -3.9164   -8.4400    7.8461 H   0  0  0  0  0  0  0  0  0  0  0  0
   -4.8052   -7.6050    2.0889 H   0  0  0  0  0  0  0  0  0  0  0  0
   -4.0714   -8.6761    3.2983 H   0  0  0  0  0  0  0  0  0  0  0  0
   -5.9656   -8.2046    4.8767 H   0  0  0  0  0  0  0  0  0  0  0  0
   -6.6270   -6.9715    3.7274 H   0  0  0  0  0  0  0  0  0  0  0  0
   -6.6122   -8.7154    3.2803 H   0  0  0  0  0  0  0  0  0  0  0  0
   -1.7027   -3.3037    7.3234 H   0  0  0  0  0  0  0  0  0  0  0  0
    2.9470   -1.2691    3.5447 H   0  0  0  0  0  0  0  0  0  0  0  0
    3.2797   -0.9095    8.6288 H   0  0  0  0  0  0  0  0  0  0  0  0
    5.2579    1.4006    6.9743 H   0  0  0  0  0  0  0  0  0  0  0  0
    7.1473   -0.0747    7.9376 H   0  0  0  0  0  0  0  0  0  0  0  0
    6.7349   -2.6275    7.3104 H   0  0  0  0  0  0  0  0  0  0  0  0
    6.5900   -2.8166    4.7177 H   0  0  0  0  0  0  0  0  0  0  0  0
    6.9089   -0.3883    3.6836 H   0  0  0  0  0  0  0  0  0  0  0  0
    7.6348    1.2519    5.6653 H   0  0  0  0  0  0  0  0  0  0  0  0
    8.5864   -0.3018    5.7280 H   0  0  0  0  0  0  0  0  0  0  0  0
    5.1451    1.2378    4.6335 H   0  0  0  0  0  0  0  0  0  0  0  0
  1  2  2  3
  2  3  1  0
  3  4  2  0
  3  5  1  0
  5  6  2  0
  6  7  1  0
  7  8  2  0
  8  9  1  0
  9 10  2  0
 10 11  1  0
 11 12  2  3
 12 13  1  0
 13 14  3  0
 12 15  1  0
 15 16  3  0
  8 17  1  0
 17 18  1  0
 18 19  1  0
 19 20  2  0
 20 21  1  0
 21 22  1  0
 21 23  1  0
  1 24  1  0
 24 25  2  0
 25 26  1  0
 26 27  1  0
 27 28  2  0
 28 29  1  0
 29 30  2  0
 30 31  1  0
 31 32  1  0
 30 33  1  0
 33 34  2  0
 26 35  1  0
 35 36  2  0
 36 37  1  0
 37 38  2  0
 38 39  1  0
 39 40  1  0
 38 41  1  0
 41 42  2  0
 25 43  1  0
 43 44  1  0
 44 45  1  0
 45 46  2  0
 46 47  1  0
 47 48  1  0
 48 49  2  0
 49 50  1  0
 50 51  2  0
 51 52  1  0
 52 53  1  0
 51 54  1  0
 54 55  2  0
 47 56  1  0
 56 57  2  0
 57 58  1  0
 58 59  2  0
 59 60  1  0
 60 61  1  0
 59 62  1  0
 62 63  2  0
 46 64  1  0
 64 65  1  0
 45 66  1  0
 66 67  1  0
 67 68  2  0
 68 69  1  0
 69 70  1  0
 70 71  1  0
 69 72  1  0
 72 73  2  0
 73 74  1  0
 74 75  2  0
 75 76  1  0
 74 77  1  0
 77 78  2  0
 78 79  1  0
 78 80  1  0
 80 81  1  0
 80 82  2  0
 82 83  1  0
 83 84  2  0
 84 85  1  0
 85 86  1  0
 86 87  1  0
 85 88  2  0
 88 89  1  0
 89 90  2  0
 88 91  1  0
 91 92  1  0
 82 93  1  0
 93 94  2  3
 94 95  1  0
 95 96  2  0
 95 97  1  0
 97 98  2  0
 98 99  1  0
 99100  2  0
100101  1  0
101102  2  0
102103  1  0
103104  2  3
104105  1  0
105106  3  0
104107  1  0
107108  3  0
100109  1  0
109110  1  0
110111  1  0
111112  2  0
112113  1  0
113114  1  0
113115  1  0
 11  2  1  0
 23 17  1  0
 65 24  1  0
 76 66  2  0
 90 77  1  0
103 94  1  0
115109  1  0
 10  5  1  0
 22 18  1  0
 34 27  1  0
 42 35  1  0
 64 43  2  0
 73 67  1  0
 90 83  1  0
102 97  1  0
114110  1  0
 23  7  1  0
 55 48  1  0
 63 56  1  0
115 99  1  0
  1116  1  0
  6117  1  0
  9118  1  0
 17119  1  0
 18120  1  0
 19121  1  0
 20122  1  0
 21123  1  0
 22124  1  0
 22125  1  0
 23126  1  0
 28127  1  0
 29128  1  0
 32129  1  0
 32130  1  0
 32131  1  0
 33132  1  0
 34133  1  0
 36134  1  0
 37135  1  0
 40136  1  0
 40137  1  0
 40138  1  0
 41139  1  0
 42140  1  0
 49141  1  0
 50142  1  0
 53143  1  0
 53144  1  0
 53145  1  0
 54146  1  0
 55147  1  0
 57148  1  0
 58149  1  0
 61150  1  0
 61151  1  0
 61152  1  0
 62153  1  0
 63154  1  0
 70155  1  0
 70156  1  0
 71157  1  0
 71158  1  0
 71159  1  0
 75160  1  0
 76161  1  0
 86162  1  0
 86163  1  0
 87164  1  0
 87165  1  0
 87166  1  0
 91167  1  0
 91168  1  0
 92169  1  0
 92170  1  0
 92171  1  0
 93172  1  0
 98173  1  0
101174  1  0
109175  1  0
110176  1  0
111177  1  0
112178  1  0
113179  1  0
114180  1  0
114181  1  0
115182  1  0
M  END

