
     RDKit          3D

242267  0  0  0  0  0  0  0  0999 V2000
    7.8629   -2.8452    4.3635 C   0  0  0  0  0  0  0  0  0  0  0  0
    8.8596   -1.9507    4.5249 C   0  0  0  0  0  0  0  0  0  0  0  0
   10.2570   -2.3710    4.4531 C   0  0  0  0  0  0  0  0  0  0  0  0
   10.7061   -3.5039    4.7648 O   0  0  0  0  0  0  0  0  0  0  0  0
   11.0158   -1.3239    3.8002 C   0  0  0  0  0  0  0  0  0  0  0  0
   12.2323   -1.5037    3.1015 C   0  0  0  0  0  0  0  0  0  0  0  0
   12.5283   -0.4761    2.2298 C   0  0  0  0  0  0  0  0  0  0  0  0
   11.7068    0.6898    2.0746 C   0  0  0  0  0  0  0  0  0  0  0  0
   10.5214    0.8808    2.7634 C   0  0  0  0  0  0  0  0  0  0  0  0
   10.1725   -0.1932    3.6261 C   0  0  0  0  0  0  0  0  0  0  0  0
    8.8525   -0.4938    4.2293 C   0  0  0  0  0  0  0  0  0  0  0  0
    7.9536    0.4069    4.6833 C   0  0  0  0  0  0  0  0  0  0  0  0
    6.8417   -0.0016    5.5037 C   0  0  0  0  0  0  0  0  0  0  0  0
    5.9453   -0.3263    6.1624 N   0  0  0  0  0  0  0  0  0  0  0  0
    8.0948    1.8143    4.4356 C   0  0  0  0  0  0  0  0  0  0  0  0
    8.1943    2.9513    4.2113 N   0  0  0  0  0  0  0  0  0  0  0  0
   12.5579    1.1591    0.9286 C   0  0  0  0  0  0  0  0  0  0  0  0
   11.9529    1.0352   -0.5082 C   0  0  0  0  0  0  0  0  0  0  0  0
   10.9690   -0.1123   -0.5460 C   0  0  0  0  0  0  0  0  0  0  0  0
   11.6799   -1.2328   -0.4032 C   0  0  0  0  0  0  0  0  0  0  0  0
   13.1304   -0.8075   -0.2846 C   0  0  0  0  0  0  0  0  0  0  0  0
   13.1122    0.3792   -1.2370 C   0  0  0  0  0  0  0  0  0  0  0  0
   13.3704   -0.0588    1.0676 C   0  0  0  0  0  0  0  0  0  0  0  0
    6.5429   -2.6097    3.6976 C   0  0  0  0  0  0  0  0  0  0  0  0
    6.3938   -1.6565    2.6777 C   0  0  0  0  0  0  0  0  0  0  0  0
    5.1692   -1.4945    2.0239 C   0  0  0  0  0  0  0  0  0  0  0  0
    4.0844   -2.3478    2.2822 C   0  0  0  0  0  0  0  0  0  0  0  0
    4.2747   -3.4079    3.1968 C   0  0  0  0  0  0  0  0  0  0  0  0
    3.3421   -4.3865    3.3432 N   0  0  0  0  0  0  0  0  0  0  0  0
    3.5170   -5.4245    4.2074 C   0  0  0  0  0  0  0  0  0  0  0  0
    2.6283   -6.5966    4.1079 C   0  0  0  0  0  0  0  0  0  0  0  0
    1.9961   -7.1295    5.2412 C   0  0  0  0  0  0  0  0  0  0  0  0
    1.3356   -8.3633    5.1561 C   0  0  0  0  0  0  0  0  0  0  0  0
    1.2795   -9.0441    3.9359 C   0  0  0  0  0  0  0  0  0  0  0  0
    1.8555   -8.4889    2.7955 C   0  0  0  0  0  0  0  0  0  0  0  0
    2.5321   -7.2650    2.8814 C   0  0  0  0  0  0  0  0  0  0  0  0
    4.6612   -5.4351    5.0366 C   0  0  0  0  0  0  0  0  0  0  0  0
    5.6071   -4.4792    4.8671 N   0  0  0  0  0  0  0  0  0  0  0  0
    5.4770   -3.4914    3.9453 C   0  0  0  0  0  0  0  0  0  0  0  0
    4.9121   -6.4896    6.0261 C   0  0  0  0  0  0  0  0  0  0  0  0
    5.1573   -7.8127    5.6194 C   0  0  0  0  0  0  0  0  0  0  0  0
    5.3730   -8.8113    6.5735 C   0  0  0  0  0  0  0  0  0  0  0  0
    5.3477   -8.4950    7.9322 C   0  0  0  0  0  0  0  0  0  0  0  0
    5.1114   -7.1784    8.3445 C   0  0  0  0  0  0  0  0  0  0  0  0
    4.9053   -6.1755    7.3920 C   0  0  0  0  0  0  0  0  0  0  0  0
    2.7445   -1.9483    1.7804 C   0  0  0  0  0  0  0  0  0  0  0  0
    1.6851   -2.7346    1.2655 C   0  0  0  0  0  0  0  0  0  0  0  0
    1.7658   -4.1188    0.8900 N   0  0  0  0  0  0  0  0  0  0  0  0
    2.5400   -4.4074   -0.2846 C   0  0  0  0  0  0  0  0  0  0  0  0
    3.8177   -4.9656   -0.1724 C   0  0  0  0  0  0  0  0  0  0  0  0
    4.5322   -5.3301   -1.3169 C   0  0  0  0  0  0  0  0  0  0  0  0
    3.9771   -5.1235   -2.5872 C   0  0  0  0  0  0  0  0  0  0  0  0
    4.8529   -5.6828   -4.0494 S   0  0  0  0  0  0  0  0  0  0  0  0
    5.6613   -4.0801   -4.3423 C   0  0  0  0  0  0  0  0  0  0  0  0
    2.7149   -4.5320   -2.7073 C   0  0  0  0  0  0  0  0  0  0  0  0
    2.0002   -4.1684   -1.5628 C   0  0  0  0  0  0  0  0  0  0  0  0
    0.7317   -5.0362    1.3396 C   0  0  0  0  0  0  0  0  0  0  0  0
    0.3752   -6.1749    0.5851 C   0  0  0  0  0  0  0  0  0  0  0  0
   -0.7020   -6.9808    0.9753 C   0  0  0  0  0  0  0  0  0  0  0  0
   -1.4372   -6.6687    2.1255 C   0  0  0  0  0  0  0  0  0  0  0  0
   -2.9288   -7.5807    2.5231 S   0  0  0  0  0  0  0  0  0  0  0  0
   -2.1047   -8.7066    3.6871 C   0  0  0  0  0  0  0  0  0  0  0  0
   -1.0459   -5.5903    2.9192 C   0  0  0  0  0  0  0  0  0  0  0  0
    0.0380   -4.7880    2.5415 C   0  0  0  0  0  0  0  0  0  0  0  0
    0.5386   -1.9519    1.0523 C   0  0  0  0  0  0  0  0  0  0  0  0
   -1.0109   -2.2108    0.4358 S   0  0  0  0  0  0  0  0  0  0  0  0
   -1.5203   -0.5836    0.6411 C   0  0  0  0  0  0  0  0  0  0  0  0
   -0.4471    0.1454    1.1805 C   0  0  0  0  0  0  0  0  0  0  0  0
   -0.4200    1.5653    1.3841 N   0  0  0  0  0  0  0  0  0  0  0  0
   -0.8527    2.1223    2.6570 C   0  0  0  0  0  0  0  0  0  0  0  0
   -1.1077    3.4992    2.7929 C   0  0  0  0  0  0  0  0  0  0  0  0
   -1.5328    4.0334    4.0127 C   0  0  0  0  0  0  0  0  0  0  0  0
   -1.7376    3.1964    5.1155 C   0  0  0  0  0  0  0  0  0  0  0  0
   -2.2677    3.8838    6.6882 S   0  0  0  0  0  0  0  0  0  0  0  0
   -4.0420    3.6712    6.3447 C   0  0  0  0  0  0  0  0  0  0  0  0
   -1.5254    1.8236    4.9886 C   0  0  0  0  0  0  0  0  0  0  0  0
   -1.0756    1.2901    3.7758 C   0  0  0  0  0  0  0  0  0  0  0  0
    0.3080    2.3413    0.4091 C   0  0  0  0  0  0  0  0  0  0  0  0
    0.0999    2.1282   -0.9693 C   0  0  0  0  0  0  0  0  0  0  0  0
    0.8560    2.8301   -1.9162 C   0  0  0  0  0  0  0  0  0  0  0  0
    1.8245    3.7472   -1.5030 C   0  0  0  0  0  0  0  0  0  0  0  0
    2.7794    4.6645   -2.7094 S   0  0  0  0  0  0  0  0  0  0  0  0
    1.5411    6.0016   -2.8208 C   0  0  0  0  0  0  0  0  0  0  0  0
    2.0486    3.9521   -0.1387 C   0  0  0  0  0  0  0  0  0  0  0  0
    1.3078    3.2441    0.8116 C   0  0  0  0  0  0  0  0  0  0  0  0
    0.6707   -0.6472    1.3749 C   0  0  0  0  0  0  0  0  0  0  0  0
    2.2025   -0.3379    1.9384 S   0  0  0  0  0  0  0  0  0  0  0  0
   -2.8041   -0.0039    0.2011 C   0  0  0  0  0  0  0  0  0  0  0  0
   -3.5826   -0.3971   -0.9093 C   0  0  0  0  0  0  0  0  0  0  0  0
   -3.5858   -1.7059   -1.5035 N   0  0  0  0  0  0  0  0  0  0  0  0
   -2.8478   -1.9927   -2.7187 C   0  0  0  0  0  0  0  0  0  0  0  0
   -2.8511   -3.2892   -3.2714 C   0  0  0  0  0  0  0  0  0  0  0  0
   -2.2226   -3.5516   -4.4892 C   0  0  0  0  0  0  0  0  0  0  0  0
   -1.5501   -2.5309   -5.1638 C   0  0  0  0  0  0  0  0  0  0  0  0
   -0.8127   -2.8527   -6.7697 S   0  0  0  0  0  0  0  0  0  0  0  0
    0.7286   -3.5268   -6.0787 C   0  0  0  0  0  0  0  0  0  0  0  0
   -1.4902   -1.2518   -4.6040 C   0  0  0  0  0  0  0  0  0  0  0  0
   -2.1283   -0.9823   -3.3906 C   0  0  0  0  0  0  0  0  0  0  0  0
   -4.6644   -2.5562   -1.0813 C   0  0  0  0  0  0  0  0  0  0  0  0
   -5.7411   -2.8346   -1.9418 C   0  0  0  0  0  0  0  0  0  0  0  0
   -6.8450   -3.5580   -1.4864 C   0  0  0  0  0  0  0  0  0  0  0  0
   -6.8837   -4.0183   -0.1615 C   0  0  0  0  0  0  0  0  0  0  0  0
   -8.3300   -4.8840    0.4511 S   0  0  0  0  0  0  0  0  0  0  0  0
   -7.6829   -6.5277    0.0175 C   0  0  0  0  0  0  0  0  0  0  0  0
   -5.8090   -3.7597    0.6923 C   0  0  0  0  0  0  0  0  0  0  0  0
   -4.7114   -3.0211    0.2440 C   0  0  0  0  0  0  0  0  0  0  0  0
   -4.5374    0.5676   -1.2226 C   0  0  0  0  0  0  0  0  0  0  0  0
   -5.5876    0.8044   -2.5112 S   0  0  0  0  0  0  0  0  0  0  0  0
   -6.0549    2.3660   -1.9931 C   0  0  0  0  0  0  0  0  0  0  0  0
   -5.4435    2.6523   -0.7662 C   0  0  0  0  0  0  0  0  0  0  0  0
   -5.7176    3.8096    0.0389 N   0  0  0  0  0  0  0  0  0  0  0  0
   -6.7109    3.7619    1.0949 C   0  0  0  0  0  0  0  0  0  0  0  0
   -6.8139    4.8096    2.0318 C   0  0  0  0  0  0  0  0  0  0  0  0
   -7.7891    4.7766    3.0297 C   0  0  0  0  0  0  0  0  0  0  0  0
   -8.6873    3.7078    3.1015 C   0  0  0  0  0  0  0  0  0  0  0  0
   -9.9588    3.6874    4.3655 S   0  0  0  0  0  0  0  0  0  0  0  0
  -11.2102    4.4293    3.2756 C   0  0  0  0  0  0  0  0  0  0  0  0
   -8.5693    2.6419    2.2064 C   0  0  0  0  0  0  0  0  0  0  0  0
   -7.5941    2.6672    1.2093 C   0  0  0  0  0  0  0  0  0  0  0  0
   -5.0407    5.0292   -0.2856 C   0  0  0  0  0  0  0  0  0  0  0  0
   -5.7381    6.0784   -0.8963 C   0  0  0  0  0  0  0  0  0  0  0  0
   -5.0924    7.2913   -1.1501 C   0  0  0  0  0  0  0  0  0  0  0  0
   -3.7601    7.4719   -0.7673 C   0  0  0  0  0  0  0  0  0  0  0  0
   -2.9500    9.0443   -1.0599 S   0  0  0  0  0  0  0  0  0  0  0  0
   -3.6233    9.8204    0.4423 C   0  0  0  0  0  0  0  0  0  0  0  0
   -3.0615    6.4263   -0.1518 C   0  0  0  0  0  0  0  0  0  0  0  0
   -3.6988    5.2034    0.0789 C   0  0  0  0  0  0  0  0  0  0  0  0
   -4.5770    1.6369   -0.3938 C   0  0  0  0  0  0  0  0  0  0  0  0
   -3.4103    1.4799    0.7854 S   0  0  0  0  0  0  0  0  0  0  0  0
   -7.1380    3.1454   -2.5763 C   0  0  0  0  0  0  0  0  0  0  0  0
   -7.0570    4.1014   -3.5256 C   0  0  0  0  0  0  0  0  0  0  0  0
   -8.2922    4.7223   -4.0186 C   0  0  0  0  0  0  0  0  0  0  0  0
   -9.4597    4.4806   -3.6008 O   0  0  0  0  0  0  0  0  0  0  0  0
   -7.9745    5.6975   -5.0282 C   0  0  0  0  0  0  0  0  0  0  0  0
   -8.8790    6.5867   -5.6601 C   0  0  0  0  0  0  0  0  0  0  0  0
   -8.2713    7.5144   -6.4797 C   0  0  0  0  0  0  0  0  0  0  0  0
   -6.8545    7.5829   -6.6639 C   0  0  0  0  0  0  0  0  0  0  0  0
   -5.9676    6.7211   -6.0444 C   0  0  0  0  0  0  0  0  0  0  0  0
   -6.5731    5.7167   -5.2257 C   0  0  0  0  0  0  0  0  0  0  0  0
   -5.9269    4.6960   -4.3442 C   0  0  0  0  0  0  0  0  0  0  0  0
   -4.6081    4.3581   -4.4225 C   0  0  0  0  0  0  0  0  0  0  0  0
   -3.8640    3.6750   -3.4136 C   0  0  0  0  0  0  0  0  0  0  0  0
   -3.1781    3.1567   -2.6383 N   0  0  0  0  0  0  0  0  0  0  0  0
   -3.7857    4.7282   -5.5461 C   0  0  0  0  0  0  0  0  0  0  0  0
   -3.1080    5.0199   -6.4357 N   0  0  0  0  0  0  0  0  0  0  0  0
   -7.0064    8.7982   -7.5318 C   0  0  0  0  0  0  0  0  0  0  0  0
   -6.6324   10.1845   -6.9193 C   0  0  0  0  0  0  0  0  0  0  0  0
   -6.8779   10.1786   -5.4273 C   0  0  0  0  0  0  0  0  0  0  0  0
   -8.2000   10.1046   -5.2574 C   0  0  0  0  0  0  0  0  0  0  0  0
   -8.8075   10.0652   -6.6433 C   0  0  0  0  0  0  0  0  0  0  0  0
   -7.8403   10.9925   -7.3548 C   0  0  0  0  0  0  0  0  0  0  0  0
   -8.4593    8.7212   -7.3520 C   0  0  0  0  0  0  0  0  0  0  0  0
    8.1094   -3.8827    4.5754 H   0  0  0  0  0  0  0  0  0  0  0  0
   12.7980   -2.4227    3.1219 H   0  0  0  0  0  0  0  0  0  0  0  0
    9.8606    1.6970    2.5157 H   0  0  0  0  0  0  0  0  0  0  0  0
   13.1235    2.0953    1.1248 H   0  0  0  0  0  0  0  0  0  0  0  0
   11.5846    1.9870   -0.9471 H   0  0  0  0  0  0  0  0  0  0  0  0
    9.8973   -0.0596   -0.7140 H   0  0  0  0  0  0  0  0  0  0  0  0
   11.2825   -2.2438   -0.4357 H   0  0  0  0  0  0  0  0  0  0  0  0
   13.8721   -1.6049   -0.5222 H   0  0  0  0  0  0  0  0  0  0  0  0
   12.8620    0.0977   -2.2853 H   0  0  0  0  0  0  0  0  0  0  0  0
   14.0498    0.9843   -1.2178 H   0  0  0  0  0  0  0  0  0  0  0  0
   14.4394    0.1331    1.3219 H   0  0  0  0  0  0  0  0  0  0  0  0
    7.2210   -1.0468    2.3528 H   0  0  0  0  0  0  0  0  0  0  0  0
    5.0728   -0.6978    1.3000 H   0  0  0  0  0  0  0  0  0  0  0  0
    2.0518   -6.6238    6.1960 H   0  0  0  0  0  0  0  0  0  0  0  0
    0.8864   -8.7967    6.0384 H   0  0  0  0  0  0  0  0  0  0  0  0
    0.7838  -10.0085    3.8751 H   0  0  0  0  0  0  0  0  0  0  0  0
    1.7933   -9.0037    1.8478 H   0  0  0  0  0  0  0  0  0  0  0  0
    3.0240   -6.8771    1.9999 H   0  0  0  0  0  0  0  0  0  0  0  0
    5.1760   -8.0648    4.5681 H   0  0  0  0  0  0  0  0  0  0  0  0
    5.5560   -9.8303    6.2559 H   0  0  0  0  0  0  0  0  0  0  0  0
    5.5182   -9.2629    8.6720 H   0  0  0  0  0  0  0  0  0  0  0  0
    5.0948   -6.9322    9.3982 H   0  0  0  0  0  0  0  0  0  0  0  0
    4.7148   -5.1585    7.7172 H   0  0  0  0  0  0  0  0  0  0  0  0
    4.2509   -5.1362    0.8028 H   0  0  0  0  0  0  0  0  0  0  0  0
    5.5100   -5.7892   -1.2183 H   0  0  0  0  0  0  0  0  0  0  0  0
    6.2503   -3.7818   -3.4502 H   0  0  0  0  0  0  0  0  0  0  0  0
    4.8958   -3.3073   -4.5659 H   0  0  0  0  0  0  0  0  0  0  0  0
    6.3443   -4.1725   -5.2131 H   0  0  0  0  0  0  0  0  0  0  0  0
    2.2853   -4.3662   -3.6868 H   0  0  0  0  0  0  0  0  0  0  0  0
    1.0190   -3.7239   -1.6678 H   0  0  0  0  0  0  0  0  0  0  0  0
    0.8989   -6.4372   -0.3239 H   0  0  0  0  0  0  0  0  0  0  0  0
   -0.9888   -7.8259    0.3642 H   0  0  0  0  0  0  0  0  0  0  0  0
   -1.4260   -9.3827    3.1317 H   0  0  0  0  0  0  0  0  0  0  0  0
   -1.5397   -8.1269    4.4452 H   0  0  0  0  0  0  0  0  0  0  0  0
   -2.8700   -9.3173    4.2078 H   0  0  0  0  0  0  0  0  0  0  0  0
   -1.5947   -5.3498    3.8204 H   0  0  0  0  0  0  0  0  0  0  0  0
    0.3118   -3.9567    3.1759 H   0  0  0  0  0  0  0  0  0  0  0  0
   -0.9812    4.1691    1.9551 H   0  0  0  0  0  0  0  0  0  0  0  0
   -1.7042    5.0982    4.0995 H   0  0  0  0  0  0  0  0  0  0  0  0
   -4.2723    2.5999    6.1711 H   0  0  0  0  0  0  0  0  0  0  0  0
   -4.6230    4.0236    7.2200 H   0  0  0  0  0  0  0  0  0  0  0  0
   -4.3379    4.2662    5.4569 H   0  0  0  0  0  0  0  0  0  0  0  0
   -1.6777    1.1675    5.8402 H   0  0  0  0  0  0  0  0  0  0  0  0
   -0.9053    0.2218    3.7244 H   0  0  0  0  0  0  0  0  0  0  0  0
   -0.6305    1.4038   -1.3115 H   0  0  0  0  0  0  0  0  0  0  0  0
    0.6992    2.6458   -2.9715 H   0  0  0  0  0  0  0  0  0  0  0  0
    0.5864    5.6025   -3.2202 H   0  0  0  0  0  0  0  0  0  0  0  0
    1.9176    6.7895   -3.4984 H   0  0  0  0  0  0  0  0  0  0  0  0
    1.3711    6.4382   -1.8177 H   0  0  0  0  0  0  0  0  0  0  0  0
    2.8109    4.6453    0.1876 H   0  0  0  0  0  0  0  0  0  0  0  0
    1.5311    3.3883    1.8632 H   0  0  0  0  0  0  0  0  0  0  0  0
   -3.3506   -4.1085   -2.7688 H   0  0  0  0  0  0  0  0  0  0  0  0
   -2.2586   -4.5482   -4.9105 H   0  0  0  0  0  0  0  0  0  0  0  0
    0.5123   -4.4588   -5.5129 H   0  0  0  0  0  0  0  0  0  0  0  0
    1.4270   -3.7620   -6.9080 H   0  0  0  0  0  0  0  0  0  0  0  0
    1.2005   -2.7790   -5.4075 H   0  0  0  0  0  0  0  0  0  0  0  0
   -0.9584   -0.4576   -5.1139 H   0  0  0  0  0  0  0  0  0  0  0  0
   -2.0801    0.0251   -2.9936 H   0  0  0  0  0  0  0  0  0  0  0  0
   -5.7421   -2.4455   -2.9552 H   0  0  0  0  0  0  0  0  0  0  0  0
   -7.6822   -3.7384   -2.1463 H   0  0  0  0  0  0  0  0  0  0  0  0
   -6.7088   -6.7064    0.5214 H   0  0  0  0  0  0  0  0  0  0  0  0
   -8.4033   -7.3036    0.3500 H   0  0  0  0  0  0  0  0  0  0  0  0
   -7.5512   -6.6078   -1.0844 H   0  0  0  0  0  0  0  0  0  0  0  0
   -5.8308   -4.1136    1.7176 H   0  0  0  0  0  0  0  0  0  0  0  0
   -3.9075   -2.7970    0.9322 H   0  0  0  0  0  0  0  0  0  0  0  0
   -6.1251    5.6457    2.0105 H   0  0  0  0  0  0  0  0  0  0  0  0
   -7.8514    5.5879    3.7451 H   0  0  0  0  0  0  0  0  0  0  0  0
  -11.4070    3.7586    2.4126 H   0  0  0  0  0  0  0  0  0  0  0  0
  -12.1517    4.5633    3.8453 H   0  0  0  0  0  0  0  0  0  0  0  0
  -10.8637    5.4186    2.9103 H   0  0  0  0  0  0  0  0  0  0  0  0
   -9.2581    1.8048    2.2561 H   0  0  0  0  0  0  0  0  0  0  0  0
   -7.5390    1.8289    0.5251 H   0  0  0  0  0  0  0  0  0  0  0  0
   -6.7792    5.9571   -1.1646 H   0  0  0  0  0  0  0  0  0  0  0  0
   -5.6377    8.0975   -1.6303 H   0  0  0  0  0  0  0  0  0  0  0  0
   -3.1983   10.8382    0.5465 H   0  0  0  0  0  0  0  0  0  0  0  0
   -3.3496    9.2251    1.3365 H   0  0  0  0  0  0  0  0  0  0  0  0
   -4.7274    9.8985    0.3672 H   0  0  0  0  0  0  0  0  0  0  0  0
   -2.0309    6.5601    0.1523 H   0  0  0  0  0  0  0  0  0  0  0  0
   -3.1633    4.4094    0.5790 H   0  0  0  0  0  0  0  0  0  0  0  0
   -8.1134    2.9247   -2.1553 H   0  0  0  0  0  0  0  0  0  0  0  0
   -9.9451    6.5878   -5.4707 H   0  0  0  0  0  0  0  0  0  0  0  0
   -4.9055    6.8941   -6.1233 H   0  0  0  0  0  0  0  0  0  0  0  0
   -6.6850    8.6426   -8.5847 H   0  0  0  0  0  0  0  0  0  0  0  0
   -5.6485   10.5897   -7.2372 H   0  0  0  0  0  0  0  0  0  0  0  0
   -6.1466   10.3080   -4.6390 H   0  0  0  0  0  0  0  0  0  0  0  0
   -8.7149   10.1677   -4.3016 H   0  0  0  0  0  0  0  0  0  0  0  0
   -9.8797   10.3569   -6.6879 H   0  0  0  0  0  0  0  0  0  0  0  0
   -7.8508   12.0342   -6.9526 H   0  0  0  0  0  0  0  0  0  0  0  0
   -7.9880   11.0223   -8.4566 H   0  0  0  0  0  0  0  0  0  0  0  0
   -9.0241    8.5194   -8.2942 H   0  0  0  0  0  0  0  0  0  0  0  0
  1  2  2  3
  2  3  1  0
  3  4  2  0
  3  5  1  0
  5  6  2  0
  6  7  1  0
  7  8  2  0
  8  9  1  0
  9 10  2  0
 10 11  1  0
 11 12  2  3
 12 13  1  0
 13 14  3  0
 12 15  1  0
 15 16  3  0
  8 17  1  0
 17 18  1  0
 18 19  1  0
 19 20  2  0
 20 21  1  0
 21 22  1  0
 21 23  1  0
  1 24  1  0
 24 25  2  0
 25 26  1  0
 26 27  2  0
 27 28  1  0
 28 29  2  0
 29 30  1  0
 30 31  1  0
 31 32  2  0
 32 33  1  0
 33 34  2  0
 34 35  1  0
 35 36  2  0
 30 37  2  0
 37 38  1  0
 38 39  2  0
 37 40  1  0
 40 41  2  0
 41 42  1  0
 42 43  2  0
 43 44  1  0
 44 45  2  0
 27 46  1  0
 46 47  2  0
 47 48  1  0
 48 49  1  0
 49 50  2  0
 50 51  1  0
 51 52  2  0
 52 53  1  0
 53 54  1  0
 52 55  1  0
 55 56  2  0
 48 57  1  0
 57 58  2  0
 58 59  1  0
 59 60  2  0
 60 61  1  0
 61 62  1  0
 60 63  1  0
 63 64  2  0
 47 65  1  0
 65 66  1  0
 66 67  1  0
 67 68  2  0
 68 69  1  0
 69 70  1  0
 70 71  2  0
 71 72  1  0
 72 73  2  0
 73 74  1  0
 74 75  1  0
 73 76  1  0
 76 77  2  0
 69 78  1  0
 78 79  2  0
 79 80  1  0
 80 81  2  0
 81 82  1  0
 82 83  1  0
 81 84  1  0
 84 85  2  0
 68 86  1  0
 86 87  1  0
 67 88  1  0
 88 89  2  0
 89 90  1  0
 90 91  1  0
 91 92  2  0
 92 93  1  0
 93 94  2  0
 94 95  1  0
 95 96  1  0
 94 97  1  0
 97 98  2  0
 90 99  1  0
 99100  2  0
100101  1  0
101102  2  0
102103  1  0
103104  1  0
102105  1  0
105106  2  0
 89107  1  0
107108  1  0
108109  1  0
109110  2  0
110111  1  0
111112  1  0
112113  2  0
113114  1  0
114115  2  0
115116  1  0
116117  1  0
115118  1  0
118119  2  0
111120  1  0
120121  2  0
121122  1  0
122123  2  0
123124  1  0
124125  1  0
123126  1  0
126127  2  0
110128  1  0
128129  1  0
109130  1  0
130131  2  3
131132  1  0
132133  2  0
132134  1  0
134135  2  0
135136  1  0
136137  2  0
137138  1  0
138139  2  0
139140  1  0
140141  2  3
141142  1  0
142143  3  0
141144  1  0
144145  3  0
137146  1  0
146147  1  0
147148  1  0
148149  2  0
149150  1  0
150151  1  0
150152  1  0
 11  2  1  0
 23 17  1  0
 39 24  1  0
 45 40  1  0
 87 46  1  0
129 88  1  0
140131  1  0
152146  1  0
 10  5  1  0
 22 18  1  0
 39 28  1  0
 56 49  1  0
 64 57  1  0
 86 65  2  0
 98 91  1  0
106 99  1  0
128107  2  0
139134  1  0
151147  1  0
 23  7  1  0
 36 31  1  0
 77 70  1  0
 85 78  1  0
119112  1  0
127120  1  0
152136  1  0
  1153  1  0
  6154  1  0
  9155  1  0
 17156  1  0
 18157  1  0
 19158  1  0
 20159  1  0
 21160  1  0
 22161  1  0
 22162  1  0
 23163  1  0
 25164  1  0
 26165  1  0
 32166  1  0
 33167  1  0
 34168  1  0
 35169  1  0
 36170  1  0
 41171  1  0
 42172  1  0
 43173  1  0
 44174  1  0
 45175  1  0
 50176  1  0
 51177  1  0
 54178  1  0
 54179  1  0
 54180  1  0
 55181  1  0
 56182  1  0
 58183  1  0
 59184  1  0
 62185  1  0
 62186  1  0
 62187  1  0
 63188  1  0
 64189  1  0
 71190  1  0
 72191  1  0
 75192  1  0
 75193  1  0
 75194  1  0
 76195  1  0
 77196  1  0
 79197  1  0
 80198  1  0
 83199  1  0
 83200  1  0
 83201  1  0
 84202  1  0
 85203  1  0
 92204  1  0
 93205  1  0
 96206  1  0
 96207  1  0
 96208  1  0
 97209  1  0
 98210  1  0
100211  1  0
101212  1  0
104213  1  0
104214  1  0
104215  1  0
105216  1  0
106217  1  0
113218  1  0
114219  1  0
117220  1  0
117221  1  0
117222  1  0
118223  1  0
119224  1  0
121225  1  0
122226  1  0
125227  1  0
125228  1  0
125229  1  0
126230  1  0
127231  1  0
130232  1  0
135233  1  0
138234  1  0
146235  1  0
147236  1  0
148237  1  0
149238  1  0
150239  1  0
151240  1  0
151241  1  0
152242  1  0
M  END

