
     RDKit          3D

252278  0  0  0  0  0  0  0  0999 V2000
    4.9668    1.2377    5.9852 C   0  0  0  0  0  0  0  0  0  0  0  0
    4.7433    2.5305    5.8591 C   0  0  0  0  0  0  0  0  0  0  0  0
    5.6113    3.6795    6.2182 C   0  0  0  0  0  0  0  0  0  0  0  0
    6.8596    3.5147    6.4234 O   0  0  0  0  0  0  0  0  0  0  0  0
    4.8902    4.9396    6.2748 C   0  0  0  0  0  0  0  0  0  0  0  0
    5.4198    6.2292    6.3235 C   0  0  0  0  0  0  0  0  0  0  0  0
    4.4763    7.2707    6.0248 C   0  0  0  0  0  0  0  0  0  0  0  0
    3.2457    6.9141    5.7633 C   0  0  0  0  0  0  0  0  0  0  0  0
    2.6692    5.7489    5.7243 C   0  0  0  0  0  0  0  0  0  0  0  0
    3.5968    4.6361    5.9870 C   0  0  0  0  0  0  0  0  0  0  0  0
    3.3999    3.2225    5.7399 C   0  0  0  0  0  0  0  0  0  0  0  0
    2.3165    2.8750    5.0724 C   0  0  0  0  0  0  0  0  0  0  0  0
    1.2363    2.5920    4.4507 C   0  0  0  0  0  0  0  0  0  0  0  0
    0.1239    2.3207    3.8210 N   0  0  0  0  0  0  0  0  0  0  0  0
    1.5590    2.8816    6.7867 C   0  0  0  0  0  0  0  0  0  0  0  0
    1.0494    2.8713    7.9028 N   0  0  0  0  0  0  0  0  0  0  0  0
    2.8571    8.3992    5.4932 C   0  0  0  0  0  0  0  0  0  0  0  0
    2.1986    9.0844    6.6069 C   0  0  0  0  0  0  0  0  0  0  0  0
    2.3272   10.5588    6.3248 C   0  0  0  0  0  0  0  0  0  0  0  0
    3.6551   10.8436    6.3864 C   0  0  0  0  0  0  0  0  0  0  0  0
    4.3498    9.6421    6.8576 C   0  0  0  0  0  0  0  0  0  0  0  0
    3.2521    9.0015    7.7224 C   0  0  0  0  0  0  0  0  0  0  0  0
    4.3432    8.6705    5.7272 C   0  0  0  0  0  0  0  0  0  0  0  0
    3.8873    0.3603    5.4215 C   0  0  0  0  0  0  0  0  0  0  0  0
    3.3951    0.3321    4.3253 C   0  0  0  0  0  0  0  0  0  0  0  0
    4.3067    0.5480    3.0589 N   0  0  0  0  0  0  0  0  0  0  0  0
    5.6426    0.1288    3.2918 C   0  0  0  0  0  0  0  0  0  0  0  0
    6.6814    1.0033    2.6516 C   0  0  0  0  0  0  0  0  0  0  0  0
    7.9336    0.7348    3.1678 C   0  0  0  0  0  0  0  0  0  0  0  0
    8.2198   -0.1865    4.1043 C   0  0  0  0  0  0  0  0  0  0  0  0
    9.8752   -0.2579    4.8572 S   0  0  0  0  0  0  0  0  0  0  0  0
    9.8076    0.9793    6.2345 C   0  0  0  0  0  0  0  0  0  0  0  0
    7.2407   -1.0015    4.6554 C   0  0  0  0  0  0  0  0  0  0  0  0
    5.9517   -0.7350    4.1449 C   0  0  0  0  0  0  0  0  0  0  0  0
    3.8611    1.2171    1.9582 C   0  0  0  0  0  0  0  0  0  0  0  0
    3.6272    2.6580    2.1204 C   0  0  0  0  0  0  0  0  0  0  0  0
    3.0024    3.2249    1.0123 C   0  0  0  0  0  0  0  0  0  0  0  0
    2.6323    2.6771   -0.0670 C   0  0  0  0  0  0  0  0  0  0  0  0
    1.8390    3.5179   -1.4424 S   0  0  0  0  0  0  0  0  0  0  0  0
    1.7824    5.3004   -1.0387 C   0  0  0  0  0  0  0  0  0  0  0  0
    2.8507    1.2175   -0.2770 C   0  0  0  0  0  0  0  0  0  0  0  0
    3.4675    0.6678    0.8224 C   0  0  0  0  0  0  0  0  0  0  0  0
    2.2980   -0.3460    3.8708 C   0  0  0  0  0  0  0  0  0  0  0  0
    1.2724   -0.6638    2.6111 S   0  0  0  0  0  0  0  0  0  0  0  0
    0.1865   -1.8551    3.4146 C   0  0  0  0  0  0  0  0  0  0  0  0
    0.7301   -1.9197    4.5991 C   0  0  0  0  0  0  0  0  0  0  0  0
    0.1590   -2.9489    5.5213 N   0  0  0  0  0  0  0  0  0  0  0  0
   -0.6342   -2.4853    6.5760 C   0  0  0  0  0  0  0  0  0  0  0  0
   -0.5025   -3.4620    7.7230 C   0  0  0  0  0  0  0  0  0  0  0  0
   -1.0833   -3.0711    8.8552 C   0  0  0  0  0  0  0  0  0  0  0  0
   -1.7774   -1.8109    9.0158 C   0  0  0  0  0  0  0  0  0  0  0  0
   -2.3715   -1.4178   10.6325 S   0  0  0  0  0  0  0  0  0  0  0  0
   -1.0105   -0.5524   11.4864 C   0  0  0  0  0  0  0  0  0  0  0  0
   -1.8799   -0.9685    7.9381 C   0  0  0  0  0  0  0  0  0  0  0  0
   -1.2432   -1.4584    6.7494 C   0  0  0  0  0  0  0  0  0  0  0  0
    0.6958   -4.2104    5.3685 C   0  0  0  0  0  0  0  0  0  0  0  0
    2.0491   -4.4243    5.2703 C   0  0  0  0  0  0  0  0  0  0  0  0
    2.7682   -5.5409    5.0796 C   0  0  0  0  0  0  0  0  0  0  0  0
    1.9407   -6.7566    4.9578 C   0  0  0  0  0  0  0  0  0  0  0  0
    2.8795   -8.2364    4.7358 S   0  0  0  0  0  0  0  0  0  0  0  0
    4.6552   -7.9597    4.7794 C   0  0  0  0  0  0  0  0  0  0  0  0
    0.6580   -6.5496    5.0565 C   0  0  0  0  0  0  0  0  0  0  0  0
   -0.0938   -5.4404    5.2426 C   0  0  0  0  0  0  0  0  0  0  0  0
    1.7913   -1.1682    4.9182 C   0  0  0  0  0  0  0  0  0  0  0  0
    2.8640   -0.7859    6.2821 S   0  0  0  0  0  0  0  0  0  0  0  0
   -0.8633   -2.3751    2.5023 C   0  0  0  0  0  0  0  0  0  0  0  0
   -1.2108   -3.3601    1.7322 C   0  0  0  0  0  0  0  0  0  0  0  0
   -0.8715   -4.7684    2.0986 N   0  0  0  0  0  0  0  0  0  0  0  0
    0.3439   -5.2939    1.7652 C   0  0  0  0  0  0  0  0  0  0  0  0
    0.6565   -6.4934    1.2164 C   0  0  0  0  0  0  0  0  0  0  0  0
    1.9485   -6.9897    0.9614 C   0  0  0  0  0  0  0  0  0  0  0  0
    2.9768   -6.2269    1.2884 C   0  0  0  0  0  0  0  0  0  0  0  0
    4.6774   -6.7713    1.0680 S   0  0  0  0  0  0  0  0  0  0  0  0
    4.5925   -8.5000    0.4686 C   0  0  0  0  0  0  0  0  0  0  0  0
    2.7364   -4.9722    1.8538 C   0  0  0  0  0  0  0  0  0  0  0  0
    1.5416   -4.4939    2.1017 C   0  0  0  0  0  0  0  0  0  0  0  0
   -1.9893   -5.4611    2.6497 C   0  0  0  0  0  0  0  0  0  0  0  0
   -2.3132   -6.7413    2.5958 C   0  0  0  0  0  0  0  0  0  0  0  0
   -3.4759   -7.4240    2.8452 C   0  0  0  0  0  0  0  0  0  0  0  0
   -4.5740   -6.5445    3.2275 C   0  0  0  0  0  0  0  0  0  0  0  0
   -6.1365   -7.3504    3.4952 S   0  0  0  0  0  0  0  0  0  0  0  0
   -7.4838   -6.1721    3.6952 C   0  0  0  0  0  0  0  0  0  0  0  0
   -4.3357   -5.2138    3.3212 C   0  0  0  0  0  0  0  0  0  0  0  0
   -3.0964   -4.6559    3.0564 C   0  0  0  0  0  0  0  0  0  0  0  0
   -2.1580   -3.1499    0.8141 C   0  0  0  0  0  0  0  0  0  0  0  0
   -2.5496   -3.8376   -0.8007 S   0  0  0  0  0  0  0  0  0  0  0  0
   -3.5082   -2.5054   -1.3976 C   0  0  0  0  0  0  0  0  0  0  0  0
   -3.5577   -1.6556   -0.3886 C   0  0  0  0  0  0  0  0  0  0  0  0
   -4.7836   -0.7622   -0.1616 N   0  0  0  0  0  0  0  0  0  0  0  0
   -5.9474   -1.0414   -0.9878 C   0  0  0  0  0  0  0  0  0  0  0  0
   -6.7043   -0.0860   -1.5178 C   0  0  0  0  0  0  0  0  0  0  0  0
   -7.8185   -0.4518   -2.3755 C   0  0  0  0  0  0  0  0  0  0  0  0
   -8.0686   -1.7149   -2.5976 C   0  0  0  0  0  0  0  0  0  0  0  0
   -9.5058   -2.2121   -3.6173 S   0  0  0  0  0  0  0  0  0  0  0  0
  -10.4766   -0.7872   -4.1219 C   0  0  0  0  0  0  0  0  0  0  0  0
   -7.2950   -2.7058   -2.0493 C   0  0  0  0  0  0  0  0  0  0  0  0
   -6.2282   -2.4233   -1.2506 C   0  0  0  0  0  0  0  0  0  0  0  0
   -4.8948    0.2473    0.7990 C   0  0  0  0  0  0  0  0  0  0  0  0
   -4.1812   -0.5468    2.1654 C   0  0  0  0  0  0  0  0  0  0  0  0
   -4.1439    0.3572    3.1645 C   0  0  0  0  0  0  0  0  0  0  0  0
   -4.4963    1.6142    3.3862 C   0  0  0  0  0  0  0  0  0  0  0  0
   -4.2304    2.6667    4.6993 S   0  0  0  0  0  0  0  0  0  0  0  0
   -4.9886    2.3334    6.2532 C   0  0  0  0  0  0  0  0  0  0  0  0
   -5.1880    2.3185    2.1136 C   0  0  0  0  0  0  0  0  0  0  0  0
   -5.0459    1.1915    1.3460 C   0  0  0  0  0  0  0  0  0  0  0  0
   -2.8232   -2.0333    0.6732 C   0  0  0  0  0  0  0  0  0  0  0  0
   -1.9641   -1.1056    1.9471 S   0  0  0  0  0  0  0  0  0  0  0  0
   -3.6075   -2.1602   -2.8802 C   0  0  0  0  0  0  0  0  0  0  0  0
   -2.4407   -2.3268   -3.6232 C   0  0  0  0  0  0  0  0  0  0  0  0
   -2.2614   -1.8241   -4.7962 C   0  0  0  0  0  0  0  0  0  0  0  0
   -1.1360   -1.7889   -5.6603 C   0  0  0  0  0  0  0  0  0  0  0  0
    0.1592   -2.3057   -5.2591 C   0  0  0  0  0  0  0  0  0  0  0  0
    1.4720   -2.0786   -5.8651 C   0  0  0  0  0  0  0  0  0  0  0  0
    2.3408   -2.6333   -5.0423 C   0  0  0  0  0  0  0  0  0  0  0  0
    2.5526   -3.2229   -4.0812 C   0  0  0  0  0  0  0  0  0  0  0  0
    3.7672   -4.0587   -3.0670 S   0  0  0  0  0  0  0  0  0  0  0  0
    4.2663   -5.5432   -4.1462 C   0  0  0  0  0  0  0  0  0  0  0  0
    2.9205   -6.1605   -4.4281 C   0  0  0  0  0  0  0  0  0  0  0  0
    0.5587   -3.2923   -3.6626 Se  0  0  0  0  0  2  0  0  0  0  0  0
   -1.1987   -1.0786   -6.8030 C   0  0  0  0  0  0  0  0  0  0  0  0
   -2.2013   -0.3187   -7.2740 C   0  0  0  0  0  0  0  0  0  0  0  0
   -3.3490   -0.3594   -6.4340 C   0  0  0  0  0  0  0  0  0  0  0  0
   -4.6175    0.2462   -6.7772 C   0  0  0  0  0  0  0  0  0  0  0  0
   -5.8823   -0.0114   -6.3521 C   0  0  0  0  0  0  0  0  0  0  0  0
   -6.8986    0.6783   -6.7866 C   0  0  0  0  0  0  0  0  0  0  0  0
   -6.8608    1.6918   -7.6630 C   0  0  0  0  0  0  0  0  0  0  0  0
   -8.1287    2.7350   -8.2805 S   0  0  0  0  0  0  0  0  0  0  0  0
   -8.5834    3.9780   -7.0060 C   0  0  0  0  0  0  0  0  0  0  0  0
   -9.2573    3.1905   -5.8700 C   0  0  0  0  0  0  0  0  0  0  0  0
   -4.9575    1.7315   -7.9859 Se  0  0  0  0  0  2  0  0  0  0  0  0
   -3.3632   -1.0604   -5.2671 C   0  0  0  0  0  0  0  0  0  0  0  0
   -4.4690   -1.2338   -3.9310 S   0  0  0  0  0  0  0  0  0  0  0  0
   -2.0326    0.3809   -8.3380 C   0  0  0  0  0  0  0  0  0  0  0  0
   -0.8497    0.3931   -8.9757 C   0  0  0  0  0  0  0  0  0  0  0  0
    0.0639   -0.7305   -7.9805 S   0  0  0  0  0  0  0  0  0  0  0  0
   -0.3900    1.1717  -10.0433 C   0  0  0  0  0  0  0  0  0  0  0  0
   -0.1340    2.3075  -10.5813 C   0  0  0  0  0  0  0  0  0  0  0  0
    0.1102    3.4688  -11.0858 C   0  0  0  0  0  0  0  0  0  0  0  0
    0.0178    3.4208  -12.5035 O   0  0  0  0  0  0  0  0  0  0  0  0
    0.4361    4.7465  -10.5798 C   0  0  0  0  0  0  0  0  0  0  0  0
    0.8443    5.9539  -11.2101 C   0  0  0  0  0  0  0  0  0  0  0  0
    1.2758    6.8238  -10.1245 C   0  0  0  0  0  0  0  0  0  0  0  0
    1.2841    6.6158   -8.9960 C   0  0  0  0  0  0  0  0  0  0  0  0
    0.8919    5.4135   -8.2163 C   0  0  0  0  0  0  0  0  0  0  0  0
    0.4379    4.4911   -9.3068 C   0  0  0  0  0  0  0  0  0  0  0  0
    0.1133    3.0612   -8.9686 C   0  0  0  0  0  0  0  0  0  0  0  0
    0.2760    2.5532   -7.9554 C   0  0  0  0  0  0  0  0  0  0  0  0
    0.4913    2.0871   -6.5616 C   0  0  0  0  0  0  0  0  0  0  0  0
    0.6614    1.7287   -5.4833 N   0  0  0  0  0  0  0  0  0  0  0  0
   -0.9608    3.8578   -7.1540 C   0  0  0  0  0  0  0  0  0  0  0  0
   -1.6176    4.5450   -6.7496 N   0  0  0  0  0  0  0  0  0  0  0  0
    1.7968    8.0080   -8.5032 C   0  0  0  0  0  0  0  0  0  0  0  0
    3.1504    7.8916   -7.8863 C   0  0  0  0  0  0  0  0  0  0  0  0
    3.6133    6.5074   -8.2176 C   0  0  0  0  0  0  0  0  0  0  0  0
    3.7144    6.4905   -9.5657 C   0  0  0  0  0  0  0  0  0  0  0  0
    3.5402    7.8895  -10.0749 C   0  0  0  0  0  0  0  0  0  0  0  0
    4.0118    8.6634   -8.8633 C   0  0  0  0  0  0  0  0  0  0  0  0
    2.0415    8.1440  -10.0194 C   0  0  0  0  0  0  0  0  0  0  0  0
    5.7649    0.7909    6.4681 H   0  0  0  0  0  0  0  0  0  0  0  0
    6.4220    6.4616    6.5657 H   0  0  0  0  0  0  0  0  0  0  0  0
    1.6700    5.4429    5.5212 H   0  0  0  0  0  0  0  0  0  0  0  0
    2.5150    8.5582    4.4577 H   0  0  0  0  0  0  0  0  0  0  0  0
    1.2169    8.7898    6.9211 H   0  0  0  0  0  0  0  0  0  0  0  0
    1.5250   11.2430    6.1094 H   0  0  0  0  0  0  0  0  0  0  0  0
    4.0902   11.7964    6.1346 H   0  0  0  0  0  0  0  0  0  0  0  0
    5.2960    9.7710    7.3621 H   0  0  0  0  0  0  0  0  0  0  0  0
    3.4842    7.9825    8.0122 H   0  0  0  0  0  0  0  0  0  0  0  0
    2.9893    9.6804    8.5561 H   0  0  0  0  0  0  0  0  0  0  0  0
    4.8375    9.0312    4.7874 H   0  0  0  0  0  0  0  0  0  0  0  0
    6.3697    1.6696    1.9449 H   0  0  0  0  0  0  0  0  0  0  0  0
    8.7396    1.3453    2.7522 H   0  0  0  0  0  0  0  0  0  0  0  0
   10.3030    0.5279    7.0937 H   0  0  0  0  0  0  0  0  0  0  0  0
    8.7409    1.1543    6.5398 H   0  0  0  0  0  0  0  0  0  0  0  0
   10.1820    1.9473    5.8905 H   0  0  0  0  0  0  0  0  0  0  0  0
    7.4883   -1.7342    5.3678 H   0  0  0  0  0  0  0  0  0  0  0  0
    5.2117   -1.4507    4.6386 H   0  0  0  0  0  0  0  0  0  0  0  0
    3.9252    3.1909    2.9333 H   0  0  0  0  0  0  0  0  0  0  0  0
    2.8067    4.3553    1.1651 H   0  0  0  0  0  0  0  0  0  0  0  0
    2.8193    5.7219   -0.9454 H   0  0  0  0  0  0  0  0  0  0  0  0
    1.2193    5.4936   -0.1002 H   0  0  0  0  0  0  0  0  0  0  0  0
    1.2887    5.8469   -1.8547 H   0  0  0  0  0  0  0  0  0  0  0  0
    2.5472    0.7719   -1.1308 H   0  0  0  0  0  0  0  0  0  0  0  0
    3.6810   -0.4658    0.7380 H   0  0  0  0  0  0  0  0  0  0  0  0
    0.0458   -4.3431    7.5702 H   0  0  0  0  0  0  0  0  0  0  0  0
   -1.0540   -3.6536    9.7576 H   0  0  0  0  0  0  0  0  0  0  0  0
   -0.4944    0.1680   10.8135 H   0  0  0  0  0  0  0  0  0  0  0  0
   -0.2262   -1.2574   11.8324 H   0  0  0  0  0  0  0  0  0  0  0  0
   -1.4686    0.0339   12.3106 H   0  0  0  0  0  0  0  0  0  0  0  0
   -2.3939   -0.0998    8.0016 H   0  0  0  0  0  0  0  0  0  0  0  0
   -1.4124   -0.7261    5.9006 H   0  0  0  0  0  0  0  0  0  0  0  0
    2.6449   -3.4671    5.3540 H   0  0  0  0  0  0  0  0  0  0  0  0
    3.8025   -5.6611    4.9664 H   0  0  0  0  0  0  0  0  0  0  0  0
    5.1346   -8.9110    5.1472 H   0  0  0  0  0  0  0  0  0  0  0  0
    4.9858   -7.1339    5.4216 H   0  0  0  0  0  0  0  0  0  0  0  0
    5.0690   -7.7890    3.7677 H   0  0  0  0  0  0  0  0  0  0  0  0
    0.0219   -7.5099    4.9702 H   0  0  0  0  0  0  0  0  0  0  0  0
   -1.1161   -5.3451    5.3399 H   0  0  0  0  0  0  0  0  0  0  0  0
   -0.1314   -7.1625    0.8727 H   0  0  0  0  0  0  0  0  0  0  0  0
    1.9802   -7.9450    0.4904 H   0  0  0  0  0  0  0  0  0  0  0  0
    4.3982   -9.1689    1.3243 H   0  0  0  0  0  0  0  0  0  0  0  0
    5.4849   -8.7714   -0.0950 H   0  0  0  0  0  0  0  0  0  0  0  0
    3.6984   -8.5914   -0.2146 H   0  0  0  0  0  0  0  0  0  0  0  0
    3.6284   -4.3849    2.1313 H   0  0  0  0  0  0  0  0  0  0  0  0
    1.3401   -3.5785    2.4817 H   0  0  0  0  0  0  0  0  0  0  0  0
   -1.4701   -7.4588    2.3203 H   0  0  0  0  0  0  0  0  0  0  0  0
   -3.6563   -8.4299    2.7871 H   0  0  0  0  0  0  0  0  0  0  0  0
   -8.4826   -6.6787    3.6062 H   0  0  0  0  0  0  0  0  0  0  0  0
   -7.5101   -5.4176    2.8611 H   0  0  0  0  0  0  0  0  0  0  0  0
   -7.4216   -5.6083    4.6437 H   0  0  0  0  0  0  0  0  0  0  0  0
   -5.1669   -4.5704    3.6489 H   0  0  0  0  0  0  0  0  0  0  0  0
   -3.0241   -3.5920    3.1354 H   0  0  0  0  0  0  0  0  0  0  0  0
   -6.5716    0.9606   -1.3893 H   0  0  0  0  0  0  0  0  0  0  0  0
   -8.3759    0.3797   -2.7430 H   0  0  0  0  0  0  0  0  0  0  0  0
  -11.4085   -1.1707   -4.6305 H   0  0  0  0  0  0  0  0  0  0  0  0
  -10.7624   -0.1377   -3.2674 H   0  0  0  0  0  0  0  0  0  0  0  0
   -9.9291   -0.1681   -4.8487 H   0  0  0  0  0  0  0  0  0  0  0  0
   -7.5786   -3.7539   -2.2918 H   0  0  0  0  0  0  0  0  0  0  0  0
   -5.6305   -3.1586   -0.8038 H   0  0  0  0  0  0  0  0  0  0  0  0
   -4.0780   -1.4834    2.0114 H   0  0  0  0  0  0  0  0  0  0  0  0
   -3.6615   -0.1443    4.1431 H   0  0  0  0  0  0  0  0  0  0  0  0
   -6.0370    2.1039    6.2762 H   0  0  0  0  0  0  0  0  0  0  0  0
   -4.8220    3.2500    6.9146 H   0  0  0  0  0  0  0  0  0  0  0  0
   -4.3619    1.5550    6.8039 H   0  0  0  0  0  0  0  0  0  0  0  0
   -5.4509    3.1786    2.2330 H   0  0  0  0  0  0  0  0  0  0  0  0
   -5.6418    1.8976    0.2429 H   0  0  0  0  0  0  0  0  0  0  0  0
   -1.6279   -2.9346   -3.0805 H   0  0  0  0  0  0  0  0  0  0  0  0
    1.5053   -1.5503   -6.7517 H   0  0  0  0  0  0  0  0  0  0  0  0
    3.4880   -2.3426   -5.6272 H   0  0  0  0  0  0  0  0  0  0  0  0
    4.9571   -6.1681   -3.6227 H   0  0  0  0  0  0  0  0  0  0  0  0
    4.6508   -5.0646   -5.0595 H   0  0  0  0  0  0  0  0  0  0  0  0
    2.1912   -5.9779   -3.6059 H   0  0  0  0  0  0  0  0  0  0  0  0
    2.4591   -5.7247   -5.3680 H   0  0  0  0  0  0  0  0  0  0  0  0
    3.0180   -7.2251   -4.5854 H   0  0  0  0  0  0  0  0  0  0  0  0
   -5.9806   -0.8640   -5.6172 H   0  0  0  0  0  0  0  0  0  0  0  0
   -7.9735    0.3703   -6.4344 H   0  0  0  0  0  0  0  0  0  0  0  0
   -9.2660    4.7205   -7.4053 H   0  0  0  0  0  0  0  0  0  0  0  0
   -7.6569    4.4294   -6.6577 H   0  0  0  0  0  0  0  0  0  0  0  0
   -8.6217    2.3322   -5.6226 H   0  0  0  0  0  0  0  0  0  0  0  0
   -9.4168    3.8441   -4.9809 H   0  0  0  0  0  0  0  0  0  0  0  0
  -10.2625    2.9386   -6.2522 H   0  0  0  0  0  0  0  0  0  0  0  0
   -2.8471    0.9917   -8.8779 H   0  0  0  0  0  0  0  0  0  0  0  0
    0.0014    0.3280  -10.8833 H   0  0  0  0  0  0  0  0  0  0  0  0
    0.8353    6.1377  -12.1730 H   0  0  0  0  0  0  0  0  0  0  0  0
    0.9402    5.2331   -7.2678 H   0  0  0  0  0  0  0  0  0  0  0  0
    1.0380    8.6237   -8.0712 H   0  0  0  0  0  0  0  0  0  0  0  0
    3.2711    8.1938   -6.8552 H   0  0  0  0  0  0  0  0  0  0  0  0
    3.7917    5.7268   -7.5091 H   0  0  0  0  0  0  0  0  0  0  0  0
    3.8920    5.5964  -10.1211 H   0  0  0  0  0  0  0  0  0  0  0  0
    4.0430    8.1348  -10.9831 H   0  0  0  0  0  0  0  0  0  0  0  0
    5.0974    8.4924   -8.6758 H   0  0  0  0  0  0  0  0  0  0  0  0
    3.7783    9.7417   -8.9060 H   0  0  0  0  0  0  0  0  0  0  0  0
    1.6641    8.9670  -10.5384 H   0  0  0  0  0  0  0  0  0  0  0  0
  1  2  2  3
  2  3  1  0
  3  4  2  0
  3  5  1  0
  5  6  2  0
  6  7  1  0
  7  8  2  0
  8  9  1  0
  9 10  2  0
 10 11  1  0
 11 12  2  3
 12 13  1  0
 13 14  3  0
 12 15  1  0
 15 16  3  0
  8 17  1  0
 17 18  1  0
 18 19  1  0
 19 20  2  0
 20 21  1  0
 21 22  1  0
 21 23  1  0
  1 24  1  0
 24 25  2  0
 25 26  1  0
 26 27  1  0
 27 28  2  0
 28 29  1  0
 29 30  2  0
 30 31  1  0
 31 32  1  0
 30 33  1  0
 33 34  2  0
 26 35  1  0
 35 36  2  0
 36 37  1  0
 37 38  2  0
 38 39  1  0
 39 40  1  0
 38 41  1  0
 41 42  2  0
 25 43  1  0
 43 44  1  0
 44 45  1  0
 45 46  2  0
 46 47  1  0
 47 48  1  0
 48 49  2  0
 49 50  1  0
 50 51  2  0
 51 52  1  0
 52 53  1  0
 51 54  1  0
 54 55  2  0
 47 56  1  0
 56 57  2  0
 57 58  1  0
 58 59  2  0
 59 60  1  0
 60 61  1  0
 59 62  1  0
 62 63  2  0
 46 64  1  0
 64 65  1  0
 45 66  1  0
 66 67  2  0
 67 68  1  0
 68 69  1  0
 69 70  2  0
 70 71  1  0
 71 72  2  0
 72 73  1  0
 73 74  1  0
 72 75  1  0
 75 76  2  0
 68 77  1  0
 77 78  2  0
 78 79  1  0
 79 80  2  0
 80 81  1  0
 81 82  1  0
 80 83  1  0
 83 84  2  0
 67 85  1  0
 85 86  1  0
 86 87  1  0
 87 88  2  0
 88 89  1  0
 89 90  1  0
 90 91  2  0
 91 92  1  0
 92 93  2  0
 93 94  1  0
 94 95  1  0
 93 96  1  0
 96 97  2  0
 89 98  1  0
 98 99  2  0
 99100  1  0
100101  2  0
101102  1  0
102103  1  0
101104  1  0
104105  2  0
 88106  1  0
106107  1  0
 87108  1  0
108109  2  0
109110  1  0
110111  2  0
111112  1  0
112113  2  0
113114  1  0
114115  2  0
115116  1  0
116117  1  0
117118  1  0
115119  1  0
111120  1  0
120121  2  0
121122  1  0
122123  1  0
123124  2  0
124125  1  0
125126  2  0
126127  1  0
127128  1  0
128129  1  0
126130  1  0
122131  2  0
131132  1  0
121133  1  0
133134  2  0
134135  1  0
134136  1  0
136137  2  3
137138  1  0
138139  2  0
138140  1  0
140141  2  0
141142  1  0
142143  2  0
143144  1  0
144145  2  0
145146  1  0
146147  2  3
147148  1  0
148149  3  0
147150  1  0
150151  3  0
143152  1  0
152153  1  0
153154  1  0
154155  2  0
155156  1  0
156157  1  0
156158  1  0
 11  2  1  0
 23 17  1  0
 65 24  1  0
107 66  1  0
132108  1  0
146137  1  0
158152  1  0
 10  5  1  0
 22 18  1  0
 34 27  1  0
 42 35  1  0
 64 43  2  0
 76 69  1  0
 84 77  1  0
106 85  2  0
131110  1  0
145140  1  0
157153  1  0
 23  7  1  0
 55 48  1  0
 63 56  1  0
 97 90  1  0
105 98  1  0
119112  1  0
135120  1  0
158142  1  0
130123  1  0
  1159  1  0
  6160  1  0
  9161  1  0
 17162  1  0
 18163  1  0
 19164  1  0
 20165  1  0
 21166  1  0
 22167  1  0
 22168  1  0
 23169  1  0
 28170  1  0
 29171  1  0
 32172  1  0
 32173  1  0
 32174  1  0
 33175  1  0
 34176  1  0
 36177  1  0
 37178  1  0
 40179  1  0
 40180  1  0
 40181  1  0
 41182  1  0
 42183  1  0
 49184  1  0
 50185  1  0
 53186  1  0
 53187  1  0
 53188  1  0
 54189  1  0
 55190  1  0
 57191  1  0
 58192  1  0
 61193  1  0
 61194  1  0
 61195  1  0
 62196  1  0
 63197  1  0
 70198  1  0
 71199  1  0
 74200  1  0
 74201  1  0
 74202  1  0
 75203  1  0
 76204  1  0
 78205  1  0
 79206  1  0
 82207  1  0
 82208  1  0
 82209  1  0
 83210  1  0
 84211  1  0
 91212  1  0
 92213  1  0
 95214  1  0
 95215  1  0
 95216  1  0
 96217  1  0
 97218  1  0
 99219  1  0
100220  1  0
103221  1  0
103222  1  0
103223  1  0
104224  1  0
105225  1  0
109226  1  0
113227  1  0
114228  1  0
117229  1  0
117230  1  0
118231  1  0
118232  1  0
118233  1  0
124234  1  0
125235  1  0
128236  1  0
128237  1  0
129238  1  0
129239  1  0
129240  1  0
133241  1  0
136242  1  0
141243  1  0
144244  1  0
152245  1  0
153246  1  0
154247  1  0
155248  1  0
156249  1  0
157250  1  0
157251  1  0
158252  1  0
M  END

