
     RDKit          3D

273297  0  0  0  0  0  0  0  0999 V2000
   -2.9955    5.5510   -2.9330 C   0  0  0  0  0  0  0  0  0  0  0  0
   -2.1547    6.4706   -2.4261 C   0  0  0  0  0  0  0  0  0  0  0  0
   -1.5397    6.3913   -1.0849 C   0  0  0  0  0  0  0  0  0  0  0  0
   -1.6832    5.4612   -0.2484 O   0  0  0  0  0  0  0  0  0  0  0  0
   -0.7726    7.5816   -0.8411 C   0  0  0  0  0  0  0  0  0  0  0  0
    0.0675    7.8191    0.2742 C   0  0  0  0  0  0  0  0  0  0  0  0
    0.7610    9.0096    0.1946 C   0  0  0  0  0  0  0  0  0  0  0  0
    0.6598    9.9083   -0.9256 C   0  0  0  0  0  0  0  0  0  0  0  0
   -0.1465    9.6712   -2.0273 C   0  0  0  0  0  0  0  0  0  0  0  0
   -0.9005    8.4532   -1.9521 C   0  0  0  0  0  0  0  0  0  0  0  0
   -1.7758    7.8083   -2.9867 C   0  0  0  0  0  0  0  0  0  0  0  0
   -2.0988    8.3304   -4.2070 C   0  0  0  0  0  0  0  0  0  0  0  0
   -2.6739    7.5384   -5.2565 C   0  0  0  0  0  0  0  0  0  0  0  0
   -3.1304    6.9020   -6.1104 N   0  0  0  0  0  0  0  0  0  0  0  0
   -1.8779    9.7112   -4.5559 C   0  0  0  0  0  0  0  0  0  0  0  0
   -1.7212   10.8188   -4.8432 N   0  0  0  0  0  0  0  0  0  0  0  0
    1.7053   10.7981   -0.3248 C   0  0  0  0  0  0  0  0  0  0  0  0
    3.1349   10.7735   -0.9450 C   0  0  0  0  0  0  0  0  0  0  0  0
    3.4242    9.3919   -1.5158 C   0  0  0  0  0  0  0  0  0  0  0  0
    3.5202    8.5623   -0.4803 C   0  0  0  0  0  0  0  0  0  0  0  0
    3.2851    9.3977    0.7608 C   0  0  0  0  0  0  0  0  0  0  0  0
    3.9706   10.6809    0.3148 C   0  0  0  0  0  0  0  0  0  0  0  0
    1.8021    9.8864    0.8218 C   0  0  0  0  0  0  0  0  0  0  0  0
   -3.2747    4.2596   -2.2615 C   0  0  0  0  0  0  0  0  0  0  0  0
   -2.3500    3.2188   -2.0726 C   0  0  0  0  0  0  0  0  0  0  0  0
   -1.0661    3.1238   -2.7315 N   0  0  0  0  0  0  0  0  0  0  0  0
    0.1466    3.4171   -2.0155 C   0  0  0  0  0  0  0  0  0  0  0  0
    0.8373    4.6159   -2.2617 C   0  0  0  0  0  0  0  0  0  0  0  0
    2.0925    4.8523   -1.6903 C   0  0  0  0  0  0  0  0  0  0  0  0
    2.6959    3.8734   -0.8986 C   0  0  0  0  0  0  0  0  0  0  0  0
    4.3504    4.1242   -0.2565 S   0  0  0  0  0  0  0  0  0  0  0  0
    3.8009    4.6907    1.3896 C   0  0  0  0  0  0  0  0  0  0  0  0
    2.0437    2.6548   -0.6836 C   0  0  0  0  0  0  0  0  0  0  0  0
    0.7723    2.4338   -1.2307 C   0  0  0  0  0  0  0  0  0  0  0  0
   -0.9586    2.7287   -4.1307 C   0  0  0  0  0  0  0  0  0  0  0  0
    0.1911    2.0439   -4.5933 C   0  0  0  0  0  0  0  0  0  0  0  0
    0.3589    1.7545   -5.9483 C   0  0  0  0  0  0  0  0  0  0  0  0
   -0.6115    2.1428   -6.8740 C   0  0  0  0  0  0  0  0  0  0  0  0
   -0.3618    1.8193   -8.6247 S   0  0  0  0  0  0  0  0  0  0  0  0
    0.5462    3.3695   -8.9026 C   0  0  0  0  0  0  0  0  0  0  0  0
   -1.7754    2.7617   -6.4282 C   0  0  0  0  0  0  0  0  0  0  0  0
   -1.9611    3.0447   -5.0727 C   0  0  0  0  0  0  0  0  0  0  0  0
   -2.8214    2.3167   -1.1274 C   0  0  0  0  0  0  0  0  0  0  0  0
   -2.1883    1.0189   -0.2713 S   0  0  0  0  0  0  0  0  0  0  0  0
   -3.5221    0.8097    0.7721 C   0  0  0  0  0  0  0  0  0  0  0  0
   -4.5007    1.7509    0.4097 C   0  0  0  0  0  0  0  0  0  0  0  0
   -5.8322    1.8313    0.9413 N   0  0  0  0  0  0  0  0  0  0  0  0
   -6.9507    1.6528    0.0516 C   0  0  0  0  0  0  0  0  0  0  0  0
   -7.0044    0.5496   -0.8122 C   0  0  0  0  0  0  0  0  0  0  0  0
   -8.1565    0.3058   -1.5719 C   0  0  0  0  0  0  0  0  0  0  0  0
   -9.2538    1.1760   -1.5022 C   0  0  0  0  0  0  0  0  0  0  0  0
  -10.7260    0.8305   -2.4590 S   0  0  0  0  0  0  0  0  0  0  0  0
  -11.6347    0.1229   -1.0476 C   0  0  0  0  0  0  0  0  0  0  0  0
   -9.1738    2.3209   -0.6923 C   0  0  0  0  0  0  0  0  0  0  0  0
   -8.0358    2.5469    0.0920 C   0  0  0  0  0  0  0  0  0  0  0  0
   -6.0586    2.2840    2.2975 C   0  0  0  0  0  0  0  0  0  0  0  0
   -7.1040    1.7306    3.0528 C   0  0  0  0  0  0  0  0  0  0  0  0
   -7.4347    2.2467    4.3055 C   0  0  0  0  0  0  0  0  0  0  0  0
   -6.7486    3.3628    4.8009 C   0  0  0  0  0  0  0  0  0  0  0  0
   -7.2513    4.0659    6.3763 S   0  0  0  0  0  0  0  0  0  0  0  0
   -8.6701    4.9736    5.6717 C   0  0  0  0  0  0  0  0  0  0  0  0
   -5.6905    3.9208    4.0652 C   0  0  0  0  0  0  0  0  0  0  0  0
   -5.3346    3.3626    2.8298 C   0  0  0  0  0  0  0  0  0  0  0  0
   -4.0663    2.5759   -0.6313 C   0  0  0  0  0  0  0  0  0  0  0  0
   -4.6714    3.9869   -1.3173 S   0  0  0  0  0  0  0  0  0  0  0  0
   -3.4612   -0.0627    1.9513 C   0  0  0  0  0  0  0  0  0  0  0  0
   -3.6880   -1.4478    1.8870 C   0  0  0  0  0  0  0  0  0  0  0  0
   -4.8614   -2.0131    1.2865 N   0  0  0  0  0  0  0  0  0  0  0  0
   -4.6874   -3.1607    0.4324 C   0  0  0  0  0  0  0  0  0  0  0  0
   -3.7425   -3.1287   -0.6097 C   0  0  0  0  0  0  0  0  0  0  0  0
   -3.3837   -4.2973   -1.2737 C   0  0  0  0  0  0  0  0  0  0  0  0
   -3.9853   -5.5087   -0.9376 C   0  0  0  0  0  0  0  0  0  0  0  0
   -3.3396   -7.0560   -1.5624 S   0  0  0  0  0  0  0  0  0  0  0  0
   -2.5058   -7.4393    0.0165 C   0  0  0  0  0  0  0  0  0  0  0  0
   -5.0090   -5.5440    0.0233 C   0  0  0  0  0  0  0  0  0  0  0  0
   -5.3322   -4.3827    0.7289 C   0  0  0  0  0  0  0  0  0  0  0  0
   -6.1600   -1.7890    1.9108 C   0  0  0  0  0  0  0  0  0  0  0  0
   -6.2693   -1.5787    3.3059 C   0  0  0  0  0  0  0  0  0  0  0  0
   -7.5208   -1.5839    3.9354 C   0  0  0  0  0  0  0  0  0  0  0  0
   -8.6890   -1.7663    3.1813 C   0  0  0  0  0  0  0  0  0  0  0  0
  -10.2823   -1.8639    4.0097 S   0  0  0  0  0  0  0  0  0  0  0  0
  -10.3441   -3.6842    3.9668 C   0  0  0  0  0  0  0  0  0  0  0  0
   -8.5959   -1.9369    1.7940 C   0  0  0  0  0  0  0  0  0  0  0  0
   -7.3448   -1.9619    1.1649 C   0  0  0  0  0  0  0  0  0  0  0  0
   -2.8057   -2.2078    2.6951 C   0  0  0  0  0  0  0  0  0  0  0  0
   -1.9922   -3.6111    2.3132 S   0  0  0  0  0  0  0  0  0  0  0  0
   -0.5849   -3.3079    3.2483 C   0  0  0  0  0  0  0  0  0  0  0  0
   -0.7954   -2.1260    3.9755 C   0  0  0  0  0  0  0  0  0  0  0  0
    0.0364   -1.6048    5.0655 N   0  0  0  0  0  0  0  0  0  0  0  0
    0.8045   -2.3771    6.0612 C   0  0  0  0  0  0  0  0  0  0  0  0
    1.4239   -3.6204    5.8091 C   0  0  0  0  0  0  0  0  0  0  0  0
    2.4838   -4.0785    6.6162 C   0  0  0  0  0  0  0  0  0  0  0  0
    2.8778   -3.3555    7.7448 C   0  0  0  0  0  0  0  0  0  0  0  0
    4.5054   -3.5566    8.4442 S   0  0  0  0  0  0  0  0  0  0  0  0
    5.2665   -2.4310    7.2312 C   0  0  0  0  0  0  0  0  0  0  0  0
    2.1001   -2.2737    8.1702 C   0  0  0  0  0  0  0  0  0  0  0  0
    1.0672   -1.8040    7.3432 C   0  0  0  0  0  0  0  0  0  0  0  0
   -0.1367   -0.2092    5.3771 C   0  0  0  0  0  0  0  0  0  0  0  0
    0.9061    0.7013    5.1640 C   0  0  0  0  0  0  0  0  0  0  0  0
    0.7748    2.0219    5.5890 C   0  0  0  0  0  0  0  0  0  0  0  0
   -0.3843    2.4491    6.2378 C   0  0  0  0  0  0  0  0  0  0  0  0
   -0.5958    4.1665    6.7298 S   0  0  0  0  0  0  0  0  0  0  0  0
   -1.3038    4.6654    5.1264 C   0  0  0  0  0  0  0  0  0  0  0  0
   -1.4494    1.5538    6.4195 C   0  0  0  0  0  0  0  0  0  0  0  0
   -1.2965    0.2199    6.0401 C   0  0  0  0  0  0  0  0  0  0  0  0
   -1.9624   -1.4834    3.5105 C   0  0  0  0  0  0  0  0  0  0  0  0
   -2.1947    0.1347    3.0622 S   0  0  0  0  0  0  0  0  0  0  0  0
    0.7322   -3.6735    2.6652 C   0  0  0  0  0  0  0  0  0  0  0  0
    1.8524   -2.8244    2.6260 C   0  0  0  0  0  0  0  0  0  0  0  0
    2.8634   -3.2544    1.7455 C   0  0  0  0  0  0  0  0  0  0  0  0
    3.9892   -2.5128    1.3578 C   0  0  0  0  0  0  0  0  0  0  0  0
    4.7325   -1.5713    2.2686 C   0  0  0  0  0  0  0  0  0  0  0  0
    4.4922   -1.3398    3.6358 C   0  0  0  0  0  0  0  0  0  0  0  0
    5.5302   -0.6455    4.3014 C   0  0  0  0  0  0  0  0  0  0  0  0
    6.6053   -0.3310    3.4790 C   0  0  0  0  0  0  0  0  0  0  0  0
    8.2531    0.2560    4.0200 Si  0  0  0  0  0  4  0  0  0  0  0  0
    9.2966   -1.2429    4.4678 C   0  0  0  0  0  0  0  0  0  0  0  0
   10.6673   -0.8339    5.0065 C   0  0  0  0  0  0  0  0  0  0  0  0
    9.0822    1.1963    2.6059 C   0  0  0  0  0  0  0  0  0  0  0  0
    9.6925    0.2660    1.5575 C   0  0  0  0  0  0  0  0  0  0  0  0
    8.1090    1.3893    5.5205 C   0  0  0  0  0  0  0  0  0  0  0  0
    6.9513    2.3628    5.3938 C   0  0  0  0  0  0  0  0  0  0  0  0
    6.2681   -0.9185    1.9481 S   0  0  0  0  0  0  0  0  0  0  0  0
    4.4859   -2.8252    0.0673 C   0  0  0  0  0  0  0  0  0  0  0  0
    4.1286   -3.9731   -0.6349 C   0  0  0  0  0  0  0  0  0  0  0  0
    3.1955   -4.8695   -0.0836 C   0  0  0  0  0  0  0  0  0  0  0  0
    2.9344   -6.1943   -0.6787 C   0  0  0  0  0  0  0  0  0  0  0  0
    3.1039   -7.3997   -0.0125 C   0  0  0  0  0  0  0  0  0  0  0  0
    2.7598   -8.5157   -0.7899 C   0  0  0  0  0  0  0  0  0  0  0  0
    2.3499   -8.1902   -2.0771 C   0  0  0  0  0  0  0  0  0  0  0  0
    1.4262   -9.3234   -3.2193 Si  0  0  0  0  0  4  0  0  0  0  0  0
    2.4243  -10.8675   -3.6666 C   0  0  0  0  0  0  0  0  0  0  0  0
    2.9113  -11.6833   -2.4702 C   0  0  0  0  0  0  0  0  0  0  0  0
   -0.1134   -9.7940   -2.2442 C   0  0  0  0  0  0  0  0  0  0  0  0
   -1.3822   -9.9334   -3.0789 C   0  0  0  0  0  0  0  0  0  0  0  0
    1.0954   -8.3475   -4.7942 C   0  0  0  0  0  0  0  0  0  0  0  0
    0.2825   -9.1198   -5.8341 C   0  0  0  0  0  0  0  0  0  0  0  0
    2.3876   -6.5169   -2.2338 S   0  0  0  0  0  0  0  0  0  0  0  0
    2.5124   -4.4301    1.0608 C   0  0  0  0  0  0  0  0  0  0  0  0
    0.9976   -4.9458    1.5801 S   0  0  0  0  0  0  0  0  0  0  0  0
    4.7181   -4.0601   -1.9142 C   0  0  0  0  0  0  0  0  0  0  0  0
    5.4543   -2.9260   -2.2648 C   0  0  0  0  0  0  0  0  0  0  0  0
    5.4431   -1.8802   -0.9593 S   0  0  0  0  0  0  0  0  0  0  0  0
    5.9276   -2.4829   -3.5948 C   0  0  0  0  0  0  0  0  0  0  0  0
    5.0839   -2.3914   -4.6411 C   0  0  0  0  0  0  0  0  0  0  0  0
    4.3456   -3.5065   -5.2202 C   0  0  0  0  0  0  0  0  0  0  0  0
    4.4662   -4.7122   -4.8749 O   0  0  0  0  0  0  0  0  0  0  0  0
    3.7188   -3.0677   -6.4600 C   0  0  0  0  0  0  0  0  0  0  0  0
    4.0892   -1.7388   -6.7057 C   0  0  0  0  0  0  0  0  0  0  0  0
    3.6043   -1.0695   -7.8461 C   0  0  0  0  0  0  0  0  0  0  0  0
    2.7659   -1.7508   -8.7282 C   0  0  0  0  0  0  0  0  0  0  0  0
    2.4015   -3.1000   -8.5011 C   0  0  0  0  0  0  0  0  0  0  0  0
    1.5530   -3.7561   -9.4079 C   0  0  0  0  0  0  0  0  0  0  0  0
    1.1868   -5.0776   -9.1761 C   0  0  0  0  0  0  0  0  0  0  0  0
    1.6411   -5.7576   -8.0465 C   0  0  0  0  0  0  0  0  0  0  0  0
    2.4784   -5.1131   -7.1306 C   0  0  0  0  0  0  0  0  0  0  0  0
    2.8832   -3.7755   -7.3438 C   0  0  0  0  0  0  0  0  0  0  0  0
    4.9311   -1.2340   -5.5726 C   0  0  0  0  0  0  0  0  0  0  0  0
    5.2238    0.0753   -5.3028 C   0  0  0  0  0  0  0  0  0  0  0  0
    4.9535    1.1518   -6.2276 C   0  0  0  0  0  0  0  0  0  0  0  0
    4.7628    2.0310   -6.9521 N   0  0  0  0  0  0  0  0  0  0  0  0
    5.7264    0.5125   -4.0319 C   0  0  0  0  0  0  0  0  0  0  0  0
    6.1216    0.8816   -3.0137 N   0  0  0  0  0  0  0  0  0  0  0  0
   -3.5613    5.7357   -3.8256 H   0  0  0  0  0  0  0  0  0  0  0  0
    0.2090    7.1094    1.0778 H   0  0  0  0  0  0  0  0  0  0  0  0
   -0.1309   10.3419   -2.8631 H   0  0  0  0  0  0  0  0  0  0  0  0
    1.3278   11.8112   -0.0535 H   0  0  0  0  0  0  0  0  0  0  0  0
    3.3785   11.6176   -1.6210 H   0  0  0  0  0  0  0  0  0  0  0  0
    3.5692    9.1314   -2.5570 H   0  0  0  0  0  0  0  0  0  0  0  0
    3.7674    7.5102   -0.5312 H   0  0  0  0  0  0  0  0  0  0  0  0
    3.6667    8.9513    1.7103 H   0  0  0  0  0  0  0  0  0  0  0  0
    5.0688   10.5574    0.1257 H   0  0  0  0  0  0  0  0  0  0  0  0
    3.8126   11.5337    1.0161 H   0  0  0  0  0  0  0  0  0  0  0  0
    1.4893   10.3398    1.7812 H   0  0  0  0  0  0  0  0  0  0  0  0
    0.4201    5.3690   -2.9289 H   0  0  0  0  0  0  0  0  0  0  0  0
    2.6058    5.7885   -1.8997 H   0  0  0  0  0  0  0  0  0  0  0  0
    3.5015    5.7613    1.3449 H   0  0  0  0  0  0  0  0  0  0  0  0
    2.9483    4.0871    1.7604 H   0  0  0  0  0  0  0  0  0  0  0  0
    4.6267    4.5706    2.1098 H   0  0  0  0  0  0  0  0  0  0  0  0
    2.5286    1.8702   -0.1259 H   0  0  0  0  0  0  0  0  0  0  0  0
    0.3263    1.4501   -1.1170 H   0  0  0  0  0  0  0  0  0  0  0  0
    0.9698    1.7390   -3.9033 H   0  0  0  0  0  0  0  0  0  0  0  0
    1.2507    1.2379   -6.2668 H   0  0  0  0  0  0  0  0  0  0  0  0
    1.5253    3.3336   -8.3733 H   0  0  0  0  0  0  0  0  0  0  0  0
   -0.0320    4.2485   -8.5536 H   0  0  0  0  0  0  0  0  0  0  0  0
    0.7444    3.4747   -9.9854 H   0  0  0  0  0  0  0  0  0  0  0  0
   -2.5514    3.0422   -7.1434 H   0  0  0  0  0  0  0  0  0  0  0  0
   -2.8766    3.5371   -4.7706 H   0  0  0  0  0  0  0  0  0  0  0  0
   -6.1804   -0.1545   -0.8491 H   0  0  0  0  0  0  0  0  0  0  0  0
   -8.2165   -0.5855   -2.1861 H   0  0  0  0  0  0  0  0  0  0  0  0
  -11.7276    0.8839   -0.2449 H   0  0  0  0  0  0  0  0  0  0  0  0
  -12.6393   -0.1964   -1.3932 H   0  0  0  0  0  0  0  0  0  0  0  0
  -11.1249   -0.7927   -0.6787 H   0  0  0  0  0  0  0  0  0  0  0  0
  -10.0057    3.0019   -0.6308 H   0  0  0  0  0  0  0  0  0  0  0  0
   -8.0340    3.4093    0.7507 H   0  0  0  0  0  0  0  0  0  0  0  0
   -7.7025    0.9281    2.6485 H   0  0  0  0  0  0  0  0  0  0  0  0
   -8.2572    1.8072    4.8627 H   0  0  0  0  0  0  0  0  0  0  0  0
   -9.4297    4.2712    5.2656 H   0  0  0  0  0  0  0  0  0  0  0  0
   -8.3387    5.6577    4.8630 H   0  0  0  0  0  0  0  0  0  0  0  0
   -9.1568    5.5795    6.4564 H   0  0  0  0  0  0  0  0  0  0  0  0
   -5.1605    4.7813    4.4304 H   0  0  0  0  0  0  0  0  0  0  0  0
   -4.5310    3.8133    2.2523 H   0  0  0  0  0  0  0  0  0  0  0  0
   -3.2428   -2.1917   -0.8620 H   0  0  0  0  0  0  0  0  0  0  0  0
   -2.5931   -4.2672   -2.0203 H   0  0  0  0  0  0  0  0  0  0  0  0
   -1.9568   -8.4021   -0.0588 H   0  0  0  0  0  0  0  0  0  0  0  0
   -3.2623   -7.5345    0.8293 H   0  0  0  0  0  0  0  0  0  0  0  0
   -1.8013   -6.6139    0.2863 H   0  0  0  0  0  0  0  0  0  0  0  0
   -5.4788   -6.4729    0.2863 H   0  0  0  0  0  0  0  0  0  0  0  0
   -6.0433   -4.4651    1.5362 H   0  0  0  0  0  0  0  0  0  0  0  0
   -5.3831   -1.4668    3.9439 H   0  0  0  0  0  0  0  0  0  0  0  0
   -7.5888   -1.4447    5.0001 H   0  0  0  0  0  0  0  0  0  0  0  0
  -10.7912   -4.0087    3.0002 H   0  0  0  0  0  0  0  0  0  0  0  0
  -10.9571   -4.0617    4.8136 H   0  0  0  0  0  0  0  0  0  0  0  0
   -9.3389   -4.1436    4.0474 H   0  0  0  0  0  0  0  0  0  0  0  0
   -9.4817   -2.0973    1.1908 H   0  0  0  0  0  0  0  0  0  0  0  0
   -7.2857   -2.1885    0.1127 H   0  0  0  0  0  0  0  0  0  0  0  0
    1.1966   -4.2108    4.9527 H   0  0  0  0  0  0  0  0  0  0  0  0
    3.0565   -4.9442    6.3067 H   0  0  0  0  0  0  0  0  0  0  0  0
    4.6275   -1.5277    7.1236 H   0  0  0  0  0  0  0  0  0  0  0  0
    6.2724   -2.0886    7.5808 H   0  0  0  0  0  0  0  0  0  0  0  0
    5.3486   -2.9904    6.2606 H   0  0  0  0  0  0  0  0  0  0  0  0
    2.3698   -1.6922    9.0503 H   0  0  0  0  0  0  0  0  0  0  0  0
    0.5541   -0.9226    7.6919 H   0  0  0  0  0  0  0  0  0  0  0  0
    1.8078    0.3667    4.6875 H   0  0  0  0  0  0  0  0  0  0  0  0
    1.5882    2.7131    5.3999 H   0  0  0  0  0  0  0  0  0  0  0  0
   -1.8942    3.8441    4.6807 H   0  0  0  0  0  0  0  0  0  0  0  0
   -2.0054    5.5075    5.3320 H   0  0  0  0  0  0  0  0  0  0  0  0
   -0.4875    5.0120    4.4598 H   0  0  0  0  0  0  0  0  0  0  0  0
   -2.3969    1.8901    6.8389 H   0  0  0  0  0  0  0  0  0  0  0  0
   -2.1118   -0.4674    6.2396 H   0  0  0  0  0  0  0  0  0  0  0  0
    1.8201   -1.8407    3.0657 H   0  0  0  0  0  0  0  0  0  0  0  0
    3.6654   -1.7236    4.1970 H   0  0  0  0  0  0  0  0  0  0  0  0
    5.5254   -0.4466    5.3573 H   0  0  0  0  0  0  0  0  0  0  0  0
    8.7585   -1.8610    5.2288 H   0  0  0  0  0  0  0  0  0  0  0  0
    9.4305   -1.8678    3.5565 H   0  0  0  0  0  0  0  0  0  0  0  0
   10.5709   -0.2100    5.9203 H   0  0  0  0  0  0  0  0  0  0  0  0
   11.2411   -1.7459    5.2631 H   0  0  0  0  0  0  0  0  0  0  0  0
   11.2449   -0.3025    4.2323 H   0  0  0  0  0  0  0  0  0  0  0  0
    8.3075    1.8417    2.1254 H   0  0  0  0  0  0  0  0  0  0  0  0
    9.8825    1.8467    3.0217 H   0  0  0  0  0  0  0  0  0  0  0  0
   10.5910   -0.2408    1.9602 H   0  0  0  0  0  0  0  0  0  0  0  0
   10.0149    0.8623    0.6755 H   0  0  0  0  0  0  0  0  0  0  0  0
    8.9564   -0.4933    1.2128 H   0  0  0  0  0  0  0  0  0  0  0  0
    9.0299    1.9798    5.5859 H   0  0  0  0  0  0  0  0  0  0  0  0
    8.0165    0.8051    6.4593 H   0  0  0  0  0  0  0  0  0  0  0  0
    7.0438    3.1923    6.1407 H   0  0  0  0  0  0  0  0  0  0  0  0
    5.9949    1.8211    5.5754 H   0  0  0  0  0  0  0  0  0  0  0  0
    6.9523    2.7966    4.3686 H   0  0  0  0  0  0  0  0  0  0  0  0
    3.4309   -7.5041    1.0184 H   0  0  0  0  0  0  0  0  0  0  0  0
    2.7421   -9.5166   -0.3723 H   0  0  0  0  0  0  0  0  0  0  0  0
    1.7818  -11.5192   -4.2989 H   0  0  0  0  0  0  0  0  0  0  0  0
    3.2952  -10.5577   -4.2746 H   0  0  0  0  0  0  0  0  0  0  0  0
    3.3997  -12.6018   -2.8474 H   0  0  0  0  0  0  0  0  0  0  0  0
    3.6554  -11.1068   -1.8826 H   0  0  0  0  0  0  0  0  0  0  0  0
    2.0609  -11.9882   -1.8181 H   0  0  0  0  0  0  0  0  0  0  0  0
    0.0709  -10.7414   -1.7033 H   0  0  0  0  0  0  0  0  0  0  0  0
   -0.2745   -9.0292   -1.4608 H   0  0  0  0  0  0  0  0  0  0  0  0
   -1.6170   -8.9747   -3.5596 H   0  0  0  0  0  0  0  0  0  0  0  0
   -1.2409  -10.7386   -3.8397 H   0  0  0  0  0  0  0  0  0  0  0  0
   -2.2349  -10.2079   -2.4150 H   0  0  0  0  0  0  0  0  0  0  0  0
    2.0806   -8.0924   -5.2312 H   0  0  0  0  0  0  0  0  0  0  0  0
    0.5929   -7.3971   -4.5399 H   0  0  0  0  0  0  0  0  0  0  0  0
    0.4978   -8.7284   -6.8516 H   0  0  0  0  0  0  0  0  0  0  0  0
    0.5359  -10.2029   -5.8208 H   0  0  0  0  0  0  0  0  0  0  0  0
   -0.7991   -8.9899   -5.6564 H   0  0  0  0  0  0  0  0  0  0  0  0
    4.5584   -4.9011   -2.5792 H   0  0  0  0  0  0  0  0  0  0  0  0
    6.7285   -1.7507   -3.5112 H   0  0  0  0  0  0  0  0  0  0  0  0
    3.8574   -0.0614   -8.0964 H   0  0  0  0  0  0  0  0  0  0  0  0
    2.3946   -1.2220   -9.5995 H   0  0  0  0  0  0  0  0  0  0  0  0
    1.1711   -3.2516  -10.2853 H   0  0  0  0  0  0  0  0  0  0  0  0
    0.5325   -5.5890   -9.8826 H   0  0  0  0  0  0  0  0  0  0  0  0
    1.3497   -6.7865   -7.8663 H   0  0  0  0  0  0  0  0  0  0  0  0
    2.7922   -5.6831   -6.2622 H   0  0  0  0  0  0  0  0  0  0  0  0
  1  2  2  3
  2  3  1  0
  3  4  2  0
  3  5  1  0
  5  6  2  0
  6  7  1  0
  7  8  2  0
  8  9  1  0
  9 10  2  0
 10 11  1  0
 11 12  2  3
 12 13  1  0
 13 14  3  0
 12 15  1  0
 15 16  3  0
  8 17  1  0
 17 18  1  0
 18 19  1  0
 19 20  2  0
 20 21  1  0
 21 22  1  0
 21 23  1  0
  1 24  1  0
 24 25  2  0
 25 26  1  0
 26 27  1  0
 27 28  2  0
 28 29  1  0
 29 30  2  0
 30 31  1  0
 31 32  1  0
 30 33  1  0
 33 34  2  0
 26 35  1  0
 35 36  2  0
 36 37  1  0
 37 38  2  0
 38 39  1  0
 39 40  1  0
 38 41  1  0
 41 42  2  0
 25 43  1  0
 43 44  1  0
 44 45  1  0
 45 46  2  0
 46 47  1  0
 47 48  1  0
 48 49  2  0
 49 50  1  0
 50 51  2  0
 51 52  1  0
 52 53  1  0
 51 54  1  0
 54 55  2  0
 47 56  1  0
 56 57  2  0
 57 58  1  0
 58 59  2  0
 59 60  1  0
 60 61  1  0
 59 62  1  0
 62 63  2  0
 46 64  1  0
 64 65  1  0
 45 66  1  0
 66 67  2  0
 67 68  1  0
 68 69  1  0
 69 70  2  0
 70 71  1  0
 71 72  2  0
 72 73  1  0
 73 74  1  0
 72 75  1  0
 75 76  2  0
 68 77  1  0
 77 78  2  0
 78 79  1  0
 79 80  2  0
 80 81  1  0
 81 82  1  0
 80 83  1  0
 83 84  2  0
 67 85  1  0
 85 86  1  0
 86 87  1  0
 87 88  2  0
 88 89  1  0
 89 90  1  0
 90 91  2  0
 91 92  1  0
 92 93  2  0
 93 94  1  0
 94 95  1  0
 93 96  1  0
 96 97  2  0
 89 98  1  0
 98 99  2  0
 99100  1  0
100101  2  0
101102  1  0
102103  1  0
101104  1  0
104105  2  0
 88106  1  0
106107  1  0
 87108  1  0
108109  2  0
109110  1  0
110111  2  0
111112  1  0
112113  2  0
113114  1  0
114115  2  0
115116  1  0
116117  1  0
117118  1  0
116119  1  0
119120  1  0
116121  1  0
121122  1  0
115123  1  0
111124  1  0
124125  2  0
125126  1  0
126127  1  0
127128  2  0
128129  1  0
129130  2  0
130131  1  0
131132  1  0
132133  1  0
131134  1  0
134135  1  0
131136  1  0
136137  1  0
130138  1  0
126139  2  0
139140  1  0
125141  1  0
141142  2  0
142143  1  0
142144  1  0
144145  2  3
145146  1  0
146147  2  0
146148  1  0
148149  2  0
149150  1  0
150151  2  0
151152  1  0
152153  2  0
153154  1  0
154155  2  0
155156  1  0
156157  2  0
149158  1  0
158159  2  3
159160  1  0
160161  3  0
159162  1  0
162163  3  0
 11  2  1  0
 23 17  1  0
 65 24  1  0
107 66  1  0
140108  1  0
158145  1  0
 10  5  1  0
 22 18  1  0
 34 27  1  0
 42 35  1  0
 64 43  2  0
 76 69  1  0
 84 77  1  0
106 85  2  0
139110  1  0
157148  1  0
 23  7  1  0
 55 48  1  0
 63 56  1  0
 97 90  1  0
105 98  1  0
123112  1  0
143124  1  0
157152  1  0
138127  1  0
  1164  1  0
  6165  1  0
  9166  1  0
 17167  1  0
 18168  1  0
 19169  1  0
 20170  1  0
 21171  1  0
 22172  1  0
 22173  1  0
 23174  1  0
 28175  1  0
 29176  1  0
 32177  1  0
 32178  1  0
 32179  1  0
 33180  1  0
 34181  1  0
 36182  1  0
 37183  1  0
 40184  1  0
 40185  1  0
 40186  1  0
 41187  1  0
 42188  1  0
 49189  1  0
 50190  1  0
 53191  1  0
 53192  1  0
 53193  1  0
 54194  1  0
 55195  1  0
 57196  1  0
 58197  1  0
 61198  1  0
 61199  1  0
 61200  1  0
 62201  1  0
 63202  1  0
 70203  1  0
 71204  1  0
 74205  1  0
 74206  1  0
 74207  1  0
 75208  1  0
 76209  1  0
 78210  1  0
 79211  1  0
 82212  1  0
 82213  1  0
 82214  1  0
 83215  1  0
 84216  1  0
 91217  1  0
 92218  1  0
 95219  1  0
 95220  1  0
 95221  1  0
 96222  1  0
 97223  1  0
 99224  1  0
100225  1  0
103226  1  0
103227  1  0
103228  1  0
104229  1  0
105230  1  0
109231  1  0
113232  1  0
114233  1  0
117234  1  0
117235  1  0
118236  1  0
118237  1  0
118238  1  0
119239  1  0
119240  1  0
120241  1  0
120242  1  0
120243  1  0
121244  1  0
121245  1  0
122246  1  0
122247  1  0
122248  1  0
128249  1  0
129250  1  0
132251  1  0
132252  1  0
133253  1  0
133254  1  0
133255  1  0
134256  1  0
134257  1  0
135258  1  0
135259  1  0
135260  1  0
136261  1  0
136262  1  0
137263  1  0
137264  1  0
137265  1  0
141266  1  0
144267  1  0
150268  1  0
151269  1  0
153270  1  0
154271  1  0
155272  1  0
156273  1  0
M  END

