
     RDKit          3D

190208  0  0  0  0  0  0  0  0999 V2000
   -5.2760    3.2045   -3.0162 C   0  0  0  0  0  0  0  0  0  0  0  0
   -4.2079    3.8621   -3.5176 C   0  0  0  0  0  0  0  0  0  0  0  0
   -4.0327    4.0102   -4.9690 C   0  0  0  0  0  0  0  0  0  0  0  0
   -4.9552    4.2277   -5.7976 O   0  0  0  0  0  0  0  0  0  0  0  0
   -2.6485    3.7056   -5.3050 C   0  0  0  0  0  0  0  0  0  0  0  0
   -2.0934    3.4709   -6.5863 C   0  0  0  0  0  0  0  0  0  0  0  0
   -0.7916    2.9956   -6.5511 C   0  0  0  0  0  0  0  0  0  0  0  0
   -0.0729    2.7660   -5.3319 C   0  0  0  0  0  0  0  0  0  0  0  0
   -0.6089    2.9949   -4.0789 C   0  0  0  0  0  0  0  0  0  0  0  0
   -1.9347    3.4964   -4.0967 C   0  0  0  0  0  0  0  0  0  0  0  0
   -2.8272    3.7922   -2.9572 C   0  0  0  0  0  0  0  0  0  0  0  0
   -2.4450    4.3603   -1.7932 C   0  0  0  0  0  0  0  0  0  0  0  0
   -3.3751    5.1217   -0.9990 C   0  0  0  0  0  0  0  0  0  0  0  0
   -4.1122    5.7421   -0.3581 N   0  0  0  0  0  0  0  0  0  0  0  0
   -1.0712    4.3856   -1.3625 C   0  0  0  0  0  0  0  0  0  0  0  0
    0.0321    4.4111   -1.0068 N   0  0  0  0  0  0  0  0  0  0  0  0
    1.1144    2.2749   -6.1045 C   0  0  0  0  0  0  0  0  0  0  0  0
    2.3194    3.2543   -6.2116 C   0  0  0  0  0  0  0  0  0  0  0  0
    3.1920    2.7156   -7.3212 C   0  0  0  0  0  0  0  0  0  0  0  0
    2.5236    2.9220   -8.4612 C   0  0  0  0  0  0  0  0  0  0  0  0
    1.2243    3.5897   -8.0794 C   0  0  0  0  0  0  0  0  0  0  0  0
    1.7317    4.4509   -6.9359 C   0  0  0  0  0  0  0  0  0  0  0  0
    0.3813    2.5067   -7.3516 C   0  0  0  0  0  0  0  0  0  0  0  0
   -5.0695    2.1241   -2.0371 C   0  0  0  0  0  0  0  0  0  0  0  0
   -4.4244    0.9238   -2.3962 C   0  0  0  0  0  0  0  0  0  0  0  0
   -4.9154    0.0543   -3.4351 N   0  0  0  0  0  0  0  0  0  0  0  0
   -5.1382    0.5419   -4.7650 C   0  0  0  0  0  0  0  0  0  0  0  0
   -6.4448    0.7811   -5.2052 C   0  0  0  0  0  0  0  0  0  0  0  0
   -6.6821    1.1659   -6.5259 C   0  0  0  0  0  0  0  0  0  0  0  0
   -5.6173    1.2815   -7.4253 C   0  0  0  0  0  0  0  0  0  0  0  0
   -5.9385    1.6953   -9.1424 S   0  0  0  0  0  0  0  0  0  0  0  0
   -5.8118    3.4881   -8.8660 C   0  0  0  0  0  0  0  0  0  0  0  0
   -4.3096    1.0262   -6.9919 C   0  0  0  0  0  0  0  0  0  0  0  0
   -4.0678    0.6604   -5.6633 C   0  0  0  0  0  0  0  0  0  0  0  0
   -5.5221   -1.2018   -3.0537 C   0  0  0  0  0  0  0  0  0  0  0  0
   -6.2758   -1.2996   -1.8667 C   0  0  0  0  0  0  0  0  0  0  0  0
   -6.8852   -2.5017   -1.5116 C   0  0  0  0  0  0  0  0  0  0  0  0
   -6.7655   -3.6212   -2.3359 C   0  0  0  0  0  0  0  0  0  0  0  0
   -7.5892   -5.1524   -1.8933 S   0  0  0  0  0  0  0  0  0  0  0  0
   -9.1582   -4.6619   -2.6798 C   0  0  0  0  0  0  0  0  0  0  0  0
   -6.0172   -3.5382   -3.5172 C   0  0  0  0  0  0  0  0  0  0  0  0
   -5.4013   -2.3338   -3.8755 C   0  0  0  0  0  0  0  0  0  0  0  0
   -3.6962    0.4237   -1.3252 C   0  0  0  0  0  0  0  0  0  0  0  0
   -2.5241   -0.7494   -1.1879 S   0  0  0  0  0  0  0  0  0  0  0  0
   -2.2069   -0.4334    0.4535 C   0  0  0  0  0  0  0  0  0  0  0  0
   -3.0601    0.5978    0.8888 C   0  0  0  0  0  0  0  0  0  0  0  0
   -3.4868    0.7018    2.2528 N   0  0  0  0  0  0  0  0  0  0  0  0
   -2.7951    1.5314    3.2161 C   0  0  0  0  0  0  0  0  0  0  0  0
   -3.1239    1.4748    4.5884 C   0  0  0  0  0  0  0  0  0  0  0  0
   -2.4578    2.2725    5.5176 C   0  0  0  0  0  0  0  0  0  0  0  0
   -1.4556    3.1514    5.1000 C   0  0  0  0  0  0  0  0  0  0  0  0
   -0.6137    4.1717    6.3083 S   0  0  0  0  0  0  0  0  0  0  0  0
    0.6679    2.9245    6.6459 C   0  0  0  0  0  0  0  0  0  0  0  0
   -1.1260    3.2372    3.7429 C   0  0  0  0  0  0  0  0  0  0  0  0
   -1.8020    2.4413    2.8060 C   0  0  0  0  0  0  0  0  0  0  0  0
   -4.4929   -0.2447    2.6552 C   0  0  0  0  0  0  0  0  0  0  0  0
   -5.8269   -0.0751    2.2694 C   0  0  0  0  0  0  0  0  0  0  0  0
   -6.7811   -1.0519    2.5666 C   0  0  0  0  0  0  0  0  0  0  0  0
   -6.4087   -2.2098    3.2568 C   0  0  0  0  0  0  0  0  0  0  0  0
   -7.6238   -3.4697    3.6583 S   0  0  0  0  0  0  0  0  0  0  0  0
   -7.5530   -4.2856    2.0334 C   0  0  0  0  0  0  0  0  0  0  0  0
   -5.0788   -2.3823    3.6491 C   0  0  0  0  0  0  0  0  0  0  0  0
   -4.1225   -1.4074    3.3481 C   0  0  0  0  0  0  0  0  0  0  0  0
   -3.8458    1.0696   -0.1537 C   0  0  0  0  0  0  0  0  0  0  0  0
   -4.8302    2.4058   -0.3656 S   0  0  0  0  0  0  0  0  0  0  0  0
   -0.8298   -0.5220    0.9383 C   0  0  0  0  0  0  0  0  0  0  0  0
   -0.2162   -1.5775    1.6285 C   0  0  0  0  0  0  0  0  0  0  0  0
   -0.8837   -2.7476    2.1436 N   0  0  0  0  0  0  0  0  0  0  0  0
   -1.6955   -3.5793    1.2863 C   0  0  0  0  0  0  0  0  0  0  0  0
   -2.7847   -4.2954    1.8169 C   0  0  0  0  0  0  0  0  0  0  0  0
   -3.5536   -5.1285    1.0030 C   0  0  0  0  0  0  0  0  0  0  0  0
   -3.2496   -5.2609   -0.3542 C   0  0  0  0  0  0  0  0  0  0  0  0
   -4.2022   -6.3813   -1.3768 S   0  0  0  0  0  0  0  0  0  0  0  0
   -3.1731   -7.8272   -0.9629 C   0  0  0  0  0  0  0  0  0  0  0  0
   -2.1770   -4.5470   -0.8997 C   0  0  0  0  0  0  0  0  0  0  0  0
   -1.3992   -3.7162   -0.0817 C   0  0  0  0  0  0  0  0  0  0  0  0
   -0.5864   -3.1559    3.4957 C   0  0  0  0  0  0  0  0  0  0  0  0
   -0.2017   -4.4815    3.7756 C   0  0  0  0  0  0  0  0  0  0  0  0
    0.2152   -4.8365    5.0625 C   0  0  0  0  0  0  0  0  0  0  0  0
    0.2496   -3.8783    6.0816 C   0  0  0  0  0  0  0  0  0  0  0  0
    0.8997   -4.3047    7.6978 S   0  0  0  0  0  0  0  0  0  0  0  0
   -0.7337   -4.7235    8.3842 C   0  0  0  0  0  0  0  0  0  0  0  0
   -0.1600   -2.5653    5.8164 C   0  0  0  0  0  0  0  0  0  0  0  0
   -0.5718   -2.2044    4.5305 C   0  0  0  0  0  0  0  0  0  0  0  0
    1.1448   -1.3157    1.8184 C   0  0  0  0  0  0  0  0  0  0  0  0
    2.4182   -2.1479    2.5237 S   0  0  0  0  0  0  0  0  0  0  0  0
    3.5870   -0.9597    2.1500 C   0  0  0  0  0  0  0  0  0  0  0  0
    2.9603    0.0928    1.4577 C   0  0  0  0  0  0  0  0  0  0  0  0
    3.5917    1.3221    1.0713 N   0  0  0  0  0  0  0  0  0  0  0  0
    3.3796    2.4843    1.8920 C   0  0  0  0  0  0  0  0  0  0  0  0
    4.0104    2.5903    3.1434 C   0  0  0  0  0  0  0  0  0  0  0  0
    3.9691    3.7996    3.8481 C   0  0  0  0  0  0  0  0  0  0  0  0
    3.2993    4.9033    3.3067 C   0  0  0  0  0  0  0  0  0  0  0  0
    3.3860    6.5017    4.1184 S   0  0  0  0  0  0  0  0  0  0  0  0
    1.9494    6.1843    5.1849 C   0  0  0  0  0  0  0  0  0  0  0  0
    2.6296    4.7848    2.0845 C   0  0  0  0  0  0  0  0  0  0  0  0
    2.6763    3.5818    1.3756 C   0  0  0  0  0  0  0  0  0  0  0  0
    4.1525    1.5009   -0.2486 C   0  0  0  0  0  0  0  0  0  0  0  0
    3.5904    0.8712   -1.3752 C   0  0  0  0  0  0  0  0  0  0  0  0
    4.0602    1.1746   -2.6590 C   0  0  0  0  0  0  0  0  0  0  0  0
    5.1164    2.0756   -2.8263 C   0  0  0  0  0  0  0  0  0  0  0  0
    5.7050    2.4855   -4.4746 S   0  0  0  0  0  0  0  0  0  0  0  0
    6.7848    1.0343   -4.5840 C   0  0  0  0  0  0  0  0  0  0  0  0
    5.7053    2.6737   -1.7095 C   0  0  0  0  0  0  0  0  0  0  0  0
    5.2194    2.3976   -0.4319 C   0  0  0  0  0  0  0  0  0  0  0  0
    1.5980   -0.1436    1.3093 C   0  0  0  0  0  0  0  0  0  0  0  0
    0.3371    0.6689    0.5768 S   0  0  0  0  0  0  0  0  0  0  0  0
    5.0040   -1.0622    2.5344 C   0  0  0  0  0  0  0  0  0  0  0  0
    5.4962   -1.8822    3.5422 C   0  0  0  0  0  0  0  0  0  0  0  0
    6.8862   -1.8186    3.6848 C   0  0  0  0  0  0  0  0  0  0  0  0
    7.7407   -2.8128    4.8554 Cl  0  0  0  0  0  0  0  0  0  0  0  0
    7.4981   -0.9538    2.7785 C   0  0  0  0  0  0  0  0  0  0  0  0
    6.3059   -0.2804    1.8042 S   0  0  0  0  0  0  0  0  0  0  0  0
    8.9373   -0.6695    2.6576 C   0  0  0  0  0  0  0  0  0  0  0  0
    9.6065   -0.3521    1.4756 C   0  0  0  0  0  0  0  0  0  0  0  0
   10.9705   -0.0923    1.6700 C   0  0  0  0  0  0  0  0  0  0  0  0
   11.3607   -0.1822    2.9953 C   0  0  0  0  0  0  0  0  0  0  0  0
   12.6976    0.0113    3.4902 C   0  0  0  0  0  0  0  0  0  0  0  0
   13.7701    0.1745    3.8966 N   0  0  0  0  0  0  0  0  0  0  0  0
   10.0294   -0.5795    3.9340 S   0  0  0  0  0  0  0  0  0  0  0  0
   -6.1544    3.1235   -3.6340 H   0  0  0  0  0  0  0  0  0  0  0  0
   -2.6456    3.5914   -7.5072 H   0  0  0  0  0  0  0  0  0  0  0  0
   -0.0662    2.7463   -3.1824 H   0  0  0  0  0  0  0  0  0  0  0  0
    1.3722    1.2100   -5.9068 H   0  0  0  0  0  0  0  0  0  0  0  0
    2.8476    3.4727   -5.2596 H   0  0  0  0  0  0  0  0  0  0  0  0
    4.2042    2.3318   -7.2398 H   0  0  0  0  0  0  0  0  0  0  0  0
    2.8923    2.7240   -9.4610 H   0  0  0  0  0  0  0  0  0  0  0  0
    0.7121    4.1300   -8.9025 H   0  0  0  0  0  0  0  0  0  0  0  0
    2.5007    5.1983   -7.2527 H   0  0  0  0  0  0  0  0  0  0  0  0
    0.9378    4.9775   -6.3713 H   0  0  0  0  0  0  0  0  0  0  0  0
    0.1629    1.5878   -7.9392 H   0  0  0  0  0  0  0  0  0  0  0  0
   -7.2805    0.6697   -4.5218 H   0  0  0  0  0  0  0  0  0  0  0  0
   -7.6948    1.3652   -6.8536 H   0  0  0  0  0  0  0  0  0  0  0  0
   -6.0445    4.0211   -9.8131 H   0  0  0  0  0  0  0  0  0  0  0  0
   -4.7783    3.7518   -8.5567 H   0  0  0  0  0  0  0  0  0  0  0  0
   -6.5312    3.8160   -8.0856 H   0  0  0  0  0  0  0  0  0  0  0  0
   -3.4842    1.0867   -7.6918 H   0  0  0  0  0  0  0  0  0  0  0  0
   -3.0555    0.4416   -5.3377 H   0  0  0  0  0  0  0  0  0  0  0  0
   -6.4101   -0.4435   -1.2200 H   0  0  0  0  0  0  0  0  0  0  0  0
   -7.4739   -2.5541   -0.6089 H   0  0  0  0  0  0  0  0  0  0  0  0
   -8.9963   -4.4503   -3.7600 H   0  0  0  0  0  0  0  0  0  0  0  0
   -9.8892   -5.4924   -2.5763 H   0  0  0  0  0  0  0  0  0  0  0  0
   -9.5655   -3.7565   -2.1752 H   0  0  0  0  0  0  0  0  0  0  0  0
   -5.9171   -4.4040   -4.1588 H   0  0  0  0  0  0  0  0  0  0  0  0
   -4.8235   -2.2844   -4.7869 H   0  0  0  0  0  0  0  0  0  0  0  0
   -3.9030    0.8179    4.9535 H   0  0  0  0  0  0  0  0  0  0  0  0
   -2.7289    2.2088    6.5664 H   0  0  0  0  0  0  0  0  0  0  0  0
    0.2146    2.0314    7.1096 H   0  0  0  0  0  0  0  0  0  0  0  0
    1.4157    3.3511    7.3430 H   0  0  0  0  0  0  0  0  0  0  0  0
    1.1875    2.6300    5.7079 H   0  0  0  0  0  0  0  0  0  0  0  0
   -0.3584    3.9283    3.4133 H   0  0  0  0  0  0  0  0  0  0  0  0
   -1.5431    2.5542    1.7652 H   0  0  0  0  0  0  0  0  0  0  0  0
   -6.1208    0.8103    1.7248 H   0  0  0  0  0  0  0  0  0  0  0  0
   -7.8061   -0.9110    2.2548 H   0  0  0  0  0  0  0  0  0  0  0  0
   -7.9668   -5.3090    2.1144 H   0  0  0  0  0  0  0  0  0  0  0  0
   -6.5038   -4.3484    1.6637 H   0  0  0  0  0  0  0  0  0  0  0  0
   -8.1715   -3.7116    1.3143 H   0  0  0  0  0  0  0  0  0  0  0  0
   -4.7822   -3.2647    4.1974 H   0  0  0  0  0  0  0  0  0  0  0  0
   -3.0967   -1.5632    3.6351 H   0  0  0  0  0  0  0  0  0  0  0  0
   -3.0252   -4.2247    2.8710 H   0  0  0  0  0  0  0  0  0  0  0  0
   -4.3772   -5.6849    1.4316 H   0  0  0  0  0  0  0  0  0  0  0  0
   -3.1762   -7.9971    0.1350 H   0  0  0  0  0  0  0  0  0  0  0  0
   -2.1331   -7.6637   -1.3158 H   0  0  0  0  0  0  0  0  0  0  0  0
   -3.5905   -8.7249   -1.4637 H   0  0  0  0  0  0  0  0  0  0  0  0
   -1.9366   -4.6457   -1.9478 H   0  0  0  0  0  0  0  0  0  0  0  0
   -0.5592   -3.1952   -0.5204 H   0  0  0  0  0  0  0  0  0  0  0  0
   -0.1752   -5.2193    2.9836 H   0  0  0  0  0  0  0  0  0  0  0  0
    0.5453   -5.8459    5.2562 H   0  0  0  0  0  0  0  0  0  0  0  0
   -1.1099   -5.6580    7.9185 H   0  0  0  0  0  0  0  0  0  0  0  0
   -0.6268   -4.8808    9.4842 H   0  0  0  0  0  0  0  0  0  0  0  0
   -1.4425   -3.8915    8.2118 H   0  0  0  0  0  0  0  0  0  0  0  0
   -0.1337   -1.8170    6.5991 H   0  0  0  0  0  0  0  0  0  0  0  0
   -0.8483   -1.1737    4.3354 H   0  0  0  0  0  0  0  0  0  0  0  0
    4.5889    1.7610    3.5415 H   0  0  0  0  0  0  0  0  0  0  0  0
    4.4925    3.8895    4.7942 H   0  0  0  0  0  0  0  0  0  0  0  0
    1.0540    5.9691    4.5673 H   0  0  0  0  0  0  0  0  0  0  0  0
    1.7532    7.0810    5.8081 H   0  0  0  0  0  0  0  0  0  0  0  0
    2.1730    5.3249    5.8512 H   0  0  0  0  0  0  0  0  0  0  0  0
    2.1337    5.6427    1.6466 H   0  0  0  0  0  0  0  0  0  0  0  0
    2.2023    3.5059    0.4062 H   0  0  0  0  0  0  0  0  0  0  0  0
    2.7622    0.1892   -1.2681 H   0  0  0  0  0  0  0  0  0  0  0  0
    3.5983    0.7102   -3.5201 H   0  0  0  0  0  0  0  0  0  0  0  0
    7.3187    1.0501   -5.5562 H   0  0  0  0  0  0  0  0  0  0  0  0
    6.1728    0.1065   -4.5271 H   0  0  0  0  0  0  0  0  0  0  0  0
    7.5351    1.0369   -3.7616 H   0  0  0  0  0  0  0  0  0  0  0  0
    6.5270    3.3712   -1.8367 H   0  0  0  0  0  0  0  0  0  0  0  0
    5.6836    2.8854    0.4203 H   0  0  0  0  0  0  0  0  0  0  0  0
    4.8731   -2.5200    4.1552 H   0  0  0  0  0  0  0  0  0  0  0  0
    9.1455   -0.3695    0.5014 H   0  0  0  0  0  0  0  0  0  0  0  0
   11.6549    0.1251    0.8566 H   0  0  0  0  0  0  0  0  0  0  0  0
  1  2  2  3
  2  3  1  0
  3  4  2  0
  3  5  1  0
  5  6  2  0
  6  7  1  0
  7  8  2  0
  8  9  1  0
  9 10  2  0
 10 11  1  0
 11 12  2  3
 12 13  1  0
 13 14  3  0
 12 15  1  0
 15 16  3  0
  8 17  1  0
 17 18  1  0
 18 19  1  0
 19 20  2  0
 20 21  1  0
 21 22  1  0
 21 23  1  0
  1 24  1  0
 24 25  2  0
 25 26  1  0
 26 27  1  0
 27 28  2  0
 28 29  1  0
 29 30  2  0
 30 31  1  0
 31 32  1  0
 30 33  1  0
 33 34  2  0
 26 35  1  0
 35 36  2  0
 36 37  1  0
 37 38  2  0
 38 39  1  0
 39 40  1  0
 38 41  1  0
 41 42  2  0
 25 43  1  0
 43 44  1  0
 44 45  1  0
 45 46  2  0
 46 47  1  0
 47 48  1  0
 48 49  2  0
 49 50  1  0
 50 51  2  0
 51 52  1  0
 52 53  1  0
 51 54  1  0
 54 55  2  0
 47 56  1  0
 56 57  2  0
 57 58  1  0
 58 59  2  0
 59 60  1  0
 60 61  1  0
 59 62  1  0
 62 63  2  0
 46 64  1  0
 64 65  1  0
 45 66  1  0
 66 67  2  0
 67 68  1  0
 68 69  1  0
 69 70  2  0
 70 71  1  0
 71 72  2  0
 72 73  1  0
 73 74  1  0
 72 75  1  0
 75 76  2  0
 68 77  1  0
 77 78  2  0
 78 79  1  0
 79 80  2  0
 80 81  1  0
 81 82  1  0
 80 83  1  0
 83 84  2  0
 67 85  1  0
 85 86  1  0
 86 87  1  0
 87 88  2  0
 88 89  1  0
 89 90  1  0
 90 91  2  0
 91 92  1  0
 92 93  2  0
 93 94  1  0
 94 95  1  0
 93 96  1  0
 96 97  2  0
 89 98  1  0
 98 99  2  0
 99100  1  0
100101  2  0
101102  1  0
102103  1  0
101104  1  0
104105  2  0
 88106  1  0
106107  1  0
 87108  1  0
108109  2  0
109110  1  0
110111  1  0
110112  2  0
112113  1  0
112114  1  0
114115  2  0
115116  1  0
116117  2  0
117118  1  0
118119  3  0
117120  1  0
 11  2  1  0
 23 17  1  0
 65 24  1  0
107 66  1  0
113108  1  0
120114  1  0
 10  5  1  0
 22 18  1  0
 34 27  1  0
 42 35  1  0
 64 43  2  0
 76 69  1  0
 84 77  1  0
106 85  2  0
 23  7  1  0
 55 48  1  0
 63 56  1  0
 97 90  1  0
105 98  1  0
  1121  1  0
  6122  1  0
  9123  1  0
 17124  1  0
 18125  1  0
 19126  1  0
 20127  1  0
 21128  1  0
 22129  1  0
 22130  1  0
 23131  1  0
 28132  1  0
 29133  1  0
 32134  1  0
 32135  1  0
 32136  1  0
 33137  1  0
 34138  1  0
 36139  1  0
 37140  1  0
 40141  1  0
 40142  1  0
 40143  1  0
 41144  1  0
 42145  1  0
 49146  1  0
 50147  1  0
 53148  1  0
 53149  1  0
 53150  1  0
 54151  1  0
 55152  1  0
 57153  1  0
 58154  1  0
 61155  1  0
 61156  1  0
 61157  1  0
 62158  1  0
 63159  1  0
 70160  1  0
 71161  1  0
 74162  1  0
 74163  1  0
 74164  1  0
 75165  1  0
 76166  1  0
 78167  1  0
 79168  1  0
 82169  1  0
 82170  1  0
 82171  1  0
 83172  1  0
 84173  1  0
 91174  1  0
 92175  1  0
 95176  1  0
 95177  1  0
 95178  1  0
 96179  1  0
 97180  1  0
 99181  1  0
100182  1  0
103183  1  0
103184  1  0
103185  1  0
104186  1  0
105187  1  0
109188  1  0
115189  1  0
116190  1  0
M  END

