
     RDKit          3D

173192  0  0  0  0  0  0  0  0999 V2000
   -0.2041   -0.8701   -9.2806 C   0  0  0  0  0  0  0  0  0  0  0  0
    0.1170    0.4011   -8.9496 C   0  0  0  0  0  0  0  0  0  0  0  0
    0.0471    0.9721   -7.5913 C   0  0  0  0  0  0  0  0  0  0  0  0
   -0.1680    0.3464   -6.5193 O   0  0  0  0  0  0  0  0  0  0  0  0
    0.1471    2.4069   -7.6788 C   0  0  0  0  0  0  0  0  0  0  0  0
    0.0138    3.3322   -6.6160 C   0  0  0  0  0  0  0  0  0  0  0  0
    0.0337    4.6533   -7.0176 C   0  0  0  0  0  0  0  0  0  0  0  0
    0.1771    5.0524   -8.3873 C   0  0  0  0  0  0  0  0  0  0  0  0
    0.3068    4.1489   -9.4313 C   0  0  0  0  0  0  0  0  0  0  0  0
    0.3046    2.7799   -9.0371 C   0  0  0  0  0  0  0  0  0  0  0  0
    0.3891    1.5449   -9.8746 C   0  0  0  0  0  0  0  0  0  0  0  0
    0.8924    1.4580  -11.1359 C   0  0  0  0  0  0  0  0  0  0  0  0
    1.3044    2.6123  -11.8957 C   0  0  0  0  0  0  0  0  0  0  0  0
    1.6431    3.5289  -12.5155 N   0  0  0  0  0  0  0  0  0  0  0  0
    1.2217    0.1999  -11.7396 C   0  0  0  0  0  0  0  0  0  0  0  0
    1.5265   -0.8080  -12.2312 N   0  0  0  0  0  0  0  0  0  0  0  0
    0.0419    6.4933   -7.9955 C   0  0  0  0  0  0  0  0  0  0  0  0
   -1.3017    7.2141   -8.3066 C   0  0  0  0  0  0  0  0  0  0  0  0
   -2.4405    6.2224   -8.2713 C   0  0  0  0  0  0  0  0  0  0  0  0
   -2.5842    5.8472   -7.0010 C   0  0  0  0  0  0  0  0  0  0  0  0
   -1.5318    6.5913   -6.2125 C   0  0  0  0  0  0  0  0  0  0  0  0
   -1.5462    7.9050   -6.9759 C   0  0  0  0  0  0  0  0  0  0  0  0
   -0.1074    6.0822   -6.5953 C   0  0  0  0  0  0  0  0  0  0  0  0
   -0.4140   -1.9125   -8.2566 C   0  0  0  0  0  0  0  0  0  0  0  0
   -1.7075   -2.3940   -7.9930 C   0  0  0  0  0  0  0  0  0  0  0  0
   -1.9959   -3.0415   -6.7779 C   0  0  0  0  0  0  0  0  0  0  0  0
   -3.2907   -3.3308   -6.4824 F   0  0  0  0  0  0  0  0  0  0  0  0
   -0.9917   -3.2314   -5.8084 C   0  0  0  0  0  0  0  0  0  0  0  0
    0.3269   -2.9020   -6.1436 C   0  0  0  0  0  0  0  0  0  0  0  0
    0.6192   -2.2569   -7.3783 C   0  0  0  0  0  0  0  0  0  0  0  0
    1.9091   -1.8712   -7.5757 N   0  0  0  0  0  0  0  0  0  0  0  0
    2.5945   -2.3652   -6.1620 S   0  0  0  0  0  0  0  0  0  0  0  0
    1.3633   -3.0272   -5.2774 N   0  0  0  0  0  0  0  0  0  0  0  0
   -1.3481   -3.2871   -4.3692 C   0  0  0  0  0  0  0  0  0  0  0  0
   -0.9703   -4.3784   -3.5632 C   0  0  0  0  0  0  0  0  0  0  0  0
   -0.5500   -5.5358   -4.1404 F   0  0  0  0  0  0  0  0  0  0  0  0
   -0.9696   -4.2597   -2.1606 C   0  0  0  0  0  0  0  0  0  0  0  0
   -0.6085   -5.3255   -1.4012 F   0  0  0  0  0  0  0  0  0  0  0  0
   -1.2697   -3.0241   -1.5511 C   0  0  0  0  0  0  0  0  0  0  0  0
   -1.6397   -1.9330   -2.3666 C   0  0  0  0  0  0  0  0  0  0  0  0
   -1.8093   -0.6888   -1.8383 N   0  0  0  0  0  0  0  0  0  0  0  0
   -2.1526    0.3822   -2.6014 C   0  0  0  0  0  0  0  0  0  0  0  0
   -2.2371    1.6555   -2.0330 O   0  0  0  0  0  0  0  0  0  0  0  0
   -1.6331    1.9625   -0.7753 C   0  0  0  0  0  0  0  0  0  0  0  0
   -1.8529    3.4230   -0.4384 C   0  0  0  0  0  0  0  0  0  0  0  0
   -2.3887    0.1956   -3.9657 C   0  0  0  0  0  0  0  0  0  0  0  0
   -2.1469   -1.0243   -4.5139 N   0  0  0  0  0  0  0  0  0  0  0  0
   -1.7557   -2.0896   -3.7565 C   0  0  0  0  0  0  0  0  0  0  0  0
   -2.8764    1.3104   -4.8332 C   0  0  0  0  0  0  0  0  0  0  0  0
   -1.0369   -2.8057   -0.1001 C   0  0  0  0  0  0  0  0  0  0  0  0
    0.2667   -2.6494    0.4090 C   0  0  0  0  0  0  0  0  0  0  0  0
    1.2355   -3.7150    0.4087 N   0  0  0  0  0  0  0  0  0  0  0  0
    1.4703   -4.3745    1.6728 C   0  0  0  0  0  0  0  0  0  0  0  0
    2.7588   -4.3860    2.2372 C   0  0  0  0  0  0  0  0  0  0  0  0
    2.9516   -4.8445    3.5474 C   0  0  0  0  0  0  0  0  0  0  0  0
    1.8623   -5.3044    4.2956 C   0  0  0  0  0  0  0  0  0  0  0  0
    2.0867   -5.7965    6.0079 S   0  0  0  0  0  0  0  0  0  0  0  0
    2.3055   -7.5561    5.6010 C   0  0  0  0  0  0  0  0  0  0  0  0
    0.5875   -5.3302    3.7248 C   0  0  0  0  0  0  0  0  0  0  0  0
    0.3921   -4.8730    2.4212 C   0  0  0  0  0  0  0  0  0  0  0  0
    2.0709   -3.9974   -0.7321 C   0  0  0  0  0  0  0  0  0  0  0  0
    2.4228   -2.9794   -1.6344 C   0  0  0  0  0  0  0  0  0  0  0  0
    3.2745   -3.2579   -2.7081 C   0  0  0  0  0  0  0  0  0  0  0  0
    3.7589   -4.5567   -2.9101 C   0  0  0  0  0  0  0  0  0  0  0  0
    4.8355   -4.9141   -4.2990 S   0  0  0  0  0  0  0  0  0  0  0  0
    3.5686   -5.8171   -5.2517 C   0  0  0  0  0  0  0  0  0  0  0  0
    3.4188   -5.5712   -2.0125 C   0  0  0  0  0  0  0  0  0  0  0  0
    2.5732   -5.2984   -0.9330 C   0  0  0  0  0  0  0  0  0  0  0  0
    0.2894   -1.6848    1.4134 C   0  0  0  0  0  0  0  0  0  0  0  0
    1.5286   -0.9791    2.2773 S   0  0  0  0  0  0  0  0  0  0  0  0
    0.4870   -0.0177    3.2252 C   0  0  0  0  0  0  0  0  0  0  0  0
   -0.8425   -0.2539    2.8428 C   0  0  0  0  0  0  0  0  0  0  0  0
   -1.9932    0.2016    3.5808 N   0  0  0  0  0  0  0  0  0  0  0  0
   -2.7566    1.3045    3.0578 C   0  0  0  0  0  0  0  0  0  0  0  0
   -2.4883    2.6095    3.4855 C   0  0  0  0  0  0  0  0  0  0  0  0
   -3.2193    3.6824    2.9737 C   0  0  0  0  0  0  0  0  0  0  0  0
   -4.2402    3.4570    2.0459 C   0  0  0  0  0  0  0  0  0  0  0  0
   -5.1312    4.8441    1.3364 S   0  0  0  0  0  0  0  0  0  0  0  0
   -6.4734    4.7793    2.5611 C   0  0  0  0  0  0  0  0  0  0  0  0
   -4.5296    2.1518    1.6341 C   0  0  0  0  0  0  0  0  0  0  0  0
   -3.7944    1.0765    2.1375 C   0  0  0  0  0  0  0  0  0  0  0  0
   -2.4036   -0.4858    4.7888 C   0  0  0  0  0  0  0  0  0  0  0  0
   -1.4866   -1.2408    5.5508 C   0  0  0  0  0  0  0  0  0  0  0  0
   -1.8920   -1.9094    6.7071 C   0  0  0  0  0  0  0  0  0  0  0  0
   -3.2288   -1.8796    7.1005 C   0  0  0  0  0  0  0  0  0  0  0  0
   -3.7561   -2.7760    8.5588 S   0  0  0  0  0  0  0  0  0  0  0  0
   -3.6853   -4.4045    7.7499 C   0  0  0  0  0  0  0  0  0  0  0  0
   -4.1583   -1.1515    6.3565 C   0  0  0  0  0  0  0  0  0  0  0  0
   -3.7496   -0.4516    5.2137 C   0  0  0  0  0  0  0  0  0  0  0  0
   -0.8999   -1.1935    1.8105 C   0  0  0  0  0  0  0  0  0  0  0  0
   -2.1033   -1.8596    0.8609 S   0  0  0  0  0  0  0  0  0  0  0  0
    0.9470    1.0816    4.0936 C   0  0  0  0  0  0  0  0  0  0  0  0
    2.1204    1.0733    4.7529 C   0  0  0  0  0  0  0  0  0  0  0  0
    2.8137   -0.1316    5.2314 C   0  0  0  0  0  0  0  0  0  0  0  0
    2.4386   -1.3244    5.0750 O   0  0  0  0  0  0  0  0  0  0  0  0
    3.8970    0.2764    6.0917 C   0  0  0  0  0  0  0  0  0  0  0  0
    4.7617   -0.5677    6.8267 C   0  0  0  0  0  0  0  0  0  0  0  0
    5.6471    0.1111    7.6407 C   0  0  0  0  0  0  0  0  0  0  0  0
    5.6714    1.5380    7.7511 C   0  0  0  0  0  0  0  0  0  0  0  0
    4.8226    2.3692    7.0457 C   0  0  0  0  0  0  0  0  0  0  0  0
    3.9191    1.6972    6.1775 C   0  0  0  0  0  0  0  0  0  0  0  0
    2.8597    2.2572    5.2941 C   0  0  0  0  0  0  0  0  0  0  0  0
    2.7639    3.5417    4.8490 C   0  0  0  0  0  0  0  0  0  0  0  0
    1.8368    3.9481    3.8215 C   0  0  0  0  0  0  0  0  0  0  0  0
    1.0967    4.2777    2.9968 N   0  0  0  0  0  0  0  0  0  0  0  0
    3.6718    4.5788    5.2702 C   0  0  0  0  0  0  0  0  0  0  0  0
    4.4004    5.4200    5.5865 N   0  0  0  0  0  0  0  0  0  0  0  0
    6.7569    1.4559    8.7789 C   0  0  0  0  0  0  0  0  0  0  0  0
    6.3240    1.7240   10.2488 C   0  0  0  0  0  0  0  0  0  0  0  0
    7.4534    1.2091   11.1090 C   0  0  0  0  0  0  0  0  0  0  0  0
    7.4224   -0.1282   11.0141 C   0  0  0  0  0  0  0  0  0  0  0  0
    6.2782   -0.4664   10.0924 C   0  0  0  0  0  0  0  0  0  0  0  0
    5.3065    0.6251   10.5171 C   0  0  0  0  0  0  0  0  0  0  0  0
    6.7259   -0.0069    8.6716 C   0  0  0  0  0  0  0  0  0  0  0  0
   -0.3936   -1.1474  -10.3056 H   0  0  0  0  0  0  0  0  0  0  0  0
   -0.1232    3.0351   -5.5838 H   0  0  0  0  0  0  0  0  0  0  0  0
    0.3419    4.4894  -10.4516 H   0  0  0  0  0  0  0  0  0  0  0  0
    0.9540    7.0987   -8.1882 H   0  0  0  0  0  0  0  0  0  0  0  0
   -1.2867    7.8852   -9.1942 H   0  0  0  0  0  0  0  0  0  0  0  0
   -3.0878    5.9310   -9.0983 H   0  0  0  0  0  0  0  0  0  0  0  0
   -3.3602    5.2003   -6.6120 H   0  0  0  0  0  0  0  0  0  0  0  0
   -1.7316    6.6697   -5.1232 H   0  0  0  0  0  0  0  0  0  0  0  0
   -2.5262    8.4372   -6.9302 H   0  0  0  0  0  0  0  0  0  0  0  0
   -0.7254    8.6022   -6.6709 H   0  0  0  0  0  0  0  0  0  0  0  0
    0.7137    6.4365   -5.9343 H   0  0  0  0  0  0  0  0  0  0  0  0
   -2.5177   -2.1487   -8.6659 H   0  0  0  0  0  0  0  0  0  0  0  0
   -0.5410    1.7569   -0.8290 H   0  0  0  0  0  0  0  0  0  0  0  0
   -2.0707    1.3241    0.0203 H   0  0  0  0  0  0  0  0  0  0  0  0
   -2.9394    3.6526   -0.4401 H   0  0  0  0  0  0  0  0  0  0  0  0
   -1.3491    4.0703   -1.1864 H   0  0  0  0  0  0  0  0  0  0  0  0
   -1.4343    3.6335    0.5678 H   0  0  0  0  0  0  0  0  0  0  0  0
   -3.9304    1.5440   -4.5790 H   0  0  0  0  0  0  0  0  0  0  0  0
   -2.8227    1.0203   -5.9037 H   0  0  0  0  0  0  0  0  0  0  0  0
   -2.2523    2.2138   -4.6751 H   0  0  0  0  0  0  0  0  0  0  0  0
    3.6040   -3.9844    1.6910 H   0  0  0  0  0  0  0  0  0  0  0  0
    3.9401   -4.8044    3.9925 H   0  0  0  0  0  0  0  0  0  0  0  0
    2.4407   -8.1323    6.5392 H   0  0  0  0  0  0  0  0  0  0  0  0
    3.1980   -7.6955    4.9621 H   0  0  0  0  0  0  0  0  0  0  0  0
    1.4082   -7.9419    5.0735 H   0  0  0  0  0  0  0  0  0  0  0  0
   -0.2639   -5.6874    4.2962 H   0  0  0  0  0  0  0  0  0  0  0  0
   -0.6072   -4.8727    2.0038 H   0  0  0  0  0  0  0  0  0  0  0  0
    2.0717   -1.9661   -1.4893 H   0  0  0  0  0  0  0  0  0  0  0  0
    3.5634   -2.4601   -3.3807 H   0  0  0  0  0  0  0  0  0  0  0  0
    3.9133   -5.9385   -6.2995 H   0  0  0  0  0  0  0  0  0  0  0  0
    2.6045   -5.2753   -5.2454 H   0  0  0  0  0  0  0  0  0  0  0  0
    3.4165   -6.8233   -4.8060 H   0  0  0  0  0  0  0  0  0  0  0  0
    3.8021   -6.5705   -2.1452 H   0  0  0  0  0  0  0  0  0  0  0  0
    2.3035   -6.1060   -0.2651 H   0  0  0  0  0  0  0  0  0  0  0  0
   -1.7235    2.8000    4.2241 H   0  0  0  0  0  0  0  0  0  0  0  0
   -2.9835    4.6909    3.2886 H   0  0  0  0  0  0  0  0  0  0  0  0
   -7.0489    3.8398    2.4312 H   0  0  0  0  0  0  0  0  0  0  0  0
   -7.1466    5.6441    2.3898 H   0  0  0  0  0  0  0  0  0  0  0  0
   -6.0699    4.8364    3.5938 H   0  0  0  0  0  0  0  0  0  0  0  0
   -5.3172    1.9736    0.9103 H   0  0  0  0  0  0  0  0  0  0  0  0
   -4.0335    0.0714    1.8175 H   0  0  0  0  0  0  0  0  0  0  0  0
   -0.4447   -1.3015    5.2806 H   0  0  0  0  0  0  0  0  0  0  0  0
   -1.1690   -2.4679    7.2818 H   0  0  0  0  0  0  0  0  0  0  0  0
   -4.2549   -4.4065    6.8004 H   0  0  0  0  0  0  0  0  0  0  0  0
   -4.1133   -5.1669    8.4312 H   0  0  0  0  0  0  0  0  0  0  0  0
   -2.6252   -4.6667    7.5423 H   0  0  0  0  0  0  0  0  0  0  0  0
   -5.1981   -1.1243    6.6606 H   0  0  0  0  0  0  0  0  0  0  0  0
   -4.4931    0.0950    4.6530 H   0  0  0  0  0  0  0  0  0  0  0  0
    0.3496    1.9745    4.0745 H   0  0  0  0  0  0  0  0  0  0  0  0
    4.7130   -1.6464    6.7768 H   0  0  0  0  0  0  0  0  0  0  0  0
    4.8284    3.4303    7.2184 H   0  0  0  0  0  0  0  0  0  0  0  0
    7.7138    1.9319    8.4626 H   0  0  0  0  0  0  0  0  0  0  0  0
    5.9957    2.7628   10.4766 H   0  0  0  0  0  0  0  0  0  0  0  0
    8.1015    1.7900   11.7534 H   0  0  0  0  0  0  0  0  0  0  0  0
    8.0386   -0.8164   11.5789 H   0  0  0  0  0  0  0  0  0  0  0  0
    5.9030   -1.5095   10.1669 H   0  0  0  0  0  0  0  0  0  0  0  0
    5.0072    0.5562   11.5937 H   0  0  0  0  0  0  0  0  0  0  0  0
    4.3846    0.6909    9.8934 H   0  0  0  0  0  0  0  0  0  0  0  0
    7.6650   -0.4629    8.2847 H   0  0  0  0  0  0  0  0  0  0  0  0
  1  2  2  3
  2  3  1  0
  3  4  2  0
  3  5  1  0
  5  6  2  0
  6  7  1  0
  7  8  2  0
  8  9  1  0
  9 10  2  0
 10 11  1  0
 11 12  2  3
 12 13  1  0
 13 14  3  0
 12 15  1  0
 15 16  3  0
  8 17  1  0
 17 18  1  0
 18 19  1  0
 19 20  2  0
 20 21  1  0
 21 22  1  0
 21 23  1  0
  1 24  1  0
 24 25  2  0
 25 26  1  0
 26 27  1  0
 26 28  2  0
 28 29  1  0
 29 30  1  0
 30 31  2  0
 31 32  1  0
 32 33  1  0
 28 34  1  0
 34 35  2  0
 35 36  1  0
 35 37  1  0
 37 38  1  0
 37 39  2  0
 39 40  1  0
 40 41  2  0
 41 42  1  0
 42 43  1  0
 43 44  1  0
 44 45  1  0
 42 46  2  0
 46 47  1  0
 47 48  2  0
 46 49  1  0
 39 50  1  0
 50 51  2  0
 51 52  1  0
 52 53  1  0
 53 54  2  0
 54 55  1  0
 55 56  2  0
 56 57  1  0
 57 58  1  0
 56 59  1  0
 59 60  2  0
 52 61  1  0
 61 62  2  0
 62 63  1  0
 63 64  2  0
 64 65  1  0
 65 66  1  0
 64 67  1  0
 67 68  2  0
 51 69  1  0
 69 70  1  0
 70 71  1  0
 71 72  2  0
 72 73  1  0
 73 74  1  0
 74 75  2  0
 75 76  1  0
 76 77  2  0
 77 78  1  0
 78 79  1  0
 77 80  1  0
 80 81  2  0
 73 82  1  0
 82 83  2  0
 83 84  1  0
 84 85  2  0
 85 86  1  0
 86 87  1  0
 85 88  1  0
 88 89  2  0
 72 90  1  0
 90 91  1  0
 71 92  1  0
 92 93  2  3
 93 94  1  0
 94 95  2  0
 94 96  1  0
 96 97  2  0
 97 98  1  0
 98 99  2  0
 99100  1  0
100101  2  0
101102  1  0
102103  2  3
103104  1  0
104105  3  0
103106  1  0
106107  3  0
 99108  1  0
108109  1  0
109110  1  0
110111  2  0
111112  1  0
112113  1  0
112114  1  0
 11  2  1  0
 23 17  1  0
 30 24  1  0
 48 34  1  0
 91 50  1  0
102 93  1  0
114108  1  0
 10  5  1  0
 22 18  1  0
 33 29  2  0
 48 40  1  0
 60 53  1  0
 68 61  1  0
 90 69  2  0
101 96  1  0
113109  1  0
 23  7  1  0
 81 74  1  0
 89 82  1  0
114 98  1  0
  1115  1  0
  6116  1  0
  9117  1  0
 17118  1  0
 18119  1  0
 19120  1  0
 20121  1  0
 21122  1  0
 22123  1  0
 22124  1  0
 23125  1  0
 25126  1  0
 44127  1  0
 44128  1  0
 45129  1  0
 45130  1  0
 45131  1  0
 49132  1  0
 49133  1  0
 49134  1  0
 54135  1  0
 55136  1  0
 58137  1  0
 58138  1  0
 58139  1  0
 59140  1  0
 60141  1  0
 62142  1  0
 63143  1  0
 66144  1  0
 66145  1  0
 66146  1  0
 67147  1  0
 68148  1  0
 75149  1  0
 76150  1  0
 79151  1  0
 79152  1  0
 79153  1  0
 80154  1  0
 81155  1  0
 83156  1  0
 84157  1  0
 87158  1  0
 87159  1  0
 87160  1  0
 88161  1  0
 89162  1  0
 92163  1  0
 97164  1  0
100165  1  0
108166  1  0
109167  1  0
110168  1  0
111169  1  0
112170  1  0
113171  1  0
113172  1  0
114173  1  0
M  END

