
     RDKit          3D

190209  0  0  0  0  0  0  0  0999 V2000
   -5.6482   -2.5997   -0.5689 C   0  0  0  0  0  0  0  0  0  0  0  0
   -4.5699   -3.1871   -1.1382 C   0  0  0  0  0  0  0  0  0  0  0  0
   -3.3058   -2.5014   -1.4519 C   0  0  0  0  0  0  0  0  0  0  0  0
   -3.0176   -1.3007   -1.2096 O   0  0  0  0  0  0  0  0  0  0  0  0
   -2.4453   -3.3919   -2.1798 C   0  0  0  0  0  0  0  0  0  0  0  0
   -1.1219   -3.1214   -2.5953 C   0  0  0  0  0  0  0  0  0  0  0  0
   -0.5061   -4.1810   -3.2183 C   0  0  0  0  0  0  0  0  0  0  0  0
   -1.1470   -5.4416   -3.4374 C   0  0  0  0  0  0  0  0  0  0  0  0
   -2.4460   -5.7124   -3.0309 C   0  0  0  0  0  0  0  0  0  0  0  0
   -3.1107   -4.6256   -2.3863 C   0  0  0  0  0  0  0  0  0  0  0  0
   -4.4660   -4.5598   -1.7478 C   0  0  0  0  0  0  0  0  0  0  0  0
   -5.3917   -5.5567   -1.7063 C   0  0  0  0  0  0  0  0  0  0  0  0
   -6.5521   -5.5205   -0.8541 C   0  0  0  0  0  0  0  0  0  0  0  0
   -7.4877   -5.5069   -0.1718 N   0  0  0  0  0  0  0  0  0  0  0  0
   -5.2891   -6.7393   -2.5187 C   0  0  0  0  0  0  0  0  0  0  0  0
   -5.2270   -7.6877   -3.1802 N   0  0  0  0  0  0  0  0  0  0  0  0
    0.1013   -5.9774   -4.0805 C   0  0  0  0  0  0  0  0  0  0  0  0
    0.9692   -6.9830   -3.2645 C   0  0  0  0  0  0  0  0  0  0  0  0
    0.8221   -6.7083   -1.7876 C   0  0  0  0  0  0  0  0  0  0  0  0
    1.4123   -5.5365   -1.5584 C   0  0  0  0  0  0  0  0  0  0  0  0
    1.9420   -5.0503   -2.8893 C   0  0  0  0  0  0  0  0  0  0  0  0
    2.3463   -6.3857   -3.4850 C   0  0  0  0  0  0  0  0  0  0  0  0
    0.7594   -4.6884   -3.8403 C   0  0  0  0  0  0  0  0  0  0  0  0
   -5.6408   -1.2133   -0.0813 C   0  0  0  0  0  0  0  0  0  0  0  0
   -6.1143   -0.1444   -0.8211 C   0  0  0  0  0  0  0  0  0  0  0  0
   -5.5998    1.0887   -0.3990 C   0  0  0  0  0  0  0  0  0  0  0  0
   -5.7963    2.3202   -1.1874 C   0  0  0  0  0  0  0  0  0  0  0  0
   -5.1322    2.4850   -2.4190 C   0  0  0  0  0  0  0  0  0  0  0  0
   -4.2841    1.4609   -2.8775 O   0  0  0  0  0  0  0  0  0  0  0  0
   -3.5080    1.5164   -4.0706 C   0  0  0  0  0  0  0  0  0  0  0  0
   -2.6471    0.2662   -4.1733 C   0  0  0  0  0  0  0  0  0  0  0  0
   -5.3249    3.6718   -3.1488 C   0  0  0  0  0  0  0  0  0  0  0  0
   -6.1650    4.6731   -2.6564 C   0  0  0  0  0  0  0  0  0  0  0  0
   -6.8312    4.5000   -1.4409 C   0  0  0  0  0  0  0  0  0  0  0  0
   -6.6592    3.3178   -0.7034 C   0  0  0  0  0  0  0  0  0  0  0  0
   -7.3444    3.0855    0.4982 O   0  0  0  0  0  0  0  0  0  0  0  0
   -8.4536    3.8507    0.9615 C   0  0  0  0  0  0  0  0  0  0  0  0
   -9.1161    3.1051    2.1068 C   0  0  0  0  0  0  0  0  0  0  0  0
   -4.7267    1.0120    0.6934 C   0  0  0  0  0  0  0  0  0  0  0  0
   -4.6272   -0.6144    1.1204 S   0  0  0  0  0  0  0  0  0  0  0  0
   -3.5343    1.8607    0.7631 C   0  0  0  0  0  0  0  0  0  0  0  0
   -3.0554    2.6185    1.8454 C   0  0  0  0  0  0  0  0  0  0  0  0
   -3.5579    2.4804    3.1852 N   0  0  0  0  0  0  0  0  0  0  0  0
   -4.6938    3.2642    3.6210 C   0  0  0  0  0  0  0  0  0  0  0  0
   -5.5457    2.7876    4.6366 C   0  0  0  0  0  0  0  0  0  0  0  0
   -6.5222    3.6185    5.1927 C   0  0  0  0  0  0  0  0  0  0  0  0
   -6.6976    4.9172    4.7102 C   0  0  0  0  0  0  0  0  0  0  0  0
   -7.8224    6.0416    5.5451 S   0  0  0  0  0  0  0  0  0  0  0  0
   -9.2798    5.5278    4.5942 C   0  0  0  0  0  0  0  0  0  0  0  0
   -5.9266    5.3669    3.6321 C   0  0  0  0  0  0  0  0  0  0  0  0
   -4.9301    4.5474    3.0904 C   0  0  0  0  0  0  0  0  0  0  0  0
   -2.8152    1.6359    4.1032 C   0  0  0  0  0  0  0  0  0  0  0  0
   -2.1790    0.4646    3.6432 C   0  0  0  0  0  0  0  0  0  0  0  0
   -1.4447   -0.3391    4.5171 C   0  0  0  0  0  0  0  0  0  0  0  0
   -1.3328    0.0099    5.8656 C   0  0  0  0  0  0  0  0  0  0  0  0
   -0.3914   -1.0245    6.9868 S   0  0  0  0  0  0  0  0  0  0  0  0
   -1.8308   -2.0365    7.4478 C   0  0  0  0  0  0  0  0  0  0  0  0
   -1.9373    1.1783    6.3308 C   0  0  0  0  0  0  0  0  0  0  0  0
   -2.6604    1.9948    5.4565 C   0  0  0  0  0  0  0  0  0  0  0  0
   -1.7708    3.1108    1.5703 C   0  0  0  0  0  0  0  0  0  0  0  0
   -0.5707    3.8332    2.4962 S   0  0  0  0  0  0  0  0  0  0  0  0
    0.6855    3.5536    1.3631 C   0  0  0  0  0  0  0  0  0  0  0  0
    0.1571    2.7985    0.2934 C   0  0  0  0  0  0  0  0  0  0  0  0
    0.9288    1.8116   -0.4242 N   0  0  0  0  0  0  0  0  0  0  0  0
    1.1877    0.5117    0.1833 C   0  0  0  0  0  0  0  0  0  0  0  0
    1.1882    0.3435    1.5866 C   0  0  0  0  0  0  0  0  0  0  0  0
    1.4976   -0.8901    2.1597 C   0  0  0  0  0  0  0  0  0  0  0  0
    1.8030   -1.9847    1.3472 C   0  0  0  0  0  0  0  0  0  0  0  0
    2.2633   -3.5494    2.0873 S   0  0  0  0  0  0  0  0  0  0  0  0
    4.0333   -3.1284    2.1628 C   0  0  0  0  0  0  0  0  0  0  0  0
    1.7517   -1.8510   -0.0408 C   0  0  0  0  0  0  0  0  0  0  0  0
    1.4358   -0.6220   -0.6191 C   0  0  0  0  0  0  0  0  0  0  0  0
    1.3188    2.0636   -1.7914 C   0  0  0  0  0  0  0  0  0  0  0  0
    2.6365    1.7889   -2.2036 C   0  0  0  0  0  0  0  0  0  0  0  0
    2.9980    1.9076   -3.5462 C   0  0  0  0  0  0  0  0  0  0  0  0
    2.0457    2.2933   -4.4956 C   0  0  0  0  0  0  0  0  0  0  0  0
    2.4852    2.3412   -6.2316 S   0  0  0  0  0  0  0  0  0  0  0  0
    2.0726    0.5864   -6.4980 C   0  0  0  0  0  0  0  0  0  0  0  0
    0.7441    2.6122   -4.0904 C   0  0  0  0  0  0  0  0  0  0  0  0
    0.3832    2.5044   -2.7435 C   0  0  0  0  0  0  0  0  0  0  0  0
   -1.2194    2.6668    0.4122 C   0  0  0  0  0  0  0  0  0  0  0  0
   -2.3004    1.6883   -0.3856 S   0  0  0  0  0  0  0  0  0  0  0  0
    2.1439    3.7230    1.5968 C   0  0  0  0  0  0  0  0  0  0  0  0
    2.9805    3.9300    0.4924 C   0  0  0  0  0  0  0  0  0  0  0  0
    2.4749    4.4141   -0.6714 F   0  0  0  0  0  0  0  0  0  0  0  0
    4.3315    3.5962    0.5525 C   0  0  0  0  0  0  0  0  0  0  0  0
    4.9107    3.1254    1.7446 C   0  0  0  0  0  0  0  0  0  0  0  0
    4.1292    3.1853    2.9214 C   0  0  0  0  0  0  0  0  0  0  0  0
    4.6746    2.9082    4.1361 N   0  0  0  0  0  0  0  0  0  0  0  0
    3.9392    2.9329    5.2745 C   0  0  0  0  0  0  0  0  0  0  0  0
    2.5872    3.2584    5.2103 C   0  0  0  0  0  0  0  0  0  0  0  0
    1.8451    3.3603    6.3892 O   0  0  0  0  0  0  0  0  0  0  0  0
    0.5222    3.8822    6.4182 C   0  0  0  0  0  0  0  0  0  0  0  0
    0.0152    3.8951    7.8505 C   0  0  0  0  0  0  0  0  0  0  0  0
    2.0188    3.4984    3.9978 N   0  0  0  0  0  0  0  0  0  0  0  0
    2.7455    3.4777    2.8480 C   0  0  0  0  0  0  0  0  0  0  0  0
    6.2444    2.4446    1.7782 C   0  0  0  0  0  0  0  0  0  0  0  0
    6.6365    1.6052    0.8015 C   0  0  0  0  0  0  0  0  0  0  0  0
    6.9724    2.0122   -0.5684 C   0  0  0  0  0  0  0  0  0  0  0  0
    7.0630    3.1960   -0.9906 O   0  0  0  0  0  0  0  0  0  0  0  0
    7.4495    0.8571   -1.2938 C   0  0  0  0  0  0  0  0  0  0  0  0
    7.7021    0.7752   -2.6832 C   0  0  0  0  0  0  0  0  0  0  0  0
    8.0078   -0.4996   -3.1201 C   0  0  0  0  0  0  0  0  0  0  0  0
    8.0630   -1.6318   -2.2446 C   0  0  0  0  0  0  0  0  0  0  0  0
    7.8280   -1.5548   -0.8829 C   0  0  0  0  0  0  0  0  0  0  0  0
    7.5357   -0.2455   -0.4064 C   0  0  0  0  0  0  0  0  0  0  0  0
    7.1045    0.1889    0.9531 C   0  0  0  0  0  0  0  0  0  0  0  0
    7.0513   -0.5843    2.0707 C   0  0  0  0  0  0  0  0  0  0  0  0
    6.3415   -0.1970    3.2612 C   0  0  0  0  0  0  0  0  0  0  0  0
    5.7720    0.0967    4.2242 N   0  0  0  0  0  0  0  0  0  0  0  0
    7.7125   -1.8588    2.1597 C   0  0  0  0  0  0  0  0  0  0  0  0
    8.2451   -2.8827    2.2530 N   0  0  0  0  0  0  0  0  0  0  0  0
    8.3304   -2.5395   -3.4070 C   0  0  0  0  0  0  0  0  0  0  0  0
    7.1562   -3.4365   -3.9057 C   0  0  0  0  0  0  0  0  0  0  0  0
    5.8325   -2.7458   -3.6645 C   0  0  0  0  0  0  0  0  0  0  0  0
    5.7969   -1.6973   -4.4856 C   0  0  0  0  0  0  0  0  0  0  0  0
    7.0946   -1.7065   -5.2579 C   0  0  0  0  0  0  0  0  0  0  0  0
    7.2741   -3.2076   -5.4015 C   0  0  0  0  0  0  0  0  0  0  0  0
    8.2851   -1.3814   -4.3037 C   0  0  0  0  0  0  0  0  0  0  0  0
   -6.6094   -3.0759   -0.5756 H   0  0  0  0  0  0  0  0  0  0  0  0
   -0.6236   -2.1796   -2.4183 H   0  0  0  0  0  0  0  0  0  0  0  0
   -2.8575   -6.6936   -3.1701 H   0  0  0  0  0  0  0  0  0  0  0  0
   -0.0152   -6.2228   -5.1608 H   0  0  0  0  0  0  0  0  0  0  0  0
    0.8572   -8.0487   -3.5558 H   0  0  0  0  0  0  0  0  0  0  0  0
    0.4052   -7.3690   -1.0357 H   0  0  0  0  0  0  0  0  0  0  0  0
    1.5632   -5.0911   -0.5829 H   0  0  0  0  0  0  0  0  0  0  0  0
    2.7481   -4.2902   -2.8245 H   0  0  0  0  0  0  0  0  0  0  0  0
    2.6370   -6.3226   -4.5597 H   0  0  0  0  0  0  0  0  0  0  0  0
    3.1517   -6.9032   -2.9099 H   0  0  0  0  0  0  0  0  0  0  0  0
    1.0533   -4.1537   -4.7721 H   0  0  0  0  0  0  0  0  0  0  0  0
   -6.7081   -0.2633   -1.7194 H   0  0  0  0  0  0  0  0  0  0  0  0
   -2.8491    2.4093   -4.0468 H   0  0  0  0  0  0  0  0  0  0  0  0
   -4.1811    1.5758   -4.9523 H   0  0  0  0  0  0  0  0  0  0  0  0
   -3.2903   -0.6371   -4.1795 H   0  0  0  0  0  0  0  0  0  0  0  0
   -1.9488    0.2157   -3.3133 H   0  0  0  0  0  0  0  0  0  0  0  0
   -2.0548    0.2952   -5.1100 H   0  0  0  0  0  0  0  0  0  0  0  0
   -4.8322    3.8278   -4.0992 H   0  0  0  0  0  0  0  0  0  0  0  0
   -6.3025    5.5836   -3.2230 H   0  0  0  0  0  0  0  0  0  0  0  0
   -7.4800    5.2883   -1.0836 H   0  0  0  0  0  0  0  0  0  0  0  0
   -8.1049    4.8466    1.3110 H   0  0  0  0  0  0  0  0  0  0  0  0
   -9.1960    3.9794    0.1430 H   0  0  0  0  0  0  0  0  0  0  0  0
  -10.0355    3.6346    2.4211 H   0  0  0  0  0  0  0  0  0  0  0  0
   -9.3931    2.0835    1.7784 H   0  0  0  0  0  0  0  0  0  0  0  0
   -8.4139    3.0321    2.9603 H   0  0  0  0  0  0  0  0  0  0  0  0
   -5.4163    1.7907    5.0379 H   0  0  0  0  0  0  0  0  0  0  0  0
   -7.1244    3.2618    6.0203 H   0  0  0  0  0  0  0  0  0  0  0  0
   -9.4348    4.4358    4.7048 H   0  0  0  0  0  0  0  0  0  0  0  0
  -10.1760    6.0497    4.9844 H   0  0  0  0  0  0  0  0  0  0  0  0
   -9.1406    5.7954    3.5287 H   0  0  0  0  0  0  0  0  0  0  0  0
   -6.0630    6.3691    3.2469 H   0  0  0  0  0  0  0  0  0  0  0  0
   -4.3062    4.9397    2.2974 H   0  0  0  0  0  0  0  0  0  0  0  0
   -2.2440    0.1653    2.6065 H   0  0  0  0  0  0  0  0  0  0  0  0
   -0.9717   -1.2401    4.1500 H   0  0  0  0  0  0  0  0  0  0  0  0
   -2.2092   -2.5764    6.5547 H   0  0  0  0  0  0  0  0  0  0  0  0
   -1.5230   -2.7714    8.2213 H   0  0  0  0  0  0  0  0  0  0  0  0
   -2.6353   -1.3949    7.8636 H   0  0  0  0  0  0  0  0  0  0  0  0
   -1.8400    1.4617    7.3731 H   0  0  0  0  0  0  0  0  0  0  0  0
   -3.0826    2.9148    5.8370 H   0  0  0  0  0  0  0  0  0  0  0  0
    0.9653    1.1561    2.2572 H   0  0  0  0  0  0  0  0  0  0  0  0
    1.5217   -0.9896    3.2387 H   0  0  0  0  0  0  0  0  0  0  0  0
    4.5806   -3.9598    2.6535 H   0  0  0  0  0  0  0  0  0  0  0  0
    4.1789   -2.2002    2.7532 H   0  0  0  0  0  0  0  0  0  0  0  0
    4.4316   -2.9871    1.1356 H   0  0  0  0  0  0  0  0  0  0  0  0
    1.9733   -2.6969   -0.6766 H   0  0  0  0  0  0  0  0  0  0  0  0
    1.3926   -0.5681   -1.6982 H   0  0  0  0  0  0  0  0  0  0  0  0
    3.3731    1.4550   -1.4835 H   0  0  0  0  0  0  0  0  0  0  0  0
    4.0077    1.6675   -3.8508 H   0  0  0  0  0  0  0  0  0  0  0  0
    0.9943    0.4126   -6.2949 H   0  0  0  0  0  0  0  0  0  0  0  0
    2.2858    0.3176   -7.5525 H   0  0  0  0  0  0  0  0  0  0  0  0
    2.6856   -0.0574   -5.8342 H   0  0  0  0  0  0  0  0  0  0  0  0
    0.0042    2.9139   -4.8207 H   0  0  0  0  0  0  0  0  0  0  0  0
   -0.6353    2.7254   -2.4566 H   0  0  0  0  0  0  0  0  0  0  0  0
    4.8877    3.6748   -0.3580 H   0  0  0  0  0  0  0  0  0  0  0  0
    4.4100    2.7240    6.2273 H   0  0  0  0  0  0  0  0  0  0  0  0
    0.5182    4.9180    6.0180 H   0  0  0  0  0  0  0  0  0  0  0  0
   -0.1398    3.2502    5.7916 H   0  0  0  0  0  0  0  0  0  0  0  0
   -1.0295    4.2707    7.8814 H   0  0  0  0  0  0  0  0  0  0  0  0
    0.0456    2.8687    8.2714 H   0  0  0  0  0  0  0  0  0  0  0  0
    0.6539    4.5602    8.4698 H   0  0  0  0  0  0  0  0  0  0  0  0
    6.6201    2.2369    2.7654 H   0  0  0  0  0  0  0  0  0  0  0  0
    7.6020    1.6127   -3.3588 H   0  0  0  0  0  0  0  0  0  0  0  0
    7.8025   -2.4502   -0.2881 H   0  0  0  0  0  0  0  0  0  0  0  0
    9.3222   -3.0403   -3.3713 H   0  0  0  0  0  0  0  0  0  0  0  0
    7.1990   -4.4973   -3.5796 H   0  0  0  0  0  0  0  0  0  0  0  0
    5.0286   -3.0710   -3.0105 H   0  0  0  0  0  0  0  0  0  0  0  0
    4.9597   -1.0194   -4.6147 H   0  0  0  0  0  0  0  0  0  0  0  0
    7.0806   -1.1355   -6.2094 H   0  0  0  0  0  0  0  0  0  0  0  0
    8.2676   -3.5009   -5.8183 H   0  0  0  0  0  0  0  0  0  0  0  0
    6.4623   -3.6970   -5.9880 H   0  0  0  0  0  0  0  0  0  0  0  0
    9.2542   -1.1692   -4.8112 H   0  0  0  0  0  0  0  0  0  0  0  0
  1  2  2  3
  2  3  1  0
  3  4  2  0
  3  5  1  0
  5  6  2  0
  6  7  1  0
  7  8  2  0
  8  9  1  0
  9 10  2  0
 10 11  1  0
 11 12  2  3
 12 13  1  0
 13 14  3  0
 12 15  1  0
 15 16  3  0
  8 17  1  0
 17 18  1  0
 18 19  1  0
 19 20  2  0
 20 21  1  0
 21 22  1  0
 21 23  1  0
  1 24  1  0
 24 25  2  0
 25 26  1  0
 26 27  1  0
 27 28  2  0
 28 29  1  0
 29 30  1  0
 30 31  1  0
 28 32  1  0
 32 33  2  0
 33 34  1  0
 34 35  2  0
 35 36  1  0
 36 37  1  0
 37 38  1  0
 26 39  2  0
 39 40  1  0
 39 41  1  0
 41 42  2  0
 42 43  1  0
 43 44  1  0
 44 45  2  0
 45 46  1  0
 46 47  2  0
 47 48  1  0
 48 49  1  0
 47 50  1  0
 50 51  2  0
 43 52  1  0
 52 53  2  0
 53 54  1  0
 54 55  2  0
 55 56  1  0
 56 57  1  0
 55 58  1  0
 58 59  2  0
 42 60  1  0
 60 61  1  0
 61 62  1  0
 62 63  2  0
 63 64  1  0
 64 65  1  0
 65 66  2  0
 66 67  1  0
 67 68  2  0
 68 69  1  0
 69 70  1  0
 68 71  1  0
 71 72  2  0
 64 73  1  0
 73 74  2  0
 74 75  1  0
 75 76  2  0
 76 77  1  0
 77 78  1  0
 76 79  1  0
 79 80  2  0
 63 81  1  0
 81 82  1  0
 62 83  1  0
 83 84  2  0
 84 85  1  0
 84 86  1  0
 86 87  2  0
 87 88  1  0
 88 89  2  0
 89 90  1  0
 90 91  2  0
 91 92  1  0
 92 93  1  0
 93 94  1  0
 91 95  1  0
 95 96  2  0
 87 97  1  0
 97 98  2  3
 98 99  1  0
 99100  2  0
 99101  1  0
101102  2  0
102103  1  0
103104  2  0
104105  1  0
105106  2  0
106107  1  0
107108  2  3
108109  1  0
109110  3  0
108111  1  0
111112  3  0
104113  1  0
113114  1  0
114115  1  0
115116  2  0
116117  1  0
117118  1  0
117119  1  0
 11  2  1  0
 23 17  1  0
 40 24  1  0
 82 41  1  0
 96 83  1  0
107 98  1  0
119113  1  0
 10  5  1  0
 22 18  1  0
 35 27  1  0
 51 44  1  0
 59 52  1  0
 81 60  2  0
 96 88  1  0
106101  1  0
118114  1  0
 23  7  1  0
 72 65  1  0
 80 73  1  0
119103  1  0
  1120  1  0
  6121  1  0
  9122  1  0
 17123  1  0
 18124  1  0
 19125  1  0
 20126  1  0
 21127  1  0
 22128  1  0
 22129  1  0
 23130  1  0
 25131  1  0
 30132  1  0
 30133  1  0
 31134  1  0
 31135  1  0
 31136  1  0
 32137  1  0
 33138  1  0
 34139  1  0
 37140  1  0
 37141  1  0
 38142  1  0
 38143  1  0
 38144  1  0
 45145  1  0
 46146  1  0
 49147  1  0
 49148  1  0
 49149  1  0
 50150  1  0
 51151  1  0
 53152  1  0
 54153  1  0
 57154  1  0
 57155  1  0
 57156  1  0
 58157  1  0
 59158  1  0
 66159  1  0
 67160  1  0
 70161  1  0
 70162  1  0
 70163  1  0
 71164  1  0
 72165  1  0
 74166  1  0
 75167  1  0
 78168  1  0
 78169  1  0
 78170  1  0
 79171  1  0
 80172  1  0
 86173  1  0
 90174  1  0
 93175  1  0
 93176  1  0
 94177  1  0
 94178  1  0
 94179  1  0
 97180  1  0
102181  1  0
105182  1  0
113183  1  0
114184  1  0
115185  1  0
116186  1  0
117187  1  0
118188  1  0
118189  1  0
119190  1  0
M  END

