
     RDKit          3D

214236  0  0  0  0  0  0  0  0999 V2000
   -0.5293   -5.2870   -4.1267 C   0  0  0  0  0  0  0  0  0  0  0  0
   -1.6349   -6.0169   -3.8649 C   0  0  0  0  0  0  0  0  0  0  0  0
   -2.8675   -5.5047   -3.2566 C   0  0  0  0  0  0  0  0  0  0  0  0
   -3.3496   -4.3506   -3.4194 O   0  0  0  0  0  0  0  0  0  0  0  0
   -3.4925   -6.5692   -2.5006 C   0  0  0  0  0  0  0  0  0  0  0  0
   -4.5702   -6.4511   -1.5962 C   0  0  0  0  0  0  0  0  0  0  0  0
   -4.8238   -7.6053   -0.8810 C   0  0  0  0  0  0  0  0  0  0  0  0
   -4.0519   -8.8052   -1.0287 C   0  0  0  0  0  0  0  0  0  0  0  0
   -2.9979   -8.9260   -1.9204 C   0  0  0  0  0  0  0  0  0  0  0  0
   -2.7407   -7.7606   -2.6916 C   0  0  0  0  0  0  0  0  0  0  0  0
   -1.6601   -7.5009   -3.6808 C   0  0  0  0  0  0  0  0  0  0  0  0
   -0.9539   -8.4242   -4.3814 C   0  0  0  0  0  0  0  0  0  0  0  0
   -1.0950   -9.8418   -4.1628 C   0  0  0  0  0  0  0  0  0  0  0  0
   -1.2032  -10.9834   -3.9964 N   0  0  0  0  0  0  0  0  0  0  0  0
   -0.0913   -8.0605   -5.4707 C   0  0  0  0  0  0  0  0  0  0  0  0
    0.6088   -7.7749   -6.3483 N   0  0  0  0  0  0  0  0  0  0  0  0
   -4.8303   -9.4607    0.0711 C   0  0  0  0  0  0  0  0  0  0  0  0
   -4.1124   -9.5843    1.4516 C   0  0  0  0  0  0  0  0  0  0  0  0
   -5.1987   -9.9057    2.4481 C   0  0  0  0  0  0  0  0  0  0  0  0
   -5.9378   -8.7959    2.5764 C   0  0  0  0  0  0  0  0  0  0  0  0
   -5.3206   -7.7637    1.6628 C   0  0  0  0  0  0  0  0  0  0  0  0
   -3.8554   -8.1362    1.8413 C   0  0  0  0  0  0  0  0  0  0  0  0
   -5.6321   -8.2395    0.2113 C   0  0  0  0  0  0  0  0  0  0  0  0
   -0.2688   -3.9495   -3.5505 C   0  0  0  0  0  0  0  0  0  0  0  0
    0.7512   -3.0754   -3.9829 C   0  0  0  0  0  0  0  0  0  0  0  0
    1.1447   -2.9705   -5.3607 N   0  0  0  0  0  0  0  0  0  0  0  0
    2.0665   -3.9442   -5.8852 C   0  0  0  0  0  0  0  0  0  0  0  0
    3.2555   -4.2318   -5.1983 C   0  0  0  0  0  0  0  0  0  0  0  0
    4.1407   -5.1967   -5.6890 C   0  0  0  0  0  0  0  0  0  0  0  0
    3.8351   -5.9045   -6.8618 C   0  0  0  0  0  0  0  0  0  0  0  0
    4.7947   -6.9227   -7.4006 C   0  0  0  0  0  0  0  0  0  0  0  0
    2.6551   -5.6104   -7.5565 C   0  0  0  0  0  0  0  0  0  0  0  0
    1.7679   -4.6509   -7.0643 C   0  0  0  0  0  0  0  0  0  0  0  0
    0.4092   -2.0750   -6.2374 C   0  0  0  0  0  0  0  0  0  0  0  0
   -0.9222   -1.7020   -5.9518 C   0  0  0  0  0  0  0  0  0  0  0  0
   -1.6477   -0.9113   -6.8450 C   0  0  0  0  0  0  0  0  0  0  0  0
   -1.0590   -0.4571   -8.0323 C   0  0  0  0  0  0  0  0  0  0  0  0
   -1.8645    0.3080   -9.0361 C   0  0  0  0  0  0  0  0  0  0  0  0
    0.2738   -0.7965   -8.3086 C   0  0  0  0  0  0  0  0  0  0  0  0
    1.0035   -1.5884   -7.4158 C   0  0  0  0  0  0  0  0  0  0  0  0
    1.0096   -2.0845   -3.0324 C   0  0  0  0  0  0  0  0  0  0  0  0
    2.1182   -0.8222   -2.8584 S   0  0  0  0  0  0  0  0  0  0  0  0
    1.4739   -0.3139   -1.3547 C   0  0  0  0  0  0  0  0  0  0  0  0
    0.3753   -1.1183   -1.0183 C   0  0  0  0  0  0  0  0  0  0  0  0
   -0.7284   -0.6349   -0.2320 N   0  0  0  0  0  0  0  0  0  0  0  0
   -0.7384   -0.8445    1.1903 C   0  0  0  0  0  0  0  0  0  0  0  0
   -0.5904   -2.1339    1.7140 C   0  0  0  0  0  0  0  0  0  0  0  0
   -0.8550   -2.3798    3.0645 C   0  0  0  0  0  0  0  0  0  0  0  0
   -1.2515   -1.3324    3.9094 C   0  0  0  0  0  0  0  0  0  0  0  0
   -1.7041   -1.6199    5.3099 C   0  0  0  0  0  0  0  0  0  0  0  0
   -1.3398   -0.0285    3.3981 C   0  0  0  0  0  0  0  0  0  0  0  0
   -1.0789    0.2148    2.0488 C   0  0  0  0  0  0  0  0  0  0  0  0
   -1.9377   -0.2050   -0.9151 C   0  0  0  0  0  0  0  0  0  0  0  0
   -3.2064   -0.3510   -0.3145 C   0  0  0  0  0  0  0  0  0  0  0  0
   -4.3696    0.0037   -1.0041 C   0  0  0  0  0  0  0  0  0  0  0  0
   -4.2923    0.5114   -2.3078 C   0  0  0  0  0  0  0  0  0  0  0  0
   -5.5372    0.8527   -3.0739 C   0  0  0  0  0  0  0  0  0  0  0  0
   -3.0422    0.6415   -2.9187 C   0  0  0  0  0  0  0  0  0  0  0  0
   -1.8780    0.2994   -2.2308 C   0  0  0  0  0  0  0  0  0  0  0  0
    0.2043   -2.1281   -1.9476 C   0  0  0  0  0  0  0  0  0  0  0  0
   -0.8436   -3.4195   -2.0367 S   0  0  0  0  0  0  0  0  0  0  0  0
    2.1458    0.5495   -0.3766 C   0  0  0  0  0  0  0  0  0  0  0  0
    2.1497    1.9510   -0.3781 C   0  0  0  0  0  0  0  0  0  0  0  0
    2.4493    2.7553   -1.5342 N   0  0  0  0  0  0  0  0  0  0  0  0
    3.7125    3.4632   -1.5155 C   0  0  0  0  0  0  0  0  0  0  0  0
    3.7514    4.8568   -1.6843 C   0  0  0  0  0  0  0  0  0  0  0  0
    4.9448    5.5600   -1.5004 C   0  0  0  0  0  0  0  0  0  0  0  0
    6.1121    4.8767   -1.1281 C   0  0  0  0  0  0  0  0  0  0  0  0
    7.6441    5.7816   -0.8847 S   0  0  0  0  0  0  0  0  0  0  0  0
    7.3014    6.1663    0.8623 C   0  0  0  0  0  0  0  0  0  0  0  0
    6.0840    3.4882   -0.9718 C   0  0  0  0  0  0  0  0  0  0  0  0
    4.8953    2.7823   -1.1638 C   0  0  0  0  0  0  0  0  0  0  0  0
    1.4486    3.0438   -2.5355 C   0  0  0  0  0  0  0  0  0  0  0  0
    0.0806    3.0315   -2.2108 C   0  0  0  0  0  0  0  0  0  0  0  0
   -0.8745    3.4202   -3.1593 C   0  0  0  0  0  0  0  0  0  0  0  0
   -0.4748    3.8277   -4.4359 C   0  0  0  0  0  0  0  0  0  0  0  0
   -1.6819    4.4409   -5.6123 S   0  0  0  0  0  0  0  0  0  0  0  0
   -1.8780    2.8468   -6.4670 C   0  0  0  0  0  0  0  0  0  0  0  0
    0.8825    3.8230   -4.7734 C   0  0  0  0  0  0  0  0  0  0  0  0
    1.8368    3.4243   -3.8341 C   0  0  0  0  0  0  0  0  0  0  0  0
    2.3804    2.4319    0.9082 C   0  0  0  0  0  0  0  0  0  0  0  0
    2.4478    3.9624    1.5721 S   0  0  0  0  0  0  0  0  0  0  0  0
    2.8385    3.4134    3.1394 C   0  0  0  0  0  0  0  0  0  0  0  0
    2.9562    2.0082    3.1238 C   0  0  0  0  0  0  0  0  0  0  0  0
    3.8187    1.3044    4.0275 N   0  0  0  0  0  0  0  0  0  0  0  0
    5.1962    1.1187    3.6442 C   0  0  0  0  0  0  0  0  0  0  0  0
    5.7586   -0.1685    3.6348 C   0  0  0  0  0  0  0  0  0  0  0  0
    7.0768   -0.3607    3.2101 C   0  0  0  0  0  0  0  0  0  0  0  0
    7.8487    0.7331    2.7983 C   0  0  0  0  0  0  0  0  0  0  0  0
    9.5306    0.4897    2.2358 S   0  0  0  0  0  0  0  0  0  0  0  0
    9.0496    0.2626    0.4918 C   0  0  0  0  0  0  0  0  0  0  0  0
    7.2979    2.0181    2.8177 C   0  0  0  0  0  0  0  0  0  0  0  0
    5.9785    2.2127    3.2337 C   0  0  0  0  0  0  0  0  0  0  0  0
    3.3141    0.6629    5.2077 C   0  0  0  0  0  0  0  0  0  0  0  0
    4.0253    0.7577    6.4150 C   0  0  0  0  0  0  0  0  0  0  0  0
    3.6102    0.0461    7.5399 C   0  0  0  0  0  0  0  0  0  0  0  0
    2.4861   -0.7843    7.4687 C   0  0  0  0  0  0  0  0  0  0  0  0
    1.9830   -1.7488    8.8973 S   0  0  0  0  0  0  0  0  0  0  0  0
    2.9013   -3.2280    8.3697 C   0  0  0  0  0  0  0  0  0  0  0  0
    1.7640   -0.8690    6.2699 C   0  0  0  0  0  0  0  0  0  0  0  0
    2.1697   -0.1482    5.1457 C   0  0  0  0  0  0  0  0  0  0  0  0
    2.6566    1.5084    1.8552 C   0  0  0  0  0  0  0  0  0  0  0  0
    2.5398   -0.0148    1.1889 S   0  0  0  0  0  0  0  0  0  0  0  0
    2.5816    4.2492    4.3259 C   0  0  0  0  0  0  0  0  0  0  0  0
    2.8149    5.6350    4.2548 C   0  0  0  0  0  0  0  0  0  0  0  0
    3.6592    6.1474    3.3194 F   0  0  0  0  0  0  0  0  0  0  0  0
    2.0490    6.5120    5.0231 C   0  0  0  0  0  0  0  0  0  0  0  0
    1.0563    6.0101    5.8733 C   0  0  0  0  0  0  0  0  0  0  0  0
    0.9776    4.6307    6.1063 C   0  0  0  0  0  0  0  0  0  0  0  0
    1.7352    3.7525    5.3313 C   0  0  0  0  0  0  0  0  0  0  0  0
   -0.0541    6.8891    6.2795 C   0  0  0  0  0  0  0  0  0  0  0  0
   -1.2510    6.8540    5.6492 C   0  0  0  0  0  0  0  0  0  0  0  0
   -1.5456    6.0578    4.4451 C   0  0  0  0  0  0  0  0  0  0  0  0
   -0.7980    5.1996    3.9090 O   0  0  0  0  0  0  0  0  0  0  0  0
   -2.8177    6.4612    3.9025 C   0  0  0  0  0  0  0  0  0  0  0  0
   -3.4104    5.9931    2.7084 C   0  0  0  0  0  0  0  0  0  0  0  0
   -4.6008    6.6148    2.3909 C   0  0  0  0  0  0  0  0  0  0  0  0
   -5.1747    7.6509    3.1963 C   0  0  0  0  0  0  0  0  0  0  0  0
   -4.5923    8.1171    4.3691 C   0  0  0  0  0  0  0  0  0  0  0  0
   -3.3691    7.4756    4.7251 C   0  0  0  0  0  0  0  0  0  0  0  0
   -2.4560    7.7216    5.8852 C   0  0  0  0  0  0  0  0  0  0  0  0
   -2.7274    8.4688    6.9868 C   0  0  0  0  0  0  0  0  0  0  0  0
   -3.9513    9.2123    7.1519 C   0  0  0  0  0  0  0  0  0  0  0  0
   -4.9330    9.8107    7.3027 N   0  0  0  0  0  0  0  0  0  0  0  0
   -1.8523    8.5198    8.1303 C   0  0  0  0  0  0  0  0  0  0  0  0
   -1.1583    8.5813    9.0537 N   0  0  0  0  0  0  0  0  0  0  0  0
   -6.3099    7.7991    2.2292 C   0  0  0  0  0  0  0  0  0  0  0  0
   -6.2661    9.0466    1.2958 C   0  0  0  0  0  0  0  0  0  0  0  0
   -7.2530    8.7633    0.1918 C   0  0  0  0  0  0  0  0  0  0  0  0
   -6.7203    7.7923   -0.5598 C   0  0  0  0  0  0  0  0  0  0  0  0
   -5.3895    7.4537    0.0615 C   0  0  0  0  0  0  0  0  0  0  0  0
   -4.9781    8.8476    0.5101 C   0  0  0  0  0  0  0  0  0  0  0  0
   -5.7217    6.7343    1.4042 C   0  0  0  0  0  0  0  0  0  0  0  0
    0.3439   -5.7625   -4.5396 H   0  0  0  0  0  0  0  0  0  0  0  0
   -5.1159   -5.5296   -1.4341 H   0  0  0  0  0  0  0  0  0  0  0  0
   -2.4044   -9.8206   -1.9563 H   0  0  0  0  0  0  0  0  0  0  0  0
   -5.4012  -10.3571   -0.2597 H   0  0  0  0  0  0  0  0  0  0  0  0
   -3.2336  -10.2626    1.4839 H   0  0  0  0  0  0  0  0  0  0  0  0
   -5.3086  -10.8141    3.0338 H   0  0  0  0  0  0  0  0  0  0  0  0
   -6.7549   -8.6504    3.2778 H   0  0  0  0  0  0  0  0  0  0  0  0
   -5.5807   -6.7086    1.8931 H   0  0  0  0  0  0  0  0  0  0  0  0
   -3.4973   -8.0235    2.8910 H   0  0  0  0  0  0  0  0  0  0  0  0
   -3.1567   -7.6000    1.1617 H   0  0  0  0  0  0  0  0  0  0  0  0
   -6.7079   -8.3628   -0.0338 H   0  0  0  0  0  0  0  0  0  0  0  0
    3.4991   -3.6990   -4.2882 H   0  0  0  0  0  0  0  0  0  0  0  0
    5.0596   -5.3951   -5.1524 H   0  0  0  0  0  0  0  0  0  0  0  0
    5.5122   -6.4280   -8.0875 H   0  0  0  0  0  0  0  0  0  0  0  0
    5.3566   -7.4081   -6.5763 H   0  0  0  0  0  0  0  0  0  0  0  0
    4.2508   -7.7180   -7.9556 H   0  0  0  0  0  0  0  0  0  0  0  0
    2.4115   -6.1391   -8.4702 H   0  0  0  0  0  0  0  0  0  0  0  0
    0.8400   -4.4674   -7.5918 H   0  0  0  0  0  0  0  0  0  0  0  0
   -1.4241   -2.0530   -5.0612 H   0  0  0  0  0  0  0  0  0  0  0  0
   -2.6794   -0.6662   -6.6184 H   0  0  0  0  0  0  0  0  0  0  0  0
   -1.2516    1.1168   -9.4924 H   0  0  0  0  0  0  0  0  0  0  0  0
   -2.7593    0.7718   -8.5658 H   0  0  0  0  0  0  0  0  0  0  0  0
   -2.2050   -0.3799   -9.8379 H   0  0  0  0  0  0  0  0  0  0  0  0
    0.7400   -0.4561   -9.2256 H   0  0  0  0  0  0  0  0  0  0  0  0
    2.0279   -1.8389   -7.6589 H   0  0  0  0  0  0  0  0  0  0  0  0
   -0.3424   -2.9616    1.0622 H   0  0  0  0  0  0  0  0  0  0  0  0
   -0.7952   -3.3950    3.4371 H   0  0  0  0  0  0  0  0  0  0  0  0
   -1.4230   -0.7872    5.9882 H   0  0  0  0  0  0  0  0  0  0  0  0
   -2.8081   -1.7351    5.3208 H   0  0  0  0  0  0  0  0  0  0  0  0
   -1.2449   -2.5565    5.6919 H   0  0  0  0  0  0  0  0  0  0  0  0
   -1.6532    0.7900    4.0367 H   0  0  0  0  0  0  0  0  0  0  0  0
   -1.1983    1.2167    1.6544 H   0  0  0  0  0  0  0  0  0  0  0  0
   -3.3097   -0.7721    0.6781 H   0  0  0  0  0  0  0  0  0  0  0  0
   -5.3324   -0.1300   -0.5261 H   0  0  0  0  0  0  0  0  0  0  0  0
   -5.7754    0.0267   -3.7764 H   0  0  0  0  0  0  0  0  0  0  0  0
   -5.3875    1.7904   -3.6505 H   0  0  0  0  0  0  0  0  0  0  0  0
   -6.3976    1.0029   -2.3881 H   0  0  0  0  0  0  0  0  0  0  0  0
   -2.9714    1.0102   -3.9317 H   0  0  0  0  0  0  0  0  0  0  0  0
   -0.9308    0.4182   -2.7370 H   0  0  0  0  0  0  0  0  0  0  0  0
    2.8457    5.4072   -1.9114 H   0  0  0  0  0  0  0  0  0  0  0  0
    4.9573    6.6363   -1.6152 H   0  0  0  0  0  0  0  0  0  0  0  0
    7.1952    5.2330    1.4501 H   0  0  0  0  0  0  0  0  0  0  0  0
    8.1433    6.7576    1.2725 H   0  0  0  0  0  0  0  0  0  0  0  0
    6.3727    6.7685    0.9422 H   0  0  0  0  0  0  0  0  0  0  0  0
    6.9811    2.9563   -0.6864 H   0  0  0  0  0  0  0  0  0  0  0  0
    4.8797    1.7147   -1.0067 H   0  0  0  0  0  0  0  0  0  0  0  0
   -0.2524    2.7510   -1.2192 H   0  0  0  0  0  0  0  0  0  0  0  0
   -1.9224    3.4303   -2.8881 H   0  0  0  0  0  0  0  0  0  0  0  0
   -2.4468    2.1465   -5.8257 H   0  0  0  0  0  0  0  0  0  0  0  0
   -2.4409    3.0096   -7.4078 H   0  0  0  0  0  0  0  0  0  0  0  0
   -0.8943    2.4015   -6.7170 H   0  0  0  0  0  0  0  0  0  0  0  0
    1.1981    4.1433   -5.7573 H   0  0  0  0  0  0  0  0  0  0  0  0
    2.8835    3.4404   -4.1105 H   0  0  0  0  0  0  0  0  0  0  0  0
    5.1618   -1.0253    3.9291 H   0  0  0  0  0  0  0  0  0  0  0  0
    7.4930   -1.3581    3.1900 H   0  0  0  0  0  0  0  0  0  0  0  0
    8.3841   -0.6175    0.3901 H   0  0  0  0  0  0  0  0  0  0  0  0
    9.9622    0.0998   -0.1152 H   0  0  0  0  0  0  0  0  0  0  0  0
    8.5275    1.1669    0.1186 H   0  0  0  0  0  0  0  0  0  0  0  0
    7.8907    2.8664    2.5007 H   0  0  0  0  0  0  0  0  0  0  0  0
    5.5688    3.2141    3.2412 H   0  0  0  0  0  0  0  0  0  0  0  0
    4.9136    1.3800    6.4739 H   0  0  0  0  0  0  0  0  0  0  0  0
    4.1717    0.1277    8.4637 H   0  0  0  0  0  0  0  0  0  0  0  0
    2.4942   -3.6028    7.4048 H   0  0  0  0  0  0  0  0  0  0  0  0
    3.9810   -2.9824    8.2521 H   0  0  0  0  0  0  0  0  0  0  0  0
    2.7961   -4.0219    9.1376 H   0  0  0  0  0  0  0  0  0  0  0  0
    0.9095   -1.5276    6.2076 H   0  0  0  0  0  0  0  0  0  0  0  0
    1.6215   -0.2545    4.2198 H   0  0  0  0  0  0  0  0  0  0  0  0
    2.1270    7.5793    4.8510 H   0  0  0  0  0  0  0  0  0  0  0  0
    0.2243    4.2326    6.7748 H   0  0  0  0  0  0  0  0  0  0  0  0
    1.5125    2.6970    5.3939 H   0  0  0  0  0  0  0  0  0  0  0  0
    0.1786    7.6484    7.0063 H   0  0  0  0  0  0  0  0  0  0  0  0
   -2.9622    5.2336    2.0782 H   0  0  0  0  0  0  0  0  0  0  0  0
   -5.0532    8.9283    4.9074 H   0  0  0  0  0  0  0  0  0  0  0  0
   -7.3046    7.5582    2.6647 H   0  0  0  0  0  0  0  0  0  0  0  0
   -6.3904   10.0302    1.8031 H   0  0  0  0  0  0  0  0  0  0  0  0
   -8.1734    9.2956   -0.0193 H   0  0  0  0  0  0  0  0  0  0  0  0
   -7.1294    7.4104   -1.4877 H   0  0  0  0  0  0  0  0  0  0  0  0
   -4.6706    6.9282   -0.5999 H   0  0  0  0  0  0  0  0  0  0  0  0
   -4.8636    9.5660   -0.3374 H   0  0  0  0  0  0  0  0  0  0  0  0
   -4.0550    8.8739    1.1322 H   0  0  0  0  0  0  0  0  0  0  0  0
   -6.3407    5.8122    1.3245 H   0  0  0  0  0  0  0  0  0  0  0  0
  1  2  2  3
  2  3  1  0
  3  4  2  0
  3  5  1  0
  5  6  2  0
  6  7  1  0
  7  8  2  0
  8  9  1  0
  9 10  2  0
 10 11  1  0
 11 12  2  3
 12 13  1  0
 13 14  3  0
 12 15  1  0
 15 16  3  0
  8 17  1  0
 17 18  1  0
 18 19  1  0
 19 20  2  0
 20 21  1  0
 21 22  1  0
 21 23  1  0
  1 24  1  0
 24 25  2  0
 25 26  1  0
 26 27  1  0
 27 28  2  0
 28 29  1  0
 29 30  2  0
 30 31  1  0
 30 32  1  0
 32 33  2  0
 26 34  1  0
 34 35  2  0
 35 36  1  0
 36 37  2  0
 37 38  1  0
 37 39  1  0
 39 40  2  0
 25 41  1  0
 41 42  1  0
 42 43  1  0
 43 44  2  0
 44 45  1  0
 45 46  1  0
 46 47  2  0
 47 48  1  0
 48 49  2  0
 49 50  1  0
 49 51  1  0
 51 52  2  0
 45 53  1  0
 53 54  2  0
 54 55  1  0
 55 56  2  0
 56 57  1  0
 56 58  1  0
 58 59  2  0
 44 60  1  0
 60 61  1  0
 43 62  1  0
 62 63  2  0
 63 64  1  0
 64 65  1  0
 65 66  2  0
 66 67  1  0
 67 68  2  0
 68 69  1  0
 69 70  1  0
 68 71  1  0
 71 72  2  0
 64 73  1  0
 73 74  2  0
 74 75  1  0
 75 76  2  0
 76 77  1  0
 77 78  1  0
 76 79  1  0
 79 80  2  0
 63 81  1  0
 81 82  1  0
 82 83  1  0
 83 84  2  0
 84 85  1  0
 85 86  1  0
 86 87  2  0
 87 88  1  0
 88 89  2  0
 89 90  1  0
 90 91  1  0
 89 92  1  0
 92 93  2  0
 85 94  1  0
 94 95  2  0
 95 96  1  0
 96 97  2  0
 97 98  1  0
 98 99  1  0
 97100  1  0
100101  2  0
 84102  1  0
102103  1  0
 83104  1  0
104105  2  0
105106  1  0
105107  1  0
107108  2  0
108109  1  0
109110  2  0
108111  1  0
111112  2  3
112113  1  0
113114  2  0
113115  1  0
115116  2  0
116117  1  0
117118  2  0
118119  1  0
119120  2  0
120121  1  0
121122  2  3
122123  1  0
123124  3  0
122125  1  0
125126  3  0
118127  1  0
127128  1  0
128129  1  0
129130  2  0
130131  1  0
131132  1  0
131133  1  0
 11  2  1  0
 23 17  1  0
 61 24  1  0
103 62  1  0
110104  1  0
121112  1  0
133127  1  0
 10  5  1  0
 22 18  1  0
 33 27  1  0
 40 34  1  0
 60 41  2  0
 72 65  1  0
 80 73  1  0
102 81  2  0
120115  1  0
132128  1  0
 23  7  1  0
 52 46  1  0
 59 53  1  0
 93 86  1  0
101 94  1  0
133117  1  0
  1134  1  0
  6135  1  0
  9136  1  0
 17137  1  0
 18138  1  0
 19139  1  0
 20140  1  0
 21141  1  0
 22142  1  0
 22143  1  0
 23144  1  0
 28145  1  0
 29146  1  0
 31147  1  0
 31148  1  0
 31149  1  0
 32150  1  0
 33151  1  0
 35152  1  0
 36153  1  0
 38154  1  0
 38155  1  0
 38156  1  0
 39157  1  0
 40158  1  0
 47159  1  0
 48160  1  0
 50161  1  0
 50162  1  0
 50163  1  0
 51164  1  0
 52165  1  0
 54166  1  0
 55167  1  0
 57168  1  0
 57169  1  0
 57170  1  0
 58171  1  0
 59172  1  0
 66173  1  0
 67174  1  0
 70175  1  0
 70176  1  0
 70177  1  0
 71178  1  0
 72179  1  0
 74180  1  0
 75181  1  0
 78182  1  0
 78183  1  0
 78184  1  0
 79185  1  0
 80186  1  0
 87187  1  0
 88188  1  0
 91189  1  0
 91190  1  0
 91191  1  0
 92192  1  0
 93193  1  0
 95194  1  0
 96195  1  0
 99196  1  0
 99197  1  0
 99198  1  0
100199  1  0
101200  1  0
107201  1  0
109202  1  0
110203  1  0
111204  1  0
116205  1  0
119206  1  0
127207  1  0
128208  1  0
129209  1  0
130210  1  0
131211  1  0
132212  1  0
132213  1  0
133214  1  0
M  END

