
     RDKit          3D

256279  0  0  0  0  0  0  0  0999 V2000
    6.6396    2.2025    0.6474 C   0  0  0  0  0  0  0  0  0  0  0  0
    6.4942    2.0329   -0.6868 C   0  0  0  0  0  0  0  0  0  0  0  0
    5.2452    1.6066   -1.3314 C   0  0  0  0  0  0  0  0  0  0  0  0
    4.2667    1.0400   -0.7762 O   0  0  0  0  0  0  0  0  0  0  0  0
    5.3003    1.9284   -2.7324 C   0  0  0  0  0  0  0  0  0  0  0  0
    4.2656    1.7453   -3.6769 C   0  0  0  0  0  0  0  0  0  0  0  0
    4.6012    2.1418   -4.9557 C   0  0  0  0  0  0  0  0  0  0  0  0
    5.8785    2.6855   -5.2969 C   0  0  0  0  0  0  0  0  0  0  0  0
    6.9013    2.8547   -4.3736 C   0  0  0  0  0  0  0  0  0  0  0  0
    6.5746    2.4674   -3.0399 C   0  0  0  0  0  0  0  0  0  0  0  0
    7.3961    2.5222   -1.7851 C   0  0  0  0  0  0  0  0  0  0  0  0
    8.6934    2.9186   -1.6730 C   0  0  0  0  0  0  0  0  0  0  0  0
    9.4519    2.7773   -0.4603 C   0  0  0  0  0  0  0  0  0  0  0  0
   10.0682    2.6749    0.5135 N   0  0  0  0  0  0  0  0  0  0  0  0
    9.4136    3.5517   -2.7434 C   0  0  0  0  0  0  0  0  0  0  0  0
   10.0070    4.0776   -3.5891 N   0  0  0  0  0  0  0  0  0  0  0  0
    5.4525    2.8285   -6.7317 C   0  0  0  0  0  0  0  0  0  0  0  0
    6.0102    1.8035   -7.7694 C   0  0  0  0  0  0  0  0  0  0  0  0
    6.2753    0.4775   -7.1011 C   0  0  0  0  0  0  0  0  0  0  0  0
    5.0869   -0.0276   -6.7694 C   0  0  0  0  0  0  0  0  0  0  0  0
    4.0523    0.9706   -7.2345 C   0  0  0  0  0  0  0  0  0  0  0  0
    4.7301    1.4479   -8.5043 C   0  0  0  0  0  0  0  0  0  0  0  0
    4.1434    2.2696   -6.3745 C   0  0  0  0  0  0  0  0  0  0  0  0
    5.5124    2.0349    1.5719 C   0  0  0  0  0  0  0  0  0  0  0  0
    4.4270    2.9283    1.7102 C   0  0  0  0  0  0  0  0  0  0  0  0
    4.4574    4.3563    1.4426 N   0  0  0  0  0  0  0  0  0  0  0  0
    3.6116    5.2386    2.2043 C   0  0  0  0  0  0  0  0  0  0  0  0
    3.5416    5.1265    3.6013 C   0  0  0  0  0  0  0  0  0  0  0  0
    2.6248    5.8907    4.3276 C   0  0  0  0  0  0  0  0  0  0  0  0
    1.8010    6.8164    3.6725 C   0  0  0  0  0  0  0  0  0  0  0  0
    0.7447    7.5498    4.4429 C   0  0  0  0  0  0  0  0  0  0  0  0
    1.9187    6.9800    2.2825 C   0  0  0  0  0  0  0  0  0  0  0  0
    2.8210    6.1967    1.5514 C   0  0  0  0  0  0  0  0  0  0  0  0
    5.5034    4.9623    0.6693 C   0  0  0  0  0  0  0  0  0  0  0  0
    6.6739    5.4057    1.2990 C   0  0  0  0  0  0  0  0  0  0  0  0
    7.6965    5.9905    0.5464 C   0  0  0  0  0  0  0  0  0  0  0  0
    7.5458    6.1658   -0.8393 C   0  0  0  0  0  0  0  0  0  0  0  0
    8.6327    6.8277   -1.6332 C   0  0  0  0  0  0  0  0  0  0  0  0
    6.3570    5.7506   -1.4595 C   0  0  0  0  0  0  0  0  0  0  0  0
    5.3460    5.1466   -0.7076 C   0  0  0  0  0  0  0  0  0  0  0  0
    3.3359    2.2609    2.2753 C   0  0  0  0  0  0  0  0  0  0  0  0
    1.7362    2.6383    2.5247 S   0  0  0  0  0  0  0  0  0  0  0  0
    1.2936    1.1592    3.2298 C   0  0  0  0  0  0  0  0  0  0  0  0
    2.4487    0.3374    3.2586 C   0  0  0  0  0  0  0  0  0  0  0  0
    2.6420   -0.7491    4.1821 N   0  0  0  0  0  0  0  0  0  0  0  0
    2.2294   -2.0908    3.8608 C   0  0  0  0  0  0  0  0  0  0  0  0
    1.8088   -2.9492    4.8915 C   0  0  0  0  0  0  0  0  0  0  0  0
    1.6256   -4.3107    4.6498 C   0  0  0  0  0  0  0  0  0  0  0  0
    1.8507   -4.8382    3.3727 C   0  0  0  0  0  0  0  0  0  0  0  0
    1.8125   -6.3216    3.1695 C   0  0  0  0  0  0  0  0  0  0  0  0
    2.2103   -3.9742    2.3244 C   0  0  0  0  0  0  0  0  0  0  0  0
    2.3919   -2.6072    2.5624 C   0  0  0  0  0  0  0  0  0  0  0  0
    3.6210   -0.5508    5.2298 C   0  0  0  0  0  0  0  0  0  0  0  0
    4.6614   -1.4775    5.4213 C   0  0  0  0  0  0  0  0  0  0  0  0
    5.7058   -1.2023    6.3042 C   0  0  0  0  0  0  0  0  0  0  0  0
    5.7274    0.0022    7.0204 C   0  0  0  0  0  0  0  0  0  0  0  0
    6.9022    0.3362    7.8880 C   0  0  0  0  0  0  0  0  0  0  0  0
    4.6862    0.9285    6.8427 C   0  0  0  0  0  0  0  0  0  0  0  0
    3.6389    0.6512    5.9620 C   0  0  0  0  0  0  0  0  0  0  0  0
    3.5442    0.9856    2.6735 C   0  0  0  0  0  0  0  0  0  0  0  0
    5.1089    0.5283    2.2677 S   0  0  0  0  0  0  0  0  0  0  0  0
   -0.1243    0.7661    3.4068 C   0  0  0  0  0  0  0  0  0  0  0  0
   -1.2234    1.6461    3.1880 C   0  0  0  0  0  0  0  0  0  0  0  0
   -1.2691    3.0437    3.5915 N   0  0  0  0  0  0  0  0  0  0  0  0
   -1.1433    3.3877    4.9959 C   0  0  0  0  0  0  0  0  0  0  0  0
   -2.1855    4.0610    5.6719 C   0  0  0  0  0  0  0  0  0  0  0  0
   -2.0806    4.3708    7.0325 C   0  0  0  0  0  0  0  0  0  0  0  0
   -0.9425    4.0058    7.7518 C   0  0  0  0  0  0  0  0  0  0  0  0
   -0.8212    4.3750    9.4973 S   0  0  0  0  0  0  0  0  0  0  0  0
   -1.6297    2.8250   10.0177 C   0  0  0  0  0  0  0  0  0  0  0  0
    0.1129    3.3655    7.0937 C   0  0  0  0  0  0  0  0  0  0  0  0
    0.0155    3.0651    5.7280 C   0  0  0  0  0  0  0  0  0  0  0  0
   -1.7449    4.0532    2.6773 C   0  0  0  0  0  0  0  0  0  0  0  0
   -3.1210    4.3116    2.5339 C   0  0  0  0  0  0  0  0  0  0  0  0
   -3.5720    5.2893    1.6414 C   0  0  0  0  0  0  0  0  0  0  0  0
   -2.6528    6.0389    0.8984 C   0  0  0  0  0  0  0  0  0  0  0  0
   -3.2180    7.2726   -0.2749 S   0  0  0  0  0  0  0  0  0  0  0  0
   -3.1651    8.6346    0.9302 C   0  0  0  0  0  0  0  0  0  0  0  0
   -1.2811    5.8146    1.0672 C   0  0  0  0  0  0  0  0  0  0  0  0
   -0.8332    4.8525    1.9709 C   0  0  0  0  0  0  0  0  0  0  0  0
   -2.3088    0.9553    2.6172 C   0  0  0  0  0  0  0  0  0  0  0  0
   -3.4686    1.4053    1.4944 S   0  0  0  0  0  0  0  0  0  0  0  0
   -3.8091   -0.1447    0.8775 C   0  0  0  0  0  0  0  0  0  0  0  0
   -3.0140   -1.0408    1.6146 C   0  0  0  0  0  0  0  0  0  0  0  0
   -3.2641   -2.4578    1.6747 N   0  0  0  0  0  0  0  0  0  0  0  0
   -2.2364   -3.3684    1.2180 C   0  0  0  0  0  0  0  0  0  0  0  0
   -1.9233   -4.5200    1.9603 C   0  0  0  0  0  0  0  0  0  0  0  0
   -1.0704   -5.4901    1.4338 C   0  0  0  0  0  0  0  0  0  0  0  0
   -0.4804   -5.3029    0.1824 C   0  0  0  0  0  0  0  0  0  0  0  0
    0.5468   -6.5982   -0.5177 S   0  0  0  0  0  0  0  0  0  0  0  0
   -0.8524   -7.5165   -1.2412 C   0  0  0  0  0  0  0  0  0  0  0  0
   -0.6925   -4.1058   -0.5167 C   0  0  0  0  0  0  0  0  0  0  0  0
   -1.5594   -3.1390    0.0038 C   0  0  0  0  0  0  0  0  0  0  0  0
   -4.4123   -2.9348    2.4329 C   0  0  0  0  0  0  0  0  0  0  0  0
   -4.9643   -2.1581    3.4765 C   0  0  0  0  0  0  0  0  0  0  0  0
   -5.9935   -2.6658    4.2767 C   0  0  0  0  0  0  0  0  0  0  0  0
   -6.5051   -3.9442    4.0422 C   0  0  0  0  0  0  0  0  0  0  0  0
   -7.7203   -4.6530    5.1563 S   0  0  0  0  0  0  0  0  0  0  0  0
   -9.1446   -3.9405    4.2843 C   0  0  0  0  0  0  0  0  0  0  0  0
   -6.0082   -4.7040    2.9788 C   0  0  0  0  0  0  0  0  0  0  0  0
   -4.9768   -4.2003    2.1753 C   0  0  0  0  0  0  0  0  0  0  0  0
   -2.1655   -0.3941    2.5198 C   0  0  0  0  0  0  0  0  0  0  0  0
   -0.6356   -0.8163    3.0359 S   0  0  0  0  0  0  0  0  0  0  0  0
   -3.9444   -0.3187   -0.5859 C   0  0  0  0  0  0  0  0  0  0  0  0
   -4.4500   -1.4543   -1.2705 C   0  0  0  0  0  0  0  0  0  0  0  0
   -5.6047   -2.2150   -0.8328 N   0  0  0  0  0  0  0  0  0  0  0  0
   -5.8445   -3.5273   -1.3812 C   0  0  0  0  0  0  0  0  0  0  0  0
   -4.8593   -4.5266   -1.3251 C   0  0  0  0  0  0  0  0  0  0  0  0
   -5.0526   -5.7565   -1.9558 C   0  0  0  0  0  0  0  0  0  0  0  0
   -6.2393   -6.0068   -2.6655 C   0  0  0  0  0  0  0  0  0  0  0  0
   -6.4223   -7.2877   -3.4217 C   0  0  0  0  0  0  0  0  0  0  0  0
   -7.2248   -5.0153   -2.7272 C   0  0  0  0  0  0  0  0  0  0  0  0
   -7.0346   -3.7903   -2.0860 C   0  0  0  0  0  0  0  0  0  0  0  0
   -6.6932   -1.5323   -0.1546 C   0  0  0  0  0  0  0  0  0  0  0  0
   -7.0142   -0.1951   -0.4650 C   0  0  0  0  0  0  0  0  0  0  0  0
   -8.0805    0.4492    0.1667 C   0  0  0  0  0  0  0  0  0  0  0  0
   -8.8738   -0.2405    1.0880 C   0  0  0  0  0  0  0  0  0  0  0  0
  -10.0608    0.4260    1.7165 C   0  0  0  0  0  0  0  0  0  0  0  0
   -8.6049   -1.5874    1.3581 C   0  0  0  0  0  0  0  0  0  0  0  0
   -7.5218   -2.2273    0.7471 C   0  0  0  0  0  0  0  0  0  0  0  0
   -3.8708   -1.5531   -2.5490 C   0  0  0  0  0  0  0  0  0  0  0  0
   -3.7265   -2.7694   -3.7022 S   0  0  0  0  0  0  0  0  0  0  0  0
   -2.5868   -1.9771   -4.6894 C   0  0  0  0  0  0  0  0  0  0  0  0
   -2.3136   -0.7231   -4.0996 C   0  0  0  0  0  0  0  0  0  0  0  0
   -1.3702    0.2375   -4.6285 N   0  0  0  0  0  0  0  0  0  0  0  0
   -0.5815    1.0432   -3.7331 C   0  0  0  0  0  0  0  0  0  0  0  0
   -0.6038    2.4431   -3.8500 C   0  0  0  0  0  0  0  0  0  0  0  0
    0.1220    3.2345   -2.9635 C   0  0  0  0  0  0  0  0  0  0  0  0
    0.8861    2.6409   -1.9497 C   0  0  0  0  0  0  0  0  0  0  0  0
    1.7213    3.5094   -1.0703 C   0  0  0  0  0  0  0  0  0  0  0  0
    0.9089    1.2417   -1.8258 C   0  0  0  0  0  0  0  0  0  0  0  0
    0.1818    0.4479   -2.7153 C   0  0  0  0  0  0  0  0  0  0  0  0
   -1.2938    0.4873   -6.0518 C   0  0  0  0  0  0  0  0  0  0  0  0
   -2.4528    0.4675   -6.8482 C   0  0  0  0  0  0  0  0  0  0  0  0
   -2.3699    0.6902   -8.2239 C   0  0  0  0  0  0  0  0  0  0  0  0
   -1.1281    0.9377   -8.8261 C   0  0  0  0  0  0  0  0  0  0  0  0
   -1.0459    1.1930  -10.3026 C   0  0  0  0  0  0  0  0  0  0  0  0
    0.0274    0.9868   -8.0326 C   0  0  0  0  0  0  0  0  0  0  0  0
   -0.0535    0.7609   -6.6576 C   0  0  0  0  0  0  0  0  0  0  0  0
   -3.0318   -0.5481   -2.9048 C   0  0  0  0  0  0  0  0  0  0  0  0
   -2.9115    0.5282   -1.6335 S   0  0  0  0  0  0  0  0  0  0  0  0
   -1.6664   -2.6209   -5.6623 C   0  0  0  0  0  0  0  0  0  0  0  0
   -1.7944   -3.7914   -6.3047 C   0  0  0  0  0  0  0  0  0  0  0  0
   -0.5032   -4.4925   -7.1071 S   0  0  0  0  0  0  0  0  0  0  0  0
   -1.3064   -5.9044   -7.5524 C   0  0  0  0  0  0  0  0  0  0  0  0
   -0.6806   -6.9183   -8.2038 C   0  0  0  0  0  0  0  0  0  0  0  0
    0.7027   -6.7813   -8.6006 C   0  0  0  0  0  0  0  0  0  0  0  0
    1.8082   -6.6662   -8.9232 N   0  0  0  0  0  0  0  0  0  0  0  0
   -1.2769   -8.1990   -8.4939 C   0  0  0  0  0  0  0  0  0  0  0  0
   -1.7349   -9.2359   -8.7295 N   0  0  0  0  0  0  0  0  0  0  0  0
   -2.6150   -5.8320   -7.1326 N   0  0  0  0  0  0  0  0  0  0  0  0
   -3.6728   -6.8402   -7.3269 C   0  0  0  0  0  0  0  0  0  0  0  0
   -3.6676   -7.8556   -6.1846 C   0  0  0  0  0  0  0  0  0  0  0  0
   -2.8772   -4.6654   -6.4525 C   0  0  0  0  0  0  0  0  0  0  0  0
   -4.0326   -4.3981   -6.0281 O   0  0  0  0  0  0  0  0  0  0  0  0
    7.5135    2.6515    1.0808 H   0  0  0  0  0  0  0  0  0  0  0  0
    3.3011    1.3272   -3.4262 H   0  0  0  0  0  0  0  0  0  0  0  0
    7.8471    3.2532   -4.6917 H   0  0  0  0  0  0  0  0  0  0  0  0
    5.4058    3.8827   -7.0860 H   0  0  0  0  0  0  0  0  0  0  0  0
    6.8313    2.1855   -8.4097 H   0  0  0  0  0  0  0  0  0  0  0  0
    7.2347   -0.0140   -6.9727 H   0  0  0  0  0  0  0  0  0  0  0  0
    4.9065   -1.0005   -6.3227 H   0  0  0  0  0  0  0  0  0  0  0  0
    3.0332    0.5555   -7.3633 H   0  0  0  0  0  0  0  0  0  0  0  0
    4.2216    2.3198   -8.9710 H   0  0  0  0  0  0  0  0  0  0  0  0
    4.8625    0.6464   -9.2656 H   0  0  0  0  0  0  0  0  0  0  0  0
    3.2992    2.9818   -6.5111 H   0  0  0  0  0  0  0  0  0  0  0  0
    4.1600    4.4078    4.1241 H   0  0  0  0  0  0  0  0  0  0  0  0
    2.5385    5.7404    5.3953 H   0  0  0  0  0  0  0  0  0  0  0  0
    0.3965    8.4471    3.8909 H   0  0  0  0  0  0  0  0  0  0  0  0
   -0.1195    6.8723    4.6123 H   0  0  0  0  0  0  0  0  0  0  0  0
    1.1405    7.8762    5.4271 H   0  0  0  0  0  0  0  0  0  0  0  0
    1.2828    7.6889    1.7562 H   0  0  0  0  0  0  0  0  0  0  0  0
    2.8627    6.3046    0.4752 H   0  0  0  0  0  0  0  0  0  0  0  0
    6.8010    5.2740    2.3654 H   0  0  0  0  0  0  0  0  0  0  0  0
    8.6086    6.3038    1.0411 H   0  0  0  0  0  0  0  0  0  0  0  0
    9.6100    6.3551   -1.4034 H   0  0  0  0  0  0  0  0  0  0  0  0
    8.4527    6.7332   -2.7246 H   0  0  0  0  0  0  0  0  0  0  0  0
    8.6726    7.9036   -1.3615 H   0  0  0  0  0  0  0  0  0  0  0  0
    6.2172    5.8857   -2.5257 H   0  0  0  0  0  0  0  0  0  0  0  0
    4.4547    4.8107   -1.2055 H   0  0  0  0  0  0  0  0  0  0  0  0
    1.6675   -2.5644    5.8971 H   0  0  0  0  0  0  0  0  0  0  0  0
    1.3517   -4.9604    5.4702 H   0  0  0  0  0  0  0  0  0  0  0  0
    0.8964   -6.7509    3.6342 H   0  0  0  0  0  0  0  0  0  0  0  0
    1.8137   -6.5846    2.0915 H   0  0  0  0  0  0  0  0  0  0  0  0
    2.7049   -6.7833    3.6408 H   0  0  0  0  0  0  0  0  0  0  0  0
    2.4006   -4.3658    1.3329 H   0  0  0  0  0  0  0  0  0  0  0  0
    2.7242   -1.9663    1.7557 H   0  0  0  0  0  0  0  0  0  0  0  0
    4.6957   -2.3919    4.8444 H   0  0  0  0  0  0  0  0  0  0  0  0
    6.5183   -1.9137    6.3988 H   0  0  0  0  0  0  0  0  0  0  0  0
    7.6840    0.8222    7.2725 H   0  0  0  0  0  0  0  0  0  0  0  0
    6.6004    1.0183    8.7096 H   0  0  0  0  0  0  0  0  0  0  0  0
    7.3251   -0.5845    8.3454 H   0  0  0  0  0  0  0  0  0  0  0  0
    4.7032    1.8794    7.3654 H   0  0  0  0  0  0  0  0  0  0  0  0
    2.8644    1.3907    5.8197 H   0  0  0  0  0  0  0  0  0  0  0  0
   -3.0992    4.3184    5.1683 H   0  0  0  0  0  0  0  0  0  0  0  0
   -2.9043    4.8582    7.5352 H   0  0  0  0  0  0  0  0  0  0  0  0
   -1.5218    2.7165   11.1159 H   0  0  0  0  0  0  0  0  0  0  0  0
   -1.1556    1.9519    9.5222 H   0  0  0  0  0  0  0  0  0  0  0  0
   -2.7113    2.8602    9.7735 H   0  0  0  0  0  0  0  0  0  0  0  0
    1.0061    3.0878    7.6407 H   0  0  0  0  0  0  0  0  0  0  0  0
    0.8589    2.5908    5.2676 H   0  0  0  0  0  0  0  0  0  0  0  0
   -3.8470    3.7365    3.0973 H   0  0  0  0  0  0  0  0  0  0  0  0
   -4.6332    5.4660    1.5301 H   0  0  0  0  0  0  0  0  0  0  0  0
   -2.2251    8.6072    1.5160 H   0  0  0  0  0  0  0  0  0  0  0  0
   -3.2074    9.5965    0.3838 H   0  0  0  0  0  0  0  0  0  0  0  0
   -4.0384    8.5687    1.6124 H   0  0  0  0  0  0  0  0  0  0  0  0
   -0.5600    6.3957    0.5086 H   0  0  0  0  0  0  0  0  0  0  0  0
    0.2214    4.7435    2.1242 H   0  0  0  0  0  0  0  0  0  0  0  0
   -2.3755   -4.6893    2.9278 H   0  0  0  0  0  0  0  0  0  0  0  0
   -0.8982   -6.4029    1.9848 H   0  0  0  0  0  0  0  0  0  0  0  0
   -1.6989   -7.5926   -0.5292 H   0  0  0  0  0  0  0  0  0  0  0  0
   -0.5148   -8.5382   -1.4938 H   0  0  0  0  0  0  0  0  0  0  0  0
   -1.1849   -7.0104   -2.1680 H   0  0  0  0  0  0  0  0  0  0  0  0
   -0.2024   -3.9354   -1.4642 H   0  0  0  0  0  0  0  0  0  0  0  0
   -1.7379   -2.2342   -0.5592 H   0  0  0  0  0  0  0  0  0  0  0  0
   -4.5680   -1.1807    3.7135 H   0  0  0  0  0  0  0  0  0  0  0  0
   -6.3740   -2.0714    5.0928 H   0  0  0  0  0  0  0  0  0  0  0  0
   -9.1178   -4.2223    3.2136 H   0  0  0  0  0  0  0  0  0  0  0  0
   -9.1303   -2.8383    4.3955 H   0  0  0  0  0  0  0  0  0  0  0  0
  -10.0795   -4.3302    4.7332 H   0  0  0  0  0  0  0  0  0  0  0  0
   -6.4062   -5.6922    2.7836 H   0  0  0  0  0  0  0  0  0  0  0  0
   -4.6026   -4.8267    1.3800 H   0  0  0  0  0  0  0  0  0  0  0  0
   -3.9162   -4.3282   -0.8411 H   0  0  0  0  0  0  0  0  0  0  0  0
   -4.2577   -6.4924   -1.9395 H   0  0  0  0  0  0  0  0  0  0  0  0
   -7.4543   -7.6747   -3.2794 H   0  0  0  0  0  0  0  0  0  0  0  0
   -6.2621   -7.0986   -4.5027 H   0  0  0  0  0  0  0  0  0  0  0  0
   -5.7030   -8.0615   -3.0810 H   0  0  0  0  0  0  0  0  0  0  0  0
   -8.1332   -5.1791   -3.2964 H   0  0  0  0  0  0  0  0  0  0  0  0
   -7.8010   -3.0288   -2.1693 H   0  0  0  0  0  0  0  0  0  0  0  0
   -6.4596    0.3518   -1.2174 H   0  0  0  0  0  0  0  0  0  0  0  0
   -8.2989    1.4807   -0.0889 H   0  0  0  0  0  0  0  0  0  0  0  0
  -10.1628    0.1165    2.7780 H   0  0  0  0  0  0  0  0  0  0  0  0
   -9.9547    1.5332    1.6883 H   0  0  0  0  0  0  0  0  0  0  0  0
  -10.9857    0.1429    1.1672 H   0  0  0  0  0  0  0  0  0  0  0  0
   -9.2417   -2.1434    2.0249 H   0  0  0  0  0  0  0  0  0  0  0  0
   -7.3442   -3.2725    0.9571 H   0  0  0  0  0  0  0  0  0  0  0  0
   -1.2038    2.9179   -4.6187 H   0  0  0  0  0  0  0  0  0  0  0  0
    0.0913    4.3135   -3.0682 H   0  0  0  0  0  0  0  0  0  0  0  0
    1.0769    4.2451   -0.5421 H   0  0  0  0  0  0  0  0  0  0  0  0
    2.4492    4.0512   -1.7095 H   0  0  0  0  0  0  0  0  0  0  0  0
    2.2845    2.9152   -0.3214 H   0  0  0  0  0  0  0  0  0  0  0  0
    1.4894    0.7691   -1.0442 H   0  0  0  0  0  0  0  0  0  0  0  0
    0.1965   -0.6275   -2.6056 H   0  0  0  0  0  0  0  0  0  0  0  0
   -3.4208    0.2815   -6.4024 H   0  0  0  0  0  0  0  0  0  0  0  0
   -3.2726    0.6783   -8.8203 H   0  0  0  0  0  0  0  0  0  0  0  0
   -1.8244    0.6179  -10.8446 H   0  0  0  0  0  0  0  0  0  0  0  0
   -1.2018    2.2734  -10.5029 H   0  0  0  0  0  0  0  0  0  0  0  0
   -0.0563    0.8834  -10.6963 H   0  0  0  0  0  0  0  0  0  0  0  0
    0.9909    1.1990   -8.4784 H   0  0  0  0  0  0  0  0  0  0  0  0
    0.8518    0.7834   -6.0644 H   0  0  0  0  0  0  0  0  0  0  0  0
   -0.7083   -2.1301   -5.7717 H   0  0  0  0  0  0  0  0  0  0  0  0
   -4.6747   -6.3507   -7.3495 H   0  0  0  0  0  0  0  0  0  0  0  0
   -3.5960   -7.3373   -8.3106 H   0  0  0  0  0  0  0  0  0  0  0  0
   -3.7739   -7.3220   -5.2123 H   0  0  0  0  0  0  0  0  0  0  0  0
   -4.5320   -8.5422   -6.3015 H   0  0  0  0  0  0  0  0  0  0  0  0
   -2.7251   -8.4370   -6.1783 H   0  0  0  0  0  0  0  0  0  0  0  0
  1  2  2  3
  2  3  1  0
  3  4  2  0
  3  5  1  0
  5  6  2  0
  6  7  1  0
  7  8  2  0
  8  9  1  0
  9 10  2  0
 10 11  1  0
 11 12  2  3
 12 13  1  0
 13 14  3  0
 12 15  1  0
 15 16  3  0
  8 17  1  0
 17 18  1  0
 18 19  1  0
 19 20  2  0
 20 21  1  0
 21 22  1  0
 21 23  1  0
  1 24  1  0
 24 25  2  0
 25 26  1  0
 26 27  1  0
 27 28  2  0
 28 29  1  0
 29 30  2  0
 30 31  1  0
 30 32  1  0
 32 33  2  0
 26 34  1  0
 34 35  2  0
 35 36  1  0
 36 37  2  0
 37 38  1  0
 37 39  1  0
 39 40  2  0
 25 41  1  0
 41 42  1  0
 42 43  1  0
 43 44  2  0
 44 45  1  0
 45 46  1  0
 46 47  2  0
 47 48  1  0
 48 49  2  0
 49 50  1  0
 49 51  1  0
 51 52  2  0
 45 53  1  0
 53 54  2  0
 54 55  1  0
 55 56  2  0
 56 57  1  0
 56 58  1  0
 58 59  2  0
 44 60  1  0
 60 61  1  0
 43 62  1  0
 62 63  2  0
 63 64  1  0
 64 65  1  0
 65 66  2  0
 66 67  1  0
 67 68  2  0
 68 69  1  0
 69 70  1  0
 68 71  1  0
 71 72  2  0
 64 73  1  0
 73 74  2  0
 74 75  1  0
 75 76  2  0
 76 77  1  0
 77 78  1  0
 76 79  1  0
 79 80  2  0
 63 81  1  0
 81 82  1  0
 82 83  1  0
 83 84  2  0
 84 85  1  0
 85 86  1  0
 86 87  2  0
 87 88  1  0
 88 89  2  0
 89 90  1  0
 90 91  1  0
 89 92  1  0
 92 93  2  0
 85 94  1  0
 94 95  2  0
 95 96  1  0
 96 97  2  0
 97 98  1  0
 98 99  1  0
 97100  1  0
100101  2  0
 84102  1  0
102103  1  0
 83104  1  0
104105  2  0
105106  1  0
106107  1  0
107108  2  0
108109  1  0
109110  2  0
110111  1  0
110112  1  0
112113  2  0
106114  1  0
114115  2  0
115116  1  0
116117  2  0
117118  1  0
117119  1  0
119120  2  0
105121  1  0
121122  1  0
122123  1  0
123124  2  0
124125  1  0
125126  1  0
126127  2  0
127128  1  0
128129  2  0
129130  1  0
129131  1  0
131132  2  0
125133  1  0
133134  2  0
134135  1  0
135136  2  0
136137  1  0
136138  1  0
138139  2  0
124140  1  0
140141  1  0
123142  1  0
142143  2  3
143144  1  0
144145  1  0
145146  2  3
146147  1  0
147148  3  0
146149  1  0
149150  3  0
145151  1  0
151152  1  0
152153  1  0
151154  1  0
154155  2  0
 11  2  1  0
 23 17  1  0
 61 24  1  0
103 62  1  0
141104  1  0
154143  1  0
 10  5  1  0
 22 18  1  0
 33 27  1  0
 40 34  1  0
 60 41  2  0
 72 65  1  0
 80 73  1  0
102 81  2  0
113107  1  0
120114  1  0
140121  2  0
 23  7  1  0
 52 46  1  0
 59 53  1  0
 93 86  1  0
101 94  1  0
132126  1  0
139133  1  0
  1156  1  0
  6157  1  0
  9158  1  0
 17159  1  0
 18160  1  0
 19161  1  0
 20162  1  0
 21163  1  0
 22164  1  0
 22165  1  0
 23166  1  0
 28167  1  0
 29168  1  0
 31169  1  0
 31170  1  0
 31171  1  0
 32172  1  0
 33173  1  0
 35174  1  0
 36175  1  0
 38176  1  0
 38177  1  0
 38178  1  0
 39179  1  0
 40180  1  0
 47181  1  0
 48182  1  0
 50183  1  0
 50184  1  0
 50185  1  0
 51186  1  0
 52187  1  0
 54188  1  0
 55189  1  0
 57190  1  0
 57191  1  0
 57192  1  0
 58193  1  0
 59194  1  0
 66195  1  0
 67196  1  0
 70197  1  0
 70198  1  0
 70199  1  0
 71200  1  0
 72201  1  0
 74202  1  0
 75203  1  0
 78204  1  0
 78205  1  0
 78206  1  0
 79207  1  0
 80208  1  0
 87209  1  0
 88210  1  0
 91211  1  0
 91212  1  0
 91213  1  0
 92214  1  0
 93215  1  0
 95216  1  0
 96217  1  0
 99218  1  0
 99219  1  0
 99220  1  0
100221  1  0
101222  1  0
108223  1  0
109224  1  0
111225  1  0
111226  1  0
111227  1  0
112228  1  0
113229  1  0
115230  1  0
116231  1  0
118232  1  0
118233  1  0
118234  1  0
119235  1  0
120236  1  0
127237  1  0
128238  1  0
130239  1  0
130240  1  0
130241  1  0
131242  1  0
132243  1  0
134244  1  0
135245  1  0
137246  1  0
137247  1  0
137248  1  0
138249  1  0
139250  1  0
142251  1  0
152252  1  0
152253  1  0
153254  1  0
153255  1  0
153256  1  0
M  END

