
     RDKit          3D

153167  0  0  0  0  0  0  0  0999 V2000
   -1.2815   -4.1584   -4.9071 C   0  0  0  0  0  0  0  0  0  0  0  0
   -0.5921   -3.5406   -5.8902 C   0  0  0  0  0  0  0  0  0  0  0  0
    0.4549   -2.5220   -5.6971 C   0  0  0  0  0  0  0  0  0  0  0  0
    1.0068   -2.2065   -4.6093 O   0  0  0  0  0  0  0  0  0  0  0  0
    0.6710   -1.8340   -6.9476 C   0  0  0  0  0  0  0  0  0  0  0  0
    1.5088   -0.7204   -7.1740 C   0  0  0  0  0  0  0  0  0  0  0  0
    1.4146   -0.1987   -8.4498 C   0  0  0  0  0  0  0  0  0  0  0  0
    0.5366   -0.7278   -9.4497 C   0  0  0  0  0  0  0  0  0  0  0  0
   -0.2886   -1.8174   -9.2344 C   0  0  0  0  0  0  0  0  0  0  0  0
   -0.1767   -2.3940   -7.9373 C   0  0  0  0  0  0  0  0  0  0  0  0
   -0.9100   -3.5511   -7.3517 C   0  0  0  0  0  0  0  0  0  0  0  0
   -1.4755   -4.5774   -8.0412 C   0  0  0  0  0  0  0  0  0  0  0  0
   -1.9675   -5.7670   -7.3900 C   0  0  0  0  0  0  0  0  0  0  0  0
   -2.3742   -6.7231   -6.8818 N   0  0  0  0  0  0  0  0  0  0  0  0
   -1.4821   -4.6240   -9.4825 C   0  0  0  0  0  0  0  0  0  0  0  0
   -1.4791   -4.6925  -10.6409 N   0  0  0  0  0  0  0  0  0  0  0  0
    0.9797    0.3249  -10.4202 C   0  0  0  0  0  0  0  0  0  0  0  0
    1.9419   -0.1329  -11.5565 C   0  0  0  0  0  0  0  0  0  0  0  0
    2.5354    1.1315  -12.1340 C   0  0  0  0  0  0  0  0  0  0  0  0
    3.3585    1.6237  -11.1994 C   0  0  0  0  0  0  0  0  0  0  0  0
    3.2948    0.6725  -10.0276 C   0  0  0  0  0  0  0  0  0  0  0  0
    3.1581   -0.6310  -10.7937 C   0  0  0  0  0  0  0  0  0  0  0  0
    1.8831    0.8642   -9.3994 C   0  0  0  0  0  0  0  0  0  0  0  0
   -0.8590   -4.1396   -3.4987 C   0  0  0  0  0  0  0  0  0  0  0  0
    0.3914   -4.4847   -3.0205 C   0  0  0  0  0  0  0  0  0  0  0  0
    0.5720   -4.1881   -1.6552 C   0  0  0  0  0  0  0  0  0  0  0  0
    1.7878   -4.3779   -0.9894 O   0  0  0  0  0  0  0  0  0  0  0  0
    2.9752   -4.9030   -1.5825 C   0  0  0  0  0  0  0  0  0  0  0  0
    2.9339   -6.4255   -1.6051 C   0  0  0  0  0  0  0  0  0  0  0  0
   -0.5660   -3.6377   -1.0420 C   0  0  0  0  0  0  0  0  0  0  0  0
   -1.7684   -3.5373   -2.2272 S   0  0  0  0  0  0  0  0  0  0  0  0
   -0.7042   -2.9614    0.2794 C   0  0  0  0  0  0  0  0  0  0  0  0
    0.3098   -2.4508    1.1239 C   0  0  0  0  0  0  0  0  0  0  0  0
    1.6788   -2.8767    1.1712 N   0  0  0  0  0  0  0  0  0  0  0  0
    2.0303   -4.0904    1.8972 C   0  0  0  0  0  0  0  0  0  0  0  0
    3.3502   -4.5878    1.8815 C   0  0  0  0  0  0  0  0  0  0  0  0
    3.6921   -5.7461    2.5860 C   0  0  0  0  0  0  0  0  0  0  0  0
    2.7216   -6.4424    3.3059 C   0  0  0  0  0  0  0  0  0  0  0  0
    3.1788   -7.8931    4.2591 S   0  0  0  0  0  0  0  0  0  0  0  0
    3.0125   -9.0329    2.8496 C   0  0  0  0  0  0  0  0  0  0  0  0
    1.4017   -5.9817    3.3149 C   0  0  0  0  0  0  0  0  0  0  0  0
    1.0559   -4.8204    2.6149 C   0  0  0  0  0  0  0  0  0  0  0  0
    2.6658   -1.8889    0.8102 C   0  0  0  0  0  0  0  0  0  0  0  0
    3.6312   -1.4668    1.7404 C   0  0  0  0  0  0  0  0  0  0  0  0
    4.5135   -0.4291    1.4242 C   0  0  0  0  0  0  0  0  0  0  0  0
    4.4258    0.2134    0.1846 C   0  0  0  0  0  0  0  0  0  0  0  0
    5.5160    1.5835   -0.1909 S   0  0  0  0  0  0  0  0  0  0  0  0
    6.7128    0.5476   -1.0835 C   0  0  0  0  0  0  0  0  0  0  0  0
    3.4563   -0.1905   -0.7417 C   0  0  0  0  0  0  0  0  0  0  0  0
    2.5812   -1.2339   -0.4316 C   0  0  0  0  0  0  0  0  0  0  0  0
   -0.1913   -1.5093    2.0137 C   0  0  0  0  0  0  0  0  0  0  0  0
    0.5178   -0.4562    3.0892 S   0  0  0  0  0  0  0  0  0  0  0  0
   -0.9353    0.3251    3.5380 C   0  0  0  0  0  0  0  0  0  0  0  0
   -2.0138   -0.3172    2.8510 C   0  0  0  0  0  0  0  0  0  0  0  0
   -3.4074   -0.3047    3.2430 N   0  0  0  0  0  0  0  0  0  0  0  0
   -4.0637   -1.5677    3.4879 C   0  0  0  0  0  0  0  0  0  0  0  0
   -5.2562   -1.8863    2.8165 C   0  0  0  0  0  0  0  0  0  0  0  0
   -5.8526   -3.1386    2.9894 C   0  0  0  0  0  0  0  0  0  0  0  0
   -5.2642   -4.0846    3.8361 C   0  0  0  0  0  0  0  0  0  0  0  0
   -6.0326   -5.6900    4.0496 S   0  0  0  0  0  0  0  0  0  0  0  0
   -5.0165   -6.4918    2.7715 C   0  0  0  0  0  0  0  0  0  0  0  0
   -4.0827   -3.7708    4.5185 C   0  0  0  0  0  0  0  0  0  0  0  0
   -3.4813   -2.5194    4.3417 C   0  0  0  0  0  0  0  0  0  0  0  0
   -4.2153    0.8850    3.2207 C   0  0  0  0  0  0  0  0  0  0  0  0
   -4.2156    1.7419    2.1063 C   0  0  0  0  0  0  0  0  0  0  0  0
   -5.0216    2.8890    2.1043 C   0  0  0  0  0  0  0  0  0  0  0  0
   -5.8303    3.1834    3.2109 C   0  0  0  0  0  0  0  0  0  0  0  0
   -6.8337    4.6726    3.2355 S   0  0  0  0  0  0  0  0  0  0  0  0
   -8.3335    3.8262    2.6478 C   0  0  0  0  0  0  0  0  0  0  0  0
   -5.8508    2.3169    4.3093 C   0  0  0  0  0  0  0  0  0  0  0  0
   -5.0598    1.1664    4.3070 C   0  0  0  0  0  0  0  0  0  0  0  0
   -1.5213   -1.2982    1.9801 C   0  0  0  0  0  0  0  0  0  0  0  0
   -2.1853   -2.2594    0.7843 S   0  0  0  0  0  0  0  0  0  0  0  0
   -0.8825    1.6440    4.2322 C   0  0  0  0  0  0  0  0  0  0  0  0
    0.3119    2.3320    4.4746 C   0  0  0  0  0  0  0  0  0  0  0  0
    0.1567    3.7204    4.6660 C   0  0  0  0  0  0  0  0  0  0  0  0
    1.2180    4.6348    4.7074 O   0  0  0  0  0  0  0  0  0  0  0  0
    2.6041    4.2899    4.7218 C   0  0  0  0  0  0  0  0  0  0  0  0
    3.0219    3.8227    6.1112 C   0  0  0  0  0  0  0  0  0  0  0  0
   -1.1752    4.1310    4.6964 C   0  0  0  0  0  0  0  0  0  0  0  0
   -2.1088    2.7861    4.3396 S   0  0  0  0  0  0  0  0  0  0  0  0
   -1.6771    5.5072    4.5134 C   0  0  0  0  0  0  0  0  0  0  0  0
   -1.2234    6.5934    5.1627 C   0  0  0  0  0  0  0  0  0  0  0  0
   -0.2018    6.6063    6.2319 C   0  0  0  0  0  0  0  0  0  0  0  0
    0.0961    5.6601    7.0095 O   0  0  0  0  0  0  0  0  0  0  0  0
    0.3408    7.9397    6.2713 C   0  0  0  0  0  0  0  0  0  0  0  0
    1.6960    8.6685    6.9261 S   0  0  0  0  0  0  0  0  0  0  0  0
    1.4302   10.1230    6.0785 C   0  0  0  0  0  0  0  0  0  0  0  0
    2.3363   11.3080    6.1116 C   0  0  0  0  0  0  0  0  0  0  0  0
    0.3060   10.0043    5.2541 C   0  0  0  0  0  0  0  0  0  0  0  0
   -0.2950    8.7500    5.3945 C   0  0  0  0  0  0  0  0  0  0  0  0
   -1.3913    8.0202    4.7187 C   0  0  0  0  0  0  0  0  0  0  0  0
   -2.3886    8.5702    3.9889 C   0  0  0  0  0  0  0  0  0  0  0  0
   -2.3994    9.9676    3.6487 C   0  0  0  0  0  0  0  0  0  0  0  0
   -2.4193   11.0913    3.3618 N   0  0  0  0  0  0  0  0  0  0  0  0
   -3.5574    7.8212    3.5999 C   0  0  0  0  0  0  0  0  0  0  0  0
   -4.5030    7.2272    3.2937 N   0  0  0  0  0  0  0  0  0  0  0  0
   -2.2289   -4.6273   -5.1201 H   0  0  0  0  0  0  0  0  0  0  0  0
    2.1489   -0.2881   -6.4143 H   0  0  0  0  0  0  0  0  0  0  0  0
   -0.9764   -2.1510   -9.9923 H   0  0  0  0  0  0  0  0  0  0  0  0
    0.1655    1.0200  -10.7278 H   0  0  0  0  0  0  0  0  0  0  0  0
    1.5145   -0.8425  -12.2971 H   0  0  0  0  0  0  0  0  0  0  0  0
    2.4157    1.5116  -13.1441 H   0  0  0  0  0  0  0  0  0  0  0  0
    4.0135    2.4810  -11.3167 H   0  0  0  0  0  0  0  0  0  0  0  0
    4.1499    0.7291   -9.3224 H   0  0  0  0  0  0  0  0  0  0  0  0
    2.9624   -1.5179  -10.1556 H   0  0  0  0  0  0  0  0  0  0  0  0
    4.0383   -0.8473  -11.4487 H   0  0  0  0  0  0  0  0  0  0  0  0
    1.6357    1.9001   -9.0718 H   0  0  0  0  0  0  0  0  0  0  0  0
    1.1601   -4.8843   -3.6648 H   0  0  0  0  0  0  0  0  0  0  0  0
    3.1291   -4.4917   -2.5995 H   0  0  0  0  0  0  0  0  0  0  0  0
    3.8449   -4.5847   -0.9752 H   0  0  0  0  0  0  0  0  0  0  0  0
    2.1728   -6.7790   -2.3322 H   0  0  0  0  0  0  0  0  0  0  0  0
    2.6875   -6.8152   -0.5947 H   0  0  0  0  0  0  0  0  0  0  0  0
    3.9266   -6.8228   -1.9029 H   0  0  0  0  0  0  0  0  0  0  0  0
    4.1291   -4.0820    1.3261 H   0  0  0  0  0  0  0  0  0  0  0  0
    4.7166   -6.0964    2.5721 H   0  0  0  0  0  0  0  0  0  0  0  0
    3.6539   -8.7004    2.0097 H   0  0  0  0  0  0  0  0  0  0  0  0
    3.3342  -10.0424    3.1685 H   0  0  0  0  0  0  0  0  0  0  0  0
    1.9539   -9.0799    2.5182 H   0  0  0  0  0  0  0  0  0  0  0  0
    0.6426   -6.5198    3.8685 H   0  0  0  0  0  0  0  0  0  0  0  0
    0.0237   -4.5003    2.6547 H   0  0  0  0  0  0  0  0  0  0  0  0
    3.6674   -1.9084    2.7306 H   0  0  0  0  0  0  0  0  0  0  0  0
    5.2504   -0.1145    2.1546 H   0  0  0  0  0  0  0  0  0  0  0  0
    7.0988   -0.2595   -0.4284 H   0  0  0  0  0  0  0  0  0  0  0  0
    6.2343    0.0969   -1.9829 H   0  0  0  0  0  0  0  0  0  0  0  0
    7.5691    1.1783   -1.4084 H   0  0  0  0  0  0  0  0  0  0  0  0
    3.3632    0.3221   -1.6898 H   0  0  0  0  0  0  0  0  0  0  0  0
    1.8158   -1.5116   -1.1408 H   0  0  0  0  0  0  0  0  0  0  0  0
   -5.7067   -1.1708    2.1387 H   0  0  0  0  0  0  0  0  0  0  0  0
   -6.7665   -3.3716    2.4597 H   0  0  0  0  0  0  0  0  0  0  0  0
   -5.0027   -5.8919    1.8394 H   0  0  0  0  0  0  0  0  0  0  0  0
   -3.9778   -6.6209    3.1410 H   0  0  0  0  0  0  0  0  0  0  0  0
   -5.4455   -7.4914    2.5443 H   0  0  0  0  0  0  0  0  0  0  0  0
   -3.6218   -4.4985    5.1715 H   0  0  0  0  0  0  0  0  0  0  0  0
   -2.5605   -2.2921    4.8621 H   0  0  0  0  0  0  0  0  0  0  0  0
   -3.5895    1.5238    1.2489 H   0  0  0  0  0  0  0  0  0  0  0  0
   -5.0073    3.5532    1.2489 H   0  0  0  0  0  0  0  0  0  0  0  0
   -9.1695    4.5548    2.6254 H   0  0  0  0  0  0  0  0  0  0  0  0
   -8.6002    2.9982    3.3392 H   0  0  0  0  0  0  0  0  0  0  0  0
   -8.1699    3.4247    1.6261 H   0  0  0  0  0  0  0  0  0  0  0  0
   -6.4775    2.5328    5.1665 H   0  0  0  0  0  0  0  0  0  0  0  0
   -5.0750    0.5084    5.1695 H   0  0  0  0  0  0  0  0  0  0  0  0
    1.2812    1.8642    4.3865 H   0  0  0  0  0  0  0  0  0  0  0  0
    3.1937    5.1950    4.4619 H   0  0  0  0  0  0  0  0  0  0  0  0
    2.8301    3.5146    3.9571 H   0  0  0  0  0  0  0  0  0  0  0  0
    2.4596    2.9121    6.3973 H   0  0  0  0  0  0  0  0  0  0  0  0
    4.1098    3.5867    6.1100 H   0  0  0  0  0  0  0  0  0  0  0  0
    2.8282    4.6273    6.8557 H   0  0  0  0  0  0  0  0  0  0  0  0
   -2.3765    5.6250    3.7050 H   0  0  0  0  0  0  0  0  0  0  0  0
    2.8624   11.4005    5.1360 H   0  0  0  0  0  0  0  0  0  0  0  0
    1.7393   12.2257    6.2973 H   0  0  0  0  0  0  0  0  0  0  0  0
    3.0863   11.1995    6.9238 H   0  0  0  0  0  0  0  0  0  0  0  0
   -0.0117   10.7722    4.5649 H   0  0  0  0  0  0  0  0  0  0  0  0
  1  2  2  3
  2  3  1  0
  3  4  2  0
  3  5  1  0
  5  6  2  0
  6  7  1  0
  7  8  2  0
  8  9  1  0
  9 10  2  0
 10 11  1  0
 11 12  2  3
 12 13  1  0
 13 14  3  0
 12 15  1  0
 15 16  3  0
  8 17  1  0
 17 18  1  0
 18 19  1  0
 19 20  2  0
 20 21  1  0
 21 22  1  0
 21 23  1  0
  1 24  1  0
 24 25  2  0
 25 26  1  0
 26 27  1  0
 27 28  1  0
 28 29  1  0
 26 30  2  0
 30 31  1  0
 30 32  1  0
 32 33  2  0
 33 34  1  0
 34 35  1  0
 35 36  2  0
 36 37  1  0
 37 38  2  0
 38 39  1  0
 39 40  1  0
 38 41  1  0
 41 42  2  0
 34 43  1  0
 43 44  2  0
 44 45  1  0
 45 46  2  0
 46 47  1  0
 47 48  1  0
 46 49  1  0
 49 50  2  0
 33 51  1  0
 51 52  1  0
 52 53  1  0
 53 54  2  0
 54 55  1  0
 55 56  1  0
 56 57  2  0
 57 58  1  0
 58 59  2  0
 59 60  1  0
 60 61  1  0
 59 62  1  0
 62 63  2  0
 55 64  1  0
 64 65  2  0
 65 66  1  0
 66 67  2  0
 67 68  1  0
 68 69  1  0
 67 70  1  0
 70 71  2  0
 54 72  1  0
 72 73  1  0
 53 74  1  0
 74 75  2  0
 75 76  1  0
 76 77  1  0
 77 78  1  0
 78 79  1  0
 76 80  2  0
 80 81  1  0
 80 82  1  0
 82 83  2  3
 83 84  1  0
 84 85  2  0
 84 86  1  0
 86 87  1  0
 87 88  1  0
 88 89  1  0
 88 90  2  0
 90 91  1  0
 91 92  1  0
 92 93  2  3
 93 94  1  0
 94 95  3  0
 93 96  1  0
 96 97  3  0
 11  2  1  0
 23 17  1  0
 31 24  1  0
 73 32  1  0
 81 74  1  0
 92 83  1  0
 10  5  1  0
 22 18  1  0
 42 35  1  0
 50 43  1  0
 72 51  2  0
 91 86  2  0
 23  7  1  0
 63 56  1  0
 71 64  1  0
  1 98  1  0
  6 99  1  0
  9100  1  0
 17101  1  0
 18102  1  0
 19103  1  0
 20104  1  0
 21105  1  0
 22106  1  0
 22107  1  0
 23108  1  0
 25109  1  0
 28110  1  0
 28111  1  0
 29112  1  0
 29113  1  0
 29114  1  0
 36115  1  0
 37116  1  0
 40117  1  0
 40118  1  0
 40119  1  0
 41120  1  0
 42121  1  0
 44122  1  0
 45123  1  0
 48124  1  0
 48125  1  0
 48126  1  0
 49127  1  0
 50128  1  0
 57129  1  0
 58130  1  0
 61131  1  0
 61132  1  0
 61133  1  0
 62134  1  0
 63135  1  0
 65136  1  0
 66137  1  0
 69138  1  0
 69139  1  0
 69140  1  0
 70141  1  0
 71142  1  0
 75143  1  0
 78144  1  0
 78145  1  0
 79146  1  0
 79147  1  0
 79148  1  0
 82149  1  0
 89150  1  0
 89151  1  0
 89152  1  0
 90153  1  0
M  END

