
     RDKit          3D

160179  0  0  0  0  0  0  0  0999 V2000
   -4.4750   -0.0222   -7.4621 C   0  0  0  0  0  0  0  0  0  0  0  0
   -5.5883   -0.4372   -6.8115 C   0  0  0  0  0  0  0  0  0  0  0  0
   -6.6107    0.5397   -6.4007 C   0  0  0  0  0  0  0  0  0  0  0  0
   -6.9792    1.5523   -7.0613 O   0  0  0  0  0  0  0  0  0  0  0  0
   -7.0411    0.2163   -5.0510 C   0  0  0  0  0  0  0  0  0  0  0  0
   -7.8968    0.9651   -4.2098 C   0  0  0  0  0  0  0  0  0  0  0  0
   -8.0281    0.4370   -2.9348 C   0  0  0  0  0  0  0  0  0  0  0  0
   -7.3375   -0.7491   -2.5014 C   0  0  0  0  0  0  0  0  0  0  0  0
   -6.4952   -1.4841   -3.3164 C   0  0  0  0  0  0  0  0  0  0  0  0
   -6.3824   -0.9771   -4.6388 C   0  0  0  0  0  0  0  0  0  0  0  0
   -5.6112   -1.5072   -5.7789 C   0  0  0  0  0  0  0  0  0  0  0  0
   -5.4895   -2.8178   -6.0836 C   0  0  0  0  0  0  0  0  0  0  0  0
   -5.5839   -3.8610   -5.0973 C   0  0  0  0  0  0  0  0  0  0  0  0
   -5.6439   -4.7067   -4.3019 N   0  0  0  0  0  0  0  0  0  0  0  0
   -5.3949   -3.2510   -7.4537 C   0  0  0  0  0  0  0  0  0  0  0  0
   -5.3356   -3.5983   -8.5495 N   0  0  0  0  0  0  0  0  0  0  0  0
   -7.9158   -0.6022   -1.1288 C   0  0  0  0  0  0  0  0  0  0  0  0
   -6.9550   -0.0663   -0.0234 C   0  0  0  0  0  0  0  0  0  0  0  0
   -7.8460    0.3336    1.1303 C   0  0  0  0  0  0  0  0  0  0  0  0
   -8.5182    1.4240    0.7369 C   0  0  0  0  0  0  0  0  0  0  0  0
   -8.0472    1.7244   -0.6718 C   0  0  0  0  0  0  0  0  0  0  0  0
   -6.5862    1.3236   -0.5219 C   0  0  0  0  0  0  0  0  0  0  0  0
   -8.6375    0.6008   -1.5730 C   0  0  0  0  0  0  0  0  0  0  0  0
   -3.1533   -0.0450   -6.7800 C   0  0  0  0  0  0  0  0  0  0  0  0
   -2.6409    1.1607   -6.2489 C   0  0  0  0  0  0  0  0  0  0  0  0
   -3.2490    2.3422   -6.5187 F   0  0  0  0  0  0  0  0  0  0  0  0
   -1.5754    1.1516   -5.3199 C   0  0  0  0  0  0  0  0  0  0  0  0
   -1.1708    2.3197   -4.7553 F   0  0  0  0  0  0  0  0  0  0  0  0
   -1.0040   -0.0728   -4.8912 C   0  0  0  0  0  0  0  0  0  0  0  0
   -1.4577   -1.2287   -5.5172 C   0  0  0  0  0  0  0  0  0  0  0  0
   -2.4484   -1.2206   -6.4528 C   0  0  0  0  0  0  0  0  0  0  0  0
   -2.6646   -2.4889   -6.8247 N   0  0  0  0  0  0  0  0  0  0  0  0
   -1.8468   -3.2017   -6.0925 O   0  0  0  0  0  0  0  0  0  0  0  0
   -1.1044   -2.4980   -5.2758 N   0  0  0  0  0  0  0  0  0  0  0  0
   -0.3193   -0.1130   -3.5998 C   0  0  0  0  0  0  0  0  0  0  0  0
    1.0441    0.1445   -3.3799 C   0  0  0  0  0  0  0  0  0  0  0  0
    2.0905   -0.1184   -4.3399 N   0  0  0  0  0  0  0  0  0  0  0  0
    2.0377   -1.3425   -5.0903 C   0  0  0  0  0  0  0  0  0  0  0  0
    2.0572   -2.5749   -4.4127 C   0  0  0  0  0  0  0  0  0  0  0  0
    2.0774   -3.7708   -5.1364 C   0  0  0  0  0  0  0  0  0  0  0  0
    2.0431   -3.7497   -6.5362 C   0  0  0  0  0  0  0  0  0  0  0  0
    2.0869   -5.2947   -7.4551 S   0  0  0  0  0  0  0  0  0  0  0  0
    0.3006   -5.6002   -7.2875 C   0  0  0  0  0  0  0  0  0  0  0  0
    2.0027   -2.5199   -7.2130 C   0  0  0  0  0  0  0  0  0  0  0  0
    2.0038   -1.3162   -6.4921 C   0  0  0  0  0  0  0  0  0  0  0  0
    3.3772    0.5064   -4.1818 C   0  0  0  0  0  0  0  0  0  0  0  0
    3.5573    1.8481   -4.5437 C   0  0  0  0  0  0  0  0  0  0  0  0
    4.7570    2.5054   -4.2392 C   0  0  0  0  0  0  0  0  0  0  0  0
    5.7721    1.8204   -3.5452 C   0  0  0  0  0  0  0  0  0  0  0  0
    7.2219    2.7103   -2.9891 S   0  0  0  0  0  0  0  0  0  0  0  0
    6.4155    3.2784   -1.4539 C   0  0  0  0  0  0  0  0  0  0  0  0
    5.6195    0.4640   -3.2390 C   0  0  0  0  0  0  0  0  0  0  0  0
    4.4218   -0.1909   -3.5449 C   0  0  0  0  0  0  0  0  0  0  0  0
    1.2491    0.5436   -2.0524 C   0  0  0  0  0  0  0  0  0  0  0  0
    2.5282    1.1346   -1.1482 S   0  0  0  0  0  0  0  0  0  0  0  0
    1.6253    1.4096    0.2851 C   0  0  0  0  0  0  0  0  0  0  0  0
    0.3022    0.9977    0.0381 C   0  0  0  0  0  0  0  0  0  0  0  0
   -0.7290    0.8326    1.0200 N   0  0  0  0  0  0  0  0  0  0  0  0
   -1.0913   -0.5279    1.3835 C   0  0  0  0  0  0  0  0  0  0  0  0
   -0.0951   -1.5171    1.5316 C   0  0  0  0  0  0  0  0  0  0  0  0
   -0.4257   -2.7998    1.9682 C   0  0  0  0  0  0  0  0  0  0  0  0
   -1.7537   -3.1189    2.2638 C   0  0  0  0  0  0  0  0  0  0  0  0
   -2.1658   -4.7424    2.9072 S   0  0  0  0  0  0  0  0  0  0  0  0
   -1.9388   -4.2523    4.6480 C   0  0  0  0  0  0  0  0  0  0  0  0
   -2.7638   -2.1744    2.0498 C   0  0  0  0  0  0  0  0  0  0  0  0
   -2.4358   -0.8894    1.6064 C   0  0  0  0  0  0  0  0  0  0  0  0
   -1.4979    1.9689    1.4880 C   0  0  0  0  0  0  0  0  0  0  0  0
   -2.0518    1.9727    2.7844 C   0  0  0  0  0  0  0  0  0  0  0  0
   -2.8923    3.0107    3.1924 C   0  0  0  0  0  0  0  0  0  0  0  0
   -3.1723    4.0660    2.3243 C   0  0  0  0  0  0  0  0  0  0  0  0
   -4.3097    5.3549    2.8404 S   0  0  0  0  0  0  0  0  0  0  0  0
   -5.7998    4.4622    2.2746 C   0  0  0  0  0  0  0  0  0  0  0  0
   -2.5990    4.0970    1.0488 C   0  0  0  0  0  0  0  0  0  0  0  0
   -1.7532    3.0600    0.6407 C   0  0  0  0  0  0  0  0  0  0  0  0
    0.1438    0.5515   -1.2702 C   0  0  0  0  0  0  0  0  0  0  0  0
   -1.1963    0.1433   -2.1658 S   0  0  0  0  0  0  0  0  0  0  0  0
    2.2143    2.0286    1.5085 C   0  0  0  0  0  0  0  0  0  0  0  0
    3.2776    2.9716    1.4048 C   0  0  0  0  0  0  0  0  0  0  0  0
    3.6535    3.4491    0.1904 F   0  0  0  0  0  0  0  0  0  0  0  0
    3.9869    3.3973    2.5513 C   0  0  0  0  0  0  0  0  0  0  0  0
    5.0553    4.2245    2.4092 F   0  0  0  0  0  0  0  0  0  0  0  0
    3.6358    2.9134    3.8229 C   0  0  0  0  0  0  0  0  0  0  0  0
    2.5091    2.1019    3.9099 C   0  0  0  0  0  0  0  0  0  0  0  0
    1.8500    1.6599    2.8114 C   0  0  0  0  0  0  0  0  0  0  0  0
    0.9365    0.7721    3.2233 N   0  0  0  0  0  0  0  0  0  0  0  0
    1.0450    0.7313    4.5246 O   0  0  0  0  0  0  0  0  0  0  0  0
    1.9900    1.5059    4.9996 N   0  0  0  0  0  0  0  0  0  0  0  0
    4.4969    3.1138    4.9999 C   0  0  0  0  0  0  0  0  0  0  0  0
    5.0915    2.0557    5.5916 C   0  0  0  0  0  0  0  0  0  0  0  0
    5.0435    0.6889    5.0661 C   0  0  0  0  0  0  0  0  0  0  0  0
    5.0339    0.3560    3.8519 O   0  0  0  0  0  0  0  0  0  0  0  0
    4.9998   -0.2316    6.1765 C   0  0  0  0  0  0  0  0  0  0  0  0
    4.5902   -1.5839    6.1187 C   0  0  0  0  0  0  0  0  0  0  0  0
    4.3096   -2.1306    7.3507 C   0  0  0  0  0  0  0  0  0  0  0  0
    4.4475   -1.4086    8.5789 C   0  0  0  0  0  0  0  0  0  0  0  0
    4.8756   -0.0878    8.6485 C   0  0  0  0  0  0  0  0  0  0  0  0
    5.1597    0.4950    7.3846 C   0  0  0  0  0  0  0  0  0  0  0  0
    5.3849    1.9261    7.0512 C   0  0  0  0  0  0  0  0  0  0  0  0
    5.9256    2.8661    7.8589 C   0  0  0  0  0  0  0  0  0  0  0  0
    6.2215    4.1939    7.3735 C   0  0  0  0  0  0  0  0  0  0  0  0
    6.4540    5.2542    6.9728 N   0  0  0  0  0  0  0  0  0  0  0  0
    6.4026    2.5598    9.1847 C   0  0  0  0  0  0  0  0  0  0  0  0
    6.8102    2.3156   10.2384 N   0  0  0  0  0  0  0  0  0  0  0  0
    3.9275   -2.5902    9.3443 C   0  0  0  0  0  0  0  0  0  0  0  0
    4.9654   -3.4390   10.1306 C   0  0  0  0  0  0  0  0  0  0  0  0
    4.2632   -4.7387   10.4608 C   0  0  0  0  0  0  0  0  0  0  0  0
    4.1206   -5.4033    9.3073 C   0  0  0  0  0  0  0  0  0  0  0  0
    4.7364   -4.5306    8.2343 C   0  0  0  0  0  0  0  0  0  0  0  0
    5.8906   -3.9517    9.0359 C   0  0  0  0  0  0  0  0  0  0  0  0
    3.7759   -3.3205    8.0817 C   0  0  0  0  0  0  0  0  0  0  0  0
   -4.5946    0.8197   -8.1345 H   0  0  0  0  0  0  0  0  0  0  0  0
   -8.3883    1.8811   -4.5104 H   0  0  0  0  0  0  0  0  0  0  0  0
   -5.9724   -2.3573   -2.9546 H   0  0  0  0  0  0  0  0  0  0  0  0
   -8.5824   -1.4449   -0.8366 H   0  0  0  0  0  0  0  0  0  0  0  0
   -6.1079   -0.7428    0.2315 H   0  0  0  0  0  0  0  0  0  0  0  0
   -7.8678   -0.1177    2.1126 H   0  0  0  0  0  0  0  0  0  0  0  0
   -9.1838    2.0241    1.3572 H   0  0  0  0  0  0  0  0  0  0  0  0
   -8.2308    2.7632   -1.0184 H   0  0  0  0  0  0  0  0  0  0  0  0
   -6.0349    1.9343    0.2419 H   0  0  0  0  0  0  0  0  0  0  0  0
   -6.0053    1.3263   -1.4745 H   0  0  0  0  0  0  0  0  0  0  0  0
   -9.7470    0.5099   -1.5776 H   0  0  0  0  0  0  0  0  0  0  0  0
    2.0692   -2.6003   -3.3267 H   0  0  0  0  0  0  0  0  0  0  0  0
    2.0948   -4.7108   -4.6042 H   0  0  0  0  0  0  0  0  0  0  0  0
    0.0073   -5.5921   -6.2184 H   0  0  0  0  0  0  0  0  0  0  0  0
   -0.2674   -4.8222   -7.8335 H   0  0  0  0  0  0  0  0  0  0  0  0
    0.0663   -6.5928   -7.7157 H   0  0  0  0  0  0  0  0  0  0  0  0
    1.9752   -2.5052   -8.2938 H   0  0  0  0  0  0  0  0  0  0  0  0
    1.9803   -0.3745   -7.0313 H   0  0  0  0  0  0  0  0  0  0  0  0
    2.7510    2.3959   -5.0171 H   0  0  0  0  0  0  0  0  0  0  0  0
    4.8623    3.5583   -4.4636 H   0  0  0  0  0  0  0  0  0  0  0  0
    6.1469    2.4054   -0.8198 H   0  0  0  0  0  0  0  0  0  0  0  0
    5.4961    3.8478   -1.7036 H   0  0  0  0  0  0  0  0  0  0  0  0
    7.1001    3.9414   -0.8939 H   0  0  0  0  0  0  0  0  0  0  0  0
    6.4050   -0.0717   -2.7183 H   0  0  0  0  0  0  0  0  0  0  0  0
    4.2907   -1.2236   -3.2434 H   0  0  0  0  0  0  0  0  0  0  0  0
    0.9439   -1.2810    1.3370 H   0  0  0  0  0  0  0  0  0  0  0  0
    0.3571   -3.5381    2.1121 H   0  0  0  0  0  0  0  0  0  0  0  0
   -2.0409   -5.1460    5.2967 H   0  0  0  0  0  0  0  0  0  0  0  0
   -2.7114   -3.5073    4.9340 H   0  0  0  0  0  0  0  0  0  0  0  0
   -0.9239   -3.8213    4.7924 H   0  0  0  0  0  0  0  0  0  0  0  0
   -3.8003   -2.4281    2.2460 H   0  0  0  0  0  0  0  0  0  0  0  0
   -3.2268   -0.1666    1.4495 H   0  0  0  0  0  0  0  0  0  0  0  0
   -1.8625    1.1553    3.4662 H   0  0  0  0  0  0  0  0  0  0  0  0
   -3.3400    2.9757    4.1848 H   0  0  0  0  0  0  0  0  0  0  0  0
   -5.8585    4.4872    1.1675 H   0  0  0  0  0  0  0  0  0  0  0  0
   -5.7853    3.4039    2.6206 H   0  0  0  0  0  0  0  0  0  0  0  0
   -6.7003    4.9540    2.6921 H   0  0  0  0  0  0  0  0  0  0  0  0
   -2.8244    4.9106    0.3691 H   0  0  0  0  0  0  0  0  0  0  0  0
   -1.3483    3.0883   -0.3657 H   0  0  0  0  0  0  0  0  0  0  0  0
    4.4148    4.0591    5.5143 H   0  0  0  0  0  0  0  0  0  0  0  0
    4.4017   -2.1079    5.1932 H   0  0  0  0  0  0  0  0  0  0  0  0
    4.8662    0.4601    9.5754 H   0  0  0  0  0  0  0  0  0  0  0  0
    2.9687   -2.3896    9.8731 H   0  0  0  0  0  0  0  0  0  0  0  0
    5.4554   -2.9293   10.9913 H   0  0  0  0  0  0  0  0  0  0  0  0
    3.9943   -5.1034   11.4430 H   0  0  0  0  0  0  0  0  0  0  0  0
    3.6888   -6.3886    9.1843 H   0  0  0  0  0  0  0  0  0  0  0  0
    5.0141   -5.0518    7.2930 H   0  0  0  0  0  0  0  0  0  0  0  0
    6.6063   -4.7333    9.3930 H   0  0  0  0  0  0  0  0  0  0  0  0
    6.4592   -3.1552    8.5106 H   0  0  0  0  0  0  0  0  0  0  0  0
    2.7248   -3.5722    7.8121 H   0  0  0  0  0  0  0  0  0  0  0  0
  1  2  2  3
  2  3  1  0
  3  4  2  0
  3  5  1  0
  5  6  2  0
  6  7  1  0
  7  8  2  0
  8  9  1  0
  9 10  2  0
 10 11  1  0
 11 12  2  3
 12 13  1  0
 13 14  3  0
 12 15  1  0
 15 16  3  0
  8 17  1  0
 17 18  1  0
 18 19  1  0
 19 20  2  0
 20 21  1  0
 21 22  1  0
 21 23  1  0
  1 24  1  0
 24 25  2  0
 25 26  1  0
 25 27  1  0
 27 28  1  0
 27 29  2  0
 29 30  1  0
 30 31  1  0
 31 32  2  0
 32 33  1  0
 33 34  1  0
 29 35  1  0
 35 36  2  0
 36 37  1  0
 37 38  1  0
 38 39  2  0
 39 40  1  0
 40 41  2  0
 41 42  1  0
 42 43  1  0
 41 44  1  0
 44 45  2  0
 37 46  1  0
 46 47  2  0
 47 48  1  0
 48 49  2  0
 49 50  1  0
 50 51  1  0
 49 52  1  0
 52 53  2  0
 36 54  1  0
 54 55  1  0
 55 56  1  0
 56 57  2  0
 57 58  1  0
 58 59  1  0
 59 60  2  0
 60 61  1  0
 61 62  2  0
 62 63  1  0
 63 64  1  0
 62 65  1  0
 65 66  2  0
 58 67  1  0
 67 68  2  0
 68 69  1  0
 69 70  2  0
 70 71  1  0
 71 72  1  0
 70 73  1  0
 73 74  2  0
 57 75  1  0
 75 76  1  0
 56 77  1  0
 77 78  2  0
 78 79  1  0
 78 80  1  0
 80 81  1  0
 80 82  2  0
 82 83  1  0
 83 84  1  0
 84 85  2  0
 85 86  1  0
 86 87  1  0
 82 88  1  0
 88 89  2  3
 89 90  1  0
 90 91  2  0
 90 92  1  0
 92 93  2  0
 93 94  1  0
 94 95  2  0
 95 96  1  0
 96 97  2  0
 97 98  1  0
 98 99  2  3
 99100  1  0
100101  3  0
 99102  1  0
102103  3  0
 95104  1  0
104105  1  0
105106  1  0
106107  2  0
107108  1  0
108109  1  0
108110  1  0
 11  2  1  0
 23 17  1  0
 31 24  1  0
 76 35  1  0
 84 77  1  0
 98 89  1  0
110104  1  0
 10  5  1  0
 22 18  1  0
 34 30  2  0
 45 38  1  0
 53 46  1  0
 75 54  2  0
 87 83  2  0
 97 92  1  0
109105  1  0
 23  7  1  0
 66 59  1  0
 74 67  1  0
110 94  1  0
  1111  1  0
  6112  1  0
  9113  1  0
 17114  1  0
 18115  1  0
 19116  1  0
 20117  1  0
 21118  1  0
 22119  1  0
 22120  1  0
 23121  1  0
 39122  1  0
 40123  1  0
 43124  1  0
 43125  1  0
 43126  1  0
 44127  1  0
 45128  1  0
 47129  1  0
 48130  1  0
 51131  1  0
 51132  1  0
 51133  1  0
 52134  1  0
 53135  1  0
 60136  1  0
 61137  1  0
 64138  1  0
 64139  1  0
 64140  1  0
 65141  1  0
 66142  1  0
 68143  1  0
 69144  1  0
 72145  1  0
 72146  1  0
 72147  1  0
 73148  1  0
 74149  1  0
 88150  1  0
 93151  1  0
 96152  1  0
104153  1  0
105154  1  0
106155  1  0
107156  1  0
108157  1  0
109158  1  0
109159  1  0
110160  1  0
M  END

