
     RDKit          3D

202221  0  0  0  0  0  0  0  0999 V2000
    1.8590    3.7067    4.5550 C   0  0  0  0  0  0  0  0  0  0  0  0
    2.9752    3.7881    3.7956 C   0  0  0  0  0  0  0  0  0  0  0  0
    3.0233    3.8710    2.3355 C   0  0  0  0  0  0  0  0  0  0  0  0
    2.1087    3.5364    1.5326 O   0  0  0  0  0  0  0  0  0  0  0  0
    4.2856    4.4522    1.9538 C   0  0  0  0  0  0  0  0  0  0  0  0
    4.6959    4.8477    0.6560 C   0  0  0  0  0  0  0  0  0  0  0  0
    5.9417    5.4381    0.6104 C   0  0  0  0  0  0  0  0  0  0  0  0
    6.7469    5.6393    1.7776 C   0  0  0  0  0  0  0  0  0  0  0  0
    6.3496    5.2735    3.0497 C   0  0  0  0  0  0  0  0  0  0  0  0
    5.0804    4.6357    3.1093 C   0  0  0  0  0  0  0  0  0  0  0  0
    4.3513    4.1081    4.2892 C   0  0  0  0  0  0  0  0  0  0  0  0
    4.9000    3.6725    5.4512 C   0  0  0  0  0  0  0  0  0  0  0  0
    4.1618    2.8162    6.3476 C   0  0  0  0  0  0  0  0  0  0  0  0
    3.5870    2.1198    7.0612 N   0  0  0  0  0  0  0  0  0  0  0  0
    6.2935    3.8507    5.7703 C   0  0  0  0  0  0  0  0  0  0  0  0
    7.4123    3.9635    6.0470 N   0  0  0  0  0  0  0  0  0  0  0  0
    7.8272    6.2590    0.9455 C   0  0  0  0  0  0  0  0  0  0  0  0
    9.0996    5.4112    0.6505 C   0  0  0  0  0  0  0  0  0  0  0  0
    8.7515    3.9350    0.6075 C   0  0  0  0  0  0  0  0  0  0  0  0
    8.0041    3.7556   -0.4797 C   0  0  0  0  0  0  0  0  0  0  0  0
    7.8604    5.1163   -1.1369 C   0  0  0  0  0  0  0  0  0  0  0  0
    9.2432    5.6560   -0.8333 C   0  0  0  0  0  0  0  0  0  0  0  0
    6.9973    6.0654   -0.2485 C   0  0  0  0  0  0  0  0  0  0  0  0
    0.5293    3.3870    4.0058 C   0  0  0  0  0  0  0  0  0  0  0  0
   -0.2272    4.1366    3.0971 C   0  0  0  0  0  0  0  0  0  0  0  0
   -0.2017    5.5719    2.9352 N   0  0  0  0  0  0  0  0  0  0  0  0
    0.9777    6.3617    3.0824 C   0  0  0  0  0  0  0  0  0  0  0  0
    1.3861    6.7910    4.3532 C   0  0  0  0  0  0  0  0  0  0  0  0
    2.4901    7.6527    4.4875 C   0  0  0  0  0  0  0  0  0  0  0  0
    3.1762    8.1030    3.3506 C   0  0  0  0  0  0  0  0  0  0  0  0
    4.3391    9.0405    3.4920 C   0  0  0  0  0  0  0  0  0  0  0  0
    2.7561    7.6803    2.0737 C   0  0  0  0  0  0  0  0  0  0  0  0
    1.6662    6.8086    1.9521 C   0  0  0  0  0  0  0  0  0  0  0  0
   -1.4586    6.2647    2.9222 C   0  0  0  0  0  0  0  0  0  0  0  0
   -2.0619    6.6357    1.7153 C   0  0  0  0  0  0  0  0  0  0  0  0
   -3.3400    7.2031    1.7103 C   0  0  0  0  0  0  0  0  0  0  0  0
   -4.0270    7.4136    2.9219 C   0  0  0  0  0  0  0  0  0  0  0  0
   -5.4004    8.0193    2.9241 C   0  0  0  0  0  0  0  0  0  0  0  0
   -3.4145    7.0675    4.1316 C   0  0  0  0  0  0  0  0  0  0  0  0
   -2.1505    6.4775    4.1379 C   0  0  0  0  0  0  0  0  0  0  0  0
   -1.2072    3.3436    2.5055 C   0  0  0  0  0  0  0  0  0  0  0  0
   -1.7136    3.3462    0.9143 S   0  0  0  0  0  0  0  0  0  0  0  0
   -2.2275    1.7231    0.8935 C   0  0  0  0  0  0  0  0  0  0  0  0
   -2.0167    1.1754    2.1792 C   0  0  0  0  0  0  0  0  0  0  0  0
   -2.9185    0.1885    2.7085 N   0  0  0  0  0  0  0  0  0  0  0  0
   -2.5785   -0.6069    3.8526 C   0  0  0  0  0  0  0  0  0  0  0  0
   -2.6382   -0.0323    5.1401 C   0  0  0  0  0  0  0  0  0  0  0  0
   -2.4660   -0.8311    6.2740 C   0  0  0  0  0  0  0  0  0  0  0  0
   -2.2808   -2.2120    6.1450 C   0  0  0  0  0  0  0  0  0  0  0  0
   -2.1689   -3.0652    7.3715 C   0  0  0  0  0  0  0  0  0  0  0  0
   -2.2343   -2.7866    4.8650 C   0  0  0  0  0  0  0  0  0  0  0  0
   -2.3811   -1.9885    3.7234 C   0  0  0  0  0  0  0  0  0  0  0  0
   -4.3191    0.4154    2.5030 C   0  0  0  0  0  0  0  0  0  0  0  0
   -5.0990   -0.5497    1.8510 C   0  0  0  0  0  0  0  0  0  0  0  0
   -6.4482   -0.2984    1.5834 C   0  0  0  0  0  0  0  0  0  0  0  0
   -7.0493    0.8826    2.0520 C   0  0  0  0  0  0  0  0  0  0  0  0
   -8.4729    1.1811    1.6800 C   0  0  0  0  0  0  0  0  0  0  0  0
   -6.2764    1.8323    2.7254 C   0  0  0  0  0  0  0  0  0  0  0  0
   -4.9247    1.5934    2.9647 C   0  0  0  0  0  0  0  0  0  0  0  0
   -1.3688    2.0926    3.0083 C   0  0  0  0  0  0  0  0  0  0  0  0
   -0.1318    1.8236    4.1144 S   0  0  0  0  0  0  0  0  0  0  0  0
   -1.8937    0.9246   -0.2923 C   0  0  0  0  0  0  0  0  0  0  0  0
   -2.7352    0.4194   -1.3009 C   0  0  0  0  0  0  0  0  0  0  0  0
   -4.1449    0.6929   -1.4368 N   0  0  0  0  0  0  0  0  0  0  0  0
   -5.0686   -0.3897   -1.7337 C   0  0  0  0  0  0  0  0  0  0  0  0
   -4.7906   -1.6986   -1.2993 C   0  0  0  0  0  0  0  0  0  0  0  0
   -5.5892   -2.7718   -1.7014 C   0  0  0  0  0  0  0  0  0  0  0  0
   -6.6915   -2.5496   -2.5354 C   0  0  0  0  0  0  0  0  0  0  0  0
   -7.6413   -3.9436   -3.1585 S   0  0  0  0  0  0  0  0  0  0  0  0
   -6.6418   -4.1113   -4.6782 C   0  0  0  0  0  0  0  0  0  0  0  0
   -7.0302   -1.2476   -2.9005 C   0  0  0  0  0  0  0  0  0  0  0  0
   -6.2409   -0.1680   -2.4910 C   0  0  0  0  0  0  0  0  0  0  0  0
   -4.5196    2.0698   -1.6428 C   0  0  0  0  0  0  0  0  0  0  0  0
   -4.7990    2.9007   -0.5529 C   0  0  0  0  0  0  0  0  0  0  0  0
   -4.8896    4.2803   -0.7243 C   0  0  0  0  0  0  0  0  0  0  0  0
   -4.7679    4.8391   -2.0025 C   0  0  0  0  0  0  0  0  0  0  0  0
   -4.7039    6.6183   -2.1867 S   0  0  0  0  0  0  0  0  0  0  0  0
   -2.8981    6.6412   -2.4078 C   0  0  0  0  0  0  0  0  0  0  0  0
   -4.5925    4.0012   -3.1077 C   0  0  0  0  0  0  0  0  0  0  0  0
   -4.4389    2.6247   -2.9278 C   0  0  0  0  0  0  0  0  0  0  0  0
   -2.0001   -0.3804   -2.2001 C   0  0  0  0  0  0  0  0  0  0  0  0
   -2.4098   -1.3913   -3.4728 S   0  0  0  0  0  0  0  0  0  0  0  0
   -0.8436   -2.0336   -3.6739 C   0  0  0  0  0  0  0  0  0  0  0  0
    0.0365   -1.3961   -2.7661 C   0  0  0  0  0  0  0  0  0  0  0  0
    1.4665   -1.6226   -2.7061 N   0  0  0  0  0  0  0  0  0  0  0  0
    2.2849   -0.9592   -1.7212 C   0  0  0  0  0  0  0  0  0  0  0  0
    2.7664    0.3305   -1.9765 C   0  0  0  0  0  0  0  0  0  0  0  0
    3.6158    0.9531   -1.0496 C   0  0  0  0  0  0  0  0  0  0  0  0
    3.9922    0.2816    0.1181 C   0  0  0  0  0  0  0  0  0  0  0  0
    5.0931    1.0849    1.2827 S   0  0  0  0  0  0  0  0  0  0  0  0
    6.5832    0.3430    0.5705 C   0  0  0  0  0  0  0  0  0  0  0  0
    3.5159   -1.0084    0.3594 C   0  0  0  0  0  0  0  0  0  0  0  0
    2.6475   -1.6166   -0.5402 C   0  0  0  0  0  0  0  0  0  0  0  0
    2.1583   -2.2528   -3.7919 C   0  0  0  0  0  0  0  0  0  0  0  0
    2.0419   -1.7446   -5.0983 C   0  0  0  0  0  0  0  0  0  0  0  0
    2.7191   -2.3494   -6.1538 C   0  0  0  0  0  0  0  0  0  0  0  0
    3.5454   -3.4503   -5.9176 C   0  0  0  0  0  0  0  0  0  0  0  0
    4.3979   -4.2411   -7.2901 S   0  0  0  0  0  0  0  0  0  0  0  0
    3.0533   -5.4262   -7.5873 C   0  0  0  0  0  0  0  0  0  0  0  0
    3.6891   -3.9458   -4.6119 C   0  0  0  0  0  0  0  0  0  0  0  0
    3.0043   -3.3436   -3.5562 C   0  0  0  0  0  0  0  0  0  0  0  0
   -0.6696   -0.4990   -1.9448 C   0  0  0  0  0  0  0  0  0  0  0  0
   -0.3121    0.3810   -0.5626 S   0  0  0  0  0  0  0  0  0  0  0  0
   -0.6431   -3.3691   -4.2551 C   0  0  0  0  0  0  0  0  0  0  0  0
   -1.2517   -3.7154   -5.4697 C   0  0  0  0  0  0  0  0  0  0  0  0
   -1.3601   -5.0285   -5.8259 N   0  0  0  0  0  0  0  0  0  0  0  0
   -0.8769   -6.0081   -5.0295 C   0  0  0  0  0  0  0  0  0  0  0  0
   -0.1944   -5.6562   -3.8502 C   0  0  0  0  0  0  0  0  0  0  0  0
   -0.1232   -4.3526   -3.4791 N   0  0  0  0  0  0  0  0  0  0  0  0
   -1.1946   -7.4135   -5.3274 C   0  0  0  0  0  0  0  0  0  0  0  0
   -2.0543   -8.1227   -4.5573 C   0  0  0  0  0  0  0  0  0  0  0  0
   -2.7052   -7.6046   -3.0926 S   0  0  0  0  0  0  0  0  0  0  0  0
   -3.7471   -8.9228   -2.9404 C   0  0  0  0  0  0  0  0  0  0  0  0
   -4.6000   -9.0823   -1.8973 C   0  0  0  0  0  0  0  0  0  0  0  0
   -4.6707   -8.0571   -0.8722 C   0  0  0  0  0  0  0  0  0  0  0  0
   -4.7299   -7.2146   -0.0835 N   0  0  0  0  0  0  0  0  0  0  0  0
   -5.3200  -10.3024   -1.6325 C   0  0  0  0  0  0  0  0  0  0  0  0
   -5.8592  -11.2954   -1.3998 N   0  0  0  0  0  0  0  0  0  0  0  0
   -3.5923   -9.7792   -3.9888 N   0  0  0  0  0  0  0  0  0  0  0  0
   -4.5452  -10.7939   -4.3719 C   0  0  0  0  0  0  0  0  0  0  0  0
   -5.8214  -10.4040   -4.8299 C   0  0  0  0  0  0  0  0  0  0  0  0
   -6.7749  -11.3731   -5.1884 C   0  0  0  0  0  0  0  0  0  0  0  0
   -6.4507  -12.7331   -5.1182 C   0  0  0  0  0  0  0  0  0  0  0  0
   -5.1862  -13.1248   -4.6648 C   0  0  0  0  0  0  0  0  0  0  0  0
   -4.2298  -12.1668   -4.3090 C   0  0  0  0  0  0  0  0  0  0  0  0
   -2.6419   -9.3518   -4.8741 C   0  0  0  0  0  0  0  0  0  0  0  0
   -2.3236  -10.0399   -5.8765 O   0  0  0  0  0  0  0  0  0  0  0  0
    1.9267    3.8088    5.6322 H   0  0  0  0  0  0  0  0  0  0  0  0
    4.0748    4.7342   -0.2271 H   0  0  0  0  0  0  0  0  0  0  0  0
    6.9750    5.4962    3.9116 H   0  0  0  0  0  0  0  0  0  0  0  0
    8.0277    7.3321    1.1904 H   0  0  0  0  0  0  0  0  0  0  0  0
    9.9940    5.6566    1.2644 H   0  0  0  0  0  0  0  0  0  0  0  0
    9.0782    3.1588    1.2853 H   0  0  0  0  0  0  0  0  0  0  0  0
    7.6166    2.8064   -0.8291 H   0  0  0  0  0  0  0  0  0  0  0  0
    7.5794    5.0818   -2.2100 H   0  0  0  0  0  0  0  0  0  0  0  0
    9.3608    6.7419   -1.0883 H   0  0  0  0  0  0  0  0  0  0  0  0
   10.0651    5.0808   -1.3172 H   0  0  0  0  0  0  0  0  0  0  0  0
    6.6907    7.0147   -0.7322 H   0  0  0  0  0  0  0  0  0  0  0  0
    0.8526    6.4781    5.2391 H   0  0  0  0  0  0  0  0  0  0  0  0
    2.7946    7.9659    5.4759 H   0  0  0  0  0  0  0  0  0  0  0  0
    4.2976    9.5845    4.4508 H   0  0  0  0  0  0  0  0  0  0  0  0
    4.3189    9.7956    2.6710 H   0  0  0  0  0  0  0  0  0  0  0  0
    5.2879    8.4651    3.4312 H   0  0  0  0  0  0  0  0  0  0  0  0
    3.2738    8.0169    1.1877 H   0  0  0  0  0  0  0  0  0  0  0  0
    1.3470    6.4930    0.9655 H   0  0  0  0  0  0  0  0  0  0  0  0
   -1.5445    6.4668    0.7847 H   0  0  0  0  0  0  0  0  0  0  0  0
   -3.8146    7.4565    0.7763 H   0  0  0  0  0  0  0  0  0  0  0  0
   -6.0110    7.5710    3.7384 H   0  0  0  0  0  0  0  0  0  0  0  0
   -5.9169    7.8293    1.9597 H   0  0  0  0  0  0  0  0  0  0  0  0
   -5.3355    9.1142    3.0897 H   0  0  0  0  0  0  0  0  0  0  0  0
   -3.9296    7.1993    5.0786 H   0  0  0  0  0  0  0  0  0  0  0  0
   -1.6970    6.1779    5.0746 H   0  0  0  0  0  0  0  0  0  0  0  0
   -2.8240    1.0281    5.2528 H   0  0  0  0  0  0  0  0  0  0  0  0
   -2.5128   -0.3658    7.2518 H   0  0  0  0  0  0  0  0  0  0  0  0
   -3.1228   -3.0422    7.9419 H   0  0  0  0  0  0  0  0  0  0  0  0
   -1.3567   -2.6822    8.0299 H   0  0  0  0  0  0  0  0  0  0  0  0
   -1.9380   -4.1254    7.1218 H   0  0  0  0  0  0  0  0  0  0  0  0
   -2.1122   -3.8569    4.7476 H   0  0  0  0  0  0  0  0  0  0  0  0
   -2.3765   -2.4500    2.7501 H   0  0  0  0  0  0  0  0  0  0  0  0
   -4.6473   -1.4743    1.5189 H   0  0  0  0  0  0  0  0  0  0  0  0
   -7.0299   -1.0127    1.0154 H   0  0  0  0  0  0  0  0  0  0  0  0
   -8.5141    1.4859    0.6211 H   0  0  0  0  0  0  0  0  0  0  0  0
   -8.8879    2.0046    2.3097 H   0  0  0  0  0  0  0  0  0  0  0  0
   -9.1124    0.2887    1.8340 H   0  0  0  0  0  0  0  0  0  0  0  0
   -6.7318    2.7425    3.0987 H   0  0  0  0  0  0  0  0  0  0  0  0
   -4.3419    2.3273    3.5065 H   0  0  0  0  0  0  0  0  0  0  0  0
   -3.9190   -1.9040   -0.7001 H   0  0  0  0  0  0  0  0  0  0  0  0
   -5.3227   -3.7816   -1.3981 H   0  0  0  0  0  0  0  0  0  0  0  0
   -6.8489   -3.2734   -5.3705 H   0  0  0  0  0  0  0  0  0  0  0  0
   -5.5652   -4.1313   -4.4381 H   0  0  0  0  0  0  0  0  0  0  0  0
   -6.9012   -5.0620   -5.1957 H   0  0  0  0  0  0  0  0  0  0  0  0
   -7.8947   -1.0642   -3.5376 H   0  0  0  0  0  0  0  0  0  0  0  0
   -6.5183    0.8229   -2.8152 H   0  0  0  0  0  0  0  0  0  0  0  0
   -4.8556    2.4846    0.4473 H   0  0  0  0  0  0  0  0  0  0  0  0
   -5.0185    4.9243    0.1422 H   0  0  0  0  0  0  0  0  0  0  0  0
   -2.6512    6.3136   -3.4358 H   0  0  0  0  0  0  0  0  0  0  0  0
   -2.3881    5.9762   -1.6825 H   0  0  0  0  0  0  0  0  0  0  0  0
   -2.5223    7.6792   -2.2589 H   0  0  0  0  0  0  0  0  0  0  0  0
   -4.5336    4.4205   -4.1030 H   0  0  0  0  0  0  0  0  0  0  0  0
   -4.2306    1.9899   -3.7882 H   0  0  0  0  0  0  0  0  0  0  0  0
    2.5184    0.8451   -2.9024 H   0  0  0  0  0  0  0  0  0  0  0  0
    4.0138    1.9432   -1.2722 H   0  0  0  0  0  0  0  0  0  0  0  0
    7.4812    0.8035    1.0487 H   0  0  0  0  0  0  0  0  0  0  0  0
    6.6385    0.5280   -0.5379 H   0  0  0  0  0  0  0  0  0  0  0  0
    6.5991   -0.7419    0.7601 H   0  0  0  0  0  0  0  0  0  0  0  0
    3.8050   -1.5338    1.2624 H   0  0  0  0  0  0  0  0  0  0  0  0
    2.2890   -2.6295   -0.3564 H   0  0  0  0  0  0  0  0  0  0  0  0
    1.4035   -0.8810   -5.2842 H   0  0  0  0  0  0  0  0  0  0  0  0
    2.5979   -1.9658   -7.1629 H   0  0  0  0  0  0  0  0  0  0  0  0
    2.0865   -4.8962   -7.7203 H   0  0  0  0  0  0  0  0  0  0  0  0
    2.9832   -6.1234   -6.7239 H   0  0  0  0  0  0  0  0  0  0  0  0
    3.2736   -6.0027   -8.5094 H   0  0  0  0  0  0  0  0  0  0  0  0
    4.3378   -4.7932   -4.4213 H   0  0  0  0  0  0  0  0  0  0  0  0
    3.1216   -3.7365   -2.5641 H   0  0  0  0  0  0  0  0  0  0  0  0
   -1.7172   -2.9618   -6.0927 H   0  0  0  0  0  0  0  0  0  0  0  0
    0.2242   -6.4288   -3.2181 H   0  0  0  0  0  0  0  0  0  0  0  0
   -0.8600   -7.8332   -6.2721 H   0  0  0  0  0  0  0  0  0  0  0  0
   -6.0851   -9.3542   -4.8786 H   0  0  0  0  0  0  0  0  0  0  0  0
   -7.7626  -11.0752   -5.5344 H   0  0  0  0  0  0  0  0  0  0  0  0
   -7.1873  -13.4885   -5.4004 H   0  0  0  0  0  0  0  0  0  0  0  0
   -4.9439  -14.1799   -4.6058 H   0  0  0  0  0  0  0  0  0  0  0  0
   -3.2560  -12.4756   -3.9477 H   0  0  0  0  0  0  0  0  0  0  0  0
  1  2  2  3
  2  3  1  0
  3  4  2  0
  3  5  1  0
  5  6  2  0
  6  7  1  0
  7  8  2  0
  8  9  1  0
  9 10  2  0
 10 11  1  0
 11 12  2  3
 12 13  1  0
 13 14  3  0
 12 15  1  0
 15 16  3  0
  8 17  1  0
 17 18  1  0
 18 19  1  0
 19 20  2  0
 20 21  1  0
 21 22  1  0
 21 23  1  0
  1 24  1  0
 24 25  2  0
 25 26  1  0
 26 27  1  0
 27 28  2  0
 28 29  1  0
 29 30  2  0
 30 31  1  0
 30 32  1  0
 32 33  2  0
 26 34  1  0
 34 35  2  0
 35 36  1  0
 36 37  2  0
 37 38  1  0
 37 39  1  0
 39 40  2  0
 25 41  1  0
 41 42  1  0
 42 43  1  0
 43 44  2  0
 44 45  1  0
 45 46  1  0
 46 47  2  0
 47 48  1  0
 48 49  2  0
 49 50  1  0
 49 51  1  0
 51 52  2  0
 45 53  1  0
 53 54  2  0
 54 55  1  0
 55 56  2  0
 56 57  1  0
 56 58  1  0
 58 59  2  0
 44 60  1  0
 60 61  1  0
 43 62  1  0
 62 63  2  0
 63 64  1  0
 64 65  1  0
 65 66  2  0
 66 67  1  0
 67 68  2  0
 68 69  1  0
 69 70  1  0
 68 71  1  0
 71 72  2  0
 64 73  1  0
 73 74  2  0
 74 75  1  0
 75 76  2  0
 76 77  1  0
 77 78  1  0
 76 79  1  0
 79 80  2  0
 63 81  1  0
 81 82  1  0
 82 83  1  0
 83 84  2  0
 84 85  1  0
 85 86  1  0
 86 87  2  0
 87 88  1  0
 88 89  2  0
 89 90  1  0
 90 91  1  0
 89 92  1  0
 92 93  2  0
 85 94  1  0
 94 95  2  0
 95 96  1  0
 96 97  2  0
 97 98  1  0
 98 99  1  0
 97100  1  0
100101  2  0
 84102  1  0
102103  1  0
 83104  1  0
104105  2  0
105106  1  0
106107  2  0
107108  1  0
108109  2  0
107110  1  0
110111  2  3
111112  1  0
112113  1  0
113114  2  3
114115  1  0
115116  3  0
114117  1  0
117118  3  0
113119  1  0
119120  1  0
120121  2  0
121122  1  0
122123  2  0
123124  1  0
124125  2  0
119126  1  0
126127  2  0
 11  2  1  0
 23 17  1  0
 61 24  1  0
103 62  1  0
109104  1  0
126111  1  0
 10  5  1  0
 22 18  1  0
 33 27  1  0
 40 34  1  0
 60 41  2  0
 72 65  1  0
 80 73  1  0
102 81  2  0
125120  1  0
 23  7  1  0
 52 46  1  0
 59 53  1  0
 93 86  1  0
101 94  1  0
  1128  1  0
  6129  1  0
  9130  1  0
 17131  1  0
 18132  1  0
 19133  1  0
 20134  1  0
 21135  1  0
 22136  1  0
 22137  1  0
 23138  1  0
 28139  1  0
 29140  1  0
 31141  1  0
 31142  1  0
 31143  1  0
 32144  1  0
 33145  1  0
 35146  1  0
 36147  1  0
 38148  1  0
 38149  1  0
 38150  1  0
 39151  1  0
 40152  1  0
 47153  1  0
 48154  1  0
 50155  1  0
 50156  1  0
 50157  1  0
 51158  1  0
 52159  1  0
 54160  1  0
 55161  1  0
 57162  1  0
 57163  1  0
 57164  1  0
 58165  1  0
 59166  1  0
 66167  1  0
 67168  1  0
 70169  1  0
 70170  1  0
 70171  1  0
 71172  1  0
 72173  1  0
 74174  1  0
 75175  1  0
 78176  1  0
 78177  1  0
 78178  1  0
 79179  1  0
 80180  1  0
 87181  1  0
 88182  1  0
 91183  1  0
 91184  1  0
 91185  1  0
 92186  1  0
 93187  1  0
 95188  1  0
 96189  1  0
 99190  1  0
 99191  1  0
 99192  1  0
100193  1  0
101194  1  0
105195  1  0
108196  1  0
110197  1  0
121198  1  0
122199  1  0
123200  1  0
124201  1  0
125202  1  0
M  END

