
     RDKit          3D

235257  0  0  0  0  0  0  0  0999 V2000
   -0.1283   -2.0843   -7.3609 C   0  0  0  0  0  0  0  0  0  0  0  0
   -1.2792   -1.4672   -7.6883 C   0  0  0  0  0  0  0  0  0  0  0  0
   -1.6733   -1.2719   -9.0818 C   0  0  0  0  0  0  0  0  0  0  0  0
   -0.9378   -1.4654  -10.0835 O   0  0  0  0  0  0  0  0  0  0  0  0
   -3.0371   -0.8043   -9.1273 C   0  0  0  0  0  0  0  0  0  0  0  0
   -3.7372   -0.3545  -10.2718 C   0  0  0  0  0  0  0  0  0  0  0  0
   -4.9549    0.2321   -9.9862 C   0  0  0  0  0  0  0  0  0  0  0  0
   -5.4694    0.3606   -8.6564 C   0  0  0  0  0  0  0  0  0  0  0  0
   -4.7965   -0.0898   -7.5326 C   0  0  0  0  0  0  0  0  0  0  0  0
   -3.5286   -0.6879   -7.7976 C   0  0  0  0  0  0  0  0  0  0  0  0
   -2.4334   -1.0301   -6.8374 C   0  0  0  0  0  0  0  0  0  0  0  0
   -2.3877   -0.5975   -5.5537 C   0  0  0  0  0  0  0  0  0  0  0  0
   -3.5679   -0.4820   -4.7398 C   0  0  0  0  0  0  0  0  0  0  0  0
   -4.5074   -0.3944   -4.0682 N   0  0  0  0  0  0  0  0  0  0  0  0
   -1.1764   -0.1273   -4.9417 C   0  0  0  0  0  0  0  0  0  0  0  0
   -0.2225    0.2743   -4.4276 N   0  0  0  0  0  0  0  0  0  0  0  0
   -6.6507    1.1259   -9.1708 C   0  0  0  0  0  0  0  0  0  0  0  0
   -6.6223    2.6648   -8.9163 C   0  0  0  0  0  0  0  0  0  0  0  0
   -7.6766    3.2534   -9.8220 C   0  0  0  0  0  0  0  0  0  0  0  0
   -7.2127    3.1295  -11.0737 C   0  0  0  0  0  0  0  0  0  0  0  0
   -5.8580    2.4654  -10.9650 C   0  0  0  0  0  0  0  0  0  0  0  0
   -5.3875    3.1202   -9.6762 C   0  0  0  0  0  0  0  0  0  0  0  0
   -6.1298    0.9906  -10.5345 C   0  0  0  0  0  0  0  0  0  0  0  0
    0.2761   -2.4940   -6.0129 C   0  0  0  0  0  0  0  0  0  0  0  0
   -0.4558   -3.2651   -5.1116 C   0  0  0  0  0  0  0  0  0  0  0  0
    0.1736   -3.3642   -3.8573 C   0  0  0  0  0  0  0  0  0  0  0  0
   -0.3270   -4.0086   -2.7095 C   0  0  0  0  0  0  0  0  0  0  0  0
   -1.5708   -4.7992   -2.7155 C   0  0  0  0  0  0  0  0  0  0  0  0
   -2.8397   -4.3624   -3.0812 C   0  0  0  0  0  0  0  0  0  0  0  0
   -3.8367   -5.3288   -2.8741 C   0  0  0  0  0  0  0  0  0  0  0  0
   -3.3533   -6.5113   -2.3264 C   0  0  0  0  0  0  0  0  0  0  0  0
   -4.3062   -8.0610   -2.0125 Si  0  0  0  0  0  4  0  0  0  0  0  0
   -3.8407   -9.2684   -3.3730 C   0  0  0  0  0  0  0  0  0  0  0  0
   -4.5406  -10.6100   -3.2116 C   0  0  0  0  0  0  0  0  0  0  0  0
   -3.9125   -8.7670   -0.3082 C   0  0  0  0  0  0  0  0  0  0  0  0
   -2.4985   -9.3271   -0.2055 C   0  0  0  0  0  0  0  0  0  0  0  0
   -6.1580   -7.7323   -2.0959 C   0  0  0  0  0  0  0  0  0  0  0  0
   -6.6222   -6.8250   -0.9631 C   0  0  0  0  0  0  0  0  0  0  0  0
   -1.6930   -6.3723   -2.1430 S   0  0  0  0  0  0  0  0  0  0  0  0
    0.3948   -3.8285   -1.5171 C   0  0  0  0  0  0  0  0  0  0  0  0
    1.5474   -3.0431   -1.4297 C   0  0  0  0  0  0  0  0  0  0  0  0
    2.1002   -2.4757   -2.5993 C   0  0  0  0  0  0  0  0  0  0  0  0
    3.2612   -1.5694   -2.5784 C   0  0  0  0  0  0  0  0  0  0  0  0
    4.3659   -1.6658   -3.4201 C   0  0  0  0  0  0  0  0  0  0  0  0
    5.1705   -0.5217   -3.4148 C   0  0  0  0  0  0  0  0  0  0  0  0
    4.6890    0.4886   -2.5899 C   0  0  0  0  0  0  0  0  0  0  0  0
    5.4869    2.1464   -2.3931 Si  0  0  0  0  0  4  0  0  0  0  0  0
    5.7680    2.8677   -4.1057 C   0  0  0  0  0  0  0  0  0  0  0  0
    4.4582    3.1728   -4.8242 C   0  0  0  0  0  0  0  0  0  0  0  0
    7.1792    1.8798   -1.6276 C   0  0  0  0  0  0  0  0  0  0  0  0
    7.1325    0.8373   -0.5164 C   0  0  0  0  0  0  0  0  0  0  0  0
    4.5676    3.3931   -1.3148 C   0  0  0  0  0  0  0  0  0  0  0  0
    3.0491    3.3191   -1.4199 C   0  0  0  0  0  0  0  0  0  0  0  0
    3.2748   -0.0500   -1.8546 S   0  0  0  0  0  0  0  0  0  0  0  0
    1.3930   -2.6785   -3.7985 C   0  0  0  0  0  0  0  0  0  0  0  0
    1.7168   -2.0037   -5.3021 S   0  0  0  0  0  0  0  0  0  0  0  0
    1.9631   -2.8127   -0.0998 C   0  0  0  0  0  0  0  0  0  0  0  0
    1.1156   -3.3939    0.8532 C   0  0  0  0  0  0  0  0  0  0  0  0
   -0.0976   -4.2178    0.0299 S   0  0  0  0  0  0  0  0  0  0  0  0
    0.9595   -2.9244    2.2465 C   0  0  0  0  0  0  0  0  0  0  0  0
   -0.2709   -2.9916    2.9368 C   0  0  0  0  0  0  0  0  0  0  0  0
   -0.9799   -4.2349    3.0755 N   0  0  0  0  0  0  0  0  0  0  0  0
   -2.4108   -4.2929    3.0919 C   0  0  0  0  0  0  0  0  0  0  0  0
   -3.1098   -4.1266    4.2971 C   0  0  0  0  0  0  0  0  0  0  0  0
   -4.4960   -4.3113    4.3388 C   0  0  0  0  0  0  0  0  0  0  0  0
   -5.1898   -4.6806    3.1780 C   0  0  0  0  0  0  0  0  0  0  0  0
   -6.9543   -4.9935    3.2412 S   0  0  0  0  0  0  0  0  0  0  0  0
   -6.7432   -6.7680    3.5919 C   0  0  0  0  0  0  0  0  0  0  0  0
   -4.4950   -4.8414    1.9737 C   0  0  0  0  0  0  0  0  0  0  0  0
   -3.1141   -4.6597    1.9326 C   0  0  0  0  0  0  0  0  0  0  0  0
   -0.2424   -5.3703    3.5568 C   0  0  0  0  0  0  0  0  0  0  0  0
   -0.1874   -6.5533    2.8057 C   0  0  0  0  0  0  0  0  0  0  0  0
    0.6479   -7.6011    3.2098 C   0  0  0  0  0  0  0  0  0  0  0  0
    1.4066   -7.4849    4.3830 C   0  0  0  0  0  0  0  0  0  0  0  0
    2.5112   -8.8075    4.8838 S   0  0  0  0  0  0  0  0  0  0  0  0
    3.9709   -8.0422    4.1051 C   0  0  0  0  0  0  0  0  0  0  0  0
    1.3107   -6.3276    5.1626 C   0  0  0  0  0  0  0  0  0  0  0  0
    0.4996   -5.2707    4.7439 C   0  0  0  0  0  0  0  0  0  0  0  0
   -0.3799   -1.9703    3.8817 C   0  0  0  0  0  0  0  0  0  0  0  0
   -1.7031   -1.0002    4.2419 S   0  0  0  0  0  0  0  0  0  0  0  0
   -0.8117    0.3861    4.6813 C   0  0  0  0  0  0  0  0  0  0  0  0
    0.5437    0.0653    4.5449 C   0  0  0  0  0  0  0  0  0  0  0  0
    1.6063    0.7832    5.1849 N   0  0  0  0  0  0  0  0  0  0  0  0
    2.3207    1.8474    4.5158 C   0  0  0  0  0  0  0  0  0  0  0  0
    3.1771    2.6908    5.2544 C   0  0  0  0  0  0  0  0  0  0  0  0
    4.0434    3.5712    4.6036 C   0  0  0  0  0  0  0  0  0  0  0  0
    4.0551    3.6361    3.2082 C   0  0  0  0  0  0  0  0  0  0  0  0
    5.3054    4.6121    2.3718 S   0  0  0  0  0  0  0  0  0  0  0  0
    6.5082    3.2465    2.3605 C   0  0  0  0  0  0  0  0  0  0  0  0
    3.1419    2.8752    2.4707 C   0  0  0  0  0  0  0  0  0  0  0  0
    2.2777    1.9881    3.1166 C   0  0  0  0  0  0  0  0  0  0  0  0
    2.1925    0.1200    6.3246 C   0  0  0  0  0  0  0  0  0  0  0  0
    3.5217   -0.3380    6.2788 C   0  0  0  0  0  0  0  0  0  0  0  0
    4.0374   -1.1200    7.3180 C   0  0  0  0  0  0  0  0  0  0  0  0
    3.2307   -1.4591    8.4097 C   0  0  0  0  0  0  0  0  0  0  0  0
    3.8663   -2.5311    9.7012 S   0  0  0  0  0  0  0  0  0  0  0  0
    3.3223   -4.0552    8.8633 C   0  0  0  0  0  0  0  0  0  0  0  0
    1.9167   -0.9814    8.4775 C   0  0  0  0  0  0  0  0  0  0  0  0
    1.3984   -0.2067    7.4370 C   0  0  0  0  0  0  0  0  0  0  0  0
    0.7423   -1.2114    4.0319 C   0  0  0  0  0  0  0  0  0  0  0  0
    1.8988   -1.6810    2.9167 S   0  0  0  0  0  0  0  0  0  0  0  0
   -1.2826    1.7778    4.4751 C   0  0  0  0  0  0  0  0  0  0  0  0
   -1.7531    2.1740    3.1988 C   0  0  0  0  0  0  0  0  0  0  0  0
   -2.1386    1.2189    2.2518 O   0  0  0  0  0  0  0  0  0  0  0  0
   -3.4870    0.7538    2.1402 C   0  0  0  0  0  0  0  0  0  0  0  0
   -4.3696    1.7645    1.4206 C   0  0  0  0  0  0  0  0  0  0  0  0
   -1.7808    3.5305    2.8352 C   0  0  0  0  0  0  0  0  0  0  0  0
   -2.1340    3.8817    1.5261 O   0  0  0  0  0  0  0  0  0  0  0  0
   -1.1610    4.1302    0.5124 C   0  0  0  0  0  0  0  0  0  0  0  0
   -0.6156    2.8232   -0.0518 C   0  0  0  0  0  0  0  0  0  0  0  0
   -1.4476    4.5306    3.7657 C   0  0  0  0  0  0  0  0  0  0  0  0
   -1.1030    4.1549    5.0736 C   0  0  0  0  0  0  0  0  0  0  0  0
   -0.9921    2.7771    5.4176 C   0  0  0  0  0  0  0  0  0  0  0  0
   -0.5827    2.5008    6.6816 N   0  0  0  0  0  0  0  0  0  0  0  0
   -0.3929    4.0285    7.2766 S   0  0  0  0  0  0  0  0  0  0  0  0
   -0.7926    5.0516    6.0435 N   0  0  0  0  0  0  0  0  0  0  0  0
   -1.4768    5.9434    3.3317 C   0  0  0  0  0  0  0  0  0  0  0  0
   -0.3663    6.6235    2.9851 C   0  0  0  0  0  0  0  0  0  0  0  0
    0.9992    6.2934    3.4088 C   0  0  0  0  0  0  0  0  0  0  0  0
    1.3645    5.2492    4.0116 O   0  0  0  0  0  0  0  0  0  0  0  0
    1.8850    7.3616    3.0152 C   0  0  0  0  0  0  0  0  0  0  0  0
    3.2831    7.4226    3.2288 C   0  0  0  0  0  0  0  0  0  0  0  0
    3.9056    8.4674    2.5722 C   0  0  0  0  0  0  0  0  0  0  0  0
    3.1968    9.4062    1.7595 C   0  0  0  0  0  0  0  0  0  0  0  0
    1.8233    9.3783    1.5824 C   0  0  0  0  0  0  0  0  0  0  0  0
    1.1546    8.3232    2.2708 C   0  0  0  0  0  0  0  0  0  0  0  0
   -0.2794    7.9055    2.2103 C   0  0  0  0  0  0  0  0  0  0  0  0
   -1.2594    8.4794    1.4627 C   0  0  0  0  0  0  0  0  0  0  0  0
   -2.4548    7.7754    1.0832 C   0  0  0  0  0  0  0  0  0  0  0  0
   -3.4139    7.2115    0.7625 N   0  0  0  0  0  0  0  0  0  0  0  0
   -1.1508    9.8096    0.9213 C   0  0  0  0  0  0  0  0  0  0  0  0
   -1.0820   10.8820    0.4899 N   0  0  0  0  0  0  0  0  0  0  0  0
    4.4835   10.0694    1.3728 C   0  0  0  0  0  0  0  0  0  0  0  0
    5.0270    9.7549   -0.0537 C   0  0  0  0  0  0  0  0  0  0  0  0
    6.4624   10.2188   -0.0541 C   0  0  0  0  0  0  0  0  0  0  0  0
    7.1366    9.3735    0.7364 C   0  0  0  0  0  0  0  0  0  0  0  0
    6.1319    8.3623    1.2364 C   0  0  0  0  0  0  0  0  0  0  0  0
    5.2723    8.2531   -0.0097 C   0  0  0  0  0  0  0  0  0  0  0  0
    5.2089    9.1284    2.2308 C   0  0  0  0  0  0  0  0  0  0  0  0
    0.5980   -2.2685   -8.1376 H   0  0  0  0  0  0  0  0  0  0  0  0
   -3.3255   -0.3851  -11.2737 H   0  0  0  0  0  0  0  0  0  0  0  0
   -5.2096    0.0897   -6.5564 H   0  0  0  0  0  0  0  0  0  0  0  0
   -7.6249    0.6203   -8.9853 H   0  0  0  0  0  0  0  0  0  0  0  0
   -6.6817    2.9821   -7.8526 H   0  0  0  0  0  0  0  0  0  0  0  0
   -8.5824    3.7750   -9.5248 H   0  0  0  0  0  0  0  0  0  0  0  0
   -7.6833    3.5432  -11.9640 H   0  0  0  0  0  0  0  0  0  0  0  0
   -5.1960    2.5983  -11.8483 H   0  0  0  0  0  0  0  0  0  0  0  0
   -5.2922    4.2341   -9.7558 H   0  0  0  0  0  0  0  0  0  0  0  0
   -4.4357    2.7121   -9.2789 H   0  0  0  0  0  0  0  0  0  0  0  0
   -6.7720    0.3998  -11.2273 H   0  0  0  0  0  0  0  0  0  0  0  0
   -1.4161   -3.7004   -5.3530 H   0  0  0  0  0  0  0  0  0  0  0  0
   -3.0502   -3.3747   -3.4704 H   0  0  0  0  0  0  0  0  0  0  0  0
   -4.8769   -5.1624   -3.1193 H   0  0  0  0  0  0  0  0  0  0  0  0
   -4.1229   -8.8222   -4.3483 H   0  0  0  0  0  0  0  0  0  0  0  0
   -2.7410   -9.4205   -3.3614 H   0  0  0  0  0  0  0  0  0  0  0  0
   -4.2248  -11.2943   -4.0278 H   0  0  0  0  0  0  0  0  0  0  0  0
   -4.2747  -11.0778   -2.2394 H   0  0  0  0  0  0  0  0  0  0  0  0
   -5.6427  -10.4874   -3.2684 H   0  0  0  0  0  0  0  0  0  0  0  0
   -4.6387   -9.5789   -0.0929 H   0  0  0  0  0  0  0  0  0  0  0  0
   -4.0437   -7.9674    0.4498 H   0  0  0  0  0  0  0  0  0  0  0  0
   -1.7480   -8.5182   -0.2977 H   0  0  0  0  0  0  0  0  0  0  0  0
   -2.3653   -9.8060    0.7869 H   0  0  0  0  0  0  0  0  0  0  0  0
   -2.3205  -10.0913   -0.9897 H   0  0  0  0  0  0  0  0  0  0  0  0
   -6.6962   -8.7008   -2.0240 H   0  0  0  0  0  0  0  0  0  0  0  0
   -6.4022   -7.2662   -3.0742 H   0  0  0  0  0  0  0  0  0  0  0  0
   -7.7207   -6.6885   -1.0275 H   0  0  0  0  0  0  0  0  0  0  0  0
   -6.1354   -5.8327   -1.0377 H   0  0  0  0  0  0  0  0  0  0  0  0
   -6.3867   -7.2791    0.0208 H   0  0  0  0  0  0  0  0  0  0  0  0
    4.5565   -2.5165   -4.0606 H   0  0  0  0  0  0  0  0  0  0  0  0
    6.0610   -0.4257   -4.0175 H   0  0  0  0  0  0  0  0  0  0  0  0
    6.3684    3.7975   -4.0144 H   0  0  0  0  0  0  0  0  0  0  0  0
    6.3491    2.1305   -4.7017 H   0  0  0  0  0  0  0  0  0  0  0  0
    3.9303    4.0098   -4.3193 H   0  0  0  0  0  0  0  0  0  0  0  0
    4.6754    3.4786   -5.8699 H   0  0  0  0  0  0  0  0  0  0  0  0
    3.8046    2.2734   -4.8481 H   0  0  0  0  0  0  0  0  0  0  0  0
    7.5382    2.8499   -1.2233 H   0  0  0  0  0  0  0  0  0  0  0  0
    7.8829    1.5407   -2.4179 H   0  0  0  0  0  0  0  0  0  0  0  0
    6.2778    1.0267    0.1669 H   0  0  0  0  0  0  0  0  0  0  0  0
    7.0239   -0.1819   -0.9490 H   0  0  0  0  0  0  0  0  0  0  0  0
    8.0761    0.8775    0.0702 H   0  0  0  0  0  0  0  0  0  0  0  0
    4.8729    3.2364   -0.2619 H   0  0  0  0  0  0  0  0  0  0  0  0
    4.9061    4.4060   -1.6144 H   0  0  0  0  0  0  0  0  0  0  0  0
    2.6637    2.4501   -0.8506 H   0  0  0  0  0  0  0  0  0  0  0  0
    2.6076    4.2343   -0.9723 H   0  0  0  0  0  0  0  0  0  0  0  0
    2.7120    3.2423   -2.4733 H   0  0  0  0  0  0  0  0  0  0  0  0
    2.7763   -2.1480    0.1578 H   0  0  0  0  0  0  0  0  0  0  0  0
   -2.5792   -3.8795    5.2073 H   0  0  0  0  0  0  0  0  0  0  0  0
   -5.0315   -4.1887    5.2712 H   0  0  0  0  0  0  0  0  0  0  0  0
   -6.1503   -6.9077    4.5189 H   0  0  0  0  0  0  0  0  0  0  0  0
   -7.7411   -7.2294    3.7308 H   0  0  0  0  0  0  0  0  0  0  0  0
   -6.2319   -7.2641    2.7413 H   0  0  0  0  0  0  0  0  0  0  0  0
   -5.0213   -5.1394    1.0767 H   0  0  0  0  0  0  0  0  0  0  0  0
   -2.5915   -4.8455    1.0073 H   0  0  0  0  0  0  0  0  0  0  0  0
   -0.7571   -6.6459    1.8887 H   0  0  0  0  0  0  0  0  0  0  0  0
    0.7185   -8.4972    2.6019 H   0  0  0  0  0  0  0  0  0  0  0  0
    3.8002   -7.9030    3.0171 H   0  0  0  0  0  0  0  0  0  0  0  0
    4.8478   -8.7049    4.2535 H   0  0  0  0  0  0  0  0  0  0  0  0
    4.1820   -7.0602    4.5777 H   0  0  0  0  0  0  0  0  0  0  0  0
    1.8898   -6.2317    6.0723 H   0  0  0  0  0  0  0  0  0  0  0  0
    0.4620   -4.3688    5.3402 H   0  0  0  0  0  0  0  0  0  0  0  0
    3.2027    2.6313    6.3332 H   0  0  0  0  0  0  0  0  0  0  0  0
    4.7414    4.1609    5.1831 H   0  0  0  0  0  0  0  0  0  0  0  0
    7.3584    3.5062    1.6969 H   0  0  0  0  0  0  0  0  0  0  0  0
    6.8886    3.0628    3.3860 H   0  0  0  0  0  0  0  0  0  0  0  0
    6.0235    2.3248    1.9856 H   0  0  0  0  0  0  0  0  0  0  0  0
    3.1406    2.9363    1.3947 H   0  0  0  0  0  0  0  0  0  0  0  0
    1.6235    1.3765    2.5085 H   0  0  0  0  0  0  0  0  0  0  0  0
    4.1431   -0.1310    5.4183 H   0  0  0  0  0  0  0  0  0  0  0  0
    5.0568   -1.4820    7.2649 H   0  0  0  0  0  0  0  0  0  0  0  0
    3.6229   -4.9306    9.4730 H   0  0  0  0  0  0  0  0  0  0  0  0
    3.7977   -4.1344    7.8629 H   0  0  0  0  0  0  0  0  0  0  0  0
    2.2176   -4.0579    8.7534 H   0  0  0  0  0  0  0  0  0  0  0  0
    1.2812   -1.2464    9.3150 H   0  0  0  0  0  0  0  0  0  0  0  0
    0.3664    0.1154    7.4822 H   0  0  0  0  0  0  0  0  0  0  0  0
   -3.9112    0.5438    3.1456 H   0  0  0  0  0  0  0  0  0  0  0  0
   -3.4853   -0.1954    1.5614 H   0  0  0  0  0  0  0  0  0  0  0  0
   -4.4678    2.6899    2.0255 H   0  0  0  0  0  0  0  0  0  0  0  0
   -3.9357    2.0143    0.4278 H   0  0  0  0  0  0  0  0  0  0  0  0
   -5.3834    1.3348    1.2710 H   0  0  0  0  0  0  0  0  0  0  0  0
   -0.3255    4.7424    0.9146 H   0  0  0  0  0  0  0  0  0  0  0  0
   -1.6415    4.6975   -0.3090 H   0  0  0  0  0  0  0  0  0  0  0  0
    0.0370    3.0354   -0.9240 H   0  0  0  0  0  0  0  0  0  0  0  0
   -1.4492    2.1732   -0.3861 H   0  0  0  0  0  0  0  0  0  0  0  0
   -0.0210    2.2930    0.7213 H   0  0  0  0  0  0  0  0  0  0  0  0
   -2.4544    6.3356    3.1070 H   0  0  0  0  0  0  0  0  0  0  0  0
    3.8269    6.6933    3.8116 H   0  0  0  0  0  0  0  0  0  0  0  0
    1.3488   10.0832    0.9248 H   0  0  0  0  0  0  0  0  0  0  0  0
    4.5463   11.1333    1.6925 H   0  0  0  0  0  0  0  0  0  0  0  0
    4.4074   10.1194   -0.8979 H   0  0  0  0  0  0  0  0  0  0  0  0
    6.8962   11.0115   -0.6533 H   0  0  0  0  0  0  0  0  0  0  0  0
    8.2093    9.3674    0.8902 H   0  0  0  0  0  0  0  0  0  0  0  0
    6.5650    7.4137    1.6152 H   0  0  0  0  0  0  0  0  0  0  0  0
    5.8299    7.8693   -0.8964 H   0  0  0  0  0  0  0  0  0  0  0  0
    4.3502    7.6414    0.1216 H   0  0  0  0  0  0  0  0  0  0  0  0
    5.7167    9.5933    3.1058 H   0  0  0  0  0  0  0  0  0  0  0  0
  1  2  2  3
  2  3  1  0
  3  4  2  0
  3  5  1  0
  5  6  2  0
  6  7  1  0
  7  8  2  0
  8  9  1  0
  9 10  2  0
 10 11  1  0
 11 12  2  3
 12 13  1  0
 13 14  3  0
 12 15  1  0
 15 16  3  0
  8 17  1  0
 17 18  1  0
 18 19  1  0
 19 20  2  0
 20 21  1  0
 21 22  1  0
 21 23  1  0
  1 24  1  0
 24 25  2  0
 25 26  1  0
 26 27  2  0
 27 28  1  0
 28 29  2  0
 29 30  1  0
 30 31  2  0
 31 32  1  0
 32 33  1  0
 33 34  1  0
 32 35  1  0
 35 36  1  0
 32 37  1  0
 37 38  1  0
 31 39  1  0
 27 40  1  0
 40 41  2  0
 41 42  1  0
 42 43  1  0
 43 44  2  0
 44 45  1  0
 45 46  2  0
 46 47  1  0
 47 48  1  0
 48 49  1  0
 47 50  1  0
 50 51  1  0
 47 52  1  0
 52 53  1  0
 46 54  1  0
 42 55  2  0
 55 56  1  0
 41 57  1  0
 57 58  2  0
 58 59  1  0
 58 60  1  0
 60 61  2  0
 61 62  1  0
 62 63  1  0
 63 64  2  0
 64 65  1  0
 65 66  2  0
 66 67  1  0
 67 68  1  0
 66 69  1  0
 69 70  2  0
 62 71  1  0
 71 72  2  0
 72 73  1  0
 73 74  2  0
 74 75  1  0
 75 76  1  0
 74 77  1  0
 77 78  2  0
 61 79  1  0
 79 80  1  0
 80 81  1  0
 81 82  2  0
 82 83  1  0
 83 84  1  0
 84 85  2  0
 85 86  1  0
 86 87  2  0
 87 88  1  0
 88 89  1  0
 87 90  1  0
 90 91  2  0
 83 92  1  0
 92 93  2  0
 93 94  1  0
 94 95  2  0
 95 96  1  0
 96 97  1  0
 95 98  1  0
 98 99  2  0
 82100  1  0
100101  1  0
 81102  1  0
102103  2  0
103104  1  0
104105  1  0
105106  1  0
103107  1  0
107108  1  0
108109  1  0
109110  1  0
107111  2  0
111112  1  0
112113  1  0
113114  2  0
114115  1  0
115116  1  0
111117  1  0
117118  2  3
118119  1  0
119120  2  0
119121  1  0
121122  2  0
122123  1  0
123124  2  0
124125  1  0
125126  2  0
126127  1  0
127128  2  3
128129  1  0
129130  3  0
128131  1  0
131132  3  0
124133  1  0
133134  1  0
134135  1  0
135136  2  0
136137  1  0
137138  1  0
137139  1  0
 11  2  1  0
 23 17  1  0
 56 24  1  0
101 60  1  0
113102  1  0
127118  1  0
139133  1  0
 10  5  1  0
 22 18  1  0
 55 26  1  0
 70 63  1  0
 78 71  1  0
100 79  2  0
116112  2  0
126121  1  0
138134  1  0
 23  7  1  0
 39 28  1  0
 59 40  1  0
 91 84  1  0
 99 92  1  0
139123  1  0
 54 43  1  0
  1140  1  0
  6141  1  0
  9142  1  0
 17143  1  0
 18144  1  0
 19145  1  0
 20146  1  0
 21147  1  0
 22148  1  0
 22149  1  0
 23150  1  0
 25151  1  0
 29152  1  0
 30153  1  0
 33154  1  0
 33155  1  0
 34156  1  0
 34157  1  0
 34158  1  0
 35159  1  0
 35160  1  0
 36161  1  0
 36162  1  0
 36163  1  0
 37164  1  0
 37165  1  0
 38166  1  0
 38167  1  0
 38168  1  0
 44169  1  0
 45170  1  0
 48171  1  0
 48172  1  0
 49173  1  0
 49174  1  0
 49175  1  0
 50176  1  0
 50177  1  0
 51178  1  0
 51179  1  0
 51180  1  0
 52181  1  0
 52182  1  0
 53183  1  0
 53184  1  0
 53185  1  0
 57186  1  0
 64187  1  0
 65188  1  0
 68189  1  0
 68190  1  0
 68191  1  0
 69192  1  0
 70193  1  0
 72194  1  0
 73195  1  0
 76196  1  0
 76197  1  0
 76198  1  0
 77199  1  0
 78200  1  0
 85201  1  0
 86202  1  0
 89203  1  0
 89204  1  0
 89205  1  0
 90206  1  0
 91207  1  0
 93208  1  0
 94209  1  0
 97210  1  0
 97211  1  0
 97212  1  0
 98213  1  0
 99214  1  0
105215  1  0
105216  1  0
106217  1  0
106218  1  0
106219  1  0
109220  1  0
109221  1  0
110222  1  0
110223  1  0
110224  1  0
117225  1  0
122226  1  0
125227  1  0
133228  1  0
134229  1  0
135230  1  0
136231  1  0
137232  1  0
138233  1  0
138234  1  0
139235  1  0
M  END

