
     RDKit          3D

195212  0  0  0  0  0  0  0  0999 V2000
   -1.1072   -5.0255   -3.9915 C   0  0  0  0  0  0  0  0  0  0  0  0
   -2.2210   -4.5287   -4.5500 C   0  0  0  0  0  0  0  0  0  0  0  0
   -2.1444   -3.3081   -5.3601 C   0  0  0  0  0  0  0  0  0  0  0  0
   -1.2274   -3.0514   -6.1841 O   0  0  0  0  0  0  0  0  0  0  0  0
   -3.2710   -2.4506   -5.0802 C   0  0  0  0  0  0  0  0  0  0  0  0
   -3.5059   -1.1523   -5.5954 C   0  0  0  0  0  0  0  0  0  0  0  0
   -4.6353   -0.5430   -5.0835 C   0  0  0  0  0  0  0  0  0  0  0  0
   -5.4871   -1.1639   -4.1155 C   0  0  0  0  0  0  0  0  0  0  0  0
   -5.2624   -2.4337   -3.6117 C   0  0  0  0  0  0  0  0  0  0  0  0
   -4.1063   -3.0883   -4.1341 C   0  0  0  0  0  0  0  0  0  0  0  0
   -3.5203   -4.4204   -3.7991 C   0  0  0  0  0  0  0  0  0  0  0  0
   -4.0520   -5.3753   -2.9907 C   0  0  0  0  0  0  0  0  0  0  0  0
   -3.4688   -6.6856   -2.8718 C   0  0  0  0  0  0  0  0  0  0  0  0
   -3.0131   -7.7447   -2.7728 N   0  0  0  0  0  0  0  0  0  0  0  0
   -5.2459   -5.1753   -2.2160 C   0  0  0  0  0  0  0  0  0  0  0  0
   -6.1989   -5.0345   -1.5762 N   0  0  0  0  0  0  0  0  0  0  0  0
   -6.3517    0.0602   -4.0654 C   0  0  0  0  0  0  0  0  0  0  0  0
   -6.1944    0.9649   -2.8056 C   0  0  0  0  0  0  0  0  0  0  0  0
   -6.8307    2.2830   -3.1618 C   0  0  0  0  0  0  0  0  0  0  0  0
   -6.0301    2.8624   -4.0647 C   0  0  0  0  0  0  0  0  0  0  0  0
   -4.8789    1.9128   -4.2879 C   0  0  0  0  0  0  0  0  0  0  0  0
   -4.7371    1.3905   -2.8670 C   0  0  0  0  0  0  0  0  0  0  0  0
   -5.4749    0.6953   -5.0566 C   0  0  0  0  0  0  0  0  0  0  0  0
   -0.4354   -4.2056   -2.9731 C   0  0  0  0  0  0  0  0  0  0  0  0
    0.5675   -3.2449   -3.1758 C   0  0  0  0  0  0  0  0  0  0  0  0
    1.3879   -3.1713   -4.3507 N   0  0  0  0  0  0  0  0  0  0  0  0
    2.3263   -4.2449   -4.5189 C   0  0  0  0  0  0  0  0  0  0  0  0
    2.1227   -5.2192   -5.5027 C   0  0  0  0  0  0  0  0  0  0  0  0
    3.0339   -6.2688   -5.6505 C   0  0  0  0  0  0  0  0  0  0  0  0
    4.1468   -6.3646   -4.7979 C   0  0  0  0  0  0  0  0  0  0  0  0
    5.1530   -7.4576   -4.9946 C   0  0  0  0  0  0  0  0  0  0  0  0
    4.3519   -5.3829   -3.8180 C   0  0  0  0  0  0  0  0  0  0  0  0
    3.4470   -4.3274   -3.6785 C   0  0  0  0  0  0  0  0  0  0  0  0
    1.4284   -1.9921   -5.1973 C   0  0  0  0  0  0  0  0  0  0  0  0
    2.2352   -1.9646   -6.3557 C   0  0  0  0  0  0  0  0  0  0  0  0
    2.2174   -0.8604   -7.2134 C   0  0  0  0  0  0  0  0  0  0  0  0
    1.4027    0.2438   -6.9316 C   0  0  0  0  0  0  0  0  0  0  0  0
    1.4311    1.4534   -7.8194 C   0  0  0  0  0  0  0  0  0  0  0  0
    0.6306    0.2445   -5.7632 C   0  0  0  0  0  0  0  0  0  0  0  0
    0.6305   -0.8652   -4.9100 C   0  0  0  0  0  0  0  0  0  0  0  0
    0.8681   -2.5835   -1.9897 C   0  0  0  0  0  0  0  0  0  0  0  0
    1.9465   -1.3763   -1.5373 S   0  0  0  0  0  0  0  0  0  0  0  0
    1.4621   -1.3722    0.0999 C   0  0  0  0  0  0  0  0  0  0  0  0
    0.4536   -2.3400    0.2805 C   0  0  0  0  0  0  0  0  0  0  0  0
   -0.1074   -2.7020    1.5498 N   0  0  0  0  0  0  0  0  0  0  0  0
   -1.5361   -2.8130    1.6689 C   0  0  0  0  0  0  0  0  0  0  0  0
   -2.1206   -3.9768    2.1984 C   0  0  0  0  0  0  0  0  0  0  0  0
   -3.5098   -4.1006    2.2676 C   0  0  0  0  0  0  0  0  0  0  0  0
   -4.3411   -3.0745    1.7910 C   0  0  0  0  0  0  0  0  0  0  0  0
   -5.8268   -3.1966    1.9055 C   0  0  0  0  0  0  0  0  0  0  0  0
   -3.7562   -1.9005    1.2811 C   0  0  0  0  0  0  0  0  0  0  0  0
   -2.3691   -1.7790    1.2053 C   0  0  0  0  0  0  0  0  0  0  0  0
    0.7668   -3.0765    2.6396 C   0  0  0  0  0  0  0  0  0  0  0  0
    0.3788   -2.8653    3.9776 C   0  0  0  0  0  0  0  0  0  0  0  0
    1.2008   -3.2760    5.0261 C   0  0  0  0  0  0  0  0  0  0  0  0
    2.4339   -3.8926    4.7643 C   0  0  0  0  0  0  0  0  0  0  0  0
    3.3283   -4.3356    5.8816 C   0  0  0  0  0  0  0  0  0  0  0  0
    2.8377   -4.0827    3.4342 C   0  0  0  0  0  0  0  0  0  0  0  0
    2.0093   -3.6891    2.3839 C   0  0  0  0  0  0  0  0  0  0  0  0
    0.1481   -2.9802   -0.9125 C   0  0  0  0  0  0  0  0  0  0  0  0
   -0.9145   -4.2027   -1.3354 S   0  0  0  0  0  0  0  0  0  0  0  0
    1.7327   -0.2896    1.0517 C   0  0  0  0  0  0  0  0  0  0  0  0
    2.9006    0.4819    1.1828 C   0  0  0  0  0  0  0  0  0  0  0  0
    4.1746    0.1828    0.5918 N   0  0  0  0  0  0  0  0  0  0  0  0
    5.2524   -0.1439    1.4952 C   0  0  0  0  0  0  0  0  0  0  0  0
    6.4760    0.5442    1.4341 C   0  0  0  0  0  0  0  0  0  0  0  0
    7.4809    0.2894    2.3778 C   0  0  0  0  0  0  0  0  0  0  0  0
    7.2596   -0.6437    3.3946 C   0  0  0  0  0  0  0  0  0  0  0  0
    8.4967   -0.8910    4.6675 S   0  0  0  0  0  0  0  0  0  0  0  0
    7.7831    0.3651    5.7714 C   0  0  0  0  0  0  0  0  0  0  0  0
    6.0530   -1.3478    3.4513 C   0  0  0  0  0  0  0  0  0  0  0  0
    5.0535   -1.0998    2.5083 C   0  0  0  0  0  0  0  0  0  0  0  0
    4.4549    0.5285   -0.7827 C   0  0  0  0  0  0  0  0  0  0  0  0
    3.8363    1.6379   -1.3979 C   0  0  0  0  0  0  0  0  0  0  0  0
    4.2098    2.0286   -2.6875 C   0  0  0  0  0  0  0  0  0  0  0  0
    5.1871    1.3062   -3.3795 C   0  0  0  0  0  0  0  0  0  0  0  0
    5.7992    1.8964   -4.9623 S   0  0  0  0  0  0  0  0  0  0  0  0
    4.6611    0.8530   -5.9145 C   0  0  0  0  0  0  0  0  0  0  0  0
    5.7516    0.1656   -2.8059 C   0  0  0  0  0  0  0  0  0  0  0  0
    5.3847   -0.2237   -1.5168 C   0  0  0  0  0  0  0  0  0  0  0  0
    2.7045    1.5291    2.0791 C   0  0  0  0  0  0  0  0  0  0  0  0
    3.5649    2.8978    2.4724 S   0  0  0  0  0  0  0  0  0  0  0  0
    2.3071    3.6470    3.3570 C   0  0  0  0  0  0  0  0  0  0  0  0
    1.1954    2.7610    3.3648 C   0  0  0  0  0  0  0  0  0  0  0  0
   -0.1078    2.9803    3.9522 N   0  0  0  0  0  0  0  0  0  0  0  0
   -0.9633    4.0353    3.4464 C   0  0  0  0  0  0  0  0  0  0  0  0
   -1.9318    4.6242    4.2838 C   0  0  0  0  0  0  0  0  0  0  0  0
   -2.8583    5.5310    3.7639 C   0  0  0  0  0  0  0  0  0  0  0  0
   -2.8045    5.9035    2.4193 C   0  0  0  0  0  0  0  0  0  0  0  0
   -4.0962    6.9386    1.7240 S   0  0  0  0  0  0  0  0  0  0  0  0
   -3.3202    8.5014    2.2245 C   0  0  0  0  0  0  0  0  0  0  0  0
   -1.7995    5.3860    1.5941 C   0  0  0  0  0  0  0  0  0  0  0  0
   -0.8833    4.4586    2.1034 C   0  0  0  0  0  0  0  0  0  0  0  0
   -0.6881    1.9034    4.7459 C   0  0  0  0  0  0  0  0  0  0  0  0
    0.1233    1.1294    5.6021 C   0  0  0  0  0  0  0  0  0  0  0  0
   -0.4284    0.0710    6.3409 C   0  0  0  0  0  0  0  0  0  0  0  0
   -1.7952   -0.2074    6.2589 C   0  0  0  0  0  0  0  0  0  0  0  0
   -2.5402   -1.4483    7.3208 S   0  0  0  0  0  0  0  0  0  0  0  0
   -2.8160   -2.6947    6.0156 C   0  0  0  0  0  0  0  0  0  0  0  0
   -2.6043    0.5479    5.4119 C   0  0  0  0  0  0  0  0  0  0  0  0
   -2.0500    1.5692    4.6339 C   0  0  0  0  0  0  0  0  0  0  0  0
    1.4753    1.6076    2.6308 C   0  0  0  0  0  0  0  0  0  0  0  0
    0.5186    0.3745    2.0469 S   0  0  0  0  0  0  0  0  0  0  0  0
    2.3708    5.0869    3.7003 C   0  0  0  0  0  0  0  0  0  0  0  0
    3.3418    5.9463    3.1953 C   0  0  0  0  0  0  0  0  0  0  0  0
    3.0399    7.3127    3.3363 C   0  0  0  0  0  0  0  0  0  0  0  0
    3.8874    8.3747    2.7493 C   0  0  0  0  0  0  0  0  0  0  0  0
    4.9112    8.0678    2.0789 O   0  0  0  0  0  0  0  0  0  0  0  0
    3.5607    9.7140    2.9091 O   0  0  0  0  0  0  0  0  0  0  0  0
    1.8317    7.5276    4.0073 C   0  0  0  0  0  0  0  0  0  0  0  0
    1.1688    6.0355    4.4031 S   0  0  0  0  0  0  0  0  0  0  0  0
    1.0660    8.7845    4.0359 C   0  0  0  0  0  0  0  0  0  0  0  0
    0.4667    9.3231    2.9530 C   0  0  0  0  0  0  0  0  0  0  0  0
   -0.2015   10.5903    3.1136 C   0  0  0  0  0  0  0  0  0  0  0  0
   -0.7429   11.6050    3.2362 N   0  0  0  0  0  0  0  0  0  0  0  0
    0.4031    8.6763    1.6168 C   0  0  0  0  0  0  0  0  0  0  0  0
    0.7429    7.4686    1.4663 O   0  0  0  0  0  0  0  0  0  0  0  0
   -0.0992    9.4004    0.5256 O   0  0  0  0  0  0  0  0  0  0  0  0
   -0.4396    8.8089   -0.7266 C   0  0  0  0  0  0  0  0  0  0  0  0
    0.8005    8.5058   -1.5546 C   0  0  0  0  0  0  0  0  0  0  0  0
   -1.1395   -6.0564   -3.6862 H   0  0  0  0  0  0  0  0  0  0  0  0
   -2.8400   -0.6637   -6.2950 H   0  0  0  0  0  0  0  0  0  0  0  0
   -5.9288   -2.8484   -2.8783 H   0  0  0  0  0  0  0  0  0  0  0  0
   -7.3951   -0.1161   -4.4128 H   0  0  0  0  0  0  0  0  0  0  0  0
   -6.5300    0.5173   -1.8443 H   0  0  0  0  0  0  0  0  0  0  0  0
   -7.7072    2.7316   -2.7084 H   0  0  0  0  0  0  0  0  0  0  0  0
   -6.1512    3.8601   -4.4671 H   0  0  0  0  0  0  0  0  0  0  0  0
   -3.9719    2.3684   -4.7365 H   0  0  0  0  0  0  0  0  0  0  0  0
   -4.0188    0.5508   -2.7586 H   0  0  0  0  0  0  0  0  0  0  0  0
   -4.4781    2.1927   -2.1294 H   0  0  0  0  0  0  0  0  0  0  0  0
   -5.9683    0.9252   -6.0292 H   0  0  0  0  0  0  0  0  0  0  0  0
    1.2633   -5.1563   -6.1578 H   0  0  0  0  0  0  0  0  0  0  0  0
    2.8660   -7.0154   -6.4180 H   0  0  0  0  0  0  0  0  0  0  0  0
    5.6596   -7.7057   -4.0381 H   0  0  0  0  0  0  0  0  0  0  0  0
    4.6610   -8.3803   -5.3707 H   0  0  0  0  0  0  0  0  0  0  0  0
    5.9136   -7.1266   -5.7310 H   0  0  0  0  0  0  0  0  0  0  0  0
    5.2188   -5.4247   -3.1687 H   0  0  0  0  0  0  0  0  0  0  0  0
    3.6138   -3.5786   -2.9184 H   0  0  0  0  0  0  0  0  0  0  0  0
    2.8874   -2.7904   -6.6023 H   0  0  0  0  0  0  0  0  0  0  0  0
    2.8563   -0.8628   -8.0859 H   0  0  0  0  0  0  0  0  0  0  0  0
    0.4024    1.8627   -7.9374 H   0  0  0  0  0  0  0  0  0  0  0  0
    2.0768    2.2326   -7.3649 H   0  0  0  0  0  0  0  0  0  0  0  0
    1.8279    1.1986   -8.8274 H   0  0  0  0  0  0  0  0  0  0  0  0
    0.0190    1.1022   -5.5156 H   0  0  0  0  0  0  0  0  0  0  0  0
   -0.0022   -0.8369   -4.0340 H   0  0  0  0  0  0  0  0  0  0  0  0
   -1.4947   -4.7923    2.5395 H   0  0  0  0  0  0  0  0  0  0  0  0
   -3.9387   -5.0003    2.6894 H   0  0  0  0  0  0  0  0  0  0  0  0
   -6.3330   -2.6179    1.1005 H   0  0  0  0  0  0  0  0  0  0  0  0
   -6.1534   -2.7992    2.8877 H   0  0  0  0  0  0  0  0  0  0  0  0
   -6.1401   -4.2591    1.8239 H   0  0  0  0  0  0  0  0  0  0  0  0
   -4.3801   -1.0814    0.9424 H   0  0  0  0  0  0  0  0  0  0  0  0
   -1.9376   -0.8770    0.7902 H   0  0  0  0  0  0  0  0  0  0  0  0
   -0.5610   -2.3848    4.2040 H   0  0  0  0  0  0  0  0  0  0  0  0
    0.8706   -3.1228    6.0471 H   0  0  0  0  0  0  0  0  0  0  0  0
    4.2589   -3.7285    5.8810 H   0  0  0  0  0  0  0  0  0  0  0  0
    2.8286   -4.2251    6.8678 H   0  0  0  0  0  0  0  0  0  0  0  0
    3.5942   -5.4061    5.7448 H   0  0  0  0  0  0  0  0  0  0  0  0
    3.7984   -4.5327    3.2111 H   0  0  0  0  0  0  0  0  0  0  0  0
    2.3343   -3.8743    1.3679 H   0  0  0  0  0  0  0  0  0  0  0  0
    6.6407    1.3053    0.6782 H   0  0  0  0  0  0  0  0  0  0  0  0
    8.4118    0.8376    2.3377 H   0  0  0  0  0  0  0  0  0  0  0  0
    8.3725    0.4043    6.7107 H   0  0  0  0  0  0  0  0  0  0  0  0
    6.7286    0.1075    6.0130 H   0  0  0  0  0  0  0  0  0  0  0  0
    7.8201    1.3640    5.2901 H   0  0  0  0  0  0  0  0  0  0  0  0
    5.8801   -2.0710    4.2355 H   0  0  0  0  0  0  0  0  0  0  0  0
    4.1163   -1.6280    2.5807 H   0  0  0  0  0  0  0  0  0  0  0  0
    3.1141    2.2398   -0.8595 H   0  0  0  0  0  0  0  0  0  0  0  0
    3.7763    2.9185   -3.1247 H   0  0  0  0  0  0  0  0  0  0  0  0
    4.9609    0.8729   -6.9876 H   0  0  0  0  0  0  0  0  0  0  0  0
    4.6933   -0.2007   -5.5594 H   0  0  0  0  0  0  0  0  0  0  0  0
    3.6348    1.2581   -5.8052 H   0  0  0  0  0  0  0  0  0  0  0  0
    6.4887   -0.4075   -3.3474 H   0  0  0  0  0  0  0  0  0  0  0  0
    5.8337   -1.1067   -1.0813 H   0  0  0  0  0  0  0  0  0  0  0  0
   -1.9918    4.3466    5.3296 H   0  0  0  0  0  0  0  0  0  0  0  0
   -3.6357    5.9263    4.4051 H   0  0  0  0  0  0  0  0  0  0  0  0
   -2.3733    8.6269    1.6724 H   0  0  0  0  0  0  0  0  0  0  0  0
   -3.9970    9.3372    1.9603 H   0  0  0  0  0  0  0  0  0  0  0  0
   -3.1255    8.5166    3.3176 H   0  0  0  0  0  0  0  0  0  0  0  0
   -1.7571    5.6739    0.5505 H   0  0  0  0  0  0  0  0  0  0  0  0
   -0.1437    4.0397    1.4373 H   0  0  0  0  0  0  0  0  0  0  0  0
    1.1812    1.3465    5.7032 H   0  0  0  0  0  0  0  0  0  0  0  0
    0.2062   -0.4996    7.0077 H   0  0  0  0  0  0  0  0  0  0  0  0
   -2.9479   -2.2268    5.0145 H   0  0  0  0  0  0  0  0  0  0  0  0
   -1.9705   -3.4144    5.9940 H   0  0  0  0  0  0  0  0  0  0  0  0
   -3.7535   -3.2514    6.2515 H   0  0  0  0  0  0  0  0  0  0  0  0
   -3.6647    0.3319    5.3404 H   0  0  0  0  0  0  0  0  0  0  0  0
   -2.6999    2.0854    3.9384 H   0  0  0  0  0  0  0  0  0  0  0  0
    4.2120    5.6024    2.6530 H   0  0  0  0  0  0  0  0  0  0  0  0
    4.1069   10.4439    2.4736 H   0  0  0  0  0  0  0  0  0  0  0  0
    1.0106    9.2914    4.9923 H   0  0  0  0  0  0  0  0  0  0  0  0
   -1.0316    7.8800   -0.5606 H   0  0  0  0  0  0  0  0  0  0  0  0
   -1.0809    9.5250   -1.2838 H   0  0  0  0  0  0  0  0  0  0  0  0
    1.4447    7.7614   -1.0420 H   0  0  0  0  0  0  0  0  0  0  0  0
    1.3781    9.4390   -1.7320 H   0  0  0  0  0  0  0  0  0  0  0  0
    0.4860    8.0838   -2.5338 H   0  0  0  0  0  0  0  0  0  0  0  0
  1  2  2  3
  2  3  1  0
  3  4  2  0
  3  5  1  0
  5  6  2  0
  6  7  1  0
  7  8  2  0
  8  9  1  0
  9 10  2  0
 10 11  1  0
 11 12  2  3
 12 13  1  0
 13 14  3  0
 12 15  1  0
 15 16  3  0
  8 17  1  0
 17 18  1  0
 18 19  1  0
 19 20  2  0
 20 21  1  0
 21 22  1  0
 21 23  1  0
  1 24  1  0
 24 25  2  0
 25 26  1  0
 26 27  1  0
 27 28  2  0
 28 29  1  0
 29 30  2  0
 30 31  1  0
 30 32  1  0
 32 33  2  0
 26 34  1  0
 34 35  2  0
 35 36  1  0
 36 37  2  0
 37 38  1  0
 37 39  1  0
 39 40  2  0
 25 41  1  0
 41 42  1  0
 42 43  1  0
 43 44  2  0
 44 45  1  0
 45 46  1  0
 46 47  2  0
 47 48  1  0
 48 49  2  0
 49 50  1  0
 49 51  1  0
 51 52  2  0
 45 53  1  0
 53 54  2  0
 54 55  1  0
 55 56  2  0
 56 57  1  0
 56 58  1  0
 58 59  2  0
 44 60  1  0
 60 61  1  0
 43 62  1  0
 62 63  2  0
 63 64  1  0
 64 65  1  0
 65 66  2  0
 66 67  1  0
 67 68  2  0
 68 69  1  0
 69 70  1  0
 68 71  1  0
 71 72  2  0
 64 73  1  0
 73 74  2  0
 74 75  1  0
 75 76  2  0
 76 77  1  0
 77 78  1  0
 76 79  1  0
 79 80  2  0
 63 81  1  0
 81 82  1  0
 82 83  1  0
 83 84  2  0
 84 85  1  0
 85 86  1  0
 86 87  2  0
 87 88  1  0
 88 89  2  0
 89 90  1  0
 90 91  1  0
 89 92  1  0
 92 93  2  0
 85 94  1  0
 94 95  2  0
 95 96  1  0
 96 97  2  0
 97 98  1  0
 98 99  1  0
 97100  1  0
100101  2  0
 84102  1  0
102103  1  0
 83104  1  0
104105  2  0
105106  1  0
106107  1  0
107108  2  0
107109  1  0
106110  2  0
110111  1  0
110112  1  0
112113  2  3
113114  1  0
114115  3  0
113116  1  0
116117  2  0
116118  1  0
118119  1  0
119120  1  0
 11  2  1  0
 23 17  1  0
 61 24  1  0
103 62  1  0
111104  1  0
 10  5  1  0
 22 18  1  0
 33 27  1  0
 40 34  1  0
 60 41  2  0
 72 65  1  0
 80 73  1  0
102 81  2  0
 23  7  1  0
 52 46  1  0
 59 53  1  0
 93 86  1  0
101 94  1  0
  1121  1  0
  6122  1  0
  9123  1  0
 17124  1  0
 18125  1  0
 19126  1  0
 20127  1  0
 21128  1  0
 22129  1  0
 22130  1  0
 23131  1  0
 28132  1  0
 29133  1  0
 31134  1  0
 31135  1  0
 31136  1  0
 32137  1  0
 33138  1  0
 35139  1  0
 36140  1  0
 38141  1  0
 38142  1  0
 38143  1  0
 39144  1  0
 40145  1  0
 47146  1  0
 48147  1  0
 50148  1  0
 50149  1  0
 50150  1  0
 51151  1  0
 52152  1  0
 54153  1  0
 55154  1  0
 57155  1  0
 57156  1  0
 57157  1  0
 58158  1  0
 59159  1  0
 66160  1  0
 67161  1  0
 70162  1  0
 70163  1  0
 70164  1  0
 71165  1  0
 72166  1  0
 74167  1  0
 75168  1  0
 78169  1  0
 78170  1  0
 78171  1  0
 79172  1  0
 80173  1  0
 87174  1  0
 88175  1  0
 91176  1  0
 91177  1  0
 91178  1  0
 92179  1  0
 93180  1  0
 95181  1  0
 96182  1  0
 99183  1  0
 99184  1  0
 99185  1  0
100186  1  0
101187  1  0
105188  1  0
109189  1  0
112190  1  0
119191  1  0
119192  1  0
120193  1  0
120194  1  0
120195  1  0
M  END

