
     RDKit          3D

244266  0  0  0  0  0  0  0  0999 V2000
    6.5886   -2.6954    1.0637 C   0  0  0  0  0  0  0  0  0  0  0  0
    7.3709   -2.2998    2.0735 C   0  0  0  0  0  0  0  0  0  0  0  0
    8.3795   -1.2621    1.8451 C   0  0  0  0  0  0  0  0  0  0  0  0
    8.9750   -1.0297    0.7577 O   0  0  0  0  0  0  0  0  0  0  0  0
    8.4915   -0.4589    3.0423 C   0  0  0  0  0  0  0  0  0  0  0  0
    9.2416    0.7291    3.2174 C   0  0  0  0  0  0  0  0  0  0  0  0
    9.1329    1.2741    4.4859 C   0  0  0  0  0  0  0  0  0  0  0  0
    8.3187    0.6984    5.5163 C   0  0  0  0  0  0  0  0  0  0  0  0
    7.5516   -0.4422    5.3374 C   0  0  0  0  0  0  0  0  0  0  0  0
    7.6823   -1.0352    4.0499 C   0  0  0  0  0  0  0  0  0  0  0  0
    7.0698   -2.2827    3.5300 C   0  0  0  0  0  0  0  0  0  0  0  0
    6.8477   -3.4025    4.2602 C   0  0  0  0  0  0  0  0  0  0  0  0
    6.9956   -3.4279    5.6913 C   0  0  0  0  0  0  0  0  0  0  0  0
    7.1580   -3.4683    6.8337 N   0  0  0  0  0  0  0  0  0  0  0  0
    6.7629   -4.6942    3.6188 C   0  0  0  0  0  0  0  0  0  0  0  0
    6.6975   -5.7319    3.1099 N   0  0  0  0  0  0  0  0  0  0  0  0
    8.7692    1.7468    6.4859 C   0  0  0  0  0  0  0  0  0  0  0  0
    9.8028    1.3225    7.5681 C   0  0  0  0  0  0  0  0  0  0  0  0
   10.6790    0.2103    7.0402 C   0  0  0  0  0  0  0  0  0  0  0  0
   11.4369    0.7471    6.0798 C   0  0  0  0  0  0  0  0  0  0  0  0
   11.0506    2.2049    5.9897 C   0  0  0  0  0  0  0  0  0  0  0  0
   10.7889    2.4701    7.4605 C   0  0  0  0  0  0  0  0  0  0  0  0
    9.6011    2.3389    5.4318 C   0  0  0  0  0  0  0  0  0  0  0  0
    5.1144   -2.7895    1.1262 C   0  0  0  0  0  0  0  0  0  0  0  0
    4.2909   -2.1833    0.1643 C   0  0  0  0  0  0  0  0  0  0  0  0
    4.7483   -1.1843   -0.7561 N   0  0  0  0  0  0  0  0  0  0  0  0
    5.3701    0.0133   -0.2406 C   0  0  0  0  0  0  0  0  0  0  0  0
    6.4945    0.5634   -0.8803 C   0  0  0  0  0  0  0  0  0  0  0  0
    7.0806    1.7339   -0.3992 C   0  0  0  0  0  0  0  0  0  0  0  0
    6.5484    2.3807    0.7304 C   0  0  0  0  0  0  0  0  0  0  0  0
    7.1509    3.6580    1.2368 C   0  0  0  0  0  0  0  0  0  0  0  0
    5.4579    1.8087    1.4029 C   0  0  0  0  0  0  0  0  0  0  0  0
    4.8769    0.6341    0.9235 C   0  0  0  0  0  0  0  0  0  0  0  0
    4.5438   -1.3689   -2.1706 C   0  0  0  0  0  0  0  0  0  0  0  0
    4.6609   -2.6466   -2.7467 C   0  0  0  0  0  0  0  0  0  0  0  0
    4.4983   -2.8191   -4.1251 C   0  0  0  0  0  0  0  0  0  0  0  0
    4.2274   -1.7144   -4.9481 C   0  0  0  0  0  0  0  0  0  0  0  0
    4.0486   -1.8953   -6.4259 C   0  0  0  0  0  0  0  0  0  0  0  0
    4.0698   -0.4440   -4.3705 C   0  0  0  0  0  0  0  0  0  0  0  0
    4.2289   -0.2727   -2.9942 C   0  0  0  0  0  0  0  0  0  0  0  0
    2.9487   -2.3898    0.4382 C   0  0  0  0  0  0  0  0  0  0  0  0
    1.5434   -1.7376   -0.1797 S   0  0  0  0  0  0  0  0  0  0  0  0
    0.5432   -2.4058    1.0324 C   0  0  0  0  0  0  0  0  0  0  0  0
    1.3386   -3.1221    1.9436 C   0  0  0  0  0  0  0  0  0  0  0  0
    0.8917   -3.6711    3.1896 N   0  0  0  0  0  0  0  0  0  0  0  0
    1.0683   -2.9242    4.4249 C   0  0  0  0  0  0  0  0  0  0  0  0
    1.6764   -1.6494    4.4228 C   0  0  0  0  0  0  0  0  0  0  0  0
    1.8050   -0.9172    5.6018 C   0  0  0  0  0  0  0  0  0  0  0  0
    1.3349   -1.4361    6.8138 C   0  0  0  0  0  0  0  0  0  0  0  0
    1.3915   -0.6017    8.0577 C   0  0  0  0  0  0  0  0  0  0  0  0
    0.7275   -2.7013    6.8328 C   0  0  0  0  0  0  0  0  0  0  0  0
    0.5920   -3.4357    5.6521 C   0  0  0  0  0  0  0  0  0  0  0  0
    0.6399   -5.0861    3.1977 C   0  0  0  0  0  0  0  0  0  0  0  0
    1.5093   -5.9581    3.8740 C   0  0  0  0  0  0  0  0  0  0  0  0
    1.3270   -7.3405    3.7971 C   0  0  0  0  0  0  0  0  0  0  0  0
    0.2715   -7.8696    3.0381 C   0  0  0  0  0  0  0  0  0  0  0  0
    0.1290   -9.3596    2.9006 C   0  0  0  0  0  0  0  0  0  0  0  0
   -0.5893   -7.0024    2.3485 C   0  0  0  0  0  0  0  0  0  0  0  0
   -0.4069   -5.6184    2.4279 C   0  0  0  0  0  0  0  0  0  0  0  0
    2.6827   -3.0949    1.5614 C   0  0  0  0  0  0  0  0  0  0  0  0
    4.1243   -3.5239    2.3119 S   0  0  0  0  0  0  0  0  0  0  0  0
   -0.9059   -2.1868    1.0310 C   0  0  0  0  0  0  0  0  0  0  0  0
   -1.4443   -0.9833    1.5385 C   0  0  0  0  0  0  0  0  0  0  0  0
   -1.4909   -0.6951    2.9429 N   0  0  0  0  0  0  0  0  0  0  0  0
   -1.1828    0.6414    3.3812 C   0  0  0  0  0  0  0  0  0  0  0  0
   -2.1306    1.3790    4.1140 C   0  0  0  0  0  0  0  0  0  0  0  0
   -1.8192    2.6529    4.5929 C   0  0  0  0  0  0  0  0  0  0  0  0
   -0.5526    3.1990    4.3575 C   0  0  0  0  0  0  0  0  0  0  0  0
   -0.1520    4.8223    5.0092 S   0  0  0  0  0  0  0  0  0  0  0  0
    0.3059    4.1921    6.6554 C   0  0  0  0  0  0  0  0  0  0  0  0
    0.3857    2.4861    3.5994 C   0  0  0  0  0  0  0  0  0  0  0  0
    0.0667    1.2178    3.1001 C   0  0  0  0  0  0  0  0  0  0  0  0
   -2.1761   -1.6177    3.8326 C   0  0  0  0  0  0  0  0  0  0  0  0
   -1.9572   -1.5638    5.2240 C   0  0  0  0  0  0  0  0  0  0  0  0
   -2.6214   -2.4397    6.0858 C   0  0  0  0  0  0  0  0  0  0  0  0
   -3.5271   -3.3764    5.5765 C   0  0  0  0  0  0  0  0  0  0  0  0
   -4.3732   -4.4953    6.6866 S   0  0  0  0  0  0  0  0  0  0  0  0
   -3.1571   -5.8293    6.4654 C   0  0  0  0  0  0  0  0  0  0  0  0
   -3.7787   -3.4249    4.2045 C   0  0  0  0  0  0  0  0  0  0  0  0
   -3.1124   -2.5558    3.3386 C   0  0  0  0  0  0  0  0  0  0  0  0
   -2.4042   -0.4518    0.6811 C   0  0  0  0  0  0  0  0  0  0  0  0
   -3.1573    1.0368    0.5308 S   0  0  0  0  0  0  0  0  0  0  0  0
   -3.8910    0.7100   -0.9845 C   0  0  0  0  0  0  0  0  0  0  0  0
   -3.5667   -0.6230   -1.3179 C   0  0  0  0  0  0  0  0  0  0  0  0
   -4.2213   -1.3966   -2.3355 N   0  0  0  0  0  0  0  0  0  0  0  0
   -5.5412   -1.9398   -2.0594 C   0  0  0  0  0  0  0  0  0  0  0  0
   -6.3483   -2.4321   -3.1048 C   0  0  0  0  0  0  0  0  0  0  0  0
   -7.6027   -2.9929   -2.8428 C   0  0  0  0  0  0  0  0  0  0  0  0
   -8.0620   -3.0977   -1.5250 C   0  0  0  0  0  0  0  0  0  0  0  0
   -9.6262   -3.9053   -1.1773 S   0  0  0  0  0  0  0  0  0  0  0  0
  -10.5852   -2.3621   -1.2044 C   0  0  0  0  0  0  0  0  0  0  0  0
   -7.2862   -2.6009   -0.4764 C   0  0  0  0  0  0  0  0  0  0  0  0
   -6.0396   -2.0214   -0.7369 C   0  0  0  0  0  0  0  0  0  0  0  0
   -3.3815   -1.9844   -3.3493 C   0  0  0  0  0  0  0  0  0  0  0  0
   -2.5158   -1.1749   -4.1007 C   0  0  0  0  0  0  0  0  0  0  0  0
   -1.6927   -1.7380   -5.0790 C   0  0  0  0  0  0  0  0  0  0  0  0
   -1.6998   -3.1226   -5.2913 C   0  0  0  0  0  0  0  0  0  0  0  0
   -0.6373   -3.8401   -6.5454 S   0  0  0  0  0  0  0  0  0  0  0  0
   -1.9490   -3.9156   -7.8089 C   0  0  0  0  0  0  0  0  0  0  0  0
   -2.5196   -3.9435   -4.5122 C   0  0  0  0  0  0  0  0  0  0  0  0
   -3.3587   -3.3771   -3.5461 C   0  0  0  0  0  0  0  0  0  0  0  0
   -2.7058   -1.2009   -0.3949 C   0  0  0  0  0  0  0  0  0  0  0  0
   -1.7498   -2.5669   -0.4050 S   0  0  0  0  0  0  0  0  0  0  0  0
   -3.9214    1.7521   -2.0291 C   0  0  0  0  0  0  0  0  0  0  0  0
   -4.8362    1.8903   -3.0878 C   0  0  0  0  0  0  0  0  0  0  0  0
   -6.1818    1.3825   -3.0847 N   0  0  0  0  0  0  0  0  0  0  0  0
   -6.7207    0.7710   -4.2860 C   0  0  0  0  0  0  0  0  0  0  0  0
   -8.0854    0.8923   -4.6221 C   0  0  0  0  0  0  0  0  0  0  0  0
   -8.5924    0.2929   -5.7761 C   0  0  0  0  0  0  0  0  0  0  0  0
   -7.7408   -0.4188   -6.6353 C   0  0  0  0  0  0  0  0  0  0  0  0
   -8.2929   -1.1128   -7.8451 C   0  0  0  0  0  0  0  0  0  0  0  0
   -6.3795   -0.5280   -6.3200 C   0  0  0  0  0  0  0  0  0  0  0  0
   -5.8747    0.0745   -5.1680 C   0  0  0  0  0  0  0  0  0  0  0  0
   -7.0300    1.7124   -1.9573 C   0  0  0  0  0  0  0  0  0  0  0  0
   -6.9329    2.9733   -1.3382 C   0  0  0  0  0  0  0  0  0  0  0  0
   -7.7510    3.2964   -0.2527 C   0  0  0  0  0  0  0  0  0  0  0  0
   -8.6825    2.3681    0.2269 C   0  0  0  0  0  0  0  0  0  0  0  0
   -9.5465    2.7245    1.4017 C   0  0  0  0  0  0  0  0  0  0  0  0
   -8.7764    1.1073   -0.3781 C   0  0  0  0  0  0  0  0  0  0  0  0
   -7.9596    0.7830   -1.4645 C   0  0  0  0  0  0  0  0  0  0  0  0
   -4.3395    2.7617   -4.0653 C   0  0  0  0  0  0  0  0  0  0  0  0
   -4.8716    3.2853   -5.5683 S   0  0  0  0  0  0  0  0  0  0  0  0
   -3.4800    4.2226   -5.8923 C   0  0  0  0  0  0  0  0  0  0  0  0
   -2.5893    4.1210   -4.8009 C   0  0  0  0  0  0  0  0  0  0  0  0
   -1.2976    4.7649   -4.6957 N   0  0  0  0  0  0  0  0  0  0  0  0
   -0.4258    4.8748   -5.8384 C   0  0  0  0  0  0  0  0  0  0  0  0
    0.2156    6.0883   -6.1184 C   0  0  0  0  0  0  0  0  0  0  0  0
    1.0250    6.2189   -7.2511 C   0  0  0  0  0  0  0  0  0  0  0  0
    1.2116    5.1291   -8.1143 C   0  0  0  0  0  0  0  0  0  0  0  0
    2.0467    5.2936   -9.3496 C   0  0  0  0  0  0  0  0  0  0  0  0
    0.5912    3.9035   -7.8235 C   0  0  0  0  0  0  0  0  0  0  0  0
   -0.2217    3.7761   -6.6917 C   0  0  0  0  0  0  0  0  0  0  0  0
   -0.8619    5.2762   -3.4221 C   0  0  0  0  0  0  0  0  0  0  0  0
   -1.7024    6.1091   -2.6648 C   0  0  0  0  0  0  0  0  0  0  0  0
   -1.2974    6.5661   -1.4086 C   0  0  0  0  0  0  0  0  0  0  0  0
   -0.0573    6.1771   -0.8824 C   0  0  0  0  0  0  0  0  0  0  0  0
    0.3420    6.6408    0.4865 C   0  0  0  0  0  0  0  0  0  0  0  0
    0.7867    5.3469   -1.6342 C   0  0  0  0  0  0  0  0  0  0  0  0
    0.3899    4.9059   -2.9028 C   0  0  0  0  0  0  0  0  0  0  0  0
   -3.1202    3.2946   -3.8067 C   0  0  0  0  0  0  0  0  0  0  0  0
   -2.5465    2.6997   -2.3531 S   0  0  0  0  0  0  0  0  0  0  0  0
   -3.2168    4.8760   -7.1891 C   0  0  0  0  0  0  0  0  0  0  0  0
   -3.0205    6.2060   -7.2988 C   0  0  0  0  0  0  0  0  0  0  0  0
   -3.2230    7.0942   -6.1788 C   0  0  0  0  0  0  0  0  0  0  0  0
   -3.4013    7.8053   -5.2821 N   0  0  0  0  0  0  0  0  0  0  0  0
   -2.6280    6.8111   -8.5517 C   0  0  0  0  0  0  0  0  0  0  0  0
   -2.3068    7.2920   -9.5564 N   0  0  0  0  0  0  0  0  0  0  0  0
   -3.1275    4.0101   -8.3465 C   0  0  0  0  0  0  0  0  0  0  0  0
   -3.0567    3.3187   -9.2717 N   0  0  0  0  0  0  0  0  0  0  0  0
    6.9741   -2.5215    0.0720 H   0  0  0  0  0  0  0  0  0  0  0  0
    9.8575    1.1635    2.4426 H   0  0  0  0  0  0  0  0  0  0  0  0
    6.9288   -0.8321    6.1269 H   0  0  0  0  0  0  0  0  0  0  0  0
    7.9538    2.4226    6.8432 H   0  0  0  0  0  0  0  0  0  0  0  0
    9.3861    1.1396    8.5820 H   0  0  0  0  0  0  0  0  0  0  0  0
   10.7429   -0.8122    7.3998 H   0  0  0  0  0  0  0  0  0  0  0  0
   12.2253    0.2379    5.5289 H   0  0  0  0  0  0  0  0  0  0  0  0
   11.8084    2.8632    5.5148 H   0  0  0  0  0  0  0  0  0  0  0  0
   10.3355    3.4711    7.6657 H   0  0  0  0  0  0  0  0  0  0  0  0
   11.6956    2.3359    8.1090 H   0  0  0  0  0  0  0  0  0  0  0  0
    9.2951    3.3705    5.1459 H   0  0  0  0  0  0  0  0  0  0  0  0
    6.9187    0.0769   -1.7476 H   0  0  0  0  0  0  0  0  0  0  0  0
    7.9402    2.1486   -0.9080 H   0  0  0  0  0  0  0  0  0  0  0  0
    6.3508    4.3590    1.5575 H   0  0  0  0  0  0  0  0  0  0  0  0
    7.8078    3.4361    2.1027 H   0  0  0  0  0  0  0  0  0  0  0  0
    7.7444    4.1608    0.4454 H   0  0  0  0  0  0  0  0  0  0  0  0
    5.0547    2.2765    2.2930 H   0  0  0  0  0  0  0  0  0  0  0  0
    4.0277    0.2175    1.4448 H   0  0  0  0  0  0  0  0  0  0  0  0
    4.8913   -3.5081   -2.1300 H   0  0  0  0  0  0  0  0  0  0  0  0
    4.5983   -3.8095   -4.5514 H   0  0  0  0  0  0  0  0  0  0  0  0
    2.9738   -2.0430   -6.6558 H   0  0  0  0  0  0  0  0  0  0  0  0
    4.4209   -1.0015   -6.9707 H   0  0  0  0  0  0  0  0  0  0  0  0
    4.6221   -2.7786   -6.7838 H   0  0  0  0  0  0  0  0  0  0  0  0
    3.8291    0.4151   -4.9863 H   0  0  0  0  0  0  0  0  0  0  0  0
    4.1099    0.7144   -2.5689 H   0  0  0  0  0  0  0  0  0  0  0  0
    2.0474   -1.2062    3.5091 H   0  0  0  0  0  0  0  0  0  0  0  0
    2.2585    0.0666    5.5701 H   0  0  0  0  0  0  0  0  0  0  0  0
    2.3402   -0.0228    8.0882 H   0  0  0  0  0  0  0  0  0  0  0  0
    1.3442   -1.2387    8.9678 H   0  0  0  0  0  0  0  0  0  0  0  0
    0.5320    0.1027    8.0622 H   0  0  0  0  0  0  0  0  0  0  0  0
    0.3345   -3.1026    7.7591 H   0  0  0  0  0  0  0  0  0  0  0  0
    0.0858   -4.3894    5.6999 H   0  0  0  0  0  0  0  0  0  0  0  0
    2.3465   -5.5616    4.4384 H   0  0  0  0  0  0  0  0  0  0  0  0
    2.0173   -7.9977    4.3133 H   0  0  0  0  0  0  0  0  0  0  0  0
   -0.8925   -9.6337    2.5652 H   0  0  0  0  0  0  0  0  0  0  0  0
    0.8630   -9.7314    2.1559 H   0  0  0  0  0  0  0  0  0  0  0  0
    0.3196   -9.8568    3.8740 H   0  0  0  0  0  0  0  0  0  0  0  0
   -1.3970   -7.3984    1.7415 H   0  0  0  0  0  0  0  0  0  0  0  0
   -1.0708   -4.9604    1.8819 H   0  0  0  0  0  0  0  0  0  0  0  0
   -3.1111    0.9636    4.3160 H   0  0  0  0  0  0  0  0  0  0  0  0
   -2.5550    3.2058    5.1684 H   0  0  0  0  0  0  0  0  0  0  0  0
    0.4426    5.0470    7.3483 H   0  0  0  0  0  0  0  0  0  0  0  0
    1.2542    3.6211    6.5934 H   0  0  0  0  0  0  0  0  0  0  0  0
   -0.4961    3.5396    7.0617 H   0  0  0  0  0  0  0  0  0  0  0  0
    1.3602    2.9136    3.3987 H   0  0  0  0  0  0  0  0  0  0  0  0
    0.7971    0.6759    2.5178 H   0  0  0  0  0  0  0  0  0  0  0  0
   -1.2574   -0.8502    5.6359 H   0  0  0  0  0  0  0  0  0  0  0  0
   -2.4291   -2.3871    7.1490 H   0  0  0  0  0  0  0  0  0  0  0  0
   -3.0903   -6.1129    5.3933 H   0  0  0  0  0  0  0  0  0  0  0  0
   -3.4783   -6.7191    7.0482 H   0  0  0  0  0  0  0  0  0  0  0  0
   -2.1581   -5.5060    6.8262 H   0  0  0  0  0  0  0  0  0  0  0  0
   -4.4936   -4.1350    3.8064 H   0  0  0  0  0  0  0  0  0  0  0  0
   -3.3510   -2.6113    2.2858 H   0  0  0  0  0  0  0  0  0  0  0  0
   -5.9949   -2.4106   -4.1221 H   0  0  0  0  0  0  0  0  0  0  0  0
   -8.2036   -3.3714   -3.6572 H   0  0  0  0  0  0  0  0  0  0  0  0
  -10.3222   -1.7492   -2.0927 H   0  0  0  0  0  0  0  0  0  0  0  0
  -10.3776   -1.7931   -0.2784 H   0  0  0  0  0  0  0  0  0  0  0  0
  -11.6655   -2.6064   -1.2335 H   0  0  0  0  0  0  0  0  0  0  0  0
   -7.6367   -2.6746    0.5469 H   0  0  0  0  0  0  0  0  0  0  0  0
   -5.4652   -1.6648    0.1059 H   0  0  0  0  0  0  0  0  0  0  0  0
   -2.4921   -0.1064   -3.9402 H   0  0  0  0  0  0  0  0  0  0  0  0
   -1.0433   -1.0999   -5.6641 H   0  0  0  0  0  0  0  0  0  0  0  0
   -1.4868   -4.1045   -8.7998 H   0  0  0  0  0  0  0  0  0  0  0  0
   -2.5098   -2.9567   -7.8559 H   0  0  0  0  0  0  0  0  0  0  0  0
   -2.6478   -4.7469   -7.5740 H   0  0  0  0  0  0  0  0  0  0  0  0
   -2.5092   -5.0171   -4.6556 H   0  0  0  0  0  0  0  0  0  0  0  0
   -3.9775   -4.0288   -2.9434 H   0  0  0  0  0  0  0  0  0  0  0  0
   -8.7624    1.4654   -3.9999 H   0  0  0  0  0  0  0  0  0  0  0  0
   -9.6496    0.3813   -6.0040 H   0  0  0  0  0  0  0  0  0  0  0  0
   -9.1742   -0.5662   -8.2426 H   0  0  0  0  0  0  0  0  0  0  0  0
   -7.5282   -1.1653   -8.6508 H   0  0  0  0  0  0  0  0  0  0  0  0
   -8.5981   -2.1437   -7.5680 H   0  0  0  0  0  0  0  0  0  0  0  0
   -5.7088   -1.0859   -6.9615 H   0  0  0  0  0  0  0  0  0  0  0  0
   -4.8211   -0.0072   -4.9633 H   0  0  0  0  0  0  0  0  0  0  0  0
   -6.2339    3.7146   -1.7022 H   0  0  0  0  0  0  0  0  0  0  0  0
   -7.6586    4.2712    0.2100 H   0  0  0  0  0  0  0  0  0  0  0  0
  -10.3872    2.0074    1.5197 H   0  0  0  0  0  0  0  0  0  0  0  0
   -9.9753    3.7413    1.2696 H   0  0  0  0  0  0  0  0  0  0  0  0
   -8.9312    2.7102    2.3247 H   0  0  0  0  0  0  0  0  0  0  0  0
   -9.4870    0.3788   -0.0110 H   0  0  0  0  0  0  0  0  0  0  0  0
   -8.0582   -0.1879   -1.9280 H   0  0  0  0  0  0  0  0  0  0  0  0
    0.0641    6.9480   -5.4745 H   0  0  0  0  0  0  0  0  0  0  0  0
    1.4946    7.1719   -7.4640 H   0  0  0  0  0  0  0  0  0  0  0  0
    3.0679    5.6241   -9.0709 H   0  0  0  0  0  0  0  0  0  0  0  0
    1.5884    6.0578  -10.0109 H   0  0  0  0  0  0  0  0  0  0  0  0
    2.1293    4.3423   -9.9150 H   0  0  0  0  0  0  0  0  0  0  0  0
    0.7165    3.0528   -8.4841 H   0  0  0  0  0  0  0  0  0  0  0  0
   -0.7012    2.8264   -6.4842 H   0  0  0  0  0  0  0  0  0  0  0  0
   -2.6767    6.3891   -3.0412 H   0  0  0  0  0  0  0  0  0  0  0  0
   -1.9627    7.1972   -0.8315 H   0  0  0  0  0  0  0  0  0  0  0  0
    0.3147    7.7510    0.5324 H   0  0  0  0  0  0  0  0  0  0  0  0
    1.3683    6.3074    0.7514 H   0  0  0  0  0  0  0  0  0  0  0  0
   -0.3674    6.2329    1.2414 H   0  0  0  0  0  0  0  0  0  0  0  0
    1.7481    5.0403   -1.2441 H   0  0  0  0  0  0  0  0  0  0  0  0
    1.0443    4.2527   -3.4649 H   0  0  0  0  0  0  0  0  0  0  0  0
  1  2  2  3
  2  3  1  0
  3  4  2  0
  3  5  1  0
  5  6  2  0
  6  7  1  0
  7  8  2  0
  8  9  1  0
  9 10  2  0
 10 11  1  0
 11 12  2  3
 12 13  1  0
 13 14  3  0
 12 15  1  0
 15 16  3  0
  8 17  1  0
 17 18  1  0
 18 19  1  0
 19 20  2  0
 20 21  1  0
 21 22  1  0
 21 23  1  0
  1 24  1  0
 24 25  2  0
 25 26  1  0
 26 27  1  0
 27 28  2  0
 28 29  1  0
 29 30  2  0
 30 31  1  0
 30 32  1  0
 32 33  2  0
 26 34  1  0
 34 35  2  0
 35 36  1  0
 36 37  2  0
 37 38  1  0
 37 39  1  0
 39 40  2  0
 25 41  1  0
 41 42  1  0
 42 43  1  0
 43 44  2  0
 44 45  1  0
 45 46  1  0
 46 47  2  0
 47 48  1  0
 48 49  2  0
 49 50  1  0
 49 51  1  0
 51 52  2  0
 45 53  1  0
 53 54  2  0
 54 55  1  0
 55 56  2  0
 56 57  1  0
 56 58  1  0
 58 59  2  0
 44 60  1  0
 60 61  1  0
 43 62  1  0
 62 63  2  0
 63 64  1  0
 64 65  1  0
 65 66  2  0
 66 67  1  0
 67 68  2  0
 68 69  1  0
 69 70  1  0
 68 71  1  0
 71 72  2  0
 64 73  1  0
 73 74  2  0
 74 75  1  0
 75 76  2  0
 76 77  1  0
 77 78  1  0
 76 79  1  0
 79 80  2  0
 63 81  1  0
 81 82  1  0
 82 83  1  0
 83 84  2  0
 84 85  1  0
 85 86  1  0
 86 87  2  0
 87 88  1  0
 88 89  2  0
 89 90  1  0
 90 91  1  0
 89 92  1  0
 92 93  2  0
 85 94  1  0
 94 95  2  0
 95 96  1  0
 96 97  2  0
 97 98  1  0
 98 99  1  0
 97100  1  0
100101  2  0
 84102  1  0
102103  1  0
 83104  1  0
104105  2  0
105106  1  0
106107  1  0
107108  2  0
108109  1  0
109110  2  0
110111  1  0
110112  1  0
112113  2  0
106114  1  0
114115  2  0
115116  1  0
116117  2  0
117118  1  0
117119  1  0
119120  2  0
105121  1  0
121122  1  0
122123  1  0
123124  2  0
124125  1  0
125126  1  0
126127  2  0
127128  1  0
128129  2  0
129130  1  0
129131  1  0
131132  2  0
125133  1  0
133134  2  0
134135  1  0
135136  2  0
136137  1  0
136138  1  0
138139  2  0
124140  1  0
140141  1  0
123142  1  0
142143  2  3
143144  1  0
144145  3  0
143146  1  0
146147  3  0
142148  1  0
148149  3  0
 11  2  1  0
 23 17  1  0
 61 24  1  0
103 62  1  0
141104  1  0
 10  5  1  0
 22 18  1  0
 33 27  1  0
 40 34  1  0
 60 41  2  0
 72 65  1  0
 80 73  1  0
102 81  2  0
113107  1  0
120114  1  0
140121  2  0
 23  7  1  0
 52 46  1  0
 59 53  1  0
 93 86  1  0
101 94  1  0
132126  1  0
139133  1  0
  1150  1  0
  6151  1  0
  9152  1  0
 17153  1  0
 18154  1  0
 19155  1  0
 20156  1  0
 21157  1  0
 22158  1  0
 22159  1  0
 23160  1  0
 28161  1  0
 29162  1  0
 31163  1  0
 31164  1  0
 31165  1  0
 32166  1  0
 33167  1  0
 35168  1  0
 36169  1  0
 38170  1  0
 38171  1  0
 38172  1  0
 39173  1  0
 40174  1  0
 47175  1  0
 48176  1  0
 50177  1  0
 50178  1  0
 50179  1  0
 51180  1  0
 52181  1  0
 54182  1  0
 55183  1  0
 57184  1  0
 57185  1  0
 57186  1  0
 58187  1  0
 59188  1  0
 66189  1  0
 67190  1  0
 70191  1  0
 70192  1  0
 70193  1  0
 71194  1  0
 72195  1  0
 74196  1  0
 75197  1  0
 78198  1  0
 78199  1  0
 78200  1  0
 79201  1  0
 80202  1  0
 87203  1  0
 88204  1  0
 91205  1  0
 91206  1  0
 91207  1  0
 92208  1  0
 93209  1  0
 95210  1  0
 96211  1  0
 99212  1  0
 99213  1  0
 99214  1  0
100215  1  0
101216  1  0
108217  1  0
109218  1  0
111219  1  0
111220  1  0
111221  1  0
112222  1  0
113223  1  0
115224  1  0
116225  1  0
118226  1  0
118227  1  0
118228  1  0
119229  1  0
120230  1  0
127231  1  0
128232  1  0
130233  1  0
130234  1  0
130235  1  0
131236  1  0
132237  1  0
134238  1  0
135239  1  0
137240  1  0
137241  1  0
137242  1  0
138243  1  0
139244  1  0
M  END

