
     RDKit          3D

232254  0  0  0  0  0  0  0  0999 V2000
   -3.6668    5.6448    2.2326 C   0  0  0  0  0  0  0  0  0  0  0  0
   -4.2899    4.7178    3.0025 C   0  0  0  0  0  0  0  0  0  0  0  0
   -4.9570    3.4904    2.5469 C   0  0  0  0  0  0  0  0  0  0  0  0
   -5.5538    3.3326    1.4519 O   0  0  0  0  0  0  0  0  0  0  0  0
   -5.0859    2.5785    3.6620 C   0  0  0  0  0  0  0  0  0  0  0  0
   -5.7110    1.3084    3.6421 C   0  0  0  0  0  0  0  0  0  0  0  0
   -5.8149    0.7100    4.8839 C   0  0  0  0  0  0  0  0  0  0  0  0
   -5.3343    1.3246    6.0804 C   0  0  0  0  0  0  0  0  0  0  0  0
   -4.7309    2.5708    6.1105 C   0  0  0  0  0  0  0  0  0  0  0  0
   -4.6093    3.2074    4.8390 C   0  0  0  0  0  0  0  0  0  0  0  0
   -4.1612    4.5941    4.5003 C   0  0  0  0  0  0  0  0  0  0  0  0
   -3.7603    5.5487    5.3861 C   0  0  0  0  0  0  0  0  0  0  0  0
   -3.6493    6.9455    5.0462 C   0  0  0  0  0  0  0  0  0  0  0  0
   -3.5449    8.0582    4.7541 N   0  0  0  0  0  0  0  0  0  0  0  0
   -3.3609    5.2385    6.7327 C   0  0  0  0  0  0  0  0  0  0  0  0
   -3.0105    4.9955    7.8122 N   0  0  0  0  0  0  0  0  0  0  0  0
   -5.8425    0.1732    6.8966 C   0  0  0  0  0  0  0  0  0  0  0  0
   -4.8125   -0.8636    7.4343 C   0  0  0  0  0  0  0  0  0  0  0  0
   -3.6472   -0.9884    6.4792 C   0  0  0  0  0  0  0  0  0  0  0  0
   -4.1236   -1.5682    5.3785 C   0  0  0  0  0  0  0  0  0  0  0  0
   -5.5935   -1.8085    5.6114 C   0  0  0  0  0  0  0  0  0  0  0  0
   -5.5419   -2.1498    7.0894 C   0  0  0  0  0  0  0  0  0  0  0  0
   -6.3526   -0.4503    5.6721 C   0  0  0  0  0  0  0  0  0  0  0  0
   -3.2161    5.5210    0.8197 C   0  0  0  0  0  0  0  0  0  0  0  0
   -2.1662    6.2853    0.2604 C   0  0  0  0  0  0  0  0  0  0  0  0
   -1.4066    7.2946    0.9576 N   0  0  0  0  0  0  0  0  0  0  0  0
   -0.7772    7.0103    2.2313 C   0  0  0  0  0  0  0  0  0  0  0  0
   -0.5302    8.0433    3.1525 C   0  0  0  0  0  0  0  0  0  0  0  0
    0.0247    7.7640    4.4047 C   0  0  0  0  0  0  0  0  0  0  0  0
    0.3404    6.4448    4.7605 C   0  0  0  0  0  0  0  0  0  0  0  0
    0.9042    6.1460    6.1174 C   0  0  0  0  0  0  0  0  0  0  0  0
    0.0737    5.4069    3.8586 C   0  0  0  0  0  0  0  0  0  0  0  0
   -0.4636    5.6883    2.6005 C   0  0  0  0  0  0  0  0  0  0  0  0
   -1.1705    8.5401    0.2682 C   0  0  0  0  0  0  0  0  0  0  0  0
   -2.2269    9.1909   -0.3919 C   0  0  0  0  0  0  0  0  0  0  0  0
   -1.9889   10.3412   -1.1474 C   0  0  0  0  0  0  0  0  0  0  0  0
   -0.6889   10.8529   -1.2661 C   0  0  0  0  0  0  0  0  0  0  0  0
   -0.4386   12.0911   -2.0745 C   0  0  0  0  0  0  0  0  0  0  0  0
    0.3633   10.2261   -0.5812 C   0  0  0  0  0  0  0  0  0  0  0  0
    0.1257    9.0733    0.1727 C   0  0  0  0  0  0  0  0  0  0  0  0
   -1.8311    5.8539   -1.0238 C   0  0  0  0  0  0  0  0  0  0  0  0
   -0.4887    6.0988   -1.9848 S   0  0  0  0  0  0  0  0  0  0  0  0
   -0.7968    4.8057   -3.0605 C   0  0  0  0  0  0  0  0  0  0  0  0
   -2.0515    4.2321   -2.6942 C   0  0  0  0  0  0  0  0  0  0  0  0
   -2.8393    3.3560   -3.5441 N   0  0  0  0  0  0  0  0  0  0  0  0
   -3.8724    2.5195   -2.9991 C   0  0  0  0  0  0  0  0  0  0  0  0
   -3.6744    1.1377   -2.8882 C   0  0  0  0  0  0  0  0  0  0  0  0
   -4.7346    0.3073   -2.5062 C   0  0  0  0  0  0  0  0  0  0  0  0
   -5.9930    0.8454   -2.2106 C   0  0  0  0  0  0  0  0  0  0  0  0
   -7.0974   -0.0453   -1.7217 C   0  0  0  0  0  0  0  0  0  0  0  0
   -6.1948    2.2265   -2.3327 C   0  0  0  0  0  0  0  0  0  0  0  0
   -5.1537    3.0500   -2.7636 C   0  0  0  0  0  0  0  0  0  0  0  0
   -3.0164    3.6850   -4.9355 C   0  0  0  0  0  0  0  0  0  0  0  0
   -3.2164    5.0178   -5.3423 C   0  0  0  0  0  0  0  0  0  0  0  0
   -3.4198    5.3208   -6.6911 C   0  0  0  0  0  0  0  0  0  0  0  0
   -3.4485    4.2985   -7.6512 C   0  0  0  0  0  0  0  0  0  0  0  0
   -3.6105    4.6281   -9.1050 C   0  0  0  0  0  0  0  0  0  0  0  0
   -3.2582    2.9688   -7.2475 C   0  0  0  0  0  0  0  0  0  0  0  0
   -3.0574    2.6625   -5.8991 C   0  0  0  0  0  0  0  0  0  0  0  0
   -2.5434    4.8122   -1.5119 C   0  0  0  0  0  0  0  0  0  0  0  0
   -3.6445    4.3453   -0.3356 S   0  0  0  0  0  0  0  0  0  0  0  0
    0.3321    4.0049   -3.6314 C   0  0  0  0  0  0  0  0  0  0  0  0
    0.2846    3.5049   -4.9460 C   0  0  0  0  0  0  0  0  0  0  0  0
   -0.5042    4.0846   -5.8784 F   0  0  0  0  0  0  0  0  0  0  0  0
    1.0808    2.4128   -5.3192 C   0  0  0  0  0  0  0  0  0  0  0  0
    0.8603    1.8013   -6.5109 F   0  0  0  0  0  0  0  0  0  0  0  0
    2.0470    1.9083   -4.4375 C   0  0  0  0  0  0  0  0  0  0  0  0
    2.3088    2.6053   -3.2539 C   0  0  0  0  0  0  0  0  0  0  0  0
    3.3547    2.2433   -2.4626 N   0  0  0  0  0  0  0  0  0  0  0  0
    3.5933    2.8265   -1.2616 C   0  0  0  0  0  0  0  0  0  0  0  0
    4.8584    2.4452   -0.5346 C   0  0  0  0  0  0  0  0  0  0  0  0
    6.0302    3.2918   -1.0243 C   0  0  0  0  0  0  0  0  0  0  0  0
    2.6967    3.8174   -0.8023 C   0  0  0  0  0  0  0  0  0  0  0  0
    1.6392    4.1581   -1.5879 N   0  0  0  0  0  0  0  0  0  0  0  0
    1.4295    3.6121   -2.8167 C   0  0  0  0  0  0  0  0  0  0  0  0
    2.8316    4.4900    0.5372 C   0  0  0  0  0  0  0  0  0  0  0  0
    2.2397    3.6176    1.6406 C   0  0  0  0  0  0  0  0  0  0  0  0
    2.3882    0.4790   -4.4525 C   0  0  0  0  0  0  0  0  0  0  0  0
    1.4280   -0.4865   -4.2158 C   0  0  0  0  0  0  0  0  0  0  0  0
    2.1377   -1.6067   -3.8677 C   0  0  0  0  0  0  0  0  0  0  0  0
    1.6960   -2.7504   -3.1884 C   0  0  0  0  0  0  0  0  0  0  0  0
    0.3800   -2.7845   -2.5481 C   0  0  0  0  0  0  0  0  0  0  0  0
   -0.8509   -2.6303   -3.1718 C   0  0  0  0  0  0  0  0  0  0  0  0
   -1.8898   -2.3556   -2.2742 C   0  0  0  0  0  0  0  0  0  0  0  0
   -1.4739   -2.2677   -0.9514 C   0  0  0  0  0  0  0  0  0  0  0  0
   -2.4628   -1.6692    0.4887 Si  0  0  0  0  0  4  0  0  0  0  0  0
   -1.5718   -2.1658    2.0651 C   0  0  0  0  0  0  0  0  0  0  0  0
   -1.6134   -3.6696    2.3034 C   0  0  0  0  0  0  0  0  0  0  0  0
   -4.1904   -2.4126    0.4155 C   0  0  0  0  0  0  0  0  0  0  0  0
   -5.1409   -1.7155    1.3790 C   0  0  0  0  0  0  0  0  0  0  0  0
   -2.5775    0.2124    0.5013 C   0  0  0  0  0  0  0  0  0  0  0  0
   -1.2476    0.8753    0.1633 C   0  0  0  0  0  0  0  0  0  0  0  0
    0.1787   -2.5293   -0.9011 S   0  0  0  0  0  0  0  0  0  0  0  0
    2.6980   -3.6354   -2.7841 C   0  0  0  0  0  0  0  0  0  0  0  0
    4.0435   -3.3898   -2.9902 C   0  0  0  0  0  0  0  0  0  0  0  0
    4.5017   -2.1742   -3.5588 C   0  0  0  0  0  0  0  0  0  0  0  0
    5.9245   -1.7678   -3.5313 C   0  0  0  0  0  0  0  0  0  0  0  0
    6.5668   -0.9266   -4.4373 C   0  0  0  0  0  0  0  0  0  0  0  0
    7.9159   -0.6931   -4.1261 C   0  0  0  0  0  0  0  0  0  0  0  0
    8.3313   -1.3253   -2.9604 C   0  0  0  0  0  0  0  0  0  0  0  0
   10.0355   -1.3611   -2.2454 Si  0  0  0  0  0  4  0  0  0  0  0  0
   11.0164    0.1557   -2.7707 C   0  0  0  0  0  0  0  0  0  0  0  0
   11.6942   -0.0321   -4.1227 C   0  0  0  0  0  0  0  0  0  0  0  0
   10.9212   -2.9282   -2.7974 C   0  0  0  0  0  0  0  0  0  0  0  0
   10.2044   -4.1883   -2.3262 C   0  0  0  0  0  0  0  0  0  0  0  0
    9.9043   -1.3590   -0.3690 C   0  0  0  0  0  0  0  0  0  0  0  0
    9.2591   -0.0775    0.1444 C   0  0  0  0  0  0  0  0  0  0  0  0
    7.0324   -2.1782   -2.3337 S   0  0  0  0  0  0  0  0  0  0  0  0
    3.4826   -1.2859   -3.9748 C   0  0  0  0  0  0  0  0  0  0  0  0
    3.6079   -0.0237   -4.3325 O   0  0  0  0  0  0  0  0  0  0  0  0
    4.7113   -4.4687   -2.4308 C   0  0  0  0  0  0  0  0  0  0  0  0
    3.7087   -5.2808   -1.9073 C   0  0  0  0  0  0  0  0  0  0  0  0
    2.5243   -4.7493   -2.1246 O   0  0  0  0  0  0  0  0  0  0  0  0
    3.9185   -6.5071   -1.1187 C   0  0  0  0  0  0  0  0  0  0  0  0
    2.9475   -7.4203   -0.9040 C   0  0  0  0  0  0  0  0  0  0  0  0
    1.7824   -7.6305   -1.7786 C   0  0  0  0  0  0  0  0  0  0  0  0
    1.5461   -7.0433   -2.8680 O   0  0  0  0  0  0  0  0  0  0  0  0
    1.0183   -8.7483   -1.2831 C   0  0  0  0  0  0  0  0  0  0  0  0
   -0.2143   -9.2172   -1.7947 C   0  0  0  0  0  0  0  0  0  0  0  0
   -0.7817  -10.2294   -1.0489 C   0  0  0  0  0  0  0  0  0  0  0  0
   -0.1819  -10.7512    0.1388 C   0  0  0  0  0  0  0  0  0  0  0  0
    1.0289  -10.3047    0.6392 C   0  0  0  0  0  0  0  0  0  0  0  0
    1.6536   -9.2802   -0.1322 C   0  0  0  0  0  0  0  0  0  0  0  0
    2.9015   -8.4996    0.1424 C   0  0  0  0  0  0  0  0  0  0  0  0
    3.7602   -8.6825    1.1838 C   0  0  0  0  0  0  0  0  0  0  0  0
    3.7280   -9.8509    2.0212 C   0  0  0  0  0  0  0  0  0  0  0  0
    3.7230  -10.7869    2.7026 N   0  0  0  0  0  0  0  0  0  0  0  0
    4.7634   -7.7169    1.5531 C   0  0  0  0  0  0  0  0  0  0  0  0
    5.5694   -6.9475    1.8675 N   0  0  0  0  0  0  0  0  0  0  0  0
   -1.3562  -11.6599    0.3527 C   0  0  0  0  0  0  0  0  0  0  0  0
   -2.3842  -11.2748    1.4596 C   0  0  0  0  0  0  0  0  0  0  0  0
   -2.4494   -9.7695    1.6056 C   0  0  0  0  0  0  0  0  0  0  0  0
   -3.0092   -9.3021    0.4888 C   0  0  0  0  0  0  0  0  0  0  0  0
   -3.2994  -10.5011   -0.3819 C   0  0  0  0  0  0  0  0  0  0  0  0
   -3.6783  -11.4969    0.6981 C   0  0  0  0  0  0  0  0  0  0  0  0
   -1.9630  -11.1370   -0.8752 C   0  0  0  0  0  0  0  0  0  0  0  0
   -3.2569    6.5026    2.7134 H   0  0  0  0  0  0  0  0  0  0  0  0
   -6.1220    0.8661    2.7467 H   0  0  0  0  0  0  0  0  0  0  0  0
   -4.4485    3.0019    7.0509 H   0  0  0  0  0  0  0  0  0  0  0  0
   -6.6412    0.4546    7.6193 H   0  0  0  0  0  0  0  0  0  0  0  0
   -4.5336   -0.7461    8.5022 H   0  0  0  0  0  0  0  0  0  0  0  0
   -2.6018   -0.7910    6.6870 H   0  0  0  0  0  0  0  0  0  0  0  0
   -3.5320   -1.9314    4.5514 H   0  0  0  0  0  0  0  0  0  0  0  0
   -6.0510   -2.5800    4.9579 H   0  0  0  0  0  0  0  0  0  0  0  0
   -6.5497   -2.2333    7.5620 H   0  0  0  0  0  0  0  0  0  0  0  0
   -4.9502   -3.0710    7.3126 H   0  0  0  0  0  0  0  0  0  0  0  0
   -7.4608   -0.5342    5.6476 H   0  0  0  0  0  0  0  0  0  0  0  0
   -0.7907    9.0646    2.9145 H   0  0  0  0  0  0  0  0  0  0  0  0
    0.1989    8.5748    5.1003 H   0  0  0  0  0  0  0  0  0  0  0  0
    1.6827    6.8925    6.3806 H   0  0  0  0  0  0  0  0  0  0  0  0
    1.3715    5.1386    6.1423 H   0  0  0  0  0  0  0  0  0  0  0  0
    0.0910    6.1837    6.8721 H   0  0  0  0  0  0  0  0  0  0  0  0
    0.2807    4.3783    4.1259 H   0  0  0  0  0  0  0  0  0  0  0  0
   -0.6558    4.8685    1.9236 H   0  0  0  0  0  0  0  0  0  0  0  0
   -3.2338    8.7987   -0.3292 H   0  0  0  0  0  0  0  0  0  0  0  0
   -2.8170   10.8265   -1.6490 H   0  0  0  0  0  0  0  0  0  0  0  0
    0.6084   12.1131   -2.4475 H   0  0  0  0  0  0  0  0  0  0  0  0
   -0.6183   12.9874   -1.4450 H   0  0  0  0  0  0  0  0  0  0  0  0
   -1.1150   12.1240   -2.9561 H   0  0  0  0  0  0  0  0  0  0  0  0
    1.3697   10.6220   -0.6448 H   0  0  0  0  0  0  0  0  0  0  0  0
    0.9577    8.5803    0.6584 H   0  0  0  0  0  0  0  0  0  0  0  0
   -2.7089    0.7051   -3.1206 H   0  0  0  0  0  0  0  0  0  0  0  0
   -4.5817   -0.7571   -2.4355 H   0  0  0  0  0  0  0  0  0  0  0  0
   -6.9709   -0.2238   -0.6348 H   0  0  0  0  0  0  0  0  0  0  0  0
   -8.0920    0.4202   -1.8936 H   0  0  0  0  0  0  0  0  0  0  0  0
   -7.0754   -1.0214   -2.2537 H   0  0  0  0  0  0  0  0  0  0  0  0
   -7.1588    2.6627   -2.1078 H   0  0  0  0  0  0  0  0  0  0  0  0
   -5.3319    4.1098   -2.8946 H   0  0  0  0  0  0  0  0  0  0  0  0
   -3.2207    5.8194   -4.6155 H   0  0  0  0  0  0  0  0  0  0  0  0
   -3.5544    6.3535   -6.9861 H   0  0  0  0  0  0  0  0  0  0  0  0
   -4.2027    5.5593   -9.2343 H   0  0  0  0  0  0  0  0  0  0  0  0
   -2.6092    4.7684   -9.5630 H   0  0  0  0  0  0  0  0  0  0  0  0
   -4.1396    3.8078   -9.6362 H   0  0  0  0  0  0  0  0  0  0  0  0
   -3.2594    2.1686   -7.9775 H   0  0  0  0  0  0  0  0  0  0  0  0
   -2.9139    1.6301   -5.6083 H   0  0  0  0  0  0  0  0  0  0  0  0
    5.0838    1.3736   -0.7265 H   0  0  0  0  0  0  0  0  0  0  0  0
    4.7575    2.5575    0.5630 H   0  0  0  0  0  0  0  0  0  0  0  0
    5.8263    4.3711   -0.8572 H   0  0  0  0  0  0  0  0  0  0  0  0
    6.9508    3.0119   -0.4705 H   0  0  0  0  0  0  0  0  0  0  0  0
    6.1999    3.1160   -2.1092 H   0  0  0  0  0  0  0  0  0  0  0  0
    2.2867    5.4589    0.5201 H   0  0  0  0  0  0  0  0  0  0  0  0
    3.8939    4.7216    0.7613 H   0  0  0  0  0  0  0  0  0  0  0  0
    2.3314    4.1433    2.6139 H   0  0  0  0  0  0  0  0  0  0  0  0
    2.7741    2.6498    1.7157 H   0  0  0  0  0  0  0  0  0  0  0  0
    1.1679    3.4134    1.4329 H   0  0  0  0  0  0  0  0  0  0  0  0
    0.3642   -0.3199   -4.1003 H   0  0  0  0  0  0  0  0  0  0  0  0
   -0.9852   -2.6524   -4.2458 H   0  0  0  0  0  0  0  0  0  0  0  0
   -2.9040   -2.1835   -2.5967 H   0  0  0  0  0  0  0  0  0  0  0  0
   -0.5159   -1.8318    1.9961 H   0  0  0  0  0  0  0  0  0  0  0  0
   -2.0388   -1.6360    2.9154 H   0  0  0  0  0  0  0  0  0  0  0  0
   -2.6581   -4.0067    2.4682 H   0  0  0  0  0  0  0  0  0  0  0  0
   -1.1774   -4.2139    1.4386 H   0  0  0  0  0  0  0  0  0  0  0  0
   -1.0231   -3.9148    3.2116 H   0  0  0  0  0  0  0  0  0  0  0  0
   -4.5828   -2.3133   -0.6168 H   0  0  0  0  0  0  0  0  0  0  0  0
   -4.1362   -3.4944    0.6568 H   0  0  0  0  0  0  0  0  0  0  0  0
   -4.7529   -1.7648    2.4170 H   0  0  0  0  0  0  0  0  0  0  0  0
   -6.1327   -2.2120    1.3455 H   0  0  0  0  0  0  0  0  0  0  0  0
   -5.2692   -0.6545    1.0824 H   0  0  0  0  0  0  0  0  0  0  0  0
   -2.9050    0.5400    1.5121 H   0  0  0  0  0  0  0  0  0  0  0  0
   -3.3457    0.5364   -0.2238 H   0  0  0  0  0  0  0  0  0  0  0  0
   -0.9088    0.5768   -0.8517 H   0  0  0  0  0  0  0  0  0  0  0  0
   -0.4747    0.5965    0.9107 H   0  0  0  0  0  0  0  0  0  0  0  0
   -1.3721    1.9788    0.1775 H   0  0  0  0  0  0  0  0  0  0  0  0
    6.0874   -0.5045   -5.3108 H   0  0  0  0  0  0  0  0  0  0  0  0
    8.5644   -0.0810   -4.7364 H   0  0  0  0  0  0  0  0  0  0  0  0
   10.3289    1.0257   -2.8123 H   0  0  0  0  0  0  0  0  0  0  0  0
   11.7934    0.3561   -2.0032 H   0  0  0  0  0  0  0  0  0  0  0  0
   12.2007    0.9116   -4.4146 H   0  0  0  0  0  0  0  0  0  0  0  0
   12.4611   -0.8332   -4.0614 H   0  0  0  0  0  0  0  0  0  0  0  0
   10.9507   -0.2928   -4.9043 H   0  0  0  0  0  0  0  0  0  0  0  0
   11.9528   -2.9155   -2.3866 H   0  0  0  0  0  0  0  0  0  0  0  0
   10.9804   -2.9349   -3.9061 H   0  0  0  0  0  0  0  0  0  0  0  0
   10.7648   -5.0818   -2.6725 H   0  0  0  0  0  0  0  0  0  0  0  0
   10.1547   -4.2184   -1.2175 H   0  0  0  0  0  0  0  0  0  0  0  0
    9.1790   -4.2326   -2.7489 H   0  0  0  0  0  0  0  0  0  0  0  0
   10.9231   -1.4587    0.0609 H   0  0  0  0  0  0  0  0  0  0  0  0
    9.2960   -2.2296   -0.0469 H   0  0  0  0  0  0  0  0  0  0  0  0
    9.8866    0.8020   -0.1124 H   0  0  0  0  0  0  0  0  0  0  0  0
    8.2451    0.0518   -0.2925 H   0  0  0  0  0  0  0  0  0  0  0  0
    9.1624   -0.1310    1.2496 H   0  0  0  0  0  0  0  0  0  0  0  0
    5.7765   -4.6442   -2.3754 H   0  0  0  0  0  0  0  0  0  0  0  0
    4.8791   -6.5945   -0.6425 H   0  0  0  0  0  0  0  0  0  0  0  0
   -0.6950   -8.7947   -2.6668 H   0  0  0  0  0  0  0  0  0  0  0  0
    1.4015  -10.6980    1.5662 H   0  0  0  0  0  0  0  0  0  0  0  0
   -1.1030  -12.7417    0.3033 H   0  0  0  0  0  0  0  0  0  0  0  0
   -2.2893  -11.8358    2.4143 H   0  0  0  0  0  0  0  0  0  0  0  0
   -2.1804   -9.1804    2.4754 H   0  0  0  0  0  0  0  0  0  0  0  0
   -3.2738   -8.2691    0.2953 H   0  0  0  0  0  0  0  0  0  0  0  0
   -4.0626  -10.3358   -1.1684 H   0  0  0  0  0  0  0  0  0  0  0  0
   -3.7996  -12.5391    0.3194 H   0  0  0  0  0  0  0  0  0  0  0  0
   -4.5895  -11.2019    1.2719 H   0  0  0  0  0  0  0  0  0  0  0  0
   -2.0701  -11.8989   -1.6793 H   0  0  0  0  0  0  0  0  0  0  0  0
  1  2  2  3
  2  3  1  0
  3  4  2  0
  3  5  1  0
  5  6  2  0
  6  7  1  0
  7  8  2  0
  8  9  1  0
  9 10  2  0
 10 11  1  0
 11 12  2  3
 12 13  1  0
 13 14  3  0
 12 15  1  0
 15 16  3  0
  8 17  1  0
 17 18  1  0
 18 19  1  0
 19 20  2  0
 20 21  1  0
 21 22  1  0
 21 23  1  0
  1 24  1  0
 24 25  2  0
 25 26  1  0
 26 27  1  0
 27 28  2  0
 28 29  1  0
 29 30  2  0
 30 31  1  0
 30 32  1  0
 32 33  2  0
 26 34  1  0
 34 35  2  0
 35 36  1  0
 36 37  2  0
 37 38  1  0
 37 39  1  0
 39 40  2  0
 25 41  1  0
 41 42  1  0
 42 43  1  0
 43 44  2  0
 44 45  1  0
 45 46  1  0
 46 47  2  0
 47 48  1  0
 48 49  2  0
 49 50  1  0
 49 51  1  0
 51 52  2  0
 45 53  1  0
 53 54  2  0
 54 55  1  0
 55 56  2  0
 56 57  1  0
 56 58  1  0
 58 59  2  0
 44 60  1  0
 60 61  1  0
 43 62  1  0
 62 63  2  0
 63 64  1  0
 63 65  1  0
 65 66  1  0
 65 67  2  0
 67 68  1  0
 68 69  2  0
 69 70  1  0
 70 71  1  0
 71 72  1  0
 70 73  2  0
 73 74  1  0
 74 75  2  0
 73 76  1  0
 76 77  1  0
 67 78  1  0
 78 79  2  0
 79 80  1  0
 80 81  2  0
 81 82  1  0
 82 83  2  0
 83 84  1  0
 84 85  2  0
 85 86  1  0
 86 87  1  0
 87 88  1  0
 86 89  1  0
 89 90  1  0
 86 91  1  0
 91 92  1  0
 85 93  1  0
 81 94  1  0
 94 95  2  0
 95 96  1  0
 96 97  1  0
 97 98  2  0
 98 99  1  0
 99100  2  0
100101  1  0
101102  1  0
102103  1  0
101104  1  0
104105  1  0
101106  1  0
106107  1  0
100108  1  0
 96109  2  0
109110  1  0
 95111  1  0
111112  2  0
112113  1  0
112114  1  0
114115  2  3
115116  1  0
116117  2  0
116118  1  0
118119  2  0
119120  1  0
120121  2  0
121122  1  0
122123  2  0
123124  1  0
124125  2  3
125126  1  0
126127  3  0
125128  1  0
128129  3  0
121130  1  0
130131  1  0
131132  1  0
132133  2  0
133134  1  0
134135  1  0
134136  1  0
 11  2  1  0
 23 17  1  0
 61 24  1  0
 75 62  1  0
110 78  1  0
124115  1  0
136130  1  0
 10  5  1  0
 22 18  1  0
 33 27  1  0
 40 34  1  0
 60 41  2  0
 75 68  1  0
109 80  1  0
123118  1  0
135131  1  0
 23  7  1  0
 52 46  1  0
 59 53  1  0
 93 82  1  0
113 94  1  0
136120  1  0
108 97  1  0
  1137  1  0
  6138  1  0
  9139  1  0
 17140  1  0
 18141  1  0
 19142  1  0
 20143  1  0
 21144  1  0
 22145  1  0
 22146  1  0
 23147  1  0
 28148  1  0
 29149  1  0
 31150  1  0
 31151  1  0
 31152  1  0
 32153  1  0
 33154  1  0
 35155  1  0
 36156  1  0
 38157  1  0
 38158  1  0
 38159  1  0
 39160  1  0
 40161  1  0
 47162  1  0
 48163  1  0
 50164  1  0
 50165  1  0
 50166  1  0
 51167  1  0
 52168  1  0
 54169  1  0
 55170  1  0
 57171  1  0
 57172  1  0
 57173  1  0
 58174  1  0
 59175  1  0
 71176  1  0
 71177  1  0
 72178  1  0
 72179  1  0
 72180  1  0
 76181  1  0
 76182  1  0
 77183  1  0
 77184  1  0
 77185  1  0
 79186  1  0
 83187  1  0
 84188  1  0
 87189  1  0
 87190  1  0
 88191  1  0
 88192  1  0
 88193  1  0
 89194  1  0
 89195  1  0
 90196  1  0
 90197  1  0
 90198  1  0
 91199  1  0
 91200  1  0
 92201  1  0
 92202  1  0
 92203  1  0
 98204  1  0
 99205  1  0
102206  1  0
102207  1  0
103208  1  0
103209  1  0
103210  1  0
104211  1  0
104212  1  0
105213  1  0
105214  1  0
105215  1  0
106216  1  0
106217  1  0
107218  1  0
107219  1  0
107220  1  0
111221  1  0
114222  1  0
119223  1  0
122224  1  0
130225  1  0
131226  1  0
132227  1  0
133228  1  0
134229  1  0
135230  1  0
135231  1  0
136232  1  0
M  END

