
     RDKit          3D

152169  0  0  0  0  0  0  0  0999 V2000
    0.2190   -3.3572    6.0166 C   0  0  0  0  0  0  0  0  0  0  0  0
    0.1562   -1.9988    6.0238 C   0  0  0  0  0  0  0  0  0  0  0  0
   -0.0227   -1.1955    4.8421 C   0  0  0  0  0  0  0  0  0  0  0  0
    0.1169   -1.5820    3.6368 O   0  0  0  0  0  0  0  0  0  0  0  0
   -0.4109    0.1727    5.2900 C   0  0  0  0  0  0  0  0  0  0  0  0
   -0.7441    1.2332    4.4936 C   0  0  0  0  0  0  0  0  0  0  0  0
   -1.1391    2.4094    5.1543 C   0  0  0  0  0  0  0  0  0  0  0  0
   -1.1827    2.4431    6.4723 C   0  0  0  0  0  0  0  0  0  0  0  0
   -0.8395    1.4135    7.3147 C   0  0  0  0  0  0  0  0  0  0  0  0
   -0.4375    0.2124    6.6834 C   0  0  0  0  0  0  0  0  0  0  0  0
   -0.0680   -1.1272    7.1943 C   0  0  0  0  0  0  0  0  0  0  0  0
    0.4481   -1.3301    8.4220 C   0  0  0  0  0  0  0  0  0  0  0  0
    1.3421   -2.5474    8.4781 C   0  0  0  0  0  0  0  0  0  0  0  0
    2.0168   -3.4940    8.5174 N   0  0  0  0  0  0  0  0  0  0  0  0
    0.4241   -0.4580    9.4767 C   0  0  0  0  0  0  0  0  0  0  0  0
    0.4132    0.3161   10.3848 N   0  0  0  0  0  0  0  0  0  0  0  0
   -1.8105    3.8529    6.4339 C   0  0  0  0  0  0  0  0  0  0  0  0
   -3.3094    3.7987    6.5832 C   0  0  0  0  0  0  0  0  0  0  0  0
   -3.8503    5.1162    6.0697 C   0  0  0  0  0  0  0  0  0  0  0  0
   -3.6523    5.1408    4.7659 C   0  0  0  0  0  0  0  0  0  0  0  0
   -3.0217    3.8691    4.3645 C   0  0  0  0  0  0  0  0  0  0  0  0
   -3.7177    2.9406    5.3931 C   0  0  0  0  0  0  0  0  0  0  0  0
   -1.6242    3.7982    4.9358 C   0  0  0  0  0  0  0  0  0  0  0  0
    0.0843   -3.9992    4.7289 C   0  0  0  0  0  0  0  0  0  0  0  0
    0.8435   -4.9396    4.0825 C   0  0  0  0  0  0  0  0  0  0  0  0
    0.6468   -5.2773    2.8054 C   0  0  0  0  0  0  0  0  0  0  0  0
   -0.3387   -4.6720    2.0886 C   0  0  0  0  0  0  0  0  0  0  0  0
   -1.1244   -3.5260    3.2829 Se  0  0  0  0  0  2  0  0  0  0  0  0
   -0.4431   -4.5571    0.5933 C   0  0  0  0  0  0  0  0  0  0  0  0
   -1.1390   -3.7818   -0.1661 C   0  0  0  0  0  0  0  0  0  0  0  0
   -2.1366   -2.8183    0.1342 N   0  0  0  0  0  0  0  0  0  0  0  0
   -1.6091   -1.5143    0.4802 C   0  0  0  0  0  0  0  0  0  0  0  0
   -0.4355   -1.0638   -0.0314 C   0  0  0  0  0  0  0  0  0  0  0  0
    0.0035    0.2538    0.0523 C   0  0  0  0  0  0  0  0  0  0  0  0
   -0.7638    1.1641    0.6720 C   0  0  0  0  0  0  0  0  0  0  0  0
   -0.1443    2.8009    0.8819 S   0  0  0  0  0  0  0  0  0  0  0  0
    1.6193    2.8818    0.3160 C   0  0  0  0  0  0  0  0  0  0  0  0
   -1.9736    0.7456    1.2116 C   0  0  0  0  0  0  0  0  0  0  0  0
   -2.4158   -0.6057    1.1280 C   0  0  0  0  0  0  0  0  0  0  0  0
   -3.4899   -2.9903    0.0305 C   0  0  0  0  0  0  0  0  0  0  0  0
   -4.1407   -4.1966    0.4876 C   0  0  0  0  0  0  0  0  0  0  0  0
   -5.5289   -4.1952    0.3877 C   0  0  0  0  0  0  0  0  0  0  0  0
   -6.2832   -3.2299   -0.0920 C   0  0  0  0  0  0  0  0  0  0  0  0
   -8.0700   -3.2334   -0.1059 S   0  0  0  0  0  0  0  0  0  0  0  0
   -8.7745   -3.8886   -1.6149 C   0  0  0  0  0  0  0  0  0  0  0  0
   -5.6647   -2.0482   -0.5604 C   0  0  0  0  0  0  0  0  0  0  0  0
   -4.3094   -2.0123   -0.4672 C   0  0  0  0  0  0  0  0  0  0  0  0
   -0.6231   -3.6778   -1.5220 C   0  0  0  0  0  0  0  0  0  0  0  0
   -0.9151   -2.6456   -2.8437 S   0  0  0  0  0  0  0  0  0  0  0  0
    0.5156   -3.1082   -3.8570 C   0  0  0  0  0  0  0  0  0  0  0  0
    1.0498   -3.9819   -3.1324 C   0  0  0  0  0  0  0  0  0  0  0  0
    2.2953   -4.6410   -3.3034 N   0  0  0  0  0  0  0  0  0  0  0  0
    2.5450   -5.8282   -3.9880 C   0  0  0  0  0  0  0  0  0  0  0  0
    3.5311   -6.1240   -4.8254 C   0  0  0  0  0  0  0  0  0  0  0  0
    3.7518   -7.4578   -5.2218 C   0  0  0  0  0  0  0  0  0  0  0  0
    2.9394   -8.4537   -4.7506 C   0  0  0  0  0  0  0  0  0  0  0  0
    3.3992  -10.2132   -4.9114 S   0  0  0  0  0  0  0  0  0  0  0  0
    4.2624  -10.6418   -3.3154 C   0  0  0  0  0  0  0  0  0  0  0  0
    1.9050   -8.1764   -3.9044 C   0  0  0  0  0  0  0  0  0  0  0  0
    1.6928   -6.9005   -3.5225 C   0  0  0  0  0  0  0  0  0  0  0  0
    3.3024   -4.1556   -2.3632 C   0  0  0  0  0  0  0  0  0  0  0  0
    3.5211   -2.8848   -2.1489 C   0  0  0  0  0  0  0  0  0  0  0  0
    4.2206   -2.4777   -1.0205 C   0  0  0  0  0  0  0  0  0  0  0  0
    4.6699   -3.4518   -0.1268 C   0  0  0  0  0  0  0  0  0  0  0  0
    5.3930   -2.9788    1.4473 S   0  0  0  0  0  0  0  0  0  0  0  0
    5.8952   -4.4541    2.3663 C   0  0  0  0  0  0  0  0  0  0  0  0
    4.4444   -4.7874   -0.3579 C   0  0  0  0  0  0  0  0  0  0  0  0
    3.7472   -5.1883   -1.5094 C   0  0  0  0  0  0  0  0  0  0  0  0
    0.4434   -4.2966   -1.8717 C   0  0  0  0  0  0  0  0  0  0  0  0
    0.8432   -5.1309   -0.4276 S   0  0  0  0  0  0  0  0  0  0  0  0
    0.8154   -2.1931   -4.9929 C   0  0  0  0  0  0  0  0  0  0  0  0
    1.7018   -1.8594   -5.8990 C   0  0  0  0  0  0  0  0  0  0  0  0
    1.6139   -0.7110   -6.6314 C   0  0  0  0  0  0  0  0  0  0  0  0
    0.8265    0.2483   -6.7029 C   0  0  0  0  0  0  0  0  0  0  0  0
   -0.4755   -0.6748   -5.1184 Se  0  0  0  0  0  2  0  0  0  0  0  0
    0.0364    1.3931   -6.8612 C   0  0  0  0  0  0  0  0  0  0  0  0
    0.2855    2.6328   -6.5158 C   0  0  0  0  0  0  0  0  0  0  0  0
    1.3303    3.4204   -5.9441 C   0  0  0  0  0  0  0  0  0  0  0  0
    2.5703    3.2961   -6.3186 O   0  0  0  0  0  0  0  0  0  0  0  0
    0.9080    4.3600   -4.9122 C   0  0  0  0  0  0  0  0  0  0  0  0
    1.5915    5.3422   -4.1991 C   0  0  0  0  0  0  0  0  0  0  0  0
    0.8537    6.1434   -3.3633 C   0  0  0  0  0  0  0  0  0  0  0  0
   -0.4330    5.9859   -3.2027 C   0  0  0  0  0  0  0  0  0  0  0  0
   -1.1921    4.9791   -3.9187 C   0  0  0  0  0  0  0  0  0  0  0  0
   -0.4492    4.2060   -4.7556 C   0  0  0  0  0  0  0  0  0  0  0  0
   -0.9507    3.1741   -5.6902 C   0  0  0  0  0  0  0  0  0  0  0  0
   -2.1763    2.9256   -5.9340 C   0  0  0  0  0  0  0  0  0  0  0  0
   -3.2863    3.3030   -5.1820 C   0  0  0  0  0  0  0  0  0  0  0  0
   -4.2776    3.6469   -4.5249 N   0  0  0  0  0  0  0  0  0  0  0  0
   -2.6836    2.5628   -7.3636 C   0  0  0  0  0  0  0  0  0  0  0  0
   -3.0499    2.2786   -8.4467 N   0  0  0  0  0  0  0  0  0  0  0  0
   -0.5884    6.9935   -2.1578 C   0  0  0  0  0  0  0  0  0  0  0  0
   -0.5330    6.5603   -0.7446 C   0  0  0  0  0  0  0  0  0  0  0  0
   -0.2940    7.7721    0.0865 C   0  0  0  0  0  0  0  0  0  0  0  0
    0.9063    8.2777   -0.2481 C   0  0  0  0  0  0  0  0  0  0  0  0
    1.5519    7.3079   -1.2187 C   0  0  0  0  0  0  0  0  0  0  0  0
    0.9112    6.0157   -0.6436 C   0  0  0  0  0  0  0  0  0  0  0  0
    0.8790    7.3853   -2.5004 C   0  0  0  0  0  0  0  0  0  0  0  0
    0.2960   -3.9519    6.8646 H   0  0  0  0  0  0  0  0  0  0  0  0
   -0.6528    1.1886    3.4694 H   0  0  0  0  0  0  0  0  0  0  0  0
   -0.8681    1.4646    8.3426 H   0  0  0  0  0  0  0  0  0  0  0  0
   -1.2312    4.5734    7.0155 H   0  0  0  0  0  0  0  0  0  0  0  0
   -3.6687    3.4572    7.5123 H   0  0  0  0  0  0  0  0  0  0  0  0
   -4.2798    5.8635    6.6943 H   0  0  0  0  0  0  0  0  0  0  0  0
   -3.9501    5.8933    4.0753 H   0  0  0  0  0  0  0  0  0  0  0  0
   -3.1730    3.5237    3.3452 H   0  0  0  0  0  0  0  0  0  0  0  0
   -3.2487    1.9587    5.4391 H   0  0  0  0  0  0  0  0  0  0  0  0
   -4.8078    2.9841    5.2595 H   0  0  0  0  0  0  0  0  0  0  0  0
   -0.8738    4.5182    4.5721 H   0  0  0  0  0  0  0  0  0  0  0  0
    1.6828   -5.3706    4.6936 H   0  0  0  0  0  0  0  0  0  0  0  0
    1.2337   -6.0894    2.2888 H   0  0  0  0  0  0  0  0  0  0  0  0
    0.2215   -1.8094   -0.4737 H   0  0  0  0  0  0  0  0  0  0  0  0
    0.9294    0.5296   -0.4258 H   0  0  0  0  0  0  0  0  0  0  0  0
    2.0549    3.7745    0.7650 H   0  0  0  0  0  0  0  0  0  0  0  0
    2.0467    1.9164    0.5576 H   0  0  0  0  0  0  0  0  0  0  0  0
    1.5294    2.9230   -0.8100 H   0  0  0  0  0  0  0  0  0  0  0  0
   -2.6368    1.4419    1.6791 H   0  0  0  0  0  0  0  0  0  0  0  0
   -3.3191   -0.9307    1.5426 H   0  0  0  0  0  0  0  0  0  0  0  0
   -3.5715   -4.9990    0.8773 H   0  0  0  0  0  0  0  0  0  0  0  0
   -6.0205   -5.1036    0.8274 H   0  0  0  0  0  0  0  0  0  0  0  0
   -8.4623   -3.2542   -2.5215 H   0  0  0  0  0  0  0  0  0  0  0  0
   -9.8922   -3.6552   -1.5772 H   0  0  0  0  0  0  0  0  0  0  0  0
   -8.5839   -4.9009   -1.8599 H   0  0  0  0  0  0  0  0  0  0  0  0
   -6.2588   -1.2714   -0.9186 H   0  0  0  0  0  0  0  0  0  0  0  0
   -3.7142   -1.1118   -0.8655 H   0  0  0  0  0  0  0  0  0  0  0  0
    4.1845   -5.3263   -5.2486 H   0  0  0  0  0  0  0  0  0  0  0  0
    4.5554   -7.7121   -5.9114 H   0  0  0  0  0  0  0  0  0  0  0  0
    4.8083  -11.5397   -3.4343 H   0  0  0  0  0  0  0  0  0  0  0  0
    3.4925  -10.7888   -2.5399 H   0  0  0  0  0  0  0  0  0  0  0  0
    4.9195   -9.7514   -3.0672 H   0  0  0  0  0  0  0  0  0  0  0  0
    1.2684   -8.9816   -3.5527 H   0  0  0  0  0  0  0  0  0  0  0  0
    0.8551   -6.6523   -2.9009 H   0  0  0  0  0  0  0  0  0  0  0  0
    3.1283   -2.1218   -2.8531 H   0  0  0  0  0  0  0  0  0  0  0  0
    4.3908   -1.4240   -0.8541 H   0  0  0  0  0  0  0  0  0  0  0  0
    5.1206   -5.2070    2.2707 H   0  0  0  0  0  0  0  0  0  0  0  0
    6.9051   -4.7066    2.0557 H   0  0  0  0  0  0  0  0  0  0  0  0
    5.9167   -4.0962    3.4478 H   0  0  0  0  0  0  0  0  0  0  0  0
    4.8071   -5.5158    0.3490 H   0  0  0  0  0  0  0  0  0  0  0  0
    3.5637   -6.1902   -1.7168 H   0  0  0  0  0  0  0  0  0  0  0  0
    2.6019   -2.5774   -5.9628 H   0  0  0  0  0  0  0  0  0  0  0  0
    2.5170   -0.6472   -7.4200 H   0  0  0  0  0  0  0  0  0  0  0  0
   -0.9188    1.2405   -7.4564 H   0  0  0  0  0  0  0  0  0  0  0  0
    2.6427    5.4907   -4.2968 H   0  0  0  0  0  0  0  0  0  0  0  0
   -2.2457    4.8572   -3.7345 H   0  0  0  0  0  0  0  0  0  0  0  0
   -1.3270    7.8047   -2.3419 H   0  0  0  0  0  0  0  0  0  0  0  0
   -1.2434    5.8562   -0.3718 H   0  0  0  0  0  0  0  0  0  0  0  0
   -0.9930    8.1284    0.8045 H   0  0  0  0  0  0  0  0  0  0  0  0
    1.3566    9.1660    0.1212 H   0  0  0  0  0  0  0  0  0  0  0  0
    2.6415    7.3153   -1.1949 H   0  0  0  0  0  0  0  0  0  0  0  0
    1.0638    5.1934   -1.3225 H   0  0  0  0  0  0  0  0  0  0  0  0
    1.2605    5.8506    0.4083 H   0  0  0  0  0  0  0  0  0  0  0  0
    0.8959    8.3683   -3.0568 H   0  0  0  0  0  0  0  0  0  0  0  0
  1  2  2  3
  2  3  1  0
  3  4  2  0
  3  5  1  0
  5  6  2  0
  6  7  1  0
  7  8  2  0
  8  9  1  0
  9 10  2  0
 10 11  1  0
 11 12  2  3
 12 13  1  0
 13 14  3  0
 12 15  1  0
 15 16  3  0
  8 17  1  0
 17 18  1  0
 18 19  1  0
 19 20  2  0
 20 21  1  0
 21 22  1  0
 21 23  1  0
  1 24  1  0
 24 25  2  0
 25 26  1  0
 26 27  2  0
 27 28  1  0
 27 29  1  0
 29 30  2  0
 30 31  1  0
 31 32  1  0
 32 33  2  0
 33 34  1  0
 34 35  2  0
 35 36  1  0
 36 37  1  0
 35 38  1  0
 38 39  2  0
 31 40  1  0
 40 41  2  0
 41 42  1  0
 42 43  2  0
 43 44  1  0
 44 45  1  0
 43 46  1  0
 46 47  2  0
 30 48  1  0
 48 49  1  0
 49 50  1  0
 50 51  2  0
 51 52  1  0
 52 53  1  0
 53 54  2  0
 54 55  1  0
 55 56  2  0
 56 57  1  0
 57 58  1  0
 56 59  1  0
 59 60  2  0
 52 61  1  0
 61 62  2  0
 62 63  1  0
 63 64  2  0
 64 65  1  0
 65 66  1  0
 64 67  1  0
 67 68  2  0
 51 69  1  0
 69 70  1  0
 50 71  1  0
 71 72  2  0
 72 73  1  0
 73 74  2  0
 74 75  1  0
 74 76  1  0
 76 77  2  3
 77 78  1  0
 78 79  2  0
 78 80  1  0
 80 81  2  0
 81 82  1  0
 82 83  2  0
 83 84  1  0
 84 85  2  0
 85 86  1  0
 86 87  2  3
 87 88  1  0
 88 89  3  0
 87 90  1  0
 90 91  3  0
 83 92  1  0
 92 93  1  0
 93 94  1  0
 94 95  2  0
 95 96  1  0
 96 97  1  0
 96 98  1  0
 11  2  1  0
 23 17  1  0
 28 24  1  0
 70 29  1  0
 75 71  1  0
 86 77  1  0
 98 92  1  0
 10  5  1  0
 22 18  1  0
 39 32  1  0
 47 40  1  0
 69 48  2  0
 85 80  1  0
 97 93  1  0
 23  7  1  0
 60 53  1  0
 68 61  1  0
 98 82  1  0
  1 99  1  0
  6100  1  0
  9101  1  0
 17102  1  0
 18103  1  0
 19104  1  0
 20105  1  0
 21106  1  0
 22107  1  0
 22108  1  0
 23109  1  0
 25110  1  0
 26111  1  0
 33112  1  0
 34113  1  0
 37114  1  0
 37115  1  0
 37116  1  0
 38117  1  0
 39118  1  0
 41119  1  0
 42120  1  0
 45121  1  0
 45122  1  0
 45123  1  0
 46124  1  0
 47125  1  0
 54126  1  0
 55127  1  0
 58128  1  0
 58129  1  0
 58130  1  0
 59131  1  0
 60132  1  0
 62133  1  0
 63134  1  0
 66135  1  0
 66136  1  0
 66137  1  0
 67138  1  0
 68139  1  0
 72140  1  0
 73141  1  0
 76142  1  0
 81143  1  0
 84144  1  0
 92145  1  0
 93146  1  0
 94147  1  0
 95148  1  0
 96149  1  0
 97150  1  0
 97151  1  0
 98152  1  0
M  END

