
     RDKit          3D

230253  0  0  0  0  0  0  0  0999 V2000
   -2.8260    0.0513   -8.6753 C   0  0  0  0  0  0  0  0  0  0  0  0
   -2.6649    1.1307   -9.4703 C   0  0  0  0  0  0  0  0  0  0  0  0
   -1.9124    2.3366   -9.1128 C   0  0  0  0  0  0  0  0  0  0  0  0
   -0.8102    2.3714   -8.5127 O   0  0  0  0  0  0  0  0  0  0  0  0
   -2.5985    3.4953   -9.6229 C   0  0  0  0  0  0  0  0  0  0  0  0
   -2.3638    4.8404   -9.2599 C   0  0  0  0  0  0  0  0  0  0  0  0
   -3.3295    5.7116   -9.7158 C   0  0  0  0  0  0  0  0  0  0  0  0
   -4.4570    5.3012  -10.5027 C   0  0  0  0  0  0  0  0  0  0  0  0
   -4.6794    3.9791  -10.8708 C   0  0  0  0  0  0  0  0  0  0  0  0
   -3.6925    3.0645  -10.4124 C   0  0  0  0  0  0  0  0  0  0  0  0
   -3.6723    1.5773  -10.4772 C   0  0  0  0  0  0  0  0  0  0  0  0
   -4.2969    0.7915  -11.3893 C   0  0  0  0  0  0  0  0  0  0  0  0
   -5.1209    1.3438  -12.4315 C   0  0  0  0  0  0  0  0  0  0  0  0
   -5.7787    1.7769  -13.2788 N   0  0  0  0  0  0  0  0  0  0  0  0
   -4.0504   -0.6264  -11.4617 C   0  0  0  0  0  0  0  0  0  0  0  0
   -3.8562   -1.7652  -11.5265 N   0  0  0  0  0  0  0  0  0  0  0  0
   -4.9690    6.7096  -10.5272 C   0  0  0  0  0  0  0  0  0  0  0  0
   -4.7882    7.5009  -11.8587 C   0  0  0  0  0  0  0  0  0  0  0  0
   -5.0028    8.9538  -11.5086 C   0  0  0  0  0  0  0  0  0  0  0  0
   -3.9441    9.3277  -10.7757 C   0  0  0  0  0  0  0  0  0  0  0  0
   -3.0540    8.1137  -10.6549 C   0  0  0  0  0  0  0  0  0  0  0  0
   -3.2803    7.5236  -12.0377 C   0  0  0  0  0  0  0  0  0  0  0  0
   -3.8146    7.1259   -9.7215 C   0  0  0  0  0  0  0  0  0  0  0  0
   -2.4491    0.0777   -7.2503 C   0  0  0  0  0  0  0  0  0  0  0  0
   -1.1652    0.2475   -6.6867 C   0  0  0  0  0  0  0  0  0  0  0  0
    0.0481   -0.2293   -7.3161 N   0  0  0  0  0  0  0  0  0  0  0  0
   -0.0419   -1.4182   -8.1265 C   0  0  0  0  0  0  0  0  0  0  0  0
   -0.6983   -2.5603   -7.6359 C   0  0  0  0  0  0  0  0  0  0  0  0
   -0.7292   -3.7366   -8.3868 C   0  0  0  0  0  0  0  0  0  0  0  0
   -0.0937   -3.7930   -9.6360 C   0  0  0  0  0  0  0  0  0  0  0  0
   -0.0873   -5.0623  -10.4324 C   0  0  0  0  0  0  0  0  0  0  0  0
    0.5610   -2.6536  -10.1303 C   0  0  0  0  0  0  0  0  0  0  0  0
    0.5835   -1.4714   -9.3799 C   0  0  0  0  0  0  0  0  0  0  0  0
    1.3620    0.2218   -6.9000 C   0  0  0  0  0  0  0  0  0  0  0  0
    1.6274    1.5836   -6.6744 C   0  0  0  0  0  0  0  0  0  0  0  0
    2.9181    2.0113   -6.3473 C   0  0  0  0  0  0  0  0  0  0  0  0
    3.9648    1.0858   -6.2360 C   0  0  0  0  0  0  0  0  0  0  0  0
    5.3679    1.5292   -5.9329 C   0  0  0  0  0  0  0  0  0  0  0  0
    3.6989   -0.2761   -6.4128 C   0  0  0  0  0  0  0  0  0  0  0  0
    2.4150   -0.7044   -6.7450 C   0  0  0  0  0  0  0  0  0  0  0  0
   -1.2882    0.5215   -5.3223 C   0  0  0  0  0  0  0  0  0  0  0  0
   -0.2271    0.8635   -4.0920 S   0  0  0  0  0  0  0  0  0  0  0  0
   -1.3869    0.8872   -2.8297 C   0  0  0  0  0  0  0  0  0  0  0  0
   -2.6395    0.5277   -3.4079 C   0  0  0  0  0  0  0  0  0  0  0  0
   -3.7900    0.0212   -2.6914 N   0  0  0  0  0  0  0  0  0  0  0  0
   -5.1072    0.3712   -3.1669 C   0  0  0  0  0  0  0  0  0  0  0  0
   -5.4062    1.7021   -3.5140 C   0  0  0  0  0  0  0  0  0  0  0  0
   -6.6627    2.0314   -4.0321 C   0  0  0  0  0  0  0  0  0  0  0  0
   -7.6482    1.0451   -4.1789 C   0  0  0  0  0  0  0  0  0  0  0  0
   -8.9929    1.3814   -4.7528 C   0  0  0  0  0  0  0  0  0  0  0  0
   -7.3533   -0.2791   -3.8376 C   0  0  0  0  0  0  0  0  0  0  0  0
   -6.0897   -0.6158   -3.3406 C   0  0  0  0  0  0  0  0  0  0  0  0
   -3.6319   -0.9598   -1.6327 C   0  0  0  0  0  0  0  0  0  0  0  0
   -2.5270   -1.8286   -1.6047 C   0  0  0  0  0  0  0  0  0  0  0  0
   -2.3476   -2.7206   -0.5425 C   0  0  0  0  0  0  0  0  0  0  0  0
   -3.2725   -2.7698    0.5058 C   0  0  0  0  0  0  0  0  0  0  0  0
   -3.0754   -3.7432    1.6283 C   0  0  0  0  0  0  0  0  0  0  0  0
   -4.3954   -1.9343    0.4723 C   0  0  0  0  0  0  0  0  0  0  0  0
   -4.5634   -1.0190   -0.5753 C   0  0  0  0  0  0  0  0  0  0  0  0
   -2.5339    0.4246   -4.7984 C   0  0  0  0  0  0  0  0  0  0  0  0
   -3.6262    0.0829   -6.0230 S   0  0  0  0  0  0  0  0  0  0  0  0
   -1.0716    1.1421   -1.3784 C   0  0  0  0  0  0  0  0  0  0  0  0
   -2.0927    1.4264   -0.4523 C   0  0  0  0  0  0  0  0  0  0  0  0
   -3.3246    1.8263   -0.8619 F   0  0  0  0  0  0  0  0  0  0  0  0
   -1.8716    1.2923    0.9224 C   0  0  0  0  0  0  0  0  0  0  0  0
   -2.9522    1.2678    1.7285 F   0  0  0  0  0  0  0  0  0  0  0  0
   -0.5772    1.0770    1.4199 C   0  0  0  0  0  0  0  0  0  0  0  0
    0.4956    1.0859    0.5019 C   0  0  0  0  0  0  0  0  0  0  0  0
    1.7860    1.0625    0.9331 N   0  0  0  0  0  0  0  0  0  0  0  0
    2.8530    0.9985    0.1005 C   0  0  0  0  0  0  0  0  0  0  0  0
    4.2264    0.9646    0.7193 C   0  0  0  0  0  0  0  0  0  0  0  0
    4.6749    2.3623    1.1383 C   0  0  0  0  0  0  0  0  0  0  0  0
    2.6088    0.9719   -1.2912 C   0  0  0  0  0  0  0  0  0  0  0  0
    1.3201    1.0159   -1.7194 N   0  0  0  0  0  0  0  0  0  0  0  0
    0.2492    1.0735   -0.8830 C   0  0  0  0  0  0  0  0  0  0  0  0
    3.6931    1.0119   -2.3276 C   0  0  0  0  0  0  0  0  0  0  0  0
    4.2220    2.4362   -2.5174 C   0  0  0  0  0  0  0  0  0  0  0  0
   -0.3132    0.6871    2.8398 C   0  0  0  0  0  0  0  0  0  0  0  0
   -0.8866    1.1577    4.0524 C   0  0  0  0  0  0  0  0  0  0  0  0
   -1.8474    2.2187    4.1755 N   0  0  0  0  0  0  0  0  0  0  0  0
   -3.2605    1.9084    4.3012 C   0  0  0  0  0  0  0  0  0  0  0  0
   -4.2285    2.8478    3.8929 C   0  0  0  0  0  0  0  0  0  0  0  0
   -5.5877    2.5246    3.9107 C   0  0  0  0  0  0  0  0  0  0  0  0
   -6.0031    1.2504    4.3110 C   0  0  0  0  0  0  0  0  0  0  0  0
   -7.7458    0.8171    4.3016 S   0  0  0  0  0  0  0  0  0  0  0  0
   -7.7416    0.3253    2.5506 C   0  0  0  0  0  0  0  0  0  0  0  0
   -5.0547    0.3061    4.7146 C   0  0  0  0  0  0  0  0  0  0  0  0
   -3.6931    0.6296    4.7144 C   0  0  0  0  0  0  0  0  0  0  0  0
   -1.3474    3.5505    4.4302 C   0  0  0  0  0  0  0  0  0  0  0  0
   -0.2213    4.0376    3.7370 C   0  0  0  0  0  0  0  0  0  0  0  0
    0.2942    5.3104    4.0164 C   0  0  0  0  0  0  0  0  0  0  0  0
   -0.3123    6.1096    4.9914 C   0  0  0  0  0  0  0  0  0  0  0  0
    0.3393    7.7421    5.3496 S   0  0  0  0  0  0  0  0  0  0  0  0
    1.4293    7.1437    6.6801 C   0  0  0  0  0  0  0  0  0  0  0  0
   -1.4336    5.6389    5.6838 C   0  0  0  0  0  0  0  0  0  0  0  0
   -1.9397    4.3681    5.4164 C   0  0  0  0  0  0  0  0  0  0  0  0
   -0.2233    0.6103    5.1652 C   0  0  0  0  0  0  0  0  0  0  0  0
   -0.3367    0.7403    6.8413 S   0  0  0  0  0  0  0  0  0  0  0  0
    1.0274   -0.2445    7.1664 C   0  0  0  0  0  0  0  0  0  0  0  0
    1.5601   -0.6626    5.9284 C   0  0  0  0  0  0  0  0  0  0  0  0
    2.8282   -1.3118    5.7165 N   0  0  0  0  0  0  0  0  0  0  0  0
    3.9984   -0.4960    5.4226 C   0  0  0  0  0  0  0  0  0  0  0  0
    5.2903   -1.0509    5.5102 C   0  0  0  0  0  0  0  0  0  0  0  0
    6.4257   -0.2806    5.2441 C   0  0  0  0  0  0  0  0  0  0  0  0
    6.2947    1.0679    4.8848 C   0  0  0  0  0  0  0  0  0  0  0  0
    7.7469    2.0716    4.5578 S   0  0  0  0  0  0  0  0  0  0  0  0
    7.8842    2.6494    6.2797 C   0  0  0  0  0  0  0  0  0  0  0  0
    5.0214    1.6299    4.7795 C   0  0  0  0  0  0  0  0  0  0  0  0
    3.8819    0.8650    5.0530 C   0  0  0  0  0  0  0  0  0  0  0  0
    2.7761   -2.6898    5.2898 C   0  0  0  0  0  0  0  0  0  0  0  0
    1.9837   -3.6126    5.9943 C   0  0  0  0  0  0  0  0  0  0  0  0
    1.8186   -4.9180    5.5224 C   0  0  0  0  0  0  0  0  0  0  0  0
    2.4423   -5.3200    4.3329 C   0  0  0  0  0  0  0  0  0  0  0  0
    2.1959   -6.9711    3.6909 S   0  0  0  0  0  0  0  0  0  0  0  0
    0.7577   -6.4878    2.6771 C   0  0  0  0  0  0  0  0  0  0  0  0
    3.2513   -4.4167    3.6365 C   0  0  0  0  0  0  0  0  0  0  0  0
    3.4075   -3.1089    4.1008 C   0  0  0  0  0  0  0  0  0  0  0  0
    0.7949   -0.2177    4.8710 C   0  0  0  0  0  0  0  0  0  0  0  0
    0.9407   -0.4043    3.2402 S   0  0  0  0  0  0  0  0  0  0  0  0
    1.1568   -1.0203    8.4145 C   0  0  0  0  0  0  0  0  0  0  0  0
    2.3227   -1.4217    8.9486 C   0  0  0  0  0  0  0  0  0  0  0  0
    3.6293   -0.8248    8.6686 C   0  0  0  0  0  0  0  0  0  0  0  0
    3.8261    0.3458    8.2421 O   0  0  0  0  0  0  0  0  0  0  0  0
    4.6682   -1.7704    9.0232 C   0  0  0  0  0  0  0  0  0  0  0  0
    6.0137   -1.7562    8.5821 C   0  0  0  0  0  0  0  0  0  0  0  0
    6.6431   -2.9828    8.6770 C   0  0  0  0  0  0  0  0  0  0  0  0
    6.0221   -4.1479    9.2282 C   0  0  0  0  0  0  0  0  0  0  0  0
    4.7254   -4.1559    9.7056 C   0  0  0  0  0  0  0  0  0  0  0  0
    4.0499   -2.9056    9.6032 C   0  0  0  0  0  0  0  0  0  0  0  0
    2.5898   -2.6654    9.7362 C   0  0  0  0  0  0  0  0  0  0  0  0
    1.7367   -3.3907   10.5040 C   0  0  0  0  0  0  0  0  0  0  0  0
    0.3062   -3.2584   10.4482 C   0  0  0  0  0  0  0  0  0  0  0  0
   -0.8427   -3.1799   10.3801 N   0  0  0  0  0  0  0  0  0  0  0  0
    2.2321   -4.3312   11.4850 C   0  0  0  0  0  0  0  0  0  0  0  0
    2.6333   -5.0555   12.2939 N   0  0  0  0  0  0  0  0  0  0  0  0
    7.2294   -4.9713    8.8988 C   0  0  0  0  0  0  0  0  0  0  0  0
    8.1744   -5.3544   10.0791 C   0  0  0  0  0  0  0  0  0  0  0  0
    9.4563   -5.8245    9.4400 C   0  0  0  0  0  0  0  0  0  0  0  0
   10.0331   -4.7436    8.9027 C   0  0  0  0  0  0  0  0  0  0  0  0
    9.1281   -3.5757    9.2056 C   0  0  0  0  0  0  0  0  0  0  0  0
    8.6523   -4.0038   10.5852 C   0  0  0  0  0  0  0  0  0  0  0  0
    7.8635   -3.7815    8.3225 C   0  0  0  0  0  0  0  0  0  0  0  0
   -3.6052   -0.6589   -8.9194 H   0  0  0  0  0  0  0  0  0  0  0  0
   -1.5463    5.1521   -8.6224 H   0  0  0  0  0  0  0  0  0  0  0  0
   -5.5799    3.6892  -11.3998 H   0  0  0  0  0  0  0  0  0  0  0  0
   -5.9527    6.8384  -10.0198 H   0  0  0  0  0  0  0  0  0  0  0  0
   -5.3771    7.1285  -12.7199 H   0  0  0  0  0  0  0  0  0  0  0  0
   -5.7997    9.6046  -11.8478 H   0  0  0  0  0  0  0  0  0  0  0  0
   -3.7364   10.3335  -10.4244 H   0  0  0  0  0  0  0  0  0  0  0  0
   -1.9992    8.3240  -10.3781 H   0  0  0  0  0  0  0  0  0  0  0  0
   -2.8218    6.5182  -12.1829 H   0  0  0  0  0  0  0  0  0  0  0  0
   -2.9430    8.1924  -12.8673 H   0  0  0  0  0  0  0  0  0  0  0  0
   -4.0656    7.5122   -8.7114 H   0  0  0  0  0  0  0  0  0  0  0  0
   -1.1712   -2.5489   -6.6571 H   0  0  0  0  0  0  0  0  0  0  0  0
   -1.2265   -4.6105   -7.9830 H   0  0  0  0  0  0  0  0  0  0  0  0
    0.9516   -5.4534  -10.4964 H   0  0  0  0  0  0  0  0  0  0  0  0
   -0.7269   -5.8420   -9.9634 H   0  0  0  0  0  0  0  0  0  0  0  0
   -0.4673   -4.8697  -11.4600 H   0  0  0  0  0  0  0  0  0  0  0  0
    1.0597   -2.6841  -11.0883 H   0  0  0  0  0  0  0  0  0  0  0  0
    1.1049   -0.6072   -9.7602 H   0  0  0  0  0  0  0  0  0  0  0  0
    0.8395    2.3185   -6.7392 H   0  0  0  0  0  0  0  0  0  0  0  0
    3.1005    3.0679   -6.1913 H   0  0  0  0  0  0  0  0  0  0  0  0
    5.4325    2.6335   -5.8043 H   0  0  0  0  0  0  0  0  0  0  0  0
    6.0405    1.2279   -6.7633 H   0  0  0  0  0  0  0  0  0  0  0  0
    5.7178    1.0430   -4.9926 H   0  0  0  0  0  0  0  0  0  0  0  0
    4.4935   -1.0070   -6.3066 H   0  0  0  0  0  0  0  0  0  0  0  0
    2.2426   -1.7648   -6.8710 H   0  0  0  0  0  0  0  0  0  0  0  0
   -4.6612    2.4767   -3.3965 H   0  0  0  0  0  0  0  0  0  0  0  0
   -6.8626    3.0552   -4.3192 H   0  0  0  0  0  0  0  0  0  0  0  0
   -9.1359    0.8423   -5.7164 H   0  0  0  0  0  0  0  0  0  0  0  0
   -9.7893    1.0683   -4.0438 H   0  0  0  0  0  0  0  0  0  0  0  0
   -9.0979    2.4711   -4.9388 H   0  0  0  0  0  0  0  0  0  0  0  0
   -8.0988   -1.0586   -3.9602 H   0  0  0  0  0  0  0  0  0  0  0  0
   -5.8744   -1.6526   -3.1133 H   0  0  0  0  0  0  0  0  0  0  0  0
   -1.7992   -1.8288   -2.4080 H   0  0  0  0  0  0  0  0  0  0  0  0
   -1.4785   -3.3672   -0.5363 H   0  0  0  0  0  0  0  0  0  0  0  0
   -2.0414   -3.6593    2.0262 H   0  0  0  0  0  0  0  0  0  0  0  0
   -3.2349   -4.7754    1.2525 H   0  0  0  0  0  0  0  0  0  0  0  0
   -3.7858   -3.5538    2.4606 H   0  0  0  0  0  0  0  0  0  0  0  0
   -5.1289   -1.9624    1.2635 H   0  0  0  0  0  0  0  0  0  0  0  0
   -5.4195   -0.3553   -0.5592 H   0  0  0  0  0  0  0  0  0  0  0  0
    4.1886    0.3308    1.6310 H   0  0  0  0  0  0  0  0  0  0  0  0
    4.9809    0.5029    0.0429 H   0  0  0  0  0  0  0  0  0  0  0  0
    3.9769    2.7856    1.8926 H   0  0  0  0  0  0  0  0  0  0  0  0
    4.7106    3.0369    0.2610 H   0  0  0  0  0  0  0  0  0  0  0  0
    5.6935    2.3037    1.5760 H   0  0  0  0  0  0  0  0  0  0  0  0
    4.5174    0.3130   -2.0894 H   0  0  0  0  0  0  0  0  0  0  0  0
    3.2651    0.6606   -3.2995 H   0  0  0  0  0  0  0  0  0  0  0  0
    4.3024    2.6757   -3.5928 H   0  0  0  0  0  0  0  0  0  0  0  0
    3.5461    3.1955   -2.0714 H   0  0  0  0  0  0  0  0  0  0  0  0
    5.2263    2.5406   -2.0570 H   0  0  0  0  0  0  0  0  0  0  0  0
   -3.9338    3.8205    3.5237 H   0  0  0  0  0  0  0  0  0  0  0  0
   -6.3198    3.2520    3.5905 H   0  0  0  0  0  0  0  0  0  0  0  0
   -6.9679   -0.4500    2.3652 H   0  0  0  0  0  0  0  0  0  0  0  0
   -7.5497    1.2066    1.9068 H   0  0  0  0  0  0  0  0  0  0  0  0
   -8.7364   -0.0920    2.2928 H   0  0  0  0  0  0  0  0  0  0  0  0
   -5.3628   -0.6841    5.0248 H   0  0  0  0  0  0  0  0  0  0  0  0
   -2.9796   -0.1238    5.0214 H   0  0  0  0  0  0  0  0  0  0  0  0
    0.2613    3.4322    2.9835 H   0  0  0  0  0  0  0  0  0  0  0  0
    1.1626    5.6639    3.4737 H   0  0  0  0  0  0  0  0  0  0  0  0
    1.8767    8.0190    7.1995 H   0  0  0  0  0  0  0  0  0  0  0  0
    0.8509    6.5520    7.4232 H   0  0  0  0  0  0  0  0  0  0  0  0
    2.2470    6.5256    6.2565 H   0  0  0  0  0  0  0  0  0  0  0  0
   -1.9050    6.2600    6.4349 H   0  0  0  0  0  0  0  0  0  0  0  0
   -2.7851    4.0133    5.9856 H   0  0  0  0  0  0  0  0  0  0  0  0
    5.4234   -2.0853    5.8008 H   0  0  0  0  0  0  0  0  0  0  0  0
    7.4097   -0.7199    5.3247 H   0  0  0  0  0  0  0  0  0  0  0  0
    6.9230    3.1018    6.6115 H   0  0  0  0  0  0  0  0  0  0  0  0
    8.6764    3.4206    6.3473 H   0  0  0  0  0  0  0  0  0  0  0  0
    8.1470    1.7996    6.9406 H   0  0  0  0  0  0  0  0  0  0  0  0
    4.9098    2.6729    4.4976 H   0  0  0  0  0  0  0  0  0  0  0  0
    2.9228    1.3544    4.9698 H   0  0  0  0  0  0  0  0  0  0  0  0
    1.4683   -3.3210    6.8958 H   0  0  0  0  0  0  0  0  0  0  0  0
    1.1899   -5.6119    6.0667 H   0  0  0  0  0  0  0  0  0  0  0  0
    0.9911   -5.5929    2.0622 H   0  0  0  0  0  0  0  0  0  0  0  0
    0.4984   -7.3224    1.9947 H   0  0  0  0  0  0  0  0  0  0  0  0
   -0.1104   -6.2747    3.3336 H   0  0  0  0  0  0  0  0  0  0  0  0
    3.7425   -4.7143    2.7147 H   0  0  0  0  0  0  0  0  0  0  0  0
    3.9850   -2.4083    3.5084 H   0  0  0  0  0  0  0  0  0  0  0  0
    0.2358   -1.4717    8.7298 H   0  0  0  0  0  0  0  0  0  0  0  0
    6.4702   -0.9007    8.0983 H   0  0  0  0  0  0  0  0  0  0  0  0
    4.2472   -5.0805   10.0119 H   0  0  0  0  0  0  0  0  0  0  0  0
    7.0185   -5.7810    8.1659 H   0  0  0  0  0  0  0  0  0  0  0  0
    7.7415   -6.0378   10.8368 H   0  0  0  0  0  0  0  0  0  0  0  0
    9.8777   -6.8215    9.4585 H   0  0  0  0  0  0  0  0  0  0  0  0
   11.0061   -4.7113    8.4173 H   0  0  0  0  0  0  0  0  0  0  0  0
    9.5990   -2.5734    9.1383 H   0  0  0  0  0  0  0  0  0  0  0  0
    9.4731   -4.0793   11.3357 H   0  0  0  0  0  0  0  0  0  0  0  0
    7.8447   -3.3689   11.0069 H   0  0  0  0  0  0  0  0  0  0  0  0
    8.0508   -3.8459    7.2261 H   0  0  0  0  0  0  0  0  0  0  0  0
  1  2  2  3
  2  3  1  0
  3  4  2  0
  3  5  1  0
  5  6  2  0
  6  7  1  0
  7  8  2  0
  8  9  1  0
  9 10  2  0
 10 11  1  0
 11 12  2  3
 12 13  1  0
 13 14  3  0
 12 15  1  0
 15 16  3  0
  8 17  1  0
 17 18  1  0
 18 19  1  0
 19 20  2  0
 20 21  1  0
 21 22  1  0
 21 23  1  0
  1 24  1  0
 24 25  2  0
 25 26  1  0
 26 27  1  0
 27 28  2  0
 28 29  1  0
 29 30  2  0
 30 31  1  0
 30 32  1  0
 32 33  2  0
 26 34  1  0
 34 35  2  0
 35 36  1  0
 36 37  2  0
 37 38  1  0
 37 39  1  0
 39 40  2  0
 25 41  1  0
 41 42  1  0
 42 43  1  0
 43 44  2  0
 44 45  1  0
 45 46  1  0
 46 47  2  0
 47 48  1  0
 48 49  2  0
 49 50  1  0
 49 51  1  0
 51 52  2  0
 45 53  1  0
 53 54  2  0
 54 55  1  0
 55 56  2  0
 56 57  1  0
 56 58  1  0
 58 59  2  0
 44 60  1  0
 60 61  1  0
 43 62  1  0
 62 63  2  0
 63 64  1  0
 63 65  1  0
 65 66  1  0
 65 67  2  0
 67 68  1  0
 68 69  2  0
 69 70  1  0
 70 71  1  0
 71 72  1  0
 70 73  2  0
 73 74  1  0
 74 75  2  0
 73 76  1  0
 76 77  1  0
 67 78  1  0
 78 79  2  0
 79 80  1  0
 80 81  1  0
 81 82  2  0
 82 83  1  0
 83 84  2  0
 84 85  1  0
 85 86  1  0
 84 87  1  0
 87 88  2  0
 80 89  1  0
 89 90  2  0
 90 91  1  0
 91 92  2  0
 92 93  1  0
 93 94  1  0
 92 95  1  0
 95 96  2  0
 79 97  1  0
 97 98  1  0
 98 99  1  0
 99100  2  0
100101  1  0
101102  1  0
102103  2  0
103104  1  0
104105  2  0
105106  1  0
106107  1  0
105108  1  0
108109  2  0
101110  1  0
110111  2  0
111112  1  0
112113  2  0
113114  1  0
114115  1  0
113116  1  0
116117  2  0
100118  1  0
118119  1  0
 99120  1  0
120121  2  3
121122  1  0
122123  2  0
122124  1  0
124125  2  0
125126  1  0
126127  2  0
127128  1  0
128129  2  0
129130  1  0
130131  2  3
131132  1  0
132133  3  0
131134  1  0
134135  3  0
127136  1  0
136137  1  0
137138  1  0
138139  2  0
139140  1  0
140141  1  0
140142  1  0
 11  2  1  0
 23 17  1  0
 61 24  1  0
 75 62  1  0
119 78  1  0
130121  1  0
142136  1  0
 10  5  1  0
 22 18  1  0
 33 27  1  0
 40 34  1  0
 60 41  2  0
 75 68  1  0
 88 81  1  0
 96 89  1  0
118 97  2  0
129124  1  0
141137  1  0
 23  7  1  0
 52 46  1  0
 59 53  1  0
109102  1  0
117110  1  0
142126  1  0
  1143  1  0
  6144  1  0
  9145  1  0
 17146  1  0
 18147  1  0
 19148  1  0
 20149  1  0
 21150  1  0
 22151  1  0
 22152  1  0
 23153  1  0
 28154  1  0
 29155  1  0
 31156  1  0
 31157  1  0
 31158  1  0
 32159  1  0
 33160  1  0
 35161  1  0
 36162  1  0
 38163  1  0
 38164  1  0
 38165  1  0
 39166  1  0
 40167  1  0
 47168  1  0
 48169  1  0
 50170  1  0
 50171  1  0
 50172  1  0
 51173  1  0
 52174  1  0
 54175  1  0
 55176  1  0
 57177  1  0
 57178  1  0
 57179  1  0
 58180  1  0
 59181  1  0
 71182  1  0
 71183  1  0
 72184  1  0
 72185  1  0
 72186  1  0
 76187  1  0
 76188  1  0
 77189  1  0
 77190  1  0
 77191  1  0
 82192  1  0
 83193  1  0
 86194  1  0
 86195  1  0
 86196  1  0
 87197  1  0
 88198  1  0
 90199  1  0
 91200  1  0
 94201  1  0
 94202  1  0
 94203  1  0
 95204  1  0
 96205  1  0
103206  1  0
104207  1  0
107208  1  0
107209  1  0
107210  1  0
108211  1  0
109212  1  0
111213  1  0
112214  1  0
115215  1  0
115216  1  0
115217  1  0
116218  1  0
117219  1  0
120220  1  0
125221  1  0
128222  1  0
136223  1  0
137224  1  0
138225  1  0
139226  1  0
140227  1  0
141228  1  0
141229  1  0
142230  1  0
M  END

