
     RDKit          3D

214237  0  0  0  0  0  0  0  0999 V2000
   -0.1961   -3.3618   -5.9586 C   0  0  0  0  0  0  0  0  0  0  0  0
    1.0842   -3.7706   -5.8106 C   0  0  0  0  0  0  0  0  0  0  0  0
    2.1098   -3.0641   -5.0222 C   0  0  0  0  0  0  0  0  0  0  0  0
    1.9515   -1.9985   -4.3686 O   0  0  0  0  0  0  0  0  0  0  0  0
    3.3865   -3.6985   -5.2327 C   0  0  0  0  0  0  0  0  0  0  0  0
    4.6328   -3.2816   -4.7036 C   0  0  0  0  0  0  0  0  0  0  0  0
    5.6980   -4.0467   -5.1296 C   0  0  0  0  0  0  0  0  0  0  0  0
    5.5629   -5.1395   -6.0410 C   0  0  0  0  0  0  0  0  0  0  0  0
    4.3502   -5.5397   -6.5776 C   0  0  0  0  0  0  0  0  0  0  0  0
    3.2244   -4.7817   -6.1318 C   0  0  0  0  0  0  0  0  0  0  0  0
    1.7712   -4.9230   -6.4762 C   0  0  0  0  0  0  0  0  0  0  0  0
    1.1806   -5.9954   -7.0726 C   0  0  0  0  0  0  0  0  0  0  0  0
    1.9198   -7.1440   -7.5245 C   0  0  0  0  0  0  0  0  0  0  0  0
    2.5007   -8.0763   -7.8920 N   0  0  0  0  0  0  0  0  0  0  0  0
   -0.2515   -6.1339   -7.1842 C   0  0  0  0  0  0  0  0  0  0  0  0
   -1.3931   -6.2714   -7.2565 N   0  0  0  0  0  0  0  0  0  0  0  0
    7.0475   -5.3735   -6.0083 C   0  0  0  0  0  0  0  0  0  0  0  0
    7.8808   -4.9325   -7.2486 C   0  0  0  0  0  0  0  0  0  0  0  0
    7.2230   -3.7447   -7.9200 C   0  0  0  0  0  0  0  0  0  0  0  0
    7.3408   -2.7164   -7.0786 C   0  0  0  0  0  0  0  0  0  0  0  0
    8.0832   -3.2366   -5.8651 C   0  0  0  0  0  0  0  0  0  0  0  0
    9.0239   -4.2077   -6.5531 C   0  0  0  0  0  0  0  0  0  0  0  0
    7.1870   -4.2447   -5.0815 C   0  0  0  0  0  0  0  0  0  0  0  0
   -0.7779   -2.3134   -5.1050 C   0  0  0  0  0  0  0  0  0  0  0  0
   -0.8041   -2.3227   -3.6950 C   0  0  0  0  0  0  0  0  0  0  0  0
   -0.5425   -3.4988   -2.8772 N   0  0  0  0  0  0  0  0  0  0  0  0
   -0.0983   -3.3866   -1.5175 C   0  0  0  0  0  0  0  0  0  0  0  0
   -1.0371   -3.2749   -0.4820 C   0  0  0  0  0  0  0  0  0  0  0  0
   -0.6069   -3.1567    0.8403 C   0  0  0  0  0  0  0  0  0  0  0  0
    0.7611   -3.1959    1.1469 C   0  0  0  0  0  0  0  0  0  0  0  0
    1.2188   -2.9524    2.5558 C   0  0  0  0  0  0  0  0  0  0  0  0
    1.6941   -3.3778    0.1138 C   0  0  0  0  0  0  0  0  0  0  0  0
    1.2679   -3.4539   -1.2132 C   0  0  0  0  0  0  0  0  0  0  0  0
   -0.9391   -4.8027   -3.3426 C   0  0  0  0  0  0  0  0  0  0  0  0
   -2.2502   -5.0229   -3.7991 C   0  0  0  0  0  0  0  0  0  0  0  0
   -2.6336   -6.2862   -4.2553 C   0  0  0  0  0  0  0  0  0  0  0  0
   -1.7103   -7.3414   -4.2797 C   0  0  0  0  0  0  0  0  0  0  0  0
   -2.1233   -8.6833   -4.7968 C   0  0  0  0  0  0  0  0  0  0  0  0
   -0.4037   -7.1259   -3.8043 C   0  0  0  0  0  0  0  0  0  0  0  0
   -0.0252   -5.8687   -3.3320 C   0  0  0  0  0  0  0  0  0  0  0  0
   -1.0538   -1.0292   -3.2132 C   0  0  0  0  0  0  0  0  0  0  0  0
   -0.9702   -0.3058   -1.7139 S   0  0  0  0  0  0  0  0  0  0  0  0
   -1.2359    1.2669   -2.2838 C   0  0  0  0  0  0  0  0  0  0  0  0
   -1.4341    1.2401   -3.6778 C   0  0  0  0  0  0  0  0  0  0  0  0
   -1.8552    2.3594   -4.4893 N   0  0  0  0  0  0  0  0  0  0  0  0
   -2.6975    2.1431   -5.6352 C   0  0  0  0  0  0  0  0  0  0  0  0
   -3.8315    1.3185   -5.5388 C   0  0  0  0  0  0  0  0  0  0  0  0
   -4.6335    1.0972   -6.6551 C   0  0  0  0  0  0  0  0  0  0  0  0
   -4.3142    1.6884   -7.8867 C   0  0  0  0  0  0  0  0  0  0  0  0
   -5.1857    1.4642   -9.0829 C   0  0  0  0  0  0  0  0  0  0  0  0
   -3.2162    2.5555   -7.9732 C   0  0  0  0  0  0  0  0  0  0  0  0
   -2.4053    2.7739   -6.8512 C   0  0  0  0  0  0  0  0  0  0  0  0
   -1.6322    3.7063   -4.0618 C   0  0  0  0  0  0  0  0  0  0  0  0
   -2.6849    4.4538   -3.5249 C   0  0  0  0  0  0  0  0  0  0  0  0
   -2.4648    5.7697   -3.1037 C   0  0  0  0  0  0  0  0  0  0  0  0
   -1.1928    6.3473   -3.2211 C   0  0  0  0  0  0  0  0  0  0  0  0
   -0.9707    7.7694   -2.8101 C   0  0  0  0  0  0  0  0  0  0  0  0
   -0.1491    5.6033   -3.8009 C   0  0  0  0  0  0  0  0  0  0  0  0
   -0.3658    4.2884   -4.2142 C   0  0  0  0  0  0  0  0  0  0  0  0
   -1.2821   -0.0723   -4.1550 C   0  0  0  0  0  0  0  0  0  0  0  0
   -1.1463   -0.7574   -5.6827 S   0  0  0  0  0  0  0  0  0  0  0  0
   -1.0742    2.4143   -1.3876 C   0  0  0  0  0  0  0  0  0  0  0  0
   -2.1123    2.7230   -0.5170 C   0  0  0  0  0  0  0  0  0  0  0  0
   -3.3599    2.2579   -0.7645 F   0  0  0  0  0  0  0  0  0  0  0  0
   -1.8510    3.3676    0.6874 C   0  0  0  0  0  0  0  0  0  0  0  0
   -2.9020    3.5419    1.5255 F   0  0  0  0  0  0  0  0  0  0  0  0
   -0.5170    3.6758    1.0676 C   0  0  0  0  0  0  0  0  0  0  0  0
    0.4796    3.6011    0.0682 C   0  0  0  0  0  0  0  0  0  0  0  0
    1.7225    4.1146    0.2626 N   0  0  0  0  0  0  0  0  0  0  0  0
    2.7187    3.9899   -0.6594 C   0  0  0  0  0  0  0  0  0  0  0  0
    4.0375    4.6984   -0.4031 C   0  0  0  0  0  0  0  0  0  0  0  0
    5.1447    3.7520    0.0507 C   0  0  0  0  0  0  0  0  0  0  0  0
    2.4663    3.2416   -1.8395 C   0  0  0  0  0  0  0  0  0  0  0  0
    1.2170    2.7341   -2.0304 N   0  0  0  0  0  0  0  0  0  0  0  0
    0.2088    2.9295   -1.1381 C   0  0  0  0  0  0  0  0  0  0  0  0
    3.4977    2.9832   -2.9253 C   0  0  0  0  0  0  0  0  0  0  0  0
    3.6133    4.1402   -3.9201 C   0  0  0  0  0  0  0  0  0  0  0  0
   -0.1702    3.7198    2.5269 C   0  0  0  0  0  0  0  0  0  0  0  0
    0.7390    2.7918    3.1127 C   0  0  0  0  0  0  0  0  0  0  0  0
    2.1261    2.6834    2.7419 N   0  0  0  0  0  0  0  0  0  0  0  0
    3.0163    3.5626    3.4616 C   0  0  0  0  0  0  0  0  0  0  0  0
    2.9628    4.9470    3.2470 C   0  0  0  0  0  0  0  0  0  0  0  0
    3.7395    5.8176    4.0250 C   0  0  0  0  0  0  0  0  0  0  0  0
    4.5439    5.3021    5.0461 C   0  0  0  0  0  0  0  0  0  0  0  0
    4.5759    3.9269    5.2818 C   0  0  0  0  0  0  0  0  0  0  0  0
    3.8102    3.0590    4.5051 C   0  0  0  0  0  0  0  0  0  0  0  0
    2.6154    1.5763    1.9384 C   0  0  0  0  0  0  0  0  0  0  0  0
    1.7314    0.8093    1.1557 C   0  0  0  0  0  0  0  0  0  0  0  0
    2.2117   -0.1512    0.2635 C   0  0  0  0  0  0  0  0  0  0  0  0
    3.5817   -0.4150    0.1792 C   0  0  0  0  0  0  0  0  0  0  0  0
    4.4711    0.2868    0.9878 C   0  0  0  0  0  0  0  0  0  0  0  0
    3.9943    1.2716    1.8562 C   0  0  0  0  0  0  0  0  0  0  0  0
    0.3133    2.3668    4.3716 C   0  0  0  0  0  0  0  0  0  0  0  0
    0.8153    1.1543    5.4280 S   0  0  0  0  0  0  0  0  0  0  0  0
   -0.5018    1.3723    6.4872 C   0  0  0  0  0  0  0  0  0  0  0  0
   -1.3178    2.4151    6.0118 C   0  0  0  0  0  0  0  0  0  0  0  0
   -2.5531    2.8295    6.6263 N   0  0  0  0  0  0  0  0  0  0  0  0
   -3.7072    3.0730    5.7993 C   0  0  0  0  0  0  0  0  0  0  0  0
   -4.4164    4.2825    5.9115 C   0  0  0  0  0  0  0  0  0  0  0  0
   -5.4662    4.5643    5.0303 C   0  0  0  0  0  0  0  0  0  0  0  0
   -5.8247    3.6397    4.0431 C   0  0  0  0  0  0  0  0  0  0  0  0
   -5.1420    2.4193    3.9470 C   0  0  0  0  0  0  0  0  0  0  0  0
   -4.0891    2.1421    4.8195 C   0  0  0  0  0  0  0  0  0  0  0  0
   -2.6026    3.0958    8.0471 C   0  0  0  0  0  0  0  0  0  0  0  0
   -1.4833    3.6342    8.7045 C   0  0  0  0  0  0  0  0  0  0  0  0
   -1.5145    3.8813   10.0791 C   0  0  0  0  0  0  0  0  0  0  0  0
   -2.6791    3.6163   10.8102 C   0  0  0  0  0  0  0  0  0  0  0  0
   -3.7998    3.0844   10.1655 C   0  0  0  0  0  0  0  0  0  0  0  0
   -3.7635    2.8229    8.7886 C   0  0  0  0  0  0  0  0  0  0  0  0
   -0.8102    2.9427    4.8352 C   0  0  0  0  0  0  0  0  0  0  0  0
   -1.3687    4.0380    3.7101 S   0  0  0  0  0  0  0  0  0  0  0  0
   -0.8772    0.4628    7.5772 C   0  0  0  0  0  0  0  0  0  0  0  0
   -1.8174   -0.4927    7.4050 C   0  0  0  0  0  0  0  0  0  0  0  0
   -2.2233   -1.0305    6.0932 C   0  0  0  0  0  0  0  0  0  0  0  0
   -1.8065   -0.6486    4.9712 O   0  0  0  0  0  0  0  0  0  0  0  0
   -3.1822   -2.0837    6.2921 C   0  0  0  0  0  0  0  0  0  0  0  0
   -3.7218   -2.9265    5.2860 C   0  0  0  0  0  0  0  0  0  0  0  0
   -4.5931   -3.8764    5.7750 C   0  0  0  0  0  0  0  0  0  0  0  0
   -4.9370   -3.9830    7.1575 C   0  0  0  0  0  0  0  0  0  0  0  0
   -4.4105   -3.1772    8.1442 C   0  0  0  0  0  0  0  0  0  0  0  0
   -3.4466   -2.2252    7.6806 C   0  0  0  0  0  0  0  0  0  0  0  0
   -2.5702   -1.2727    8.4441 C   0  0  0  0  0  0  0  0  0  0  0  0
   -2.5382   -1.1168    9.7967 C   0  0  0  0  0  0  0  0  0  0  0  0
   -3.2501   -1.9810   10.7015 C   0  0  0  0  0  0  0  0  0  0  0  0
   -3.8049   -2.6608   11.4531 N   0  0  0  0  0  0  0  0  0  0  0  0
   -1.7723   -0.0970   10.4614 C   0  0  0  0  0  0  0  0  0  0  0  0
   -1.1680    0.7170   11.0211 N   0  0  0  0  0  0  0  0  0  0  0  0
   -5.7937   -5.1809    6.8708 C   0  0  0  0  0  0  0  0  0  0  0  0
   -5.2312   -6.5806    7.2963 C   0  0  0  0  0  0  0  0  0  0  0  0
   -3.7180   -6.5674    7.2476 C   0  0  0  0  0  0  0  0  0  0  0  0
   -3.3839   -6.4662    5.9592 C   0  0  0  0  0  0  0  0  0  0  0  0
   -4.6786   -6.4271    5.1764 C   0  0  0  0  0  0  0  0  0  0  0  0
   -5.5038   -7.3703    6.0276 C   0  0  0  0  0  0  0  0  0  0  0  0
   -5.4292   -5.0835    5.4530 C   0  0  0  0  0  0  0  0  0  0  0  0
   -0.8302   -3.7576   -6.7378 H   0  0  0  0  0  0  0  0  0  0  0  0
    4.7482   -2.4326   -4.0436 H   0  0  0  0  0  0  0  0  0  0  0  0
    4.3107   -6.3373   -7.2918 H   0  0  0  0  0  0  0  0  0  0  0  0
    7.3433   -6.3462   -5.5531 H   0  0  0  0  0  0  0  0  0  0  0  0
    8.1726   -5.7508   -7.9296 H   0  0  0  0  0  0  0  0  0  0  0  0
    6.8226   -3.7074   -8.9235 H   0  0  0  0  0  0  0  0  0  0  0  0
    7.0518   -1.6917   -7.2882 H   0  0  0  0  0  0  0  0  0  0  0  0
    8.5757   -2.4560   -5.2432 H   0  0  0  0  0  0  0  0  0  0  0  0
    9.5861   -4.8526   -5.8432 H   0  0  0  0  0  0  0  0  0  0  0  0
    9.7331   -3.7221   -7.2615 H   0  0  0  0  0  0  0  0  0  0  0  0
    7.5618   -4.5318   -4.0753 H   0  0  0  0  0  0  0  0  0  0  0  0
   -2.0950   -3.2347   -0.7022 H   0  0  0  0  0  0  0  0  0  0  0  0
   -1.3414   -3.0106    1.6258 H   0  0  0  0  0  0  0  0  0  0  0  0
    0.9889   -1.8987    2.8369 H   0  0  0  0  0  0  0  0  0  0  0  0
    2.3087   -3.1390    2.6782 H   0  0  0  0  0  0  0  0  0  0  0  0
    0.6731   -3.6247    3.2474 H   0  0  0  0  0  0  0  0  0  0  0  0
    2.7536   -3.3986    0.3379 H   0  0  0  0  0  0  0  0  0  0  0  0
    1.9951   -3.5656   -2.0079 H   0  0  0  0  0  0  0  0  0  0  0  0
   -2.9682   -4.2156   -3.7971 H   0  0  0  0  0  0  0  0  0  0  0  0
   -3.6465   -6.4474   -4.6032 H   0  0  0  0  0  0  0  0  0  0  0  0
   -2.6809   -9.2246   -4.0051 H   0  0  0  0  0  0  0  0  0  0  0  0
   -2.7712   -8.5672   -5.6886 H   0  0  0  0  0  0  0  0  0  0  0  0
   -1.2403   -9.2842   -5.0963 H   0  0  0  0  0  0  0  0  0  0  0  0
    0.3157   -7.9363   -3.7900 H   0  0  0  0  0  0  0  0  0  0  0  0
    0.9950   -5.7144   -2.9952 H   0  0  0  0  0  0  0  0  0  0  0  0
   -4.0877    0.8424   -4.5976 H   0  0  0  0  0  0  0  0  0  0  0  0
   -5.5007    0.4508   -6.5633 H   0  0  0  0  0  0  0  0  0  0  0  0
   -4.5983    1.5679  -10.0181 H   0  0  0  0  0  0  0  0  0  0  0  0
   -6.0089    2.2126   -9.0907 H   0  0  0  0  0  0  0  0  0  0  0  0
   -5.6234    0.4435   -9.0602 H   0  0  0  0  0  0  0  0  0  0  0  0
   -2.9647    3.0356   -8.9079 H   0  0  0  0  0  0  0  0  0  0  0  0
   -1.5389    3.4154   -6.9309 H   0  0  0  0  0  0  0  0  0  0  0  0
   -3.6697    4.0148   -3.4016 H   0  0  0  0  0  0  0  0  0  0  0  0
   -3.2839    6.3324   -2.6672 H   0  0  0  0  0  0  0  0  0  0  0  0
   -1.2047    8.4480   -3.6548 H   0  0  0  0  0  0  0  0  0  0  0  0
    0.0742    7.9307   -2.4896 H   0  0  0  0  0  0  0  0  0  0  0  0
   -1.6216    8.0470   -1.9563 H   0  0  0  0  0  0  0  0  0  0  0  0
    0.8214    6.0515   -3.9238 H   0  0  0  0  0  0  0  0  0  0  0  0
    0.4347    3.7084   -4.6493 H   0  0  0  0  0  0  0  0  0  0  0  0
    4.3539    5.2506   -1.3078 H   0  0  0  0  0  0  0  0  0  0  0  0
    3.8870    5.4657    0.3835 H   0  0  0  0  0  0  0  0  0  0  0  0
    5.2167    3.7488    1.1642 H   0  0  0  0  0  0  0  0  0  0  0  0
    4.9744    2.7169   -0.3101 H   0  0  0  0  0  0  0  0  0  0  0  0
    6.1251    4.0858   -0.3650 H   0  0  0  0  0  0  0  0  0  0  0  0
    4.4965    2.7665   -2.4945 H   0  0  0  0  0  0  0  0  0  0  0  0
    3.1912    2.0793   -3.4943 H   0  0  0  0  0  0  0  0  0  0  0  0
    4.2325    4.9571   -3.5068 H   0  0  0  0  0  0  0  0  0  0  0  0
    2.6157    4.5410   -4.1823 H   0  0  0  0  0  0  0  0  0  0  0  0
    4.1052    3.7990   -4.8609 H   0  0  0  0  0  0  0  0  0  0  0  0
    2.2972    5.3664    2.5116 H   0  0  0  0  0  0  0  0  0  0  0  0
    3.6539    6.8887    3.8951 H   0  0  0  0  0  0  0  0  0  0  0  0
    5.1307    5.9677    5.6569 H   0  0  0  0  0  0  0  0  0  0  0  0
    5.1875    3.5298    6.0885 H   0  0  0  0  0  0  0  0  0  0  0  0
    3.8190    2.0028    4.7354 H   0  0  0  0  0  0  0  0  0  0  0  0
    0.6687    0.9860    1.1807 H   0  0  0  0  0  0  0  0  0  0  0  0
    1.5245   -0.6943   -0.3725 H   0  0  0  0  0  0  0  0  0  0  0  0
    3.9509   -1.1640   -0.5026 H   0  0  0  0  0  0  0  0  0  0  0  0
    5.5360    0.0908    0.9218 H   0  0  0  0  0  0  0  0  0  0  0  0
    4.7306    1.8316    2.4076 H   0  0  0  0  0  0  0  0  0  0  0  0
   -4.1239    5.0248    6.6491 H   0  0  0  0  0  0  0  0  0  0  0  0
   -5.9879    5.5132    5.0979 H   0  0  0  0  0  0  0  0  0  0  0  0
   -6.6305    3.8750    3.3512 H   0  0  0  0  0  0  0  0  0  0  0  0
   -5.4123    1.7031    3.1899 H   0  0  0  0  0  0  0  0  0  0  0  0
   -3.5559    1.2059    4.7153 H   0  0  0  0  0  0  0  0  0  0  0  0
   -0.5767    3.8562    8.1520 H   0  0  0  0  0  0  0  0  0  0  0  0
   -0.6477    4.2876   10.5755 H   0  0  0  0  0  0  0  0  0  0  0  0
   -2.6986    3.8098   11.8756 H   0  0  0  0  0  0  0  0  0  0  0  0
   -4.6912    2.8593   10.7344 H   0  0  0  0  0  0  0  0  0  0  0  0
   -4.6356    2.3922    8.3109 H   0  0  0  0  0  0  0  0  0  0  0  0
   -0.4811    0.7296    8.5401 H   0  0  0  0  0  0  0  0  0  0  0  0
   -3.4400   -2.8567    4.2380 H   0  0  0  0  0  0  0  0  0  0  0  0
   -4.7193   -3.3219    9.1609 H   0  0  0  0  0  0  0  0  0  0  0  0
   -6.8762   -5.0191    7.0680 H   0  0  0  0  0  0  0  0  0  0  0  0
   -5.6726   -7.0001    8.2259 H   0  0  0  0  0  0  0  0  0  0  0  0
   -3.0336   -6.5728    8.0793 H   0  0  0  0  0  0  0  0  0  0  0  0
   -2.3809   -6.4109    5.5590 H   0  0  0  0  0  0  0  0  0  0  0  0
   -4.5924   -6.7069    4.1010 H   0  0  0  0  0  0  0  0  0  0  0  0
   -6.5811   -7.4009    5.7436 H   0  0  0  0  0  0  0  0  0  0  0  0
   -5.0879   -8.4102    6.0608 H   0  0  0  0  0  0  0  0  0  0  0  0
   -6.2818   -4.8664    4.7680 H   0  0  0  0  0  0  0  0  0  0  0  0
  1  2  2  3
  2  3  1  0
  3  4  2  0
  3  5  1  0
  5  6  2  0
  6  7  1  0
  7  8  2  0
  8  9  1  0
  9 10  2  0
 10 11  1  0
 11 12  2  3
 12 13  1  0
 13 14  3  0
 12 15  1  0
 15 16  3  0
  8 17  1  0
 17 18  1  0
 18 19  1  0
 19 20  2  0
 20 21  1  0
 21 22  1  0
 21 23  1  0
  1 24  1  0
 24 25  2  0
 25 26  1  0
 26 27  1  0
 27 28  2  0
 28 29  1  0
 29 30  2  0
 30 31  1  0
 30 32  1  0
 32 33  2  0
 26 34  1  0
 34 35  2  0
 35 36  1  0
 36 37  2  0
 37 38  1  0
 37 39  1  0
 39 40  2  0
 25 41  1  0
 41 42  1  0
 42 43  1  0
 43 44  2  0
 44 45  1  0
 45 46  1  0
 46 47  2  0
 47 48  1  0
 48 49  2  0
 49 50  1  0
 49 51  1  0
 51 52  2  0
 45 53  1  0
 53 54  2  0
 54 55  1  0
 55 56  2  0
 56 57  1  0
 56 58  1  0
 58 59  2  0
 44 60  1  0
 60 61  1  0
 43 62  1  0
 62 63  2  0
 63 64  1  0
 63 65  1  0
 65 66  1  0
 65 67  2  0
 67 68  1  0
 68 69  2  0
 69 70  1  0
 70 71  1  0
 71 72  1  0
 70 73  2  0
 73 74  1  0
 74 75  2  0
 73 76  1  0
 76 77  1  0
 67 78  1  0
 78 79  2  0
 79 80  1  0
 80 81  1  0
 81 82  2  0
 82 83  1  0
 83 84  2  0
 84 85  1  0
 85 86  2  0
 80 87  1  0
 87 88  2  0
 88 89  1  0
 89 90  2  0
 90 91  1  0
 91 92  2  0
 79 93  1  0
 93 94  1  0
 94 95  1  0
 95 96  2  0
 96 97  1  0
 97 98  1  0
 98 99  2  0
 99100  1  0
100101  2  0
101102  1  0
102103  2  0
 97104  1  0
104105  2  0
105106  1  0
106107  2  0
107108  1  0
108109  2  0
 96110  1  0
110111  1  0
 95112  1  0
112113  2  3
113114  1  0
114115  2  0
114116  1  0
116117  2  0
117118  1  0
118119  2  0
119120  1  0
120121  2  0
121122  1  0
122123  2  3
123124  1  0
124125  3  0
123126  1  0
126127  3  0
119128  1  0
128129  1  0
129130  1  0
130131  2  0
131132  1  0
132133  1  0
132134  1  0
 11  2  1  0
 23 17  1  0
 61 24  1  0
 75 62  1  0
111 78  1  0
122113  1  0
134128  1  0
 10  5  1  0
 22 18  1  0
 33 27  1  0
 40 34  1  0
 60 41  2  0
 75 68  1  0
 86 81  1  0
 92 87  1  0
110 93  2  0
121116  1  0
133129  1  0
 23  7  1  0
 52 46  1  0
 59 53  1  0
103 98  1  0
109104  1  0
134118  1  0
  1135  1  0
  6136  1  0
  9137  1  0
 17138  1  0
 18139  1  0
 19140  1  0
 20141  1  0
 21142  1  0
 22143  1  0
 22144  1  0
 23145  1  0
 28146  1  0
 29147  1  0
 31148  1  0
 31149  1  0
 31150  1  0
 32151  1  0
 33152  1  0
 35153  1  0
 36154  1  0
 38155  1  0
 38156  1  0
 38157  1  0
 39158  1  0
 40159  1  0
 47160  1  0
 48161  1  0
 50162  1  0
 50163  1  0
 50164  1  0
 51165  1  0
 52166  1  0
 54167  1  0
 55168  1  0
 57169  1  0
 57170  1  0
 57171  1  0
 58172  1  0
 59173  1  0
 71174  1  0
 71175  1  0
 72176  1  0
 72177  1  0
 72178  1  0
 76179  1  0
 76180  1  0
 77181  1  0
 77182  1  0
 77183  1  0
 82184  1  0
 83185  1  0
 84186  1  0
 85187  1  0
 86188  1  0
 88189  1  0
 89190  1  0
 90191  1  0
 91192  1  0
 92193  1  0
 99194  1  0
100195  1  0
101196  1  0
102197  1  0
103198  1  0
105199  1  0
106200  1  0
107201  1  0
108202  1  0
109203  1  0
112204  1  0
117205  1  0
120206  1  0
128207  1  0
129208  1  0
130209  1  0
131210  1  0
132211  1  0
133212  1  0
133213  1  0
134214  1  0
M  END

