
     RDKit          3D

139154  0  0  0  0  0  0  0  0999 V2000
    5.2049    1.5135   -3.7671 C   0  0  0  0  0  0  0  0  0  0  0  0
    4.3332    0.4761   -4.2853 C   0  0  0  0  0  0  0  0  0  0  0  0
    3.2450    0.0928   -3.4856 C   0  0  0  0  0  0  0  0  0  0  0  0
    2.8785    0.3632   -2.2949 O   0  0  0  0  0  0  0  0  0  0  0  0
    2.4601   -0.8019   -4.3092 C   0  0  0  0  0  0  0  0  0  0  0  0
    1.2179   -1.4325   -4.0589 C   0  0  0  0  0  0  0  0  0  0  0  0
    0.6401   -2.1647   -5.0579 C   0  0  0  0  0  0  0  0  0  0  0  0
    1.2614   -2.2746   -6.2824 C   0  0  0  0  0  0  0  0  0  0  0  0
    2.5082   -1.6271   -6.4767 C   0  0  0  0  0  0  0  0  0  0  0  0
    3.0294   -0.9305   -5.4581 C   0  0  0  0  0  0  0  0  0  0  0  0
    4.5476    0.0402   -5.5423 C   0  0  0  0  0  0  0  0  0  0  0  0
    4.7625   -0.4836   -6.6740 C   0  0  0  0  0  0  0  0  0  0  0  0
    5.1045   -1.9553   -6.5747 C   0  0  0  0  0  0  0  0  0  0  0  0
    5.3684   -3.0728   -6.4805 N   0  0  0  0  0  0  0  0  0  0  0  0
    4.5842    0.0636   -7.9410 C   0  0  0  0  0  0  0  0  0  0  0  0
    4.4203    0.5105   -9.0121 N   0  0  0  0  0  0  0  0  0  0  0  0
    0.1268   -3.0707   -6.7793 C   0  0  0  0  0  0  0  0  0  0  0  0
   -0.8611   -2.2911   -7.6073 C   0  0  0  0  0  0  0  0  0  0  0  0
   -2.1209   -3.0394   -7.7004 C   0  0  0  0  0  0  0  0  0  0  0  0
   -2.5980   -3.2040   -6.4797 C   0  0  0  0  0  0  0  0  0  0  0  0
   -1.7846   -2.3556   -5.5658 C   0  0  0  0  0  0  0  0  0  0  0  0
   -1.3136   -1.2653   -6.5400 C   0  0  0  0  0  0  0  0  0  0  0  0
   -0.4907   -3.0436   -5.3735 C   0  0  0  0  0  0  0  0  0  0  0  0
    4.7766    1.9912   -2.4840 C   0  0  0  0  0  0  0  0  0  0  0  0
    5.2135    1.9807   -1.2330 C   0  0  0  0  0  0  0  0  0  0  0  0
    4.4047    2.3196   -0.2095 C   0  0  0  0  0  0  0  0  0  0  0  0
    3.1370    2.6825   -0.3529 C   0  0  0  0  0  0  0  0  0  0  0  0
    2.9208    2.6091   -2.2162 Se  0  0  0  0  0  2  0  0  0  0  0  0
    1.9365    2.6685    0.5700 C   0  0  0  0  0  0  0  0  0  0  0  0
    0.6587    2.4018    0.1003 C   0  0  0  0  0  0  0  0  0  0  0  0
    0.1597    3.1167   -1.0471 N   0  0  0  0  0  0  0  0  0  0  0  0
   -0.5928    2.8693   -2.1604 C   0  0  0  0  0  0  0  0  0  0  0  0
   -1.6379    3.8038   -2.4739 C   0  0  0  0  0  0  0  0  0  0  0  0
   -2.4123    3.7243   -3.5834 C   0  0  0  0  0  0  0  0  0  0  0  0
   -2.2192    2.7109   -4.4778 C   0  0  0  0  0  0  0  0  0  0  0  0
   -3.1995    2.5549   -5.9824 S   0  0  0  0  0  0  0  0  0  0  0  0
   -2.4213    3.5002   -7.3296 C   0  0  0  0  0  0  0  0  0  0  0  0
   -1.2327    1.7732   -4.2318 C   0  0  0  0  0  0  0  0  0  0  0  0
   -0.4473    1.8782   -3.0816 C   0  0  0  0  0  0  0  0  0  0  0  0
    0.5869    4.5578   -1.0005 C   0  0  0  0  0  0  0  0  0  0  0  0
    0.5268    5.0793    0.2845 C   0  0  0  0  0  0  0  0  0  0  0  0
    0.9341    6.3844    0.4985 C   0  0  0  0  0  0  0  0  0  0  0  0
    1.3932    7.1723   -0.5431 C   0  0  0  0  0  0  0  0  0  0  0  0
    1.9715    8.8168   -0.1725 S   0  0  0  0  0  0  0  0  0  0  0  0
    1.8849    9.0682    1.6295 C   0  0  0  0  0  0  0  0  0  0  0  0
    1.4226    6.5999   -1.7842 C   0  0  0  0  0  0  0  0  0  0  0  0
    1.0136    5.2789   -2.0088 C   0  0  0  0  0  0  0  0  0  0  0  0
   -0.2099    1.8466    1.0160 C   0  0  0  0  0  0  0  0  0  0  0  0
   -1.6878    0.8786    0.9479 S   0  0  0  0  0  0  0  0  0  0  0  0
   -1.7080    0.2696    2.5691 C   0  0  0  0  0  0  0  0  0  0  0  0
   -0.6103    0.8549    3.1052 C   0  0  0  0  0  0  0  0  0  0  0  0
   -0.4043    1.0701    4.5240 N   0  0  0  0  0  0  0  0  0  0  0  0
    0.4241    0.5071    5.4336 C   0  0  0  0  0  0  0  0  0  0  0  0
    1.1546    1.3372    6.3356 C   0  0  0  0  0  0  0  0  0  0  0  0
    1.9450    0.8443    7.3283 C   0  0  0  0  0  0  0  0  0  0  0  0
    2.0898   -0.5203    7.5220 C   0  0  0  0  0  0  0  0  0  0  0  0
    3.1243   -1.1620    8.8377 S   0  0  0  0  0  0  0  0  0  0  0  0
    2.1170   -1.3897   10.3145 C   0  0  0  0  0  0  0  0  0  0  0  0
    1.3974   -1.3591    6.6696 C   0  0  0  0  0  0  0  0  0  0  0  0
    0.5995   -0.8429    5.6681 C   0  0  0  0  0  0  0  0  0  0  0  0
   -1.3392    2.0887    5.0922 C   0  0  0  0  0  0  0  0  0  0  0  0
   -1.6207    3.2170    4.3450 C   0  0  0  0  0  0  0  0  0  0  0  0
   -2.5592    4.1486    4.8061 C   0  0  0  0  0  0  0  0  0  0  0  0
   -3.2146    3.9721    6.0144 C   0  0  0  0  0  0  0  0  0  0  0  0
   -4.4383    5.1637    6.5462 S   0  0  0  0  0  0  0  0  0  0  0  0
   -6.0796    4.6350    5.8819 C   0  0  0  0  0  0  0  0  0  0  0  0
   -2.9035    2.8425    6.7262 C   0  0  0  0  0  0  0  0  0  0  0  0
   -1.9727    1.9067    6.2742 C   0  0  0  0  0  0  0  0  0  0  0  0
    0.1506    1.6529    2.2367 C   0  0  0  0  0  0  0  0  0  0  0  0
    1.8402    2.2237    2.2161 S   0  0  0  0  0  0  0  0  0  0  0  0
   -2.3243   -1.0240    3.0624 C   0  0  0  0  0  0  0  0  0  0  0  0
   -2.0708   -2.1027    2.1550 C   0  0  0  0  0  0  0  0  0  0  0  0
   -1.5419   -1.8320    0.9401 F   0  0  0  0  0  0  0  0  0  0  0  0
   -2.3594   -3.3909    2.4793 C   0  0  0  0  0  0  0  0  0  0  0  0
   -2.1247   -4.4538    1.6728 F   0  0  0  0  0  0  0  0  0  0  0  0
   -2.9247   -3.6238    3.7496 C   0  0  0  0  0  0  0  0  0  0  0  0
   -3.1790   -2.5901    4.6106 C   0  0  0  0  0  0  0  0  0  0  0  0
   -2.8611   -1.2559    4.2285 C   0  0  0  0  0  0  0  0  0  0  0  0
   -3.2457   -0.5133    5.2527 N   0  0  0  0  0  0  0  0  0  0  0  0
   -3.7435   -1.2600    6.1854 O   0  0  0  0  0  0  0  0  0  0  0  0
   -3.7115   -2.5147    5.8150 N   0  0  0  0  0  0  0  0  0  0  0  0
   -3.0518   -4.9986    4.1830 C   0  0  0  0  0  0  0  0  0  0  0  0
   -1.9050   -5.6784    4.4144 C   0  0  0  0  0  0  0  0  0  0  0  0
   -0.5467   -5.1292    4.2615 C   0  0  0  0  0  0  0  0  0  0  0  0
   -0.1600   -4.0029    3.9272 O   0  0  0  0  0  0  0  0  0  0  0  0
    0.4494   -6.1830    4.5986 C   0  0  0  0  0  0  0  0  0  0  0  0
    1.8256   -6.1866    4.6134 C   0  0  0  0  0  0  0  0  0  0  0  0
    2.5449   -7.3184    4.9618 C   0  0  0  0  0  0  0  0  0  0  0  0
    1.8502   -8.4386    5.2923 C   0  0  0  0  0  0  0  0  0  0  0  0
    0.4766   -8.4387    5.2829 C   0  0  0  0  0  0  0  0  0  0  0  0
   -0.2627   -7.3152    4.9382 C   0  0  0  0  0  0  0  0  0  0  0  0
   -1.7151   -7.0608    4.8463 C   0  0  0  0  0  0  0  0  0  0  0  0
   -2.6043   -7.8901    5.1016 O   0  0  0  0  0  0  0  0  0  0  0  0
    6.0001    1.8144   -4.3193 H   0  0  0  0  0  0  0  0  0  0  0  0
    0.8161   -1.3041   -3.0898 H   0  0  0  0  0  0  0  0  0  0  0  0
    2.9099   -1.7433   -7.4566 H   0  0  0  0  0  0  0  0  0  0  0  0
    0.4036   -4.0720   -7.1584 H   0  0  0  0  0  0  0  0  0  0  0  0
   -0.4902   -1.7909   -8.4797 H   0  0  0  0  0  0  0  0  0  0  0  0
   -2.6321   -3.4266   -8.5840 H   0  0  0  0  0  0  0  0  0  0  0  0
   -3.4302   -3.8125   -6.1163 H   0  0  0  0  0  0  0  0  0  0  0  0
   -2.3059   -1.9895   -4.7127 H   0  0  0  0  0  0  0  0  0  0  0  0
   -2.1174   -0.6399   -6.8851 H   0  0  0  0  0  0  0  0  0  0  0  0
   -0.4053   -0.7642   -6.1481 H   0  0  0  0  0  0  0  0  0  0  0  0
   -0.4896   -4.0255   -4.8666 H   0  0  0  0  0  0  0  0  0  0  0  0
    6.2830    1.6605   -1.0810 H   0  0  0  0  0  0  0  0  0  0  0  0
    4.8340    2.2721    0.8336 H   0  0  0  0  0  0  0  0  0  0  0  0
   -1.7648    4.5962   -1.7440 H   0  0  0  0  0  0  0  0  0  0  0  0
   -3.1963    4.4314   -3.8093 H   0  0  0  0  0  0  0  0  0  0  0  0
   -2.8993    3.2975   -8.2919 H   0  0  0  0  0  0  0  0  0  0  0  0
   -1.3207    3.2774   -7.4198 H   0  0  0  0  0  0  0  0  0  0  0  0
   -2.5328    4.5921   -7.1305 H   0  0  0  0  0  0  0  0  0  0  0  0
   -1.0342    0.9599   -4.9098 H   0  0  0  0  0  0  0  0  0  0  0  0
    0.3540    1.1177   -2.9036 H   0  0  0  0  0  0  0  0  0  0  0  0
    0.1727    4.5042    1.1275 H   0  0  0  0  0  0  0  0  0  0  0  0
    0.8540    6.7267    1.5324 H   0  0  0  0  0  0  0  0  0  0  0  0
    2.3229   10.0518    1.9017 H   0  0  0  0  0  0  0  0  0  0  0  0
    0.8310    9.0602    1.9960 H   0  0  0  0  0  0  0  0  0  0  0  0
    2.4842    8.2696    2.1584 H   0  0  0  0  0  0  0  0  0  0  0  0
    1.7619    7.1774   -2.6237 H   0  0  0  0  0  0  0  0  0  0  0  0
    1.0202    4.8241   -3.0112 H   0  0  0  0  0  0  0  0  0  0  0  0
    1.0304    2.4181    6.1264 H   0  0  0  0  0  0  0  0  0  0  0  0
    2.4962    1.5129    8.0004 H   0  0  0  0  0  0  0  0  0  0  0  0
    1.1325   -1.8319   10.1235 H   0  0  0  0  0  0  0  0  0  0  0  0
    1.9745   -0.4192   10.8554 H   0  0  0  0  0  0  0  0  0  0  0  0
    2.6421   -2.0922   11.0118 H   0  0  0  0  0  0  0  0  0  0  0  0
    1.4894   -2.4293    6.8249 H   0  0  0  0  0  0  0  0  0  0  0  0
    0.0739   -1.5496    5.0142 H   0  0  0  0  0  0  0  0  0  0  0  0
   -1.1108    3.3531    3.3955 H   0  0  0  0  0  0  0  0  0  0  0  0
   -2.8007    5.0412    4.2361 H   0  0  0  0  0  0  0  0  0  0  0  0
   -6.7921    5.4506    5.9220 H   0  0  0  0  0  0  0  0  0  0  0  0
   -6.3956    3.6791    6.2823 H   0  0  0  0  0  0  0  0  0  0  0  0
   -5.8830    4.4786    4.7740 H   0  0  0  0  0  0  0  0  0  0  0  0
   -3.4259    2.7128    7.6716 H   0  0  0  0  0  0  0  0  0  0  0  0
   -1.7534    1.0579    6.8648 H   0  0  0  0  0  0  0  0  0  0  0  0
   -3.9882   -5.4622    4.3261 H   0  0  0  0  0  0  0  0  0  0  0  0
    2.3606   -5.2607    4.3592 H   0  0  0  0  0  0  0  0  0  0  0  0
    3.6272   -7.2634    4.9631 H   0  0  0  0  0  0  0  0  0  0  0  0
    2.4349   -9.3182    5.5456 H   0  0  0  0  0  0  0  0  0  0  0  0
   -0.0406   -9.3413    5.5386 H   0  0  0  0  0  0  0  0  0  0  0  0
  1  2  2  3
  2  3  1  0
  3  4  2  0
  3  5  1  0
  5  6  2  0
  6  7  1  0
  7  8  2  0
  8  9  1  0
  9 10  2  0
 10 11  1  0
 11 12  2  3
 12 13  1  0
 13 14  3  0
 12 15  1  0
 15 16  3  0
  8 17  1  0
 17 18  1  0
 18 19  1  0
 19 20  2  0
 20 21  1  0
 21 22  1  0
 21 23  1  0
  1 24  1  0
 24 25  2  0
 25 26  1  0
 26 27  2  0
 27 28  1  0
 27 29  1  0
 29 30  2  0
 30 31  1  0
 31 32  1  0
 32 33  2  0
 33 34  1  0
 34 35  2  0
 35 36  1  0
 36 37  1  0
 35 38  1  0
 38 39  2  0
 31 40  1  0
 40 41  2  0
 41 42  1  0
 42 43  2  0
 43 44  1  0
 44 45  1  0
 43 46  1  0
 46 47  2  0
 30 48  1  0
 48 49  1  0
 49 50  1  0
 50 51  2  0
 51 52  1  0
 52 53  1  0
 53 54  2  0
 54 55  1  0
 55 56  2  0
 56 57  1  0
 57 58  1  0
 56 59  1  0
 59 60  2  0
 52 61  1  0
 61 62  2  0
 62 63  1  0
 63 64  2  0
 64 65  1  0
 65 66  1  0
 64 67  1  0
 67 68  2  0
 51 69  1  0
 69 70  1  0
 50 71  1  0
 71 72  2  0
 72 73  1  0
 72 74  1  0
 74 75  1  0
 74 76  2  0
 76 77  1  0
 77 78  1  0
 78 79  2  0
 79 80  1  0
 80 81  1  0
 76 82  1  0
 82 83  2  3
 83 84  1  0
 84 85  2  0
 84 86  1  0
 86 87  2  0
 87 88  1  0
 88 89  2  0
 89 90  1  0
 90 91  2  0
 91 92  1  0
 92 93  2  0
 11  2  1  0
 23 17  1  0
 28 24  1  0
 70 29  1  0
 78 71  1  0
 92 83  1  0
 10  5  1  0
 22 18  1  0
 39 32  1  0
 47 40  1  0
 69 48  2  0
 81 77  2  0
 91 86  1  0
 23  7  1  0
 60 53  1  0
 68 61  1  0
  1 94  1  0
  6 95  1  0
  9 96  1  0
 17 97  1  0
 18 98  1  0
 19 99  1  0
 20100  1  0
 21101  1  0
 22102  1  0
 22103  1  0
 23104  1  0
 25105  1  0
 26106  1  0
 33107  1  0
 34108  1  0
 37109  1  0
 37110  1  0
 37111  1  0
 38112  1  0
 39113  1  0
 41114  1  0
 42115  1  0
 45116  1  0
 45117  1  0
 45118  1  0
 46119  1  0
 47120  1  0
 54121  1  0
 55122  1  0
 58123  1  0
 58124  1  0
 58125  1  0
 59126  1  0
 60127  1  0
 62128  1  0
 63129  1  0
 66130  1  0
 66131  1  0
 66132  1  0
 67133  1  0
 68134  1  0
 82135  1  0
 87136  1  0
 88137  1  0
 89138  1  0
 90139  1  0
M  END

