
     RDKit          3D

217239  0  0  0  0  0  0  0  0999 V2000
    5.3538    1.6694    2.4364 C   0  0  0  0  0  0  0  0  0  0  0  0
    5.7611    2.2906    3.5595 C   0  0  0  0  0  0  0  0  0  0  0  0
    4.9383    3.1777    4.3896 C   0  0  0  0  0  0  0  0  0  0  0  0
    3.9398    3.8379    4.0127 O   0  0  0  0  0  0  0  0  0  0  0  0
    5.5690    3.3117    5.6825 C   0  0  0  0  0  0  0  0  0  0  0  0
    5.0260    3.8980    6.8490 C   0  0  0  0  0  0  0  0  0  0  0  0
    5.8426    3.7911    7.9569 C   0  0  0  0  0  0  0  0  0  0  0  0
    7.1245    3.1529    7.9257 C   0  0  0  0  0  0  0  0  0  0  0  0
    7.6509    2.5619    6.7895 C   0  0  0  0  0  0  0  0  0  0  0  0
    6.8330    2.6837    5.6351 C   0  0  0  0  0  0  0  0  0  0  0  0
    7.0720    2.1300    4.2719 C   0  0  0  0  0  0  0  0  0  0  0  0
    8.2787    1.8626    3.7225 C   0  0  0  0  0  0  0  0  0  0  0  0
    8.4400    1.3710    2.3779 C   0  0  0  0  0  0  0  0  0  0  0  0
    8.5832    0.9793    1.2988 N   0  0  0  0  0  0  0  0  0  0  0  0
    9.5105    2.2824    4.3574 C   0  0  0  0  0  0  0  0  0  0  0  0
   10.5106    2.6469    4.8439 N   0  0  0  0  0  0  0  0  0  0  0  0
    7.3361    3.4743    9.3714 C   0  0  0  0  0  0  0  0  0  0  0  0
    8.3122    4.6375    9.7162 C   0  0  0  0  0  0  0  0  0  0  0  0
    8.2924    5.6730    8.6174 C   0  0  0  0  0  0  0  0  0  0  0  0
    7.0936    6.2492    8.6634 C   0  0  0  0  0  0  0  0  0  0  0  0
    6.3375    5.5893    9.7860 C   0  0  0  0  0  0  0  0  0  0  0  0
    7.4837    5.3717   10.7517 C   0  0  0  0  0  0  0  0  0  0  0  0
    6.0175    4.1126    9.4099 C   0  0  0  0  0  0  0  0  0  0  0  0
    4.0192    1.8635    1.8367 C   0  0  0  0  0  0  0  0  0  0  0  0
    2.7579    1.6988    2.4569 C   0  0  0  0  0  0  0  0  0  0  0  0
    2.5281    1.0583    3.7365 N   0  0  0  0  0  0  0  0  0  0  0  0
    1.3617    1.3898    4.5279 C   0  0  0  0  0  0  0  0  0  0  0  0
    0.9903    2.7285    4.7340 C   0  0  0  0  0  0  0  0  0  0  0  0
   -0.1289    3.0421    5.5119 C   0  0  0  0  0  0  0  0  0  0  0  0
   -0.9177    2.0221    6.0571 C   0  0  0  0  0  0  0  0  0  0  0  0
   -2.1001    2.3522    6.9231 C   0  0  0  0  0  0  0  0  0  0  0  0
   -0.5727    0.6847    5.8296 C   0  0  0  0  0  0  0  0  0  0  0  0
    0.5607    0.3713    5.0668 C   0  0  0  0  0  0  0  0  0  0  0  0
    3.3483   -0.0597    4.1261 C   0  0  0  0  0  0  0  0  0  0  0  0
    3.6304   -1.0886    3.2185 C   0  0  0  0  0  0  0  0  0  0  0  0
    4.4738   -2.1430    3.5792 C   0  0  0  0  0  0  0  0  0  0  0  0
    5.0266   -2.1944    4.8710 C   0  0  0  0  0  0  0  0  0  0  0  0
    5.9901   -3.2777    5.2518 C   0  0  0  0  0  0  0  0  0  0  0  0
    4.7191   -1.1826    5.7879 C   0  0  0  0  0  0  0  0  0  0  0  0
    3.8780   -0.1262    5.4279 C   0  0  0  0  0  0  0  0  0  0  0  0
    1.7357    1.9745    1.5537 C   0  0  0  0  0  0  0  0  0  0  0  0
    0.0842    1.7935    1.5816 S   0  0  0  0  0  0  0  0  0  0  0  0
   -0.1579    2.0997   -0.0721 C   0  0  0  0  0  0  0  0  0  0  0  0
    1.1070    2.3227   -0.6641 C   0  0  0  0  0  0  0  0  0  0  0  0
    1.3755    2.2826   -2.0763 N   0  0  0  0  0  0  0  0  0  0  0  0
    2.0321    1.1076   -2.5922 C   0  0  0  0  0  0  0  0  0  0  0  0
    1.4703   -0.1556   -2.3823 C   0  0  0  0  0  0  0  0  0  0  0  0
    2.1256   -1.3088   -2.8009 C   0  0  0  0  0  0  0  0  0  0  0  0
    3.3542   -1.2175   -3.4781 C   0  0  0  0  0  0  0  0  0  0  0  0
    4.0532   -2.4649   -3.9205 C   0  0  0  0  0  0  0  0  0  0  0  0
    3.9263    0.0492   -3.6910 C   0  0  0  0  0  0  0  0  0  0  0  0
    3.2698    1.2061   -3.2544 C   0  0  0  0  0  0  0  0  0  0  0  0
    1.3394    3.4939   -2.8569 C   0  0  0  0  0  0  0  0  0  0  0  0
    1.1271    3.4304   -4.2446 C   0  0  0  0  0  0  0  0  0  0  0  0
    1.1994    4.5832   -5.0327 C   0  0  0  0  0  0  0  0  0  0  0  0
    1.4780    5.8205   -4.4377 C   0  0  0  0  0  0  0  0  0  0  0  0
    1.6203    7.0362   -5.3016 C   0  0  0  0  0  0  0  0  0  0  0  0
    1.6745    5.8951   -3.0505 C   0  0  0  0  0  0  0  0  0  0  0  0
    1.6177    4.7410   -2.2687 C   0  0  0  0  0  0  0  0  0  0  0  0
    2.1285    2.2560    0.2856 C   0  0  0  0  0  0  0  0  0  0  0  0
    3.7987    2.2151    0.1827 S   0  0  0  0  0  0  0  0  0  0  0  0
   -1.4203    1.7909   -0.7643 C   0  0  0  0  0  0  0  0  0  0  0  0
   -2.2403    0.6824   -0.4873 C   0  0  0  0  0  0  0  0  0  0  0  0
   -2.4594    0.1277    0.8301 N   0  0  0  0  0  0  0  0  0  0  0  0
   -1.7256   -1.0388    1.2886 C   0  0  0  0  0  0  0  0  0  0  0  0
   -0.8298   -1.6955    0.4237 C   0  0  0  0  0  0  0  0  0  0  0  0
   -0.0560   -2.7652    0.8735 C   0  0  0  0  0  0  0  0  0  0  0  0
   -0.2162   -3.2468    2.1691 C   0  0  0  0  0  0  0  0  0  0  0  0
    0.7634   -4.6422    2.7177 S   0  0  0  0  0  0  0  0  0  0  0  0
   -0.4152   -5.8599    2.0436 C   0  0  0  0  0  0  0  0  0  0  0  0
   -1.1339   -2.6430    3.0289 C   0  0  0  0  0  0  0  0  0  0  0  0
   -1.8908   -1.5476    2.5959 C   0  0  0  0  0  0  0  0  0  0  0  0
   -3.4033    0.8438    1.6628 C   0  0  0  0  0  0  0  0  0  0  0  0
   -4.7152    1.0810    1.2036 C   0  0  0  0  0  0  0  0  0  0  0  0
   -5.5713    1.9410    1.8960 C   0  0  0  0  0  0  0  0  0  0  0  0
   -5.1315    2.5864    3.0543 C   0  0  0  0  0  0  0  0  0  0  0  0
   -6.2146    3.7393    3.9008 S   0  0  0  0  0  0  0  0  0  0  0  0
   -5.6167    5.1823    2.9707 C   0  0  0  0  0  0  0  0  0  0  0  0
   -3.8512    2.3240    3.5504 C   0  0  0  0  0  0  0  0  0  0  0  0
   -2.9907    1.4659    2.8581 C   0  0  0  0  0  0  0  0  0  0  0  0
   -3.1150    0.4538   -1.5389 C   0  0  0  0  0  0  0  0  0  0  0  0
   -4.0574   -0.8420   -1.9728 S   0  0  0  0  0  0  0  0  0  0  0  0
   -4.5135   -0.1878   -3.4816 C   0  0  0  0  0  0  0  0  0  0  0  0
   -3.9931    1.1147   -3.5839 C   0  0  0  0  0  0  0  0  0  0  0  0
   -4.6983    2.1590   -4.2960 N   0  0  0  0  0  0  0  0  0  0  0  0
   -4.0925    3.4461   -4.5216 C   0  0  0  0  0  0  0  0  0  0  0  0
   -2.9358    3.5624   -5.3061 C   0  0  0  0  0  0  0  0  0  0  0  0
   -2.3477    4.8170   -5.5032 C   0  0  0  0  0  0  0  0  0  0  0  0
   -2.9018    5.9573   -4.9084 C   0  0  0  0  0  0  0  0  0  0  0  0
   -2.1227    7.5590   -5.1209 S   0  0  0  0  0  0  0  0  0  0  0  0
   -1.3919    7.5794   -3.4470 C   0  0  0  0  0  0  0  0  0  0  0  0
   -4.0616    5.8504   -4.1451 C   0  0  0  0  0  0  0  0  0  0  0  0
   -4.6578    4.6010   -3.9576 C   0  0  0  0  0  0  0  0  0  0  0  0
   -6.1379    2.0617   -4.4133 C   0  0  0  0  0  0  0  0  0  0  0  0
   -6.9225    1.7260   -3.2901 C   0  0  0  0  0  0  0  0  0  0  0  0
   -8.2995    1.5435   -3.4180 C   0  0  0  0  0  0  0  0  0  0  0  0
   -8.9183    1.7095   -4.6572 C   0  0  0  0  0  0  0  0  0  0  0  0
  -10.6726    1.3461   -4.8205 S   0  0  0  0  0  0  0  0  0  0  0  0
  -11.2151    3.0003   -4.2831 C   0  0  0  0  0  0  0  0  0  0  0  0
   -8.1566    2.0810   -5.7728 C   0  0  0  0  0  0  0  0  0  0  0  0
   -6.7706    2.2690   -5.6469 C   0  0  0  0  0  0  0  0  0  0  0  0
   -3.1223    1.3809   -2.5278 C   0  0  0  0  0  0  0  0  0  0  0  0
   -1.9213    2.5118   -2.2269 S   0  0  0  0  0  0  0  0  0  0  0  0
   -4.4911   -1.0688   -4.6563 C   0  0  0  0  0  0  0  0  0  0  0  0
   -5.6190   -1.3001   -5.4577 C   0  0  0  0  0  0  0  0  0  0  0  0
   -5.5611   -2.2297   -6.5161 C   0  0  0  0  0  0  0  0  0  0  0  0
   -6.7580   -2.5062   -7.3530 C   0  0  0  0  0  0  0  0  0  0  0  0
   -7.8331   -1.8705   -7.1697 O   0  0  0  0  0  0  0  0  0  0  0  0
   -6.6935   -3.5064   -8.3705 N   0  0  0  0  0  0  0  0  0  0  0  0
   -5.4823   -4.2466   -8.5796 C   0  0  0  0  0  0  0  0  0  0  0  0
   -5.4404   -5.1294   -9.4782 O   0  0  0  0  0  0  0  0  0  0  0  0
   -4.2935   -3.9601   -7.7386 C   0  0  0  0  0  0  0  0  0  0  0  0
   -3.1165   -4.7271   -7.8649 C   0  0  0  0  0  0  0  0  0  0  0  0
   -2.0128   -4.4717   -7.0361 C   0  0  0  0  0  0  0  0  0  0  0  0
   -2.0608   -3.4239   -6.1159 C   0  0  0  0  0  0  0  0  0  0  0  0
   -3.2267   -2.6791   -5.9542 C   0  0  0  0  0  0  0  0  0  0  0  0
   -3.2953   -1.7307   -4.9409 C   0  0  0  0  0  0  0  0  0  0  0  0
   -4.3612   -2.9469   -6.7536 C   0  0  0  0  0  0  0  0  0  0  0  0
   -0.8680   -5.3958   -6.9663 C   0  0  0  0  0  0  0  0  0  0  0  0
   -0.8047   -6.3487   -6.0155 C   0  0  0  0  0  0  0  0  0  0  0  0
   -1.8928   -6.6761   -5.0840 C   0  0  0  0  0  0  0  0  0  0  0  0
   -3.1187   -6.4626   -5.2897 O   0  0  0  0  0  0  0  0  0  0  0  0
   -1.3195   -7.2656   -3.8778 C   0  0  0  0  0  0  0  0  0  0  0  0
    0.0603   -7.3517   -4.0580 C   0  0  0  0  0  0  0  0  0  0  0  0
    0.8887   -7.6735   -2.9770 C   0  0  0  0  0  0  0  0  0  0  0  0
    0.3123   -7.9958   -1.7417 C   0  0  0  0  0  0  0  0  0  0  0  0
   -1.0848   -7.9894   -1.5752 C   0  0  0  0  0  0  0  0  0  0  0  0
   -1.6520   -8.3387   -0.3400 C   0  0  0  0  0  0  0  0  0  0  0  0
   -3.0364   -8.3341   -0.1740 C   0  0  0  0  0  0  0  0  0  0  0  0
   -3.8721   -7.9744   -1.2338 C   0  0  0  0  0  0  0  0  0  0  0  0
   -3.3226   -7.6101   -2.4654 C   0  0  0  0  0  0  0  0  0  0  0  0
   -1.9280   -7.6138   -2.6529 C   0  0  0  0  0  0  0  0  0  0  0  0
    0.4345   -6.9397   -5.4390 C   0  0  0  0  0  0  0  0  0  0  0  0
    1.5710   -7.2524   -6.1093 C   0  0  0  0  0  0  0  0  0  0  0  0
    2.6398   -7.9947   -5.4968 C   0  0  0  0  0  0  0  0  0  0  0  0
    3.5040   -8.5959   -5.0188 N   0  0  0  0  0  0  0  0  0  0  0  0
    1.7205   -7.0056   -7.5177 C   0  0  0  0  0  0  0  0  0  0  0  0
    1.8555   -6.8077   -8.6521 N   0  0  0  0  0  0  0  0  0  0  0  0
    6.0040    1.0044    1.9046 H   0  0  0  0  0  0  0  0  0  0  0  0
    4.0513    4.3696    6.8768 H   0  0  0  0  0  0  0  0  0  0  0  0
    8.5898    2.0301    6.8028 H   0  0  0  0  0  0  0  0  0  0  0  0
    7.4190    2.5756   10.0248 H   0  0  0  0  0  0  0  0  0  0  0  0
    9.3262    4.3204   10.0473 H   0  0  0  0  0  0  0  0  0  0  0  0
    9.1087    5.9528    7.9611 H   0  0  0  0  0  0  0  0  0  0  0  0
    6.7626    7.0753    8.0413 H   0  0  0  0  0  0  0  0  0  0  0  0
    5.4843    6.1752   10.1866 H   0  0  0  0  0  0  0  0  0  0  0  0
    7.9571    6.3243   11.0993 H   0  0  0  0  0  0  0  0  0  0  0  0
    7.2091    4.7540   11.6379 H   0  0  0  0  0  0  0  0  0  0  0  0
    5.2962    3.6030   10.0857 H   0  0  0  0  0  0  0  0  0  0  0  0
    1.5514    3.5366    4.2896 H   0  0  0  0  0  0  0  0  0  0  0  0
   -0.3870    4.0808    5.6816 H   0  0  0  0  0  0  0  0  0  0  0  0
   -2.9664    1.7088    6.6584 H   0  0  0  0  0  0  0  0  0  0  0  0
   -2.4110    3.4086    6.7954 H   0  0  0  0  0  0  0  0  0  0  0  0
   -1.8381    2.1811    7.9874 H   0  0  0  0  0  0  0  0  0  0  0  0
   -1.1798   -0.1111    6.2363 H   0  0  0  0  0  0  0  0  0  0  0  0
    0.7917   -0.6680    4.8844 H   0  0  0  0  0  0  0  0  0  0  0  0
    3.2084   -1.0723    2.2197 H   0  0  0  0  0  0  0  0  0  0  0  0
    4.6906   -2.9187    2.8504 H   0  0  0  0  0  0  0  0  0  0  0  0
    6.1151   -4.0187    4.4333 H   0  0  0  0  0  0  0  0  0  0  0  0
    5.6159   -3.8095    6.1506 H   0  0  0  0  0  0  0  0  0  0  0  0
    6.9801   -2.8225    5.4735 H   0  0  0  0  0  0  0  0  0  0  0  0
    5.1477   -1.1999    6.7821 H   0  0  0  0  0  0  0  0  0  0  0  0
    3.6888    0.6739    6.1359 H   0  0  0  0  0  0  0  0  0  0  0  0
    0.5160   -0.2299   -1.8997 H   0  0  0  0  0  0  0  0  0  0  0  0
    1.6736   -2.2740   -2.6113 H   0  0  0  0  0  0  0  0  0  0  0  0
    3.3602   -3.0801   -4.5342 H   0  0  0  0  0  0  0  0  0  0  0  0
    4.9511   -2.2324   -4.5328 H   0  0  0  0  0  0  0  0  0  0  0  0
    4.3736   -3.0529   -3.0299 H   0  0  0  0  0  0  0  0  0  0  0  0
    4.8744    0.1431   -4.2080 H   0  0  0  0  0  0  0  0  0  0  0  0
    3.7318    2.1702   -3.4195 H   0  0  0  0  0  0  0  0  0  0  0  0
    0.9204    2.4884   -4.7297 H   0  0  0  0  0  0  0  0  0  0  0  0
    1.0627    4.4991   -6.1021 H   0  0  0  0  0  0  0  0  0  0  0  0
    0.7013    7.1774   -5.9111 H   0  0  0  0  0  0  0  0  0  0  0  0
    2.4822    6.9036   -5.9868 H   0  0  0  0  0  0  0  0  0  0  0  0
    1.7915    7.9535   -4.6953 H   0  0  0  0  0  0  0  0  0  0  0  0
    1.8835    6.8396   -2.5704 H   0  0  0  0  0  0  0  0  0  0  0  0
    1.7957    4.8227   -1.2069 H   0  0  0  0  0  0  0  0  0  0  0  0
   -0.7352   -1.3912   -0.5990 H   0  0  0  0  0  0  0  0  0  0  0  0
    0.6507   -3.2275    0.2002 H   0  0  0  0  0  0  0  0  0  0  0  0
   -0.0018   -6.8815    2.1695 H   0  0  0  0  0  0  0  0  0  0  0  0
   -1.3810   -5.7846    2.5879 H   0  0  0  0  0  0  0  0  0  0  0  0
   -0.5842   -5.6772    0.9593 H   0  0  0  0  0  0  0  0  0  0  0  0
   -1.2731   -3.0192    4.0347 H   0  0  0  0  0  0  0  0  0  0  0  0
   -2.6056   -1.1216    3.2817 H   0  0  0  0  0  0  0  0  0  0  0  0
   -5.0809    0.6075    0.3004 H   0  0  0  0  0  0  0  0  0  0  0  0
   -6.5653    2.1305    1.5118 H   0  0  0  0  0  0  0  0  0  0  0  0
   -4.5796    5.4205    3.2844 H   0  0  0  0  0  0  0  0  0  0  0  0
   -6.2774    6.0464    3.1826 H   0  0  0  0  0  0  0  0  0  0  0  0
   -5.6401    4.9809    1.8808 H   0  0  0  0  0  0  0  0  0  0  0  0
   -3.5095    2.8089    4.4523 H   0  0  0  0  0  0  0  0  0  0  0  0
   -2.0035    1.2915    3.2543 H   0  0  0  0  0  0  0  0  0  0  0  0
   -2.4860    2.6798   -5.7472 H   0  0  0  0  0  0  0  0  0  0  0  0
   -1.4597    4.9000   -6.1134 H   0  0  0  0  0  0  0  0  0  0  0  0
   -0.4598    8.1846   -3.4577 H   0  0  0  0  0  0  0  0  0  0  0  0
   -1.1428    6.5530   -3.1018 H   0  0  0  0  0  0  0  0  0  0  0  0
   -2.1095    8.0422   -2.7311 H   0  0  0  0  0  0  0  0  0  0  0  0
   -4.4966    6.7258   -3.6814 H   0  0  0  0  0  0  0  0  0  0  0  0
   -5.5399    4.5300   -3.3356 H   0  0  0  0  0  0  0  0  0  0  0  0
   -6.4560    1.5589   -2.3274 H   0  0  0  0  0  0  0  0  0  0  0  0
   -8.8852    1.2449   -2.5572 H   0  0  0  0  0  0  0  0  0  0  0  0
  -12.2752    2.9429   -3.9654 H   0  0  0  0  0  0  0  0  0  0  0  0
  -11.1308    3.7073   -5.1351 H   0  0  0  0  0  0  0  0  0  0  0  0
  -10.5942    3.3606   -3.4333 H   0  0  0  0  0  0  0  0  0  0  0  0
   -8.6284    2.1825   -6.7412 H   0  0  0  0  0  0  0  0  0  0  0  0
   -6.1858    2.5265   -6.5221 H   0  0  0  0  0  0  0  0  0  0  0  0
   -6.5457   -0.7780   -5.2339 H   0  0  0  0  0  0  0  0  0  0  0  0
   -7.5320   -3.7051   -8.9604 H   0  0  0  0  0  0  0  0  0  0  0  0
   -3.0745   -5.5462   -8.5702 H   0  0  0  0  0  0  0  0  0  0  0  0
   -1.2103   -3.2541   -5.4714 H   0  0  0  0  0  0  0  0  0  0  0  0
   -2.4182   -1.5336   -4.3291 H   0  0  0  0  0  0  0  0  0  0  0  0
    0.0317   -5.0795   -7.4768 H   0  0  0  0  0  0  0  0  0  0  0  0
    1.9608   -7.6363   -3.0511 H   0  0  0  0  0  0  0  0  0  0  0  0
    0.9613   -8.2530   -0.9103 H   0  0  0  0  0  0  0  0  0  0  0  0
   -1.0221   -8.6187    0.4979 H   0  0  0  0  0  0  0  0  0  0  0  0
   -3.4671   -8.6194    0.7773 H   0  0  0  0  0  0  0  0  0  0  0  0
   -4.9489   -7.9853   -1.0985 H   0  0  0  0  0  0  0  0  0  0  0  0
   -4.0028   -7.3557   -3.2624 H   0  0  0  0  0  0  0  0  0  0  0  0
  1  2  2  3
  2  3  1  0
  3  4  2  0
  3  5  1  0
  5  6  2  0
  6  7  1  0
  7  8  2  0
  8  9  1  0
  9 10  2  0
 10 11  1  0
 11 12  2  3
 12 13  1  0
 13 14  3  0
 12 15  1  0
 15 16  3  0
  8 17  1  0
 17 18  1  0
 18 19  1  0
 19 20  2  0
 20 21  1  0
 21 22  1  0
 21 23  1  0
  1 24  1  0
 24 25  2  0
 25 26  1  0
 26 27  1  0
 27 28  2  0
 28 29  1  0
 29 30  2  0
 30 31  1  0
 30 32  1  0
 32 33  2  0
 26 34  1  0
 34 35  2  0
 35 36  1  0
 36 37  2  0
 37 38  1  0
 37 39  1  0
 39 40  2  0
 25 41  1  0
 41 42  1  0
 42 43  1  0
 43 44  2  0
 44 45  1  0
 45 46  1  0
 46 47  2  0
 47 48  1  0
 48 49  2  0
 49 50  1  0
 49 51  1  0
 51 52  2  0
 45 53  1  0
 53 54  2  0
 54 55  1  0
 55 56  2  0
 56 57  1  0
 56 58  1  0
 58 59  2  0
 44 60  1  0
 60 61  1  0
 43 62  1  0
 62 63  2  0
 63 64  1  0
 64 65  1  0
 65 66  2  0
 66 67  1  0
 67 68  2  0
 68 69  1  0
 69 70  1  0
 68 71  1  0
 71 72  2  0
 64 73  1  0
 73 74  2  0
 74 75  1  0
 75 76  2  0
 76 77  1  0
 77 78  1  0
 76 79  1  0
 79 80  2  0
 63 81  1  0
 81 82  1  0
 82 83  1  0
 83 84  2  0
 84 85  1  0
 85 86  1  0
 86 87  2  0
 87 88  1  0
 88 89  2  0
 89 90  1  0
 90 91  1  0
 89 92  1  0
 92 93  2  0
 85 94  1  0
 94 95  2  0
 95 96  1  0
 96 97  2  0
 97 98  1  0
 98 99  1  0
 97100  1  0
100101  2  0
 84102  1  0
102103  1  0
 83104  1  0
104105  2  0
105106  1  0
106107  1  0
107108  2  0
107109  1  0
109110  1  0
110111  2  0
110112  1  0
112113  2  0
113114  1  0
114115  2  0
115116  1  0
116117  2  0
116118  1  0
114119  1  0
119120  2  3
120121  1  0
121122  2  0
121123  1  0
123124  2  0
124125  1  0
125126  2  0
126127  1  0
127128  2  0
128129  1  0
129130  2  0
130131  1  0
131132  2  0
124133  1  0
133134  2  3
134135  1  0
135136  3  0
134137  1  0
137138  3  0
 11  2  1  0
 23 17  1  0
 61 24  1  0
103 62  1  0
117104  1  0
133120  1  0
 10  5  1  0
 22 18  1  0
 33 27  1  0
 40 34  1  0
 60 41  2  0
 72 65  1  0
 80 73  1  0
102 81  2  0
118106  2  0
132123  1  0
 23  7  1  0
 52 46  1  0
 59 53  1  0
 93 86  1  0
101 94  1  0
118112  1  0
132127  1  0
  1139  1  0
  6140  1  0
  9141  1  0
 17142  1  0
 18143  1  0
 19144  1  0
 20145  1  0
 21146  1  0
 22147  1  0
 22148  1  0
 23149  1  0
 28150  1  0
 29151  1  0
 31152  1  0
 31153  1  0
 31154  1  0
 32155  1  0
 33156  1  0
 35157  1  0
 36158  1  0
 38159  1  0
 38160  1  0
 38161  1  0
 39162  1  0
 40163  1  0
 47164  1  0
 48165  1  0
 50166  1  0
 50167  1  0
 50168  1  0
 51169  1  0
 52170  1  0
 54171  1  0
 55172  1  0
 57173  1  0
 57174  1  0
 57175  1  0
 58176  1  0
 59177  1  0
 66178  1  0
 67179  1  0
 70180  1  0
 70181  1  0
 70182  1  0
 71183  1  0
 72184  1  0
 74185  1  0
 75186  1  0
 78187  1  0
 78188  1  0
 78189  1  0
 79190  1  0
 80191  1  0
 87192  1  0
 88193  1  0
 91194  1  0
 91195  1  0
 91196  1  0
 92197  1  0
 93198  1  0
 95199  1  0
 96200  1  0
 99201  1  0
 99202  1  0
 99203  1  0
100204  1  0
101205  1  0
105206  1  0
109207  1  0
113208  1  0
115209  1  0
117210  1  0
119211  1  0
125212  1  0
126213  1  0
128214  1  0
129215  1  0
130216  1  0
131217  1  0
M  END

