
     RDKit          3D

202220  0  0  0  0  0  0  0  0999 V2000
   -0.9497   -5.8003   -3.2510 C   0  0  0  0  0  0  0  0  0  0  0  0
   -0.1327   -5.6492   -4.3042 C   0  0  0  0  0  0  0  0  0  0  0  0
    0.9466   -4.6692   -4.3995 C   0  0  0  0  0  0  0  0  0  0  0  0
    1.6542   -4.2497   -3.4435 O   0  0  0  0  0  0  0  0  0  0  0  0
    1.1084   -4.2998   -5.7915 C   0  0  0  0  0  0  0  0  0  0  0  0
    1.8809   -3.2342   -6.3119 C   0  0  0  0  0  0  0  0  0  0  0  0
    1.7085   -3.0261   -7.6673 C   0  0  0  0  0  0  0  0  0  0  0  0
    0.8390   -3.8276   -8.4744 C   0  0  0  0  0  0  0  0  0  0  0  0
    0.0840   -4.8723   -7.9727 C   0  0  0  0  0  0  0  0  0  0  0  0
    0.2493   -5.1075   -6.5821 C   0  0  0  0  0  0  0  0  0  0  0  0
   -0.4476   -6.0777   -5.6957 C   0  0  0  0  0  0  0  0  0  0  0  0
   -1.0638   -7.2282   -6.0643 C   0  0  0  0  0  0  0  0  0  0  0  0
   -1.4184   -8.2362   -5.0994 C   0  0  0  0  0  0  0  0  0  0  0  0
   -1.6898   -9.0486   -4.3231 N   0  0  0  0  0  0  0  0  0  0  0  0
   -1.2740   -7.5873   -7.4433 C   0  0  0  0  0  0  0  0  0  0  0  0
   -1.4527   -7.8868   -8.5464 N   0  0  0  0  0  0  0  0  0  0  0  0
    1.1526   -2.9906   -9.6777 C   0  0  0  0  0  0  0  0  0  0  0  0
    0.0481   -1.9939  -10.1410 C   0  0  0  0  0  0  0  0  0  0  0  0
    0.7265   -1.0160  -11.0716 C   0  0  0  0  0  0  0  0  0  0  0  0
    1.5259   -0.2611  -10.3069 C   0  0  0  0  0  0  0  0  0  0  0  0
    1.3602   -0.7601   -8.8912 C   0  0  0  0  0  0  0  0  0  0  0  0
   -0.1254   -1.0884   -8.9339 C   0  0  0  0  0  0  0  0  0  0  0  0
    2.0375   -2.1658   -8.8491 C   0  0  0  0  0  0  0  0  0  0  0  0
   -0.9030   -4.9454   -2.0587 C   0  0  0  0  0  0  0  0  0  0  0  0
   -1.6472   -3.7703   -1.8932 C   0  0  0  0  0  0  0  0  0  0  0  0
   -1.9462   -2.8732   -2.9728 N   0  0  0  0  0  0  0  0  0  0  0  0
   -0.9295   -1.9723   -3.4917 C   0  0  0  0  0  0  0  0  0  0  0  0
   -1.1077   -1.3337   -4.7355 C   0  0  0  0  0  0  0  0  0  0  0  0
   -0.1193   -0.4860   -5.2492 C   0  0  0  0  0  0  0  0  0  0  0  0
    1.0592   -0.2471   -4.5313 C   0  0  0  0  0  0  0  0  0  0  0  0
    2.1547    0.5902   -5.1191 C   0  0  0  0  0  0  0  0  0  0  0  0
    1.2484   -0.8874   -3.3008 C   0  0  0  0  0  0  0  0  0  0  0  0
    0.2655   -1.7273   -2.7785 C   0  0  0  0  0  0  0  0  0  0  0  0
   -3.3105   -2.7345   -3.3764 C   0  0  0  0  0  0  0  0  0  0  0  0
   -3.9374   -3.7506   -4.1102 C   0  0  0  0  0  0  0  0  0  0  0  0
   -5.2429   -3.5757   -4.5748 C   0  0  0  0  0  0  0  0  0  0  0  0
   -5.9397   -2.3878   -4.2994 C   0  0  0  0  0  0  0  0  0  0  0  0
   -7.3147   -2.1753   -4.8535 C   0  0  0  0  0  0  0  0  0  0  0  0
   -5.3079   -1.3712   -3.5670 C   0  0  0  0  0  0  0  0  0  0  0  0
   -4.0025   -1.5453   -3.1035 C   0  0  0  0  0  0  0  0  0  0  0  0
   -1.6303   -3.3558   -0.5672 C   0  0  0  0  0  0  0  0  0  0  0  0
   -2.0824   -1.9332    0.1764 S   0  0  0  0  0  0  0  0  0  0  0  0
   -1.2067   -2.2024    1.6169 C   0  0  0  0  0  0  0  0  0  0  0  0
   -0.5150   -3.4443    1.4857 C   0  0  0  0  0  0  0  0  0  0  0  0
    0.6176   -3.8705    2.2792 N   0  0  0  0  0  0  0  0  0  0  0  0
    0.7738   -5.2806    2.5890 C   0  0  0  0  0  0  0  0  0  0  0  0
   -0.3581   -6.0971    2.7695 C   0  0  0  0  0  0  0  0  0  0  0  0
   -0.2213   -7.4545    3.0596 C   0  0  0  0  0  0  0  0  0  0  0  0
    1.0500   -8.0391    3.1480 C   0  0  0  0  0  0  0  0  0  0  0  0
    1.1929   -9.4899    3.4998 C   0  0  0  0  0  0  0  0  0  0  0  0
    2.1840   -7.2377    2.9526 C   0  0  0  0  0  0  0  0  0  0  0  0
    2.0492   -5.8783    2.6594 C   0  0  0  0  0  0  0  0  0  0  0  0
    1.6798   -2.9275    2.5578 C   0  0  0  0  0  0  0  0  0  0  0  0
    2.0349   -1.9401    1.6198 C   0  0  0  0  0  0  0  0  0  0  0  0
    2.9840   -0.9691    1.9400 C   0  0  0  0  0  0  0  0  0  0  0  0
    3.6046   -0.9766    3.1981 C   0  0  0  0  0  0  0  0  0  0  0  0
    4.6238    0.0602    3.5515 C   0  0  0  0  0  0  0  0  0  0  0  0
    3.2948   -1.9930    4.1134 C   0  0  0  0  0  0  0  0  0  0  0  0
    2.3480   -2.9624    3.7923 C   0  0  0  0  0  0  0  0  0  0  0  0
   -0.8326   -4.0684    0.2674 C   0  0  0  0  0  0  0  0  0  0  0  0
   -0.1659   -5.3622   -0.5820 S   0  0  0  0  0  0  0  0  0  0  0  0
   -0.9694   -1.0709    2.5575 C   0  0  0  0  0  0  0  0  0  0  0  0
   -0.4413   -1.0451    3.8769 C   0  0  0  0  0  0  0  0  0  0  0  0
   -0.6055   -2.0687    4.9001 N   0  0  0  0  0  0  0  0  0  0  0  0
   -1.5132   -3.1799    4.7522 C   0  0  0  0  0  0  0  0  0  0  0  0
   -2.8024   -2.9950    4.2204 C   0  0  0  0  0  0  0  0  0  0  0  0
   -3.7351   -4.0328    4.2369 C   0  0  0  0  0  0  0  0  0  0  0  0
   -3.4180   -5.2533    4.8402 C   0  0  0  0  0  0  0  0  0  0  0  0
   -4.6417   -6.5635    4.9112 S   0  0  0  0  0  0  0  0  0  0  0  0
   -5.3847   -5.9442    6.4540 C   0  0  0  0  0  0  0  0  0  0  0  0
   -2.1512   -5.4403    5.4040 C   0  0  0  0  0  0  0  0  0  0  0  0
   -1.2004   -4.4143    5.3554 C   0  0  0  0  0  0  0  0  0  0  0  0
   -0.3625   -1.6938    6.2722 C   0  0  0  0  0  0  0  0  0  0  0  0
   -1.2811   -0.8606    6.9375 C   0  0  0  0  0  0  0  0  0  0  0  0
   -1.0178   -0.4139    8.2358 C   0  0  0  0  0  0  0  0  0  0  0  0
    0.1682   -0.7919    8.8787 C   0  0  0  0  0  0  0  0  0  0  0  0
    0.5332   -0.1628   10.5230 S   0  0  0  0  0  0  0  0  0  0  0  0
    1.4518    1.2814    9.8993 C   0  0  0  0  0  0  0  0  0  0  0  0
    1.0619   -1.6566    8.2388 C   0  0  0  0  0  0  0  0  0  0  0  0
    0.7994   -2.1066    6.9403 C   0  0  0  0  0  0  0  0  0  0  0  0
    0.0315    0.2487    4.1717 C   0  0  0  0  0  0  0  0  0  0  0  0
    1.2425    0.8179    5.1834 S   0  0  0  0  0  0  0  0  0  0  0  0
    1.3338    2.3718    4.4808 C   0  0  0  0  0  0  0  0  0  0  0  0
    0.3328    2.4769    3.4902 C   0  0  0  0  0  0  0  0  0  0  0  0
   -0.0858    3.7095    2.8471 N   0  0  0  0  0  0  0  0  0  0  0  0
    0.1510    5.0019    3.4521 C   0  0  0  0  0  0  0  0  0  0  0  0
    0.3716    6.1257    2.6344 C   0  0  0  0  0  0  0  0  0  0  0  0
    0.5376    7.3903    3.2010 C   0  0  0  0  0  0  0  0  0  0  0  0
    0.5128    7.5484    4.5911 C   0  0  0  0  0  0  0  0  0  0  0  0
    0.7425    9.1790    5.3069 S   0  0  0  0  0  0  0  0  0  0  0  0
    2.5553    9.0147    5.3891 C   0  0  0  0  0  0  0  0  0  0  0  0
    0.2836    6.4436    5.4142 C   0  0  0  0  0  0  0  0  0  0  0  0
    0.0714    5.1841    4.8500 C   0  0  0  0  0  0  0  0  0  0  0  0
   -1.1282    3.6646    1.8602 C   0  0  0  0  0  0  0  0  0  0  0  0
   -2.4752    3.6783    2.2659 C   0  0  0  0  0  0  0  0  0  0  0  0
   -3.4929    3.5651    1.3171 C   0  0  0  0  0  0  0  0  0  0  0  0
   -3.1803    3.4580   -0.0420 C   0  0  0  0  0  0  0  0  0  0  0  0
   -4.4976    3.2437   -1.2442 S   0  0  0  0  0  0  0  0  0  0  0  0
   -4.7206    5.0322   -1.5103 C   0  0  0  0  0  0  0  0  0  0  0  0
   -1.8389    3.4692   -0.4506 C   0  0  0  0  0  0  0  0  0  0  0  0
   -0.8151    3.5775    0.4970 C   0  0  0  0  0  0  0  0  0  0  0  0
   -0.2852    1.2339    3.2935 C   0  0  0  0  0  0  0  0  0  0  0  0
   -1.0170    0.5307    1.9738 S   0  0  0  0  0  0  0  0  0  0  0  0
    2.5979    3.1360    4.4864 C   0  0  0  0  0  0  0  0  0  0  0  0
    3.6557    2.9073    5.3631 C   0  0  0  0  0  0  0  0  0  0  0  0
    4.8997    3.3295    4.8724 C   0  0  0  0  0  0  0  0  0  0  0  0
    4.8293    3.9387    3.6265 C   0  0  0  0  0  0  0  0  0  0  0  0
    3.2337    3.8717    3.1150 S   0  0  0  0  0  0  0  0  0  0  0  0
    5.9618    4.0991    2.6992 C   0  0  0  0  0  0  0  0  0  0  0  0
    6.0254    5.0653    1.7556 C   0  0  0  0  0  0  0  0  0  0  0  0
    5.3766    6.3917    1.9763 C   0  0  0  0  0  0  0  0  0  0  0  0
    4.8172    6.6591    3.0762 O   0  0  0  0  0  0  0  0  0  0  0  0
    5.4099    7.3835    0.9332 N   0  0  0  0  0  0  0  0  0  0  0  0
    5.0782    8.7828    1.2386 C   0  0  0  0  0  0  0  0  0  0  0  0
    3.5761    9.0153    1.1416 C   0  0  0  0  0  0  0  0  0  0  0  0
    5.7605    6.9908   -0.4100 C   0  0  0  0  0  0  0  0  0  0  0  0
    5.7182    7.8401   -1.3427 O   0  0  0  0  0  0  0  0  0  0  0  0
    6.1182    5.5520   -0.7059 C   0  0  0  0  0  0  0  0  0  0  0  0
    6.9021    5.4763   -1.9559 C   0  0  0  0  0  0  0  0  0  0  0  0
    7.5004    5.3974   -2.9466 N   0  0  0  0  0  0  0  0  0  0  0  0
    6.8766    4.9116    0.4901 C   0  0  0  0  0  0  0  0  0  0  0  0
    7.2342    3.4404    0.1655 C   0  0  0  0  0  0  0  0  0  0  0  0
   -1.8424   -6.3970   -3.3484 H   0  0  0  0  0  0  0  0  0  0  0  0
    2.5050   -2.5999   -5.6972 H   0  0  0  0  0  0  0  0  0  0  0  0
   -0.6142   -5.3960   -8.6056 H   0  0  0  0  0  0  0  0  0  0  0  0
    1.6600   -3.5546  -10.4920 H   0  0  0  0  0  0  0  0  0  0  0  0
   -0.8807   -2.4552  -10.5418 H   0  0  0  0  0  0  0  0  0  0  0  0
    0.5350   -0.8643  -12.1317 H   0  0  0  0  0  0  0  0  0  0  0  0
    2.0911    0.6044  -10.6384 H   0  0  0  0  0  0  0  0  0  0  0  0
    1.6770   -0.0494   -8.1004 H   0  0  0  0  0  0  0  0  0  0  0  0
   -0.5137   -1.6118   -8.0327 H   0  0  0  0  0  0  0  0  0  0  0  0
   -0.7708   -0.1985   -9.1380 H   0  0  0  0  0  0  0  0  0  0  0  0
    3.1089   -2.1989   -9.1477 H   0  0  0  0  0  0  0  0  0  0  0  0
   -1.9984   -1.5054   -5.3290 H   0  0  0  0  0  0  0  0  0  0  0  0
   -0.2773   -0.0133   -6.2118 H   0  0  0  0  0  0  0  0  0  0  0  0
    2.8659   -0.0643   -5.6674 H   0  0  0  0  0  0  0  0  0  0  0  0
    1.7406    1.3462   -5.8175 H   0  0  0  0  0  0  0  0  0  0  0  0
    2.7024    1.1235   -4.3152 H   0  0  0  0  0  0  0  0  0  0  0  0
    2.1648   -0.7343   -2.7447 H   0  0  0  0  0  0  0  0  0  0  0  0
    0.4662   -2.2078   -1.8306 H   0  0  0  0  0  0  0  0  0  0  0  0
   -3.4009   -4.6601   -4.3525 H   0  0  0  0  0  0  0  0  0  0  0  0
   -5.7060   -4.3582   -5.1641 H   0  0  0  0  0  0  0  0  0  0  0  0
   -7.8580   -3.1412   -4.9383 H   0  0  0  0  0  0  0  0  0  0  0  0
   -7.9041   -1.5042   -4.1909 H   0  0  0  0  0  0  0  0  0  0  0  0
   -7.2378   -1.7139   -5.8607 H   0  0  0  0  0  0  0  0  0  0  0  0
   -5.8208   -0.4339   -3.3695 H   0  0  0  0  0  0  0  0  0  0  0  0
   -3.5148   -0.7458   -2.5565 H   0  0  0  0  0  0  0  0  0  0  0  0
   -1.3571   -5.6808    2.6881 H   0  0  0  0  0  0  0  0  0  0  0  0
   -1.1107   -8.0540    3.2179 H   0  0  0  0  0  0  0  0  0  0  0  0
    2.0914   -9.9265    3.0116 H   0  0  0  0  0  0  0  0  0  0  0  0
    0.3067  -10.0687    3.1626 H   0  0  0  0  0  0  0  0  0  0  0  0
    1.2916   -9.5957    4.6001 H   0  0  0  0  0  0  0  0  0  0  0  0
    3.1751   -7.6701    3.0234 H   0  0  0  0  0  0  0  0  0  0  0  0
    2.9447   -5.2965    2.4801 H   0  0  0  0  0  0  0  0  0  0  0  0
    1.5665   -1.9159    0.6423 H   0  0  0  0  0  0  0  0  0  0  0  0
    3.2338   -0.2073    1.2077 H   0  0  0  0  0  0  0  0  0  0  0  0
    4.5764    0.2967    4.6350 H   0  0  0  0  0  0  0  0  0  0  0  0
    5.6391   -0.3201    3.3128 H   0  0  0  0  0  0  0  0  0  0  0  0
    4.4451    0.9982    2.9822 H   0  0  0  0  0  0  0  0  0  0  0  0
    3.7759   -2.0224    5.0834 H   0  0  0  0  0  0  0  0  0  0  0  0
    2.1140   -3.7385    4.5090 H   0  0  0  0  0  0  0  0  0  0  0  0
   -3.1093   -2.0305    3.8354 H   0  0  0  0  0  0  0  0  0  0  0  0
   -4.7213   -3.8771    3.8176 H   0  0  0  0  0  0  0  0  0  0  0  0
   -6.2567   -6.5763    6.7219 H   0  0  0  0  0  0  0  0  0  0  0  0
   -4.6394   -5.9851    7.2738 H   0  0  0  0  0  0  0  0  0  0  0  0
   -5.7318   -4.8951    6.3205 H   0  0  0  0  0  0  0  0  0  0  0  0
   -1.9008   -6.3805    5.8811 H   0  0  0  0  0  0  0  0  0  0  0  0
   -0.2242   -4.5777    5.8018 H   0  0  0  0  0  0  0  0  0  0  0  0
   -2.1820   -0.5367    6.4290 H   0  0  0  0  0  0  0  0  0  0  0  0
   -1.7238    0.2361    8.7331 H   0  0  0  0  0  0  0  0  0  0  0  0
    0.7860    1.9349    9.2977 H   0  0  0  0  0  0  0  0  0  0  0  0
    2.3043    0.9480    9.2732 H   0  0  0  0  0  0  0  0  0  0  0  0
    1.8488    1.8658   10.7551 H   0  0  0  0  0  0  0  0  0  0  0  0
    1.9764   -1.9583    8.7319 H   0  0  0  0  0  0  0  0  0  0  0  0
    1.5136   -2.7547    6.4548 H   0  0  0  0  0  0  0  0  0  0  0  0
    0.4008    6.0241    1.5558 H   0  0  0  0  0  0  0  0  0  0  0  0
    0.6971    8.2503    2.5594 H   0  0  0  0  0  0  0  0  0  0  0  0
    2.9714    8.8052    4.3799 H   0  0  0  0  0  0  0  0  0  0  0  0
    2.9912    9.9650    5.7624 H   0  0  0  0  0  0  0  0  0  0  0  0
    2.8336    8.1938    6.0849 H   0  0  0  0  0  0  0  0  0  0  0  0
    0.2498    6.5618    6.4914 H   0  0  0  0  0  0  0  0  0  0  0  0
   -0.1723    4.3561    5.4986 H   0  0  0  0  0  0  0  0  0  0  0  0
   -2.7250    3.7497    3.3154 H   0  0  0  0  0  0  0  0  0  0  0  0
   -4.5282    3.5492    1.6400 H   0  0  0  0  0  0  0  0  0  0  0  0
   -5.6364    5.1973   -2.1155 H   0  0  0  0  0  0  0  0  0  0  0  0
   -3.8453    5.4388   -2.0605 H   0  0  0  0  0  0  0  0  0  0  0  0
   -4.8320    5.5655   -0.5420 H   0  0  0  0  0  0  0  0  0  0  0  0
   -1.5938    3.3906   -1.5021 H   0  0  0  0  0  0  0  0  0  0  0  0
    0.2198    3.5750    0.1756 H   0  0  0  0  0  0  0  0  0  0  0  0
    3.5599    2.3375    6.2770 H   0  0  0  0  0  0  0  0  0  0  0  0
    5.8353    3.1184    5.3740 H   0  0  0  0  0  0  0  0  0  0  0  0
    6.6331    3.2544    2.6719 H   0  0  0  0  0  0  0  0  0  0  0  0
    5.6095    9.4731    0.5468 H   0  0  0  0  0  0  0  0  0  0  0  0
    5.4259    9.0431    2.2658 H   0  0  0  0  0  0  0  0  0  0  0  0
    3.0462    8.3634    1.8693 H   0  0  0  0  0  0  0  0  0  0  0  0
    3.3502   10.0731    1.3955 H   0  0  0  0  0  0  0  0  0  0  0  0
    3.2179    8.7985    0.1160 H   0  0  0  0  0  0  0  0  0  0  0  0
    5.1659    4.9959   -0.8731 H   0  0  0  0  0  0  0  0  0  0  0  0
    7.8313    5.4615    0.6436 H   0  0  0  0  0  0  0  0  0  0  0  0
    7.7385    3.3437   -0.8181 H   0  0  0  0  0  0  0  0  0  0  0  0
    7.9583    3.0441    0.9128 H   0  0  0  0  0  0  0  0  0  0  0  0
    6.3155    2.8092    0.1521 H   0  0  0  0  0  0  0  0  0  0  0  0
  1  2  2  3
  2  3  1  0
  3  4  2  0
  3  5  1  0
  5  6  2  0
  6  7  1  0
  7  8  2  0
  8  9  1  0
  9 10  2  0
 10 11  1  0
 11 12  2  3
 12 13  1  0
 13 14  3  0
 12 15  1  0
 15 16  3  0
  8 17  1  0
 17 18  1  0
 18 19  1  0
 19 20  2  0
 20 21  1  0
 21 22  1  0
 21 23  1  0
  1 24  1  0
 24 25  2  0
 25 26  1  0
 26 27  1  0
 27 28  2  0
 28 29  1  0
 29 30  2  0
 30 31  1  0
 30 32  1  0
 32 33  2  0
 26 34  1  0
 34 35  2  0
 35 36  1  0
 36 37  2  0
 37 38  1  0
 37 39  1  0
 39 40  2  0
 25 41  1  0
 41 42  1  0
 42 43  1  0
 43 44  2  0
 44 45  1  0
 45 46  1  0
 46 47  2  0
 47 48  1  0
 48 49  2  0
 49 50  1  0
 49 51  1  0
 51 52  2  0
 45 53  1  0
 53 54  2  0
 54 55  1  0
 55 56  2  0
 56 57  1  0
 56 58  1  0
 58 59  2  0
 44 60  1  0
 60 61  1  0
 43 62  1  0
 62 63  2  0
 63 64  1  0
 64 65  1  0
 65 66  2  0
 66 67  1  0
 67 68  2  0
 68 69  1  0
 69 70  1  0
 68 71  1  0
 71 72  2  0
 64 73  1  0
 73 74  2  0
 74 75  1  0
 75 76  2  0
 76 77  1  0
 77 78  1  0
 76 79  1  0
 79 80  2  0
 63 81  1  0
 81 82  1  0
 82 83  1  0
 83 84  2  0
 84 85  1  0
 85 86  1  0
 86 87  2  0
 87 88  1  0
 88 89  2  0
 89 90  1  0
 90 91  1  0
 89 92  1  0
 92 93  2  0
 85 94  1  0
 94 95  2  0
 95 96  1  0
 96 97  2  0
 97 98  1  0
 98 99  1  0
 97100  1  0
100101  2  0
 84102  1  0
102103  1  0
 83104  1  0
104105  2  0
105106  1  0
106107  2  0
107108  1  0
107109  1  0
109110  2  3
110111  1  0
111112  2  0
111113  1  0
113114  1  0
114115  1  0
113116  1  0
116117  2  0
116118  1  0
118119  1  0
119120  3  0
118121  1  0
121122  1  0
 11  2  1  0
 23 17  1  0
 61 24  1  0
103 62  1  0
108104  1  0
121110  1  0
 10  5  1  0
 22 18  1  0
 33 27  1  0
 40 34  1  0
 60 41  2  0
 72 65  1  0
 80 73  1  0
102 81  2  0
 23  7  1  0
 52 46  1  0
 59 53  1  0
 93 86  1  0
101 94  1  0
  1123  1  0
  6124  1  0
  9125  1  0
 17126  1  0
 18127  1  0
 19128  1  0
 20129  1  0
 21130  1  0
 22131  1  0
 22132  1  0
 23133  1  0
 28134  1  0
 29135  1  0
 31136  1  0
 31137  1  0
 31138  1  0
 32139  1  0
 33140  1  0
 35141  1  0
 36142  1  0
 38143  1  0
 38144  1  0
 38145  1  0
 39146  1  0
 40147  1  0
 47148  1  0
 48149  1  0
 50150  1  0
 50151  1  0
 50152  1  0
 51153  1  0
 52154  1  0
 54155  1  0
 55156  1  0
 57157  1  0
 57158  1  0
 57159  1  0
 58160  1  0
 59161  1  0
 66162  1  0
 67163  1  0
 70164  1  0
 70165  1  0
 70166  1  0
 71167  1  0
 72168  1  0
 74169  1  0
 75170  1  0
 78171  1  0
 78172  1  0
 78173  1  0
 79174  1  0
 80175  1  0
 87176  1  0
 88177  1  0
 91178  1  0
 91179  1  0
 91180  1  0
 92181  1  0
 93182  1  0
 95183  1  0
 96184  1  0
 99185  1  0
 99186  1  0
 99187  1  0
100188  1  0
101189  1  0
105190  1  0
106191  1  0
109192  1  0
114193  1  0
114194  1  0
115195  1  0
115196  1  0
115197  1  0
118198  1  0
121199  1  0
122200  1  0
122201  1  0
122202  1  0
M  END

