
     RDKit          3D

211233  0  0  0  0  0  0  0  0999 V2000
   -5.2983   -4.6117    2.7068 C   0  0  0  0  0  0  0  0  0  0  0  0
   -5.4513   -5.7949    2.0774 C   0  0  0  0  0  0  0  0  0  0  0  0
   -4.6360   -6.2677    0.9520 C   0  0  0  0  0  0  0  0  0  0  0  0
   -3.8287   -5.5793    0.2677 O   0  0  0  0  0  0  0  0  0  0  0  0
   -4.9524   -7.6542    0.6919 C   0  0  0  0  0  0  0  0  0  0  0  0
   -4.3175   -8.5208   -0.2325 C   0  0  0  0  0  0  0  0  0  0  0  0
   -4.7565   -9.8315   -0.1640 C   0  0  0  0  0  0  0  0  0  0  0  0
   -5.7534  -10.2737    0.7641 C   0  0  0  0  0  0  0  0  0  0  0  0
   -6.3878   -9.4274    1.6575 C   0  0  0  0  0  0  0  0  0  0  0  0
   -5.9858   -8.0645    1.5760 C   0  0  0  0  0  0  0  0  0  0  0  0
   -6.4204   -6.8980    2.4029 C   0  0  0  0  0  0  0  0  0  0  0  0
   -7.5355   -6.8384    3.1795 C   0  0  0  0  0  0  0  0  0  0  0  0
   -8.4937   -7.9110    3.2404 C   0  0  0  0  0  0  0  0  0  0  0  0
   -9.2766   -8.7600    3.3019 N   0  0  0  0  0  0  0  0  0  0  0  0
   -7.9073   -5.6885    3.9582 C   0  0  0  0  0  0  0  0  0  0  0  0
   -8.2263   -4.7812    4.6074 N   0  0  0  0  0  0  0  0  0  0  0  0
   -5.6012  -11.6830    0.2850 C   0  0  0  0  0  0  0  0  0  0  0  0
   -4.8026  -12.6526    1.2090 C   0  0  0  0  0  0  0  0  0  0  0  0
   -4.4747  -13.8559    0.3609 C   0  0  0  0  0  0  0  0  0  0  0  0
   -3.5653  -13.4467   -0.5330 C   0  0  0  0  0  0  0  0  0  0  0  0
   -3.3089  -11.9864   -0.2532 C   0  0  0  0  0  0  0  0  0  0  0  0
   -3.4220  -12.0231    1.2592 C   0  0  0  0  0  0  0  0  0  0  0  0
   -4.5994  -11.2289   -0.6829 C   0  0  0  0  0  0  0  0  0  0  0  0
   -4.1478   -3.7082    2.5459 C   0  0  0  0  0  0  0  0  0  0  0  0
   -4.2322   -2.3063    2.5279 C   0  0  0  0  0  0  0  0  0  0  0  0
   -5.3367   -1.6063    1.9272 N   0  0  0  0  0  0  0  0  0  0  0  0
   -6.6463   -1.7036    2.5084 C   0  0  0  0  0  0  0  0  0  0  0  0
   -7.7357   -2.1389    1.7324 C   0  0  0  0  0  0  0  0  0  0  0  0
   -9.0178   -2.1884    2.2794 C   0  0  0  0  0  0  0  0  0  0  0  0
   -9.2387   -1.7799    3.6006 C   0  0  0  0  0  0  0  0  0  0  0  0
  -10.6263   -1.8263    4.1617 C   0  0  0  0  0  0  0  0  0  0  0  0
   -8.1530   -1.3550    4.3846 C   0  0  0  0  0  0  0  0  0  0  0  0
   -6.8607   -1.3254    3.8452 C   0  0  0  0  0  0  0  0  0  0  0  0
   -5.1635   -0.9789    0.6310 C   0  0  0  0  0  0  0  0  0  0  0  0
   -5.8837    0.1844    0.3032 C   0  0  0  0  0  0  0  0  0  0  0  0
   -5.7116    0.8059   -0.9395 C   0  0  0  0  0  0  0  0  0  0  0  0
   -4.8122    0.2750   -1.8758 C   0  0  0  0  0  0  0  0  0  0  0  0
   -4.5833    0.9656   -3.1873 C   0  0  0  0  0  0  0  0  0  0  0  0
   -4.0754   -0.8731   -1.5490 C   0  0  0  0  0  0  0  0  0  0  0  0
   -4.2587   -1.5014   -0.3162 C   0  0  0  0  0  0  0  0  0  0  0  0
   -2.9610   -1.7378    2.6160 C   0  0  0  0  0  0  0  0  0  0  0  0
   -2.4144   -0.1760    2.3833 S   0  0  0  0  0  0  0  0  0  0  0  0
   -0.7877   -0.6286    2.2326 C   0  0  0  0  0  0  0  0  0  0  0  0
   -0.6656   -2.0369    2.3168 C   0  0  0  0  0  0  0  0  0  0  0  0
    0.3728   -2.7807    1.6369 N   0  0  0  0  0  0  0  0  0  0  0  0
    1.1372   -3.8258    2.2856 C   0  0  0  0  0  0  0  0  0  0  0  0
    0.7710   -4.3332    3.5472 C   0  0  0  0  0  0  0  0  0  0  0  0
    1.5256   -5.3281    4.1685 C   0  0  0  0  0  0  0  0  0  0  0  0
    2.6868   -5.8207    3.5552 C   0  0  0  0  0  0  0  0  0  0  0  0
    3.5461   -6.8066    4.2840 C   0  0  0  0  0  0  0  0  0  0  0  0
    3.0598   -5.3311    2.2981 C   0  0  0  0  0  0  0  0  0  0  0  0
    2.2933   -4.3450    1.6675 C   0  0  0  0  0  0  0  0  0  0  0  0
    0.3376   -2.7159    0.2015 C   0  0  0  0  0  0  0  0  0  0  0  0
   -0.5561   -3.5330   -0.5121 C   0  0  0  0  0  0  0  0  0  0  0  0
   -0.7659   -3.3191   -1.8756 C   0  0  0  0  0  0  0  0  0  0  0  0
   -0.0763   -2.2928   -2.5410 C   0  0  0  0  0  0  0  0  0  0  0  0
   -0.3468   -1.9969   -3.9842 C   0  0  0  0  0  0  0  0  0  0  0  0
    0.8939   -1.5504   -1.8457 C   0  0  0  0  0  0  0  0  0  0  0  0
    1.1180   -1.7831   -0.4904 C   0  0  0  0  0  0  0  0  0  0  0  0
   -1.9160   -2.6051    2.5908 C   0  0  0  0  0  0  0  0  0  0  0  0
   -2.5090   -4.1721    2.5467 S   0  0  0  0  0  0  0  0  0  0  0  0
    0.2228    0.3253    1.7718 C   0  0  0  0  0  0  0  0  0  0  0  0
    1.2671    0.8717    2.5372 C   0  0  0  0  0  0  0  0  0  0  0  0
    1.5008    0.5750    3.9220 N   0  0  0  0  0  0  0  0  0  0  0  0
    0.8363    1.3390    4.9657 C   0  0  0  0  0  0  0  0  0  0  0  0
   -0.0014    2.4331    4.6447 C   0  0  0  0  0  0  0  0  0  0  0  0
   -0.5840    3.2101    5.6513 C   0  0  0  0  0  0  0  0  0  0  0  0
   -0.3738    2.8961    6.9955 C   0  0  0  0  0  0  0  0  0  0  0  0
   -1.0923    3.9191    8.2863 S   0  0  0  0  0  0  0  0  0  0  0  0
   -2.6595    2.9930    8.3369 C   0  0  0  0  0  0  0  0  0  0  0  0
    0.4216    1.7970    7.3326 C   0  0  0  0  0  0  0  0  0  0  0  0
    1.0232    1.0270    6.3292 C   0  0  0  0  0  0  0  0  0  0  0  0
    2.5741   -0.3322    4.2400 C   0  0  0  0  0  0  0  0  0  0  0  0
    3.9068    0.0891    4.1392 C   0  0  0  0  0  0  0  0  0  0  0  0
    4.9483   -0.7778    4.4729 C   0  0  0  0  0  0  0  0  0  0  0  0
    4.6671   -2.0794    4.8984 C   0  0  0  0  0  0  0  0  0  0  0  0
    6.0083   -3.1959    5.3105 S   0  0  0  0  0  0  0  0  0  0  0  0
    6.3438   -3.6342    3.5810 C   0  0  0  0  0  0  0  0  0  0  0  0
    3.3385   -2.4968    5.0225 C   0  0  0  0  0  0  0  0  0  0  0  0
    2.2929   -1.6234    4.7012 C   0  0  0  0  0  0  0  0  0  0  0  0
    1.8563    1.9514    1.8793 C   0  0  0  0  0  0  0  0  0  0  0  0
    3.0410    3.0672    2.2782 S   0  0  0  0  0  0  0  0  0  0  0  0
    2.8705    3.9551    0.8363 C   0  0  0  0  0  0  0  0  0  0  0  0
    1.8713    3.3697    0.0420 C   0  0  0  0  0  0  0  0  0  0  0  0
    1.5894    3.7215   -1.3272 N   0  0  0  0  0  0  0  0  0  0  0  0
    1.8988    2.7716   -2.3676 C   0  0  0  0  0  0  0  0  0  0  0  0
    3.1048    2.0497   -2.3352 C   0  0  0  0  0  0  0  0  0  0  0  0
    3.3922    1.1064   -3.3262 C   0  0  0  0  0  0  0  0  0  0  0  0
    2.4777    0.8723   -4.3592 C   0  0  0  0  0  0  0  0  0  0  0  0
    2.8012   -0.4034   -5.5805 S   0  0  0  0  0  0  0  0  0  0  0  0
    3.6753    0.7181   -6.7102 C   0  0  0  0  0  0  0  0  0  0  0  0
    1.2796    1.5949   -4.4052 C   0  0  0  0  0  0  0  0  0  0  0  0
    0.9905    2.5405   -3.4155 C   0  0  0  0  0  0  0  0  0  0  0  0
    0.9741    4.9889   -1.6436 C   0  0  0  0  0  0  0  0  0  0  0  0
    1.3706    5.7066   -2.7860 C   0  0  0  0  0  0  0  0  0  0  0  0
    0.8501    6.9791   -3.0405 C   0  0  0  0  0  0  0  0  0  0  0  0
   -0.0723    7.5502   -2.1572 C   0  0  0  0  0  0  0  0  0  0  0  0
   -0.6517    9.2246   -2.4278 S   0  0  0  0  0  0  0  0  0  0  0  0
   -2.1207    8.7047   -3.3639 C   0  0  0  0  0  0  0  0  0  0  0  0
   -0.4963    6.8301   -1.0324 C   0  0  0  0  0  0  0  0  0  0  0  0
    0.0170    5.5555   -0.7798 C   0  0  0  0  0  0  0  0  0  0  0  0
    1.3265    2.2569    0.6701 C   0  0  0  0  0  0  0  0  0  0  0  0
    0.0454    1.2329    0.3310 S   0  0  0  0  0  0  0  0  0  0  0  0
    3.8328    4.9688    0.4008 C   0  0  0  0  0  0  0  0  0  0  0  0
    3.5277    6.1948   -0.1792 C   0  0  0  0  0  0  0  0  0  0  0  0
    4.6362    6.8330   -0.7252 C   0  0  0  0  0  0  0  0  0  0  0  0
    4.5023    8.3752   -1.5516 Cl  0  0  0  0  0  0  0  0  0  0  0  0
    5.8228    6.1137   -0.5609 C   0  0  0  0  0  0  0  0  0  0  0  0
    5.4903    4.7063    0.2926 S   0  0  0  0  0  0  0  0  0  0  0  0
    7.1135    6.4515   -1.1733 C   0  0  0  0  0  0  0  0  0  0  0  0
    7.2282    6.5787   -2.5073 C   0  0  0  0  0  0  0  0  0  0  0  0
    7.9592    7.6940   -3.1088 C   0  0  0  0  0  0  0  0  0  0  0  0
    8.9223    8.3137   -2.5845 O   0  0  0  0  0  0  0  0  0  0  0  0
    7.2844    8.0658   -4.3423 C   0  0  0  0  0  0  0  0  0  0  0  0
    7.5038    9.2205   -5.1259 C   0  0  0  0  0  0  0  0  0  0  0  0
    6.6048    9.3683   -6.1685 C   0  0  0  0  0  0  0  0  0  0  0  0
    5.5428    8.4402   -6.4257 C   0  0  0  0  0  0  0  0  0  0  0  0
    5.3051    7.3239   -5.6499 C   0  0  0  0  0  0  0  0  0  0  0  0
    6.2271    7.1465   -4.5833 C   0  0  0  0  0  0  0  0  0  0  0  0
    6.2457    6.1082   -3.5269 C   0  0  0  0  0  0  0  0  0  0  0  0
    5.7659    4.8418   -3.6293 C   0  0  0  0  0  0  0  0  0  0  0  0
    6.2512    3.7799   -2.7813 C   0  0  0  0  0  0  0  0  0  0  0  0
    6.6417    2.9129   -2.1235 N   0  0  0  0  0  0  0  0  0  0  0  0
    4.9200    4.4160   -4.7099 C   0  0  0  0  0  0  0  0  0  0  0  0
    4.2518    4.0504   -5.5859 N   0  0  0  0  0  0  0  0  0  0  0  0
    5.0749    9.2690   -7.5786 C   0  0  0  0  0  0  0  0  0  0  0  0
    3.7755   10.0942   -7.3482 C   0  0  0  0  0  0  0  0  0  0  0  0
    3.7306   11.1216   -8.4516 C   0  0  0  0  0  0  0  0  0  0  0  0
    4.7066   12.0007   -8.1907 C   0  0  0  0  0  0  0  0  0  0  0  0
    5.3770   11.5305   -6.9223 C   0  0  0  0  0  0  0  0  0  0  0  0
    4.1502   11.0059   -6.1922 C   0  0  0  0  0  0  0  0  0  0  0  0
    6.1470   10.2306   -7.3043 C   0  0  0  0  0  0  0  0  0  0  0  0
   -5.9747   -4.3045    3.4730 H   0  0  0  0  0  0  0  0  0  0  0  0
   -3.5259   -8.2016   -0.8959 H   0  0  0  0  0  0  0  0  0  0  0  0
   -7.0927   -9.8266    2.3713 H   0  0  0  0  0  0  0  0  0  0  0  0
   -6.5287  -12.0996   -0.1643 H   0  0  0  0  0  0  0  0  0  0  0  0
   -5.2698  -12.8766    2.1928 H   0  0  0  0  0  0  0  0  0  0  0  0
   -4.8213  -14.8746    0.4985 H   0  0  0  0  0  0  0  0  0  0  0  0
   -3.0499  -14.0771   -1.2491 H   0  0  0  0  0  0  0  0  0  0  0  0
   -2.3585  -11.5880   -0.6622 H   0  0  0  0  0  0  0  0  0  0  0  0
   -3.3945  -11.0246    1.7440 H   0  0  0  0  0  0  0  0  0  0  0  0
   -2.6554  -12.6713    1.7459 H   0  0  0  0  0  0  0  0  0  0  0  0
   -4.8995  -11.3506   -1.7463 H   0  0  0  0  0  0  0  0  0  0  0  0
   -7.5885   -2.4283    0.7014 H   0  0  0  0  0  0  0  0  0  0  0  0
   -9.8425   -2.5327    1.6696 H   0  0  0  0  0  0  0  0  0  0  0  0
  -10.9542   -2.8822    4.2495 H   0  0  0  0  0  0  0  0  0  0  0  0
  -11.3226   -1.2892    3.4834 H   0  0  0  0  0  0  0  0  0  0  0  0
  -10.6811   -1.3505    5.1677 H   0  0  0  0  0  0  0  0  0  0  0  0
   -8.3067   -1.0359    5.4096 H   0  0  0  0  0  0  0  0  0  0  0  0
   -6.0343   -0.9766    4.4514 H   0  0  0  0  0  0  0  0  0  0  0  0
   -6.5703    0.6225    1.0187 H   0  0  0  0  0  0  0  0  0  0  0  0
   -6.2661    1.7077   -1.1598 H   0  0  0  0  0  0  0  0  0  0  0  0
   -5.4883    1.5217   -3.5070 H   0  0  0  0  0  0  0  0  0  0  0  0
   -3.7348    1.6756   -3.0862 H   0  0  0  0  0  0  0  0  0  0  0  0
   -4.3381    0.2210   -3.9767 H   0  0  0  0  0  0  0  0  0  0  0  0
   -3.3611   -1.2844   -2.2521 H   0  0  0  0  0  0  0  0  0  0  0  0
   -3.6917   -2.3976   -0.1060 H   0  0  0  0  0  0  0  0  0  0  0  0
   -0.0870   -3.9459    4.0756 H   0  0  0  0  0  0  0  0  0  0  0  0
    1.2294   -5.6888    5.1486 H   0  0  0  0  0  0  0  0  0  0  0  0
    4.3758   -7.1779    3.6495 H   0  0  0  0  0  0  0  0  0  0  0  0
    2.9354   -7.6758    4.6054 H   0  0  0  0  0  0  0  0  0  0  0  0
    3.9857   -6.3194    5.1813 H   0  0  0  0  0  0  0  0  0  0  0  0
    3.9537   -5.6938    1.8140 H   0  0  0  0  0  0  0  0  0  0  0  0
    2.6169   -3.9800    0.7034 H   0  0  0  0  0  0  0  0  0  0  0  0
   -1.1193   -4.3034   -0.0035 H   0  0  0  0  0  0  0  0  0  0  0  0
   -1.4758   -3.9430   -2.4078 H   0  0  0  0  0  0  0  0  0  0  0  0
    0.4808   -2.3968   -4.6032 H   0  0  0  0  0  0  0  0  0  0  0  0
   -0.4202   -0.9001   -4.1372 H   0  0  0  0  0  0  0  0  0  0  0  0
   -1.3048   -2.4556   -4.3145 H   0  0  0  0  0  0  0  0  0  0  0  0
    1.4607   -0.7861   -2.3507 H   0  0  0  0  0  0  0  0  0  0  0  0
    1.8539   -1.1959    0.0422 H   0  0  0  0  0  0  0  0  0  0  0  0
   -0.1980    2.7064    3.6179 H   0  0  0  0  0  0  0  0  0  0  0  0
   -1.1970    4.0624    5.3810 H   0  0  0  0  0  0  0  0  0  0  0  0
   -3.1875    3.0911    7.3637 H   0  0  0  0  0  0  0  0  0  0  0  0
   -2.4695    1.9230    8.5565 H   0  0  0  0  0  0  0  0  0  0  0  0
   -3.2980    3.4178    9.1404 H   0  0  0  0  0  0  0  0  0  0  0  0
    0.5911    1.5506    8.3742 H   0  0  0  0  0  0  0  0  0  0  0  0
    1.6440    0.1938    6.6356 H   0  0  0  0  0  0  0  0  0  0  0  0
    4.1418    1.0909    3.8197 H   0  0  0  0  0  0  0  0  0  0  0  0
    5.9742   -0.4395    4.3879 H   0  0  0  0  0  0  0  0  0  0  0  0
    7.1209   -4.4263    3.5503 H   0  0  0  0  0  0  0  0  0  0  0  0
    5.4258   -4.0117    3.0923 H   0  0  0  0  0  0  0  0  0  0  0  0
    6.7218   -2.7473    3.0302 H   0  0  0  0  0  0  0  0  0  0  0  0
    3.1219   -3.4868    5.3917 H   0  0  0  0  0  0  0  0  0  0  0  0
    1.2672   -1.9410    4.8275 H   0  0  0  0  0  0  0  0  0  0  0  0
    3.8222    2.2196   -1.5421 H   0  0  0  0  0  0  0  0  0  0  0  0
    4.3215    0.5558   -3.2853 H   0  0  0  0  0  0  0  0  0  0  0  0
    4.6031    1.0919   -6.2304 H   0  0  0  0  0  0  0  0  0  0  0  0
    3.0272    1.5748   -6.9892 H   0  0  0  0  0  0  0  0  0  0  0  0
    3.9442    0.1622   -7.6328 H   0  0  0  0  0  0  0  0  0  0  0  0
    0.5611    1.4100   -5.1957 H   0  0  0  0  0  0  0  0  0  0  0  0
    0.0501    3.0752   -3.4553 H   0  0  0  0  0  0  0  0  0  0  0  0
    2.1196    5.3013   -3.4550 H   0  0  0  0  0  0  0  0  0  0  0  0
    1.1857    7.5293   -3.9117 H   0  0  0  0  0  0  0  0  0  0  0  0
   -2.8184    8.1565   -2.6979 H   0  0  0  0  0  0  0  0  0  0  0  0
   -1.8287    8.0615   -4.2196 H   0  0  0  0  0  0  0  0  0  0  0  0
   -2.6330    9.6070   -3.7558 H   0  0  0  0  0  0  0  0  0  0  0  0
   -1.2060    7.2679   -0.3438 H   0  0  0  0  0  0  0  0  0  0  0  0
   -0.3116    5.0153    0.0996 H   0  0  0  0  0  0  0  0  0  0  0  0
    2.5405    6.6243   -0.2070 H   0  0  0  0  0  0  0  0  0  0  0  0
    7.8557    6.9007   -0.5228 H   0  0  0  0  0  0  0  0  0  0  0  0
    8.2690    9.9514   -4.9066 H   0  0  0  0  0  0  0  0  0  0  0  0
    4.4462    6.6996   -5.8250 H   0  0  0  0  0  0  0  0  0  0  0  0
    5.1567    8.7527   -8.5605 H   0  0  0  0  0  0  0  0  0  0  0  0
    2.8483    9.4988   -7.2154 H   0  0  0  0  0  0  0  0  0  0  0  0
    2.9993   11.1967   -9.2497 H   0  0  0  0  0  0  0  0  0  0  0  0
    4.9021   12.9169   -8.7400 H   0  0  0  0  0  0  0  0  0  0  0  0
    5.9696   12.2973   -6.3810 H   0  0  0  0  0  0  0  0  0  0  0  0
    4.3725   10.4707   -5.2439 H   0  0  0  0  0  0  0  0  0  0  0  0
    3.3852   11.7935   -5.9833 H   0  0  0  0  0  0  0  0  0  0  0  0
    6.9048   10.3291   -8.1111 H   0  0  0  0  0  0  0  0  0  0  0  0
  1  2  2  3
  2  3  1  0
  3  4  2  0
  3  5  1  0
  5  6  2  0
  6  7  1  0
  7  8  2  0
  8  9  1  0
  9 10  2  0
 10 11  1  0
 11 12  2  3
 12 13  1  0
 13 14  3  0
 12 15  1  0
 15 16  3  0
  8 17  1  0
 17 18  1  0
 18 19  1  0
 19 20  2  0
 20 21  1  0
 21 22  1  0
 21 23  1  0
  1 24  1  0
 24 25  2  0
 25 26  1  0
 26 27  1  0
 27 28  2  0
 28 29  1  0
 29 30  2  0
 30 31  1  0
 30 32  1  0
 32 33  2  0
 26 34  1  0
 34 35  2  0
 35 36  1  0
 36 37  2  0
 37 38  1  0
 37 39  1  0
 39 40  2  0
 25 41  1  0
 41 42  1  0
 42 43  1  0
 43 44  2  0
 44 45  1  0
 45 46  1  0
 46 47  2  0
 47 48  1  0
 48 49  2  0
 49 50  1  0
 49 51  1  0
 51 52  2  0
 45 53  1  0
 53 54  2  0
 54 55  1  0
 55 56  2  0
 56 57  1  0
 56 58  1  0
 58 59  2  0
 44 60  1  0
 60 61  1  0
 43 62  1  0
 62 63  2  0
 63 64  1  0
 64 65  1  0
 65 66  2  0
 66 67  1  0
 67 68  2  0
 68 69  1  0
 69 70  1  0
 68 71  1  0
 71 72  2  0
 64 73  1  0
 73 74  2  0
 74 75  1  0
 75 76  2  0
 76 77  1  0
 77 78  1  0
 76 79  1  0
 79 80  2  0
 63 81  1  0
 81 82  1  0
 82 83  1  0
 83 84  2  0
 84 85  1  0
 85 86  1  0
 86 87  2  0
 87 88  1  0
 88 89  2  0
 89 90  1  0
 90 91  1  0
 89 92  1  0
 92 93  2  0
 85 94  1  0
 94 95  2  0
 95 96  1  0
 96 97  2  0
 97 98  1  0
 98 99  1  0
 97100  1  0
100101  2  0
 84102  1  0
102103  1  0
 83104  1  0
104105  2  0
105106  1  0
106107  1  0
106108  2  0
108109  1  0
108110  1  0
110111  2  3
111112  1  0
112113  2  0
112114  1  0
114115  2  0
115116  1  0
116117  2  0
117118  1  0
118119  2  0
119120  1  0
120121  2  3
121122  1  0
122123  3  0
121124  1  0
124125  3  0
117126  1  0
126127  1  0
127128  1  0
128129  2  0
129130  1  0
130131  1  0
130132  1  0
 11  2  1  0
 23 17  1  0
 61 24  1  0
103 62  1  0
109104  1  0
120111  1  0
132126  1  0
 10  5  1  0
 22 18  1  0
 33 27  1  0
 40 34  1  0
 60 41  2  0
 72 65  1  0
 80 73  1  0
102 81  2  0
119114  1  0
131127  1  0
 23  7  1  0
 52 46  1  0
 59 53  1  0
 93 86  1  0
101 94  1  0
132116  1  0
  1133  1  0
  6134  1  0
  9135  1  0
 17136  1  0
 18137  1  0
 19138  1  0
 20139  1  0
 21140  1  0
 22141  1  0
 22142  1  0
 23143  1  0
 28144  1  0
 29145  1  0
 31146  1  0
 31147  1  0
 31148  1  0
 32149  1  0
 33150  1  0
 35151  1  0
 36152  1  0
 38153  1  0
 38154  1  0
 38155  1  0
 39156  1  0
 40157  1  0
 47158  1  0
 48159  1  0
 50160  1  0
 50161  1  0
 50162  1  0
 51163  1  0
 52164  1  0
 54165  1  0
 55166  1  0
 57167  1  0
 57168  1  0
 57169  1  0
 58170  1  0
 59171  1  0
 66172  1  0
 67173  1  0
 70174  1  0
 70175  1  0
 70176  1  0
 71177  1  0
 72178  1  0
 74179  1  0
 75180  1  0
 78181  1  0
 78182  1  0
 78183  1  0
 79184  1  0
 80185  1  0
 87186  1  0
 88187  1  0
 91188  1  0
 91189  1  0
 91190  1  0
 92191  1  0
 93192  1  0
 95193  1  0
 96194  1  0
 99195  1  0
 99196  1  0
 99197  1  0
100198  1  0
101199  1  0
105200  1  0
110201  1  0
115202  1  0
118203  1  0
126204  1  0
127205  1  0
128206  1  0
129207  1  0
130208  1  0
131209  1  0
131210  1  0
132211  1  0
M  END

