
     RDKit          3D

202222  0  0  0  0  0  0  0  0999 V2000
    0.9509   -4.0896   -4.6738 C   0  0  0  0  0  0  0  0  0  0  0  0
    2.1737   -3.8992   -4.1068 C   0  0  0  0  0  0  0  0  0  0  0  0
    2.7768   -2.6066   -3.7264 C   0  0  0  0  0  0  0  0  0  0  0  0
    2.3370   -1.4620   -4.0050 O   0  0  0  0  0  0  0  0  0  0  0  0
    4.0855   -2.8221   -3.1773 C   0  0  0  0  0  0  0  0  0  0  0  0
    4.9460   -1.8276   -2.6419 C   0  0  0  0  0  0  0  0  0  0  0  0
    6.0836   -2.3398   -2.0482 C   0  0  0  0  0  0  0  0  0  0  0  0
    6.3599   -3.7402   -1.9816 C   0  0  0  0  0  0  0  0  0  0  0  0
    5.5434   -4.7104   -2.5385 C   0  0  0  0  0  0  0  0  0  0  0  0
    4.3741   -4.2054   -3.1844 C   0  0  0  0  0  0  0  0  0  0  0  0
    3.2179   -4.9386   -3.7833 C   0  0  0  0  0  0  0  0  0  0  0  0
    3.0989   -6.2890   -3.8757 C   0  0  0  0  0  0  0  0  0  0  0  0
    1.8422   -6.9671   -4.0138 C   0  0  0  0  0  0  0  0  0  0  0  0
    0.8378   -7.5363   -4.1090 N   0  0  0  0  0  0  0  0  0  0  0  0
    4.2302   -7.1736   -3.7698 C   0  0  0  0  0  0  0  0  0  0  0  0
    5.1228   -7.9068   -3.6972 N   0  0  0  0  0  0  0  0  0  0  0  0
    7.6078   -3.4727   -1.1944 C   0  0  0  0  0  0  0  0  0  0  0  0
    8.9752   -3.6285   -1.9193 C   0  0  0  0  0  0  0  0  0  0  0  0
    8.8237   -3.3087   -3.3892 C   0  0  0  0  0  0  0  0  0  0  0  0
    8.5716   -2.0036   -3.4735 C   0  0  0  0  0  0  0  0  0  0  0  0
    8.5583   -1.4749   -2.0588 C   0  0  0  0  0  0  0  0  0  0  0  0
    9.6553   -2.3494   -1.4700 C   0  0  0  0  0  0  0  0  0  0  0  0
    7.3329   -2.0388   -1.2808 C   0  0  0  0  0  0  0  0  0  0  0  0
   -0.1830   -3.1670   -4.4550 C   0  0  0  0  0  0  0  0  0  0  0  0
   -1.1156   -3.3696   -3.4246 C   0  0  0  0  0  0  0  0  0  0  0  0
   -1.6616   -4.6594   -3.1032 N   0  0  0  0  0  0  0  0  0  0  0  0
   -1.3252   -5.3327   -1.8681 C   0  0  0  0  0  0  0  0  0  0  0  0
   -0.0867   -5.1108   -1.2371 C   0  0  0  0  0  0  0  0  0  0  0  0
    0.2528   -5.8087   -0.0725 C   0  0  0  0  0  0  0  0  0  0  0  0
   -0.6326   -6.7444    0.4722 C   0  0  0  0  0  0  0  0  0  0  0  0
   -0.2824   -7.4773    1.7301 C   0  0  0  0  0  0  0  0  0  0  0  0
   -1.8827   -6.9396   -0.1280 C   0  0  0  0  0  0  0  0  0  0  0  0
   -2.2209   -6.2449   -1.2931 C   0  0  0  0  0  0  0  0  0  0  0  0
   -2.5972   -5.2306   -4.0496 C   0  0  0  0  0  0  0  0  0  0  0  0
   -2.4268   -6.5425   -4.5095 C   0  0  0  0  0  0  0  0  0  0  0  0
   -3.2739   -7.0673   -5.4914 C   0  0  0  0  0  0  0  0  0  0  0  0
   -4.3263   -6.2972   -6.0042 C   0  0  0  0  0  0  0  0  0  0  0  0
   -5.1941   -6.8505   -7.0906 C   0  0  0  0  0  0  0  0  0  0  0  0
   -4.5168   -4.9888   -5.5327 C   0  0  0  0  0  0  0  0  0  0  0  0
   -3.6598   -4.4626   -4.5607 C   0  0  0  0  0  0  0  0  0  0  0  0
   -1.7291   -2.1816   -3.0611 C   0  0  0  0  0  0  0  0  0  0  0  0
   -2.6126   -1.7056   -1.7258 S   0  0  0  0  0  0  0  0  0  0  0  0
   -2.5386   -0.0360   -2.0687 C   0  0  0  0  0  0  0  0  0  0  0  0
   -1.8170    0.1168   -3.2774 C   0  0  0  0  0  0  0  0  0  0  0  0
   -1.5126    1.3854   -3.8851 N   0  0  0  0  0  0  0  0  0  0  0  0
   -0.1335    1.7693   -4.1463 C   0  0  0  0  0  0  0  0  0  0  0  0
    0.2008    2.5833   -5.2499 C   0  0  0  0  0  0  0  0  0  0  0  0
    1.5321    2.9054   -5.5223 C   0  0  0  0  0  0  0  0  0  0  0  0
    2.5591    2.4355   -4.6944 C   0  0  0  0  0  0  0  0  0  0  0  0
    3.9931    2.7172   -5.0204 C   0  0  0  0  0  0  0  0  0  0  0  0
    2.2391    1.6225   -3.5973 C   0  0  0  0  0  0  0  0  0  0  0  0
    0.9103    1.2892   -3.3275 C   0  0  0  0  0  0  0  0  0  0  0  0
   -2.6020    2.0958   -4.5071 C   0  0  0  0  0  0  0  0  0  0  0  0
   -2.7572    3.4778   -4.3133 C   0  0  0  0  0  0  0  0  0  0  0  0
   -3.7504    4.1800   -5.0051 C   0  0  0  0  0  0  0  0  0  0  0  0
   -4.5953    3.5101   -5.9047 C   0  0  0  0  0  0  0  0  0  0  0  0
   -5.6512    4.2575   -6.6658 C   0  0  0  0  0  0  0  0  0  0  0  0
   -4.4695    2.1214   -6.0632 C   0  0  0  0  0  0  0  0  0  0  0  0
   -3.4783    1.4213   -5.3715 C   0  0  0  0  0  0  0  0  0  0  0  0
   -1.3721   -1.0970   -3.7864 C   0  0  0  0  0  0  0  0  0  0  0  0
   -0.2694   -1.5376   -4.9739 S   0  0  0  0  0  0  0  0  0  0  0  0
   -2.5221    0.9789   -0.9968 C   0  0  0  0  0  0  0  0  0  0  0  0
   -3.2961    1.0326    0.1871 C   0  0  0  0  0  0  0  0  0  0  0  0
   -4.5135    0.2989    0.4286 N   0  0  0  0  0  0  0  0  0  0  0  0
   -5.7620    1.0351    0.5473 C   0  0  0  0  0  0  0  0  0  0  0  0
   -5.9312    2.2545   -0.1400 C   0  0  0  0  0  0  0  0  0  0  0  0
   -7.1152    2.9848   -0.0101 C   0  0  0  0  0  0  0  0  0  0  0  0
   -8.1496    2.5092    0.7971 C   0  0  0  0  0  0  0  0  0  0  0  0
   -9.6649    3.4604    0.9852 S   0  0  0  0  0  0  0  0  0  0  0  0
   -8.9674    4.5518    2.2605 C   0  0  0  0  0  0  0  0  0  0  0  0
   -7.9940    1.3054    1.4885 C   0  0  0  0  0  0  0  0  0  0  0  0
   -6.8112    0.5721    1.3644 C   0  0  0  0  0  0  0  0  0  0  0  0
   -4.4429   -1.0969    0.7923 C   0  0  0  0  0  0  0  0  0  0  0  0
   -5.3453   -2.0203    0.2393 C   0  0  0  0  0  0  0  0  0  0  0  0
   -5.3134   -3.3632    0.6302 C   0  0  0  0  0  0  0  0  0  0  0  0
   -4.3846   -3.7942    1.5852 C   0  0  0  0  0  0  0  0  0  0  0  0
   -4.3988   -5.4978    2.1474 S   0  0  0  0  0  0  0  0  0  0  0  0
   -5.5223   -5.1526    3.5400 C   0  0  0  0  0  0  0  0  0  0  0  0
   -3.4662   -2.8848    2.1149 C   0  0  0  0  0  0  0  0  0  0  0  0
   -3.4888   -1.5457    1.7211 C   0  0  0  0  0  0  0  0  0  0  0  0
   -2.7069    1.8649    1.1478 C   0  0  0  0  0  0  0  0  0  0  0  0
   -2.9199    2.1000    2.7880 S   0  0  0  0  0  0  0  0  0  0  0  0
   -1.4013    2.8700    3.0843 C   0  0  0  0  0  0  0  0  0  0  0  0
   -0.7228    2.8986    1.8290 C   0  0  0  0  0  0  0  0  0  0  0  0
    0.6898    3.0416    1.6176 N   0  0  0  0  0  0  0  0  0  0  0  0
    1.2296    4.2787    1.0812 C   0  0  0  0  0  0  0  0  0  0  0  0
    2.6256    4.4772    1.0037 C   0  0  0  0  0  0  0  0  0  0  0  0
    3.1550    5.6073    0.3731 C   0  0  0  0  0  0  0  0  0  0  0  0
    2.2993    6.5968   -0.1262 C   0  0  0  0  0  0  0  0  0  0  0  0
    2.9743    8.0137   -0.9975 S   0  0  0  0  0  0  0  0  0  0  0  0
    3.2634    8.9776    0.5184 C   0  0  0  0  0  0  0  0  0  0  0  0
    0.9154    6.4530    0.0186 C   0  0  0  0  0  0  0  0  0  0  0  0
    0.3837    5.3053    0.6127 C   0  0  0  0  0  0  0  0  0  0  0  0
    1.4356    1.8056    1.4772 C   0  0  0  0  0  0  0  0  0  0  0  0
    1.4664    0.8687    2.5274 C   0  0  0  0  0  0  0  0  0  0  0  0
    2.1986   -0.3182    2.3977 C   0  0  0  0  0  0  0  0  0  0  0  0
    2.8866   -0.5917    1.2085 C   0  0  0  0  0  0  0  0  0  0  0  0
    3.9023   -2.0679    1.0691 S   0  0  0  0  0  0  0  0  0  0  0  0
    2.6193   -3.0463    0.2273 C   0  0  0  0  0  0  0  0  0  0  0  0
    2.8062    0.3044    0.1369 C   0  0  0  0  0  0  0  0  0  0  0  0
    2.0831    1.4925    0.2650 C   0  0  0  0  0  0  0  0  0  0  0  0
   -1.5136    2.3917    0.8010 C   0  0  0  0  0  0  0  0  0  0  0  0
   -1.1362    1.9317   -0.7504 S   0  0  0  0  0  0  0  0  0  0  0  0
   -0.9601    3.2388    4.4818 C   0  0  0  0  0  0  0  0  0  0  0  0
   -1.9489    3.2756    5.4985 C   0  0  0  0  0  0  0  0  0  0  0  0
   -1.6218    3.4489    6.8466 C   0  0  0  0  0  0  0  0  0  0  0  0
   -2.6191    3.5352    7.7628 F   0  0  0  0  0  0  0  0  0  0  0  0
   -0.2868    3.5060    7.2580 C   0  0  0  0  0  0  0  0  0  0  0  0
    0.7025    3.5986    6.2755 C   0  0  0  0  0  0  0  0  0  0  0  0
    0.3717    3.4977    4.8873 C   0  0  0  0  0  0  0  0  0  0  0  0
    1.4103    3.6584    4.0331 N   0  0  0  0  0  0  0  0  0  0  0  0
    2.6735    3.8841    5.0698 S   0  0  0  0  0  0  0  0  0  0  0  0
    2.0146    3.8003    6.5836 N   0  0  0  0  0  0  0  0  0  0  0  0
    0.0855    3.4981    8.6893 C   0  0  0  0  0  0  0  0  0  0  0  0
    0.4044    2.3590    9.3346 C   0  0  0  0  0  0  0  0  0  0  0  0
    1.2473    2.3044   10.5263 C   0  0  0  0  0  0  0  0  0  0  0  0
    1.5381    3.2750   11.2748 O   0  0  0  0  0  0  0  0  0  0  0  0
    1.7313    0.9455   10.6661 C   0  0  0  0  0  0  0  0  0  0  0  0
    2.5209    0.3999   11.6743 C   0  0  0  0  0  0  0  0  0  0  0  0
    2.9696    1.1658   12.6973 F   0  0  0  0  0  0  0  0  0  0  0  0
    2.8169   -0.9716   11.6313 C   0  0  0  0  0  0  0  0  0  0  0  0
    2.3138   -1.7715   10.5894 C   0  0  0  0  0  0  0  0  0  0  0  0
    1.4994   -1.2096    9.5913 C   0  0  0  0  0  0  0  0  0  0  0  0
    1.2166    0.1678    9.6385 C   0  0  0  0  0  0  0  0  0  0  0  0
    0.2926    0.9742    8.7975 C   0  0  0  0  0  0  0  0  0  0  0  0
   -0.8497    0.4640    8.2912 C   0  0  0  0  0  0  0  0  0  0  0  0
   -0.8642   -0.7637    7.5440 C   0  0  0  0  0  0  0  0  0  0  0  0
   -0.8985   -1.7492    6.9287 N   0  0  0  0  0  0  0  0  0  0  0  0
   -2.1138    0.8899    8.8365 C   0  0  0  0  0  0  0  0  0  0  0  0
   -3.1206    1.1920    9.3353 N   0  0  0  0  0  0  0  0  0  0  0  0
    0.6718   -5.0554   -5.0454 H   0  0  0  0  0  0  0  0  0  0  0  0
    4.7042   -0.7697   -2.6477 H   0  0  0  0  0  0  0  0  0  0  0  0
    5.7877   -5.7490   -2.4244 H   0  0  0  0  0  0  0  0  0  0  0  0
    7.5877   -3.8789   -0.1577 H   0  0  0  0  0  0  0  0  0  0  0  0
    9.5228   -4.5694   -1.6906 H   0  0  0  0  0  0  0  0  0  0  0  0
    8.9837   -3.9857   -4.2237 H   0  0  0  0  0  0  0  0  0  0  0  0
    8.4874   -1.4289   -4.3921 H   0  0  0  0  0  0  0  0  0  0  0  0
    8.7133   -0.3792   -1.9588 H   0  0  0  0  0  0  0  0  0  0  0  0
    9.7433   -2.2558   -0.3612 H   0  0  0  0  0  0  0  0  0  0  0  0
   10.6535   -2.1835   -1.9419 H   0  0  0  0  0  0  0  0  0  0  0  0
    7.1462   -1.5700   -0.2880 H   0  0  0  0  0  0  0  0  0  0  0  0
    0.6299   -4.4153   -1.6513 H   0  0  0  0  0  0  0  0  0  0  0  0
    1.2133   -5.6390    0.3945 H   0  0  0  0  0  0  0  0  0  0  0  0
   -0.6702   -8.5224    1.6911 H   0  0  0  0  0  0  0  0  0  0  0  0
   -0.7285   -6.9553    2.6069 H   0  0  0  0  0  0  0  0  0  0  0  0
    0.8204   -7.5294    1.8648 H   0  0  0  0  0  0  0  0  0  0  0  0
   -2.5942   -7.6431    0.2930 H   0  0  0  0  0  0  0  0  0  0  0  0
   -3.1891   -6.4253   -1.7363 H   0  0  0  0  0  0  0  0  0  0  0  0
   -1.6331   -7.1586   -4.1154 H   0  0  0  0  0  0  0  0  0  0  0  0
   -3.1058   -8.0775   -5.8475 H   0  0  0  0  0  0  0  0  0  0  0  0
   -6.1649   -6.3126   -7.1346 H   0  0  0  0  0  0  0  0  0  0  0  0
   -4.6757   -6.7412   -8.0662 H   0  0  0  0  0  0  0  0  0  0  0  0
   -5.4023   -7.9257   -6.9071 H   0  0  0  0  0  0  0  0  0  0  0  0
   -5.3255   -4.3735   -5.9123 H   0  0  0  0  0  0  0  0  0  0  0  0
   -3.8339   -3.4604   -4.2058 H   0  0  0  0  0  0  0  0  0  0  0  0
   -0.5610    2.9407   -5.9271 H   0  0  0  0  0  0  0  0  0  0  0  0
    1.7599    3.5146   -6.3867 H   0  0  0  0  0  0  0  0  0  0  0  0
    4.5594    2.9638   -4.0954 H   0  0  0  0  0  0  0  0  0  0  0  0
    4.0886    3.5739   -5.7201 H   0  0  0  0  0  0  0  0  0  0  0  0
    4.4502    1.8199   -5.4931 H   0  0  0  0  0  0  0  0  0  0  0  0
    3.0247    1.2243   -2.9718 H   0  0  0  0  0  0  0  0  0  0  0  0
    0.7041    0.6235   -2.5005 H   0  0  0  0  0  0  0  0  0  0  0  0
   -2.0941    4.0083   -3.6394 H   0  0  0  0  0  0  0  0  0  0  0  0
   -3.8464    5.2480   -4.8515 H   0  0  0  0  0  0  0  0  0  0  0  0
   -5.8083    3.7995   -7.6664 H   0  0  0  0  0  0  0  0  0  0  0  0
   -5.3473    5.3170   -6.8216 H   0  0  0  0  0  0  0  0  0  0  0  0
   -6.6040    4.2330   -6.0991 H   0  0  0  0  0  0  0  0  0  0  0  0
   -5.1229    1.5817   -6.7386 H   0  0  0  0  0  0  0  0  0  0  0  0
   -3.3695    0.3563   -5.5409 H   0  0  0  0  0  0  0  0  0  0  0  0
   -5.1472    2.6432   -0.7760 H   0  0  0  0  0  0  0  0  0  0  0  0
   -7.2232    3.9246   -0.5375 H   0  0  0  0  0  0  0  0  0  0  0  0
   -9.7565    5.2557    2.6071 H   0  0  0  0  0  0  0  0  0  0  0  0
   -8.1242    5.1367    1.8344 H   0  0  0  0  0  0  0  0  0  0  0  0
   -8.6186    3.9474    3.1260 H   0  0  0  0  0  0  0  0  0  0  0  0
   -8.7895    0.9310    2.1216 H   0  0  0  0  0  0  0  0  0  0  0  0
   -6.7152   -0.3478    1.9314 H   0  0  0  0  0  0  0  0  0  0  0  0
   -6.0792   -1.6919   -0.4911 H   0  0  0  0  0  0  0  0  0  0  0  0
   -6.0209   -4.0593    0.2001 H   0  0  0  0  0  0  0  0  0  0  0  0
   -5.7362   -6.0981    4.0720 H   0  0  0  0  0  0  0  0  0  0  0  0
   -5.0430   -4.4387    4.2436 H   0  0  0  0  0  0  0  0  0  0  0  0
   -6.4803   -4.7332    3.1580 H   0  0  0  0  0  0  0  0  0  0  0  0
   -2.7415   -3.2133    2.8518 H   0  0  0  0  0  0  0  0  0  0  0  0
   -2.7816   -0.8557    2.1654 H   0  0  0  0  0  0  0  0  0  0  0  0
    3.3065    3.7455    1.4136 H   0  0  0  0  0  0  0  0  0  0  0  0
    4.2297    5.7142    0.2887 H   0  0  0  0  0  0  0  0  0  0  0  0
    3.9792    8.4552    1.1825 H   0  0  0  0  0  0  0  0  0  0  0  0
    3.6723    9.9686    0.2452 H   0  0  0  0  0  0  0  0  0  0  0  0
    2.3041    9.1315    1.0608 H   0  0  0  0  0  0  0  0  0  0  0  0
    0.2471    7.2225   -0.3477 H   0  0  0  0  0  0  0  0  0  0  0  0
   -0.6932    5.2170    0.6855 H   0  0  0  0  0  0  0  0  0  0  0  0
    0.9344    1.0622    3.4487 H   0  0  0  0  0  0  0  0  0  0  0  0
    2.2417   -1.0078    3.2294 H   0  0  0  0  0  0  0  0  0  0  0  0
    2.4283   -2.6281   -0.7795 H   0  0  0  0  0  0  0  0  0  0  0  0
    1.6861   -3.0512    0.8325 H   0  0  0  0  0  0  0  0  0  0  0  0
    2.9788   -4.0895    0.1118 H   0  0  0  0  0  0  0  0  0  0  0  0
    3.3057    0.0774   -0.7990 H   0  0  0  0  0  0  0  0  0  0  0  0
    2.0265    2.1680   -0.5785 H   0  0  0  0  0  0  0  0  0  0  0  0
   -2.9978    3.1845    5.2528 H   0  0  0  0  0  0  0  0  0  0  0  0
    0.3821    4.4461    9.1305 H   0  0  0  0  0  0  0  0  0  0  0  0
    3.4283   -1.4198   12.4063 H   0  0  0  0  0  0  0  0  0  0  0  0
    2.5379   -2.8282   10.5610 H   0  0  0  0  0  0  0  0  0  0  0  0
    1.1244   -1.8407    8.8042 H   0  0  0  0  0  0  0  0  0  0  0  0
  1  2  2  3
  2  3  1  0
  3  4  2  0
  3  5  1  0
  5  6  2  0
  6  7  1  0
  7  8  2  0
  8  9  1  0
  9 10  2  0
 10 11  1  0
 11 12  2  3
 12 13  1  0
 13 14  3  0
 12 15  1  0
 15 16  3  0
  8 17  1  0
 17 18  1  0
 18 19  1  0
 19 20  2  0
 20 21  1  0
 21 22  1  0
 21 23  1  0
  1 24  1  0
 24 25  2  0
 25 26  1  0
 26 27  1  0
 27 28  2  0
 28 29  1  0
 29 30  2  0
 30 31  1  0
 30 32  1  0
 32 33  2  0
 26 34  1  0
 34 35  2  0
 35 36  1  0
 36 37  2  0
 37 38  1  0
 37 39  1  0
 39 40  2  0
 25 41  1  0
 41 42  1  0
 42 43  1  0
 43 44  2  0
 44 45  1  0
 45 46  1  0
 46 47  2  0
 47 48  1  0
 48 49  2  0
 49 50  1  0
 49 51  1  0
 51 52  2  0
 45 53  1  0
 53 54  2  0
 54 55  1  0
 55 56  2  0
 56 57  1  0
 56 58  1  0
 58 59  2  0
 44 60  1  0
 60 61  1  0
 43 62  1  0
 62 63  2  0
 63 64  1  0
 64 65  1  0
 65 66  2  0
 66 67  1  0
 67 68  2  0
 68 69  1  0
 69 70  1  0
 68 71  1  0
 71 72  2  0
 64 73  1  0
 73 74  2  0
 74 75  1  0
 75 76  2  0
 76 77  1  0
 77 78  1  0
 76 79  1  0
 79 80  2  0
 63 81  1  0
 81 82  1  0
 82 83  1  0
 83 84  2  0
 84 85  1  0
 85 86  1  0
 86 87  2  0
 87 88  1  0
 88 89  2  0
 89 90  1  0
 90 91  1  0
 89 92  1  0
 92 93  2  0
 85 94  1  0
 94 95  2  0
 95 96  1  0
 96 97  2  0
 97 98  1  0
 98 99  1  0
 97100  1  0
100101  2  0
 84102  1  0
102103  1  0
 83104  1  0
104105  2  0
105106  1  0
106107  1  0
106108  2  0
108109  1  0
109110  1  0
110111  2  0
111112  1  0
112113  1  0
108114  1  0
114115  2  3
115116  1  0
116117  2  0
116118  1  0
118119  2  0
119120  1  0
119121  1  0
121122  2  0
122123  1  0
123124  2  0
124125  1  0
125126  2  3
126127  1  0
127128  3  0
126129  1  0
129130  3  0
 11  2  1  0
 23 17  1  0
 61 24  1  0
103 62  1  0
110104  1  0
125115  1  0
 10  5  1  0
 22 18  1  0
 33 27  1  0
 40 34  1  0
 60 41  2  0
 72 65  1  0
 80 73  1  0
102 81  2  0
113109  2  0
124118  1  0
 23  7  1  0
 52 46  1  0
 59 53  1  0
 93 86  1  0
101 94  1  0
  1131  1  0
  6132  1  0
  9133  1  0
 17134  1  0
 18135  1  0
 19136  1  0
 20137  1  0
 21138  1  0
 22139  1  0
 22140  1  0
 23141  1  0
 28142  1  0
 29143  1  0
 31144  1  0
 31145  1  0
 31146  1  0
 32147  1  0
 33148  1  0
 35149  1  0
 36150  1  0
 38151  1  0
 38152  1  0
 38153  1  0
 39154  1  0
 40155  1  0
 47156  1  0
 48157  1  0
 50158  1  0
 50159  1  0
 50160  1  0
 51161  1  0
 52162  1  0
 54163  1  0
 55164  1  0
 57165  1  0
 57166  1  0
 57167  1  0
 58168  1  0
 59169  1  0
 66170  1  0
 67171  1  0
 70172  1  0
 70173  1  0
 70174  1  0
 71175  1  0
 72176  1  0
 74177  1  0
 75178  1  0
 78179  1  0
 78180  1  0
 78181  1  0
 79182  1  0
 80183  1  0
 87184  1  0
 88185  1  0
 91186  1  0
 91187  1  0
 91188  1  0
 92189  1  0
 93190  1  0
 95191  1  0
 96192  1  0
 99193  1  0
 99194  1  0
 99195  1  0
100196  1  0
101197  1  0
105198  1  0
114199  1  0
121200  1  0
122201  1  0
123202  1  0
M  END

