
     RDKit          3D

265289  0  0  0  0  0  0  0  0999 V2000
    6.5470   -5.3379   -1.1873 C   0  0  0  0  0  0  0  0  0  0  0  0
    7.2051   -6.4065   -0.7112 C   0  0  0  0  0  0  0  0  0  0  0  0
    7.4829   -6.6891    0.6972 C   0  0  0  0  0  0  0  0  0  0  0  0
    6.9889   -6.1011    1.6957 O   0  0  0  0  0  0  0  0  0  0  0  0
    8.4972   -7.7170    0.7591 C   0  0  0  0  0  0  0  0  0  0  0  0
    9.1767   -8.1729    1.9145 C   0  0  0  0  0  0  0  0  0  0  0  0
   10.1370   -9.1288    1.6540 C   0  0  0  0  0  0  0  0  0  0  0  0
   10.4309   -9.6064    0.3320 C   0  0  0  0  0  0  0  0  0  0  0  0
    9.8027   -9.1352   -0.8053 C   0  0  0  0  0  0  0  0  0  0  0  0
    8.7986   -8.1541   -0.5580 C   0  0  0  0  0  0  0  0  0  0  0  0
    7.9351   -7.4270   -1.5215 C   0  0  0  0  0  0  0  0  0  0  0  0
    7.6021   -7.8274   -2.7785 C   0  0  0  0  0  0  0  0  0  0  0  0
    6.4388   -7.3151   -3.4609 C   0  0  0  0  0  0  0  0  0  0  0  0
    5.4959   -6.9154   -3.9968 N   0  0  0  0  0  0  0  0  0  0  0  0
    8.2293   -8.9458   -3.4290 C   0  0  0  0  0  0  0  0  0  0  0  0
    8.7110   -9.8564   -3.9615 N   0  0  0  0  0  0  0  0  0  0  0  0
   11.4940  -10.5084    0.8793 C   0  0  0  0  0  0  0  0  0  0  0  0
   12.9657  -10.0596    0.6356 C   0  0  0  0  0  0  0  0  0  0  0  0
   13.8078  -10.8788    1.5842 C   0  0  0  0  0  0  0  0  0  0  0  0
   13.5359  -10.4273    2.8178 C   0  0  0  0  0  0  0  0  0  0  0  0
   12.5242   -9.3198    2.6572 C   0  0  0  0  0  0  0  0  0  0  0  0
   13.0375   -8.7211    1.3556 C   0  0  0  0  0  0  0  0  0  0  0  0
   11.1969  -10.0156    2.2291 C   0  0  0  0  0  0  0  0  0  0  0  0
    5.4283   -4.7095   -0.4769 C   0  0  0  0  0  0  0  0  0  0  0  0
    5.4473   -3.8081    0.6101 C   0  0  0  0  0  0  0  0  0  0  0  0
    6.6476   -3.1672    1.0920 N   0  0  0  0  0  0  0  0  0  0  0  0
    7.5928   -2.6976    0.1126 C   0  0  0  0  0  0  0  0  0  0  0  0
    7.1889   -1.7839   -0.8695 C   0  0  0  0  0  0  0  0  0  0  0  0
    8.0937   -1.3343   -1.8343 C   0  0  0  0  0  0  0  0  0  0  0  0
    9.4105   -1.8128   -1.8440 C   0  0  0  0  0  0  0  0  0  0  0  0
   10.3783   -1.3165   -2.8716 C   0  0  0  0  0  0  0  0  0  0  0  0
    9.8261   -2.7100   -0.8417 C   0  0  0  0  0  0  0  0  0  0  0  0
    8.9200   -3.1544    0.1247 C   0  0  0  0  0  0  0  0  0  0  0  0
    6.8192   -2.8209    2.4879 C   0  0  0  0  0  0  0  0  0  0  0  0
    6.2121   -3.5852    3.5002 C   0  0  0  0  0  0  0  0  0  0  0  0
    6.3929   -3.2542    4.8477 C   0  0  0  0  0  0  0  0  0  0  0  0
    7.1881   -2.1594    5.2094 C   0  0  0  0  0  0  0  0  0  0  0  0
    7.3609   -1.7925    6.6541 C   0  0  0  0  0  0  0  0  0  0  0  0
    7.7748   -1.3782    4.2065 C   0  0  0  0  0  0  0  0  0  0  0  0
    7.5986   -1.7062    2.8616 C   0  0  0  0  0  0  0  0  0  0  0  0
    4.1573   -3.2985    0.8456 C   0  0  0  0  0  0  0  0  0  0  0  0
    3.5970   -1.9707    1.7078 S   0  0  0  0  0  0  0  0  0  0  0  0
    2.0925   -1.9301    0.9100 C   0  0  0  0  0  0  0  0  0  0  0  0
    2.0581   -2.8918   -0.1183 C   0  0  0  0  0  0  0  0  0  0  0  0
    1.3627   -2.6698   -1.3706 N   0  0  0  0  0  0  0  0  0  0  0  0
    1.8920   -1.7242   -2.3477 C   0  0  0  0  0  0  0  0  0  0  0  0
    3.2166   -1.2488   -2.2650 C   0  0  0  0  0  0  0  0  0  0  0  0
    3.7284   -0.3668   -3.2212 C   0  0  0  0  0  0  0  0  0  0  0  0
    2.9122    0.1061   -4.2546 C   0  0  0  0  0  0  0  0  0  0  0  0
    3.4036    1.1565   -5.1998 C   0  0  0  0  0  0  0  0  0  0  0  0
    1.6015   -0.3688   -4.3645 C   0  0  0  0  0  0  0  0  0  0  0  0
    1.0997   -1.2774   -3.4317 C   0  0  0  0  0  0  0  0  0  0  0  0
    0.3309   -3.5781   -1.8059 C   0  0  0  0  0  0  0  0  0  0  0  0
   -1.0136   -3.1717   -1.7956 C   0  0  0  0  0  0  0  0  0  0  0  0
   -1.9929   -3.9107   -2.4658 C   0  0  0  0  0  0  0  0  0  0  0  0
   -1.6405   -5.0689   -3.1716 C   0  0  0  0  0  0  0  0  0  0  0  0
   -2.6386   -5.7581   -4.0552 C   0  0  0  0  0  0  0  0  0  0  0  0
   -0.3078   -5.4840   -3.1842 C   0  0  0  0  0  0  0  0  0  0  0  0
    0.6677   -4.7423   -2.5146 C   0  0  0  0  0  0  0  0  0  0  0  0
    3.2064   -3.6858   -0.0540 C   0  0  0  0  0  0  0  0  0  0  0  0
    3.8924   -4.7145   -1.1681 S   0  0  0  0  0  0  0  0  0  0  0  0
    1.0478   -0.9329    1.1436 C   0  0  0  0  0  0  0  0  0  0  0  0
   -0.3141   -1.2277    1.0215 C   0  0  0  0  0  0  0  0  0  0  0  0
   -0.8552   -2.3444    1.7529 N   0  0  0  0  0  0  0  0  0  0  0  0
   -0.6922   -2.3602    3.1786 C   0  0  0  0  0  0  0  0  0  0  0  0
    0.3160   -3.1412    3.7654 C   0  0  0  0  0  0  0  0  0  0  0  0
    0.4377   -3.1949    5.1564 C   0  0  0  0  0  0  0  0  0  0  0  0
   -0.4521   -2.4798    5.9680 C   0  0  0  0  0  0  0  0  0  0  0  0
   -0.3206   -2.5656    7.7552 S   0  0  0  0  0  0  0  0  0  0  0  0
   -1.5799   -3.8694    7.9029 C   0  0  0  0  0  0  0  0  0  0  0  0
   -1.4597   -1.7010    5.3832 C   0  0  0  0  0  0  0  0  0  0  0  0
   -1.5812   -1.6457    3.9939 C   0  0  0  0  0  0  0  0  0  0  0  0
   -1.7615   -3.3096    1.2037 C   0  0  0  0  0  0  0  0  0  0  0  0
   -1.3127   -4.6208    0.9770 C   0  0  0  0  0  0  0  0  0  0  0  0
   -2.2270   -5.6373    0.6873 C   0  0  0  0  0  0  0  0  0  0  0  0
   -3.5975   -5.3550    0.6490 C   0  0  0  0  0  0  0  0  0  0  0  0
   -4.7948   -6.6749    0.4312 S   0  0  0  0  0  0  0  0  0  0  0  0
   -4.7943   -6.5655   -1.3797 C   0  0  0  0  0  0  0  0  0  0  0  0
   -4.0474   -4.0503    0.8688 C   0  0  0  0  0  0  0  0  0  0  0  0
   -3.1340   -3.0361    1.1582 C   0  0  0  0  0  0  0  0  0  0  0  0
   -1.0151   -0.0339    0.9285 C   0  0  0  0  0  0  0  0  0  0  0  0
   -2.5452    0.3405    0.4006 S   0  0  0  0  0  0  0  0  0  0  0  0
   -2.3202    2.0237    0.5497 C   0  0  0  0  0  0  0  0  0  0  0  0
   -1.0620    2.2979    1.1147 C   0  0  0  0  0  0  0  0  0  0  0  0
   -0.8641    3.3904    2.0309 N   0  0  0  0  0  0  0  0  0  0  0  0
   -0.0324    4.4993    1.6580 C   0  0  0  0  0  0  0  0  0  0  0  0
   -0.6152    5.6846    1.1798 C   0  0  0  0  0  0  0  0  0  0  0  0
    0.1866    6.7950    0.9011 C   0  0  0  0  0  0  0  0  0  0  0  0
    1.5728    6.7224    1.0816 C   0  0  0  0  0  0  0  0  0  0  0  0
    2.6064    8.1319    0.6751 S   0  0  0  0  0  0  0  0  0  0  0  0
    2.6380    8.7611    2.3808 C   0  0  0  0  0  0  0  0  0  0  0  0
    2.1557    5.5413    1.5606 C   0  0  0  0  0  0  0  0  0  0  0  0
    1.3540    4.4366    1.8545 C   0  0  0  0  0  0  0  0  0  0  0  0
   -1.4890    3.3611    3.3437 C   0  0  0  0  0  0  0  0  0  0  0  0
   -1.8887    4.5533    3.9851 C   0  0  0  0  0  0  0  0  0  0  0  0
   -2.4965    4.5184    5.2390 C   0  0  0  0  0  0  0  0  0  0  0  0
   -2.7091    3.2964    5.8843 C   0  0  0  0  0  0  0  0  0  0  0  0
   -3.4887    3.2573    7.4963 S   0  0  0  0  0  0  0  0  0  0  0  0
   -5.1469    2.9704    6.8125 C   0  0  0  0  0  0  0  0  0  0  0  0
   -2.3169    2.1081    5.2657 C   0  0  0  0  0  0  0  0  0  0  0  0
   -1.7133    2.1379    4.0083 C   0  0  0  0  0  0  0  0  0  0  0  0
   -0.3246    1.1080    1.1948 C   0  0  0  0  0  0  0  0  0  0  0  0
    1.3004    0.7368    1.4037 S   0  0  0  0  0  0  0  0  0  0  0  0
   -3.3695    2.9687    0.1713 C   0  0  0  0  0  0  0  0  0  0  0  0
   -3.4451    3.7800   -1.0084 C   0  0  0  0  0  0  0  0  0  0  0  0
   -2.3618    4.1051   -1.9409 N   0  0  0  0  0  0  0  0  0  0  0  0
   -2.6112    4.9338   -3.0891 C   0  0  0  0  0  0  0  0  0  0  0  0
   -2.7993    6.3160   -2.9423 C   0  0  0  0  0  0  0  0  0  0  0  0
   -3.0618    7.1122   -4.0607 C   0  0  0  0  0  0  0  0  0  0  0  0
   -3.1049    6.5409   -5.3425 C   0  0  0  0  0  0  0  0  0  0  0  0
   -3.4494    7.3736   -6.5403 C   0  0  0  0  0  0  0  0  0  0  0  0
   -2.8937    5.1591   -5.4886 C   0  0  0  0  0  0  0  0  0  0  0  0
   -2.6387    4.3641   -4.3720 C   0  0  0  0  0  0  0  0  0  0  0  0
   -0.9898    3.6966   -1.7914 C   0  0  0  0  0  0  0  0  0  0  0  0
   -0.6084    2.3574   -1.9415 C   0  0  0  0  0  0  0  0  0  0  0  0
    0.7334    1.9882   -1.7872 C   0  0  0  0  0  0  0  0  0  0  0  0
    1.7150    2.9663   -1.5581 C   0  0  0  0  0  0  0  0  0  0  0  0
    3.1221    2.5866   -1.2160 C   0  0  0  0  0  0  0  0  0  0  0  0
    1.3499    4.3138   -1.5542 C   0  0  0  0  0  0  0  0  0  0  0  0
    0.0119    4.6778   -1.6863 C   0  0  0  0  0  0  0  0  0  0  0  0
   -4.7932    4.1176   -1.2520 C   0  0  0  0  0  0  0  0  0  0  0  0
   -5.6163    4.8287   -2.5326 S   0  0  0  0  0  0  0  0  0  0  0  0
   -7.1653    4.4781   -1.9627 C   0  0  0  0  0  0  0  0  0  0  0  0
   -7.0621    3.7514   -0.7639 C   0  0  0  0  0  0  0  0  0  0  0  0
   -8.1468    3.0095   -0.1640 N   0  0  0  0  0  0  0  0  0  0  0  0
   -8.2329    2.8506    1.2779 C   0  0  0  0  0  0  0  0  0  0  0  0
   -7.7531    3.8557    2.1460 C   0  0  0  0  0  0  0  0  0  0  0  0
   -7.8369    3.7013    3.5330 C   0  0  0  0  0  0  0  0  0  0  0  0
   -8.4080    2.5443    4.0792 C   0  0  0  0  0  0  0  0  0  0  0  0
   -8.4822    2.3655    5.5614 C   0  0  0  0  0  0  0  0  0  0  0  0
   -8.8494    1.5228    3.2283 C   0  0  0  0  0  0  0  0  0  0  0  0
   -8.7682    1.6775    1.8426 C   0  0  0  0  0  0  0  0  0  0  0  0
   -9.0567    2.2975   -1.0316 C   0  0  0  0  0  0  0  0  0  0  0  0
   -8.5607    1.4823   -2.0607 C   0  0  0  0  0  0  0  0  0  0  0  0
   -9.4356    0.7905   -2.9021 C   0  0  0  0  0  0  0  0  0  0  0  0
  -10.8221    0.9228   -2.7369 C   0  0  0  0  0  0  0  0  0  0  0  0
  -11.7576    0.1500   -3.6205 C   0  0  0  0  0  0  0  0  0  0  0  0
  -11.3225    1.7253   -1.7011 C   0  0  0  0  0  0  0  0  0  0  0  0
  -10.4467    2.4179   -0.8589 C   0  0  0  0  0  0  0  0  0  0  0  0
   -5.7187    3.6080   -0.3934 C   0  0  0  0  0  0  0  0  0  0  0  0
   -4.9425    2.6911    0.7587 S   0  0  0  0  0  0  0  0  0  0  0  0
   -8.3697    4.8578   -2.7144 C   0  0  0  0  0  0  0  0  0  0  0  0
   -9.1770    5.8467   -2.2991 C   0  0  0  0  0  0  0  0  0  0  0  0
   -9.1158    6.4815   -0.9821 C   0  0  0  0  0  0  0  0  0  0  0  0
   -8.9055    5.9000    0.1172 O   0  0  0  0  0  0  0  0  0  0  0  0
   -9.4208    7.8852   -1.1289 C   0  0  0  0  0  0  0  0  0  0  0  0
   -9.3011    8.8931   -0.1813 C   0  0  0  0  0  0  0  0  0  0  0  0
   -9.4286   10.2353   -0.6003 C   0  0  0  0  0  0  0  0  0  0  0  0
   -9.3221   11.3066    0.2992 O   0  0  0  0  0  0  0  0  0  0  0  0
   -9.0853   11.1620    1.6968 C   0  0  0  0  0  0  0  0  0  0  0  0
   -9.6463   10.5247   -1.9667 C   0  0  0  0  0  0  0  0  0  0  0  0
   -9.6778   11.8690   -2.3631 O   0  0  0  0  0  0  0  0  0  0  0  0
   -9.6744   12.3083   -3.7169 C   0  0  0  0  0  0  0  0  0  0  0  0
   -9.8092    9.4693   -2.9014 C   0  0  0  0  0  0  0  0  0  0  0  0
   -9.7332    8.1441   -2.4493 C   0  0  0  0  0  0  0  0  0  0  0  0
   -9.7702    6.8647   -3.2088 C   0  0  0  0  0  0  0  0  0  0  0  0
  -10.4115    6.6249   -4.3762 C   0  0  0  0  0  0  0  0  0  0  0  0
  -10.5638    5.2859   -4.8897 C   0  0  0  0  0  0  0  0  0  0  0  0
  -10.6806    4.2114   -5.3039 N   0  0  0  0  0  0  0  0  0  0  0  0
  -11.0655    7.6676   -5.1221 C   0  0  0  0  0  0  0  0  0  0  0  0
  -11.5967    8.4968   -5.7319 N   0  0  0  0  0  0  0  0  0  0  0  0
    6.5941   -5.1182   -2.2411 H   0  0  0  0  0  0  0  0  0  0  0  0
    8.9766   -7.7971    2.9080 H   0  0  0  0  0  0  0  0  0  0  0  0
   10.1070   -9.4718   -1.7809 H   0  0  0  0  0  0  0  0  0  0  0  0
   11.2857  -11.5884    0.7199 H   0  0  0  0  0  0  0  0  0  0  0  0
   13.3120  -10.0679   -0.4222 H   0  0  0  0  0  0  0  0  0  0  0  0
   14.5576  -11.6249    1.3304 H   0  0  0  0  0  0  0  0  0  0  0  0
   14.0238  -10.7475    3.7314 H   0  0  0  0  0  0  0  0  0  0  0  0
   12.4480   -8.6231    3.5161 H   0  0  0  0  0  0  0  0  0  0  0  0
   12.3843   -7.9332    0.9176 H   0  0  0  0  0  0  0  0  0  0  0  0
   14.0753   -8.3196    1.4397 H   0  0  0  0  0  0  0  0  0  0  0  0
   10.7968  -10.7774    2.9322 H   0  0  0  0  0  0  0  0  0  0  0  0
    6.1710   -1.4157   -0.8772 H   0  0  0  0  0  0  0  0  0  0  0  0
    7.7602   -0.6173   -2.5809 H   0  0  0  0  0  0  0  0  0  0  0  0
   11.2085   -2.0385   -3.0196 H   0  0  0  0  0  0  0  0  0  0  0  0
    9.8656   -1.1770   -3.8480 H   0  0  0  0  0  0  0  0  0  0  0  0
   10.7932   -0.3417   -2.5401 H   0  0  0  0  0  0  0  0  0  0  0  0
   10.8491   -3.0687   -0.8146 H   0  0  0  0  0  0  0  0  0  0  0  0
    9.2460   -3.8581    0.8827 H   0  0  0  0  0  0  0  0  0  0  0  0
    5.5959   -4.4435    3.2552 H   0  0  0  0  0  0  0  0  0  0  0  0
    5.9138   -3.8560    5.6102 H   0  0  0  0  0  0  0  0  0  0  0  0
    6.4524   -1.2612    7.0118 H   0  0  0  0  0  0  0  0  0  0  0  0
    7.5162   -2.7098    7.2657 H   0  0  0  0  0  0  0  0  0  0  0  0
    8.2454   -1.1306    6.7934 H   0  0  0  0  0  0  0  0  0  0  0  0
    8.3682   -0.5083    4.4618 H   0  0  0  0  0  0  0  0  0  0  0  0
    8.0548   -1.0740    2.1082 H   0  0  0  0  0  0  0  0  0  0  0  0
    3.8760   -1.5559   -1.4707 H   0  0  0  0  0  0  0  0  0  0  0  0
    4.7496   -0.0206   -3.1252 H   0  0  0  0  0  0  0  0  0  0  0  0
    2.8198    2.0883   -5.0441 H   0  0  0  0  0  0  0  0  0  0  0  0
    4.4790    1.3825   -5.0394 H   0  0  0  0  0  0  0  0  0  0  0  0
    3.2705    0.8199   -6.2501 H   0  0  0  0  0  0  0  0  0  0  0  0
    0.9588   -0.0157   -5.1624 H   0  0  0  0  0  0  0  0  0  0  0  0
    0.0806   -1.6063   -3.5536 H   0  0  0  0  0  0  0  0  0  0  0  0
   -1.2916   -2.2379   -1.3326 H   0  0  0  0  0  0  0  0  0  0  0  0
   -3.0109   -3.5471   -2.4827 H   0  0  0  0  0  0  0  0  0  0  0  0
   -2.4595   -5.4668   -5.1142 H   0  0  0  0  0  0  0  0  0  0  0  0
   -3.6795   -5.4729   -3.7959 H   0  0  0  0  0  0  0  0  0  0  0  0
   -2.5378   -6.8621   -3.9623 H   0  0  0  0  0  0  0  0  0  0  0  0
   -0.0110   -6.3508   -3.7615 H   0  0  0  0  0  0  0  0  0  0  0  0
    1.6929   -5.0332   -2.6339 H   0  0  0  0  0  0  0  0  0  0  0  0
    0.9981   -3.7055    3.1422 H   0  0  0  0  0  0  0  0  0  0  0  0
    1.2207   -3.7948    5.6038 H   0  0  0  0  0  0  0  0  0  0  0  0
   -1.7009   -4.1334    8.9717 H   0  0  0  0  0  0  0  0  0  0  0  0
   -2.5538   -3.5008    7.5159 H   0  0  0  0  0  0  0  0  0  0  0  0
   -1.2723   -4.7734    7.3372 H   0  0  0  0  0  0  0  0  0  0  0  0
   -2.1623   -1.1669    6.0064 H   0  0  0  0  0  0  0  0  0  0  0  0
   -2.3762   -1.0607    3.5483 H   0  0  0  0  0  0  0  0  0  0  0  0
   -0.2597   -4.8540    1.0530 H   0  0  0  0  0  0  0  0  0  0  0  0
   -1.8746   -6.6483    0.5292 H   0  0  0  0  0  0  0  0  0  0  0  0
   -3.8678   -7.0415   -1.7664 H   0  0  0  0  0  0  0  0  0  0  0  0
   -4.8400   -5.5089   -1.7184 H   0  0  0  0  0  0  0  0  0  0  0  0
   -5.6746   -7.1088   -1.7805 H   0  0  0  0  0  0  0  0  0  0  0  0
   -5.1051   -3.8268    0.8624 H   0  0  0  0  0  0  0  0  0  0  0  0
   -3.5037   -2.0565    1.4152 H   0  0  0  0  0  0  0  0  0  0  0  0
   -1.6843    5.7400    1.0236 H   0  0  0  0  0  0  0  0  0  0  0  0
   -0.2712    7.7044    0.5282 H   0  0  0  0  0  0  0  0  0  0  0  0
    3.1204    8.0191    3.0526 H   0  0  0  0  0  0  0  0  0  0  0  0
    1.6087    8.9661    2.7407 H   0  0  0  0  0  0  0  0  0  0  0  0
    3.2273    9.6992    2.4140 H   0  0  0  0  0  0  0  0  0  0  0  0
    3.2244    5.4871    1.7126 H   0  0  0  0  0  0  0  0  0  0  0  0
    1.8091    3.5375    2.2432 H   0  0  0  0  0  0  0  0  0  0  0  0
   -1.7461    5.5159    3.5205 H   0  0  0  0  0  0  0  0  0  0  0  0
   -2.8022    5.4413    5.7181 H   0  0  0  0  0  0  0  0  0  0  0  0
   -5.1773    1.9680    6.3368 H   0  0  0  0  0  0  0  0  0  0  0  0
   -5.3992    3.7462    6.0581 H   0  0  0  0  0  0  0  0  0  0  0  0
   -5.8959    3.0049    7.6294 H   0  0  0  0  0  0  0  0  0  0  0  0
   -2.4875    1.1641    5.7584 H   0  0  0  0  0  0  0  0  0  0  0  0
   -1.4046    1.2055    3.5718 H   0  0  0  0  0  0  0  0  0  0  0  0
   -2.7723    6.7645   -1.9571 H   0  0  0  0  0  0  0  0  0  0  0  0
   -3.2414    8.1732   -3.9270 H   0  0  0  0  0  0  0  0  0  0  0  0
   -3.2756    8.4548   -6.3391 H   0  0  0  0  0  0  0  0  0  0  0  0
   -4.5206    7.2225   -6.7992 H   0  0  0  0  0  0  0  0  0  0  0  0
   -2.8215    7.0763   -7.4091 H   0  0  0  0  0  0  0  0  0  0  0  0
   -2.9323    4.7002   -6.4713 H   0  0  0  0  0  0  0  0  0  0  0  0
   -2.4786    3.2989   -4.4954 H   0  0  0  0  0  0  0  0  0  0  0  0
   -1.3571    1.5968   -2.1227 H   0  0  0  0  0  0  0  0  0  0  0  0
    0.9957    0.9438   -1.8062 H   0  0  0  0  0  0  0  0  0  0  0  0
    3.2635    2.6382   -0.1164 H   0  0  0  0  0  0  0  0  0  0  0  0
    3.8421    3.2804   -1.7040 H   0  0  0  0  0  0  0  0  0  0  0  0
    3.3548    1.5583   -1.5413 H   0  0  0  0  0  0  0  0  0  0  0  0
    2.0979    5.0857   -1.4172 H   0  0  0  0  0  0  0  0  0  0  0  0
   -0.2550    5.7263   -1.6714 H   0  0  0  0  0  0  0  0  0  0  0  0
   -7.2956    4.7516    1.7506 H   0  0  0  0  0  0  0  0  0  0  0  0
   -7.4454    4.4801    4.1763 H   0  0  0  0  0  0  0  0  0  0  0  0
   -8.5667    3.3503    6.0769 H   0  0  0  0  0  0  0  0  0  0  0  0
   -9.3681    1.7549    5.8418 H   0  0  0  0  0  0  0  0  0  0  0  0
   -7.5673    1.8449    5.9177 H   0  0  0  0  0  0  0  0  0  0  0  0
   -9.2467    0.6020    3.6363 H   0  0  0  0  0  0  0  0  0  0  0  0
   -9.1042    0.8685    1.2099 H   0  0  0  0  0  0  0  0  0  0  0  0
   -7.4937    1.3732   -2.1987 H   0  0  0  0  0  0  0  0  0  0  0  0
   -9.0305    0.1579   -3.6777 H   0  0  0  0  0  0  0  0  0  0  0  0
  -11.3213    0.0298   -4.6363 H   0  0  0  0  0  0  0  0  0  0  0  0
  -11.9391   -0.8582   -3.1871 H   0  0  0  0  0  0  0  0  0  0  0  0
  -12.7288    0.6804   -3.7256 H   0  0  0  0  0  0  0  0  0  0  0  0
  -12.3894    1.8187   -1.5442 H   0  0  0  0  0  0  0  0  0  0  0  0
  -10.8444    3.0482   -0.0721 H   0  0  0  0  0  0  0  0  0  0  0  0
   -8.3330    4.6238   -3.7695 H   0  0  0  0  0  0  0  0  0  0  0  0
   -9.0598    8.6347    0.8419 H   0  0  0  0  0  0  0  0  0  0  0  0
   -9.0076   12.1708    2.1550 H   0  0  0  0  0  0  0  0  0  0  0  0
   -8.1281   10.6258    1.8758 H   0  0  0  0  0  0  0  0  0  0  0  0
   -9.9231   10.6092    2.1743 H   0  0  0  0  0  0  0  0  0  0  0  0
   -9.6552   13.4150   -3.7382 H   0  0  0  0  0  0  0  0  0  0  0  0
   -8.7666   11.9283   -4.2359 H   0  0  0  0  0  0  0  0  0  0  0  0
  -10.5915   11.9550   -4.2366 H   0  0  0  0  0  0  0  0  0  0  0  0
   -9.9291    9.6818   -3.9513 H   0  0  0  0  0  0  0  0  0  0  0  0
  1  2  2  3
  2  3  1  0
  3  4  2  0
  3  5  1  0
  5  6  2  0
  6  7  1  0
  7  8  2  0
  8  9  1  0
  9 10  2  0
 10 11  1  0
 11 12  2  3
 12 13  1  0
 13 14  3  0
 12 15  1  0
 15 16  3  0
  8 17  1  0
 17 18  1  0
 18 19  1  0
 19 20  2  0
 20 21  1  0
 21 22  1  0
 21 23  1  0
  1 24  1  0
 24 25  2  0
 25 26  1  0
 26 27  1  0
 27 28  2  0
 28 29  1  0
 29 30  2  0
 30 31  1  0
 30 32  1  0
 32 33  2  0
 26 34  1  0
 34 35  2  0
 35 36  1  0
 36 37  2  0
 37 38  1  0
 37 39  1  0
 39 40  2  0
 25 41  1  0
 41 42  1  0
 42 43  1  0
 43 44  2  0
 44 45  1  0
 45 46  1  0
 46 47  2  0
 47 48  1  0
 48 49  2  0
 49 50  1  0
 49 51  1  0
 51 52  2  0
 45 53  1  0
 53 54  2  0
 54 55  1  0
 55 56  2  0
 56 57  1  0
 56 58  1  0
 58 59  2  0
 44 60  1  0
 60 61  1  0
 43 62  1  0
 62 63  2  0
 63 64  1  0
 64 65  1  0
 65 66  2  0
 66 67  1  0
 67 68  2  0
 68 69  1  0
 69 70  1  0
 68 71  1  0
 71 72  2  0
 64 73  1  0
 73 74  2  0
 74 75  1  0
 75 76  2  0
 76 77  1  0
 77 78  1  0
 76 79  1  0
 79 80  2  0
 63 81  1  0
 81 82  1  0
 82 83  1  0
 83 84  2  0
 84 85  1  0
 85 86  1  0
 86 87  2  0
 87 88  1  0
 88 89  2  0
 89 90  1  0
 90 91  1  0
 89 92  1  0
 92 93  2  0
 85 94  1  0
 94 95  2  0
 95 96  1  0
 96 97  2  0
 97 98  1  0
 98 99  1  0
 97100  1  0
100101  2  0
 84102  1  0
102103  1  0
 83104  1  0
104105  2  0
105106  1  0
106107  1  0
107108  2  0
108109  1  0
109110  2  0
110111  1  0
110112  1  0
112113  2  0
106114  1  0
114115  2  0
115116  1  0
116117  2  0
117118  1  0
117119  1  0
119120  2  0
105121  1  0
121122  1  0
122123  1  0
123124  2  0
124125  1  0
125126  1  0
126127  2  0
127128  1  0
128129  2  0
129130  1  0
129131  1  0
131132  2  0
125133  1  0
133134  2  0
134135  1  0
135136  2  0
136137  1  0
136138  1  0
138139  2  0
124140  1  0
140141  1  0
123142  1  0
142143  2  3
143144  1  0
144145  2  0
144146  1  0
146147  2  0
147148  1  0
148149  1  0
149150  1  0
148151  2  0
151152  1  0
152153  1  0
151154  1  0
154155  2  0
155156  1  0
156157  2  3
157158  1  0
158159  3  0
157160  1  0
160161  3  0
 11  2  1  0
 23 17  1  0
 61 24  1  0
103 62  1  0
141104  1  0
156143  1  0
 10  5  1  0
 22 18  1  0
 33 27  1  0
 40 34  1  0
 60 41  2  0
 72 65  1  0
 80 73  1  0
102 81  2  0
113107  1  0
120114  1  0
140121  2  0
155146  1  0
 23  7  1  0
 52 46  1  0
 59 53  1  0
 93 86  1  0
101 94  1  0
132126  1  0
139133  1  0
  1162  1  0
  6163  1  0
  9164  1  0
 17165  1  0
 18166  1  0
 19167  1  0
 20168  1  0
 21169  1  0
 22170  1  0
 22171  1  0
 23172  1  0
 28173  1  0
 29174  1  0
 31175  1  0
 31176  1  0
 31177  1  0
 32178  1  0
 33179  1  0
 35180  1  0
 36181  1  0
 38182  1  0
 38183  1  0
 38184  1  0
 39185  1  0
 40186  1  0
 47187  1  0
 48188  1  0
 50189  1  0
 50190  1  0
 50191  1  0
 51192  1  0
 52193  1  0
 54194  1  0
 55195  1  0
 57196  1  0
 57197  1  0
 57198  1  0
 58199  1  0
 59200  1  0
 66201  1  0
 67202  1  0
 70203  1  0
 70204  1  0
 70205  1  0
 71206  1  0
 72207  1  0
 74208  1  0
 75209  1  0
 78210  1  0
 78211  1  0
 78212  1  0
 79213  1  0
 80214  1  0
 87215  1  0
 88216  1  0
 91217  1  0
 91218  1  0
 91219  1  0
 92220  1  0
 93221  1  0
 95222  1  0
 96223  1  0
 99224  1  0
 99225  1  0
 99226  1  0
100227  1  0
101228  1  0
108229  1  0
109230  1  0
111231  1  0
111232  1  0
111233  1  0
112234  1  0
113235  1  0
115236  1  0
116237  1  0
118238  1  0
118239  1  0
118240  1  0
119241  1  0
120242  1  0
127243  1  0
128244  1  0
130245  1  0
130246  1  0
130247  1  0
131248  1  0
132249  1  0
134250  1  0
135251  1  0
137252  1  0
137253  1  0
137254  1  0
138255  1  0
139256  1  0
142257  1  0
147258  1  0
150259  1  0
150260  1  0
150261  1  0
153262  1  0
153263  1  0
153264  1  0
154265  1  0
M  END

