
     RDKit          3D

225248  0  0  0  0  0  0  0  0999 V2000
    2.8110    3.2478    7.0457 C   0  0  0  0  0  0  0  0  0  0  0  0
    3.6983    2.2376    6.9840 C   0  0  0  0  0  0  0  0  0  0  0  0
    5.1962    2.3057    7.2008 C   0  0  0  0  0  0  0  0  0  0  0  0
    5.8233    3.0461    8.0103 O   0  0  0  0  0  0  0  0  0  0  0  0
    5.8384    1.2413    6.3682 C   0  0  0  0  0  0  0  0  0  0  0  0
    7.1613    0.7238    6.1830 C   0  0  0  0  0  0  0  0  0  0  0  0
    7.3282   -0.3018    5.2447 C   0  0  0  0  0  0  0  0  0  0  0  0
    6.1781   -0.7494    4.4983 C   0  0  0  0  0  0  0  0  0  0  0  0
    4.9466   -0.2590    4.6766 C   0  0  0  0  0  0  0  0  0  0  0  0
    4.7306    0.6767    5.6284 C   0  0  0  0  0  0  0  0  0  0  0  0
    3.4049    1.0640    6.1538 C   0  0  0  0  0  0  0  0  0  0  0  0
    2.7595    0.0127    6.7028 C   0  0  0  0  0  0  0  0  0  0  0  0
    1.8552   -0.6994    5.8485 C   0  0  0  0  0  0  0  0  0  0  0  0
    1.0457   -0.9619    5.0205 N   0  0  0  0  0  0  0  0  0  0  0  0
    2.4688    0.0582    8.0299 C   0  0  0  0  0  0  0  0  0  0  0  0
    2.0619    0.2688    9.1499 N   0  0  0  0  0  0  0  0  0  0  0  0
    6.9987   -1.6572    3.6831 C   0  0  0  0  0  0  0  0  0  0  0  0
    7.3031   -1.1234    2.2342 C   0  0  0  0  0  0  0  0  0  0  0  0
    8.3225   -2.0757    1.6778 C   0  0  0  0  0  0  0  0  0  0  0  0
    9.4015   -1.9005    2.4239 C   0  0  0  0  0  0  0  0  0  0  0  0
    9.1297   -0.7634    3.3957 C   0  0  0  0  0  0  0  0  0  0  0  0
    8.2142    0.0604    2.5114 C   0  0  0  0  0  0  0  0  0  0  0  0
    8.1706   -1.3295    4.4572 C   0  0  0  0  0  0  0  0  0  0  0  0
    1.6066    3.3125    6.1730 C   0  0  0  0  0  0  0  0  0  0  0  0
    0.2899    2.7261    6.2367 C   0  0  0  0  0  0  0  0  0  0  0  0
   -0.4473    2.4284    7.4440 N   0  0  0  0  0  0  0  0  0  0  0  0
   -1.1371    3.5874    8.0266 C   0  0  0  0  0  0  0  0  0  0  0  0
   -1.2968    4.7439    7.2385 C   0  0  0  0  0  0  0  0  0  0  0  0
   -1.9295    5.8682    7.7026 C   0  0  0  0  0  0  0  0  0  0  0  0
   -2.4427    5.8406    9.0315 C   0  0  0  0  0  0  0  0  0  0  0  0
   -3.2392    7.0147    9.5104 C   0  0  0  0  0  0  0  0  0  0  0  0
   -2.3221    4.7205    9.8307 C   0  0  0  0  0  0  0  0  0  0  0  0
   -1.6844    3.5854    9.3214 C   0  0  0  0  0  0  0  0  0  0  0  0
   -0.8217    1.0769    7.8683 C   0  0  0  0  0  0  0  0  0  0  0  0
   -0.6531    0.6543    9.2155 C   0  0  0  0  0  0  0  0  0  0  0  0
   -1.1747   -0.5607    9.6886 C   0  0  0  0  0  0  0  0  0  0  0  0
   -1.8367   -1.4154    8.8276 C   0  0  0  0  0  0  0  0  0  0  0  0
   -2.4644   -2.7002    9.3510 C   0  0  0  0  0  0  0  0  0  0  0  0
   -1.9569   -1.1003    7.4594 C   0  0  0  0  0  0  0  0  0  0  0  0
   -1.4346    0.1461    6.9949 C   0  0  0  0  0  0  0  0  0  0  0  0
   -0.3201    2.6415    4.9408 C   0  0  0  0  0  0  0  0  0  0  0  0
   -1.8380    2.2262    4.4059 S   0  0  0  0  0  0  0  0  0  0  0  0
   -1.4265    2.3564    2.7698 C   0  0  0  0  0  0  0  0  0  0  0  0
   -0.1186    2.8408    2.6424 C   0  0  0  0  0  0  0  0  0  0  0  0
    0.7148    2.7258    1.4510 N   0  0  0  0  0  0  0  0  0  0  0  0
    1.3536    1.4163    1.1727 C   0  0  0  0  0  0  0  0  0  0  0  0
    1.7590    0.6323    2.2701 C   0  0  0  0  0  0  0  0  0  0  0  0
    2.2614   -0.6807    2.0879 C   0  0  0  0  0  0  0  0  0  0  0  0
    2.5398   -1.1630    0.8359 C   0  0  0  0  0  0  0  0  0  0  0  0
    3.1896   -2.5046    0.7064 C   0  0  0  0  0  0  0  0  0  0  0  0
    2.1290   -0.4286   -0.2680 C   0  0  0  0  0  0  0  0  0  0  0  0
    1.5319    0.8450   -0.1290 C   0  0  0  0  0  0  0  0  0  0  0  0
    0.8070    3.8434    0.5751 C   0  0  0  0  0  0  0  0  0  0  0  0
    1.3058    5.0758    1.0020 C   0  0  0  0  0  0  0  0  0  0  0  0
    1.4189    6.1588    0.1469 C   0  0  0  0  0  0  0  0  0  0  0  0
    1.2071    5.9669   -1.2383 C   0  0  0  0  0  0  0  0  0  0  0  0
    1.4765    7.0929   -2.1996 C   0  0  0  0  0  0  0  0  0  0  0  0
    0.6528    4.7741   -1.6767 C   0  0  0  0  0  0  0  0  0  0  0  0
    0.4090    3.7398   -0.7858 C   0  0  0  0  0  0  0  0  0  0  0  0
    0.4159    3.0716    3.9376 C   0  0  0  0  0  0  0  0  0  0  0  0
    1.7327    3.9346    4.5224 S   0  0  0  0  0  0  0  0  0  0  0  0
   -2.2088    1.9552    1.5842 C   0  0  0  0  0  0  0  0  0  0  0  0
   -2.5492    2.8942    0.5924 C   0  0  0  0  0  0  0  0  0  0  0  0
   -2.4417    4.2374    0.9319 N   0  0  0  0  0  0  0  0  0  0  0  0
   -2.7854    5.1697    0.0246 C   0  0  0  0  0  0  0  0  0  0  0  0
   -3.1385    4.8272   -1.2632 C   0  0  0  0  0  0  0  0  0  0  0  0
   -3.1299    5.8673   -2.1976 O   0  0  0  0  0  0  0  0  0  0  0  0
   -3.8600    6.2794   -3.3859 C   0  0  0  0  0  0  0  0  0  0  0  0
   -5.4338    6.3650   -3.3111 C   0  0  0  0  0  0  0  0  0  0  0  0
   -3.2326    3.4421   -1.5667 N   0  0  0  0  0  0  0  0  0  0  0  0
   -2.9993    2.4709   -0.6468 C   0  0  0  0  0  0  0  0  0  0  0  0
   -3.0807    1.0879   -0.8928 C   0  0  0  0  0  0  0  0  0  0  0  0
   -2.9890    0.1839    0.1887 C   0  0  0  0  0  0  0  0  0  0  0  0
   -2.4599    0.5752    1.4176 C   0  0  0  0  0  0  0  0  0  0  0  0
   -2.2012   -0.3431    2.3765 F   0  0  0  0  0  0  0  0  0  0  0  0
   -3.2989   -1.1450    0.0845 F   0  0  0  0  0  0  0  0  0  0  0  0
   -3.0197    0.5402   -2.3106 C   0  0  0  0  0  0  0  0  0  0  0  0
   -2.8661    1.2486   -3.4986 C   0  0  0  0  0  0  0  0  0  0  0  0
   -3.8735    2.2651   -3.9187 N   0  0  0  0  0  0  0  0  0  0  0  0
   -5.2604    1.9420   -3.6719 C   0  0  0  0  0  0  0  0  0  0  0  0
   -5.9320    2.0081   -2.4045 C   0  0  0  0  0  0  0  0  0  0  0  0
   -7.2626    1.6712   -2.2493 C   0  0  0  0  0  0  0  0  0  0  0  0
   -8.0090    1.1952   -3.3466 C   0  0  0  0  0  0  0  0  0  0  0  0
   -9.7609    0.8644   -3.1809 S   0  0  0  0  0  0  0  0  0  0  0  0
   -9.6046   -0.8826   -2.7269 C   0  0  0  0  0  0  0  0  0  0  0  0
   -7.3583    1.1183   -4.6061 C   0  0  0  0  0  0  0  0  0  0  0  0
   -6.0432    1.4220   -4.7425 C   0  0  0  0  0  0  0  0  0  0  0  0
   -3.4346    3.2858   -4.8918 C   0  0  0  0  0  0  0  0  0  0  0  0
   -4.4057    3.9338   -5.7110 C   0  0  0  0  0  0  0  0  0  0  0  0
   -3.9760    4.5834   -6.8437 C   0  0  0  0  0  0  0  0  0  0  0  0
   -2.6289    4.6811   -7.1875 C   0  0  0  0  0  0  0  0  0  0  0  0
   -2.1688    5.6812   -8.5855 S   0  0  0  0  0  0  0  0  0  0  0  0
   -2.6437    4.5224   -9.8880 C   0  0  0  0  0  0  0  0  0  0  0  0
   -1.6727    4.1947   -6.2977 C   0  0  0  0  0  0  0  0  0  0  0  0
   -2.0939    3.5331   -5.1346 C   0  0  0  0  0  0  0  0  0  0  0  0
   -2.2597    0.4365   -4.4999 C   0  0  0  0  0  0  0  0  0  0  0  0
   -0.7816    0.7717   -5.2907 S   0  0  0  0  0  0  0  0  0  0  0  0
   -0.2512   -0.8218   -5.4674 C   0  0  0  0  0  0  0  0  0  0  0  0
   -1.2718   -1.6567   -4.9781 C   0  0  0  0  0  0  0  0  0  0  0  0
   -1.3302   -3.1539   -5.1941 N   0  0  0  0  0  0  0  0  0  0  0  0
   -2.2592   -3.9037   -4.3773 C   0  0  0  0  0  0  0  0  0  0  0  0
   -3.6284   -3.5646   -4.3681 C   0  0  0  0  0  0  0  0  0  0  0  0
   -4.5210   -4.1423   -3.4819 C   0  0  0  0  0  0  0  0  0  0  0  0
   -4.1111   -5.2409   -2.7134 C   0  0  0  0  0  0  0  0  0  0  0  0
   -5.3115   -6.0573   -1.6281 S   0  0  0  0  0  0  0  0  0  0  0  0
   -5.7135   -7.3542   -2.8174 C   0  0  0  0  0  0  0  0  0  0  0  0
   -2.7823   -5.6678   -2.7426 C   0  0  0  0  0  0  0  0  0  0  0  0
   -1.8566   -4.9937   -3.5412 C   0  0  0  0  0  0  0  0  0  0  0  0
   -0.7256   -3.7857   -6.3851 C   0  0  0  0  0  0  0  0  0  0  0  0
   -0.4911   -3.0787   -7.5715 C   0  0  0  0  0  0  0  0  0  0  0  0
    0.0928   -3.6390   -8.7030 C   0  0  0  0  0  0  0  0  0  0  0  0
    0.3777   -5.0334   -8.7126 C   0  0  0  0  0  0  0  0  0  0  0  0
    0.7662   -5.8594  -10.2613 S   0  0  0  0  0  0  0  0  0  0  0  0
    2.5800   -5.8897  -10.1182 C   0  0  0  0  0  0  0  0  0  0  0  0
    0.1413   -5.7841   -7.5728 C   0  0  0  0  0  0  0  0  0  0  0  0
   -0.3853   -5.1964   -6.4212 C   0  0  0  0  0  0  0  0  0  0  0  0
   -2.2333   -0.9104   -4.2935 C   0  0  0  0  0  0  0  0  0  0  0  0
   -2.6134   -1.0572   -2.6358 S   0  0  0  0  0  0  0  0  0  0  0  0
    1.1350   -1.2706   -5.7352 C   0  0  0  0  0  0  0  0  0  0  0  0
    1.8702   -1.9851   -4.8823 C   0  0  0  0  0  0  0  0  0  0  0  0
    1.3981   -2.4739   -3.6023 C   0  0  0  0  0  0  0  0  0  0  0  0
    0.5373   -1.9394   -2.8526 O   0  0  0  0  0  0  0  0  0  0  0  0
    2.2759   -3.4886   -3.0959 C   0  0  0  0  0  0  0  0  0  0  0  0
    2.1450   -4.1463   -1.8718 C   0  0  0  0  0  0  0  0  0  0  0  0
    3.1591   -5.0555   -1.6148 C   0  0  0  0  0  0  0  0  0  0  0  0
    4.2331   -5.3002   -2.5142 C   0  0  0  0  0  0  0  0  0  0  0  0
    4.4086   -4.6420   -3.7532 C   0  0  0  0  0  0  0  0  0  0  0  0
    3.3521   -3.6979   -4.0323 C   0  0  0  0  0  0  0  0  0  0  0  0
    3.1757   -2.7280   -5.1691 C   0  0  0  0  0  0  0  0  0  0  0  0
    4.1084   -2.4246   -6.1318 C   0  0  0  0  0  0  0  0  0  0  0  0
    5.3465   -3.2047   -6.3084 C   0  0  0  0  0  0  0  0  0  0  0  0
    6.3097   -3.8193   -6.4809 N   0  0  0  0  0  0  0  0  0  0  0  0
    4.0245   -1.2081   -6.9499 C   0  0  0  0  0  0  0  0  0  0  0  0
    3.9862   -0.2403   -7.5623 N   0  0  0  0  0  0  0  0  0  0  0  0
    4.7377   -6.3877   -1.6247 C   0  0  0  0  0  0  0  0  0  0  0  0
    4.4247   -7.8469   -2.0603 C   0  0  0  0  0  0  0  0  0  0  0  0
    4.6584   -8.7113   -0.8428 C   0  0  0  0  0  0  0  0  0  0  0  0
    3.6978   -8.4128    0.0419 C   0  0  0  0  0  0  0  0  0  0  0  0
    2.8060   -7.3980   -0.6467 C   0  0  0  0  0  0  0  0  0  0  0  0
    2.8978   -7.9185   -2.0852 C   0  0  0  0  0  0  0  0  0  0  0  0
    3.6614   -6.0976   -0.6772 C   0  0  0  0  0  0  0  0  0  0  0  0
    2.7074    3.8290    7.9959 H   0  0  0  0  0  0  0  0  0  0  0  0
    8.0263    1.0965    6.7901 H   0  0  0  0  0  0  0  0  0  0  0  0
    4.1187   -0.6708    4.1041 H   0  0  0  0  0  0  0  0  0  0  0  0
    6.6422   -2.7284    3.7894 H   0  0  0  0  0  0  0  0  0  0  0  0
    6.4268   -0.9502    1.5638 H   0  0  0  0  0  0  0  0  0  0  0  0
    8.1896   -2.8150    0.8803 H   0  0  0  0  0  0  0  0  0  0  0  0
   10.2578   -2.5985    2.4232 H   0  0  0  0  0  0  0  0  0  0  0  0
   10.0233   -0.2377    3.7577 H   0  0  0  0  0  0  0  0  0  0  0  0
    8.7247    0.4310    1.5498 H   0  0  0  0  0  0  0  0  0  0  0  0
    7.7294    0.9314    2.9513 H   0  0  0  0  0  0  0  0  0  0  0  0
    8.5286   -2.1378    5.1445 H   0  0  0  0  0  0  0  0  0  0  0  0
   -0.9450    4.8700    6.2432 H   0  0  0  0  0  0  0  0  0  0  0  0
   -2.0329    6.6937    7.0352 H   0  0  0  0  0  0  0  0  0  0  0  0
   -2.7978    7.3315   10.4760 H   0  0  0  0  0  0  0  0  0  0  0  0
   -4.3059    6.6949    9.5952 H   0  0  0  0  0  0  0  0  0  0  0  0
   -3.1610    7.8806    8.7824 H   0  0  0  0  0  0  0  0  0  0  0  0
   -2.7374    4.7104   10.8645 H   0  0  0  0  0  0  0  0  0  0  0  0
   -1.6521    2.7603   10.0146 H   0  0  0  0  0  0  0  0  0  0  0  0
   -0.0819    1.2225    9.9341 H   0  0  0  0  0  0  0  0  0  0  0  0
   -1.0803   -0.7962   10.7571 H   0  0  0  0  0  0  0  0  0  0  0  0
   -1.9674   -3.5571    8.8511 H   0  0  0  0  0  0  0  0  0  0  0  0
   -3.5579   -2.7288    9.1252 H   0  0  0  0  0  0  0  0  0  0  0  0
   -2.3413   -2.8025   10.4477 H   0  0  0  0  0  0  0  0  0  0  0  0
   -2.4419   -1.7921    6.8117 H   0  0  0  0  0  0  0  0  0  0  0  0
   -1.5702    0.2677    5.9574 H   0  0  0  0  0  0  0  0  0  0  0  0
    1.6689    0.9422    3.3289 H   0  0  0  0  0  0  0  0  0  0  0  0
    2.3796   -1.3813    2.9114 H   0  0  0  0  0  0  0  0  0  0  0  0
    3.8405   -2.6572    1.5595 H   0  0  0  0  0  0  0  0  0  0  0  0
    3.7823   -2.5198   -0.2255 H   0  0  0  0  0  0  0  0  0  0  0  0
    2.3635   -3.2170    0.7107 H   0  0  0  0  0  0  0  0  0  0  0  0
    2.2294   -0.8424   -1.2699 H   0  0  0  0  0  0  0  0  0  0  0  0
    1.1952    1.3016   -1.0772 H   0  0  0  0  0  0  0  0  0  0  0  0
    1.5068    5.2121    2.0576 H   0  0  0  0  0  0  0  0  0  0  0  0
    1.7953    7.0978    0.5350 H   0  0  0  0  0  0  0  0  0  0  0  0
    1.1664    6.8059   -3.2433 H   0  0  0  0  0  0  0  0  0  0  0  0
    2.5667    7.3244   -2.1729 H   0  0  0  0  0  0  0  0  0  0  0  0
    0.8694    7.9915   -1.9426 H   0  0  0  0  0  0  0  0  0  0  0  0
    0.4500    4.6401   -2.7653 H   0  0  0  0  0  0  0  0  0  0  0  0
   -0.2220    2.9289   -1.1740 H   0  0  0  0  0  0  0  0  0  0  0  0
   -2.5934    6.2527    0.3340 H   0  0  0  0  0  0  0  0  0  0  0  0
   -3.5416    7.3836   -3.5203 H   0  0  0  0  0  0  0  0  0  0  0  0
   -3.5295    5.8802   -4.3782 H   0  0  0  0  0  0  0  0  0  0  0  0
   -5.8448    6.9081   -4.1793 H   0  0  0  0  0  0  0  0  0  0  0  0
   -5.8197    6.8840   -2.3998 H   0  0  0  0  0  0  0  0  0  0  0  0
   -5.8529    5.3366   -3.3623 H   0  0  0  0  0  0  0  0  0  0  0  0
   -5.4409    2.4134   -1.5306 H   0  0  0  0  0  0  0  0  0  0  0  0
   -7.7307    1.7643   -1.2480 H   0  0  0  0  0  0  0  0  0  0  0  0
   -8.8075   -1.4105   -3.2829 H   0  0  0  0  0  0  0  0  0  0  0  0
  -10.5571   -1.3718   -2.9714 H   0  0  0  0  0  0  0  0  0  0  0  0
   -9.4861   -0.9740   -1.6411 H   0  0  0  0  0  0  0  0  0  0  0  0
   -7.9601    0.9278   -5.5096 H   0  0  0  0  0  0  0  0  0  0  0  0
   -5.6338    1.3099   -5.7351 H   0  0  0  0  0  0  0  0  0  0  0  0
   -5.4594    4.0282   -5.4176 H   0  0  0  0  0  0  0  0  0  0  0  0
   -4.7850    5.0268   -7.4521 H   0  0  0  0  0  0  0  0  0  0  0  0
   -3.7042    4.2457   -9.8223 H   0  0  0  0  0  0  0  0  0  0  0  0
   -1.9908    3.6424   -9.8439 H   0  0  0  0  0  0  0  0  0  0  0  0
   -2.4724    5.0217  -10.8596 H   0  0  0  0  0  0  0  0  0  0  0  0
   -0.6224    4.3794   -6.4664 H   0  0  0  0  0  0  0  0  0  0  0  0
   -1.3459    3.2258   -4.4128 H   0  0  0  0  0  0  0  0  0  0  0  0
   -3.9981   -2.7259   -4.9500 H   0  0  0  0  0  0  0  0  0  0  0  0
   -5.4962   -3.6794   -3.3156 H   0  0  0  0  0  0  0  0  0  0  0  0
   -6.7660   -7.6287   -2.6538 H   0  0  0  0  0  0  0  0  0  0  0  0
   -5.1122   -8.2476   -2.6147 H   0  0  0  0  0  0  0  0  0  0  0  0
   -5.5933   -7.0099   -3.8611 H   0  0  0  0  0  0  0  0  0  0  0  0
   -2.4752   -6.5558   -2.1775 H   0  0  0  0  0  0  0  0  0  0  0  0
   -0.8170   -5.2150   -3.4088 H   0  0  0  0  0  0  0  0  0  0  0  0
   -0.7827   -2.0223   -7.6908 H   0  0  0  0  0  0  0  0  0  0  0  0
    0.2186   -3.0363   -9.5890 H   0  0  0  0  0  0  0  0  0  0  0  0
    2.9410   -6.6941  -10.7792 H   0  0  0  0  0  0  0  0  0  0  0  0
    2.9232   -6.1013   -9.0897 H   0  0  0  0  0  0  0  0  0  0  0  0
    3.0228   -4.9523  -10.4910 H   0  0  0  0  0  0  0  0  0  0  0  0
    0.2286   -6.8801   -7.5900 H   0  0  0  0  0  0  0  0  0  0  0  0
   -0.5660   -5.8623   -5.6115 H   0  0  0  0  0  0  0  0  0  0  0  0
    1.4683   -0.9861   -6.6626 H   0  0  0  0  0  0  0  0  0  0  0  0
    1.2675   -4.0043   -1.1974 H   0  0  0  0  0  0  0  0  0  0  0  0
    5.2349   -4.9056   -4.3922 H   0  0  0  0  0  0  0  0  0  0  0  0
    5.7428   -6.2058   -1.2213 H   0  0  0  0  0  0  0  0  0  0  0  0
    4.9218   -8.2172   -2.9690 H   0  0  0  0  0  0  0  0  0  0  0  0
    5.4025   -9.4882   -0.6772 H   0  0  0  0  0  0  0  0  0  0  0  0
    3.5546   -8.8876    0.9976 H   0  0  0  0  0  0  0  0  0  0  0  0
    1.7765   -7.2864   -0.2249 H   0  0  0  0  0  0  0  0  0  0  0  0
    2.4087   -7.2903   -2.8534 H   0  0  0  0  0  0  0  0  0  0  0  0
    2.4648   -8.9461   -2.2037 H   0  0  0  0  0  0  0  0  0  0  0  0
    3.9881   -5.6597    0.2974 H   0  0  0  0  0  0  0  0  0  0  0  0
  1  2  2  3
  2  3  1  0
  3  4  2  0
  3  5  1  0
  5  6  2  0
  6  7  1  0
  7  8  2  0
  8  9  1  0
  9 10  2  0
 10 11  1  0
 11 12  2  3
 12 13  1  0
 13 14  3  0
 12 15  1  0
 15 16  3  0
  8 17  1  0
 17 18  1  0
 18 19  1  0
 19 20  2  0
 20 21  1  0
 21 22  1  0
 21 23  1  0
  1 24  1  0
 24 25  2  0
 25 26  1  0
 26 27  1  0
 27 28  2  0
 28 29  1  0
 29 30  2  0
 30 31  1  0
 30 32  1  0
 32 33  2  0
 26 34  1  0
 34 35  2  0
 35 36  1  0
 36 37  2  0
 37 38  1  0
 37 39  1  0
 39 40  2  0
 25 41  1  0
 41 42  1  0
 42 43  1  0
 43 44  2  0
 44 45  1  0
 45 46  1  0
 46 47  2  0
 47 48  1  0
 48 49  2  0
 49 50  1  0
 49 51  1  0
 51 52  2  0
 45 53  1  0
 53 54  2  0
 54 55  1  0
 55 56  2  0
 56 57  1  0
 56 58  1  0
 58 59  2  0
 44 60  1  0
 60 61  1  0
 43 62  1  0
 62 63  1  0
 63 64  2  0
 64 65  1  0
 65 66  2  0
 66 67  1  0
 67 68  1  0
 68 69  1  0
 66 70  1  0
 70 71  2  0
 71 72  1  0
 72 73  2  0
 73 74  1  0
 74 75  1  0
 73 76  1  0
 72 77  1  0
 77 78  2  0
 78 79  1  0
 79 80  1  0
 80 81  2  0
 81 82  1  0
 82 83  2  0
 83 84  1  0
 84 85  1  0
 83 86  1  0
 86 87  2  0
 79 88  1  0
 88 89  2  0
 89 90  1  0
 90 91  2  0
 91 92  1  0
 92 93  1  0
 91 94  1  0
 94 95  2  0
 78 96  1  0
 96 97  1  0
 97 98  1  0
 98 99  2  0
 99100  1  0
100101  1  0
101102  2  0
102103  1  0
103104  2  0
104105  1  0
105106  1  0
104107  1  0
107108  2  0
100109  1  0
109110  2  0
110111  1  0
111112  2  0
112113  1  0
113114  1  0
112115  1  0
115116  2  0
 99117  1  0
117118  1  0
 98119  1  0
119120  2  3
120121  1  0
121122  2  0
121123  1  0
123124  2  0
124125  1  0
125126  2  0
126127  1  0
127128  2  0
128129  1  0
129130  2  3
130131  1  0
131132  3  0
130133  1  0
133134  3  0
126135  1  0
135136  1  0
136137  1  0
137138  2  0
138139  1  0
139140  1  0
139141  1  0
 11  2  1  0
 23 17  1  0
 61 24  1  0
 74 62  2  0
118 77  1  0
129120  1  0
141135  1  0
 10  5  1  0
 22 18  1  0
 33 27  1  0
 40 34  1  0
 60 41  2  0
 71 63  1  0
 87 80  1  0
 95 88  1  0
117 96  2  0
128123  1  0
140136  1  0
 23  7  1  0
 52 46  1  0
 59 53  1  0
108101  1  0
116109  1  0
141125  1  0
  1142  1  0
  6143  1  0
  9144  1  0
 17145  1  0
 18146  1  0
 19147  1  0
 20148  1  0
 21149  1  0
 22150  1  0
 22151  1  0
 23152  1  0
 28153  1  0
 29154  1  0
 31155  1  0
 31156  1  0
 31157  1  0
 32158  1  0
 33159  1  0
 35160  1  0
 36161  1  0
 38162  1  0
 38163  1  0
 38164  1  0
 39165  1  0
 40166  1  0
 47167  1  0
 48168  1  0
 50169  1  0
 50170  1  0
 50171  1  0
 51172  1  0
 52173  1  0
 54174  1  0
 55175  1  0
 57176  1  0
 57177  1  0
 57178  1  0
 58179  1  0
 59180  1  0
 65181  1  0
 68182  1  0
 68183  1  0
 69184  1  0
 69185  1  0
 69186  1  0
 81187  1  0
 82188  1  0
 85189  1  0
 85190  1  0
 85191  1  0
 86192  1  0
 87193  1  0
 89194  1  0
 90195  1  0
 93196  1  0
 93197  1  0
 93198  1  0
 94199  1  0
 95200  1  0
102201  1  0
103202  1  0
106203  1  0
106204  1  0
106205  1  0
107206  1  0
108207  1  0
110208  1  0
111209  1  0
114210  1  0
114211  1  0
114212  1  0
115213  1  0
116214  1  0
119215  1  0
124216  1  0
127217  1  0
135218  1  0
136219  1  0
137220  1  0
138221  1  0
139222  1  0
140223  1  0
140224  1  0
141225  1  0
M  END

