
     RDKit          3D

215238  0  0  0  0  0  0  0  0999 V2000
    0.6994   -4.9512   -5.8249 C   0  0  0  0  0  0  0  0  0  0  0  0
    0.3332   -6.1603   -5.3620 C   0  0  0  0  0  0  0  0  0  0  0  0
    0.3158   -6.6301   -3.9695 C   0  0  0  0  0  0  0  0  0  0  0  0
   -0.0105   -5.9515   -2.9642 O   0  0  0  0  0  0  0  0  0  0  0  0
    0.5693   -8.0595   -3.9586 C   0  0  0  0  0  0  0  0  0  0  0  0
    0.8640   -8.8779   -2.8459 C   0  0  0  0  0  0  0  0  0  0  0  0
    1.2527  -10.1606   -3.1884 C   0  0  0  0  0  0  0  0  0  0  0  0
    1.3398  -10.6169   -4.5462 C   0  0  0  0  0  0  0  0  0  0  0  0
    1.0131   -9.8321   -5.6370 C   0  0  0  0  0  0  0  0  0  0  0  0
    0.6030   -8.5195   -5.3038 C   0  0  0  0  0  0  0  0  0  0  0  0
    0.2530   -7.3860   -6.2057 C   0  0  0  0  0  0  0  0  0  0  0  0
   -0.3029   -7.4890   -7.4339 C   0  0  0  0  0  0  0  0  0  0  0  0
   -0.5440   -8.7632   -8.0653 C   0  0  0  0  0  0  0  0  0  0  0  0
   -0.7602   -9.7768   -8.5798 N   0  0  0  0  0  0  0  0  0  0  0  0
   -0.8541   -6.3404   -8.1104 C   0  0  0  0  0  0  0  0  0  0  0  0
   -1.2921   -5.4215   -8.6542 N   0  0  0  0  0  0  0  0  0  0  0  0
    1.8343  -11.9517   -4.0855 C   0  0  0  0  0  0  0  0  0  0  0  0
    0.8484  -13.1635   -4.1564 C   0  0  0  0  0  0  0  0  0  0  0  0
   -0.5717  -12.6780   -3.9783 C   0  0  0  0  0  0  0  0  0  0  0  0
   -0.6732  -12.2562   -2.7173 C   0  0  0  0  0  0  0  0  0  0  0  0
    0.6868  -12.4698   -2.0781 C   0  0  0  0  0  0  0  0  0  0  0  0
    1.0768  -13.7618   -2.7805 C   0  0  0  0  0  0  0  0  0  0  0  0
    1.7357  -11.4927   -2.6970 C   0  0  0  0  0  0  0  0  0  0  0  0
    1.1880   -3.8091   -5.0260 C   0  0  0  0  0  0  0  0  0  0  0  0
    1.2528   -2.4986   -5.5132 C   0  0  0  0  0  0  0  0  0  0  0  0
    0.5717   -2.0424   -6.6890 N   0  0  0  0  0  0  0  0  0  0  0  0
   -0.8626   -1.8480   -6.6753 C   0  0  0  0  0  0  0  0  0  0  0  0
   -1.6073   -1.9387   -7.8670 C   0  0  0  0  0  0  0  0  0  0  0  0
   -2.9865   -1.7014   -7.8595 C   0  0  0  0  0  0  0  0  0  0  0  0
   -3.6447   -1.3673   -6.6675 C   0  0  0  0  0  0  0  0  0  0  0  0
   -5.1241   -1.1072   -6.6483 C   0  0  0  0  0  0  0  0  0  0  0  0
   -2.9153   -1.3149   -5.4723 C   0  0  0  0  0  0  0  0  0  0  0  0
   -1.5365   -1.5572   -5.4781 C   0  0  0  0  0  0  0  0  0  0  0  0
    1.3658   -1.5355   -7.7725 C   0  0  0  0  0  0  0  0  0  0  0  0
    2.3747   -2.3276   -8.3426 C   0  0  0  0  0  0  0  0  0  0  0  0
    3.1827   -1.8189   -9.3656 C   0  0  0  0  0  0  0  0  0  0  0  0
    2.9935   -0.5135   -9.8288 C   0  0  0  0  0  0  0  0  0  0  0  0
    3.8953    0.0436  -10.8914 C   0  0  0  0  0  0  0  0  0  0  0  0
    1.9953    0.2870   -9.2570 C   0  0  0  0  0  0  0  0  0  0  0  0
    1.1803   -0.2268   -8.2420 C   0  0  0  0  0  0  0  0  0  0  0  0
    1.8374   -1.6319   -4.5915 C   0  0  0  0  0  0  0  0  0  0  0  0
    1.9015    0.0296   -4.4544 S   0  0  0  0  0  0  0  0  0  0  0  0
    2.3507    0.0465   -2.8027 C   0  0  0  0  0  0  0  0  0  0  0  0
    2.4808   -1.3001   -2.3838 C   0  0  0  0  0  0  0  0  0  0  0  0
    2.7440   -1.7581   -1.0421 N   0  0  0  0  0  0  0  0  0  0  0  0
    4.0836   -2.2063   -0.6856 C   0  0  0  0  0  0  0  0  0  0  0  0
    5.0382   -2.5179   -1.6782 C   0  0  0  0  0  0  0  0  0  0  0  0
    6.2973   -3.0095   -1.3208 C   0  0  0  0  0  0  0  0  0  0  0  0
    6.6245   -3.2085    0.0276 C   0  0  0  0  0  0  0  0  0  0  0  0
    7.9809   -3.7286    0.3927 C   0  0  0  0  0  0  0  0  0  0  0  0
    5.6976   -2.8634    1.0254 C   0  0  0  0  0  0  0  0  0  0  0  0
    4.4327   -2.3830    0.6695 C   0  0  0  0  0  0  0  0  0  0  0  0
    1.6219   -2.1920   -0.2464 C   0  0  0  0  0  0  0  0  0  0  0  0
    1.4716   -3.5503    0.0736 C   0  0  0  0  0  0  0  0  0  0  0  0
    0.4097   -3.9749    0.8828 C   0  0  0  0  0  0  0  0  0  0  0  0
   -0.5120   -3.0470    1.3819 C   0  0  0  0  0  0  0  0  0  0  0  0
   -1.6353   -3.5039    2.2715 C   0  0  0  0  0  0  0  0  0  0  0  0
   -0.3506   -1.6842    1.0846 C   0  0  0  0  0  0  0  0  0  0  0  0
    0.6888   -1.2675    0.2485 C   0  0  0  0  0  0  0  0  0  0  0  0
    2.1801   -2.1905   -3.4094 C   0  0  0  0  0  0  0  0  0  0  0  0
    1.8711   -3.8416   -3.4545 S   0  0  0  0  0  0  0  0  0  0  0  0
    2.1514    1.2371   -1.9302 C   0  0  0  0  0  0  0  0  0  0  0  0
    1.0767    2.1395   -2.1930 C   0  0  0  0  0  0  0  0  0  0  0  0
    0.3473    2.0521   -3.3282 F   0  0  0  0  0  0  0  0  0  0  0  0
    0.6065    3.0109   -1.1884 C   0  0  0  0  0  0  0  0  0  0  0  0
   -0.5167    3.7406   -1.4223 F   0  0  0  0  0  0  0  0  0  0  0  0
    1.1596    2.9721    0.1079 C   0  0  0  0  0  0  0  0  0  0  0  0
    2.3333    2.2314    0.2693 C   0  0  0  0  0  0  0  0  0  0  0  0
    2.8137    1.4110   -0.7029 C   0  0  0  0  0  0  0  0  0  0  0  0
    3.8640    0.7425   -0.2093 N   0  0  0  0  0  0  0  0  0  0  0  0
    3.9623    1.1476    1.0325 O   0  0  0  0  0  0  0  0  0  0  0  0
    3.0555    2.0306    1.3809 N   0  0  0  0  0  0  0  0  0  0  0  0
    0.2534    3.1986    1.2448 C   0  0  0  0  0  0  0  0  0  0  0  0
    0.3848    4.1126    2.3110 C   0  0  0  0  0  0  0  0  0  0  0  0
    1.2381    5.2714    2.2270 N   0  0  0  0  0  0  0  0  0  0  0  0
    2.1517    5.6133    3.2908 C   0  0  0  0  0  0  0  0  0  0  0  0
    2.2548    6.9476    3.7390 C   0  0  0  0  0  0  0  0  0  0  0  0
    3.1997    7.3002    4.7072 C   0  0  0  0  0  0  0  0  0  0  0  0
    4.0780    6.3323    5.2187 C   0  0  0  0  0  0  0  0  0  0  0  0
    5.2971    6.7827    6.4652 S   0  0  0  0  0  0  0  0  0  0  0  0
    6.5098    7.4230    5.2537 C   0  0  0  0  0  0  0  0  0  0  0  0
    3.9778    5.0076    4.7850 C   0  0  0  0  0  0  0  0  0  0  0  0
    3.0109    4.6424    3.8341 C   0  0  0  0  0  0  0  0  0  0  0  0
    1.1258    6.1197    1.0644 C   0  0  0  0  0  0  0  0  0  0  0  0
    2.2768    6.6007    0.4130 C   0  0  0  0  0  0  0  0  0  0  0  0
    2.1576    7.3122   -0.7858 C   0  0  0  0  0  0  0  0  0  0  0  0
    0.8955    7.5646   -1.3358 C   0  0  0  0  0  0  0  0  0  0  0  0
    0.7421    8.3920   -2.9203 S   0  0  0  0  0  0  0  0  0  0  0  0
    0.6148    6.8315   -3.8537 C   0  0  0  0  0  0  0  0  0  0  0  0
   -0.2500    7.1388   -0.6616 C   0  0  0  0  0  0  0  0  0  0  0  0
   -0.1400    6.4237    0.5303 C   0  0  0  0  0  0  0  0  0  0  0  0
   -0.7741    4.0984    3.1028 C   0  0  0  0  0  0  0  0  0  0  0  0
   -1.3155    4.9539    4.4386 S   0  0  0  0  0  0  0  0  0  0  0  0
   -2.8741    4.2361    4.4619 C   0  0  0  0  0  0  0  0  0  0  0  0
   -3.0234    3.4488    3.2948 C   0  0  0  0  0  0  0  0  0  0  0  0
   -4.2959    3.1139    2.6753 N   0  0  0  0  0  0  0  0  0  0  0  0
   -4.3601    2.1417    1.6163 C   0  0  0  0  0  0  0  0  0  0  0  0
   -4.4384    0.7734    1.9209 C   0  0  0  0  0  0  0  0  0  0  0  0
   -4.4804   -0.1736    0.9009 C   0  0  0  0  0  0  0  0  0  0  0  0
   -4.4533    0.2354   -0.4421 C   0  0  0  0  0  0  0  0  0  0  0  0
   -4.4429   -0.9854   -1.7468 S   0  0  0  0  0  0  0  0  0  0  0  0
   -2.6256   -1.0581   -1.8162 C   0  0  0  0  0  0  0  0  0  0  0  0
   -4.4084    1.6006   -0.7552 C   0  0  0  0  0  0  0  0  0  0  0  0
   -4.3776    2.5507    0.2670 C   0  0  0  0  0  0  0  0  0  0  0  0
   -5.4163    4.0146    2.7726 C   0  0  0  0  0  0  0  0  0  0  0  0
   -6.7014    3.5082    3.0310 C   0  0  0  0  0  0  0  0  0  0  0  0
   -7.7960    4.3716    3.1509 C   0  0  0  0  0  0  0  0  0  0  0  0
   -7.6214    5.7545    2.9901 C   0  0  0  0  0  0  0  0  0  0  0  0
   -9.0148    6.8732    3.2039 S   0  0  0  0  0  0  0  0  0  0  0  0
   -9.4334    6.9084    1.4295 C   0  0  0  0  0  0  0  0  0  0  0  0
   -6.3476    6.2613    2.6907 C   0  0  0  0  0  0  0  0  0  0  0  0
   -5.2538    5.4000    2.5730 C   0  0  0  0  0  0  0  0  0  0  0  0
   -1.7972    3.3260    2.6418 C   0  0  0  0  0  0  0  0  0  0  0  0
   -1.2920    2.5101    1.2814 S   0  0  0  0  0  0  0  0  0  0  0  0
   -3.8704    4.2427    5.5712 C   0  0  0  0  0  0  0  0  0  0  0  0
   -3.5942    3.9140    6.8585 C   0  0  0  0  0  0  0  0  0  0  0  0
   -2.3100    3.9382    7.5679 C   0  0  0  0  0  0  0  0  0  0  0  0
   -1.2220    4.4520    7.1939 O   0  0  0  0  0  0  0  0  0  0  0  0
   -2.5088    3.3733    8.8814 C   0  0  0  0  0  0  0  0  0  0  0  0
   -1.4986    3.0273    9.8062 C   0  0  0  0  0  0  0  0  0  0  0  0
   -1.9498    2.2918   10.8859 C   0  0  0  0  0  0  0  0  0  0  0  0
   -3.3207    1.9437   11.0715 C   0  0  0  0  0  0  0  0  0  0  0  0
   -4.3291    2.3023   10.1839 C   0  0  0  0  0  0  0  0  0  0  0  0
   -3.8692    3.0386    9.0485 C   0  0  0  0  0  0  0  0  0  0  0  0
   -4.6105    3.3188    7.7923 C   0  0  0  0  0  0  0  0  0  0  0  0
   -5.5348    2.4374    7.3405 C   0  0  0  0  0  0  0  0  0  0  0  0
   -6.7337    2.1352    8.0920 C   0  0  0  0  0  0  0  0  0  0  0  0
   -7.7035    1.8663    8.6752 N   0  0  0  0  0  0  0  0  0  0  0  0
   -5.1012    1.4647    6.3572 C   0  0  0  0  0  0  0  0  0  0  0  0
   -4.6913    0.7011    5.5783 N   0  0  0  0  0  0  0  0  0  0  0  0
   -2.9723    1.1304   12.2845 C   0  0  0  0  0  0  0  0  0  0  0  0
   -2.9601   -0.4176   12.1337 C   0  0  0  0  0  0  0  0  0  0  0  0
   -2.5980   -0.7988   10.7132 C   0  0  0  0  0  0  0  0  0  0  0  0
   -1.3205   -0.4530   10.5467 C   0  0  0  0  0  0  0  0  0  0  0  0
   -0.8501    0.1362   11.8578 C   0  0  0  0  0  0  0  0  0  0  0  0
   -1.6380   -0.7358   12.8155 C   0  0  0  0  0  0  0  0  0  0  0  0
   -1.5644    1.5003   12.1008 C   0  0  0  0  0  0  0  0  0  0  0  0
    0.7514   -4.8061   -6.8868 H   0  0  0  0  0  0  0  0  0  0  0  0
    0.8759   -8.5102   -1.8281 H   0  0  0  0  0  0  0  0  0  0  0  0
    1.1394  -10.1981   -6.6507 H   0  0  0  0  0  0  0  0  0  0  0  0
    2.8780  -12.1768   -4.4122 H   0  0  0  0  0  0  0  0  0  0  0  0
    1.0140  -13.8529   -5.0149 H   0  0  0  0  0  0  0  0  0  0  0  0
   -1.3729  -12.7217   -4.7055 H   0  0  0  0  0  0  0  0  0  0  0  0
   -1.5850  -11.9028   -2.2327 H   0  0  0  0  0  0  0  0  0  0  0  0
    0.6754  -12.5108   -0.9641 H   0  0  0  0  0  0  0  0  0  0  0  0
    2.1292  -14.0673   -2.5916 H   0  0  0  0  0  0  0  0  0  0  0  0
    0.3921  -14.6100   -2.5556 H   0  0  0  0  0  0  0  0  0  0  0  0
    2.7194  -11.4613   -2.1634 H   0  0  0  0  0  0  0  0  0  0  0  0
   -1.1250   -2.1835   -8.8033 H   0  0  0  0  0  0  0  0  0  0  0  0
   -3.5435   -1.7670   -8.7909 H   0  0  0  0  0  0  0  0  0  0  0  0
   -5.6663   -2.0462   -6.4064 H   0  0  0  0  0  0  0  0  0  0  0  0
   -5.4670   -0.7266   -7.6342 H   0  0  0  0  0  0  0  0  0  0  0  0
   -5.3673   -0.3421   -5.8778 H   0  0  0  0  0  0  0  0  0  0  0  0
   -3.4152   -1.0824   -4.5463 H   0  0  0  0  0  0  0  0  0  0  0  0
   -1.0005   -1.4899   -4.5380 H   0  0  0  0  0  0  0  0  0  0  0  0
    2.5320   -3.3396   -7.9929 H   0  0  0  0  0  0  0  0  0  0  0  0
    3.9522   -2.4471   -9.7908 H   0  0  0  0  0  0  0  0  0  0  0  0
    3.4781    0.9732  -11.3315 H   0  0  0  0  0  0  0  0  0  0  0  0
    4.8907    0.2719  -10.4474 H   0  0  0  0  0  0  0  0  0  0  0  0
    4.0231   -0.7008  -11.7104 H   0  0  0  0  0  0  0  0  0  0  0  0
    1.8441    1.3051   -9.5916 H   0  0  0  0  0  0  0  0  0  0  0  0
    0.4192    0.4109   -7.8036 H   0  0  0  0  0  0  0  0  0  0  0  0
    4.8213   -2.3786   -2.7319 H   0  0  0  0  0  0  0  0  0  0  0  0
    7.0232   -3.2555   -2.0936 H   0  0  0  0  0  0  0  0  0  0  0  0
    8.0529   -3.9491    1.4811 H   0  0  0  0  0  0  0  0  0  0  0  0
    8.7572   -2.9684    0.1364 H   0  0  0  0  0  0  0  0  0  0  0  0
    8.1990   -4.6648   -0.1659 H   0  0  0  0  0  0  0  0  0  0  0  0
    5.9519   -2.9754    2.0722 H   0  0  0  0  0  0  0  0  0  0  0  0
    3.7393   -2.1103    1.4509 H   0  0  0  0  0  0  0  0  0  0  0  0
    2.1835   -4.2795   -0.2928 H   0  0  0  0  0  0  0  0  0  0  0  0
    0.3104   -5.0309    1.1217 H   0  0  0  0  0  0  0  0  0  0  0  0
   -2.4552   -2.7559    2.2922 H   0  0  0  0  0  0  0  0  0  0  0  0
   -2.0493   -4.4641    1.8972 H   0  0  0  0  0  0  0  0  0  0  0  0
   -1.2547   -3.6505    3.3025 H   0  0  0  0  0  0  0  0  0  0  0  0
   -1.0397   -0.9472    1.4734 H   0  0  0  0  0  0  0  0  0  0  0  0
    0.7859   -0.2225    0.0140 H   0  0  0  0  0  0  0  0  0  0  0  0
    1.6066    7.7072    3.3339 H   0  0  0  0  0  0  0  0  0  0  0  0
    3.2644    8.3254    5.0393 H   0  0  0  0  0  0  0  0  0  0  0  0
    7.5011    7.4656    5.7449 H   0  0  0  0  0  0  0  0  0  0  0  0
    6.2076    8.4458    4.9420 H   0  0  0  0  0  0  0  0  0  0  0  0
    6.5637    6.7667    4.3593 H   0  0  0  0  0  0  0  0  0  0  0  0
    4.6581    4.2568    5.1739 H   0  0  0  0  0  0  0  0  0  0  0  0
    2.9555    3.6157    3.5111 H   0  0  0  0  0  0  0  0  0  0  0  0
    3.2677    6.3742    0.7953 H   0  0  0  0  0  0  0  0  0  0  0  0
    3.0496    7.6391   -1.3026 H   0  0  0  0  0  0  0  0  0  0  0  0
   -0.2611    6.2438   -3.5007 H   0  0  0  0  0  0  0  0  0  0  0  0
    0.4723    7.0673   -4.9230 H   0  0  0  0  0  0  0  0  0  0  0  0
    1.5388    6.2352   -3.7302 H   0  0  0  0  0  0  0  0  0  0  0  0
   -1.2306    7.3256   -1.0742 H   0  0  0  0  0  0  0  0  0  0  0  0
   -1.0434    6.0735    1.0151 H   0  0  0  0  0  0  0  0  0  0  0  0
   -4.4581    0.4514    2.9525 H   0  0  0  0  0  0  0  0  0  0  0  0
   -4.5172   -1.2280    1.1431 H   0  0  0  0  0  0  0  0  0  0  0  0
   -2.3203   -1.9399   -2.4096 H   0  0  0  0  0  0  0  0  0  0  0  0
   -2.2432   -0.1317   -2.2926 H   0  0  0  0  0  0  0  0  0  0  0  0
   -2.2089   -1.1589   -0.7958 H   0  0  0  0  0  0  0  0  0  0  0  0
   -4.3856    1.9290   -1.7885 H   0  0  0  0  0  0  0  0  0  0  0  0
   -4.3353    3.6032    0.0236 H   0  0  0  0  0  0  0  0  0  0  0  0
   -6.8434    2.4409    3.1764 H   0  0  0  0  0  0  0  0  0  0  0  0
   -8.7733    3.9651    3.3718 H   0  0  0  0  0  0  0  0  0  0  0  0
   -9.6237    5.8817    1.0526 H   0  0  0  0  0  0  0  0  0  0  0  0
  -10.3463    7.5206    1.2910 H   0  0  0  0  0  0  0  0  0  0  0  0
   -8.6018    7.3693    0.8547 H   0  0  0  0  0  0  0  0  0  0  0  0
   -6.2014    7.3256    2.5498 H   0  0  0  0  0  0  0  0  0  0  0  0
   -4.2813    5.8104    2.3373 H   0  0  0  0  0  0  0  0  0  0  0  0
   -4.9136    4.1933    5.2815 H   0  0  0  0  0  0  0  0  0  0  0  0
   -0.4487    3.2393    9.6401 H   0  0  0  0  0  0  0  0  0  0  0  0
   -5.3433    1.9728   10.3270 H   0  0  0  0  0  0  0  0  0  0  0  0
   -3.4153    1.5104   13.2226 H   0  0  0  0  0  0  0  0  0  0  0  0
   -3.8512   -0.9410   12.5406 H   0  0  0  0  0  0  0  0  0  0  0  0
   -3.2264   -1.2926    9.9712 H   0  0  0  0  0  0  0  0  0  0  0  0
   -0.7278   -0.6421    9.6661 H   0  0  0  0  0  0  0  0  0  0  0  0
    0.2473    0.1339   11.9995 H   0  0  0  0  0  0  0  0  0  0  0  0
   -1.3692   -1.8171   12.7589 H   0  0  0  0  0  0  0  0  0  0  0  0
   -1.5783   -0.3885   13.8771 H   0  0  0  0  0  0  0  0  0  0  0  0
   -1.1624    2.1104   12.9461 H   0  0  0  0  0  0  0  0  0  0  0  0
  1  2  2  3
  2  3  1  0
  3  4  2  0
  3  5  1  0
  5  6  2  0
  6  7  1  0
  7  8  2  0
  8  9  1  0
  9 10  2  0
 10 11  1  0
 11 12  2  3
 12 13  1  0
 13 14  3  0
 12 15  1  0
 15 16  3  0
  8 17  1  0
 17 18  1  0
 18 19  1  0
 19 20  2  0
 20 21  1  0
 21 22  1  0
 21 23  1  0
  1 24  1  0
 24 25  2  0
 25 26  1  0
 26 27  1  0
 27 28  2  0
 28 29  1  0
 29 30  2  0
 30 31  1  0
 30 32  1  0
 32 33  2  0
 26 34  1  0
 34 35  2  0
 35 36  1  0
 36 37  2  0
 37 38  1  0
 37 39  1  0
 39 40  2  0
 25 41  1  0
 41 42  1  0
 42 43  1  0
 43 44  2  0
 44 45  1  0
 45 46  1  0
 46 47  2  0
 47 48  1  0
 48 49  2  0
 49 50  1  0
 49 51  1  0
 51 52  2  0
 45 53  1  0
 53 54  2  0
 54 55  1  0
 55 56  2  0
 56 57  1  0
 56 58  1  0
 58 59  2  0
 44 60  1  0
 60 61  1  0
 43 62  1  0
 62 63  2  0
 63 64  1  0
 63 65  1  0
 65 66  1  0
 65 67  2  0
 67 68  1  0
 68 69  1  0
 69 70  2  0
 70 71  1  0
 71 72  1  0
 67 73  1  0
 73 74  2  0
 74 75  1  0
 75 76  1  0
 76 77  2  0
 77 78  1  0
 78 79  2  0
 79 80  1  0
 80 81  1  0
 79 82  1  0
 82 83  2  0
 75 84  1  0
 84 85  2  0
 85 86  1  0
 86 87  2  0
 87 88  1  0
 88 89  1  0
 87 90  1  0
 90 91  2  0
 74 92  1  0
 92 93  1  0
 93 94  1  0
 94 95  2  0
 95 96  1  0
 96 97  1  0
 97 98  2  0
 98 99  1  0
 99100  2  0
100101  1  0
101102  1  0
100103  1  0
103104  2  0
 96105  1  0
105106  2  0
106107  1  0
107108  2  0
108109  1  0
109110  1  0
108111  1  0
111112  2  0
 95113  1  0
113114  1  0
 94115  1  0
115116  2  3
116117  1  0
117118  2  0
117119  1  0
119120  2  0
120121  1  0
121122  2  0
122123  1  0
123124  2  0
124125  1  0
125126  2  3
126127  1  0
127128  3  0
126129  1  0
129130  3  0
122131  1  0
131132  1  0
132133  1  0
133134  2  0
134135  1  0
135136  1  0
135137  1  0
 11  2  1  0
 23 17  1  0
 61 24  1  0
 69 62  1  0
114 73  1  0
125116  1  0
137131  1  0
 10  5  1  0
 22 18  1  0
 33 27  1  0
 40 34  1  0
 60 41  2  0
 72 68  2  0
 83 76  1  0
 91 84  1  0
113 92  2  0
124119  1  0
136132  1  0
 23  7  1  0
 52 46  1  0
 59 53  1  0
104 97  1  0
112105  1  0
137121  1  0
  1138  1  0
  6139  1  0
  9140  1  0
 17141  1  0
 18142  1  0
 19143  1  0
 20144  1  0
 21145  1  0
 22146  1  0
 22147  1  0
 23148  1  0
 28149  1  0
 29150  1  0
 31151  1  0
 31152  1  0
 31153  1  0
 32154  1  0
 33155  1  0
 35156  1  0
 36157  1  0
 38158  1  0
 38159  1  0
 38160  1  0
 39161  1  0
 40162  1  0
 47163  1  0
 48164  1  0
 50165  1  0
 50166  1  0
 50167  1  0
 51168  1  0
 52169  1  0
 54170  1  0
 55171  1  0
 57172  1  0
 57173  1  0
 57174  1  0
 58175  1  0
 59176  1  0
 77177  1  0
 78178  1  0
 81179  1  0
 81180  1  0
 81181  1  0
 82182  1  0
 83183  1  0
 85184  1  0
 86185  1  0
 89186  1  0
 89187  1  0
 89188  1  0
 90189  1  0
 91190  1  0
 98191  1  0
 99192  1  0
102193  1  0
102194  1  0
102195  1  0
103196  1  0
104197  1  0
106198  1  0
107199  1  0
110200  1  0
110201  1  0
110202  1  0
111203  1  0
112204  1  0
115205  1  0
120206  1  0
123207  1  0
131208  1  0
132209  1  0
133210  1  0
134211  1  0
135212  1  0
136213  1  0
136214  1  0
137215  1  0
M  END

