
     RDKit          3D

213233  0  0  0  0  0  0  0  0999 V2000
    6.1547    2.6262   -4.1017 C   0  0  0  0  0  0  0  0  0  0  0  0
    7.3282    3.2296   -3.8209 C   0  0  0  0  0  0  0  0  0  0  0  0
    7.6345    3.9801   -2.5924 C   0  0  0  0  0  0  0  0  0  0  0  0
    6.8110    4.5804   -1.8526 O   0  0  0  0  0  0  0  0  0  0  0  0
    9.0564    3.9260   -2.3513 C   0  0  0  0  0  0  0  0  0  0  0  0
    9.7391    4.4038   -1.2099 C   0  0  0  0  0  0  0  0  0  0  0  0
   11.0742    4.0484   -1.1715 C   0  0  0  0  0  0  0  0  0  0  0  0
   11.7039    3.2511   -2.1815 C   0  0  0  0  0  0  0  0  0  0  0  0
   11.0437    2.8095   -3.3186 C   0  0  0  0  0  0  0  0  0  0  0  0
    9.6747    3.2006   -3.3962 C   0  0  0  0  0  0  0  0  0  0  0  0
    8.6478    2.8671   -4.4252 C   0  0  0  0  0  0  0  0  0  0  0  0
    8.8767    2.4736   -5.7044 C   0  0  0  0  0  0  0  0  0  0  0  0
   10.2030    2.2327   -6.2128 C   0  0  0  0  0  0  0  0  0  0  0  0
   11.2607    2.0500   -6.6448 N   0  0  0  0  0  0  0  0  0  0  0  0
    7.8288    2.4174   -6.6893 C   0  0  0  0  0  0  0  0  0  0  0  0
    6.9980    2.3817   -7.4958 N   0  0  0  0  0  0  0  0  0  0  0  0
   12.9840    3.2411   -1.3961 C   0  0  0  0  0  0  0  0  0  0  0  0
   13.3538    1.9525   -0.5980 C   0  0  0  0  0  0  0  0  0  0  0  0
   12.1033    1.2353   -0.1412 C   0  0  0  0  0  0  0  0  0  0  0  0
   11.5314    2.0100    0.7790 C   0  0  0  0  0  0  0  0  0  0  0  0
   12.4131    3.2258    0.9192 C   0  0  0  0  0  0  0  0  0  0  0  0
   13.7630    2.5681    0.7274 C   0  0  0  0  0  0  0  0  0  0  0  0
   12.3468    4.0891   -0.3804 C   0  0  0  0  0  0  0  0  0  0  0  0
    5.0440    2.5151   -3.1402 C   0  0  0  0  0  0  0  0  0  0  0  0
    4.5633    1.2950   -2.6316 C   0  0  0  0  0  0  0  0  0  0  0  0
    5.0946   -0.0111   -2.9526 N   0  0  0  0  0  0  0  0  0  0  0  0
    6.5212   -0.2265   -3.0126 C   0  0  0  0  0  0  0  0  0  0  0  0
    7.3691    0.3332   -2.0453 C   0  0  0  0  0  0  0  0  0  0  0  0
    8.7514    0.1243   -2.1063 C   0  0  0  0  0  0  0  0  0  0  0  0
    9.3025   -0.6450   -3.1430 C   0  0  0  0  0  0  0  0  0  0  0  0
   10.7750   -0.9264   -3.1691 C   0  0  0  0  0  0  0  0  0  0  0  0
    8.4567   -1.2150   -4.1041 C   0  0  0  0  0  0  0  0  0  0  0  0
    7.0764   -1.0047   -4.0427 C   0  0  0  0  0  0  0  0  0  0  0  0
    4.1926   -1.1177   -3.1707 C   0  0  0  0  0  0  0  0  0  0  0  0
    4.4604   -2.3747   -2.5989 C   0  0  0  0  0  0  0  0  0  0  0  0
    3.5766   -3.4399   -2.7902 C   0  0  0  0  0  0  0  0  0  0  0  0
    2.4185   -3.2712   -3.5604 C   0  0  0  0  0  0  0  0  0  0  0  0
    1.4438   -4.3994   -3.7292 C   0  0  0  0  0  0  0  0  0  0  0  0
    2.1372   -2.0139   -4.1159 C   0  0  0  0  0  0  0  0  0  0  0  0
    3.0228   -0.9471   -3.9311 C   0  0  0  0  0  0  0  0  0  0  0  0
    3.4935    1.5066   -1.7701 C   0  0  0  0  0  0  0  0  0  0  0  0
    2.5452    0.5035   -0.8245 S   0  0  0  0  0  0  0  0  0  0  0  0
    1.5866    1.7656   -0.2048 C   0  0  0  0  0  0  0  0  0  0  0  0
    2.0148    2.9897   -0.7615 C   0  0  0  0  0  0  0  0  0  0  0  0
    1.5075    4.2862   -0.4016 N   0  0  0  0  0  0  0  0  0  0  0  0
    0.4042    4.8756   -1.1281 C   0  0  0  0  0  0  0  0  0  0  0  0
   -0.5272    5.6852   -0.4583 C   0  0  0  0  0  0  0  0  0  0  0  0
   -1.6097    6.2409   -1.1472 C   0  0  0  0  0  0  0  0  0  0  0  0
   -1.7991    5.9620   -2.5050 C   0  0  0  0  0  0  0  0  0  0  0  0
   -2.9528    6.5713   -3.2491 C   0  0  0  0  0  0  0  0  0  0  0  0
   -0.8678    5.1619   -3.1841 C   0  0  0  0  0  0  0  0  0  0  0  0
    0.2221    4.6169   -2.4996 C   0  0  0  0  0  0  0  0  0  0  0  0
    2.2182    5.0465    0.5950 C   0  0  0  0  0  0  0  0  0  0  0  0
    2.5095    6.4056    0.3808 C   0  0  0  0  0  0  0  0  0  0  0  0
    3.1921    7.1455    1.3476 C   0  0  0  0  0  0  0  0  0  0  0  0
    3.6157    6.5350    2.5368 C   0  0  0  0  0  0  0  0  0  0  0  0
    4.3202    7.3357    3.5948 C   0  0  0  0  0  0  0  0  0  0  0  0
    3.3205    5.1820    2.7617 C   0  0  0  0  0  0  0  0  0  0  0  0
    2.6343    4.4409    1.7956 C   0  0  0  0  0  0  0  0  0  0  0  0
    3.1020    2.7954   -1.6152 C   0  0  0  0  0  0  0  0  0  0  0  0
    4.0768    3.8017   -2.5520 S   0  0  0  0  0  0  0  0  0  0  0  0
    0.3970    1.4899    0.6294 C   0  0  0  0  0  0  0  0  0  0  0  0
   -0.8770    1.7428    0.1090 C   0  0  0  0  0  0  0  0  0  0  0  0
   -1.0308    2.4661   -1.0230 F   0  0  0  0  0  0  0  0  0  0  0  0
   -1.9847    1.0576    0.5931 C   0  0  0  0  0  0  0  0  0  0  0  0
   -3.1857    1.2579   -0.0126 F   0  0  0  0  0  0  0  0  0  0  0  0
   -1.8343    0.0439    1.5547 C   0  0  0  0  0  0  0  0  0  0  0  0
   -0.6010   -0.0847    2.2182 C   0  0  0  0  0  0  0  0  0  0  0  0
   -0.4256   -0.9590    3.2439 N   0  0  0  0  0  0  0  0  0  0  0  0
    0.7744   -1.1196    3.8692 C   0  0  0  0  0  0  0  0  0  0  0  0
    0.8618   -2.0901    5.0227 C   0  0  0  0  0  0  0  0  0  0  0  0
    0.8843   -1.3801    6.3743 C   0  0  0  0  0  0  0  0  0  0  0  0
    1.8877   -0.3727    3.4121 C   0  0  0  0  0  0  0  0  0  0  0  0
    1.7165    0.4690    2.3590 N   0  0  0  0  0  0  0  0  0  0  0  0
    0.5152    0.6490    1.7551 C   0  0  0  0  0  0  0  0  0  0  0  0
    3.2619   -0.4458    4.0318 C   0  0  0  0  0  0  0  0  0  0  0  0
    3.6063    0.8623    4.7423 C   0  0  0  0  0  0  0  0  0  0  0  0
   -2.8117   -1.0635    1.5035 C   0  0  0  0  0  0  0  0  0  0  0  0
   -3.6270   -1.5944    2.5190 C   0  0  0  0  0  0  0  0  0  0  0  0
   -3.4432   -1.3933    3.9292 N   0  0  0  0  0  0  0  0  0  0  0  0
   -3.6822   -0.0751    4.4902 C   0  0  0  0  0  0  0  0  0  0  0  0
   -2.9252    0.3901    5.5835 C   0  0  0  0  0  0  0  0  0  0  0  0
   -3.1467    1.6634    6.1096 C   0  0  0  0  0  0  0  0  0  0  0  0
   -4.1251    2.5015    5.5572 C   0  0  0  0  0  0  0  0  0  0  0  0
   -4.3439    3.8797    6.1058 C   0  0  0  0  0  0  0  0  0  0  0  0
   -4.8709    2.0541    4.4562 C   0  0  0  0  0  0  0  0  0  0  0  0
   -4.6526    0.7766    3.9301 C   0  0  0  0  0  0  0  0  0  0  0  0
   -3.0786   -2.5438    4.7385 C   0  0  0  0  0  0  0  0  0  0  0  0
   -2.3552   -3.6169    4.1687 C   0  0  0  0  0  0  0  0  0  0  0  0
   -2.0039   -4.7287    4.9338 C   0  0  0  0  0  0  0  0  0  0  0  0
   -2.3751   -4.8044    6.2838 C   0  0  0  0  0  0  0  0  0  0  0  0
   -1.9444   -5.9889    7.1017 C   0  0  0  0  0  0  0  0  0  0  0  0
   -3.1308   -3.7688    6.8501 C   0  0  0  0  0  0  0  0  0  0  0  0
   -3.4862   -2.6500    6.0813 C   0  0  0  0  0  0  0  0  0  0  0  0
   -4.5686   -2.4815    1.9955 C   0  0  0  0  0  0  0  0  0  0  0  0
   -5.9888   -3.1529    2.5739 S   0  0  0  0  0  0  0  0  0  0  0  0
   -6.4935   -3.7519    1.0478 C   0  0  0  0  0  0  0  0  0  0  0  0
   -5.5346   -3.3892    0.0921 C   0  0  0  0  0  0  0  0  0  0  0  0
   -5.6568   -3.5737   -1.3224 N   0  0  0  0  0  0  0  0  0  0  0  0
   -6.3895   -2.6186   -2.1254 C   0  0  0  0  0  0  0  0  0  0  0  0
   -6.5699   -1.2877   -1.6951 C   0  0  0  0  0  0  0  0  0  0  0  0
   -7.2010   -0.3533   -2.5225 C   0  0  0  0  0  0  0  0  0  0  0  0
   -7.6678   -0.7314   -3.7871 C   0  0  0  0  0  0  0  0  0  0  0  0
   -8.3591    0.2715   -4.6629 C   0  0  0  0  0  0  0  0  0  0  0  0
   -7.5392   -2.0661   -4.2009 C   0  0  0  0  0  0  0  0  0  0  0  0
   -6.8955   -2.9990   -3.3810 C   0  0  0  0  0  0  0  0  0  0  0  0
   -4.6964   -4.4524   -1.9363 C   0  0  0  0  0  0  0  0  0  0  0  0
   -4.5997   -5.7882   -1.5185 C   0  0  0  0  0  0  0  0  0  0  0  0
   -3.5940   -6.6150   -2.0208 C   0  0  0  0  0  0  0  0  0  0  0  0
   -2.6483   -6.1097   -2.9280 C   0  0  0  0  0  0  0  0  0  0  0  0
   -1.5379   -6.9882   -3.4192 C   0  0  0  0  0  0  0  0  0  0  0  0
   -2.7544   -4.7796   -3.3628 C   0  0  0  0  0  0  0  0  0  0  0  0
   -3.7732   -3.9579   -2.8752 C   0  0  0  0  0  0  0  0  0  0  0  0
   -4.4853   -2.6881    0.6620 C   0  0  0  0  0  0  0  0  0  0  0  0
   -3.2711   -1.7541    0.0147 S   0  0  0  0  0  0  0  0  0  0  0  0
   -7.8520   -4.2091    0.6990 C   0  0  0  0  0  0  0  0  0  0  0  0
   -8.7590   -4.6894    1.5702 C   0  0  0  0  0  0  0  0  0  0  0  0
   -8.4532   -5.4347    2.7971 C   0  0  0  0  0  0  0  0  0  0  0  0
   -7.3107   -5.6656    3.2742 O   0  0  0  0  0  0  0  0  0  0  0  0
   -9.6742   -6.0628    3.2584 C   0  0  0  0  0  0  0  0  0  0  0  0
   -9.8224   -6.9329    4.3349 C   0  0  0  0  0  0  0  0  0  0  0  0
  -11.0831   -7.5011    4.5731 C   0  0  0  0  0  0  0  0  0  0  0  0
  -11.2688   -8.5906    5.9441 Cl  0  0  0  0  0  0  0  0  0  0  0  0
  -12.1679   -7.1921    3.7280 C   0  0  0  0  0  0  0  0  0  0  0  0
  -13.9031   -7.9561    4.0133 Br  0  0  0  0  0  0  0  0  0  0  0  0
  -11.9878   -6.3281    2.6328 C   0  0  0  0  0  0  0  0  0  0  0  0
  -10.7196   -5.7584    2.4060 C   0  0  0  0  0  0  0  0  0  0  0  0
  -10.2280   -4.8489    1.3251 C   0  0  0  0  0  0  0  0  0  0  0  0
  -10.9797   -4.1551    0.4240 C   0  0  0  0  0  0  0  0  0  0  0  0
  -10.4277   -3.1297   -0.4210 C   0  0  0  0  0  0  0  0  0  0  0  0
   -9.9838   -2.3131   -1.1065 N   0  0  0  0  0  0  0  0  0  0  0  0
  -12.3916   -4.3710    0.2516 C   0  0  0  0  0  0  0  0  0  0  0  0
  -13.5304   -4.5326    0.0901 N   0  0  0  0  0  0  0  0  0  0  0  0
    6.1194    1.9159   -4.9131 H   0  0  0  0  0  0  0  0  0  0  0  0
    9.2568    4.9485   -0.4070 H   0  0  0  0  0  0  0  0  0  0  0  0
   11.5492    2.1831   -4.0346 H   0  0  0  0  0  0  0  0  0  0  0  0
   13.8374    3.7381   -1.9067 H   0  0  0  0  0  0  0  0  0  0  0  0
   14.1150    1.2997   -1.0749 H   0  0  0  0  0  0  0  0  0  0  0  0
   11.7888    0.2323   -0.4030 H   0  0  0  0  0  0  0  0  0  0  0  0
   10.6623    1.7511    1.3731 H   0  0  0  0  0  0  0  0  0  0  0  0
   12.2780    3.7902    1.8672 H   0  0  0  0  0  0  0  0  0  0  0  0
   14.6034    3.2973    0.6412 H   0  0  0  0  0  0  0  0  0  0  0  0
   14.0122    1.8161    1.5118 H   0  0  0  0  0  0  0  0  0  0  0  0
   12.7986    5.1027   -0.2912 H   0  0  0  0  0  0  0  0  0  0  0  0
    6.9639    0.9285   -1.2365 H   0  0  0  0  0  0  0  0  0  0  0  0
    9.3889    0.5636   -1.3495 H   0  0  0  0  0  0  0  0  0  0  0  0
   11.0042   -1.7739   -2.4905 H   0  0  0  0  0  0  0  0  0  0  0  0
   11.1130   -1.1807   -4.1953 H   0  0  0  0  0  0  0  0  0  0  0  0
   11.3450   -0.0335   -2.8340 H   0  0  0  0  0  0  0  0  0  0  0  0
    8.8615   -1.8358   -4.8973 H   0  0  0  0  0  0  0  0  0  0  0  0
    6.4442   -1.4454   -4.7993 H   0  0  0  0  0  0  0  0  0  0  0  0
    5.3391   -2.5186   -1.9829 H   0  0  0  0  0  0  0  0  0  0  0  0
    3.7919   -4.3977   -2.3308 H   0  0  0  0  0  0  0  0  0  0  0  0
    1.0193   -4.3951   -4.7513 H   0  0  0  0  0  0  0  0  0  0  0  0
    1.9389   -5.3820   -3.5683 H   0  0  0  0  0  0  0  0  0  0  0  0
    0.6203   -4.2909   -2.9892 H   0  0  0  0  0  0  0  0  0  0  0  0
    1.2326   -1.8618   -4.6856 H   0  0  0  0  0  0  0  0  0  0  0  0
    2.7927    0.0140   -4.3758 H   0  0  0  0  0  0  0  0  0  0  0  0
   -0.4222    5.8855    0.5993 H   0  0  0  0  0  0  0  0  0  0  0  0
   -2.3055    6.8721   -0.6137 H   0  0  0  0  0  0  0  0  0  0  0  0
   -2.6185    7.5124   -3.7366 H   0  0  0  0  0  0  0  0  0  0  0  0
   -3.3305    5.8741   -4.0256 H   0  0  0  0  0  0  0  0  0  0  0  0
   -3.7905    6.8015   -2.5604 H   0  0  0  0  0  0  0  0  0  0  0  0
   -0.9951    4.9529   -4.2392 H   0  0  0  0  0  0  0  0  0  0  0  0
    0.9230    4.0015   -3.0473 H   0  0  0  0  0  0  0  0  0  0  0  0
    2.2102    6.8907   -0.5411 H   0  0  0  0  0  0  0  0  0  0  0  0
    3.3908    8.1967    1.1689 H   0  0  0  0  0  0  0  0  0  0  0  0
    5.1707    6.7554    4.0050 H   0  0  0  0  0  0  0  0  0  0  0  0
    3.6097    7.5714    4.4143 H   0  0  0  0  0  0  0  0  0  0  0  0
    4.7184    8.2872    3.1773 H   0  0  0  0  0  0  0  0  0  0  0  0
    3.6136    4.7092    3.6863 H   0  0  0  0  0  0  0  0  0  0  0  0
    2.4050    3.4040    1.9939 H   0  0  0  0  0  0  0  0  0  0  0  0
   -0.0111   -2.7699    5.0070 H   0  0  0  0  0  0  0  0  0  0  0  0
    1.7469   -2.7485    4.9109 H   0  0  0  0  0  0  0  0  0  0  0  0
    1.7420   -0.6881    6.4545 H   0  0  0  0  0  0  0  0  0  0  0  0
    0.9727   -2.1346    7.1850 H   0  0  0  0  0  0  0  0  0  0  0  0
   -0.0505   -0.8152    6.5290 H   0  0  0  0  0  0  0  0  0  0  0  0
    3.3771   -1.2869    4.7442 H   0  0  0  0  0  0  0  0  0  0  0  0
    4.0056   -0.6161    3.2222 H   0  0  0  0  0  0  0  0  0  0  0  0
    2.8086    1.1418    5.4639 H   0  0  0  0  0  0  0  0  0  0  0  0
    4.5518    0.7401    5.3093 H   0  0  0  0  0  0  0  0  0  0  0  0
    3.7229    1.6856    4.0080 H   0  0  0  0  0  0  0  0  0  0  0  0
   -2.1748   -0.2333    6.0333 H   0  0  0  0  0  0  0  0  0  0  0  0
   -2.5529    1.9956    6.9537 H   0  0  0  0  0  0  0  0  0  0  0  0
   -5.4281    4.0993    6.1927 H   0  0  0  0  0  0  0  0  0  0  0  0
   -3.8970    3.9855    7.1172 H   0  0  0  0  0  0  0  0  0  0  0  0
   -3.8769    4.6319    5.4350 H   0  0  0  0  0  0  0  0  0  0  0  0
   -5.6124    2.6965    4.0002 H   0  0  0  0  0  0  0  0  0  0  0  0
   -5.2534    0.4450    3.0928 H   0  0  0  0  0  0  0  0  0  0  0  0
   -2.0415   -3.5899    3.1349 H   0  0  0  0  0  0  0  0  0  0  0  0
   -1.4305   -5.5292    4.4837 H   0  0  0  0  0  0  0  0  0  0  0  0
   -2.4983   -6.8907    6.7759 H   0  0  0  0  0  0  0  0  0  0  0  0
   -2.1249   -5.8214    8.1840 H   0  0  0  0  0  0  0  0  0  0  0  0
   -0.8555   -6.1736    6.9557 H   0  0  0  0  0  0  0  0  0  0  0  0
   -3.4375   -3.8212    7.8868 H   0  0  0  0  0  0  0  0  0  0  0  0
   -4.1004   -1.8842    6.5365 H   0  0  0  0  0  0  0  0  0  0  0  0
   -6.1952   -0.9551   -0.7384 H   0  0  0  0  0  0  0  0  0  0  0  0
   -7.3159    0.6644   -2.1766 H   0  0  0  0  0  0  0  0  0  0  0  0
   -8.2802   -0.0142   -5.7323 H   0  0  0  0  0  0  0  0  0  0  0  0
   -7.8984    1.2748   -4.5394 H   0  0  0  0  0  0  0  0  0  0  0  0
   -9.4320    0.3325   -4.3816 H   0  0  0  0  0  0  0  0  0  0  0  0
   -7.9208   -2.3821   -5.1663 H   0  0  0  0  0  0  0  0  0  0  0  0
   -6.7917   -4.0201   -3.7328 H   0  0  0  0  0  0  0  0  0  0  0  0
   -5.3053   -6.1856   -0.7961 H   0  0  0  0  0  0  0  0  0  0  0  0
   -3.5333   -7.6442   -1.6870 H   0  0  0  0  0  0  0  0  0  0  0  0
   -0.8054   -6.4158   -4.0235 H   0  0  0  0  0  0  0  0  0  0  0  0
   -1.9528   -7.8044   -4.0412 H   0  0  0  0  0  0  0  0  0  0  0  0
   -0.9953   -7.4286   -2.5534 H   0  0  0  0  0  0  0  0  0  0  0  0
   -2.0427   -4.3720   -4.0671 H   0  0  0  0  0  0  0  0  0  0  0  0
   -3.8202   -2.9237   -3.1920 H   0  0  0  0  0  0  0  0  0  0  0  0
   -8.1337   -4.0695   -0.3263 H   0  0  0  0  0  0  0  0  0  0  0  0
   -8.9804   -7.1609    4.9822 H   0  0  0  0  0  0  0  0  0  0  0  0
  -12.8250   -6.1519    1.9807 H   0  0  0  0  0  0  0  0  0  0  0  0
  1  2  2  3
  2  3  1  0
  3  4  2  0
  3  5  1  0
  5  6  2  0
  6  7  1  0
  7  8  2  0
  8  9  1  0
  9 10  2  0
 10 11  1  0
 11 12  2  3
 12 13  1  0
 13 14  3  0
 12 15  1  0
 15 16  3  0
  8 17  1  0
 17 18  1  0
 18 19  1  0
 19 20  2  0
 20 21  1  0
 21 22  1  0
 21 23  1  0
  1 24  1  0
 24 25  2  0
 25 26  1  0
 26 27  1  0
 27 28  2  0
 28 29  1  0
 29 30  2  0
 30 31  1  0
 30 32  1  0
 32 33  2  0
 26 34  1  0
 34 35  2  0
 35 36  1  0
 36 37  2  0
 37 38  1  0
 37 39  1  0
 39 40  2  0
 25 41  1  0
 41 42  1  0
 42 43  1  0
 43 44  2  0
 44 45  1  0
 45 46  1  0
 46 47  2  0
 47 48  1  0
 48 49  2  0
 49 50  1  0
 49 51  1  0
 51 52  2  0
 45 53  1  0
 53 54  2  0
 54 55  1  0
 55 56  2  0
 56 57  1  0
 56 58  1  0
 58 59  2  0
 44 60  1  0
 60 61  1  0
 43 62  1  0
 62 63  2  0
 63 64  1  0
 63 65  1  0
 65 66  1  0
 65 67  2  0
 67 68  1  0
 68 69  2  0
 69 70  1  0
 70 71  1  0
 71 72  1  0
 70 73  2  0
 73 74  1  0
 74 75  2  0
 73 76  1  0
 76 77  1  0
 67 78  1  0
 78 79  2  0
 79 80  1  0
 80 81  1  0
 81 82  2  0
 82 83  1  0
 83 84  2  0
 84 85  1  0
 84 86  1  0
 86 87  2  0
 80 88  1  0
 88 89  2  0
 89 90  1  0
 90 91  2  0
 91 92  1  0
 91 93  1  0
 93 94  2  0
 79 95  1  0
 95 96  1  0
 96 97  1  0
 97 98  2  0
 98 99  1  0
 99100  1  0
100101  2  0
101102  1  0
102103  2  0
103104  1  0
103105  1  0
105106  2  0
 99107  1  0
107108  2  0
108109  1  0
109110  2  0
110111  1  0
110112  1  0
112113  2  0
 98114  1  0
114115  1  0
 97116  1  0
116117  2  3
117118  1  0
118119  2  0
118120  1  0
120121  2  0
121122  1  0
122123  1  0
122124  2  0
124125  1  0
124126  1  0
126127  2  0
127128  1  0
128129  2  3
129130  1  0
130131  3  0
129132  1  0
132133  3  0
 11  2  1  0
 23 17  1  0
 61 24  1  0
 75 62  1  0
115 78  1  0
128117  1  0
 10  5  1  0
 22 18  1  0
 33 27  1  0
 40 34  1  0
 60 41  2  0
 75 68  1  0
 87 81  1  0
 94 88  1  0
114 95  2  0
127120  1  0
 23  7  1  0
 52 46  1  0
 59 53  1  0
106100  1  0
113107  1  0
  1134  1  0
  6135  1  0
  9136  1  0
 17137  1  0
 18138  1  0
 19139  1  0
 20140  1  0
 21141  1  0
 22142  1  0
 22143  1  0
 23144  1  0
 28145  1  0
 29146  1  0
 31147  1  0
 31148  1  0
 31149  1  0
 32150  1  0
 33151  1  0
 35152  1  0
 36153  1  0
 38154  1  0
 38155  1  0
 38156  1  0
 39157  1  0
 40158  1  0
 47159  1  0
 48160  1  0
 50161  1  0
 50162  1  0
 50163  1  0
 51164  1  0
 52165  1  0
 54166  1  0
 55167  1  0
 57168  1  0
 57169  1  0
 57170  1  0
 58171  1  0
 59172  1  0
 71173  1  0
 71174  1  0
 72175  1  0
 72176  1  0
 72177  1  0
 76178  1  0
 76179  1  0
 77180  1  0
 77181  1  0
 77182  1  0
 82183  1  0
 83184  1  0
 85185  1  0
 85186  1  0
 85187  1  0
 86188  1  0
 87189  1  0
 89190  1  0
 90191  1  0
 92192  1  0
 92193  1  0
 92194  1  0
 93195  1  0
 94196  1  0
101197  1  0
102198  1  0
104199  1  0
104200  1  0
104201  1  0
105202  1  0
106203  1  0
108204  1  0
109205  1  0
111206  1  0
111207  1  0
111208  1  0
112209  1  0
113210  1  0
116211  1  0
121212  1  0
126213  1  0
M  END

