
     RDKit          3D

251273  0  0  0  0  0  0  0  0999 V2000
    3.1258    6.7735   -3.0282 C   0  0  0  0  0  0  0  0  0  0  0  0
    4.2685    6.1296   -2.6960 C   0  0  0  0  0  0  0  0  0  0  0  0
    5.5167    6.8368   -2.3991 C   0  0  0  0  0  0  0  0  0  0  0  0
    5.8042    8.0071   -2.7630 O   0  0  0  0  0  0  0  0  0  0  0  0
    6.3158    6.0195   -1.5019 C   0  0  0  0  0  0  0  0  0  0  0  0
    7.5185    6.3690   -0.8379 C   0  0  0  0  0  0  0  0  0  0  0  0
    8.0112    5.3702   -0.0058 C   0  0  0  0  0  0  0  0  0  0  0  0
    7.3745    4.0946    0.1417 C   0  0  0  0  0  0  0  0  0  0  0  0
    6.1955    3.7543   -0.4913 C   0  0  0  0  0  0  0  0  0  0  0  0
    5.6471    4.7805   -1.3020 C   0  0  0  0  0  0  0  0  0  0  0  0
    4.3982    4.7742   -2.0961 C   0  0  0  0  0  0  0  0  0  0  0  0
    3.6971    3.6757   -2.4288 C   0  0  0  0  0  0  0  0  0  0  0  0
    3.0997    3.5450   -3.7314 C   0  0  0  0  0  0  0  0  0  0  0  0
    2.6544    3.4307   -4.7949 N   0  0  0  0  0  0  0  0  0  0  0  0
    3.5017    2.6028   -1.4923 C   0  0  0  0  0  0  0  0  0  0  0  0
    3.3375    1.7510   -0.7276 N   0  0  0  0  0  0  0  0  0  0  0  0
    8.4325    3.6516    1.1029 C   0  0  0  0  0  0  0  0  0  0  0  0
    8.0390    3.5788    2.6077 C   0  0  0  0  0  0  0  0  0  0  0  0
    6.9797    4.6085    2.9178 C   0  0  0  0  0  0  0  0  0  0  0  0
    7.5675    5.7993    2.8061 C   0  0  0  0  0  0  0  0  0  0  0  0
    9.0034    5.5471    2.4159 C   0  0  0  0  0  0  0  0  0  0  0  0
    9.2395    4.2783    3.2182 C   0  0  0  0  0  0  0  0  0  0  0  0
    9.0757    4.9668    0.9733 C   0  0  0  0  0  0  0  0  0  0  0  0
    1.7772    6.2268   -2.7820 C   0  0  0  0  0  0  0  0  0  0  0  0
    1.3543    5.5607   -1.6067 C   0  0  0  0  0  0  0  0  0  0  0  0
    1.9066    5.7540   -0.2703 N   0  0  0  0  0  0  0  0  0  0  0  0
    2.7567    6.8788    0.0340 C   0  0  0  0  0  0  0  0  0  0  0  0
    2.3703    8.1870   -0.3060 C   0  0  0  0  0  0  0  0  0  0  0  0
    3.2107    9.2725   -0.0308 C   0  0  0  0  0  0  0  0  0  0  0  0
    4.4597    9.0608    0.5783 C   0  0  0  0  0  0  0  0  0  0  0  0
    5.3730   10.2139    0.8703 C   0  0  0  0  0  0  0  0  0  0  0  0
    4.8200    7.7646    0.9665 C   0  0  0  0  0  0  0  0  0  0  0  0
    3.9690    6.6845    0.7164 C   0  0  0  0  0  0  0  0  0  0  0  0
    1.2797    5.1294    0.8628 C   0  0  0  0  0  0  0  0  0  0  0  0
   -0.0012    5.5446    1.2725 C   0  0  0  0  0  0  0  0  0  0  0  0
   -0.6324    4.9260    2.3574 C   0  0  0  0  0  0  0  0  0  0  0  0
    0.0176    3.9043    3.0645 C   0  0  0  0  0  0  0  0  0  0  0  0
   -0.6382    3.2558    4.2486 C   0  0  0  0  0  0  0  0  0  0  0  0
    1.3070    3.5061    2.6696 C   0  0  0  0  0  0  0  0  0  0  0  0
    1.9293    4.1084    1.5695 C   0  0  0  0  0  0  0  0  0  0  0  0
    0.2977    4.6947   -1.9162 C   0  0  0  0  0  0  0  0  0  0  0  0
   -0.2936    3.3178   -1.1811 S   0  0  0  0  0  0  0  0  0  0  0  0
   -1.2787    2.8527   -2.4801 C   0  0  0  0  0  0  0  0  0  0  0  0
   -1.1611    3.7870   -3.5232 C   0  0  0  0  0  0  0  0  0  0  0  0
   -1.9794    3.7956   -4.7236 N   0  0  0  0  0  0  0  0  0  0  0  0
   -3.3472    3.3126   -4.7009 C   0  0  0  0  0  0  0  0  0  0  0  0
   -4.1467    3.4711   -3.5531 C   0  0  0  0  0  0  0  0  0  0  0  0
   -5.4175    2.8927   -3.4807 C   0  0  0  0  0  0  0  0  0  0  0  0
   -5.9192    2.1592   -4.5655 C   0  0  0  0  0  0  0  0  0  0  0  0
   -7.2768    1.5258   -4.4828 C   0  0  0  0  0  0  0  0  0  0  0  0
   -5.1732    2.0853   -5.7485 C   0  0  0  0  0  0  0  0  0  0  0  0
   -3.9025    2.6685   -5.8220 C   0  0  0  0  0  0  0  0  0  0  0  0
   -1.4753    4.4098   -5.9244 C   0  0  0  0  0  0  0  0  0  0  0  0
   -2.1656    5.4923   -6.4912 C   0  0  0  0  0  0  0  0  0  0  0  0
   -1.6411    6.1492   -7.6091 C   0  0  0  0  0  0  0  0  0  0  0  0
   -0.4233    5.7396   -8.1645 C   0  0  0  0  0  0  0  0  0  0  0  0
    0.1967    6.5024   -9.2950 C   0  0  0  0  0  0  0  0  0  0  0  0
    0.2591    4.6478   -7.6057 C   0  0  0  0  0  0  0  0  0  0  0  0
   -0.2705    3.9768   -6.5002 C   0  0  0  0  0  0  0  0  0  0  0  0
   -0.2221    4.7821   -3.1729 C   0  0  0  0  0  0  0  0  0  0  0  0
    0.6782    5.9059   -4.0422 S   0  0  0  0  0  0  0  0  0  0  0  0
   -1.9054    1.5268   -2.4805 C   0  0  0  0  0  0  0  0  0  0  0  0
   -1.1142    0.3786   -2.6996 C   0  0  0  0  0  0  0  0  0  0  0  0
   -0.4307    0.1241   -3.9400 N   0  0  0  0  0  0  0  0  0  0  0  0
    1.0089    0.1518   -4.0636 C   0  0  0  0  0  0  0  0  0  0  0  0
    1.8393   -0.1301   -2.9654 C   0  0  0  0  0  0  0  0  0  0  0  0
    3.2237   -0.2385   -3.1305 C   0  0  0  0  0  0  0  0  0  0  0  0
    3.8006   -0.0105   -4.3812 C   0  0  0  0  0  0  0  0  0  0  0  0
    5.5706   -0.1380   -4.5910 S   0  0  0  0  0  0  0  0  0  0  0  0
    5.4817   -1.8761   -5.1320 C   0  0  0  0  0  0  0  0  0  0  0  0
    2.9967    0.3198   -5.4730 C   0  0  0  0  0  0  0  0  0  0  0  0
    1.6068    0.3835   -5.3194 C   0  0  0  0  0  0  0  0  0  0  0  0
   -1.2104   -0.4544   -5.0016 C   0  0  0  0  0  0  0  0  0  0  0  0
   -1.5226   -1.8247   -4.9907 C   0  0  0  0  0  0  0  0  0  0  0  0
   -2.2914   -2.3800   -6.0158 C   0  0  0  0  0  0  0  0  0  0  0  0
   -2.7366   -1.5751   -7.0713 C   0  0  0  0  0  0  0  0  0  0  0  0
   -3.7305   -2.2783   -8.3824 S   0  0  0  0  0  0  0  0  0  0  0  0
   -2.2842   -2.7349   -9.3900 C   0  0  0  0  0  0  0  0  0  0  0  0
   -2.4098   -0.2158   -7.0984 C   0  0  0  0  0  0  0  0  0  0  0  0
   -1.6483    0.3415   -6.0654 C   0  0  0  0  0  0  0  0  0  0  0  0
   -1.4302   -0.6383   -1.7977 C   0  0  0  0  0  0  0  0  0  0  0  0
   -0.7376   -2.1042   -1.4059 S   0  0  0  0  0  0  0  0  0  0  0  0
   -1.7713   -2.4330   -0.0874 C   0  0  0  0  0  0  0  0  0  0  0  0
   -2.7321   -1.3918   -0.0036 C   0  0  0  0  0  0  0  0  0  0  0  0
   -4.0085   -1.4632    0.6745 N   0  0  0  0  0  0  0  0  0  0  0  0
   -4.8843   -2.6070    0.4815 C   0  0  0  0  0  0  0  0  0  0  0  0
   -4.7190   -3.4914   -0.6027 C   0  0  0  0  0  0  0  0  0  0  0  0
   -5.5822   -4.5800   -0.7772 C   0  0  0  0  0  0  0  0  0  0  0  0
   -6.6352   -4.7873    0.1190 C   0  0  0  0  0  0  0  0  0  0  0  0
   -7.7315   -6.1830   -0.0985 S   0  0  0  0  0  0  0  0  0  0  0  0
   -6.8101   -7.2374    1.0643 C   0  0  0  0  0  0  0  0  0  0  0  0
   -6.8372   -3.8966    1.1727 C   0  0  0  0  0  0  0  0  0  0  0  0
   -5.9807   -2.8048    1.3432 C   0  0  0  0  0  0  0  0  0  0  0  0
   -4.5815   -0.2292    1.1422 C   0  0  0  0  0  0  0  0  0  0  0  0
   -5.7356    0.2958    0.5251 C   0  0  0  0  0  0  0  0  0  0  0  0
   -6.2520    1.5283    0.9266 C   0  0  0  0  0  0  0  0  0  0  0  0
   -5.6470    2.2425    1.9709 C   0  0  0  0  0  0  0  0  0  0  0  0
   -6.3085    3.8358    2.4588 S   0  0  0  0  0  0  0  0  0  0  0  0
   -5.1140    4.7801    1.4573 C   0  0  0  0  0  0  0  0  0  0  0  0
   -4.5018    1.7283    2.5902 C   0  0  0  0  0  0  0  0  0  0  0  0
   -3.9564    0.5119    2.1633 C   0  0  0  0  0  0  0  0  0  0  0  0
   -2.4425   -0.3882   -0.9383 C   0  0  0  0  0  0  0  0  0  0  0  0
   -2.9975    1.1628   -1.2213 S   0  0  0  0  0  0  0  0  0  0  0  0
   -1.4882   -3.5731    0.8259 C   0  0  0  0  0  0  0  0  0  0  0  0
   -1.9065   -3.8077    2.1595 C   0  0  0  0  0  0  0  0  0  0  0  0
   -2.4706   -2.8215    3.0471 N   0  0  0  0  0  0  0  0  0  0  0  0
   -1.5136   -1.9606    3.7151 C   0  0  0  0  0  0  0  0  0  0  0  0
   -1.3898   -1.9729    5.1191 C   0  0  0  0  0  0  0  0  0  0  0  0
   -0.4018   -1.2138    5.7589 C   0  0  0  0  0  0  0  0  0  0  0  0
    0.5065   -0.4572    5.0086 C   0  0  0  0  0  0  0  0  0  0  0  0
    1.5728    0.3510    5.7003 C   0  0  0  0  0  0  0  0  0  0  0  0
    0.3925   -0.4361    3.6128 C   0  0  0  0  0  0  0  0  0  0  0  0
   -0.6046   -1.1831    2.9739 C   0  0  0  0  0  0  0  0  0  0  0  0
   -3.7558   -3.0971    3.6718 C   0  0  0  0  0  0  0  0  0  0  0  0
   -4.4351   -2.0836    4.3750 C   0  0  0  0  0  0  0  0  0  0  0  0
   -5.6683   -2.3384    4.9860 C   0  0  0  0  0  0  0  0  0  0  0  0
   -6.2444   -3.6165    4.9141 C   0  0  0  0  0  0  0  0  0  0  0  0
   -7.5657   -3.9007    5.5592 C   0  0  0  0  0  0  0  0  0  0  0  0
   -5.5567   -4.6406    4.2563 C   0  0  0  0  0  0  0  0  0  0  0  0
   -4.3393   -4.3816    3.6228 C   0  0  0  0  0  0  0  0  0  0  0  0
   -1.2411   -4.9157    2.7086 C   0  0  0  0  0  0  0  0  0  0  0  0
   -1.0908   -5.4311    4.2937 S   0  0  0  0  0  0  0  0  0  0  0  0
    0.2914   -6.3664    4.0068 C   0  0  0  0  0  0  0  0  0  0  0  0
    0.7054   -6.1914    2.6657 C   0  0  0  0  0  0  0  0  0  0  0  0
    2.0974   -6.1939    2.2718 N   0  0  0  0  0  0  0  0  0  0  0  0
    2.4789   -6.5721    0.9327 C   0  0  0  0  0  0  0  0  0  0  0  0
    3.5255   -5.8986    0.2699 C   0  0  0  0  0  0  0  0  0  0  0  0
    3.8742   -6.2355   -1.0387 C   0  0  0  0  0  0  0  0  0  0  0  0
    3.1927   -7.2612   -1.7107 C   0  0  0  0  0  0  0  0  0  0  0  0
    3.5485   -7.5837   -3.1312 C   0  0  0  0  0  0  0  0  0  0  0  0
    2.1322   -7.9214   -1.0679 C   0  0  0  0  0  0  0  0  0  0  0  0
    1.7811   -7.5806    0.2427 C   0  0  0  0  0  0  0  0  0  0  0  0
    3.0518   -5.5626    3.1506 C   0  0  0  0  0  0  0  0  0  0  0  0
    2.7724   -4.3005    3.7055 C   0  0  0  0  0  0  0  0  0  0  0  0
    3.6351   -3.7407    4.6515 C   0  0  0  0  0  0  0  0  0  0  0  0
    4.7834   -4.4366    5.0586 C   0  0  0  0  0  0  0  0  0  0  0  0
    5.6966   -3.8343    6.0858 C   0  0  0  0  0  0  0  0  0  0  0  0
    5.0881   -5.6743    4.4684 C   0  0  0  0  0  0  0  0  0  0  0  0
    4.2273   -6.2342    3.5213 C   0  0  0  0  0  0  0  0  0  0  0  0
   -0.2479   -5.4534    1.9571 C   0  0  0  0  0  0  0  0  0  0  0  0
   -0.2107   -4.6531    0.4956 S   0  0  0  0  0  0  0  0  0  0  0  0
    1.1117   -6.8868    5.1133 C   0  0  0  0  0  0  0  0  0  0  0  0
    1.8577   -8.0015    5.0625 C   0  0  0  0  0  0  0  0  0  0  0  0
    1.8040   -8.8954    3.9259 C   0  0  0  0  0  0  0  0  0  0  0  0
    1.7638   -9.6094    3.0133 N   0  0  0  0  0  0  0  0  0  0  0  0
    2.7571   -8.3238    6.1832 C   0  0  0  0  0  0  0  0  0  0  0  0
    3.3348   -9.4443    6.2350 O   0  0  0  0  0  0  0  0  0  0  0  0
    2.9791   -7.3648    7.1708 O   0  0  0  0  0  0  0  0  0  0  0  0
    3.8928   -7.5465    8.2418 C   0  0  0  0  0  0  0  0  0  0  0  0
    3.9515   -6.2648    9.0543 C   0  0  0  0  0  0  0  0  0  0  0  0
    3.1819    7.7786   -3.4283 H   0  0  0  0  0  0  0  0  0  0  0  0
    7.9971    7.3364   -0.9502 H   0  0  0  0  0  0  0  0  0  0  0  0
    5.7426    2.7900   -0.3234 H   0  0  0  0  0  0  0  0  0  0  0  0
    9.0546    2.8083    0.7257 H   0  0  0  0  0  0  0  0  0  0  0  0
    7.8341    2.5585    2.9937 H   0  0  0  0  0  0  0  0  0  0  0  0
    5.9750    4.4334    3.2959 H   0  0  0  0  0  0  0  0  0  0  0  0
    7.1292    6.7407    3.1186 H   0  0  0  0  0  0  0  0  0  0  0  0
    9.6964    6.3869    2.6205 H   0  0  0  0  0  0  0  0  0  0  0  0
    9.1450    4.4311    4.3230 H   0  0  0  0  0  0  0  0  0  0  0  0
   10.2092    3.7767    2.9850 H   0  0  0  0  0  0  0  0  0  0  0  0
   10.0949    4.9198    0.5381 H   0  0  0  0  0  0  0  0  0  0  0  0
    1.4209    8.3656   -0.7929 H   0  0  0  0  0  0  0  0  0  0  0  0
    2.8983   10.2745   -0.3035 H   0  0  0  0  0  0  0  0  0  0  0  0
    6.4325    9.9262    0.6855 H   0  0  0  0  0  0  0  0  0  0  0  0
    5.1339   11.0880    0.2253 H   0  0  0  0  0  0  0  0  0  0  0  0
    5.2644   10.5170    1.9338 H   0  0  0  0  0  0  0  0  0  0  0  0
    5.7797    7.5917    1.4320 H   0  0  0  0  0  0  0  0  0  0  0  0
    4.2817    5.6955    1.0155 H   0  0  0  0  0  0  0  0  0  0  0  0
   -0.5188    6.3266    0.7339 H   0  0  0  0  0  0  0  0  0  0  0  0
   -1.6268    5.2424    2.6423 H   0  0  0  0  0  0  0  0  0  0  0  0
   -0.0644    3.4942    5.1708 H   0  0  0  0  0  0  0  0  0  0  0  0
   -0.6655    2.1527    4.1214 H   0  0  0  0  0  0  0  0  0  0  0  0
   -1.6847    3.6080    4.3848 H   0  0  0  0  0  0  0  0  0  0  0  0
    1.8297    2.7367    3.2230 H   0  0  0  0  0  0  0  0  0  0  0  0
    2.9174    3.7838    1.2791 H   0  0  0  0  0  0  0  0  0  0  0  0
   -3.7819    4.0225   -2.6990 H   0  0  0  0  0  0  0  0  0  0  0  0
   -6.0050    3.0020   -2.5784 H   0  0  0  0  0  0  0  0  0  0  0  0
   -8.0369    2.2519   -4.8357 H   0  0  0  0  0  0  0  0  0  0  0  0
   -7.5118    1.2286   -3.4380 H   0  0  0  0  0  0  0  0  0  0  0  0
   -7.3259    0.6119   -5.1154 H   0  0  0  0  0  0  0  0  0  0  0  0
   -5.5721    1.5652   -6.6136 H   0  0  0  0  0  0  0  0  0  0  0  0
   -3.3477    2.5835   -6.7450 H   0  0  0  0  0  0  0  0  0  0  0  0
   -3.0897    5.8483   -6.0512 H   0  0  0  0  0  0  0  0  0  0  0  0
   -2.1781    6.9935   -8.0273 H   0  0  0  0  0  0  0  0  0  0  0  0
    0.6857    5.8064  -10.0093 H   0  0  0  0  0  0  0  0  0  0  0  0
    0.9591    7.2012   -8.8904 H   0  0  0  0  0  0  0  0  0  0  0  0
   -0.5666    7.0874   -9.8511 H   0  0  0  0  0  0  0  0  0  0  0  0
    1.2127    4.3373   -8.0141 H   0  0  0  0  0  0  0  0  0  0  0  0
    0.2735    3.1431   -6.0743 H   0  0  0  0  0  0  0  0  0  0  0  0
    1.4224   -0.2983   -1.9854 H   0  0  0  0  0  0  0  0  0  0  0  0
    3.8466   -0.4965   -2.2842 H   0  0  0  0  0  0  0  0  0  0  0  0
    6.5049   -2.2619   -5.3130 H   0  0  0  0  0  0  0  0  0  0  0  0
    4.8996   -1.9482   -6.0770 H   0  0  0  0  0  0  0  0  0  0  0  0
    4.9998   -2.4905   -4.3436 H   0  0  0  0  0  0  0  0  0  0  0  0
    3.4424    0.5028   -6.4452 H   0  0  0  0  0  0  0  0  0  0  0  0
    1.0073    0.6134   -6.1858 H   0  0  0  0  0  0  0  0  0  0  0  0
   -1.1708   -2.4605   -4.1912 H   0  0  0  0  0  0  0  0  0  0  0  0
   -2.5482   -3.4331   -5.9912 H   0  0  0  0  0  0  0  0  0  0  0  0
   -1.7042   -1.8294   -9.6686 H   0  0  0  0  0  0  0  0  0  0  0  0
   -2.6377   -3.2392  -10.3136 H   0  0  0  0  0  0  0  0  0  0  0  0
   -1.6352   -3.4344   -8.8211 H   0  0  0  0  0  0  0  0  0  0  0  0
   -2.7397    0.4089   -7.9214 H   0  0  0  0  0  0  0  0  0  0  0  0
   -1.3830    1.3858   -6.0914 H   0  0  0  0  0  0  0  0  0  0  0  0
   -3.9337   -3.3443   -1.3336 H   0  0  0  0  0  0  0  0  0  0  0  0
   -5.4302   -5.2553   -1.6095 H   0  0  0  0  0  0  0  0  0  0  0  0
   -7.3187   -8.2212    1.1346 H   0  0  0  0  0  0  0  0  0  0  0  0
   -5.7719   -7.3884    0.6985 H   0  0  0  0  0  0  0  0  0  0  0  0
   -6.7922   -6.7672    2.0699 H   0  0  0  0  0  0  0  0  0  0  0  0
   -7.6594   -4.0404    1.8632 H   0  0  0  0  0  0  0  0  0  0  0  0
   -6.1835   -2.1102    2.1504 H   0  0  0  0  0  0  0  0  0  0  0  0
   -6.2076   -0.2409   -0.2931 H   0  0  0  0  0  0  0  0  0  0  0  0
   -7.1250    1.9369    0.4226 H   0  0  0  0  0  0  0  0  0  0  0  0
   -5.0636    4.3764    0.4240 H   0  0  0  0  0  0  0  0  0  0  0  0
   -5.4267    5.8444    1.4140 H   0  0  0  0  0  0  0  0  0  0  0  0
   -4.1102    4.7212    1.9268 H   0  0  0  0  0  0  0  0  0  0  0  0
   -4.0120    2.2915    3.3755 H   0  0  0  0  0  0  0  0  0  0  0  0
   -3.0465    0.1513    2.6180 H   0  0  0  0  0  0  0  0  0  0  0  0
   -2.0461   -2.5818    5.7260 H   0  0  0  0  0  0  0  0  0  0  0  0
   -0.3364   -1.2253    6.8399 H   0  0  0  0  0  0  0  0  0  0  0  0
    1.1036    1.1903    6.2570 H   0  0  0  0  0  0  0  0  0  0  0  0
    2.1261   -0.2938    6.4158 H   0  0  0  0  0  0  0  0  0  0  0  0
    2.2988    0.7733    4.9744 H   0  0  0  0  0  0  0  0  0  0  0  0
    1.0723    0.1528    3.0094 H   0  0  0  0  0  0  0  0  0  0  0  0
   -0.6586   -1.1397    1.8962 H   0  0  0  0  0  0  0  0  0  0  0  0
   -4.0129   -1.0908    4.4515 H   0  0  0  0  0  0  0  0  0  0  0  0
   -6.1792   -1.5350    5.5025 H   0  0  0  0  0  0  0  0  0  0  0  0
   -8.2122   -4.4598    4.8545 H   0  0  0  0  0  0  0  0  0  0  0  0
   -7.4106   -4.5093    6.4734 H   0  0  0  0  0  0  0  0  0  0  0  0
   -8.0871   -2.9580    5.8392 H   0  0  0  0  0  0  0  0  0  0  0  0
   -5.9812   -5.6373    4.1999 H   0  0  0  0  0  0  0  0  0  0  0  0
   -3.8689   -5.1977    3.0924 H   0  0  0  0  0  0  0  0  0  0  0  0
    4.0590   -5.0944    0.7576 H   0  0  0  0  0  0  0  0  0  0  0  0
    4.6700   -5.6926   -1.5319 H   0  0  0  0  0  0  0  0  0  0  0  0
    4.6495   -7.5556   -3.2646 H   0  0  0  0  0  0  0  0  0  0  0  0
    3.0806   -6.8408   -3.8115 H   0  0  0  0  0  0  0  0  0  0  0  0
    3.1939   -8.6007   -3.4058 H   0  0  0  0  0  0  0  0  0  0  0  0
    1.5770   -8.6962   -1.5819 H   0  0  0  0  0  0  0  0  0  0  0  0
    0.9580   -8.0970    0.7150 H   0  0  0  0  0  0  0  0  0  0  0  0
    1.8766   -3.7572    3.4238 H   0  0  0  0  0  0  0  0  0  0  0  0
    3.3972   -2.7739    5.0812 H   0  0  0  0  0  0  0  0  0  0  0  0
    6.3692   -3.1051    5.5932 H   0  0  0  0  0  0  0  0  0  0  0  0
    5.1014   -3.3191    6.8664 H   0  0  0  0  0  0  0  0  0  0  0  0
    6.3035   -4.6197    6.5807 H   0  0  0  0  0  0  0  0  0  0  0  0
    5.9781   -6.2139    4.7516 H   0  0  0  0  0  0  0  0  0  0  0  0
    4.4428   -7.2079    3.1070 H   0  0  0  0  0  0  0  0  0  0  0  0
    1.0970   -6.2913    6.0146 H   0  0  0  0  0  0  0  0  0  0  0  0
    4.9036   -7.7831    7.8428 H   0  0  0  0  0  0  0  0  0  0  0  0
    3.5461   -8.3749    8.8938 H   0  0  0  0  0  0  0  0  0  0  0  0
    4.3269   -5.4315    8.4214 H   0  0  0  0  0  0  0  0  0  0  0  0
    4.6305   -6.4012    9.9202 H   0  0  0  0  0  0  0  0  0  0  0  0
    2.9326   -6.0149    9.4221 H   0  0  0  0  0  0  0  0  0  0  0  0
  1  2  2  3
  2  3  1  0
  3  4  2  0
  3  5  1  0
  5  6  2  0
  6  7  1  0
  7  8  2  0
  8  9  1  0
  9 10  2  0
 10 11  1  0
 11 12  2  3
 12 13  1  0
 13 14  3  0
 12 15  1  0
 15 16  3  0
  8 17  1  0
 17 18  1  0
 18 19  1  0
 19 20  2  0
 20 21  1  0
 21 22  1  0
 21 23  1  0
  1 24  1  0
 24 25  2  0
 25 26  1  0
 26 27  1  0
 27 28  2  0
 28 29  1  0
 29 30  2  0
 30 31  1  0
 30 32  1  0
 32 33  2  0
 26 34  1  0
 34 35  2  0
 35 36  1  0
 36 37  2  0
 37 38  1  0
 37 39  1  0
 39 40  2  0
 25 41  1  0
 41 42  1  0
 42 43  1  0
 43 44  2  0
 44 45  1  0
 45 46  1  0
 46 47  2  0
 47 48  1  0
 48 49  2  0
 49 50  1  0
 49 51  1  0
 51 52  2  0
 45 53  1  0
 53 54  2  0
 54 55  1  0
 55 56  2  0
 56 57  1  0
 56 58  1  0
 58 59  2  0
 44 60  1  0
 60 61  1  0
 43 62  1  0
 62 63  2  0
 63 64  1  0
 64 65  1  0
 65 66  2  0
 66 67  1  0
 67 68  2  0
 68 69  1  0
 69 70  1  0
 68 71  1  0
 71 72  2  0
 64 73  1  0
 73 74  2  0
 74 75  1  0
 75 76  2  0
 76 77  1  0
 77 78  1  0
 76 79  1  0
 79 80  2  0
 63 81  1  0
 81 82  1  0
 82 83  1  0
 83 84  2  0
 84 85  1  0
 85 86  1  0
 86 87  2  0
 87 88  1  0
 88 89  2  0
 89 90  1  0
 90 91  1  0
 89 92  1  0
 92 93  2  0
 85 94  1  0
 94 95  2  0
 95 96  1  0
 96 97  2  0
 97 98  1  0
 98 99  1  0
 97100  1  0
100101  2  0
 84102  1  0
102103  1  0
 83104  1  0
104105  2  0
105106  1  0
106107  1  0
107108  2  0
108109  1  0
109110  2  0
110111  1  0
110112  1  0
112113  2  0
106114  1  0
114115  2  0
115116  1  0
116117  2  0
117118  1  0
117119  1  0
119120  2  0
105121  1  0
121122  1  0
122123  1  0
123124  2  0
124125  1  0
125126  1  0
126127  2  0
127128  1  0
128129  2  0
129130  1  0
129131  1  0
131132  2  0
125133  1  0
133134  2  0
134135  1  0
135136  2  0
136137  1  0
136138  1  0
138139  2  0
124140  1  0
140141  1  0
123142  1  0
142143  2  3
143144  1  0
144145  3  0
143146  1  0
146147  2  0
146148  1  0
148149  1  0
149150  1  0
 11  2  1  0
 23 17  1  0
 61 24  1  0
103 62  1  0
141104  1  0
 10  5  1  0
 22 18  1  0
 33 27  1  0
 40 34  1  0
 60 41  2  0
 72 65  1  0
 80 73  1  0
102 81  2  0
113107  1  0
120114  1  0
140121  2  0
 23  7  1  0
 52 46  1  0
 59 53  1  0
 93 86  1  0
101 94  1  0
132126  1  0
139133  1  0
  1151  1  0
  6152  1  0
  9153  1  0
 17154  1  0
 18155  1  0
 19156  1  0
 20157  1  0
 21158  1  0
 22159  1  0
 22160  1  0
 23161  1  0
 28162  1  0
 29163  1  0
 31164  1  0
 31165  1  0
 31166  1  0
 32167  1  0
 33168  1  0
 35169  1  0
 36170  1  0
 38171  1  0
 38172  1  0
 38173  1  0
 39174  1  0
 40175  1  0
 47176  1  0
 48177  1  0
 50178  1  0
 50179  1  0
 50180  1  0
 51181  1  0
 52182  1  0
 54183  1  0
 55184  1  0
 57185  1  0
 57186  1  0
 57187  1  0
 58188  1  0
 59189  1  0
 66190  1  0
 67191  1  0
 70192  1  0
 70193  1  0
 70194  1  0
 71195  1  0
 72196  1  0
 74197  1  0
 75198  1  0
 78199  1  0
 78200  1  0
 78201  1  0
 79202  1  0
 80203  1  0
 87204  1  0
 88205  1  0
 91206  1  0
 91207  1  0
 91208  1  0
 92209  1  0
 93210  1  0
 95211  1  0
 96212  1  0
 99213  1  0
 99214  1  0
 99215  1  0
100216  1  0
101217  1  0
108218  1  0
109219  1  0
111220  1  0
111221  1  0
111222  1  0
112223  1  0
113224  1  0
115225  1  0
116226  1  0
118227  1  0
118228  1  0
118229  1  0
119230  1  0
120231  1  0
127232  1  0
128233  1  0
130234  1  0
130235  1  0
130236  1  0
131237  1  0
132238  1  0
134239  1  0
135240  1  0
137241  1  0
137242  1  0
137243  1  0
138244  1  0
139245  1  0
142246  1  0
149247  1  0
149248  1  0
150249  1  0
150250  1  0
150251  1  0
M  END

