
     RDKit          3D

211233  0  0  0  0  0  0  0  0999 V2000
   -1.0150   -1.7023   -6.5867 C   0  0  0  0  0  0  0  0  0  0  0  0
   -0.1679   -0.5818   -6.6962 C   0  0  0  0  0  0  0  0  0  0  0  0
    0.5631   -0.0783   -5.6967 C   0  0  0  0  0  0  0  0  0  0  0  0
    0.8681   -0.6880   -4.5759 O   0  0  0  0  0  0  0  0  0  0  0  0
    1.0070    1.2069   -5.9370 C   0  0  0  0  0  0  0  0  0  0  0  0
    1.7936    2.1343   -5.2158 C   0  0  0  0  0  0  0  0  0  0  0  0
    2.0449    3.3248   -5.8188 C   0  0  0  0  0  0  0  0  0  0  0  0
    1.5802    3.6329   -7.0301 C   0  0  0  0  0  0  0  0  0  0  0  0
    0.7585    2.6918   -7.7892 C   0  0  0  0  0  0  0  0  0  0  0  0
    0.5413    1.5399   -7.1533 C   0  0  0  0  0  0  0  0  0  0  0  0
   -0.4099    0.1719   -7.8423 C   0  0  0  0  0  0  0  0  0  0  0  0
   -0.6174    0.8283   -8.8332 C   0  0  0  0  0  0  0  0  0  0  0  0
   -1.1635    1.1116  -10.2595 C   0  0  0  0  0  0  0  0  0  0  0  0
   -1.4383    1.2589  -11.0167 N   0  0  0  0  0  0  0  0  0  0  0  0
   -1.1317   -1.0196   -9.3856 C   0  0  0  0  0  0  0  0  0  0  0  0
   -1.4423   -2.1470   -9.7444 N   0  0  0  0  0  0  0  0  0  0  0  0
    2.3389    4.8947   -7.1533 C   0  0  0  0  0  0  0  0  0  0  0  0
    3.6953    4.6998   -7.8381 C   0  0  0  0  0  0  0  0  0  0  0  0
    4.5071    5.8546   -7.4913 C   0  0  0  0  0  0  0  0  0  0  0  0
    4.8425    5.7290   -6.2022 C   0  0  0  0  0  0  0  0  0  0  0  0
    4.1797    4.5527   -5.6558 C   0  0  0  0  0  0  0  0  0  0  0  0
    4.3000    3.6372   -6.9149 C   0  0  0  0  0  0  0  0  0  0  0  0
    2.6790    4.7005   -5.6858 C   0  0  0  0  0  0  0  0  0  0  0  0
   -1.1274   -2.3066   -5.2401 C   0  0  0  0  0  0  0  0  0  0  0  0
   -2.3132   -2.2752   -4.5484 C   0  0  0  0  0  0  0  0  0  0  0  0
   -3.5491   -2.1960   -5.2697 N   0  0  0  0  0  0  0  0  0  0  0  0
   -4.1069   -3.4569   -5.7088 C   0  0  0  0  0  0  0  0  0  0  0  0
   -4.1037   -4.5362   -4.8230 C   0  0  0  0  0  0  0  0  0  0  0  0
   -4.6333   -5.7442   -5.2066 C   0  0  0  0  0  0  0  0  0  0  0  0
   -5.1853   -5.9433   -6.4797 C   0  0  0  0  0  0  0  0  0  0  0  0
   -5.7879   -7.2687   -6.7884 C   0  0  0  0  0  0  0  0  0  0  0  0
   -5.1795   -4.8809   -7.3511 C   0  0  0  0  0  0  0  0  0  0  0  0
   -4.6345   -3.6587   -6.9263 C   0  0  0  0  0  0  0  0  0  0  0  0
   -4.2345   -1.0240   -5.4916 C   0  0  0  0  0  0  0  0  0  0  0  0
   -5.6357   -1.0538   -5.3070 C   0  0  0  0  0  0  0  0  0  0  0  0
   -6.4015    0.0589   -5.5313 C   0  0  0  0  0  0  0  0  0  0  0  0
   -5.8871    1.2491   -5.9525 C   0  0  0  0  0  0  0  0  0  0  0  0
   -6.6490    2.4964   -6.2001 C   0  0  0  0  0  0  0  0  0  0  0  0
   -4.4972    1.2832   -6.1478 C   0  0  0  0  0  0  0  0  0  0  0  0
   -3.7318    0.1732   -5.9135 C   0  0  0  0  0  0  0  0  0  0  0  0
   -2.2274   -2.5016   -3.1973 C   0  0  0  0  0  0  0  0  0  0  0  0
   -3.2039   -2.2912   -1.7774 S   0  0  0  0  0  0  0  0  0  0  0  0
   -2.0233   -2.5547   -0.5827 C   0  0  0  0  0  0  0  0  0  0  0  0
   -0.9103   -2.8172   -1.2799 C   0  0  0  0  0  0  0  0  0  0  0  0
    0.3475   -3.2199   -0.7446 N   0  0  0  0  0  0  0  0  0  0  0  0
    1.2866   -2.3445   -0.2100 C   0  0  0  0  0  0  0  0  0  0  0  0
    1.9656   -2.5282    0.9626 C   0  0  0  0  0  0  0  0  0  0  0  0
    2.9943   -1.7034    1.3806 C   0  0  0  0  0  0  0  0  0  0  0  0
    3.3791   -0.6213    0.5838 C   0  0  0  0  0  0  0  0  0  0  0  0
    4.5149    0.2589    0.9270 C   0  0  0  0  0  0  0  0  0  0  0  0
    2.7186   -0.4025   -0.5980 C   0  0  0  0  0  0  0  0  0  0  0  0
    1.7197   -1.2317   -0.9673 C   0  0  0  0  0  0  0  0  0  0  0  0
    0.7651   -4.5901   -0.9716 C   0  0  0  0  0  0  0  0  0  0  0  0
    2.0997   -4.8680   -1.3086 C   0  0  0  0  0  0  0  0  0  0  0  0
    2.4939   -6.1660   -1.6630 C   0  0  0  0  0  0  0  0  0  0  0  0
    1.5630   -7.1815   -1.6776 C   0  0  0  0  0  0  0  0  0  0  0  0
    1.8694   -8.5927   -2.0764 C   0  0  0  0  0  0  0  0  0  0  0  0
    0.2388   -6.8675   -1.3259 C   0  0  0  0  0  0  0  0  0  0  0  0
   -0.1156   -5.6029   -0.9900 C   0  0  0  0  0  0  0  0  0  0  0  0
   -1.0433   -2.7695   -2.6710 C   0  0  0  0  0  0  0  0  0  0  0  0
    0.0088   -2.6913   -4.0597 S   0  0  0  0  0  0  0  0  0  0  0  0
   -2.2288   -2.2770    0.8845 C   0  0  0  0  0  0  0  0  0  0  0  0
   -3.0630   -1.1636    1.2268 C   0  0  0  0  0  0  0  0  0  0  0  0
   -3.9758   -0.4554    0.3849 N   0  0  0  0  0  0  0  0  0  0  0  0
   -5.3009   -0.9030    0.1876 C   0  0  0  0  0  0  0  0  0  0  0  0
   -5.9230   -1.3650    1.3590 C   0  0  0  0  0  0  0  0  0  0  0  0
   -7.2126   -1.8177    1.3470 C   0  0  0  0  0  0  0  0  0  0  0  0
   -7.9099   -1.8193    0.1605 C   0  0  0  0  0  0  0  0  0  0  0  0
   -9.5989   -2.4317    0.2218 S   0  0  0  0  0  0  0  0  0  0  0  0
  -10.6970   -1.1799    0.9423 C   0  0  0  0  0  0  0  0  0  0  0  0
   -7.3531   -1.3860   -1.0086 C   0  0  0  0  0  0  0  0  0  0  0  0
   -6.0241   -0.9246   -0.9565 C   0  0  0  0  0  0  0  0  0  0  0  0
   -3.5862    0.7841   -0.1629 C   0  0  0  0  0  0  0  0  0  0  0  0
   -2.4002    1.1239   -0.7251 C   0  0  0  0  0  0  0  0  0  0  0  0
   -2.1791    2.4033   -1.2304 C   0  0  0  0  0  0  0  0  0  0  0  0
   -3.1339    3.3995   -1.1956 C   0  0  0  0  0  0  0  0  0  0  0  0
   -2.8330    5.0478   -1.7913 S   0  0  0  0  0  0  0  0  0  0  0  0
   -2.2585    6.0727   -0.4048 C   0  0  0  0  0  0  0  0  0  0  0  0
   -4.3535    3.0495   -0.6166 C   0  0  0  0  0  0  0  0  0  0  0  0
   -4.5790    1.7900   -0.1152 C   0  0  0  0  0  0  0  0  0  0  0  0
   -2.8454   -0.9188    2.5170 C   0  0  0  0  0  0  0  0  0  0  0  0
   -2.7775    0.8963    3.1955 S   0  0  0  0  0  0  0  0  0  0  0  0
   -1.8620    0.5860    4.5808 C   0  0  0  0  0  0  0  0  0  0  0  0
   -1.6788   -0.8083    4.5176 C   0  0  0  0  0  0  0  0  0  0  0  0
   -1.3312   -1.5249    5.7379 N   0  0  0  0  0  0  0  0  0  0  0  0
   -2.2369   -1.3382    6.8595 C   0  0  0  0  0  0  0  0  0  0  0  0
   -3.6222   -1.4751    6.6372 C   0  0  0  0  0  0  0  0  0  0  0  0
   -4.5585   -1.1773    7.5781 C   0  0  0  0  0  0  0  0  0  0  0  0
   -4.1598   -0.7027    8.8343 C   0  0  0  0  0  0  0  0  0  0  0  0
   -5.4618   -0.3122   10.0307 S   0  0  0  0  0  0  0  0  0  0  0  0
   -6.2221    1.2748    9.5195 C   0  0  0  0  0  0  0  0  0  0  0  0
   -2.8355   -0.5594    9.0773 C   0  0  0  0  0  0  0  0  0  0  0  0
   -1.8635   -0.8853    8.0796 C   0  0  0  0  0  0  0  0  0  0  0  0
   -0.3185   -2.4620    5.7922 C   0  0  0  0  0  0  0  0  0  0  0  0
    0.9068   -2.2950    5.2410 C   0  0  0  0  0  0  0  0  0  0  0  0
    1.8546   -3.2974    5.2575 C   0  0  0  0  0  0  0  0  0  0  0  0
    1.5192   -4.4794    5.8660 C   0  0  0  0  0  0  0  0  0  0  0  0
    2.6912   -5.8294    5.8099 S   0  0  0  0  0  0  0  0  0  0  0  0
    2.2096   -6.8660    4.3779 C   0  0  0  0  0  0  0  0  0  0  0  0
    0.2946   -4.6667    6.4334 C   0  0  0  0  0  0  0  0  0  0  0  0
   -0.6630   -3.6737    6.4223 C   0  0  0  0  0  0  0  0  0  0  0  0
   -2.2215   -1.3202    3.4148 C   0  0  0  0  0  0  0  0  0  0  0  0
   -1.4442   -2.6907    2.3035 S   0  0  0  0  0  0  0  0  0  0  0  0
   -0.8910    1.3460    5.3924 C   0  0  0  0  0  0  0  0  0  0  0  0
   -0.1151    1.9456    6.0678 C   0  0  0  0  0  0  0  0  0  0  0  0
    0.7867    2.6168    6.5195 C   0  0  0  0  0  0  0  0  0  0  0  0
    1.5108    3.0189    5.2585 C   0  0  0  0  0  0  0  0  0  0  0  0
    0.5112    2.2209    3.9255 Se  0  0  0  0  0  2  0  0  0  0  0  0
    2.7306    3.8037    5.2315 C   0  0  0  0  0  0  0  0  0  0  0  0
    3.8629    3.2134    4.9713 C   0  0  0  0  0  0  0  0  0  0  0  0
    4.0501    1.7486    4.6828 C   0  0  0  0  0  0  0  0  0  0  0  0
    3.0452    0.9689    4.5912 O   0  0  0  0  0  0  0  0  0  0  0  0
    5.4545    1.4802    4.5584 C   0  0  0  0  0  0  0  0  0  0  0  0
    6.1412    0.3233    4.2787 C   0  0  0  0  0  0  0  0  0  0  0  0
    7.4594    0.1925    4.1460 C   0  0  0  0  0  0  0  0  0  0  0  0
    8.2873    1.3481    4.3193 C   0  0  0  0  0  0  0  0  0  0  0  0
    7.5659    2.5120    4.6013 C   0  0  0  0  0  0  0  0  0  0  0  0
    6.2241    2.6412    4.7306 C   0  0  0  0  0  0  0  0  0  0  0  0
    5.2517    3.7283    4.9832 C   0  0  0  0  0  0  0  0  0  0  0  0
    5.5832    4.9368    5.1557 C   0  0  0  0  0  0  0  0  0  0  0  0
    4.7250    6.0897    5.3627 C   0  0  0  0  0  0  0  0  0  0  0  0
    3.9707    7.0811    5.5598 N   0  0  0  0  0  0  0  0  0  0  0  0
    6.9931    5.3925    5.3173 C   0  0  0  0  0  0  0  0  0  0  0  0
    8.1295    5.7589    5.4568 N   0  0  0  0  0  0  0  0  0  0  0  0
    9.5086    0.5647    4.0918 C   0  0  0  0  0  0  0  0  0  0  0  0
   10.1861    0.2987    5.4058 C   0  0  0  0  0  0  0  0  0  0  0  0
   11.1405   -0.8095    5.2721 C   0  0  0  0  0  0  0  0  0  0  0  0
   10.4399   -1.8952    4.8613 C   0  0  0  0  0  0  0  0  0  0  0  0
    9.0143   -1.5756    5.0002 C   0  0  0  0  0  0  0  0  0  0  0  0
    9.0477   -0.4898    6.1038 C   0  0  0  0  0  0  0  0  0  0  0  0
    8.6534   -0.6479    3.8400 C   0  0  0  0  0  0  0  0  0  0  0  0
   -1.5887   -2.0755   -7.3318 H   0  0  0  0  0  0  0  0  0  0  0  0
    2.1437    1.8413   -4.2560 H   0  0  0  0  0  0  0  0  0  0  0  0
    0.4248    3.0623   -8.7282 H   0  0  0  0  0  0  0  0  0  0  0  0
    1.8038    5.7892   -7.4351 H   0  0  0  0  0  0  0  0  0  0  0  0
    3.6275    4.4078   -8.8523 H   0  0  0  0  0  0  0  0  0  0  0  0
    4.7842    6.6469   -8.1859 H   0  0  0  0  0  0  0  0  0  0  0  0
    5.5232    6.4459   -5.7003 H   0  0  0  0  0  0  0  0  0  0  0  0
    4.5823    4.0909   -4.7610 H   0  0  0  0  0  0  0  0  0  0  0  0
    3.6960    2.7500   -6.7807 H   0  0  0  0  0  0  0  0  0  0  0  0
    5.3715    3.4428   -7.1357 H   0  0  0  0  0  0  0  0  0  0  0  0
    2.2039    5.3580   -4.9608 H   0  0  0  0  0  0  0  0  0  0  0  0
   -3.6806   -4.3802   -3.8576 H   0  0  0  0  0  0  0  0  0  0  0  0
   -4.6358   -6.6218   -4.5586 H   0  0  0  0  0  0  0  0  0  0  0  0
   -6.0472   -7.7584   -5.7983 H   0  0  0  0  0  0  0  0  0  0  0  0
   -6.7824   -7.1318   -7.2784 H   0  0  0  0  0  0  0  0  0  0  0  0
   -5.1298   -7.9636   -7.3047 H   0  0  0  0  0  0  0  0  0  0  0  0
   -5.5737   -4.9409   -8.3311 H   0  0  0  0  0  0  0  0  0  0  0  0
   -4.6558   -2.8359   -7.6365 H   0  0  0  0  0  0  0  0  0  0  0  0
   -6.1174   -1.9699   -5.0041 H   0  0  0  0  0  0  0  0  0  0  0  0
   -7.4890    0.0250   -5.3812 H   0  0  0  0  0  0  0  0  0  0  0  0
   -5.9231    3.2757   -6.5871 H   0  0  0  0  0  0  0  0  0  0  0  0
   -7.4166    2.3736   -6.9663 H   0  0  0  0  0  0  0  0  0  0  0  0
   -7.0135    2.9203   -5.2314 H   0  0  0  0  0  0  0  0  0  0  0  0
   -4.0509    2.1989   -6.5038 H   0  0  0  0  0  0  0  0  0  0  0  0
   -2.6855    0.3010   -6.0697 H   0  0  0  0  0  0  0  0  0  0  0  0
    1.6794   -3.3518    1.6385 H   0  0  0  0  0  0  0  0  0  0  0  0
    3.5206   -1.8658    2.3050 H   0  0  0  0  0  0  0  0  0  0  0  0
    5.3721    0.0748    0.2014 H   0  0  0  0  0  0  0  0  0  0  0  0
    4.2512    1.3155    0.7887 H   0  0  0  0  0  0  0  0  0  0  0  0
    4.8765    0.1230    1.9381 H   0  0  0  0  0  0  0  0  0  0  0  0
    2.9853    0.4192   -1.2714 H   0  0  0  0  0  0  0  0  0  0  0  0
    1.1854   -1.0504   -1.8759 H   0  0  0  0  0  0  0  0  0  0  0  0
    2.8344   -4.0811   -1.2887 H   0  0  0  0  0  0  0  0  0  0  0  0
    3.5349   -6.3911   -1.9161 H   0  0  0  0  0  0  0  0  0  0  0  0
    1.2527   -9.2196   -1.3901 H   0  0  0  0  0  0  0  0  0  0  0  0
    1.5095   -8.8038   -3.1167 H   0  0  0  0  0  0  0  0  0  0  0  0
    2.9159   -8.8530   -1.9919 H   0  0  0  0  0  0  0  0  0  0  0  0
   -0.4798   -7.6694   -1.3543 H   0  0  0  0  0  0  0  0  0  0  0  0
   -1.1674   -5.4352   -0.7299 H   0  0  0  0  0  0  0  0  0  0  0  0
   -5.3769   -1.3906    2.2867 H   0  0  0  0  0  0  0  0  0  0  0  0
   -7.6715   -2.1677    2.2774 H   0  0  0  0  0  0  0  0  0  0  0  0
  -10.7122   -0.2696    0.3508 H   0  0  0  0  0  0  0  0  0  0  0  0
  -11.6888   -1.6283    0.9935 H   0  0  0  0  0  0  0  0  0  0  0  0
  -10.3647   -0.9302    1.9776 H   0  0  0  0  0  0  0  0  0  0  0  0
   -7.8838   -1.4196   -1.9407 H   0  0  0  0  0  0  0  0  0  0  0  0
   -5.5682   -0.5678   -1.8954 H   0  0  0  0  0  0  0  0  0  0  0  0
   -1.6136    0.3634   -0.7829 H   0  0  0  0  0  0  0  0  0  0  0  0
   -1.2051    2.6045   -1.6489 H   0  0  0  0  0  0  0  0  0  0  0  0
   -3.1028    6.2399    0.3235 H   0  0  0  0  0  0  0  0  0  0  0  0
   -1.4094    5.6260    0.1429 H   0  0  0  0  0  0  0  0  0  0  0  0
   -1.9196    7.0400   -0.8303 H   0  0  0  0  0  0  0  0  0  0  0  0
   -5.1662    3.7832   -0.5544 H   0  0  0  0  0  0  0  0  0  0  0  0
   -5.5565    1.5833    0.2960 H   0  0  0  0  0  0  0  0  0  0  0  0
   -3.9295   -1.8446    5.6684 H   0  0  0  0  0  0  0  0  0  0  0  0
   -5.6325   -1.2673    7.4321 H   0  0  0  0  0  0  0  0  0  0  0  0
   -5.7615    2.1353    9.9927 H   0  0  0  0  0  0  0  0  0  0  0  0
   -6.0898    1.4080    8.4238 H   0  0  0  0  0  0  0  0  0  0  0  0
   -7.3417    1.2551    9.6619 H   0  0  0  0  0  0  0  0  0  0  0  0
   -2.4952   -0.2003   10.0371 H   0  0  0  0  0  0  0  0  0  0  0  0
   -0.8430   -0.7539    8.3430 H   0  0  0  0  0  0  0  0  0  0  0  0
    1.1999   -1.3663    4.7646 H   0  0  0  0  0  0  0  0  0  0  0  0
    2.7893   -3.1092    4.7958 H   0  0  0  0  0  0  0  0  0  0  0  0
    2.9281   -7.7113    4.3099 H   0  0  0  0  0  0  0  0  0  0  0  0
    1.1575   -7.2055    4.5615 H   0  0  0  0  0  0  0  0  0  0  0  0
    2.1720   -6.2577    3.4459 H   0  0  0  0  0  0  0  0  0  0  0  0
    0.0685   -5.6138    6.9308 H   0  0  0  0  0  0  0  0  0  0  0  0
   -1.6397   -3.7744    6.8579 H   0  0  0  0  0  0  0  0  0  0  0  0
   -0.7842    1.6610    7.2965 H   0  0  0  0  0  0  0  0  0  0  0  0
    1.2260    3.0013    7.4163 H   0  0  0  0  0  0  0  0  0  0  0  0
    2.6609    4.8203    5.4251 H   0  0  0  0  0  0  0  0  0  0  0  0
    5.5098   -0.5935    4.1608 H   0  0  0  0  0  0  0  0  0  0  0  0
    8.2159    3.3663    4.7229 H   0  0  0  0  0  0  0  0  0  0  0  0
   10.1332    0.8893    3.2375 H   0  0  0  0  0  0  0  0  0  0  0  0
   10.4788    1.1581    5.9765 H   0  0  0  0  0  0  0  0  0  0  0  0
   12.1932   -0.7724    5.4959 H   0  0  0  0  0  0  0  0  0  0  0  0
   10.8488   -2.8100    4.4919 H   0  0  0  0  0  0  0  0  0  0  0  0
    8.3239   -2.3741    5.1794 H   0  0  0  0  0  0  0  0  0  0  0  0
    9.3150   -0.8590    7.0716 H   0  0  0  0  0  0  0  0  0  0  0  0
    8.1035    0.0958    6.0226 H   0  0  0  0  0  0  0  0  0  0  0  0
    8.7137   -1.0871    2.8427 H   0  0  0  0  0  0  0  0  0  0  0  0
  1  2  2  3
  2  3  1  0
  3  4  2  0
  3  5  1  0
  5  6  2  0
  6  7  1  0
  7  8  2  0
  8  9  1  0
  9 10  2  0
 10 11  1  0
 11 12  2  3
 12 13  1  0
 13 14  3  0
 12 15  1  0
 15 16  3  0
  8 17  1  0
 17 18  1  0
 18 19  1  0
 19 20  2  0
 20 21  1  0
 21 22  1  0
 21 23  1  0
  1 24  1  0
 24 25  2  0
 25 26  1  0
 26 27  1  0
 27 28  2  0
 28 29  1  0
 29 30  2  0
 30 31  1  0
 30 32  1  0
 32 33  2  0
 26 34  1  0
 34 35  2  0
 35 36  1  0
 36 37  2  0
 37 38  1  0
 37 39  1  0
 39 40  2  0
 25 41  1  0
 41 42  1  0
 42 43  1  0
 43 44  2  0
 44 45  1  0
 45 46  1  0
 46 47  2  0
 47 48  1  0
 48 49  2  0
 49 50  1  0
 49 51  1  0
 51 52  2  0
 45 53  1  0
 53 54  2  0
 54 55  1  0
 55 56  2  0
 56 57  1  0
 56 58  1  0
 58 59  2  0
 44 60  1  0
 60 61  1  0
 43 62  1  0
 62 63  2  0
 63 64  1  0
 64 65  1  0
 65 66  2  0
 66 67  1  0
 67 68  2  0
 68 69  1  0
 69 70  1  0
 68 71  1  0
 71 72  2  0
 64 73  1  0
 73 74  2  0
 74 75  1  0
 75 76  2  0
 76 77  1  0
 77 78  1  0
 76 79  1  0
 79 80  2  0
 63 81  1  0
 81 82  1  0
 82 83  1  0
 83 84  2  0
 84 85  1  0
 85 86  1  0
 86 87  2  0
 87 88  1  0
 88 89  2  0
 89 90  1  0
 90 91  1  0
 89 92  1  0
 92 93  2  0
 85 94  1  0
 94 95  2  0
 95 96  1  0
 96 97  2  0
 97 98  1  0
 98 99  1  0
 97100  1  0
100101  2  0
 84102  1  0
102103  1  0
 83104  1  0
104105  2  0
105106  1  0
106107  2  0
107108  1  0
107109  1  0
109110  2  3
110111  1  0
111112  2  0
111113  1  0
113114  2  0
114115  1  0
115116  2  0
116117  1  0
117118  2  0
118119  1  0
119120  2  3
120121  1  0
121122  3  0
120123  1  0
123124  3  0
116125  1  0
125126  1  0
126127  1  0
127128  2  0
128129  1  0
129130  1  0
129131  1  0
 11  2  1  0
 23 17  1  0
 61 24  1  0
103 62  1  0
108104  1  0
119110  1  0
131125  1  0
 10  5  1  0
 22 18  1  0
 33 27  1  0
 40 34  1  0
 60 41  2  0
 72 65  1  0
 80 73  1  0
102 81  2  0
118113  1  0
130126  1  0
 23  7  1  0
 52 46  1  0
 59 53  1  0
 93 86  1  0
101 94  1  0
131115  1  0
  1132  1  0
  6133  1  0
  9134  1  0
 17135  1  0
 18136  1  0
 19137  1  0
 20138  1  0
 21139  1  0
 22140  1  0
 22141  1  0
 23142  1  0
 28143  1  0
 29144  1  0
 31145  1  0
 31146  1  0
 31147  1  0
 32148  1  0
 33149  1  0
 35150  1  0
 36151  1  0
 38152  1  0
 38153  1  0
 38154  1  0
 39155  1  0
 40156  1  0
 47157  1  0
 48158  1  0
 50159  1  0
 50160  1  0
 50161  1  0
 51162  1  0
 52163  1  0
 54164  1  0
 55165  1  0
 57166  1  0
 57167  1  0
 57168  1  0
 58169  1  0
 59170  1  0
 66171  1  0
 67172  1  0
 70173  1  0
 70174  1  0
 70175  1  0
 71176  1  0
 72177  1  0
 74178  1  0
 75179  1  0
 78180  1  0
 78181  1  0
 78182  1  0
 79183  1  0
 80184  1  0
 87185  1  0
 88186  1  0
 91187  1  0
 91188  1  0
 91189  1  0
 92190  1  0
 93191  1  0
 95192  1  0
 96193  1  0
 99194  1  0
 99195  1  0
 99196  1  0
100197  1  0
101198  1  0
105199  1  0
106200  1  0
109201  1  0
114202  1  0
117203  1  0
125204  1  0
126205  1  0
127206  1  0
128207  1  0
129208  1  0
130209  1  0
130210  1  0
131211  1  0
M  END

