
     RDKit          3D

225248  0  0  0  0  0  0  0  0999 V2000
   -1.9970    3.7551   -5.5682 C   0  0  0  0  0  0  0  0  0  0  0  0
   -3.0301    3.4249   -4.7639 C   0  0  0  0  0  0  0  0  0  0  0  0
   -2.9870    2.4169   -3.6913 C   0  0  0  0  0  0  0  0  0  0  0  0
   -1.9627    2.0134   -3.0780 O   0  0  0  0  0  0  0  0  0  0  0  0
   -4.3271    1.9461   -3.4392 C   0  0  0  0  0  0  0  0  0  0  0  0
   -4.6977    0.8030   -2.6913 C   0  0  0  0  0  0  0  0  0  0  0  0
   -6.0274    0.4535   -2.8324 C   0  0  0  0  0  0  0  0  0  0  0  0
   -6.9468    1.1845   -3.6530 C   0  0  0  0  0  0  0  0  0  0  0  0
   -6.5927    2.3199   -4.3663 C   0  0  0  0  0  0  0  0  0  0  0  0
   -5.2302    2.6997   -4.2282 C   0  0  0  0  0  0  0  0  0  0  0  0
   -4.4747    3.7441   -4.9717 C   0  0  0  0  0  0  0  0  0  0  0  0
   -4.9865    4.8980   -5.4627 C   0  0  0  0  0  0  0  0  0  0  0  0
   -4.1639    5.9185   -6.0551 C   0  0  0  0  0  0  0  0  0  0  0  0
   -3.5143    6.7498   -6.5281 N   0  0  0  0  0  0  0  0  0  0  0  0
   -6.3642    5.2553   -5.2442 C   0  0  0  0  0  0  0  0  0  0  0  0
   -7.4590    5.5481   -5.0265 N   0  0  0  0  0  0  0  0  0  0  0  0
   -8.0318    0.1967   -3.3401 C   0  0  0  0  0  0  0  0  0  0  0  0
   -9.1326    0.6575   -2.3443 C   0  0  0  0  0  0  0  0  0  0  0  0
   -9.8436   -0.6021   -1.9039 C   0  0  0  0  0  0  0  0  0  0  0  0
   -8.9838   -1.2732   -1.1281 C   0  0  0  0  0  0  0  0  0  0  0  0
   -7.7206   -0.4457   -1.0757 C   0  0  0  0  0  0  0  0  0  0  0  0
   -8.3484    0.9370   -1.0737 C   0  0  0  0  0  0  0  0  0  0  0  0
   -7.0913   -0.5436   -2.4944 C   0  0  0  0  0  0  0  0  0  0  0  0
   -0.6800    3.1221   -5.4085 C   0  0  0  0  0  0  0  0  0  0  0  0
    0.2813    3.5239   -4.4585 C   0  0  0  0  0  0  0  0  0  0  0  0
    0.4177    4.8768   -3.9522 N   0  0  0  0  0  0  0  0  0  0  0  0
   -0.0157    6.0014   -4.7413 C   0  0  0  0  0  0  0  0  0  0  0  0
   -0.6629    7.0836   -4.1244 C   0  0  0  0  0  0  0  0  0  0  0  0
   -0.9851    8.2271   -4.8599 C   0  0  0  0  0  0  0  0  0  0  0  0
   -0.6710    8.3014   -6.2257 C   0  0  0  0  0  0  0  0  0  0  0  0
   -0.9688    9.5475   -7.0055 C   0  0  0  0  0  0  0  0  0  0  0  0
   -0.0085    7.2285   -6.8404 C   0  0  0  0  0  0  0  0  0  0  0  0
    0.3186    6.0863   -6.1031 C   0  0  0  0  0  0  0  0  0  0  0  0
    1.3693    5.1755   -2.9197 C   0  0  0  0  0  0  0  0  0  0  0  0
    0.9847    5.1552   -1.5725 C   0  0  0  0  0  0  0  0  0  0  0  0
    1.8970    5.5125   -0.5776 C   0  0  0  0  0  0  0  0  0  0  0  0
    3.2040    5.9032   -0.9198 C   0  0  0  0  0  0  0  0  0  0  0  0
    4.2024    6.2725    0.1368 C   0  0  0  0  0  0  0  0  0  0  0  0
    3.5872    5.9188   -2.2691 C   0  0  0  0  0  0  0  0  0  0  0  0
    2.6768    5.5539   -3.2622 C   0  0  0  0  0  0  0  0  0  0  0  0
    1.0742    2.4309   -4.0738 C   0  0  0  0  0  0  0  0  0  0  0  0
    1.9711    2.0881   -2.7165 S   0  0  0  0  0  0  0  0  0  0  0  0
    2.1065    0.4066   -2.9689 C   0  0  0  0  0  0  0  0  0  0  0  0
    1.4610    0.1046   -4.2105 C   0  0  0  0  0  0  0  0  0  0  0  0
    1.5191   -1.1346   -4.9806 N   0  0  0  0  0  0  0  0  0  0  0  0
    2.0408   -2.3661   -4.4644 C   0  0  0  0  0  0  0  0  0  0  0  0
    1.1816   -3.4554   -4.2457 C   0  0  0  0  0  0  0  0  0  0  0  0
    1.6786   -4.6528   -3.7295 C   0  0  0  0  0  0  0  0  0  0  0  0
    3.0417   -4.7743   -3.4151 C   0  0  0  0  0  0  0  0  0  0  0  0
    3.5784   -6.0561   -2.8509 C   0  0  0  0  0  0  0  0  0  0  0  0
    3.9105   -3.7016   -3.6828 C   0  0  0  0  0  0  0  0  0  0  0  0
    3.4138   -2.5076   -4.2132 C   0  0  0  0  0  0  0  0  0  0  0  0
    1.3755   -1.0786   -6.4156 C   0  0  0  0  0  0  0  0  0  0  0  0
    0.3992   -1.8483   -7.0681 C   0  0  0  0  0  0  0  0  0  0  0  0
    0.2402   -1.7582   -8.4563 C   0  0  0  0  0  0  0  0  0  0  0  0
    1.0559   -0.9023   -9.2085 C   0  0  0  0  0  0  0  0  0  0  0  0
    0.8469   -0.7587  -10.6876 C   0  0  0  0  0  0  0  0  0  0  0  0
    2.0239   -0.1240   -8.5579 C   0  0  0  0  0  0  0  0  0  0  0  0
    2.1920   -0.2229   -7.1724 C   0  0  0  0  0  0  0  0  0  0  0  0
    0.8448    1.2617   -4.7286 C   0  0  0  0  0  0  0  0  0  0  0  0
   -0.4319    1.4816   -5.7938 S   0  0  0  0  0  0  0  0  0  0  0  0
    2.4381   -0.4852   -1.8204 C   0  0  0  0  0  0  0  0  0  0  0  0
    3.0726   -0.0776   -0.6213 C   0  0  0  0  0  0  0  0  0  0  0  0
    3.7474    1.1756   -0.4234 N   0  0  0  0  0  0  0  0  0  0  0  0
    4.9569    1.4431   -1.1675 C   0  0  0  0  0  0  0  0  0  0  0  0
    5.8268    0.3961   -1.5252 C   0  0  0  0  0  0  0  0  0  0  0  0
    7.0008    0.6618   -2.2343 C   0  0  0  0  0  0  0  0  0  0  0  0
    7.3188    1.9741   -2.5984 C   0  0  0  0  0  0  0  0  0  0  0  0
    8.8491    2.3158   -3.4666 S   0  0  0  0  0  0  0  0  0  0  0  0
    9.7764    2.6243   -1.9296 C   0  0  0  0  0  0  0  0  0  0  0  0
    6.4453    3.0176   -2.2745 C   0  0  0  0  0  0  0  0  0  0  0  0
    5.2736    2.7525   -1.5622 C   0  0  0  0  0  0  0  0  0  0  0  0
    3.2722    2.0624    0.6214 C   0  0  0  0  0  0  0  0  0  0  0  0
    4.1757    2.7620    1.4463 C   0  0  0  0  0  0  0  0  0  0  0  0
    3.7100    3.5303    2.5207 C   0  0  0  0  0  0  0  0  0  0  0  0
    2.3385    3.5982    2.7961 C   0  0  0  0  0  0  0  0  0  0  0  0
    1.7541    4.4484    4.2670 S   0  0  0  0  0  0  0  0  0  0  0  0
    1.4068    6.0142    3.4120 C   0  0  0  0  0  0  0  0  0  0  0  0
    1.4319    2.9279    1.9714 C   0  0  0  0  0  0  0  0  0  0  0  0
    1.8929    2.1689    0.8890 C   0  0  0  0  0  0  0  0  0  0  0  0
    2.9334   -1.0190    0.3968 C   0  0  0  0  0  0  0  0  0  0  0  0
    3.3390   -1.0575    2.0153 S   0  0  0  0  0  0  0  0  0  0  0  0
    2.6312   -2.5860    2.3079 C   0  0  0  0  0  0  0  0  0  0  0  0
    2.0811   -3.0607    1.0967 C   0  0  0  0  0  0  0  0  0  0  0  0
    1.6426   -4.4150    0.8768 N   0  0  0  0  0  0  0  0  0  0  0  0
    2.5482   -5.4653    1.2658 C   0  0  0  0  0  0  0  0  0  0  0  0
    3.8790   -5.4480    0.8126 C   0  0  0  0  0  0  0  0  0  0  0  0
    4.7727   -6.4432    1.2100 C   0  0  0  0  0  0  0  0  0  0  0  0
    4.3516   -7.4537    2.0821 C   0  0  0  0  0  0  0  0  0  0  0  0
    5.5118   -8.7168    2.6101 S   0  0  0  0  0  0  0  0  0  0  0  0
    6.1119   -7.7398    4.0240 C   0  0  0  0  0  0  0  0  0  0  0  0
    3.0284   -7.4762    2.5403 C   0  0  0  0  0  0  0  0  0  0  0  0
    2.1285   -6.4867    2.1304 C   0  0  0  0  0  0  0  0  0  0  0  0
    0.4139   -4.7010    0.1606 C   0  0  0  0  0  0  0  0  0  0  0  0
    0.2261   -5.9315   -0.4990 C   0  0  0  0  0  0  0  0  0  0  0  0
   -0.9528   -6.1865   -1.2073 C   0  0  0  0  0  0  0  0  0  0  0  0
   -1.9573   -5.2163   -1.2685 C   0  0  0  0  0  0  0  0  0  0  0  0
   -3.4446   -5.5126   -2.2237 S   0  0  0  0  0  0  0  0  0  0  0  0
   -2.7783   -4.6936   -3.7090 C   0  0  0  0  0  0  0  0  0  0  0  0
   -1.7952   -4.0018   -0.5999 C   0  0  0  0  0  0  0  0  0  0  0  0
   -0.6202   -3.7434    0.1031 C   0  0  0  0  0  0  0  0  0  0  0  0
    2.2493   -2.1343    0.0720 C   0  0  0  0  0  0  0  0  0  0  0  0
    1.6894   -1.9834   -1.4895 S   0  0  0  0  0  0  0  0  0  0  0  0
    2.3452   -3.0742    3.6853 C   0  0  0  0  0  0  0  0  0  0  0  0
    1.0435   -3.4891    4.0572 C   0  0  0  0  0  0  0  0  0  0  0  0
    0.0996   -3.7704    3.1237 N   0  0  0  0  0  0  0  0  0  0  0  0
   -1.1630   -4.1314    3.4554 C   0  0  0  0  0  0  0  0  0  0  0  0
   -1.5241   -4.2042    4.8092 C   0  0  0  0  0  0  0  0  0  0  0  0
   -2.7967   -4.6233    5.2230 O   0  0  0  0  0  0  0  0  0  0  0  0
   -3.8380   -5.0156    4.3304 C   0  0  0  0  0  0  0  0  0  0  0  0
   -4.9975   -5.5944    5.1275 C   0  0  0  0  0  0  0  0  0  0  0  0
   -0.6051   -3.8647    5.7476 N   0  0  0  0  0  0  0  0  0  0  0  0
    0.6692   -3.5146    5.4146 C   0  0  0  0  0  0  0  0  0  0  0  0
    1.5679   -3.0707    6.3942 C   0  0  0  0  0  0  0  0  0  0  0  0
    2.9022   -2.8219    6.0434 C   0  0  0  0  0  0  0  0  0  0  0  0
    3.2924   -2.8371    4.7003 C   0  0  0  0  0  0  0  0  0  0  0  0
    4.5665   -2.4937    4.3858 F   0  0  0  0  0  0  0  0  0  0  0  0
    3.7880   -2.4147    6.9882 F   0  0  0  0  0  0  0  0  0  0  0  0
    1.0310   -2.4935    7.6420 C   0  0  0  0  0  0  0  0  0  0  0  0
    0.5596   -1.2266    7.6636 C   0  0  0  0  0  0  0  0  0  0  0  0
    0.4956   -0.3299    6.4952 C   0  0  0  0  0  0  0  0  0  0  0  0
    1.1837   -0.4148    5.4429 O   0  0  0  0  0  0  0  0  0  0  0  0
   -0.4999    0.6804    6.7390 C   0  0  0  0  0  0  0  0  0  0  0  0
   -0.9990    1.6134    5.8015 C   0  0  0  0  0  0  0  0  0  0  0  0
   -2.0636    2.3535    6.2713 C   0  0  0  0  0  0  0  0  0  0  0  0
   -2.6105    2.2022    7.5871 C   0  0  0  0  0  0  0  0  0  0  0  0
   -2.1194    1.2909    8.5124 C   0  0  0  0  0  0  0  0  0  0  0  0
   -1.0150    0.5190    8.0513 C   0  0  0  0  0  0  0  0  0  0  0  0
   -0.2825   -0.5952    8.7242 C   0  0  0  0  0  0  0  0  0  0  0  0
   -0.2038   -0.8317   10.0579 C   0  0  0  0  0  0  0  0  0  0  0  0
   -0.9477   -0.0667   11.0224 C   0  0  0  0  0  0  0  0  0  0  0  0
   -1.5368    0.5454   11.8099 N   0  0  0  0  0  0  0  0  0  0  0  0
    0.7450   -1.7629   10.6106 C   0  0  0  0  0  0  0  0  0  0  0  0
    1.5128   -2.5034   11.0618 N   0  0  0  0  0  0  0  0  0  0  0  0
   -3.6625    3.2288    7.2850 C   0  0  0  0  0  0  0  0  0  0  0  0
   -5.1157    2.7275    7.0295 C   0  0  0  0  0  0  0  0  0  0  0  0
   -5.0874    1.3385    6.4363 C   0  0  0  0  0  0  0  0  0  0  0  0
   -4.5785    1.4569    5.2097 C   0  0  0  0  0  0  0  0  0  0  0  0
   -4.2806    2.9263    5.0084 C   0  0  0  0  0  0  0  0  0  0  0  0
   -5.4503    3.5130    5.7751 C   0  0  0  0  0  0  0  0  0  0  0  0
   -3.1091    3.3726    5.9343 C   0  0  0  0  0  0  0  0  0  0  0  0
   -2.1494    4.3677   -6.4422 H   0  0  0  0  0  0  0  0  0  0  0  0
   -3.9938    0.2071   -2.1287 H   0  0  0  0  0  0  0  0  0  0  0  0
   -7.3004    2.8102   -5.0201 H   0  0  0  0  0  0  0  0  0  0  0  0
   -8.3886   -0.3632   -4.2321 H   0  0  0  0  0  0  0  0  0  0  0  0
   -9.7917    1.4765   -2.7003 H   0  0  0  0  0  0  0  0  0  0  0  0
  -10.8748   -0.8766   -2.0964 H   0  0  0  0  0  0  0  0  0  0  0  0
   -9.1970   -2.1885   -0.5852 H   0  0  0  0  0  0  0  0  0  0  0  0
   -7.0380   -0.6712   -0.2292 H   0  0  0  0  0  0  0  0  0  0  0  0
   -8.9992    1.1277   -0.1861 H   0  0  0  0  0  0  0  0  0  0  0  0
   -7.6161    1.7697   -1.1623 H   0  0  0  0  0  0  0  0  0  0  0  0
   -6.8632   -1.5733   -2.8522 H   0  0  0  0  0  0  0  0  0  0  0  0
   -0.9039    7.0402   -3.0694 H   0  0  0  0  0  0  0  0  0  0  0  0
   -1.4701    9.0568   -4.3615 H   0  0  0  0  0  0  0  0  0  0  0  0
   -0.0818   10.2146   -6.9898 H   0  0  0  0  0  0  0  0  0  0  0  0
   -1.8374   10.0869   -6.5722 H   0  0  0  0  0  0  0  0  0  0  0  0
   -1.2141    9.2954   -8.0595 H   0  0  0  0  0  0  0  0  0  0  0  0
    0.2670    7.2811   -7.8868 H   0  0  0  0  0  0  0  0  0  0  0  0
    0.8553    5.2790   -6.5860 H   0  0  0  0  0  0  0  0  0  0  0  0
   -0.0251    4.8699   -1.3027 H   0  0  0  0  0  0  0  0  0  0  0  0
    1.5882    5.4859    0.4572 H   0  0  0  0  0  0  0  0  0  0  0  0
    4.6755    7.2461   -0.1125 H   0  0  0  0  0  0  0  0  0  0  0  0
    4.9925    5.4958    0.1950 H   0  0  0  0  0  0  0  0  0  0  0  0
    3.7251    6.3622    1.1313 H   0  0  0  0  0  0  0  0  0  0  0  0
    4.5966    6.1955   -2.5505 H   0  0  0  0  0  0  0  0  0  0  0  0
    2.9817    5.5660   -4.3008 H   0  0  0  0  0  0  0  0  0  0  0  0
    0.1187   -3.3607   -4.4254 H   0  0  0  0  0  0  0  0  0  0  0  0
    0.9975   -5.4770   -3.5488 H   0  0  0  0  0  0  0  0  0  0  0  0
    2.7786   -6.6210   -2.3282 H   0  0  0  0  0  0  0  0  0  0  0  0
    4.3837   -5.8440   -2.1184 H   0  0  0  0  0  0  0  0  0  0  0  0
    3.9863   -6.6797   -3.6726 H   0  0  0  0  0  0  0  0  0  0  0  0
    4.9686   -3.7874   -3.4612 H   0  0  0  0  0  0  0  0  0  0  0  0
    4.0883   -1.6783   -4.3979 H   0  0  0  0  0  0  0  0  0  0  0  0
   -0.2619   -2.4952   -6.5095 H   0  0  0  0  0  0  0  0  0  0  0  0
   -0.5317   -2.3478   -8.9382 H   0  0  0  0  0  0  0  0  0  0  0  0
    0.1955    0.1183  -10.8860 H   0  0  0  0  0  0  0  0  0  0  0  0
    1.8190   -0.6118  -11.2046 H   0  0  0  0  0  0  0  0  0  0  0  0
    0.3666   -1.6673  -11.1115 H   0  0  0  0  0  0  0  0  0  0  0  0
    2.6474    0.5597   -9.1214 H   0  0  0  0  0  0  0  0  0  0  0  0
    2.9467    0.3820   -6.6840 H   0  0  0  0  0  0  0  0  0  0  0  0
    5.6079   -0.6247   -1.2398 H   0  0  0  0  0  0  0  0  0  0  0  0
    7.6672   -0.1522   -2.4897 H   0  0  0  0  0  0  0  0  0  0  0  0
   10.8393    2.8188   -2.1799 H   0  0  0  0  0  0  0  0  0  0  0  0
    9.3568    3.5116   -1.4099 H   0  0  0  0  0  0  0  0  0  0  0  0
    9.7221    1.7387   -1.2606 H   0  0  0  0  0  0  0  0  0  0  0  0
    6.6785    4.0344   -2.5596 H   0  0  0  0  0  0  0  0  0  0  0  0
    4.6067    3.5632   -1.3215 H   0  0  0  0  0  0  0  0  0  0  0  0
    5.2427    2.6803    1.2861 H   0  0  0  0  0  0  0  0  0  0  0  0
    4.4195    4.0388    3.1601 H   0  0  0  0  0  0  0  0  0  0  0  0
    0.9795    6.7347    4.1385 H   0  0  0  0  0  0  0  0  0  0  0  0
    2.3435    6.4391    3.0005 H   0  0  0  0  0  0  0  0  0  0  0  0
    0.6680    5.8522    2.6014 H   0  0  0  0  0  0  0  0  0  0  0  0
    0.3698    2.9739    2.1782 H   0  0  0  0  0  0  0  0  0  0  0  0
    1.1716    1.6439    0.2742 H   0  0  0  0  0  0  0  0  0  0  0  0
    4.2177   -4.6631    0.1460 H   0  0  0  0  0  0  0  0  0  0  0  0
    5.7953   -6.4221    0.8513 H   0  0  0  0  0  0  0  0  0  0  0  0
    5.2849   -7.5679    4.7442 H   0  0  0  0  0  0  0  0  0  0  0  0
    6.5131   -6.7661    3.6752 H   0  0  0  0  0  0  0  0  0  0  0  0
    6.9235   -8.3001    4.5318 H   0  0  0  0  0  0  0  0  0  0  0  0
    2.7002   -8.2524    3.2191 H   0  0  0  0  0  0  0  0  0  0  0  0
    1.1090   -6.5048    2.4967 H   0  0  0  0  0  0  0  0  0  0  0  0
    0.9934   -6.6936   -0.4851 H   0  0  0  0  0  0  0  0  0  0  0  0
   -1.0784   -7.1337   -1.7170 H   0  0  0  0  0  0  0  0  0  0  0  0
   -3.5505   -4.7004   -4.5045 H   0  0  0  0  0  0  0  0  0  0  0  0
   -1.8784   -5.2323   -4.0704 H   0  0  0  0  0  0  0  0  0  0  0  0
   -2.5142   -3.6395   -3.4761 H   0  0  0  0  0  0  0  0  0  0  0  0
   -2.5725   -3.2479   -0.6386 H   0  0  0  0  0  0  0  0  0  0  0  0
   -0.5209   -2.7894    0.6048 H   0  0  0  0  0  0  0  0  0  0  0  0
   -1.8668   -4.3665    2.6692 H   0  0  0  0  0  0  0  0  0  0  0  0
   -3.4653   -5.7952    3.6302 H   0  0  0  0  0  0  0  0  0  0  0  0
   -4.1822   -4.1301    3.7521 H   0  0  0  0  0  0  0  0  0  0  0  0
   -4.6729   -6.5293    5.6345 H   0  0  0  0  0  0  0  0  0  0  0  0
   -5.8368   -5.8266    4.4386 H   0  0  0  0  0  0  0  0  0  0  0  0
   -5.3367   -4.8598    5.8906 H   0  0  0  0  0  0  0  0  0  0  0  0
    0.8640   -3.1670    8.4691 H   0  0  0  0  0  0  0  0  0  0  0  0
   -0.6273    1.6939    4.7887 H   0  0  0  0  0  0  0  0  0  0  0  0
   -2.6076    1.1523    9.4640 H   0  0  0  0  0  0  0  0  0  0  0  0
   -3.5839    4.1530    7.8973 H   0  0  0  0  0  0  0  0  0  0  0  0
   -5.8170    2.8616    7.8783 H   0  0  0  0  0  0  0  0  0  0  0  0
   -5.4787    0.4292    6.8777 H   0  0  0  0  0  0  0  0  0  0  0  0
   -4.4860    0.6591    4.4812 H   0  0  0  0  0  0  0  0  0  0  0  0
   -4.1943    3.2444    3.9489 H   0  0  0  0  0  0  0  0  0  0  0  0
   -5.3839    4.6177    5.9096 H   0  0  0  0  0  0  0  0  0  0  0  0
   -6.4420    3.2514    5.3379 H   0  0  0  0  0  0  0  0  0  0  0  0
   -2.6975    4.3843    5.7219 H   0  0  0  0  0  0  0  0  0  0  0  0
  1  2  2  3
  2  3  1  0
  3  4  2  0
  3  5  1  0
  5  6  2  0
  6  7  1  0
  7  8  2  0
  8  9  1  0
  9 10  2  0
 10 11  1  0
 11 12  2  3
 12 13  1  0
 13 14  3  0
 12 15  1  0
 15 16  3  0
  8 17  1  0
 17 18  1  0
 18 19  1  0
 19 20  2  0
 20 21  1  0
 21 22  1  0
 21 23  1  0
  1 24  1  0
 24 25  2  0
 25 26  1  0
 26 27  1  0
 27 28  2  0
 28 29  1  0
 29 30  2  0
 30 31  1  0
 30 32  1  0
 32 33  2  0
 26 34  1  0
 34 35  2  0
 35 36  1  0
 36 37  2  0
 37 38  1  0
 37 39  1  0
 39 40  2  0
 25 41  1  0
 41 42  1  0
 42 43  1  0
 43 44  2  0
 44 45  1  0
 45 46  1  0
 46 47  2  0
 47 48  1  0
 48 49  2  0
 49 50  1  0
 49 51  1  0
 51 52  2  0
 45 53  1  0
 53 54  2  0
 54 55  1  0
 55 56  2  0
 56 57  1  0
 56 58  1  0
 58 59  2  0
 44 60  1  0
 60 61  1  0
 43 62  1  0
 62 63  2  0
 63 64  1  0
 64 65  1  0
 65 66  2  0
 66 67  1  0
 67 68  2  0
 68 69  1  0
 69 70  1  0
 68 71  1  0
 71 72  2  0
 64 73  1  0
 73 74  2  0
 74 75  1  0
 75 76  2  0
 76 77  1  0
 77 78  1  0
 76 79  1  0
 79 80  2  0
 63 81  1  0
 81 82  1  0
 82 83  1  0
 83 84  2  0
 84 85  1  0
 85 86  1  0
 86 87  2  0
 87 88  1  0
 88 89  2  0
 89 90  1  0
 90 91  1  0
 89 92  1  0
 92 93  2  0
 85 94  1  0
 94 95  2  0
 95 96  1  0
 96 97  2  0
 97 98  1  0
 98 99  1  0
 97100  1  0
100101  2  0
 84102  1  0
102103  1  0
 83104  1  0
104105  1  0
105106  2  0
106107  1  0
107108  2  0
108109  1  0
109110  1  0
110111  1  0
108112  1  0
112113  2  0
113114  1  0
114115  2  0
115116  1  0
116117  1  0
115118  1  0
114119  1  0
119120  2  3
120121  1  0
121122  2  0
121123  1  0
123124  2  0
124125  1  0
125126  2  0
126127  1  0
127128  2  0
128129  1  0
129130  2  3
130131  1  0
131132  3  0
130133  1  0
133134  3  0
126135  1  0
135136  1  0
136137  1  0
137138  2  0
138139  1  0
139140  1  0
139141  1  0
 11  2  1  0
 23 17  1  0
 61 24  1  0
103 62  1  0
116104  2  0
129120  1  0
141135  1  0
 10  5  1  0
 22 18  1  0
 33 27  1  0
 40 34  1  0
 60 41  2  0
 72 65  1  0
 80 73  1  0
102 81  2  0
113105  1  0
128123  1  0
140136  1  0
 23  7  1  0
 52 46  1  0
 59 53  1  0
 93 86  1  0
101 94  1  0
141125  1  0
  1142  1  0
  6143  1  0
  9144  1  0
 17145  1  0
 18146  1  0
 19147  1  0
 20148  1  0
 21149  1  0
 22150  1  0
 22151  1  0
 23152  1  0
 28153  1  0
 29154  1  0
 31155  1  0
 31156  1  0
 31157  1  0
 32158  1  0
 33159  1  0
 35160  1  0
 36161  1  0
 38162  1  0
 38163  1  0
 38164  1  0
 39165  1  0
 40166  1  0
 47167  1  0
 48168  1  0
 50169  1  0
 50170  1  0
 50171  1  0
 51172  1  0
 52173  1  0
 54174  1  0
 55175  1  0
 57176  1  0
 57177  1  0
 57178  1  0
 58179  1  0
 59180  1  0
 66181  1  0
 67182  1  0
 70183  1  0
 70184  1  0
 70185  1  0
 71186  1  0
 72187  1  0
 74188  1  0
 75189  1  0
 78190  1  0
 78191  1  0
 78192  1  0
 79193  1  0
 80194  1  0
 87195  1  0
 88196  1  0
 91197  1  0
 91198  1  0
 91199  1  0
 92200  1  0
 93201  1  0
 95202  1  0
 96203  1  0
 99204  1  0
 99205  1  0
 99206  1  0
100207  1  0
101208  1  0
107209  1  0
110210  1  0
110211  1  0
111212  1  0
111213  1  0
111214  1  0
119215  1  0
124216  1  0
127217  1  0
135218  1  0
136219  1  0
137220  1  0
138221  1  0
139222  1  0
140223  1  0
140224  1  0
141225  1  0
M  END

