
     RDKit          3D

239262  0  0  0  0  0  0  0  0999 V2000
    6.2296    5.6810   -2.6450 C   0  0  0  0  0  0  0  0  0  0  0  0
    6.4866    6.0194   -1.3651 C   0  0  0  0  0  0  0  0  0  0  0  0
    5.5922    5.7286   -0.2276 C   0  0  0  0  0  0  0  0  0  0  0  0
    4.3955    5.3402   -0.2941 O   0  0  0  0  0  0  0  0  0  0  0  0
    6.2807    6.0131    1.0001 C   0  0  0  0  0  0  0  0  0  0  0  0
    5.7948    5.7699    2.3051 C   0  0  0  0  0  0  0  0  0  0  0  0
    6.7140    6.0353    3.2977 C   0  0  0  0  0  0  0  0  0  0  0  0
    8.0459    6.4840    3.0339 C   0  0  0  0  0  0  0  0  0  0  0  0
    8.5259    6.7283    1.7546 C   0  0  0  0  0  0  0  0  0  0  0  0
    7.5749    6.5136    0.7079 C   0  0  0  0  0  0  0  0  0  0  0  0
    7.7286    6.6370   -0.7776 C   0  0  0  0  0  0  0  0  0  0  0  0
    8.7240    7.3020   -1.4266 C   0  0  0  0  0  0  0  0  0  0  0  0
    8.8443    7.3471   -2.8662 C   0  0  0  0  0  0  0  0  0  0  0  0
    8.9776    7.3624   -4.0120 N   0  0  0  0  0  0  0  0  0  0  0  0
    9.7337    8.0520   -0.7218 C   0  0  0  0  0  0  0  0  0  0  0  0
   10.5515    8.6630   -0.1732 N   0  0  0  0  0  0  0  0  0  0  0  0
    8.3630    6.4450    4.5014 C   0  0  0  0  0  0  0  0  0  0  0  0
    9.2195    5.2577    5.0460 C   0  0  0  0  0  0  0  0  0  0  0  0
    8.9778    4.0183    4.2138 C   0  0  0  0  0  0  0  0  0  0  0  0
    7.7260    3.6329    4.4606 C   0  0  0  0  0  0  0  0  0  0  0  0
    7.1599    4.6212    5.4488 C   0  0  0  0  0  0  0  0  0  0  0  0
    8.4065    4.8859    6.2713 C   0  0  0  0  0  0  0  0  0  0  0  0
    6.9859    6.0143    4.7698 C   0  0  0  0  0  0  0  0  0  0  0  0
    5.0924    4.8072   -2.9913 C   0  0  0  0  0  0  0  0  0  0  0  0
    4.9596    3.5062   -2.4835 C   0  0  0  0  0  0  0  0  0  0  0  0
    6.0609    2.6088   -2.2668 N   0  0  0  0  0  0  0  0  0  0  0  0
    6.7475    2.0658   -3.4078 C   0  0  0  0  0  0  0  0  0  0  0  0
    7.6480    2.8576   -4.1333 C   0  0  0  0  0  0  0  0  0  0  0  0
    8.2881    2.3448   -5.2637 C   0  0  0  0  0  0  0  0  0  0  0  0
    8.0644    1.0155   -5.6613 C   0  0  0  0  0  0  0  0  0  0  0  0
    8.7629    0.4443   -6.8595 C   0  0  0  0  0  0  0  0  0  0  0  0
    7.1706    0.2205   -4.9287 C   0  0  0  0  0  0  0  0  0  0  0  0
    6.5065    0.7460   -3.8161 C   0  0  0  0  0  0  0  0  0  0  0  0
    6.3838    2.0949   -0.9685 C   0  0  0  0  0  0  0  0  0  0  0  0
    5.8214    0.8905   -0.5160 C   0  0  0  0  0  0  0  0  0  0  0  0
    6.2936    0.2929    0.6546 C   0  0  0  0  0  0  0  0  0  0  0  0
    7.3394    0.8843    1.3783 C   0  0  0  0  0  0  0  0  0  0  0  0
    7.8700    0.2036    2.6030 C   0  0  0  0  0  0  0  0  0  0  0  0
    7.8706    2.1115    0.9501 C   0  0  0  0  0  0  0  0  0  0  0  0
    7.4003    2.7078   -0.2241 C   0  0  0  0  0  0  0  0  0  0  0  0
    3.6228    3.1248   -2.4391 C   0  0  0  0  0  0  0  0  0  0  0  0
    2.8004    1.8887   -1.6815 S   0  0  0  0  0  0  0  0  0  0  0  0
    1.2627    2.4678   -2.1236 C   0  0  0  0  0  0  0  0  0  0  0  0
    1.3936    3.6577   -2.8536 C   0  0  0  0  0  0  0  0  0  0  0  0
    0.3806    4.1426   -3.7542 N   0  0  0  0  0  0  0  0  0  0  0  0
    0.5777    3.9301   -5.1700 C   0  0  0  0  0  0  0  0  0  0  0  0
    0.1738    4.8989   -6.1007 C   0  0  0  0  0  0  0  0  0  0  0  0
    0.3628    4.6878   -7.4726 C   0  0  0  0  0  0  0  0  0  0  0  0
    0.9427    3.4954   -7.9322 C   0  0  0  0  0  0  0  0  0  0  0  0
    1.1930    3.2850   -9.3974 C   0  0  0  0  0  0  0  0  0  0  0  0
    1.3605    2.5307   -7.0066 C   0  0  0  0  0  0  0  0  0  0  0  0
    1.1745    2.7412   -5.6380 C   0  0  0  0  0  0  0  0  0  0  0  0
   -0.9127    4.5162   -3.2401 C   0  0  0  0  0  0  0  0  0  0  0  0
   -2.0859    4.0803   -3.8772 C   0  0  0  0  0  0  0  0  0  0  0  0
   -3.3369    4.3855   -3.3370 C   0  0  0  0  0  0  0  0  0  0  0  0
   -3.4349    5.1233   -2.1495 C   0  0  0  0  0  0  0  0  0  0  0  0
   -4.7824    5.4584   -1.5822 C   0  0  0  0  0  0  0  0  0  0  0  0
   -2.2633    5.5841   -1.5260 C   0  0  0  0  0  0  0  0  0  0  0  0
   -1.0112    5.2762   -2.0643 C   0  0  0  0  0  0  0  0  0  0  0  0
    2.7410    4.0057   -2.9694 C   0  0  0  0  0  0  0  0  0  0  0  0
    3.5565    5.3896   -3.4655 S   0  0  0  0  0  0  0  0  0  0  0  0
    0.0359    1.8766   -1.5958 C   0  0  0  0  0  0  0  0  0  0  0  0
   -0.2677    0.5263   -1.7955 C   0  0  0  0  0  0  0  0  0  0  0  0
   -0.1587   -0.1344   -3.0710 N   0  0  0  0  0  0  0  0  0  0  0  0
    0.7360   -1.2478   -3.2093 C   0  0  0  0  0  0  0  0  0  0  0  0
    2.0941   -1.0355   -3.5015 C   0  0  0  0  0  0  0  0  0  0  0  0
    2.9569   -2.1215   -3.6737 C   0  0  0  0  0  0  0  0  0  0  0  0
    2.4651   -3.4297   -3.5750 C   0  0  0  0  0  0  0  0  0  0  0  0
    3.5658   -4.8283   -3.8126 S   0  0  0  0  0  0  0  0  0  0  0  0
    4.0060   -4.9484   -2.0502 C   0  0  0  0  0  0  0  0  0  0  0  0
    1.1045   -3.6468   -3.3174 C   0  0  0  0  0  0  0  0  0  0  0  0
    0.2421   -2.5612   -3.1459 C   0  0  0  0  0  0  0  0  0  0  0  0
   -1.1478    0.1216   -4.1013 C   0  0  0  0  0  0  0  0  0  0  0  0
   -2.4151    0.6553   -3.7815 C   0  0  0  0  0  0  0  0  0  0  0  0
   -3.3790    0.8454   -4.7749 C   0  0  0  0  0  0  0  0  0  0  0  0
   -3.0945    0.5106   -6.1023 C   0  0  0  0  0  0  0  0  0  0  0  0
   -4.3390    0.7458   -7.3746 S   0  0  0  0  0  0  0  0  0  0  0  0
   -5.2488   -0.7848   -6.9772 C   0  0  0  0  0  0  0  0  0  0  0  0
   -1.8356    0.0011   -6.4390 C   0  0  0  0  0  0  0  0  0  0  0  0
   -0.8668   -0.1850   -5.4472 C   0  0  0  0  0  0  0  0  0  0  0  0
   -0.9475   -0.0076   -0.7104 C   0  0  0  0  0  0  0  0  0  0  0  0
   -1.3634   -1.5564   -0.2594 S   0  0  0  0  0  0  0  0  0  0  0  0
   -1.9257   -1.1186    1.2897 C   0  0  0  0  0  0  0  0  0  0  0  0
   -1.8032    0.2778    1.4432 C   0  0  0  0  0  0  0  0  0  0  0  0
   -2.2587    1.0322    2.5834 N   0  0  0  0  0  0  0  0  0  0  0  0
   -1.2795    1.4374    3.5532 C   0  0  0  0  0  0  0  0  0  0  0  0
   -1.0040    0.6201    4.6566 C   0  0  0  0  0  0  0  0  0  0  0  0
   -0.1932    1.0907    5.6941 C   0  0  0  0  0  0  0  0  0  0  0  0
    0.3447    2.3836    5.6352 C   0  0  0  0  0  0  0  0  0  0  0  0
    1.2710    3.0381    7.0297 S   0  0  0  0  0  0  0  0  0  0  0  0
    2.8676    2.4059    6.4369 C   0  0  0  0  0  0  0  0  0  0  0  0
    0.1026    3.1903    4.5171 C   0  0  0  0  0  0  0  0  0  0  0  0
   -0.7122    2.7224    3.4829 C   0  0  0  0  0  0  0  0  0  0  0  0
   -3.6372    1.4974    2.6724 C   0  0  0  0  0  0  0  0  0  0  0  0
   -4.6123    1.0755    1.7426 C   0  0  0  0  0  0  0  0  0  0  0  0
   -5.9322    1.5343    1.8272 C   0  0  0  0  0  0  0  0  0  0  0  0
   -6.3070    2.4247    2.8371 C   0  0  0  0  0  0  0  0  0  0  0  0
   -7.9895    3.0568    2.8958 S   0  0  0  0  0  0  0  0  0  0  0  0
   -8.5475    1.8474    4.1403 C   0  0  0  0  0  0  0  0  0  0  0  0
   -5.3569    2.8529    3.7685 C   0  0  0  0  0  0  0  0  0  0  0  0
   -4.0401    2.3878    3.6978 C   0  0  0  0  0  0  0  0  0  0  0  0
   -1.2205    0.8529    0.3042 C   0  0  0  0  0  0  0  0  0  0  0  0
   -0.5876    2.3545   -0.0809 S   0  0  0  0  0  0  0  0  0  0  0  0
   -2.3029   -2.1252    2.2954 C   0  0  0  0  0  0  0  0  0  0  0  0
   -3.3464   -2.0560    3.2163 C   0  0  0  0  0  0  0  0  0  0  0  0
   -3.6409   -3.3023    3.8094 C   0  0  0  0  0  0  0  0  0  0  0  0
   -4.7354   -3.5939    4.6709 C   0  0  0  0  0  0  0  0  0  0  0  0
   -5.3936   -2.5398    5.5040 C   0  0  0  0  0  0  0  0  0  0  0  0
   -4.7940   -1.3558    5.9464 C   0  0  0  0  0  0  0  0  0  0  0  0
   -5.5649   -0.6273    6.8629 C   0  0  0  0  0  0  0  0  0  0  0  0
   -6.7496   -1.2599    7.1997 C   0  0  0  0  0  0  0  0  0  0  0  0
   -7.8881   -0.7286    8.4741 S   0  0  0  0  0  0  0  0  0  0  0  0
   -9.1765   -0.1546    7.3205 C   0  0  0  0  0  0  0  0  0  0  0  0
  -10.1812   -1.2663    7.0522 C   0  0  0  0  0  0  0  0  0  0  0  0
   -6.8480   -2.7015    6.3480 S   0  0  0  0  0  0  0  0  0  0  0  0
   -5.0898   -4.9644    4.7566 C   0  0  0  0  0  0  0  0  0  0  0  0
   -4.2808   -5.9897    4.2437 C   0  0  0  0  0  0  0  0  0  0  0  0
   -3.0593   -5.6861    3.6210 C   0  0  0  0  0  0  0  0  0  0  0  0
   -2.0916   -6.7508    3.2776 C   0  0  0  0  0  0  0  0  0  0  0  0
   -1.6218   -7.6976    4.1784 C   0  0  0  0  0  0  0  0  0  0  0  0
   -0.6676   -8.5635    3.6340 C   0  0  0  0  0  0  0  0  0  0  0  0
   -0.3879   -8.2871    2.3055 C   0  0  0  0  0  0  0  0  0  0  0  0
    0.8085   -9.1506    1.2855 S   0  0  0  0  0  0  0  0  0  0  0  0
    2.2488   -8.1870    1.8636 C   0  0  0  0  0  0  0  0  0  0  0  0
    2.2788   -6.7921    1.2432 C   0  0  0  0  0  0  0  0  0  0  0  0
   -1.3200   -6.9828    1.7976 S   0  0  0  0  0  0  0  0  0  0  0  0
   -2.8172   -4.3354    3.3405 C   0  0  0  0  0  0  0  0  0  0  0  0
   -1.7172   -3.7012    2.2524 S   0  0  0  0  0  0  0  0  0  0  0  0
   -4.8966   -7.2527    4.2192 C   0  0  0  0  0  0  0  0  0  0  0  0
   -6.2128   -7.2156    4.6596 C   0  0  0  0  0  0  0  0  0  0  0  0
   -6.5766   -5.6492    5.1715 S   0  0  0  0  0  0  0  0  0  0  0  0
   -7.1926   -8.2656    4.3480 C   0  0  0  0  0  0  0  0  0  0  0  0
   -8.0489   -8.1852    3.3042 C   0  0  0  0  0  0  0  0  0  0  0  0
   -8.0546   -7.1192    2.2878 C   0  0  0  0  0  0  0  0  0  0  0  0
   -7.4142   -6.0348    2.3198 O   0  0  0  0  0  0  0  0  0  0  0  0
   -8.8647   -7.5485    1.1749 C   0  0  0  0  0  0  0  0  0  0  0  0
   -9.1050   -6.8618   -0.0133 C   0  0  0  0  0  0  0  0  0  0  0  0
   -9.8867   -7.4691   -0.9919 C   0  0  0  0  0  0  0  0  0  0  0  0
  -10.4075   -8.7708   -0.7869 C   0  0  0  0  0  0  0  0  0  0  0  0
  -11.1811   -9.4246   -1.7572 O   0  0  0  0  0  0  0  0  0  0  0  0
  -11.5052   -8.8795   -3.0344 C   0  0  0  0  0  0  0  0  0  0  0  0
  -10.1468   -9.4427    0.4229 C   0  0  0  0  0  0  0  0  0  0  0  0
   -9.3764   -8.8092    1.4197 C   0  0  0  0  0  0  0  0  0  0  0  0
   -8.9680   -9.2547    2.7877 C   0  0  0  0  0  0  0  0  0  0  0  0
   -9.4392  -10.3379    3.4695 C   0  0  0  0  0  0  0  0  0  0  0  0
  -10.3457  -11.2910    2.8883 C   0  0  0  0  0  0  0  0  0  0  0  0
  -11.0738  -12.0762    2.4400 N   0  0  0  0  0  0  0  0  0  0  0  0
   -9.1601  -10.5558    4.8668 C   0  0  0  0  0  0  0  0  0  0  0  0
   -8.9534  -10.7426    5.9893 N   0  0  0  0  0  0  0  0  0  0  0  0
    6.8820    5.9402   -3.4526 H   0  0  0  0  0  0  0  0  0  0  0  0
    4.8136    5.3536    2.5077 H   0  0  0  0  0  0  0  0  0  0  0  0
    9.5534    7.0102    1.5998 H   0  0  0  0  0  0  0  0  0  0  0  0
    8.6118    7.4378    4.9355 H   0  0  0  0  0  0  0  0  0  0  0  0
   10.2883    5.4927    5.2356 H   0  0  0  0  0  0  0  0  0  0  0  0
    9.6998    3.4916    3.5996 H   0  0  0  0  0  0  0  0  0  0  0  0
    7.2416    2.7414    4.0805 H   0  0  0  0  0  0  0  0  0  0  0  0
    6.2776    4.2608    6.0200 H   0  0  0  0  0  0  0  0  0  0  0  0
    8.2908    5.7223    6.9999 H   0  0  0  0  0  0  0  0  0  0  0  0
    8.7866    3.9815    6.8049 H   0  0  0  0  0  0  0  0  0  0  0  0
    6.3861    6.7520    5.3487 H   0  0  0  0  0  0  0  0  0  0  0  0
    7.8718    3.8630   -3.8220 H   0  0  0  0  0  0  0  0  0  0  0  0
    8.9646    2.9826   -5.8232 H   0  0  0  0  0  0  0  0  0  0  0  0
    9.3687   -0.4321   -6.5472 H   0  0  0  0  0  0  0  0  0  0  0  0
    8.0142    0.1210   -7.6139 H   0  0  0  0  0  0  0  0  0  0  0  0
    9.4444    1.1879   -7.3271 H   0  0  0  0  0  0  0  0  0  0  0  0
    6.9933   -0.8116   -5.2182 H   0  0  0  0  0  0  0  0  0  0  0  0
    5.8110    0.1126   -3.2792 H   0  0  0  0  0  0  0  0  0  0  0  0
    5.0694    0.3813   -1.0935 H   0  0  0  0  0  0  0  0  0  0  0  0
    5.8739   -0.6520    0.9693 H   0  0  0  0  0  0  0  0  0  0  0  0
    7.2000    0.4053    3.4629 H   0  0  0  0  0  0  0  0  0  0  0  0
    7.9278   -0.8942    2.4433 H   0  0  0  0  0  0  0  0  0  0  0  0
    8.8963    0.5603    2.8458 H   0  0  0  0  0  0  0  0  0  0  0  0
    8.6674    2.5900    1.5015 H   0  0  0  0  0  0  0  0  0  0  0  0
    7.8625    3.6170   -0.5803 H   0  0  0  0  0  0  0  0  0  0  0  0
   -0.2775    5.8235   -5.7678 H   0  0  0  0  0  0  0  0  0  0  0  0
    0.0629    5.4553   -8.1756 H   0  0  0  0  0  0  0  0  0  0  0  0
    0.4277    3.8139  -10.0072 H   0  0  0  0  0  0  0  0  0  0  0  0
    1.1410    2.2068   -9.6540 H   0  0  0  0  0  0  0  0  0  0  0  0
    2.2003    3.6732   -9.6621 H   0  0  0  0  0  0  0  0  0  0  0  0
    1.8325    1.6134   -7.3427 H   0  0  0  0  0  0  0  0  0  0  0  0
    1.4862    1.9663   -4.9509 H   0  0  0  0  0  0  0  0  0  0  0  0
   -2.0411    3.4888   -4.7833 H   0  0  0  0  0  0  0  0  0  0  0  0
   -4.2309    4.0390   -3.8424 H   0  0  0  0  0  0  0  0  0  0  0  0
   -5.4926    4.6187   -1.7413 H   0  0  0  0  0  0  0  0  0  0  0  0
   -4.7133    5.6495   -0.4895 H   0  0  0  0  0  0  0  0  0  0  0  0
   -5.1814    6.3633   -2.0856 H   0  0  0  0  0  0  0  0  0  0  0  0
   -2.3222    6.1777   -0.6224 H   0  0  0  0  0  0  0  0  0  0  0  0
   -0.1186    5.6298   -1.5650 H   0  0  0  0  0  0  0  0  0  0  0  0
    2.4656   -0.0325   -3.6406 H   0  0  0  0  0  0  0  0  0  0  0  0
    3.9977   -1.9452   -3.9050 H   0  0  0  0  0  0  0  0  0  0  0  0
    3.0925   -5.0495   -1.4304 H   0  0  0  0  0  0  0  0  0  0  0  0
    4.5783   -4.0477   -1.7412 H   0  0  0  0  0  0  0  0  0  0  0  0
    4.6438   -5.8424   -1.8959 H   0  0  0  0  0  0  0  0  0  0  0  0
    0.7127   -4.6519   -3.2596 H   0  0  0  0  0  0  0  0  0  0  0  0
   -0.8113   -2.7405   -2.9703 H   0  0  0  0  0  0  0  0  0  0  0  0
   -2.6762    0.9079   -2.7657 H   0  0  0  0  0  0  0  0  0  0  0  0
   -4.3484    1.2446   -4.5068 H   0  0  0  0  0  0  0  0  0  0  0  0
   -4.5703   -1.6033   -6.6556 H   0  0  0  0  0  0  0  0  0  0  0  0
   -5.8030   -1.1197   -7.8774 H   0  0  0  0  0  0  0  0  0  0  0  0
   -5.9860   -0.5750   -6.1750 H   0  0  0  0  0  0  0  0  0  0  0  0
   -1.6013   -0.2466   -7.4670 H   0  0  0  0  0  0  0  0  0  0  0  0
    0.0974   -0.5761   -5.7359 H   0  0  0  0  0  0  0  0  0  0  0  0
   -1.4500   -0.3609    4.7289 H   0  0  0  0  0  0  0  0  0  0  0  0
   -0.0141    0.4623    6.5541 H   0  0  0  0  0  0  0  0  0  0  0  0
    2.8399    1.2975    6.4173 H   0  0  0  0  0  0  0  0  0  0  0  0
    3.0916    2.8038    5.4242 H   0  0  0  0  0  0  0  0  0  0  0  0
    3.6679    2.7322    7.1339 H   0  0  0  0  0  0  0  0  0  0  0  0
    0.5117    4.1921    4.4683 H   0  0  0  0  0  0  0  0  0  0  0  0
   -0.9401    3.3754    2.6510 H   0  0  0  0  0  0  0  0  0  0  0  0
   -4.3583    0.3946    0.9429 H   0  0  0  0  0  0  0  0  0  0  0  0
   -6.6603    1.2089    1.0962 H   0  0  0  0  0  0  0  0  0  0  0  0
   -9.6561    1.7979    4.1370 H   0  0  0  0  0  0  0  0  0  0  0  0
   -8.2128    2.1752    5.1464 H   0  0  0  0  0  0  0  0  0  0  0  0
   -8.1522    0.8358    3.9137 H   0  0  0  0  0  0  0  0  0  0  0  0
   -5.6383    3.5460    4.5515 H   0  0  0  0  0  0  0  0  0  0  0  0
   -3.3388    2.7480    4.4390 H   0  0  0  0  0  0  0  0  0  0  0  0
   -3.9496   -1.1686    3.3527 H   0  0  0  0  0  0  0  0  0  0  0  0
   -3.7934   -1.0430    5.6829 H   0  0  0  0  0  0  0  0  0  0  0  0
   -5.2341    0.3024    7.3113 H   0  0  0  0  0  0  0  0  0  0  0  0
   -9.6948    0.7072    7.7838 H   0  0  0  0  0  0  0  0  0  0  0  0
   -8.7335    0.1874    6.3650 H   0  0  0  0  0  0  0  0  0  0  0  0
   -9.7178   -2.0639    6.4322 H   0  0  0  0  0  0  0  0  0  0  0  0
  -11.0601   -0.8553    6.5110 H   0  0  0  0  0  0  0  0  0  0  0  0
  -10.5401   -1.7152    8.0036 H   0  0  0  0  0  0  0  0  0  0  0  0
   -1.9517   -7.7513    5.2062 H   0  0  0  0  0  0  0  0  0  0  0  0
   -0.2033   -9.3693    4.1919 H   0  0  0  0  0  0  0  0  0  0  0  0
    3.1686   -8.7303    1.5596 H   0  0  0  0  0  0  0  0  0  0  0  0
    2.2450   -8.1090    2.9719 H   0  0  0  0  0  0  0  0  0  0  0  0
    3.2405   -6.2942    1.4858 H   0  0  0  0  0  0  0  0  0  0  0  0
    1.4590   -6.1663    1.6473 H   0  0  0  0  0  0  0  0  0  0  0  0
    2.1887   -6.8572    0.1346 H   0  0  0  0  0  0  0  0  0  0  0  0
   -4.4557   -8.1298    3.7526 H   0  0  0  0  0  0  0  0  0  0  0  0
   -7.0776   -9.1843    4.8990 H   0  0  0  0  0  0  0  0  0  0  0  0
   -8.6884   -5.8758   -0.1805 H   0  0  0  0  0  0  0  0  0  0  0  0
  -10.0699   -6.9279   -1.9082 H   0  0  0  0  0  0  0  0  0  0  0  0
  -10.5753   -8.6697   -3.6062 H   0  0  0  0  0  0  0  0  0  0  0  0
  -12.1130   -9.6177   -3.5974 H   0  0  0  0  0  0  0  0  0  0  0  0
  -12.0935   -7.9444   -2.9142 H   0  0  0  0  0  0  0  0  0  0  0  0
  -10.5291  -10.4427    0.5349 H   0  0  0  0  0  0  0  0  0  0  0  0
  1  2  2  3
  2  3  1  0
  3  4  2  0
  3  5  1  0
  5  6  2  0
  6  7  1  0
  7  8  2  0
  8  9  1  0
  9 10  2  0
 10 11  1  0
 11 12  2  3
 12 13  1  0
 13 14  3  0
 12 15  1  0
 15 16  3  0
  8 17  1  0
 17 18  1  0
 18 19  1  0
 19 20  2  0
 20 21  1  0
 21 22  1  0
 21 23  1  0
  1 24  1  0
 24 25  2  0
 25 26  1  0
 26 27  1  0
 27 28  2  0
 28 29  1  0
 29 30  2  0
 30 31  1  0
 30 32  1  0
 32 33  2  0
 26 34  1  0
 34 35  2  0
 35 36  1  0
 36 37  2  0
 37 38  1  0
 37 39  1  0
 39 40  2  0
 25 41  1  0
 41 42  1  0
 42 43  1  0
 43 44  2  0
 44 45  1  0
 45 46  1  0
 46 47  2  0
 47 48  1  0
 48 49  2  0
 49 50  1  0
 49 51  1  0
 51 52  2  0
 45 53  1  0
 53 54  2  0
 54 55  1  0
 55 56  2  0
 56 57  1  0
 56 58  1  0
 58 59  2  0
 44 60  1  0
 60 61  1  0
 43 62  1  0
 62 63  2  0
 63 64  1  0
 64 65  1  0
 65 66  2  0
 66 67  1  0
 67 68  2  0
 68 69  1  0
 69 70  1  0
 68 71  1  0
 71 72  2  0
 64 73  1  0
 73 74  2  0
 74 75  1  0
 75 76  2  0
 76 77  1  0
 77 78  1  0
 76 79  1  0
 79 80  2  0
 63 81  1  0
 81 82  1  0
 82 83  1  0
 83 84  2  0
 84 85  1  0
 85 86  1  0
 86 87  2  0
 87 88  1  0
 88 89  2  0
 89 90  1  0
 90 91  1  0
 89 92  1  0
 92 93  2  0
 85 94  1  0
 94 95  2  0
 95 96  1  0
 96 97  2  0
 97 98  1  0
 98 99  1  0
 97100  1  0
100101  2  0
 84102  1  0
102103  1  0
 83104  1  0
104105  2  0
105106  1  0
106107  2  0
107108  1  0
108109  2  0
109110  1  0
110111  2  0
111112  1  0
112113  1  0
113114  1  0
111115  1  0
107116  1  0
116117  2  0
117118  1  0
118119  1  0
119120  2  0
120121  1  0
121122  2  0
122123  1  0
123124  1  0
124125  1  0
122126  1  0
118127  2  0
127128  1  0
117129  1  0
129130  2  0
130131  1  0
130132  1  0
132133  2  3
133134  1  0
134135  2  0
134136  1  0
136137  2  0
137138  1  0
138139  2  0
139140  1  0
140141  1  0
139142  1  0
142143  2  0
143144  1  0
144145  2  3
145146  1  0
146147  3  0
145148  1  0
148149  3  0
 11  2  1  0
 23 17  1  0
 61 24  1  0
103 62  1  0
128104  1  0
144133  1  0
 10  5  1  0
 22 18  1  0
 33 27  1  0
 40 34  1  0
 60 41  2  0
 72 65  1  0
 80 73  1  0
102 81  2  0
127106  1  0
143136  1  0
 23  7  1  0
 52 46  1  0
 59 53  1  0
 93 86  1  0
101 94  1  0
115108  1  0
131116  1  0
126119  1  0
  1150  1  0
  6151  1  0
  9152  1  0
 17153  1  0
 18154  1  0
 19155  1  0
 20156  1  0
 21157  1  0
 22158  1  0
 22159  1  0
 23160  1  0
 28161  1  0
 29162  1  0
 31163  1  0
 31164  1  0
 31165  1  0
 32166  1  0
 33167  1  0
 35168  1  0
 36169  1  0
 38170  1  0
 38171  1  0
 38172  1  0
 39173  1  0
 40174  1  0
 47175  1  0
 48176  1  0
 50177  1  0
 50178  1  0
 50179  1  0
 51180  1  0
 52181  1  0
 54182  1  0
 55183  1  0
 57184  1  0
 57185  1  0
 57186  1  0
 58187  1  0
 59188  1  0
 66189  1  0
 67190  1  0
 70191  1  0
 70192  1  0
 70193  1  0
 71194  1  0
 72195  1  0
 74196  1  0
 75197  1  0
 78198  1  0
 78199  1  0
 78200  1  0
 79201  1  0
 80202  1  0
 87203  1  0
 88204  1  0
 91205  1  0
 91206  1  0
 91207  1  0
 92208  1  0
 93209  1  0
 95210  1  0
 96211  1  0
 99212  1  0
 99213  1  0
 99214  1  0
100215  1  0
101216  1  0
105217  1  0
109218  1  0
110219  1  0
113220  1  0
113221  1  0
114222  1  0
114223  1  0
114224  1  0
120225  1  0
121226  1  0
124227  1  0
124228  1  0
125229  1  0
125230  1  0
125231  1  0
129232  1  0
132233  1  0
137234  1  0
138235  1  0
141236  1  0
141237  1  0
141238  1  0
142239  1  0
M  END

