
     RDKit          3D

212234  0  0  0  0  0  0  0  0999 V2000
    1.4097    3.8331   -5.4742 C   0  0  0  0  0  0  0  0  0  0  0  0
    2.2096    3.5736   -6.5268 C   0  0  0  0  0  0  0  0  0  0  0  0
    2.4306    2.2708   -7.1711 C   0  0  0  0  0  0  0  0  0  0  0  0
    1.5415    1.4721   -7.5610 O   0  0  0  0  0  0  0  0  0  0  0  0
    3.8261    2.1762   -7.5367 C   0  0  0  0  0  0  0  0  0  0  0  0
    4.5219    1.0156   -7.9420 C   0  0  0  0  0  0  0  0  0  0  0  0
    5.8878    1.1907   -8.0296 C   0  0  0  0  0  0  0  0  0  0  0  0
    6.5418    2.4333   -7.7359 C   0  0  0  0  0  0  0  0  0  0  0  0
    5.8592    3.5815   -7.3639 C   0  0  0  0  0  0  0  0  0  0  0  0
    4.4512    3.4232   -7.2945 C   0  0  0  0  0  0  0  0  0  0  0  0
    3.4190    4.3875   -6.8342 C   0  0  0  0  0  0  0  0  0  0  0  0
    3.4900    5.7396   -6.8843 C   0  0  0  0  0  0  0  0  0  0  0  0
    2.3398    6.5669   -6.6269 C   0  0  0  0  0  0  0  0  0  0  0  0
    1.4169    7.2347   -6.4263 N   0  0  0  0  0  0  0  0  0  0  0  0
    4.6681    6.4286   -7.3375 C   0  0  0  0  0  0  0  0  0  0  0  0
    5.6085    6.9946   -7.7072 N   0  0  0  0  0  0  0  0  0  0  0  0
    7.8805    1.7959   -7.9546 C   0  0  0  0  0  0  0  0  0  0  0  0
    8.7127    1.4641   -6.6818 C   0  0  0  0  0  0  0  0  0  0  0  0
    9.7865    0.4997   -7.1296 C   0  0  0  0  0  0  0  0  0  0  0  0
    9.1706   -0.6559   -7.4111 C   0  0  0  0  0  0  0  0  0  0  0  0
    7.7024   -0.4317   -7.1468 C   0  0  0  0  0  0  0  0  0  0  0  0
    7.8209    0.4842   -5.9350 C   0  0  0  0  0  0  0  0  0  0  0  0
    7.2098    0.5303   -8.2671 C   0  0  0  0  0  0  0  0  0  0  0  0
    0.6323    2.8605   -4.6676 C   0  0  0  0  0  0  0  0  0  0  0  0
    0.4028    3.0377   -3.2892 C   0  0  0  0  0  0  0  0  0  0  0  0
    1.2664    3.8590   -2.4764 N   0  0  0  0  0  0  0  0  0  0  0  0
    2.2853    3.1920   -1.6990 C   0  0  0  0  0  0  0  0  0  0  0  0
    3.1120    2.2196   -2.2922 C   0  0  0  0  0  0  0  0  0  0  0  0
    3.9985    1.4741   -1.5116 C   0  0  0  0  0  0  0  0  0  0  0  0
    4.0828    1.7011   -0.1291 C   0  0  0  0  0  0  0  0  0  0  0  0
    4.9798    0.8529    0.7217 C   0  0  0  0  0  0  0  0  0  0  0  0
    3.2697    2.6780    0.4608 C   0  0  0  0  0  0  0  0  0  0  0  0
    2.3852    3.4255   -0.3207 C   0  0  0  0  0  0  0  0  0  0  0  0
    1.1412    5.2971   -2.4462 C   0  0  0  0  0  0  0  0  0  0  0  0
   -0.1100    5.9137   -2.6265 C   0  0  0  0  0  0  0  0  0  0  0  0
   -0.2239    7.3068   -2.5824 C   0  0  0  0  0  0  0  0  0  0  0  0
    0.9116    8.1066   -2.3768 C   0  0  0  0  0  0  0  0  0  0  0  0
    0.7904    9.5962   -2.2897 C   0  0  0  0  0  0  0  0  0  0  0  0
    2.1594    7.4969   -2.1977 C   0  0  0  0  0  0  0  0  0  0  0  0
    2.2743    6.1061   -2.2380 C   0  0  0  0  0  0  0  0  0  0  0  0
   -0.2394    1.9263   -2.7406 C   0  0  0  0  0  0  0  0  0  0  0  0
   -0.4368    1.4683   -1.1509 S   0  0  0  0  0  0  0  0  0  0  0  0
   -0.6915   -0.1689   -1.5049 C   0  0  0  0  0  0  0  0  0  0  0  0
   -0.5575   -0.3823   -2.8933 C   0  0  0  0  0  0  0  0  0  0  0  0
   -0.1776   -1.6505   -3.4630 N   0  0  0  0  0  0  0  0  0  0  0  0
   -0.6612   -2.0318   -4.7589 C   0  0  0  0  0  0  0  0  0  0  0  0
   -1.9543   -2.5407   -4.9015 C   0  0  0  0  0  0  0  0  0  0  0  0
   -2.4276   -2.9236   -6.1600 C   0  0  0  0  0  0  0  0  0  0  0  0
   -1.5989   -2.8108   -7.2903 C   0  0  0  0  0  0  0  0  0  0  0  0
   -2.1255   -3.1630   -8.6498 C   0  0  0  0  0  0  0  0  0  0  0  0
   -0.2953   -2.3148   -7.1430 C   0  0  0  0  0  0  0  0  0  0  0  0
    0.1786   -1.9454   -5.8804 C   0  0  0  0  0  0  0  0  0  0  0  0
    0.9318   -2.3754   -2.8975 C   0  0  0  0  0  0  0  0  0  0  0  0
    2.1073   -1.7036   -2.5244 C   0  0  0  0  0  0  0  0  0  0  0  0
    3.1752   -2.4082   -1.9598 C   0  0  0  0  0  0  0  0  0  0  0  0
    3.0800   -3.7945   -1.7630 C   0  0  0  0  0  0  0  0  0  0  0  0
    4.2418   -4.5476   -1.1957 C   0  0  0  0  0  0  0  0  0  0  0  0
    1.9145   -4.4704   -2.1621 C   0  0  0  0  0  0  0  0  0  0  0  0
    0.8483   -3.7662   -2.7253 C   0  0  0  0  0  0  0  0  0  0  0  0
   -0.3782    0.8446   -3.5545 C   0  0  0  0  0  0  0  0  0  0  0  0
    0.1759    1.2675   -5.0779 S   0  0  0  0  0  0  0  0  0  0  0  0
   -0.7697   -1.1561   -0.4258 C   0  0  0  0  0  0  0  0  0  0  0  0
   -1.9229   -1.2654    0.3896 C   0  0  0  0  0  0  0  0  0  0  0  0
   -3.2701   -1.5022   -0.0940 N   0  0  0  0  0  0  0  0  0  0  0  0
   -3.7751   -0.8804   -1.2937 C   0  0  0  0  0  0  0  0  0  0  0  0
   -4.4017   -1.6602   -2.2823 C   0  0  0  0  0  0  0  0  0  0  0  0
   -4.8958   -1.0660   -3.4445 C   0  0  0  0  0  0  0  0  0  0  0  0
   -4.7686    0.3150   -3.6349 C   0  0  0  0  0  0  0  0  0  0  0  0
   -5.3702    1.0673   -5.1474 S   0  0  0  0  0  0  0  0  0  0  0  0
   -3.7994    0.8247   -6.0326 C   0  0  0  0  0  0  0  0  0  0  0  0
   -4.1848    1.1037   -2.6371 C   0  0  0  0  0  0  0  0  0  0  0  0
   -3.7107    0.5124   -1.4614 C   0  0  0  0  0  0  0  0  0  0  0  0
   -4.0828   -2.4951    0.5687 C   0  0  0  0  0  0  0  0  0  0  0  0
   -5.4295   -2.2224    0.8708 C   0  0  0  0  0  0  0  0  0  0  0  0
   -6.1794   -3.1334    1.6239 C   0  0  0  0  0  0  0  0  0  0  0  0
   -5.5923   -4.3151    2.0860 C   0  0  0  0  0  0  0  0  0  0  0  0
   -6.5259   -5.4252    3.1376 S   0  0  0  0  0  0  0  0  0  0  0  0
   -6.0137   -4.6397    4.7067 C   0  0  0  0  0  0  0  0  0  0  0  0
   -4.2693   -4.6153    1.7541 C   0  0  0  0  0  0  0  0  0  0  0  0
   -3.5237   -3.7182    0.9858 C   0  0  0  0  0  0  0  0  0  0  0  0
   -1.5687   -1.4211    1.7329 C   0  0  0  0  0  0  0  0  0  0  0  0
   -2.4220   -1.4779    3.1688 S   0  0  0  0  0  0  0  0  0  0  0  0
   -1.0489   -1.6772    4.1645 C   0  0  0  0  0  0  0  0  0  0  0  0
    0.1023   -1.6987    3.3375 C   0  0  0  0  0  0  0  0  0  0  0  0
    1.4032   -2.1735    3.7204 N   0  0  0  0  0  0  0  0  0  0  0  0
    1.7335   -3.5289    3.3562 C   0  0  0  0  0  0  0  0  0  0  0  0
    2.9009   -3.8038    2.6192 C   0  0  0  0  0  0  0  0  0  0  0  0
    3.1859   -5.1082    2.2088 C   0  0  0  0  0  0  0  0  0  0  0  0
    2.3029   -6.1481    2.5125 C   0  0  0  0  0  0  0  0  0  0  0  0
    2.6455   -7.8068    1.9224 S   0  0  0  0  0  0  0  0  0  0  0  0
    1.6741   -7.6333    0.3878 C   0  0  0  0  0  0  0  0  0  0  0  0
    1.1437   -5.8877    3.2501 C   0  0  0  0  0  0  0  0  0  0  0  0
    0.8612   -4.5835    3.6708 C   0  0  0  0  0  0  0  0  0  0  0  0
    2.4438   -1.2596    4.1350 C   0  0  0  0  0  0  0  0  0  0  0  0
    3.4496   -1.7044    5.0163 C   0  0  0  0  0  0  0  0  0  0  0  0
    4.4635   -0.8393    5.4336 C   0  0  0  0  0  0  0  0  0  0  0  0
    4.5024    0.4731    4.9589 C   0  0  0  0  0  0  0  0  0  0  0  0
    5.8161    1.5788    5.4813 S   0  0  0  0  0  0  0  0  0  0  0  0
    7.0611    0.8454    4.3731 C   0  0  0  0  0  0  0  0  0  0  0  0
    3.5025    0.9322    4.0927 C   0  0  0  0  0  0  0  0  0  0  0  0
    2.4745    0.0735    3.6862 C   0  0  0  0  0  0  0  0  0  0  0  0
   -0.2491   -1.5337    1.9948 C   0  0  0  0  0  0  0  0  0  0  0  0
    0.6050   -1.3727    0.5705 S   0  0  0  0  0  0  0  0  0  0  0  0
   -1.1734   -1.6575    5.6395 C   0  0  0  0  0  0  0  0  0  0  0  0
   -0.0841   -1.5034    6.5081 C   0  0  0  0  0  0  0  0  0  0  0  0
   -0.3096   -1.2035    7.8187 N   0  0  0  0  0  0  0  0  0  0  0  0
   -1.5665   -1.0866    8.3189 C   0  0  0  0  0  0  0  0  0  0  0  0
   -2.6541   -1.3663    7.4787 C   0  0  0  0  0  0  0  0  0  0  0  0
   -2.4297   -1.6182    6.1667 N   0  0  0  0  0  0  0  0  0  0  0  0
   -1.7631   -0.5826    9.6964 C   0  0  0  0  0  0  0  0  0  0  0  0
   -2.5878    0.4578    9.9092 C   0  0  0  0  0  0  0  0  0  0  0  0
   -4.0320    0.2305    9.9991 C   0  0  0  0  0  0  0  0  0  0  0  0
   -4.5736   -0.8087   10.4713 O   0  0  0  0  0  0  0  0  0  0  0  0
   -4.7513    1.3040    9.3461 C   0  0  0  0  0  0  0  0  0  0  0  0
   -6.1484    1.3970    9.1359 C   0  0  0  0  0  0  0  0  0  0  0  0
   -6.5266    2.4694    8.3535 C   0  0  0  0  0  0  0  0  0  0  0  0
   -5.5896    3.4069    7.8104 C   0  0  0  0  0  0  0  0  0  0  0  0
   -4.2254    3.3233    8.0106 C   0  0  0  0  0  0  0  0  0  0  0  0
   -3.8138    2.2237    8.8159 C   0  0  0  0  0  0  0  0  0  0  0  0
   -2.4420    1.7544    9.1713 C   0  0  0  0  0  0  0  0  0  0  0  0
   -1.2651    2.3887    8.9382 C   0  0  0  0  0  0  0  0  0  0  0  0
   -0.0126    1.8599    9.4120 C   0  0  0  0  0  0  0  0  0  0  0  0
    0.9999    1.4459    9.7944 N   0  0  0  0  0  0  0  0  0  0  0  0
   -1.1746    3.6538    8.2569 C   0  0  0  0  0  0  0  0  0  0  0  0
   -1.0759    4.6693    7.7078 N   0  0  0  0  0  0  0  0  0  0  0  0
   -6.6997    4.1392    7.1161 C   0  0  0  0  0  0  0  0  0  0  0  0
   -6.8136    3.9186    5.5785 C   0  0  0  0  0  0  0  0  0  0  0  0
   -8.1858    4.4160    5.1908 C   0  0  0  0  0  0  0  0  0  0  0  0
   -9.0639    3.5439    5.7002 C   0  0  0  0  0  0  0  0  0  0  0  0
   -8.2550    2.4856    6.4132 C   0  0  0  0  0  0  0  0  0  0  0  0
   -7.0682    2.4226    5.4656 C   0  0  0  0  0  0  0  0  0  0  0  0
   -7.6581    3.1811    7.6737 C   0  0  0  0  0  0  0  0  0  0  0  0
    1.4986    4.8019   -5.0171 H   0  0  0  0  0  0  0  0  0  0  0  0
    4.0406    0.0588   -8.0974 H   0  0  0  0  0  0  0  0  0  0  0  0
    6.3859    4.4822   -7.0855 H   0  0  0  0  0  0  0  0  0  0  0  0
    8.4512    2.2421   -8.7977 H   0  0  0  0  0  0  0  0  0  0  0  0
    9.0741    2.3356   -6.0952 H   0  0  0  0  0  0  0  0  0  0  0  0
   10.8620    0.6625   -7.1375 H   0  0  0  0  0  0  0  0  0  0  0  0
    9.6574   -1.5873   -7.6843 H   0  0  0  0  0  0  0  0  0  0  0  0
    7.1006   -1.3530   -6.9982 H   0  0  0  0  0  0  0  0  0  0  0  0
    6.8565    0.9160   -5.5901 H   0  0  0  0  0  0  0  0  0  0  0  0
    8.3229    0.0036   -5.0638 H   0  0  0  0  0  0  0  0  0  0  0  0
    7.3545    0.1723   -9.3099 H   0  0  0  0  0  0  0  0  0  0  0  0
    3.0502    2.0247   -3.3570 H   0  0  0  0  0  0  0  0  0  0  0  0
    4.6097    0.7142   -1.9830 H   0  0  0  0  0  0  0  0  0  0  0  0
    4.3984    0.0091    1.1521 H   0  0  0  0  0  0  0  0  0  0  0  0
    5.8241    0.4423    0.1274 H   0  0  0  0  0  0  0  0  0  0  0  0
    5.4010    1.4644    1.5464 H   0  0  0  0  0  0  0  0  0  0  0  0
    3.3119    2.8551    1.5266 H   0  0  0  0  0  0  0  0  0  0  0  0
    1.7396    4.1542    0.1572 H   0  0  0  0  0  0  0  0  0  0  0  0
   -1.0004    5.3172   -2.7815 H   0  0  0  0  0  0  0  0  0  0  0  0
   -1.1990    7.7608   -2.7065 H   0  0  0  0  0  0  0  0  0  0  0  0
    0.8195    9.9073   -1.2239 H   0  0  0  0  0  0  0  0  0  0  0  0
   -0.1612    9.9521   -2.7406 H   0  0  0  0  0  0  0  0  0  0  0  0
    1.6299   10.0817   -2.8311 H   0  0  0  0  0  0  0  0  0  0  0  0
    3.0436    8.0977   -2.0276 H   0  0  0  0  0  0  0  0  0  0  0  0
    3.2553    5.6591   -2.1186 H   0  0  0  0  0  0  0  0  0  0  0  0
   -2.5861   -2.6592   -4.0330 H   0  0  0  0  0  0  0  0  0  0  0  0
   -3.4364   -3.3062   -6.2535 H   0  0  0  0  0  0  0  0  0  0  0  0
   -2.5613   -2.2550   -9.1227 H   0  0  0  0  0  0  0  0  0  0  0  0
   -2.9078   -3.9436   -8.5828 H   0  0  0  0  0  0  0  0  0  0  0  0
   -1.3163   -3.5441   -9.3044 H   0  0  0  0  0  0  0  0  0  0  0  0
    0.3524   -2.2053   -8.0051 H   0  0  0  0  0  0  0  0  0  0  0  0
    1.1892   -1.5699   -5.7782 H   0  0  0  0  0  0  0  0  0  0  0  0
    2.1974   -0.6364   -2.6755 H   0  0  0  0  0  0  0  0  0  0  0  0
    4.0724   -1.8738   -1.6766 H   0  0  0  0  0  0  0  0  0  0  0  0
    5.0021   -4.7120   -1.9893 H   0  0  0  0  0  0  0  0  0  0  0  0
    3.9227   -5.5368   -0.7968 H   0  0  0  0  0  0  0  0  0  0  0  0
    4.7093   -3.9689   -0.3675 H   0  0  0  0  0  0  0  0  0  0  0  0
    1.8364   -5.5420   -2.0449 H   0  0  0  0  0  0  0  0  0  0  0  0
   -0.0516   -4.2961   -3.0149 H   0  0  0  0  0  0  0  0  0  0  0  0
   -4.4914   -2.7324   -2.1580 H   0  0  0  0  0  0  0  0  0  0  0  0
   -5.3695   -1.6784   -4.2041 H   0  0  0  0  0  0  0  0  0  0  0  0
   -2.9900    1.3872   -5.5240 H   0  0  0  0  0  0  0  0  0  0  0  0
   -3.5472   -0.2558   -6.0665 H   0  0  0  0  0  0  0  0  0  0  0  0
   -3.9070    1.1993   -7.0708 H   0  0  0  0  0  0  0  0  0  0  0  0
   -4.1028    2.1756   -2.7695 H   0  0  0  0  0  0  0  0  0  0  0  0
   -3.2850    1.1348   -0.6858 H   0  0  0  0  0  0  0  0  0  0  0  0
   -5.8839   -1.2929    0.5545 H   0  0  0  0  0  0  0  0  0  0  0  0
   -7.2077   -2.9015    1.8733 H   0  0  0  0  0  0  0  0  0  0  0  0
   -5.3512   -5.3208    5.2770 H   0  0  0  0  0  0  0  0  0  0  0  0
   -6.9183   -4.4442    5.3193 H   0  0  0  0  0  0  0  0  0  0  0  0
   -5.4836   -3.6746    4.5550 H   0  0  0  0  0  0  0  0  0  0  0  0
   -3.8107   -5.5293    2.1050 H   0  0  0  0  0  0  0  0  0  0  0  0
   -2.4908   -3.9538    0.7557 H   0  0  0  0  0  0  0  0  0  0  0  0
    3.5736   -3.0047    2.3380 H   0  0  0  0  0  0  0  0  0  0  0  0
    4.0904   -5.3058    1.6514 H   0  0  0  0  0  0  0  0  0  0  0  0
    2.2345   -8.1023   -0.4478 H   0  0  0  0  0  0  0  0  0  0  0  0
    1.4781   -6.5716    0.1322 H   0  0  0  0  0  0  0  0  0  0  0  0
    0.7086   -8.1647    0.5106 H   0  0  0  0  0  0  0  0  0  0  0  0
    0.4550   -6.6874    3.4887 H   0  0  0  0  0  0  0  0  0  0  0  0
   -0.0436   -4.3920    4.2346 H   0  0  0  0  0  0  0  0  0  0  0  0
    3.4374   -2.7198    5.3893 H   0  0  0  0  0  0  0  0  0  0  0  0
    5.2237   -1.1973    6.1151 H   0  0  0  0  0  0  0  0  0  0  0  0
    7.9436    1.5166    4.3240 H   0  0  0  0  0  0  0  0  0  0  0  0
    7.3800   -0.1387    4.7727 H   0  0  0  0  0  0  0  0  0  0  0  0
    6.6545    0.7102    3.3517 H   0  0  0  0  0  0  0  0  0  0  0  0
    3.5220    1.9535    3.7355 H   0  0  0  0  0  0  0  0  0  0  0  0
    1.7167    0.4463    3.0088 H   0  0  0  0  0  0  0  0  0  0  0  0
    0.9266   -1.5524    6.1628 H   0  0  0  0  0  0  0  0  0  0  0  0
   -3.6706   -1.3365    7.8407 H   0  0  0  0  0  0  0  0  0  0  0  0
   -0.8645   -0.5945   10.2997 H   0  0  0  0  0  0  0  0  0  0  0  0
   -6.8529    0.6605    9.5022 H   0  0  0  0  0  0  0  0  0  0  0  0
   -3.5647    4.0265    7.5335 H   0  0  0  0  0  0  0  0  0  0  0  0
   -6.8340    5.1861    7.4663 H   0  0  0  0  0  0  0  0  0  0  0  0
   -5.9743    4.3183    4.9677 H   0  0  0  0  0  0  0  0  0  0  0  0
   -8.4259    5.2540    4.5431 H   0  0  0  0  0  0  0  0  0  0  0  0
  -10.1367    3.5583    5.5427 H   0  0  0  0  0  0  0  0  0  0  0  0
   -8.7838    1.5270    6.5982 H   0  0  0  0  0  0  0  0  0  0  0  0
   -6.2313    1.7888    5.8238 H   0  0  0  0  0  0  0  0  0  0  0  0
   -7.3402    2.0971    4.4331 H   0  0  0  0  0  0  0  0  0  0  0  0
   -8.3992    3.6206    8.3776 H   0  0  0  0  0  0  0  0  0  0  0  0
  1  2  2  3
  2  3  1  0
  3  4  2  0
  3  5  1  0
  5  6  2  0
  6  7  1  0
  7  8  2  0
  8  9  1  0
  9 10  2  0
 10 11  1  0
 11 12  2  3
 12 13  1  0
 13 14  3  0
 12 15  1  0
 15 16  3  0
  8 17  1  0
 17 18  1  0
 18 19  1  0
 19 20  2  0
 20 21  1  0
 21 22  1  0
 21 23  1  0
  1 24  1  0
 24 25  2  0
 25 26  1  0
 26 27  1  0
 27 28  2  0
 28 29  1  0
 29 30  2  0
 30 31  1  0
 30 32  1  0
 32 33  2  0
 26 34  1  0
 34 35  2  0
 35 36  1  0
 36 37  2  0
 37 38  1  0
 37 39  1  0
 39 40  2  0
 25 41  1  0
 41 42  1  0
 42 43  1  0
 43 44  2  0
 44 45  1  0
 45 46  1  0
 46 47  2  0
 47 48  1  0
 48 49  2  0
 49 50  1  0
 49 51  1  0
 51 52  2  0
 45 53  1  0
 53 54  2  0
 54 55  1  0
 55 56  2  0
 56 57  1  0
 56 58  1  0
 58 59  2  0
 44 60  1  0
 60 61  1  0
 43 62  1  0
 62 63  2  0
 63 64  1  0
 64 65  1  0
 65 66  2  0
 66 67  1  0
 67 68  2  0
 68 69  1  0
 69 70  1  0
 68 71  1  0
 71 72  2  0
 64 73  1  0
 73 74  2  0
 74 75  1  0
 75 76  2  0
 76 77  1  0
 77 78  1  0
 76 79  1  0
 79 80  2  0
 63 81  1  0
 81 82  1  0
 82 83  1  0
 83 84  2  0
 84 85  1  0
 85 86  1  0
 86 87  2  0
 87 88  1  0
 88 89  2  0
 89 90  1  0
 90 91  1  0
 89 92  1  0
 92 93  2  0
 85 94  1  0
 94 95  2  0
 95 96  1  0
 96 97  2  0
 97 98  1  0
 98 99  1  0
 97100  1  0
100101  2  0
 84102  1  0
102103  1  0
 83104  1  0
104105  2  0
105106  1  0
106107  2  0
107108  1  0
108109  2  0
107110  1  0
110111  2  3
111112  1  0
112113  2  0
112114  1  0
114115  2  0
115116  1  0
116117  2  0
117118  1  0
118119  2  0
119120  1  0
120121  2  3
121122  1  0
122123  3  0
121124  1  0
124125  3  0
117126  1  0
126127  1  0
127128  1  0
128129  2  0
129130  1  0
130131  1  0
130132  1  0
 11  2  1  0
 23 17  1  0
 61 24  1  0
103 62  1  0
109104  1  0
120111  1  0
132126  1  0
 10  5  1  0
 22 18  1  0
 33 27  1  0
 40 34  1  0
 60 41  2  0
 72 65  1  0
 80 73  1  0
102 81  2  0
119114  1  0
131127  1  0
 23  7  1  0
 52 46  1  0
 59 53  1  0
 93 86  1  0
101 94  1  0
132116  1  0
  1133  1  0
  6134  1  0
  9135  1  0
 17136  1  0
 18137  1  0
 19138  1  0
 20139  1  0
 21140  1  0
 22141  1  0
 22142  1  0
 23143  1  0
 28144  1  0
 29145  1  0
 31146  1  0
 31147  1  0
 31148  1  0
 32149  1  0
 33150  1  0
 35151  1  0
 36152  1  0
 38153  1  0
 38154  1  0
 38155  1  0
 39156  1  0
 40157  1  0
 47158  1  0
 48159  1  0
 50160  1  0
 50161  1  0
 50162  1  0
 51163  1  0
 52164  1  0
 54165  1  0
 55166  1  0
 57167  1  0
 57168  1  0
 57169  1  0
 58170  1  0
 59171  1  0
 66172  1  0
 67173  1  0
 70174  1  0
 70175  1  0
 70176  1  0
 71177  1  0
 72178  1  0
 74179  1  0
 75180  1  0
 78181  1  0
 78182  1  0
 78183  1  0
 79184  1  0
 80185  1  0
 87186  1  0
 88187  1  0
 91188  1  0
 91189  1  0
 91190  1  0
 92191  1  0
 93192  1  0
 95193  1  0
 96194  1  0
 99195  1  0
 99196  1  0
 99197  1  0
100198  1  0
101199  1  0
105200  1  0
108201  1  0
110202  1  0
115203  1  0
118204  1  0
126205  1  0
127206  1  0
128207  1  0
129208  1  0
130209  1  0
131210  1  0
131211  1  0
132212  1  0
M  END

