
     RDKit          3D

166187  0  0  0  0  0  0  0  0999 V2000
    1.6257   -4.4239   -7.6452 C   0  0  0  0  0  0  0  0  0  0  0  0
    2.7866   -5.1043   -7.7030 C   0  0  0  0  0  0  0  0  0  0  0  0
    2.8244   -6.4965   -8.1583 C   0  0  0  0  0  0  0  0  0  0  0  0
    2.1020   -6.9971   -9.0640 O   0  0  0  0  0  0  0  0  0  0  0  0
    3.7233   -7.2395   -7.2930 C   0  0  0  0  0  0  0  0  0  0  0  0
    3.8445   -8.6440   -7.1860 C   0  0  0  0  0  0  0  0  0  0  0  0
    4.5816   -9.0600   -6.0886 C   0  0  0  0  0  0  0  0  0  0  0  0
    5.1773   -8.1514   -5.1519 C   0  0  0  0  0  0  0  0  0  0  0  0
    5.0747   -6.7779   -5.2586 C   0  0  0  0  0  0  0  0  0  0  0  0
    4.3305   -6.3351   -6.3843 C   0  0  0  0  0  0  0  0  0  0  0  0
    3.9000   -4.9634   -6.7260 C   0  0  0  0  0  0  0  0  0  0  0  0
    4.5972   -3.8217   -6.4860 C   0  0  0  0  0  0  0  0  0  0  0  0
    4.3222   -2.6262   -7.2398 C   0  0  0  0  0  0  0  0  0  0  0  0
    4.1071   -1.6661   -7.8478 N   0  0  0  0  0  0  0  0  0  0  0  0
    5.7827   -3.8027   -5.6752 C   0  0  0  0  0  0  0  0  0  0  0  0
    6.7398   -3.7731   -5.0297 N   0  0  0  0  0  0  0  0  0  0  0  0
    5.6298   -9.2980   -4.2991 C   0  0  0  0  0  0  0  0  0  0  0  0
    4.8093   -9.5367   -2.9960 C   0  0  0  0  0  0  0  0  0  0  0  0
    5.1747  -10.9257   -2.5345 C   0  0  0  0  0  0  0  0  0  0  0  0
    4.6223  -11.7781   -3.4094 C   0  0  0  0  0  0  0  0  0  0  0  0
    3.9042  -10.9278   -4.4321 C   0  0  0  0  0  0  0  0  0  0  0  0
    3.4071   -9.8198   -3.5143 C   0  0  0  0  0  0  0  0  0  0  0  0
    5.0201  -10.2260   -5.2611 C   0  0  0  0  0  0  0  0  0  0  0  0
    1.2163   -3.7912   -6.3771 C   0  0  0  0  0  0  0  0  0  0  0  0
    1.4330   -2.1661   -5.9621 S   0  0  0  0  0  0  0  0  0  0  0  0
    1.0972   -2.3903   -4.3344 C   0  0  0  0  0  0  0  0  0  0  0  0
    1.2223   -1.4605   -3.3007 C   0  0  0  0  0  0  0  0  0  0  0  0
    0.9936   -1.9250   -1.9980 C   0  0  0  0  0  0  0  0  0  0  0  0
    1.0920   -1.1635   -0.8350 C   0  0  0  0  0  0  0  0  0  0  0  0
    0.7739   -1.8942    0.3162 C   0  0  0  0  0  0  0  0  0  0  0  0
    0.3679   -3.4818   -0.1183 S   0  0  0  0  0  0  0  0  0  0  0  0
    0.6206   -3.2521   -1.7634 C   0  0  0  0  0  0  0  0  0  0  0  0
    0.5159   -4.1879   -2.7948 C   0  0  0  0  0  0  0  0  0  0  0  0
    0.7784   -3.7290   -4.0968 C   0  0  0  0  0  0  0  0  0  0  0  0
    0.8410   -4.5220   -5.2435 C   0  0  0  0  0  0  0  0  0  0  0  0
    0.6162   -1.2756    1.6430 C   0  0  0  0  0  0  0  0  0  0  0  0
   -0.4121   -1.5588    2.5562 C   0  0  0  0  0  0  0  0  0  0  0  0
   -0.8885   -2.8876    2.8208 N   0  0  0  0  0  0  0  0  0  0  0  0
   -0.1212   -3.6746    3.7579 C   0  0  0  0  0  0  0  0  0  0  0  0
    1.2462   -3.9133    3.5318 C   0  0  0  0  0  0  0  0  0  0  0  0
    1.9882   -4.6975    4.4234 C   0  0  0  0  0  0  0  0  0  0  0  0
    1.3706   -5.2555    5.5523 C   0  0  0  0  0  0  0  0  0  0  0  0
    2.3023   -6.3370    6.6404 S   0  0  0  0  0  0  0  0  0  0  0  0
    2.7062   -5.0312    7.8332 C   0  0  0  0  0  0  0  0  0  0  0  0
    0.0126   -4.9993    5.8023 C   0  0  0  0  0  0  0  0  0  0  0  0
   -0.7250   -4.2059    4.9204 C   0  0  0  0  0  0  0  0  0  0  0  0
   -2.1798   -3.3447    2.3470 C   0  0  0  0  0  0  0  0  0  0  0  0
   -2.4949   -4.7189    2.3589 C   0  0  0  0  0  0  0  0  0  0  0  0
   -3.7687   -5.1680    2.0060 C   0  0  0  0  0  0  0  0  0  0  0  0
   -4.7571   -4.2506    1.6313 C   0  0  0  0  0  0  0  0  0  0  0  0
   -6.4073   -4.8344    1.2468 S   0  0  0  0  0  0  0  0  0  0  0  0
   -6.9856   -4.6859    2.9653 C   0  0  0  0  0  0  0  0  0  0  0  0
   -4.4421   -2.8918    1.5468 C   0  0  0  0  0  0  0  0  0  0  0  0
   -3.1577   -2.4399    1.8831 C   0  0  0  0  0  0  0  0  0  0  0  0
   -0.5916   -0.5076    3.4619 C   0  0  0  0  0  0  0  0  0  0  0  0
   -1.9966    0.0840    4.1666 S   0  0  0  0  0  0  0  0  0  0  0  0
   -1.4507    1.6987    4.3308 C   0  0  0  0  0  0  0  0  0  0  0  0
   -0.1477    1.7522    3.8237 C   0  0  0  0  0  0  0  0  0  0  0  0
    0.6717    2.9306    3.7602 N   0  0  0  0  0  0  0  0  0  0  0  0
    0.5878    3.8345    2.6334 C   0  0  0  0  0  0  0  0  0  0  0  0
    1.2371    5.0845    2.6904 C   0  0  0  0  0  0  0  0  0  0  0  0
    1.4325    5.8324    1.5292 C   0  0  0  0  0  0  0  0  0  0  0  0
    0.9843    5.3420    0.3015 C   0  0  0  0  0  0  0  0  0  0  0  0
    1.4727    6.1556   -1.2198 S   0  0  0  0  0  0  0  0  0  0  0  0
    3.0592    5.2690   -1.3082 C   0  0  0  0  0  0  0  0  0  0  0  0
    0.2051    4.1803    0.2539 C   0  0  0  0  0  0  0  0  0  0  0  0
    0.0081    3.4305    1.4129 C   0  0  0  0  0  0  0  0  0  0  0  0
    1.8802    2.8527    4.5457 C   0  0  0  0  0  0  0  0  0  0  0  0
    1.8039    2.5437    5.9189 C   0  0  0  0  0  0  0  0  0  0  0  0
    2.9609    2.2883    6.6556 C   0  0  0  0  0  0  0  0  0  0  0  0
    4.2136    2.3083    6.0342 C   0  0  0  0  0  0  0  0  0  0  0  0
    5.6860    1.8913    6.9645 S   0  0  0  0  0  0  0  0  0  0  0  0
    5.4968    0.0965    6.6983 C   0  0  0  0  0  0  0  0  0  0  0  0
    4.3070    2.6261    4.6709 C   0  0  0  0  0  0  0  0  0  0  0  0
    3.1475    2.8897    3.9304 C   0  0  0  0  0  0  0  0  0  0  0  0
    0.2704    0.5294    3.3124 C   0  0  0  0  0  0  0  0  0  0  0  0
    1.2919    0.2343    2.0230 S   0  0  0  0  0  0  0  0  0  0  0  0
   -2.3496    2.8637    4.2945 C   0  0  0  0  0  0  0  0  0  0  0  0
   -3.1947    3.0497    3.1844 C   0  0  0  0  0  0  0  0  0  0  0  0
   -3.9013    4.2606    2.9960 C   0  0  0  0  0  0  0  0  0  0  0  0
   -4.6624    4.3264    1.7839 N   0  0  0  0  0  0  0  0  0  0  0  0
   -4.3182    2.9089    1.1446 S   0  0  0  0  0  4  0  0  0  0  0  0
   -3.3328    2.1091    2.1140 N   0  0  0  0  0  0  0  0  0  0  0  0
   -3.7808    5.3277    3.8951 C   0  0  0  0  0  0  0  0  0  0  0  0
   -2.9765    5.1386    5.0310 C   0  0  0  0  0  0  0  0  0  0  0  0
   -2.7785    6.1086    5.9614 N   0  0  0  0  0  0  0  0  0  0  0  0
   -1.7240    5.3432    6.9766 S   0  0  0  0  0  0  0  0  0  0  0  0
   -1.4687    3.8431    6.3293 N   0  0  0  0  0  0  0  0  0  0  0  0
   -2.2609    3.9088    5.2295 C   0  0  0  0  0  0  0  0  0  0  0  0
   -4.3897    6.6297    3.5727 C   0  0  0  0  0  0  0  0  0  0  0  0
   -3.9476    7.3825    2.5431 C   0  0  0  0  0  0  0  0  0  0  0  0
   -2.7698    7.0598    1.7260 C   0  0  0  0  0  0  0  0  0  0  0  0
   -1.8421    6.2643    2.0391 O   0  0  0  0  0  0  0  0  0  0  0  0
   -2.8115    7.8323    0.5129 C   0  0  0  0  0  0  0  0  0  0  0  0
   -1.9340    7.7200   -0.5852 C   0  0  0  0  0  0  0  0  0  0  0  0
   -2.2541    8.5369   -1.6491 C   0  0  0  0  0  0  0  0  0  0  0  0
   -3.3900    9.4080   -1.6509 C   0  0  0  0  0  0  0  0  0  0  0  0
   -4.2700    9.5104   -0.5804 C   0  0  0  0  0  0  0  0  0  0  0  0
   -3.9339    8.7011    0.5468 C   0  0  0  0  0  0  0  0  0  0  0  0
   -4.6403    8.5329    1.8595 C   0  0  0  0  0  0  0  0  0  0  0  0
   -5.5926    9.3511    2.3792 C   0  0  0  0  0  0  0  0  0  0  0  0
   -6.1337    9.1851    3.7027 C   0  0  0  0  0  0  0  0  0  0  0  0
   -6.5785    9.0654    4.7630 N   0  0  0  0  0  0  0  0  0  0  0  0
   -6.0590   10.5228    1.6948 C   0  0  0  0  0  0  0  0  0  0  0  0
   -6.4443   11.4816    1.1718 N   0  0  0  0  0  0  0  0  0  0  0  0
   -3.0521    9.8651   -3.0402 C   0  0  0  0  0  0  0  0  0  0  0  0
   -2.4270   11.2800   -3.2146 C   0  0  0  0  0  0  0  0  0  0  0  0
   -1.6231   11.6470   -1.9862 C   0  0  0  0  0  0  0  0  0  0  0  0
   -0.5621   10.8394   -1.9759 C   0  0  0  0  0  0  0  0  0  0  0  0
   -0.6775    9.9515   -3.1928 C   0  0  0  0  0  0  0  0  0  0  0  0
   -1.2846   10.9510   -4.1590 C   0  0  0  0  0  0  0  0  0  0  0  0
   -1.8848    8.9742   -3.0303 C   0  0  0  0  0  0  0  0  0  0  0  0
    0.8156   -4.7498   -8.2791 H   0  0  0  0  0  0  0  0  0  0  0  0
    3.3313   -9.3429   -7.8360 H   0  0  0  0  0  0  0  0  0  0  0  0
    5.4576   -6.1189   -4.4927 H   0  0  0  0  0  0  0  0  0  0  0  0
    6.7395   -9.3749   -4.2043 H   0  0  0  0  0  0  0  0  0  0  0  0
    4.8871   -8.7468   -2.2251 H   0  0  0  0  0  0  0  0  0  0  0  0
    5.6988  -11.1955   -1.6240 H   0  0  0  0  0  0  0  0  0  0  0  0
    4.6247  -12.8621   -3.3317 H   0  0  0  0  0  0  0  0  0  0  0  0
    3.1269  -11.4544   -5.0193 H   0  0  0  0  0  0  0  0  0  0  0  0
    2.7012  -10.1740   -2.7245 H   0  0  0  0  0  0  0  0  0  0  0  0
    2.9270   -8.9716   -4.0471 H   0  0  0  0  0  0  0  0  0  0  0  0
    5.7431  -10.8966   -5.7765 H   0  0  0  0  0  0  0  0  0  0  0  0
    1.5209   -0.4376   -3.4935 H   0  0  0  0  0  0  0  0  0  0  0  0
    1.3364   -0.1078   -0.8405 H   0  0  0  0  0  0  0  0  0  0  0  0
    0.2497   -5.2173   -2.5975 H   0  0  0  0  0  0  0  0  0  0  0  0
    0.7079   -5.6007   -5.2385 H   0  0  0  0  0  0  0  0  0  0  0  0
    1.7419   -3.5212    2.6492 H   0  0  0  0  0  0  0  0  0  0  0  0
    3.0395   -4.8782    4.2200 H   0  0  0  0  0  0  0  0  0  0  0  0
    3.3430   -5.4617    8.6370 H   0  0  0  0  0  0  0  0  0  0  0  0
    1.7834   -4.6076    8.2830 H   0  0  0  0  0  0  0  0  0  0  0  0
    3.2756   -4.2187    7.3353 H   0  0  0  0  0  0  0  0  0  0  0  0
   -0.4670   -5.4241    6.6780 H   0  0  0  0  0  0  0  0  0  0  0  0
   -1.7717   -4.0097    5.1227 H   0  0  0  0  0  0  0  0  0  0  0  0
   -1.7569   -5.4523    2.6578 H   0  0  0  0  0  0  0  0  0  0  0  0
   -3.9928   -6.2230    2.0620 H   0  0  0  0  0  0  0  0  0  0  0  0
   -8.0498   -4.9873    3.0137 H   0  0  0  0  0  0  0  0  0  0  0  0
   -6.8935   -3.6345    3.3074 H   0  0  0  0  0  0  0  0  0  0  0  0
   -6.3921   -5.3474    3.6299 H   0  0  0  0  0  0  0  0  0  0  0  0
   -5.1957   -2.1758    1.2413 H   0  0  0  0  0  0  0  0  0  0  0  0
   -2.9554   -1.3793    1.8145 H   0  0  0  0  0  0  0  0  0  0  0  0
    1.6436    5.4476    3.6252 H   0  0  0  0  0  0  0  0  0  0  0  0
    2.0046    6.7524    1.5770 H   0  0  0  0  0  0  0  0  0  0  0  0
    3.5858    5.5456   -2.2448 H   0  0  0  0  0  0  0  0  0  0  0  0
    2.8844    4.1721   -1.3018 H   0  0  0  0  0  0  0  0  0  0  0  0
    3.6936    5.5513   -0.4429 H   0  0  0  0  0  0  0  0  0  0  0  0
   -0.1800    3.8154   -0.6907 H   0  0  0  0  0  0  0  0  0  0  0  0
   -0.5423    2.5049    1.3389 H   0  0  0  0  0  0  0  0  0  0  0  0
    0.8434    2.4618    6.4062 H   0  0  0  0  0  0  0  0  0  0  0  0
    2.8789    2.0348    7.7040 H   0  0  0  0  0  0  0  0  0  0  0  0
    4.4864   -0.2440    7.0132 H   0  0  0  0  0  0  0  0  0  0  0  0
    5.6575   -0.1500    5.6297 H   0  0  0  0  0  0  0  0  0  0  0  0
    6.2510   -0.4438    7.3054 H   0  0  0  0  0  0  0  0  0  0  0  0
    5.2703    2.6338    4.1740 H   0  0  0  0  0  0  0  0  0  0  0  0
    3.2376    3.0672    2.8615 H   0  0  0  0  0  0  0  0  0  0  0  0
   -5.2964    6.8671    4.0979 H   0  0  0  0  0  0  0  0  0  0  0  0
   -1.0945    7.0464   -0.5975 H   0  0  0  0  0  0  0  0  0  0  0  0
   -5.1387   10.1412   -0.6496 H   0  0  0  0  0  0  0  0  0  0  0  0
   -3.8145    9.5900   -3.8063 H   0  0  0  0  0  0  0  0  0  0  0  0
   -3.1256   12.0670   -3.5674 H   0  0  0  0  0  0  0  0  0  0  0  0
   -1.8266   12.4505   -1.2902 H   0  0  0  0  0  0  0  0  0  0  0  0
    0.2512   10.8686   -1.2579 H   0  0  0  0  0  0  0  0  0  0  0  0
    0.2719    9.4828   -3.5237 H   0  0  0  0  0  0  0  0  0  0  0  0
   -0.6170   11.8242   -4.3833 H   0  0  0  0  0  0  0  0  0  0  0  0
   -1.6215   10.4912   -5.1173 H   0  0  0  0  0  0  0  0  0  0  0  0
   -1.9312    8.1677   -3.7916 H   0  0  0  0  0  0  0  0  0  0  0  0
  1  2  2  3
  2  3  1  0
  3  4  2  0
  3  5  1  0
  5  6  2  0
  6  7  1  0
  7  8  2  0
  8  9  1  0
  9 10  2  0
 10 11  1  0
 11 12  2  3
 12 13  1  0
 13 14  3  0
 12 15  1  0
 15 16  3  0
  8 17  1  0
 17 18  1  0
 18 19  1  0
 19 20  2  0
 20 21  1  0
 21 22  1  0
 21 23  1  0
  1 24  1  0
 24 25  1  0
 25 26  1  0
 26 27  2  0
 27 28  1  0
 28 29  1  0
 29 30  2  0
 30 31  1  0
 31 32  1  0
 32 33  1  0
 33 34  2  0
 34 35  1  0
 30 36  1  0
 36 37  2  0
 37 38  1  0
 38 39  1  0
 39 40  2  0
 40 41  1  0
 41 42  2  0
 42 43  1  0
 43 44  1  0
 42 45  1  0
 45 46  2  0
 38 47  1  0
 47 48  2  0
 48 49  1  0
 49 50  2  0
 50 51  1  0
 51 52  1  0
 50 53  1  0
 53 54  2  0
 37 55  1  0
 55 56  1  0
 56 57  1  0
 57 58  2  0
 58 59  1  0
 59 60  1  0
 60 61  2  0
 61 62  1  0
 62 63  2  0
 63 64  1  0
 64 65  1  0
 63 66  1  0
 66 67  2  0
 59 68  1  0
 68 69  2  0
 69 70  1  0
 70 71  2  0
 71 72  1  0
 72 73  1  0
 71 74  1  0
 74 75  2  0
 58 76  1  0
 76 77  1  0
 57 78  1  0
 78 79  2  0
 79 80  1  0
 80 81  1  0
 81 82  2  0
 82 83  2  0
 80 84  2  0
 84 85  1  0
 85 86  2  0
 86 87  1  0
 87 88  1  0
 88 89  2  0
 84 90  1  0
 90 91  2  3
 91 92  1  0
 92 93  2  0
 92 94  1  0
 94 95  2  0
 95 96  1  0
 96 97  2  0
 97 98  1  0
 98 99  2  0
 99100  1  0
100101  2  3
101102  1  0
102103  3  0
101104  1  0
104105  3  0
 97106  1  0
106107  1  0
107108  1  0
108109  2  0
109110  1  0
110111  1  0
110112  1  0
 11  2  1  0
 23 17  1  0
 35 24  2  0
 77 36  1  0
 89 78  1  0
100 91  1  0
112106  1  0
 10  5  1  0
 22 18  1  0
 34 26  1  0
 46 39  1  0
 54 47  1  0
 76 55  2  0
 83 79  1  0
 89 85  1  0
 99 94  1  0
111107  1  0
 23  7  1  0
 32 28  2  0
 67 60  1  0
 75 68  1  0
112 96  1  0
  1113  1  0
  6114  1  0
  9115  1  0
 17116  1  0
 18117  1  0
 19118  1  0
 20119  1  0
 21120  1  0
 22121  1  0
 22122  1  0
 23123  1  0
 27124  1  0
 29125  1  0
 33126  1  0
 35127  1  0
 40128  1  0
 41129  1  0
 44130  1  0
 44131  1  0
 44132  1  0
 45133  1  0
 46134  1  0
 48135  1  0
 49136  1  0
 52137  1  0
 52138  1  0
 52139  1  0
 53140  1  0
 54141  1  0
 61142  1  0
 62143  1  0
 65144  1  0
 65145  1  0
 65146  1  0
 66147  1  0
 67148  1  0
 69149  1  0
 70150  1  0
 73151  1  0
 73152  1  0
 73153  1  0
 74154  1  0
 75155  1  0
 90156  1  0
 95157  1  0
 98158  1  0
106159  1  0
107160  1  0
108161  1  0
109162  1  0
110163  1  0
111164  1  0
111165  1  0
112166  1  0
M  END

