
     RDKit          3D

193213  0  0  0  0  0  0  0  0999 V2000
   -6.7865   -3.2493   -3.1716 C   0  0  0  0  0  0  0  0  0  0  0  0
   -6.9639   -3.2090   -4.2294 C   0  0  0  0  0  0  0  0  0  0  0  0
   -5.9026   -3.4065   -5.3712 C   0  0  0  0  0  0  0  0  0  0  0  0
   -4.7816   -3.8050   -5.0570 O   0  0  0  0  0  0  0  0  0  0  0  0
   -6.5109   -3.0457   -6.5952 C   0  0  0  0  0  0  0  0  0  0  0  0
   -5.9995   -3.0804   -7.9968 C   0  0  0  0  0  0  0  0  0  0  0  0
   -6.9390   -2.6776   -8.8492 C   0  0  0  0  0  0  0  0  0  0  0  0
   -8.1381   -2.2905   -8.7833 C   0  0  0  0  0  0  0  0  0  0  0  0
   -8.6481   -2.2626   -7.4498 C   0  0  0  0  0  0  0  0  0  0  0  0
   -7.8140   -2.6363   -6.4198 C   0  0  0  0  0  0  0  0  0  0  0  0
   -8.1777   -2.7156   -4.9815 C   0  0  0  0  0  0  0  0  0  0  0  0
   -9.3961   -2.6452   -4.5159 C   0  0  0  0  0  0  0  0  0  0  0  0
  -10.5658   -2.1468   -5.1255 C   0  0  0  0  0  0  0  0  0  0  0  0
  -11.5308   -1.7221   -5.6182 N   0  0  0  0  0  0  0  0  0  0  0  0
   -9.6906   -3.4326   -3.2869 C   0  0  0  0  0  0  0  0  0  0  0  0
   -9.9484   -4.0663   -2.3019 N   0  0  0  0  0  0  0  0  0  0  0  0
   -8.4577   -2.0160  -10.1727 C   0  0  0  0  0  0  0  0  0  0  0  0
   -8.3207   -0.5803  -10.6083 C   0  0  0  0  0  0  0  0  0  0  0  0
   -7.3314    0.0340   -9.7069 C   0  0  0  0  0  0  0  0  0  0  0  0
   -6.1276   -0.3646  -10.0794 C   0  0  0  0  0  0  0  0  0  0  0  0
   -6.3213   -1.4969  -11.0459 C   0  0  0  0  0  0  0  0  0  0  0  0
   -7.4572   -0.8176  -11.8639 C   0  0  0  0  0  0  0  0  0  0  0  0
   -7.0520   -2.5884  -10.4285 C   0  0  0  0  0  0  0  0  0  0  0  0
   -5.8485   -3.3955   -1.9466 C   0  0  0  0  0  0  0  0  0  0  0  0
   -5.1088   -3.5062   -0.9886 C   0  0  0  0  0  0  0  0  0  0  0  0
   -4.0036   -3.1291   -0.4478 C   0  0  0  0  0  0  0  0  0  0  0  0
   -3.2811   -2.1890   -1.2633 C   0  0  0  0  0  0  0  0  0  0  0  0
   -4.3589   -1.9982   -2.7654 Se  0  0  0  0  0  2  0  0  0  0  0  0
   -2.2998   -1.2342   -0.9574 C   0  0  0  0  0  0  0  0  0  0  0  0
   -0.7224   -1.0513   -1.3580 C   0  0  0  0  0  0  0  0  0  0  0  0
   -0.6183   -2.3037   -1.7561 N   0  0  0  0  0  0  0  0  0  0  0  0
    0.3752   -1.7521   -3.1177 C   0  0  0  0  0  0  0  0  0  0  0  0
    1.5380   -1.3360   -2.7420 C   0  0  0  0  0  0  0  0  0  0  0  0
    2.3946   -0.9952   -3.8804 C   0  0  0  0  0  0  0  0  0  0  0  0
    1.8397   -1.1612   -5.1413 C   0  0  0  0  0  0  0  0  0  0  0  0
    2.9885   -0.9260   -6.5560 S   0  0  0  0  0  0  0  0  0  0  0  0
    4.5907   -1.5808   -6.0384 C   0  0  0  0  0  0  0  0  0  0  0  0
    0.6254   -1.5876   -5.3680 C   0  0  0  0  0  0  0  0  0  0  0  0
   -0.2898   -1.9655   -4.2402 C   0  0  0  0  0  0  0  0  0  0  0  0
   -0.3287   -3.5002   -2.2214 C   0  0  0  0  0  0  0  0  0  0  0  0
    1.0692   -3.9379   -1.7106 C   0  0  0  0  0  0  0  0  0  0  0  0
    1.5257   -5.1662   -2.1520 C   0  0  0  0  0  0  0  0  0  0  0  0
    0.9123   -6.0308   -2.9541 C   0  0  0  0  0  0  0  0  0  0  0  0
    1.3926   -7.6121   -3.4731 S   0  0  0  0  0  0  0  0  0  0  0  0
    0.9644   -8.8482   -2.1639 C   0  0  0  0  0  0  0  0  0  0  0  0
   -0.5387   -5.5485   -3.4657 C   0  0  0  0  0  0  0  0  0  0  0  0
   -0.6752   -4.5009   -2.9725 C   0  0  0  0  0  0  0  0  0  0  0  0
   -0.8288    0.1523   -0.9737 C   0  0  0  0  0  0  0  0  0  0  0  0
    0.9968    0.5000    0.0216 S   0  0  0  0  0  0  0  0  0  0  0  0
    0.5580    2.1562    0.5195 C   0  0  0  0  0  0  0  0  0  0  0  0
   -0.6123    2.2326   -0.0354 C   0  0  0  0  0  0  0  0  0  0  0  0
   -1.2049    3.5560   -0.2855 N   0  0  0  0  0  0  0  0  0  0  0  0
   -0.6272    4.3020   -1.4283 C   0  0  0  0  0  0  0  0  0  0  0  0
    0.8050    4.4724   -1.4858 C   0  0  0  0  0  0  0  0  0  0  0  0
    1.1251    5.1154   -2.7453 C   0  0  0  0  0  0  0  0  0  0  0  0
    0.4799    5.4590   -3.6087 C   0  0  0  0  0  0  0  0  0  0  0  0
    1.0632    6.0413   -5.2479 S   0  0  0  0  0  0  0  0  0  0  0  0
    2.8430    5.6233   -5.2944 C   0  0  0  0  0  0  0  0  0  0  0  0
   -1.0803    5.3362   -3.6746 C   0  0  0  0  0  0  0  0  0  0  0  0
   -1.3338    4.7091   -2.4217 C   0  0  0  0  0  0  0  0  0  0  0  0
   -2.3133    4.1870    0.2229 C   0  0  0  0  0  0  0  0  0  0  0  0
   -2.5595    5.3002    0.6601 C   0  0  0  0  0  0  0  0  0  0  0  0
   -3.7855    5.9000    1.0405 C   0  0  0  0  0  0  0  0  0  0  0  0
   -4.8605    5.1413    0.9107 C   0  0  0  0  0  0  0  0  0  0  0  0
   -6.5521    5.6230    1.2776 S   0  0  0  0  0  0  0  0  0  0  0  0
   -7.3552    6.2398   -0.2097 C   0  0  0  0  0  0  0  0  0  0  0  0
   -4.7367    3.8181    0.4190 C   0  0  0  0  0  0  0  0  0  0  0  0
   -3.5939    3.2145    0.0519 C   0  0  0  0  0  0  0  0  0  0  0  0
   -0.9917    1.1794   -0.6271 C   0  0  0  0  0  0  0  0  0  0  0  0
   -2.7550    0.3270   -0.3993 S   0  0  0  0  0  0  0  0  0  0  0  0
    1.4765    2.8497    1.4534 C   0  0  0  0  0  0  0  0  0  0  0  0
    1.5560    4.0279    1.9188 C   0  0  0  0  0  0  0  0  0  0  0  0
    0.5824    4.9798    1.5545 F   0  0  0  0  0  0  0  0  0  0  0  0
    2.5167    4.5067    2.7811 C   0  0  0  0  0  0  0  0  0  0  0  0
    2.4645    5.7505    3.2361 F   0  0  0  0  0  0  0  0  0  0  0  0
    3.5207    3.6372    3.2019 C   0  0  0  0  0  0  0  0  0  0  0  0
    3.5694    2.2765    2.7467 C   0  0  0  0  0  0  0  0  0  0  0  0
    4.3936    1.3466    3.2197 N   0  0  0  0  0  0  0  0  0  0  0  0
    4.1783   -0.0378    2.9058 C   0  0  0  0  0  0  0  0  0  0  0  0
    5.3152   -0.8957    3.1914 C   0  0  0  0  0  0  0  0  0  0  0  0
    6.0052   -1.5322    2.1088 C   0  0  0  0  0  0  0  0  0  0  0  0
    7.2434   -2.0934    2.2510 C   0  0  0  0  0  0  0  0  0  0  0  0
    7.8734   -2.0184    3.5717 C   0  0  0  0  0  0  0  0  0  0  0  0
    7.1967   -1.4283    4.4915 C   0  0  0  0  0  0  0  0  0  0  0  0
    7.8341   -1.2910    5.7805 O   0  0  0  0  0  0  0  0  0  0  0  0
    9.1832   -1.7088    5.8370 C   0  0  0  0  0  0  0  0  0  0  0  0
   10.0271   -0.7970    4.9224 C   0  0  0  0  0  0  0  0  0  0  0  0
    5.9300   -0.8483    4.4295 C   0  0  0  0  0  0  0  0  0  0  0  0
    3.1238   -0.3292    2.1700 C   0  0  0  0  0  0  0  0  0  0  0  0
    2.3588    0.7275    1.7002 N   0  0  0  0  0  0  0  0  0  0  0  0
    2.5274    1.9663    1.9118 C   0  0  0  0  0  0  0  0  0  0  0  0
    2.3178   -1.5596    2.1711 C   0  0  0  0  0  0  0  0  0  0  0  0
    2.3226   -2.6980    1.6023 C   0  0  0  0  0  0  0  0  0  0  0  0
    1.3058   -3.6562    1.6731 C   0  0  0  0  0  0  0  0  0  0  0  0
    0.2081   -3.4315    2.3733 C   0  0  0  0  0  0  0  0  0  0  0  0
    0.0251   -2.1287    3.1255 C   0  0  0  0  0  0  0  0  0  0  0  0
   -1.0456   -1.9089    3.8048 O   0  0  0  0  0  0  0  0  0  0  0  0
   -1.8415   -1.1899    4.5785 C   0  0  0  0  0  0  0  0  0  0  0  0
   -3.1828   -1.8784    4.8540 C   0  0  0  0  0  0  0  0  0  0  0  0
    1.0930   -1.3644    2.9343 C   0  0  0  0  0  0  0  0  0  0  0  0
    4.4549    4.0356    4.2853 C   0  0  0  0  0  0  0  0  0  0  0  0
    4.2213    3.2696    5.4205 C   0  0  0  0  0  0  0  0  0  0  0  0
    3.2105    2.2848    5.6271 C   0  0  0  0  0  0  0  0  0  0  0  0
    2.2756    1.8575    4.9603 O   0  0  0  0  0  0  0  0  0  0  0  0
    3.4484    1.7354    7.0286 C   0  0  0  0  0  0  0  0  0  0  0  0
    2.6675    0.7574    7.6390 C   0  0  0  0  0  0  0  0  0  0  0  0
    3.1550    0.4757    8.9906 C   0  0  0  0  0  0  0  0  0  0  0  0
    4.0621    1.0435    9.3792 C   0  0  0  0  0  0  0  0  0  0  0  0
    4.9883    2.0485    8.9730 C   0  0  0  0  0  0  0  0  0  0  0  0
    4.5089    2.3575    7.5807 C   0  0  0  0  0  0  0  0  0  0  0  0
    5.0656    3.3352    6.6551 C   0  0  0  0  0  0  0  0  0  0  0  0
    6.1001    4.0638    6.7838 C   0  0  0  0  0  0  0  0  0  0  0  0
    6.7629    4.9619    5.9241 C   0  0  0  0  0  0  0  0  0  0  0  0
    7.3500    5.7352    5.1776 N   0  0  0  0  0  0  0  0  0  0  0  0
    6.8382    4.0425    8.1386 C   0  0  0  0  0  0  0  0  0  0  0  0
    7.4253    4.0317    9.1852 N   0  0  0  0  0  0  0  0  0  0  0  0
    4.1493    0.2429   10.7553 C   0  0  0  0  0  0  0  0  0  0  0  0
    3.7668    1.0907   11.8753 C   0  0  0  0  0  0  0  0  0  0  0  0
    3.1501    0.2720   12.9437 C   0  0  0  0  0  0  0  0  0  0  0  0
    1.9553   -0.1722   12.4561 C   0  0  0  0  0  0  0  0  0  0  0  0
    1.8082    0.3370   11.0988 C   0  0  0  0  0  0  0  0  0  0  0  0
    2.4746    1.7145   11.2819 C   0  0  0  0  0  0  0  0  0  0  0  0
    2.8100   -0.3215   10.1965 C   0  0  0  0  0  0  0  0  0  0  0  0
   -7.7411   -2.8372   -2.4449 H   0  0  0  0  0  0  0  0  0  0  0  0
   -5.0095   -3.4190   -8.0699 H   0  0  0  0  0  0  0  0  0  0  0  0
   -9.6343   -1.9469   -7.2733 H   0  0  0  0  0  0  0  0  0  0  0  0
   -9.2891   -2.5741  -10.6157 H   0  0  0  0  0  0  0  0  0  0  0  0
   -9.2129   -0.0170  -10.8320 H   0  0  0  0  0  0  0  0  0  0  0  0
   -7.5406    0.7283   -8.8782 H   0  0  0  0  0  0  0  0  0  0  0  0
   -5.1954    0.0528   -9.7321 H   0  0  0  0  0  0  0  0  0  0  0  0
   -5.4767   -1.7122  -11.6569 H   0  0  0  0  0  0  0  0  0  0  0  0
   -7.9150   -1.5056  -12.5742 H   0  0  0  0  0  0  0  0  0  0  0  0
   -7.1106    0.1260  -12.2746 H   0  0  0  0  0  0  0  0  0  0  0  0
   -7.0826   -3.5953  -10.8454 H   0  0  0  0  0  0  0  0  0  0  0  0
   -5.6889   -4.3638   -0.2469 H   0  0  0  0  0  0  0  0  0  0  0  0
   -3.5444   -3.3928    0.4851 H   0  0  0  0  0  0  0  0  0  0  0  0
    2.0233   -1.2231   -1.8197 H   0  0  0  0  0  0  0  0  0  0  0  0
    3.3598   -0.6823   -3.6982 H   0  0  0  0  0  0  0  0  0  0  0  0
    4.3871   -2.5437   -5.4939 H   0  0  0  0  0  0  0  0  0  0  0  0
    5.2758   -1.7876   -6.9105 H   0  0  0  0  0  0  0  0  0  0  0  0
    5.0532   -0.8668   -5.3421 H   0  0  0  0  0  0  0  0  0  0  0  0
    0.1606   -1.6833   -6.3247 H   0  0  0  0  0  0  0  0  0  0  0  0
   -1.2282   -2.2947   -4.4508 H   0  0  0  0  0  0  0  0  0  0  0  0
    1.5789   -3.2986   -1.0895 H   0  0  0  0  0  0  0  0  0  0  0  0
    2.5634   -5.4605   -1.7832 H   0  0  0  0  0  0  0  0  0  0  0  0
    1.6097   -8.5503   -1.2680 H   0  0  0  0  0  0  0  0  0  0  0  0
    1.1681   -9.8649   -2.4720 H   0  0  0  0  0  0  0  0  0  0  0  0
   -0.0817   -8.7094   -1.8631 H   0  0  0  0  0  0  0  0  0  0  0  0
   -0.9125   -6.3091   -4.0818 H   0  0  0  0  0  0  0  0  0  0  0  0
   -1.8993   -4.1151   -3.2641 H   0  0  0  0  0  0  0  0  0  0  0  0
    1.4542    4.2068   -0.7987 H   0  0  0  0  0  0  0  0  0  0  0  0
    2.3056    5.2574   -2.6511 H   0  0  0  0  0  0  0  0  0  0  0  0
    3.2120    5.8072   -6.3184 H   0  0  0  0  0  0  0  0  0  0  0  0
    3.0033    4.5228   -5.1175 H   0  0  0  0  0  0  0  0  0  0  0  0
    3.4143    6.2306   -4.5803 H   0  0  0  0  0  0  0  0  0  0  0  0
   -1.5767    5.6342   -4.4056 H   0  0  0  0  0  0  0  0  0  0  0  0
   -2.4650    4.5112   -2.3244 H   0  0  0  0  0  0  0  0  0  0  0  0
   -1.6923    6.0619    0.8117 H   0  0  0  0  0  0  0  0  0  0  0  0
   -3.8406    6.9014    1.4239 H   0  0  0  0  0  0  0  0  0  0  0  0
   -7.7688    5.3813   -0.7923 H   0  0  0  0  0  0  0  0  0  0  0  0
   -8.2216    6.8903    0.1403 H   0  0  0  0  0  0  0  0  0  0  0  0
   -6.7312    6.8955   -0.8240 H   0  0  0  0  0  0  0  0  0  0  0  0
   -5.6667    3.2321    0.3128 H   0  0  0  0  0  0  0  0  0  0  0  0
   -3.3166    2.3769   -0.3272 H   0  0  0  0  0  0  0  0  0  0  0  0
    5.5461   -1.5490    1.1313 H   0  0  0  0  0  0  0  0  0  0  0  0
    7.7786   -2.5687    1.4607 H   0  0  0  0  0  0  0  0  0  0  0  0
    8.8589   -2.4910    3.5799 H   0  0  0  0  0  0  0  0  0  0  0  0
    9.6031   -1.6304    6.8462 H   0  0  0  0  0  0  0  0  0  0  0  0
    9.3433   -2.7454    5.4813 H   0  0  0  0  0  0  0  0  0  0  0  0
   10.5734   -0.0637    5.5758 H   0  0  0  0  0  0  0  0  0  0  0  0
   10.7968   -1.4046    4.4595 H   0  0  0  0  0  0  0  0  0  0  0  0
    9.4194   -0.2802    4.1761 H   0  0  0  0  0  0  0  0  0  0  0  0
    5.5209   -0.4208    5.2872 H   0  0  0  0  0  0  0  0  0  0  0  0
    3.2236   -2.9720    0.9877 H   0  0  0  0  0  0  0  0  0  0  0  0
    1.4538   -4.5959    1.1228 H   0  0  0  0  0  0  0  0  0  0  0  0
   -0.6600   -4.0865    2.4906 H   0  0  0  0  0  0  0  0  0  0  0  0
   -2.1229   -0.1270    4.2774 H   0  0  0  0  0  0  0  0  0  0  0  0
   -1.3791   -1.0830    5.6117 H   0  0  0  0  0  0  0  0  0  0  0  0
   -3.1607   -2.2297    5.9036 H   0  0  0  0  0  0  0  0  0  0  0  0
   -3.3206   -2.7135    4.1728 H   0  0  0  0  0  0  0  0  0  0  0  0
   -4.0324   -1.1313    4.8210 H   0  0  0  0  0  0  0  0  0  0  0  0
    1.0653   -0.3507    3.4236 H   0  0  0  0  0  0  0  0  0  0  0  0
    5.1182    4.7787    4.2431 H   0  0  0  0  0  0  0  0  0  0  0  0
    1.8490    0.2801    7.2242 H   0  0  0  0  0  0  0  0  0  0  0  0
    5.7354    2.4391    9.4160 H   0  0  0  0  0  0  0  0  0  0  0  0
    4.9410   -0.4757   10.7577 H   0  0  0  0  0  0  0  0  0  0  0  0
    4.4802    1.8404   12.2181 H   0  0  0  0  0  0  0  0  0  0  0  0
    3.5134    0.0341   13.9162 H   0  0  0  0  0  0  0  0  0  0  0  0
    1.2827   -0.7871   13.0177 H   0  0  0  0  0  0  0  0  0  0  0  0
    0.7980    0.4063   10.7050 H   0  0  0  0  0  0  0  0  0  0  0  0
    2.6823    2.1950   10.3089 H   0  0  0  0  0  0  0  0  0  0  0  0
    1.9997    2.3305   12.0348 H   0  0  0  0  0  0  0  0  0  0  0  0
    2.7923   -1.4041   10.0860 H   0  0  0  0  0  0  0  0  0  0  0  0
  1  2  2  3
  2  3  1  0
  3  4  2  0
  3  5  1  0
  5  6  2  0
  6  7  1  0
  7  8  2  0
  8  9  1  0
  9 10  2  0
 10 11  1  0
 11 12  2  3
 12 13  1  0
 13 14  3  0
 12 15  1  0
 15 16  3  0
  8 17  1  0
 17 18  1  0
 18 19  1  0
 19 20  2  0
 20 21  1  0
 21 22  1  0
 21 23  1  0
  1 24  1  0
 24 25  2  0
 25 26  1  0
 26 27  2  0
 27 28  1  0
 27 29  1  0
 29 30  2  0
 30 31  1  0
 31 32  1  0
 32 33  2  0
 33 34  1  0
 34 35  2  0
 35 36  1  0
 36 37  1  0
 35 38  1  0
 38 39  2  0
 31 40  1  0
 40 41  2  0
 41 42  1  0
 42 43  2  0
 43 44  1  0
 44 45  1  0
 43 46  1  0
 46 47  2  0
 30 48  1  0
 48 49  1  0
 49 50  1  0
 50 51  2  0
 51 52  1  0
 52 53  1  0
 53 54  2  0
 54 55  1  0
 55 56  2  0
 56 57  1  0
 57 58  1  0
 56 59  1  0
 59 60  2  0
 52 61  1  0
 61 62  2  0
 62 63  1  0
 63 64  2  0
 64 65  1  0
 65 66  1  0
 64 67  1  0
 67 68  2  0
 51 69  1  0
 69 70  1  0
 50 71  1  0
 71 72  2  0
 72 73  1  0
 72 74  1  0
 74 75  1  0
 74 76  2  0
 76 77  1  0
 77 78  2  0
 78 79  1  0
 79 80  1  0
 80 81  2  0
 81 82  1  0
 82 83  2  0
 83 84  1  0
 84 85  1  0
 85 86  1  0
 86 87  1  0
 84 88  2  0
 79 89  2  0
 89 90  1  0
 90 91  2  0
 89 92  1  0
 92 93  2  0
 93 94  1  0
 94 95  2  0
 95 96  1  0
 96 97  1  0
 97 98  1  0
 98 99  1  0
 96100  2  0
 76101  1  0
101102  2  3
102103  1  0
103104  2  0
103105  1  0
105106  2  0
106107  1  0
107108  2  0
108109  1  0
109110  2  0
110111  1  0
111112  2  3
112113  1  0
113114  3  0
112115  1  0
115116  3  0
108117  1  0
117118  1  0
118119  1  0
119120  2  0
120121  1  0
121122  1  0
121123  1  0
 11  2  1  0
 23 17  1  0
 28 24  1  0
 70 29  1  0
 91 71  1  0
100 92  1  0
111102  1  0
123117  1  0
 10  5  1  0
 22 18  1  0
 39 32  1  0
 47 40  1  0
 69 48  2  0
 91 77  1  0
110105  1  0
122118  1  0
 23  7  1  0
 60 53  1  0
 68 61  1  0
 88 80  1  0
123107  1  0
  1124  1  0
  6125  1  0
  9126  1  0
 17127  1  0
 18128  1  0
 19129  1  0
 20130  1  0
 21131  1  0
 22132  1  0
 22133  1  0
 23134  1  0
 25135  1  0
 26136  1  0
 33137  1  0
 34138  1  0
 37139  1  0
 37140  1  0
 37141  1  0
 38142  1  0
 39143  1  0
 41144  1  0
 42145  1  0
 45146  1  0
 45147  1  0
 45148  1  0
 46149  1  0
 47150  1  0
 54151  1  0
 55152  1  0
 58153  1  0
 58154  1  0
 58155  1  0
 59156  1  0
 60157  1  0
 62158  1  0
 63159  1  0
 66160  1  0
 66161  1  0
 66162  1  0
 67163  1  0
 68164  1  0
 81165  1  0
 82166  1  0
 83167  1  0
 86168  1  0
 86169  1  0
 87170  1  0
 87171  1  0
 87172  1  0
 88173  1  0
 93174  1  0
 94175  1  0
 95176  1  0
 98177  1  0
 98178  1  0
 99179  1  0
 99180  1  0
 99181  1  0
100182  1  0
101183  1  0
106184  1  0
109185  1  0
117186  1  0
118187  1  0
119188  1  0
120189  1  0
121190  1  0
122191  1  0
122192  1  0
123193  1  0
M  END

