
     RDKit          3D

230254  0  0  0  0  0  0  0  0999 V2000
    1.6260    6.1421   -0.1221 C   0  0  0  0  0  0  0  0  0  0  0  0
    2.7028    5.3460   -0.3079 C   0  0  0  0  0  0  0  0  0  0  0  0
    4.0781    5.8331   -0.2336 C   0  0  0  0  0  0  0  0  0  0  0  0
    4.4340    7.0419   -0.2278 O   0  0  0  0  0  0  0  0  0  0  0  0
    4.9728    4.6954   -0.1459 C   0  0  0  0  0  0  0  0  0  0  0  0
    6.3885    4.7219   -0.1479 C   0  0  0  0  0  0  0  0  0  0  0  0
    6.9707    3.4689   -0.1972 C   0  0  0  0  0  0  0  0  0  0  0  0
    6.2116    2.2525   -0.2173 C   0  0  0  0  0  0  0  0  0  0  0  0
    4.8290    2.2193   -0.2002 C   0  0  0  0  0  0  0  0  0  0  0  0
    4.2064    3.4991   -0.1766 C   0  0  0  0  0  0  0  0  0  0  0  0
    2.7722    3.8495   -0.3738 C   0  0  0  0  0  0  0  0  0  0  0  0
    1.8785    3.0436   -0.9930 C   0  0  0  0  0  0  0  0  0  0  0  0
    1.0930    3.5341   -2.0902 C   0  0  0  0  0  0  0  0  0  0  0  0
    0.5084    3.9348   -2.9994 N   0  0  0  0  0  0  0  0  0  0  0  0
    1.8505    1.6163   -0.7844 C   0  0  0  0  0  0  0  0  0  0  0  0
    1.8189    0.4739   -0.5953 N   0  0  0  0  0  0  0  0  0  0  0  0
    7.4738    1.4472   -0.3099 C   0  0  0  0  0  0  0  0  0  0  0  0
    7.9539    0.6858    0.9625 C   0  0  0  0  0  0  0  0  0  0  0  0
    7.5297    1.4330    2.2046 C   0  0  0  0  0  0  0  0  0  0  0  0
    8.2334    2.5646    2.2282 C   0  0  0  0  0  0  0  0  0  0  0  0
    9.1173    2.5521    1.0018 C   0  0  0  0  0  0  0  0  0  0  0  0
    9.4252    1.0645    0.9462 C   0  0  0  0  0  0  0  0  0  0  0  0
    8.2518    2.6913   -0.2846 C   0  0  0  0  0  0  0  0  0  0  0  0
    0.2707    5.6268    0.1309 C   0  0  0  0  0  0  0  0  0  0  0  0
   -0.0354    4.6093    1.0481 C   0  0  0  0  0  0  0  0  0  0  0  0
    0.7297    4.3570    2.2514 N   0  0  0  0  0  0  0  0  0  0  0  0
    1.2156    5.4769    3.0190 C   0  0  0  0  0  0  0  0  0  0  0  0
    0.4026    6.6077    3.2156 C   0  0  0  0  0  0  0  0  0  0  0  0
    0.8621    7.6914    3.9692 C   0  0  0  0  0  0  0  0  0  0  0  0
    2.1341    7.6551    4.5568 C   0  0  0  0  0  0  0  0  0  0  0  0
    2.6380    8.8313    5.3413 C   0  0  0  0  0  0  0  0  0  0  0  0
    2.9535    6.5315    4.3544 C   0  0  0  0  0  0  0  0  0  0  0  0
    2.4942    5.4465    3.5985 C   0  0  0  0  0  0  0  0  0  0  0  0
    0.7067    3.0692    2.8902 C   0  0  0  0  0  0  0  0  0  0  0  0
    1.6752    2.1087    2.5791 C   0  0  0  0  0  0  0  0  0  0  0  0
    1.6516    0.8541    3.1939 C   0  0  0  0  0  0  0  0  0  0  0  0
    0.6522    0.5499    4.1348 C   0  0  0  0  0  0  0  0  0  0  0  0
    0.6505   -0.7758    4.8380 C   0  0  0  0  0  0  0  0  0  0  0  0
   -0.2842    1.5322    4.4871 C   0  0  0  0  0  0  0  0  0  0  0  0
   -0.2626    2.7851    3.8642 C   0  0  0  0  0  0  0  0  0  0  0  0
   -1.2375    3.9851    0.7075 C   0  0  0  0  0  0  0  0  0  0  0  0
   -1.7271    2.4003    0.8899 S   0  0  0  0  0  0  0  0  0  0  0  0
   -2.8130    2.4019   -0.4168 C   0  0  0  0  0  0  0  0  0  0  0  0
   -2.8062    3.6856   -0.9995 C   0  0  0  0  0  0  0  0  0  0  0  0
   -3.6844    4.1250   -2.0570 N   0  0  0  0  0  0  0  0  0  0  0  0
   -3.5739    3.5765   -3.3773 C   0  0  0  0  0  0  0  0  0  0  0  0
   -2.4910    3.9240   -4.1911 C   0  0  0  0  0  0  0  0  0  0  0  0
   -2.3857    3.4107   -5.4849 C   0  0  0  0  0  0  0  0  0  0  0  0
   -3.3831    2.5606   -5.9887 C   0  0  0  0  0  0  0  0  0  0  0  0
   -3.2941    2.0491   -7.3935 C   0  0  0  0  0  0  0  0  0  0  0  0
   -4.4994    2.2599   -5.1927 C   0  0  0  0  0  0  0  0  0  0  0  0
   -4.5964    2.7663   -3.8929 C   0  0  0  0  0  0  0  0  0  0  0  0
   -4.6007    5.2146   -1.8229 C   0  0  0  0  0  0  0  0  0  0  0  0
   -5.2480    5.3515   -0.5826 C   0  0  0  0  0  0  0  0  0  0  0  0
   -6.1441    6.4027   -0.3628 C   0  0  0  0  0  0  0  0  0  0  0  0
   -6.4134    7.3281   -1.3815 C   0  0  0  0  0  0  0  0  0  0  0  0
   -7.3496    8.4743   -1.1376 C   0  0  0  0  0  0  0  0  0  0  0  0
   -5.7468    7.2157   -2.6101 C   0  0  0  0  0  0  0  0  0  0  0  0
   -4.8583    6.1641   -2.8336 C   0  0  0  0  0  0  0  0  0  0  0  0
   -1.8984    4.5296   -0.3570 C   0  0  0  0  0  0  0  0  0  0  0  0
   -1.0133    5.8186   -0.9690 S   0  0  0  0  0  0  0  0  0  0  0  0
   -3.0733    1.1492   -1.1313 C   0  0  0  0  0  0  0  0  0  0  0  0
   -3.3899   -0.0715   -0.5045 C   0  0  0  0  0  0  0  0  0  0  0  0
   -3.7554   -0.1962    0.8863 N   0  0  0  0  0  0  0  0  0  0  0  0
   -3.0274   -1.1146    1.7345 C   0  0  0  0  0  0  0  0  0  0  0  0
   -3.7075   -1.9369    2.6485 C   0  0  0  0  0  0  0  0  0  0  0  0
   -3.0149   -2.9168    3.3698 C   0  0  0  0  0  0  0  0  0  0  0  0
   -1.6395   -3.0891    3.1764 C   0  0  0  0  0  0  0  0  0  0  0  0
   -0.7583   -4.3827    4.0506 S   0  0  0  0  0  0  0  0  0  0  0  0
   -1.0723   -5.6358    2.7695 C   0  0  0  0  0  0  0  0  0  0  0  0
   -0.9533   -2.2534    2.2887 C   0  0  0  0  0  0  0  0  0  0  0  0
   -1.6364   -1.2568    1.5935 C   0  0  0  0  0  0  0  0  0  0  0  0
   -4.8591    0.5658    1.4116 C   0  0  0  0  0  0  0  0  0  0  0  0
   -6.0387    0.7232    0.6627 C   0  0  0  0  0  0  0  0  0  0  0  0
   -7.1374    1.3933    1.2094 C   0  0  0  0  0  0  0  0  0  0  0  0
   -7.0596    1.9338    2.5001 C   0  0  0  0  0  0  0  0  0  0  0  0
   -8.4915    2.7320    3.2265 S   0  0  0  0  0  0  0  0  0  0  0  0
   -8.0011    4.3969    2.6796 C   0  0  0  0  0  0  0  0  0  0  0  0
   -5.8800    1.8068    3.2388 C   0  0  0  0  0  0  0  0  0  0  0  0
   -4.7816    1.1355    2.6958 C   0  0  0  0  0  0  0  0  0  0  0  0
   -3.0282   -1.1588   -1.3070 C   0  0  0  0  0  0  0  0  0  0  0  0
   -2.9435   -2.8007   -1.0473 S   0  0  0  0  0  0  0  0  0  0  0  0
   -2.0903   -3.1580   -2.4803 C   0  0  0  0  0  0  0  0  0  0  0  0
   -1.8272   -1.9405   -3.1535 C   0  0  0  0  0  0  0  0  0  0  0  0
   -1.0806   -1.8164   -4.3817 N   0  0  0  0  0  0  0  0  0  0  0  0
    0.0044   -0.8678   -4.4566 C   0  0  0  0  0  0  0  0  0  0  0  0
    1.2882   -1.2272   -4.0142 C   0  0  0  0  0  0  0  0  0  0  0  0
    2.3879   -0.4054   -4.2744 C   0  0  0  0  0  0  0  0  0  0  0  0
    2.2123    0.8204   -4.9275 C   0  0  0  0  0  0  0  0  0  0  0  0
    3.6541    1.7699   -5.4339 S   0  0  0  0  0  0  0  0  0  0  0  0
    4.0636    2.3916   -3.7714 C   0  0  0  0  0  0  0  0  0  0  0  0
    0.9247    1.2248   -5.3047 C   0  0  0  0  0  0  0  0  0  0  0  0
   -0.1696    0.3682   -5.1026 C   0  0  0  0  0  0  0  0  0  0  0  0
   -1.4572   -2.5832   -5.5566 C   0  0  0  0  0  0  0  0  0  0  0  0
   -2.7186   -3.2129   -5.6392 C   0  0  0  0  0  0  0  0  0  0  0  0
   -3.0881   -3.9293   -6.7774 C   0  0  0  0  0  0  0  0  0  0  0  0
   -2.2223   -4.0093   -7.8715 C   0  0  0  0  0  0  0  0  0  0  0  0
   -2.7343   -4.8915   -9.3470 S   0  0  0  0  0  0  0  0  0  0  0  0
   -1.9224   -6.4524   -8.8726 C   0  0  0  0  0  0  0  0  0  0  0  0
   -0.9748   -3.3777   -7.8171 C   0  0  0  0  0  0  0  0  0  0  0  0
   -0.5914   -2.6769   -6.6698 C   0  0  0  0  0  0  0  0  0  0  0  0
   -2.3949   -0.8609   -2.4687 C   0  0  0  0  0  0  0  0  0  0  0  0
   -2.2685    0.7954   -2.5962 S   0  0  0  0  0  0  0  0  0  0  0  0
   -1.3998   -4.4478   -2.6841 C   0  0  0  0  0  0  0  0  0  0  0  0
    0.2563   -4.5122   -3.0172 S   0  0  0  0  0  0  0  0  0  0  0  0
    0.6462   -5.9322   -2.2032 C   0  0  0  0  0  0  0  0  0  0  0  0
   -0.5412   -6.3631   -1.6401 C   0  0  0  0  0  0  0  0  0  0  0  0
   -0.9116   -7.4775   -0.4412 S   0  0  0  0  0  0  0  0  0  0  0  0
   -2.5555   -7.0386   -0.3519 C   0  0  0  0  0  0  0  0  0  0  0  0
   -3.5029   -7.5688    0.6438 C   0  0  0  0  0  0  0  0  0  0  0  0
   -4.4629   -6.8425    1.3608 C   0  0  0  0  0  0  0  0  0  0  0  0
   -5.1457   -7.6034    2.3091 C   0  0  0  0  0  0  0  0  0  0  0  0
   -4.7178   -8.9226    2.3678 C   0  0  0  0  0  0  0  0  0  0  0  0
   -5.2450   -9.9257    3.2975 C   0  0  0  0  0  0  0  0  0  0  0  0
   -4.6912  -11.0551    3.3928 O   0  0  0  0  0  0  0  0  0  0  0  0
   -6.3805   -9.6142    4.0539 O   0  0  0  0  0  0  0  0  0  0  0  0
   -6.9223  -10.4684    5.0621 C   0  0  0  0  0  0  0  0  0  0  0  0
   -6.0940  -10.3965    6.3394 C   0  0  0  0  0  0  0  0  0  0  0  0
   -3.4816   -9.1455    1.2445 S   0  0  0  0  0  0  0  0  0  0  0  0
   -4.7078   -5.1060    1.2722 Cl  0  0  0  0  0  0  0  0  0  0  0  0
   -2.8206   -6.0356   -1.2946 C   0  0  0  0  0  0  0  0  0  0  0  0
   -1.6584   -5.6069   -1.9414 C   0  0  0  0  0  0  0  0  0  0  0  0
   -4.4343   -5.6158   -1.8638 Cl  0  0  0  0  0  0  0  0  0  0  0  0
    2.0146   -6.3146   -1.8380 C   0  0  0  0  0  0  0  0  0  0  0  0
    2.7384   -5.6107   -0.9483 C   0  0  0  0  0  0  0  0  0  0  0  0
    2.1782   -4.7256    0.0808 C   0  0  0  0  0  0  0  0  0  0  0  0
    0.9916   -4.3028    0.1393 O   0  0  0  0  0  0  0  0  0  0  0  0
    3.1839   -4.4958    1.0919 C   0  0  0  0  0  0  0  0  0  0  0  0
    2.9989   -3.8716    2.3483 C   0  0  0  0  0  0  0  0  0  0  0  0
    4.1221   -3.8804    3.1495 C   0  0  0  0  0  0  0  0  0  0  0  0
    5.3635   -4.4706    2.7475 C   0  0  0  0  0  0  0  0  0  0  0  0
    5.5436   -5.1149    1.5335 C   0  0  0  0  0  0  0  0  0  0  0  0
    4.3954   -5.1177    0.6905 C   0  0  0  0  0  0  0  0  0  0  0  0
    4.1918   -5.7661   -0.6386 C   0  0  0  0  0  0  0  0  0  0  0  0
    5.1582   -6.1645   -1.5069 C   0  0  0  0  0  0  0  0  0  0  0  0
    6.5568   -6.1376   -1.1768 C   0  0  0  0  0  0  0  0  0  0  0  0
    7.6891   -6.1148   -0.9323 N   0  0  0  0  0  0  0  0  0  0  0  0
    4.8671   -6.4991   -2.8783 C   0  0  0  0  0  0  0  0  0  0  0  0
    4.6422   -6.7643   -3.9826 N   0  0  0  0  0  0  0  0  0  0  0  0
    5.9752   -4.1262    4.0752 C   0  0  0  0  0  0  0  0  0  0  0  0
    6.1931   -5.2871    5.0941 C   0  0  0  0  0  0  0  0  0  0  0  0
    5.1493   -6.3590    4.8845 C   0  0  0  0  0  0  0  0  0  0  0  0
    3.9814   -5.8299    5.2576 C   0  0  0  0  0  0  0  0  0  0  0  0
    4.2715   -4.4160    5.7092 C   0  0  0  0  0  0  0  0  0  0  0  0
    5.6274   -4.6493    6.3499 C   0  0  0  0  0  0  0  0  0  0  0  0
    4.6961   -3.5389    4.4918 C   0  0  0  0  0  0  0  0  0  0  0  0
    1.7550    7.2152   -0.1234 H   0  0  0  0  0  0  0  0  0  0  0  0
    6.9699    5.6365   -0.1569 H   0  0  0  0  0  0  0  0  0  0  0  0
    4.3047    1.2812   -0.2497 H   0  0  0  0  0  0  0  0  0  0  0  0
    7.5730    0.8785   -1.2608 H   0  0  0  0  0  0  0  0  0  0  0  0
    7.7397   -0.4040    0.9712 H   0  0  0  0  0  0  0  0  0  0  0  0
    6.8511    1.0920    2.9791 H   0  0  0  0  0  0  0  0  0  0  0  0
    8.2258    3.3004    3.0252 H   0  0  0  0  0  0  0  0  0  0  0  0
   10.0001    3.2234    1.0559 H   0  0  0  0  0  0  0  0  0  0  0  0
    9.9518    0.7559    0.0118 H   0  0  0  0  0  0  0  0  0  0  0  0
    9.9928    0.6929    1.8357 H   0  0  0  0  0  0  0  0  0  0  0  0
    8.8276    2.8764   -1.2177 H   0  0  0  0  0  0  0  0  0  0  0  0
   -0.5941    6.6464    2.7949 H   0  0  0  0  0  0  0  0  0  0  0  0
    0.2184    8.5550    4.0988 H   0  0  0  0  0  0  0  0  0  0  0  0
    3.2049    9.5109    4.6705 H   0  0  0  0  0  0  0  0  0  0  0  0
    3.3003    8.4940    6.1652 H   0  0  0  0  0  0  0  0  0  0  0  0
    1.7912    9.3948    5.7928 H   0  0  0  0  0  0  0  0  0  0  0  0
    3.9472    6.4994    4.7830 H   0  0  0  0  0  0  0  0  0  0  0  0
    3.1384    4.5897    3.4528 H   0  0  0  0  0  0  0  0  0  0  0  0
    2.4635    2.3386    1.8798 H   0  0  0  0  0  0  0  0  0  0  0  0
    2.4024    0.1209    2.9306 H   0  0  0  0  0  0  0  0  0  0  0  0
    1.1435   -0.6754    5.8277 H   0  0  0  0  0  0  0  0  0  0  0  0
    1.2020   -1.5425    4.2511 H   0  0  0  0  0  0  0  0  0  0  0  0
   -0.3882   -1.1367    4.9824 H   0  0  0  0  0  0  0  0  0  0  0  0
   -1.0407    1.3247    5.2356 H   0  0  0  0  0  0  0  0  0  0  0  0
   -0.9960    3.5334    4.1350 H   0  0  0  0  0  0  0  0  0  0  0  0
   -1.7555    4.6286   -3.8329 H   0  0  0  0  0  0  0  0  0  0  0  0
   -1.5375    3.6904   -6.0976 H   0  0  0  0  0  0  0  0  0  0  0  0
   -3.7993    2.7614   -8.0756 H   0  0  0  0  0  0  0  0  0  0  0  0
   -3.7788    1.0543   -7.4797 H   0  0  0  0  0  0  0  0  0  0  0  0
   -2.2317    1.9422   -7.7075 H   0  0  0  0  0  0  0  0  0  0  0  0
   -5.2966    1.6379   -5.5826 H   0  0  0  0  0  0  0  0  0  0  0  0
   -5.4590    2.5260   -3.2847 H   0  0  0  0  0  0  0  0  0  0  0  0
   -5.0720    4.6361    0.2125 H   0  0  0  0  0  0  0  0  0  0  0  0
   -6.6360    6.4893    0.5993 H   0  0  0  0  0  0  0  0  0  0  0  0
   -8.1884    8.1605   -0.4813 H   0  0  0  0  0  0  0  0  0  0  0  0
   -7.7817    8.8420   -2.0950 H   0  0  0  0  0  0  0  0  0  0  0  0
   -6.7926    9.3053   -0.6508 H   0  0  0  0  0  0  0  0  0  0  0  0
   -5.9194    7.9414   -3.3958 H   0  0  0  0  0  0  0  0  0  0  0  0
   -4.3601    6.1003   -3.7903 H   0  0  0  0  0  0  0  0  0  0  0  0
   -4.7810   -1.8503    2.7710 H   0  0  0  0  0  0  0  0  0  0  0  0
   -3.5552   -3.5626    4.0529 H   0  0  0  0  0  0  0  0  0  0  0  0
   -2.1553   -5.8417    2.7097 H   0  0  0  0  0  0  0  0  0  0  0  0
   -0.7134   -5.2757    1.7863 H   0  0  0  0  0  0  0  0  0  0  0  0
   -0.5371   -6.5742    3.0223 H   0  0  0  0  0  0  0  0  0  0  0  0
    0.1083   -2.3759    2.1320 H   0  0  0  0  0  0  0  0  0  0  0  0
   -1.0838   -0.6294    0.9054 H   0  0  0  0  0  0  0  0  0  0  0  0
   -6.1248    0.2840   -0.3254 H   0  0  0  0  0  0  0  0  0  0  0  0
   -8.0519    1.4793    0.6379 H   0  0  0  0  0  0  0  0  0  0  0  0
   -8.7169    5.1365    3.0955 H   0  0  0  0  0  0  0  0  0  0  0  0
   -8.0286    4.4483    1.5715 H   0  0  0  0  0  0  0  0  0  0  0  0
   -6.9810    4.6433    3.0410 H   0  0  0  0  0  0  0  0  0  0  0  0
   -5.8137    2.2245    4.2354 H   0  0  0  0  0  0  0  0  0  0  0  0
   -3.8786    1.0370    3.2839 H   0  0  0  0  0  0  0  0  0  0  0  0
    1.4559   -2.1702   -3.5235 H   0  0  0  0  0  0  0  0  0  0  0  0
    3.3793   -0.7369   -3.9900 H   0  0  0  0  0  0  0  0  0  0  0  0
    4.0610    1.5684   -3.0328 H   0  0  0  0  0  0  0  0  0  0  0  0
    3.3422    3.1748   -3.4791 H   0  0  0  0  0  0  0  0  0  0  0  0
    5.0813    2.8371   -3.7907 H   0  0  0  0  0  0  0  0  0  0  0  0
    0.7767    2.1656   -5.8197 H   0  0  0  0  0  0  0  0  0  0  0  0
   -1.1467    0.6504   -5.4711 H   0  0  0  0  0  0  0  0  0  0  0  0
   -3.4359   -3.1323   -4.8353 H   0  0  0  0  0  0  0  0  0  0  0  0
   -4.0638   -4.3972   -6.8204 H   0  0  0  0  0  0  0  0  0  0  0  0
   -2.4312   -7.2869   -9.3982 H   0  0  0  0  0  0  0  0  0  0  0  0
   -1.9915   -6.6342   -7.7790 H   0  0  0  0  0  0  0  0  0  0  0  0
   -0.8617   -6.4382   -9.1958 H   0  0  0  0  0  0  0  0  0  0  0  0
   -0.3014   -3.4300   -8.6659 H   0  0  0  0  0  0  0  0  0  0  0  0
    0.3836   -2.2055   -6.6608 H   0  0  0  0  0  0  0  0  0  0  0  0
   -5.9098   -7.1942    2.9575 H   0  0  0  0  0  0  0  0  0  0  0  0
   -6.9924  -11.5140    4.6909 H   0  0  0  0  0  0  0  0  0  0  0  0
   -7.9538  -10.1259    5.2978 H   0  0  0  0  0  0  0  0  0  0  0  0
   -6.5258  -11.0773    7.1005 H   0  0  0  0  0  0  0  0  0  0  0  0
   -5.0440  -10.7004    6.1417 H   0  0  0  0  0  0  0  0  0  0  0  0
   -6.1056   -9.3588    6.7373 H   0  0  0  0  0  0  0  0  0  0  0  0
    2.4549   -7.1293   -2.3901 H   0  0  0  0  0  0  0  0  0  0  0  0
    2.0519   -3.4749    2.6837 H   0  0  0  0  0  0  0  0  0  0  0  0
    6.4726   -5.6110    1.3125 H   0  0  0  0  0  0  0  0  0  0  0  0
    6.8028   -3.3873    4.0176 H   0  0  0  0  0  0  0  0  0  0  0  0
    7.2367   -5.6571    5.1735 H   0  0  0  0  0  0  0  0  0  0  0  0
    5.3099   -7.3816    4.5633 H   0  0  0  0  0  0  0  0  0  0  0  0
    3.0311   -6.3528    5.2918 H   0  0  0  0  0  0  0  0  0  0  0  0
    3.5008   -3.9686    6.3703 H   0  0  0  0  0  0  0  0  0  0  0  0
    6.1505   -3.7094    6.6454 H   0  0  0  0  0  0  0  0  0  0  0  0
    5.5914   -5.3451    7.2237 H   0  0  0  0  0  0  0  0  0  0  0  0
    4.7479   -2.4459    4.6964 H   0  0  0  0  0  0  0  0  0  0  0  0
  1  2  2  3
  2  3  1  0
  3  4  2  0
  3  5  1  0
  5  6  2  0
  6  7  1  0
  7  8  2  0
  8  9  1  0
  9 10  2  0
 10 11  1  0
 11 12  2  3
 12 13  1  0
 13 14  3  0
 12 15  1  0
 15 16  3  0
  8 17  1  0
 17 18  1  0
 18 19  1  0
 19 20  2  0
 20 21  1  0
 21 22  1  0
 21 23  1  0
  1 24  1  0
 24 25  2  0
 25 26  1  0
 26 27  1  0
 27 28  2  0
 28 29  1  0
 29 30  2  0
 30 31  1  0
 30 32  1  0
 32 33  2  0
 26 34  1  0
 34 35  2  0
 35 36  1  0
 36 37  2  0
 37 38  1  0
 37 39  1  0
 39 40  2  0
 25 41  1  0
 41 42  1  0
 42 43  1  0
 43 44  2  0
 44 45  1  0
 45 46  1  0
 46 47  2  0
 47 48  1  0
 48 49  2  0
 49 50  1  0
 49 51  1  0
 51 52  2  0
 45 53  1  0
 53 54  2  0
 54 55  1  0
 55 56  2  0
 56 57  1  0
 56 58  1  0
 58 59  2  0
 44 60  1  0
 60 61  1  0
 43 62  1  0
 62 63  2  0
 63 64  1  0
 64 65  1  0
 65 66  2  0
 66 67  1  0
 67 68  2  0
 68 69  1  0
 69 70  1  0
 68 71  1  0
 71 72  2  0
 64 73  1  0
 73 74  2  0
 74 75  1  0
 75 76  2  0
 76 77  1  0
 77 78  1  0
 76 79  1  0
 79 80  2  0
 63 81  1  0
 81 82  1  0
 82 83  1  0
 83 84  2  0
 84 85  1  0
 85 86  1  0
 86 87  2  0
 87 88  1  0
 88 89  2  0
 89 90  1  0
 90 91  1  0
 89 92  1  0
 92 93  2  0
 85 94  1  0
 94 95  2  0
 95 96  1  0
 96 97  2  0
 97 98  1  0
 98 99  1  0
 97100  1  0
100101  2  0
 84102  1  0
102103  1  0
 83104  1  0
104105  1  0
105106  1  0
106107  2  0
107108  1  0
108109  1  0
109110  1  0
110111  2  0
111112  1  0
112113  2  0
113114  1  0
114115  2  0
114116  1  0
116117  1  0
117118  1  0
113119  1  0
111120  1  0
109121  2  0
121122  1  0
121123  1  0
106124  1  0
124125  2  3
125126  1  0
126127  2  0
126128  1  0
128129  2  0
129130  1  0
130131  2  0
131132  1  0
132133  2  0
133134  1  0
134135  2  3
135136  1  0
136137  3  0
135138  1  0
138139  3  0
131140  1  0
140141  1  0
141142  1  0
142143  2  0
143144  1  0
144145  1  0
144146  1  0
 11  2  1  0
 23 17  1  0
 61 24  1  0
103 62  1  0
122104  2  0
134125  1  0
146140  1  0
 10  5  1  0
 22 18  1  0
 33 27  1  0
 40 34  1  0
 60 41  2  0
 72 65  1  0
 80 73  1  0
102 81  2  0
122107  1  0
133128  1  0
145141  1  0
 23  7  1  0
 52 46  1  0
 59 53  1  0
 93 86  1  0
101 94  1  0
119110  1  0
146130  1  0
  1147  1  0
  6148  1  0
  9149  1  0
 17150  1  0
 18151  1  0
 19152  1  0
 20153  1  0
 21154  1  0
 22155  1  0
 22156  1  0
 23157  1  0
 28158  1  0
 29159  1  0
 31160  1  0
 31161  1  0
 31162  1  0
 32163  1  0
 33164  1  0
 35165  1  0
 36166  1  0
 38167  1  0
 38168  1  0
 38169  1  0
 39170  1  0
 40171  1  0
 47172  1  0
 48173  1  0
 50174  1  0
 50175  1  0
 50176  1  0
 51177  1  0
 52178  1  0
 54179  1  0
 55180  1  0
 57181  1  0
 57182  1  0
 57183  1  0
 58184  1  0
 59185  1  0
 66186  1  0
 67187  1  0
 70188  1  0
 70189  1  0
 70190  1  0
 71191  1  0
 72192  1  0
 74193  1  0
 75194  1  0
 78195  1  0
 78196  1  0
 78197  1  0
 79198  1  0
 80199  1  0
 87200  1  0
 88201  1  0
 91202  1  0
 91203  1  0
 91204  1  0
 92205  1  0
 93206  1  0
 95207  1  0
 96208  1  0
 99209  1  0
 99210  1  0
 99211  1  0
100212  1  0
101213  1  0
112214  1  0
117215  1  0
117216  1  0
118217  1  0
118218  1  0
118219  1  0
124220  1  0
129221  1  0
132222  1  0
140223  1  0
141224  1  0
142225  1  0
143226  1  0
144227  1  0
145228  1  0
145229  1  0
146230  1  0
M  END

