
     RDKit          3D

261285  0  0  0  0  0  0  0  0999 V2000
    5.0946   -3.9430   -5.9547 C   0  0  0  0  0  0  0  0  0  0  0  0
    4.8525   -5.0696   -5.2570 C   0  0  0  0  0  0  0  0  0  0  0  0
    3.9113   -5.1819   -4.1385 C   0  0  0  0  0  0  0  0  0  0  0  0
    3.6579   -4.2931   -3.2853 O   0  0  0  0  0  0  0  0  0  0  0  0
    3.3427   -6.5180   -4.1502 C   0  0  0  0  0  0  0  0  0  0  0  0
    2.2036   -6.9601   -3.4426 C   0  0  0  0  0  0  0  0  0  0  0  0
    1.7617   -8.2079   -3.8321 C   0  0  0  0  0  0  0  0  0  0  0  0
    2.4026   -8.9971   -4.8346 C   0  0  0  0  0  0  0  0  0  0  0  0
    3.5390   -8.5815   -5.5083 C   0  0  0  0  0  0  0  0  0  0  0  0
    4.0006   -7.2885   -5.1504 C   0  0  0  0  0  0  0  0  0  0  0  0
    5.0705   -6.4494   -5.7688 C   0  0  0  0  0  0  0  0  0  0  0  0
    6.1186   -6.8631   -6.5182 C   0  0  0  0  0  0  0  0  0  0  0  0
    7.2634   -6.0164   -6.7417 C   0  0  0  0  0  0  0  0  0  0  0  0
    8.1816   -5.3254   -6.8923 N   0  0  0  0  0  0  0  0  0  0  0  0
    6.1891   -8.1749   -7.1057 C   0  0  0  0  0  0  0  0  0  0  0  0
    6.2457   -9.2108   -7.6145 N   0  0  0  0  0  0  0  0  0  0  0  0
    1.3384  -10.0528   -4.7068 C   0  0  0  0  0  0  0  0  0  0  0  0
    1.6962  -11.3804   -3.9688 C   0  0  0  0  0  0  0  0  0  0  0  0
    2.7586  -11.1161   -2.9306 C   0  0  0  0  0  0  0  0  0  0  0  0
    2.1887  -10.3750   -1.9839 C   0  0  0  0  0  0  0  0  0  0  0  0
    0.7555  -10.1555   -2.4038 C   0  0  0  0  0  0  0  0  0  0  0  0
    0.4930  -11.5009   -3.0510 C   0  0  0  0  0  0  0  0  0  0  0  0
    0.6945   -9.2460   -3.6660 C   0  0  0  0  0  0  0  0  0  0  0  0
    4.4073   -2.6752   -5.6610 C   0  0  0  0  0  0  0  0  0  0  0  0
    3.0110   -2.5169   -5.4950 C   0  0  0  0  0  0  0  0  0  0  0  0
    1.9648   -3.1419   -6.2858 N   0  0  0  0  0  0  0  0  0  0  0  0
    0.8877   -2.3085   -6.7471 C   0  0  0  0  0  0  0  0  0  0  0  0
    1.1674   -1.1436   -7.4794 C   0  0  0  0  0  0  0  0  0  0  0  0
    0.1285   -0.2983   -7.8821 C   0  0  0  0  0  0  0  0  0  0  0  0
   -1.2002   -0.6034   -7.5599 C   0  0  0  0  0  0  0  0  0  0  0  0
   -2.2904    0.3405   -7.9697 C   0  0  0  0  0  0  0  0  0  0  0  0
   -1.4801   -1.7688   -6.8276 C   0  0  0  0  0  0  0  0  0  0  0  0
   -0.4466   -2.6112   -6.4146 C   0  0  0  0  0  0  0  0  0  0  0  0
    2.1045   -4.4140   -6.9317 C   0  0  0  0  0  0  0  0  0  0  0  0
    1.2766   -5.4867   -6.5634 C   0  0  0  0  0  0  0  0  0  0  0  0
    1.3657   -6.7074   -7.2358 C   0  0  0  0  0  0  0  0  0  0  0  0
    2.3118   -6.8853   -8.2581 C   0  0  0  0  0  0  0  0  0  0  0  0
    2.4596   -8.2145   -8.9383 C   0  0  0  0  0  0  0  0  0  0  0  0
    3.0975   -5.7948   -8.6627 C   0  0  0  0  0  0  0  0  0  0  0  0
    2.9772   -4.5604   -8.0202 C   0  0  0  0  0  0  0  0  0  0  0  0
    2.7524   -1.4584   -4.6354 C   0  0  0  0  0  0  0  0  0  0  0  0
    1.4120   -1.0514   -3.7193 S   0  0  0  0  0  0  0  0  0  0  0  0
    2.2234    0.1707   -2.8581 C   0  0  0  0  0  0  0  0  0  0  0  0
    3.5400    0.3122   -3.3517 C   0  0  0  0  0  0  0  0  0  0  0  0
    4.2756    1.5574   -3.2974 N   0  0  0  0  0  0  0  0  0  0  0  0
    5.6767    1.5975   -3.6010 C   0  0  0  0  0  0  0  0  0  0  0  0
    6.0969    2.0115   -4.8769 C   0  0  0  0  0  0  0  0  0  0  0  0
    7.4627    2.1246   -5.1625 C   0  0  0  0  0  0  0  0  0  0  0  0
    8.4177    1.8345   -4.1760 C   0  0  0  0  0  0  0  0  0  0  0  0
    9.8734    2.0400   -4.4680 C   0  0  0  0  0  0  0  0  0  0  0  0
    7.9903    1.4331   -2.8988 C   0  0  0  0  0  0  0  0  0  0  0  0
    6.6285    1.3149   -2.6128 C   0  0  0  0  0  0  0  0  0  0  0  0
    3.5551    2.8133   -3.3262 C   0  0  0  0  0  0  0  0  0  0  0  0
    3.9770    3.8926   -2.5288 C   0  0  0  0  0  0  0  0  0  0  0  0
    3.2301    5.0751   -2.4872 C   0  0  0  0  0  0  0  0  0  0  0  0
    2.0773    5.2101   -3.2724 C   0  0  0  0  0  0  0  0  0  0  0  0
    1.2484    6.4604   -3.2074 C   0  0  0  0  0  0  0  0  0  0  0  0
    1.6609    4.1472   -4.0778 C   0  0  0  0  0  0  0  0  0  0  0  0
    2.4032    2.9661   -4.1253 C   0  0  0  0  0  0  0  0  0  0  0  0
    3.8184   -0.6982   -4.2786 C   0  0  0  0  0  0  0  0  0  0  0  0
    5.2176   -1.3969   -4.8777 S   0  0  0  0  0  0  0  0  0  0  0  0
    1.7032    0.8404   -1.6566 C   0  0  0  0  0  0  0  0  0  0  0  0
    0.3733    0.8671   -1.2044 C   0  0  0  0  0  0  0  0  0  0  0  0
   -0.7025    0.0931   -1.7660 N   0  0  0  0  0  0  0  0  0  0  0  0
   -1.0302   -1.1794   -1.1379 C   0  0  0  0  0  0  0  0  0  0  0  0
   -2.3639   -1.6231   -1.0382 C   0  0  0  0  0  0  0  0  0  0  0  0
   -2.6669   -2.8410   -0.4190 C   0  0  0  0  0  0  0  0  0  0  0  0
   -1.6520   -3.6109    0.1479 C   0  0  0  0  0  0  0  0  0  0  0  0
   -2.0532   -5.1675    0.9510 S   0  0  0  0  0  0  0  0  0  0  0  0
   -1.7777   -6.1612   -0.5447 C   0  0  0  0  0  0  0  0  0  0  0  0
   -0.3283   -3.1680    0.0982 C   0  0  0  0  0  0  0  0  0  0  0  0
   -0.0182   -1.9598   -0.5389 C   0  0  0  0  0  0  0  0  0  0  0  0
   -1.4975    0.6708   -2.8265 C   0  0  0  0  0  0  0  0  0  0  0  0
   -2.1651   -0.1494   -3.7542 C   0  0  0  0  0  0  0  0  0  0  0  0
   -3.0392    0.4090   -4.6891 C   0  0  0  0  0  0  0  0  0  0  0  0
   -3.1763    1.7966   -4.7886 C   0  0  0  0  0  0  0  0  0  0  0  0
   -4.3063    2.5111   -5.9961 S   0  0  0  0  0  0  0  0  0  0  0  0
   -5.6655    2.6831   -4.8074 C   0  0  0  0  0  0  0  0  0  0  0  0
   -2.4424    2.6259   -3.9345 C   0  0  0  0  0  0  0  0  0  0  0  0
   -1.6245    2.0712   -2.9504 C   0  0  0  0  0  0  0  0  0  0  0  0
    0.2862    1.4509    0.0562 C   0  0  0  0  0  0  0  0  0  0  0  0
   -0.9694    1.6300    1.1456 S   0  0  0  0  0  0  0  0  0  0  0  0
    0.0397    2.1473    2.4097 C   0  0  0  0  0  0  0  0  0  0  0  0
    1.3772    2.1737    1.9785 C   0  0  0  0  0  0  0  0  0  0  0  0
    2.4962    2.0794    2.8735 N   0  0  0  0  0  0  0  0  0  0  0  0
    3.3225    3.2393    3.0293 C   0  0  0  0  0  0  0  0  0  0  0  0
    3.1728    4.0582    4.1545 C   0  0  0  0  0  0  0  0  0  0  0  0
    3.9648    5.2053    4.3020 C   0  0  0  0  0  0  0  0  0  0  0  0
    4.9268    5.5255    3.3421 C   0  0  0  0  0  0  0  0  0  0  0  0
    5.9279    6.9950    3.5431 S   0  0  0  0  0  0  0  0  0  0  0  0
    4.9485    7.9883    2.3738 C   0  0  0  0  0  0  0  0  0  0  0  0
    5.0942    4.6954    2.2259 C   0  0  0  0  0  0  0  0  0  0  0  0
    4.2987    3.5538    2.0710 C   0  0  0  0  0  0  0  0  0  0  0  0
    2.8072    0.8263    3.5311 C   0  0  0  0  0  0  0  0  0  0  0  0
    2.1264   -0.3640    3.1818 C   0  0  0  0  0  0  0  0  0  0  0  0
    2.4116   -1.5663    3.8363 C   0  0  0  0  0  0  0  0  0  0  0  0
    3.3804   -1.6043    4.8431 C   0  0  0  0  0  0  0  0  0  0  0  0
    3.7350   -3.1445    5.6946 S   0  0  0  0  0  0  0  0  0  0  0  0
    4.9186   -3.7030    4.4317 C   0  0  0  0  0  0  0  0  0  0  0  0
    4.0707   -0.4395    5.1837 C   0  0  0  0  0  0  0  0  0  0  0  0
    3.7881    0.7645    4.5366 C   0  0  0  0  0  0  0  0  0  0  0  0
    1.4586    1.8068    0.6324 C   0  0  0  0  0  0  0  0  0  0  0  0
    2.7172    1.4346   -0.4088 S   0  0  0  0  0  0  0  0  0  0  0  0
   -0.4957    2.5276    3.7171 C   0  0  0  0  0  0  0  0  0  0  0  0
   -1.0841    3.8017    3.8426 C   0  0  0  0  0  0  0  0  0  0  0  0
   -0.3362    5.0215    3.7228 N   0  0  0  0  0  0  0  0  0  0  0  0
   -0.3902    5.7442    2.4885 C   0  0  0  0  0  0  0  0  0  0  0  0
    0.6677    5.6612    1.5714 C   0  0  0  0  0  0  0  0  0  0  0  0
    0.7442    6.5533    0.5008 C   0  0  0  0  0  0  0  0  0  0  0  0
   -0.2276    7.5546    0.3519 C   0  0  0  0  0  0  0  0  0  0  0  0
   -0.1212    8.5672   -0.7508 C   0  0  0  0  0  0  0  0  0  0  0  0
   -1.3087    7.6047    1.2386 C   0  0  0  0  0  0  0  0  0  0  0  0
   -1.3865    6.7076    2.3013 C   0  0  0  0  0  0  0  0  0  0  0  0
    0.2747    5.6328    4.8974 C   0  0  0  0  0  0  0  0  0  0  0  0
    0.2753    4.9758    6.1470 C   0  0  0  0  0  0  0  0  0  0  0  0
    0.8729    5.5635    7.2707 C   0  0  0  0  0  0  0  0  0  0  0  0
    1.5042    6.8078    7.1648 C   0  0  0  0  0  0  0  0  0  0  0  0
    2.1366    7.4583    8.3648 C   0  0  0  0  0  0  0  0  0  0  0  0
    1.5174    7.4665    5.9299 C   0  0  0  0  0  0  0  0  0  0  0  0
    0.9131    6.8888    4.8094 C   0  0  0  0  0  0  0  0  0  0  0  0
   -2.3040    3.7462    4.5108 C   0  0  0  0  0  0  0  0  0  0  0  0
   -3.5858    4.8100    4.6818 S   0  0  0  0  0  0  0  0  0  0  0  0
   -4.5846    3.6615    5.4455 C   0  0  0  0  0  0  0  0  0  0  0  0
   -3.8844    2.4466    5.6026 C   0  0  0  0  0  0  0  0  0  0  0  0
   -4.1732    1.5041    6.6475 N   0  0  0  0  0  0  0  0  0  0  0  0
   -3.2976    1.4664    7.7910 C   0  0  0  0  0  0  0  0  0  0  0  0
   -2.7492    2.6545    8.3123 C   0  0  0  0  0  0  0  0  0  0  0  0
   -1.8528    2.6157    9.3830 C   0  0  0  0  0  0  0  0  0  0  0  0
   -1.5021    1.3876    9.9644 C   0  0  0  0  0  0  0  0  0  0  0  0
   -0.4813    1.3339   11.0644 C   0  0  0  0  0  0  0  0  0  0  0  0
   -2.0507    0.1997    9.4514 C   0  0  0  0  0  0  0  0  0  0  0  0
   -2.9506    0.2388    8.3786 C   0  0  0  0  0  0  0  0  0  0  0  0
   -5.4569    0.8683    6.7264 C   0  0  0  0  0  0  0  0  0  0  0  0
   -5.7928   -0.1671    5.8426 C   0  0  0  0  0  0  0  0  0  0  0  0
   -7.0305   -0.8150    5.9539 C   0  0  0  0  0  0  0  0  0  0  0  0
   -7.9527   -0.4153    6.9344 C   0  0  0  0  0  0  0  0  0  0  0  0
   -9.2537   -1.1447    7.0897 C   0  0  0  0  0  0  0  0  0  0  0  0
   -7.6146    0.6153    7.8245 C   0  0  0  0  0  0  0  0  0  0  0  0
   -6.3755    1.2571    7.7169 C   0  0  0  0  0  0  0  0  0  0  0  0
   -2.6312    2.5359    5.0094 C   0  0  0  0  0  0  0  0  0  0  0  0
   -1.4763    1.4085    4.5668 S   0  0  0  0  0  0  0  0  0  0  0  0
   -6.0347    3.8078    5.6081 C   0  0  0  0  0  0  0  0  0  0  0  0
   -6.8926    3.1872    4.7734 C   0  0  0  0  0  0  0  0  0  0  0  0
   -6.5197    2.3139    3.6523 C   0  0  0  0  0  0  0  0  0  0  0  0
   -5.4091    2.2953    3.0499 O   0  0  0  0  0  0  0  0  0  0  0  0
   -7.6484    1.4651    3.3428 C   0  0  0  0  0  0  0  0  0  0  0  0
   -7.6614    0.3391    2.5179 C   0  0  0  0  0  0  0  0  0  0  0  0
   -8.7979   -0.4826    2.5364 C   0  0  0  0  0  0  0  0  0  0  0  0
   -9.8934   -0.1810    3.3852 C   0  0  0  0  0  0  0  0  0  0  0  0
  -11.0164   -1.0139    3.4837 O   0  0  0  0  0  0  0  0  0  0  0  0
  -11.1396   -2.2828    2.8334 C   0  0  0  0  0  0  0  0  0  0  0  0
   -9.8456    0.9700    4.1919 C   0  0  0  0  0  0  0  0  0  0  0  0
   -8.7163    1.8040    4.1459 C   0  0  0  0  0  0  0  0  0  0  0  0
   -8.3578    2.9849    4.9768 C   0  0  0  0  0  0  0  0  0  0  0  0
   -9.2253    3.8487    5.5559 C   0  0  0  0  0  0  0  0  0  0  0  0
  -10.6464    3.6824    5.4612 C   0  0  0  0  0  0  0  0  0  0  0  0
  -11.7940    3.5508    5.3838 N   0  0  0  0  0  0  0  0  0  0  0  0
   -8.7949    5.0738    6.1789 C   0  0  0  0  0  0  0  0  0  0  0  0
   -8.4517    6.0606    6.6777 N   0  0  0  0  0  0  0  0  0  0  0  0
    5.7195   -3.9581   -6.8412 H   0  0  0  0  0  0  0  0  0  0  0  0
    1.6848   -6.3478   -2.7232 H   0  0  0  0  0  0  0  0  0  0  0  0
    3.9725   -9.1833   -6.2948 H   0  0  0  0  0  0  0  0  0  0  0  0
    0.7155  -10.1868   -5.6208 H   0  0  0  0  0  0  0  0  0  0  0  0
    1.8758  -12.2491   -4.6324 H   0  0  0  0  0  0  0  0  0  0  0  0
    3.7668  -11.5137   -2.9037 H   0  0  0  0  0  0  0  0  0  0  0  0
    2.6580  -10.0504   -1.0598 H   0  0  0  0  0  0  0  0  0  0  0  0
    0.0648   -9.8684   -1.5816 H   0  0  0  0  0  0  0  0  0  0  0  0
    0.5571  -12.3550   -2.3289 H   0  0  0  0  0  0  0  0  0  0  0  0
   -0.4816  -11.5510   -3.5946 H   0  0  0  0  0  0  0  0  0  0  0  0
   -0.3238   -8.9092   -3.9410 H   0  0  0  0  0  0  0  0  0  0  0  0
    2.1903   -0.8883   -7.7240 H   0  0  0  0  0  0  0  0  0  0  0  0
    0.3669    0.6137   -8.4217 H   0  0  0  0  0  0  0  0  0  0  0  0
   -2.1709    1.2675   -7.3868 H   0  0  0  0  0  0  0  0  0  0  0  0
   -3.2902   -0.0909   -7.7779 H   0  0  0  0  0  0  0  0  0  0  0  0
   -2.2068    0.5862   -9.0462 H   0  0  0  0  0  0  0  0  0  0  0  0
   -2.4965   -2.0139   -6.5417 H   0  0  0  0  0  0  0  0  0  0  0  0
   -0.6827   -3.4842   -5.8277 H   0  0  0  0  0  0  0  0  0  0  0  0
    0.5770   -5.3861   -5.7471 H   0  0  0  0  0  0  0  0  0  0  0  0
    0.7319   -7.5270   -6.9257 H   0  0  0  0  0  0  0  0  0  0  0  0
    1.8686   -8.2209   -9.8770 H   0  0  0  0  0  0  0  0  0  0  0  0
    3.5288   -8.4049   -9.1752 H   0  0  0  0  0  0  0  0  0  0  0  0
    2.1102   -9.0304   -8.2771 H   0  0  0  0  0  0  0  0  0  0  0  0
    3.8214   -5.9048   -9.4611 H   0  0  0  0  0  0  0  0  0  0  0  0
    3.5817   -3.7193   -8.3502 H   0  0  0  0  0  0  0  0  0  0  0  0
    5.3682    2.2346   -5.6436 H   0  0  0  0  0  0  0  0  0  0  0  0
    7.7682    2.4519   -6.1507 H   0  0  0  0  0  0  0  0  0  0  0  0
   10.1078    1.6978   -5.4968 H   0  0  0  0  0  0  0  0  0  0  0  0
   10.5029    1.4643   -3.7595 H   0  0  0  0  0  0  0  0  0  0  0  0
   10.1102    3.1183   -4.3788 H   0  0  0  0  0  0  0  0  0  0  0  0
    8.7162    1.2319   -2.1193 H   0  0  0  0  0  0  0  0  0  0  0  0
    6.3112    1.0111   -1.6232 H   0  0  0  0  0  0  0  0  0  0  0  0
    4.8719    3.7985   -1.9240 H   0  0  0  0  0  0  0  0  0  0  0  0
    3.5680    5.8828   -1.8506 H   0  0  0  0  0  0  0  0  0  0  0  0
    0.9038    6.7451   -4.2249 H   0  0  0  0  0  0  0  0  0  0  0  0
    0.3609    6.2758   -2.5669 H   0  0  0  0  0  0  0  0  0  0  0  0
    1.8387    7.3071   -2.7961 H   0  0  0  0  0  0  0  0  0  0  0  0
    0.7598    4.2285   -4.6776 H   0  0  0  0  0  0  0  0  0  0  0  0
    2.0724    2.1647   -4.7723 H   0  0  0  0  0  0  0  0  0  0  0  0
   -3.1795   -1.0303   -1.4244 H   0  0  0  0  0  0  0  0  0  0  0  0
   -3.6926   -3.1836   -0.3617 H   0  0  0  0  0  0  0  0  0  0  0  0
   -2.3036   -5.7193   -1.4169 H   0  0  0  0  0  0  0  0  0  0  0  0
   -0.6898   -6.2212   -0.7360 H   0  0  0  0  0  0  0  0  0  0  0  0
   -2.1714   -7.1826   -0.3707 H   0  0  0  0  0  0  0  0  0  0  0  0
    0.4669   -3.7550    0.5406 H   0  0  0  0  0  0  0  0  0  0  0  0
    1.0148   -1.6437   -0.5647 H   0  0  0  0  0  0  0  0  0  0  0  0
   -2.0389   -1.2212   -3.7302 H   0  0  0  0  0  0  0  0  0  0  0  0
   -3.6121   -0.2385   -5.3452 H   0  0  0  0  0  0  0  0  0  0  0  0
   -5.8680    1.7143   -4.3100 H   0  0  0  0  0  0  0  0  0  0  0  0
   -5.3999    3.4525   -4.0565 H   0  0  0  0  0  0  0  0  0  0  0  0
   -6.5793    3.0070   -5.3466 H   0  0  0  0  0  0  0  0  0  0  0  0
   -2.5335    3.7043   -4.0121 H   0  0  0  0  0  0  0  0  0  0  0  0
   -1.1165    2.7380   -2.2647 H   0  0  0  0  0  0  0  0  0  0  0  0
    2.4489    3.8003    4.9131 H   0  0  0  0  0  0  0  0  0  0  0  0
    3.8328    5.8293    5.1737 H   0  0  0  0  0  0  0  0  0  0  0  0
    5.2086    7.6792    1.3414 H   0  0  0  0  0  0  0  0  0  0  0  0
    3.8620    7.8477    2.5542 H   0  0  0  0  0  0  0  0  0  0  0  0
    5.1944    9.0636    2.5034 H   0  0  0  0  0  0  0  0  0  0  0  0
    5.8360    4.9273    1.4712 H   0  0  0  0  0  0  0  0  0  0  0  0
    4.4496    2.9143    1.2124 H   0  0  0  0  0  0  0  0  0  0  0  0
    1.3833   -0.3824    2.4023 H   0  0  0  0  0  0  0  0  0  0  0  0
    1.8802   -2.4654    3.5603 H   0  0  0  0  0  0  0  0  0  0  0  0
    5.3356   -4.6840    4.7330 H   0  0  0  0  0  0  0  0  0  0  0  0
    5.7488   -2.9767    4.3273 H   0  0  0  0  0  0  0  0  0  0  0  0
    4.4024   -3.8215    3.4569 H   0  0  0  0  0  0  0  0  0  0  0  0
    4.8163   -0.4601    5.9673 H   0  0  0  0  0  0  0  0  0  0  0  0
    4.3408    1.6455    4.8366 H   0  0  0  0  0  0  0  0  0  0  0  0
    1.4624    4.9433    1.7175 H   0  0  0  0  0  0  0  0  0  0  0  0
    1.5781    6.4887   -0.1857 H   0  0  0  0  0  0  0  0  0  0  0  0
   -0.7198    8.2343   -1.6258 H   0  0  0  0  0  0  0  0  0  0  0  0
    0.9389    8.7038   -1.0570 H   0  0  0  0  0  0  0  0  0  0  0  0
   -0.5014    9.5549   -0.4099 H   0  0  0  0  0  0  0  0  0  0  0  0
   -2.0721    8.3686    1.1333 H   0  0  0  0  0  0  0  0  0  0  0  0
   -2.1855    6.8115    3.0282 H   0  0  0  0  0  0  0  0  0  0  0  0
   -0.1793    3.9988    6.2715 H   0  0  0  0  0  0  0  0  0  0  0  0
    0.8490    5.0348    8.2169 H   0  0  0  0  0  0  0  0  0  0  0  0
    2.0850    6.8025    9.2571 H   0  0  0  0  0  0  0  0  0  0  0  0
    1.6149    8.4114    8.5947 H   0  0  0  0  0  0  0  0  0  0  0  0
    3.1987    7.6673    8.1423 H   0  0  0  0  0  0  0  0  0  0  0  0
    2.0019    8.4296    5.8315 H   0  0  0  0  0  0  0  0  0  0  0  0
    0.9506    7.4382    3.8814 H   0  0  0  0  0  0  0  0  0  0  0  0
   -3.0173    3.6160    7.8903 H   0  0  0  0  0  0  0  0  0  0  0  0
   -1.4302    3.5407    9.7509 H   0  0  0  0  0  0  0  0  0  0  0  0
   -0.6387    0.4414   11.7053 H   0  0  0  0  0  0  0  0  0  0  0  0
    0.5340    1.2815   10.6209 H   0  0  0  0  0  0  0  0  0  0  0  0
   -0.5484    2.2358   11.7078 H   0  0  0  0  0  0  0  0  0  0  0  0
   -1.7720   -0.7589    9.8680 H   0  0  0  0  0  0  0  0  0  0  0  0
   -3.3585   -0.6852    7.9890 H   0  0  0  0  0  0  0  0  0  0  0  0
   -5.0935   -0.4760    5.0778 H   0  0  0  0  0  0  0  0  0  0  0  0
   -7.2682   -1.6233    5.2719 H   0  0  0  0  0  0  0  0  0  0  0  0
   -9.5155   -1.7048    6.1670 H   0  0  0  0  0  0  0  0  0  0  0  0
  -10.0779   -0.4259    7.2971 H   0  0  0  0  0  0  0  0  0  0  0  0
   -9.1749   -1.8567    7.9400 H   0  0  0  0  0  0  0  0  0  0  0  0
   -8.3037    0.9158    8.6012 H   0  0  0  0  0  0  0  0  0  0  0  0
   -6.1350    2.0672    8.3932 H   0  0  0  0  0  0  0  0  0  0  0  0
   -6.3756    4.3333    6.4867 H   0  0  0  0  0  0  0  0  0  0  0  0
   -6.8021    0.0833    1.9178 H   0  0  0  0  0  0  0  0  0  0  0  0
   -8.8014   -1.3747    1.9195 H   0  0  0  0  0  0  0  0  0  0  0  0
  -10.3123   -2.9584    3.1501 H   0  0  0  0  0  0  0  0  0  0  0  0
  -12.1033   -2.7501    3.1212 H   0  0  0  0  0  0  0  0  0  0  0  0
  -11.1244   -2.1499    1.7299 H   0  0  0  0  0  0  0  0  0  0  0  0
  -10.6464    1.1561    4.8889 H   0  0  0  0  0  0  0  0  0  0  0  0
  1  2  2  3
  2  3  1  0
  3  4  2  0
  3  5  1  0
  5  6  2  0
  6  7  1  0
  7  8  2  0
  8  9  1  0
  9 10  2  0
 10 11  1  0
 11 12  2  3
 12 13  1  0
 13 14  3  0
 12 15  1  0
 15 16  3  0
  8 17  1  0
 17 18  1  0
 18 19  1  0
 19 20  2  0
 20 21  1  0
 21 22  1  0
 21 23  1  0
  1 24  1  0
 24 25  2  0
 25 26  1  0
 26 27  1  0
 27 28  2  0
 28 29  1  0
 29 30  2  0
 30 31  1  0
 30 32  1  0
 32 33  2  0
 26 34  1  0
 34 35  2  0
 35 36  1  0
 36 37  2  0
 37 38  1  0
 37 39  1  0
 39 40  2  0
 25 41  1  0
 41 42  1  0
 42 43  1  0
 43 44  2  0
 44 45  1  0
 45 46  1  0
 46 47  2  0
 47 48  1  0
 48 49  2  0
 49 50  1  0
 49 51  1  0
 51 52  2  0
 45 53  1  0
 53 54  2  0
 54 55  1  0
 55 56  2  0
 56 57  1  0
 56 58  1  0
 58 59  2  0
 44 60  1  0
 60 61  1  0
 43 62  1  0
 62 63  2  0
 63 64  1  0
 64 65  1  0
 65 66  2  0
 66 67  1  0
 67 68  2  0
 68 69  1  0
 69 70  1  0
 68 71  1  0
 71 72  2  0
 64 73  1  0
 73 74  2  0
 74 75  1  0
 75 76  2  0
 76 77  1  0
 77 78  1  0
 76 79  1  0
 79 80  2  0
 63 81  1  0
 81 82  1  0
 82 83  1  0
 83 84  2  0
 84 85  1  0
 85 86  1  0
 86 87  2  0
 87 88  1  0
 88 89  2  0
 89 90  1  0
 90 91  1  0
 89 92  1  0
 92 93  2  0
 85 94  1  0
 94 95  2  0
 95 96  1  0
 96 97  2  0
 97 98  1  0
 98 99  1  0
 97100  1  0
100101  2  0
 84102  1  0
102103  1  0
 83104  1  0
104105  2  0
105106  1  0
106107  1  0
107108  2  0
108109  1  0
109110  2  0
110111  1  0
110112  1  0
112113  2  0
106114  1  0
114115  2  0
115116  1  0
116117  2  0
117118  1  0
117119  1  0
119120  2  0
105121  1  0
121122  1  0
122123  1  0
123124  2  0
124125  1  0
125126  1  0
126127  2  0
127128  1  0
128129  2  0
129130  1  0
129131  1  0
131132  2  0
125133  1  0
133134  2  0
134135  1  0
135136  2  0
136137  1  0
136138  1  0
138139  2  0
124140  1  0
140141  1  0
123142  1  0
142143  2  3
143144  1  0
144145  2  0
144146  1  0
146147  2  0
147148  1  0
148149  2  0
149150  1  0
150151  1  0
149152  1  0
152153  2  0
153154  1  0
154155  2  3
155156  1  0
156157  3  0
155158  1  0
158159  3  0
 11  2  1  0
 23 17  1  0
 61 24  1  0
103 62  1  0
141104  1  0
154143  1  0
 10  5  1  0
 22 18  1  0
 33 27  1  0
 40 34  1  0
 60 41  2  0
 72 65  1  0
 80 73  1  0
102 81  2  0
113107  1  0
120114  1  0
140121  2  0
153146  1  0
 23  7  1  0
 52 46  1  0
 59 53  1  0
 93 86  1  0
101 94  1  0
132126  1  0
139133  1  0
  1160  1  0
  6161  1  0
  9162  1  0
 17163  1  0
 18164  1  0
 19165  1  0
 20166  1  0
 21167  1  0
 22168  1  0
 22169  1  0
 23170  1  0
 28171  1  0
 29172  1  0
 31173  1  0
 31174  1  0
 31175  1  0
 32176  1  0
 33177  1  0
 35178  1  0
 36179  1  0
 38180  1  0
 38181  1  0
 38182  1  0
 39183  1  0
 40184  1  0
 47185  1  0
 48186  1  0
 50187  1  0
 50188  1  0
 50189  1  0
 51190  1  0
 52191  1  0
 54192  1  0
 55193  1  0
 57194  1  0
 57195  1  0
 57196  1  0
 58197  1  0
 59198  1  0
 66199  1  0
 67200  1  0
 70201  1  0
 70202  1  0
 70203  1  0
 71204  1  0
 72205  1  0
 74206  1  0
 75207  1  0
 78208  1  0
 78209  1  0
 78210  1  0
 79211  1  0
 80212  1  0
 87213  1  0
 88214  1  0
 91215  1  0
 91216  1  0
 91217  1  0
 92218  1  0
 93219  1  0
 95220  1  0
 96221  1  0
 99222  1  0
 99223  1  0
 99224  1  0
100225  1  0
101226  1  0
108227  1  0
109228  1  0
111229  1  0
111230  1  0
111231  1  0
112232  1  0
113233  1  0
115234  1  0
116235  1  0
118236  1  0
118237  1  0
118238  1  0
119239  1  0
120240  1  0
127241  1  0
128242  1  0
130243  1  0
130244  1  0
130245  1  0
131246  1  0
132247  1  0
134248  1  0
135249  1  0
137250  1  0
137251  1  0
137252  1  0
138253  1  0
139254  1  0
142255  1  0
147256  1  0
148257  1  0
151258  1  0
151259  1  0
151260  1  0
152261  1  0
M  END

