
     RDKit          3D

232256  0  0  0  0  0  0  0  0999 V2000
   -6.0404    3.3404    2.3507 C   0  0  0  0  0  0  0  0  0  0  0  0
   -6.3038    3.4796    3.6664 C   0  0  0  0  0  0  0  0  0  0  0  0
   -7.6453    3.8450    4.1327 C   0  0  0  0  0  0  0  0  0  0  0  0
   -8.6166    4.1648    3.3928 O   0  0  0  0  0  0  0  0  0  0  0  0
   -7.6973    3.7422    5.5751 C   0  0  0  0  0  0  0  0  0  0  0  0
   -8.7286    4.2183    6.4150 C   0  0  0  0  0  0  0  0  0  0  0  0
   -8.3707    4.2925    7.7517 C   0  0  0  0  0  0  0  0  0  0  0  0
   -7.0903    3.8829    8.2362 C   0  0  0  0  0  0  0  0  0  0  0  0
   -6.0903    3.3791    7.4292 C   0  0  0  0  0  0  0  0  0  0  0  0
   -6.4277    3.3112    6.0488 C   0  0  0  0  0  0  0  0  0  0  0  0
   -5.5050    3.1418    4.8896 C   0  0  0  0  0  0  0  0  0  0  0  0
   -4.2022    2.7912    4.9962 C   0  0  0  0  0  0  0  0  0  0  0  0
   -3.1742    3.4180    4.2132 C   0  0  0  0  0  0  0  0  0  0  0  0
   -2.2938    3.8933    3.6220 N   0  0  0  0  0  0  0  0  0  0  0  0
   -3.7626    1.9245    6.0569 C   0  0  0  0  0  0  0  0  0  0  0  0
   -3.4539    1.1962    6.9062 N   0  0  0  0  0  0  0  0  0  0  0  0
   -7.4334    4.3760    9.6077 C   0  0  0  0  0  0  0  0  0  0  0  0
   -7.7817    3.3031   10.6818 C   0  0  0  0  0  0  0  0  0  0  0  0
   -8.4345    4.0609   11.8116 C   0  0  0  0  0  0  0  0  0  0  0  0
   -9.6307    4.4550   11.3645 C   0  0  0  0  0  0  0  0  0  0  0  0
   -9.7479    3.9492    9.9460 C   0  0  0  0  0  0  0  0  0  0  0  0
   -9.0124    2.6269   10.1056 C   0  0  0  0  0  0  0  0  0  0  0  0
   -8.7502    4.8027    9.1096 C   0  0  0  0  0  0  0  0  0  0  0  0
   -4.7877    2.8856    1.7427 C   0  0  0  0  0  0  0  0  0  0  0  0
   -4.0916    1.6561    1.8991 C   0  0  0  0  0  0  0  0  0  0  0  0
   -4.6737    0.4006    2.3519 N   0  0  0  0  0  0  0  0  0  0  0  0
   -4.1486   -0.8407    1.8494 C   0  0  0  0  0  0  0  0  0  0  0  0
   -4.1647   -1.1009    0.4682 C   0  0  0  0  0  0  0  0  0  0  0  0
   -3.6872   -2.3160   -0.0282 C   0  0  0  0  0  0  0  0  0  0  0  0
   -3.1958   -3.2915    0.8506 C   0  0  0  0  0  0  0  0  0  0  0  0
   -2.7287   -4.6126    0.3191 C   0  0  0  0  0  0  0  0  0  0  0  0
   -3.2112   -3.0448    2.2332 C   0  0  0  0  0  0  0  0  0  0  0  0
   -3.6926   -1.8256    2.7305 C   0  0  0  0  0  0  0  0  0  0  0  0
   -6.0388    0.3419    2.7861 C   0  0  0  0  0  0  0  0  0  0  0  0
   -7.0787    0.5522    1.8632 C   0  0  0  0  0  0  0  0  0  0  0  0
   -8.4025    0.6006    2.2986 C   0  0  0  0  0  0  0  0  0  0  0  0
   -8.7119    0.3938    3.6512 C   0  0  0  0  0  0  0  0  0  0  0  0
  -10.1224    0.5398    4.1324 C   0  0  0  0  0  0  0  0  0  0  0  0
   -7.6735    0.1242    4.5643 C   0  0  0  0  0  0  0  0  0  0  0  0
   -6.3480    0.0992    4.1294 C   0  0  0  0  0  0  0  0  0  0  0  0
   -2.8417    1.7527    1.2586 C   0  0  0  0  0  0  0  0  0  0  0  0
   -1.4733    0.7816    1.1217 S   0  0  0  0  0  0  0  0  0  0  0  0
   -0.6859    1.8102    0.0046 C   0  0  0  0  0  0  0  0  0  0  0  0
   -1.5247    2.8894   -0.2868 C   0  0  0  0  0  0  0  0  0  0  0  0
   -1.4603    3.6642   -1.4948 N   0  0  0  0  0  0  0  0  0  0  0  0
   -1.4449    5.0953   -1.3550 C   0  0  0  0  0  0  0  0  0  0  0  0
   -2.4262    5.8834   -1.9770 C   0  0  0  0  0  0  0  0  0  0  0  0
   -2.4990    7.2558   -1.7205 C   0  0  0  0  0  0  0  0  0  0  0  0
   -1.6052    7.8552   -0.8272 C   0  0  0  0  0  0  0  0  0  0  0  0
   -1.6794    9.3297   -0.5579 C   0  0  0  0  0  0  0  0  0  0  0  0
   -0.6003    7.0812   -0.2292 C   0  0  0  0  0  0  0  0  0  0  0  0
   -0.5245    5.7089   -0.4889 C   0  0  0  0  0  0  0  0  0  0  0  0
   -1.8549    3.0381   -2.7431 C   0  0  0  0  0  0  0  0  0  0  0  0
   -1.4025    3.5522   -3.9702 C   0  0  0  0  0  0  0  0  0  0  0  0
   -1.7879    2.9509   -5.1756 C   0  0  0  0  0  0  0  0  0  0  0  0
   -2.6294    1.8298   -5.1741 C   0  0  0  0  0  0  0  0  0  0  0  0
   -3.0126    1.1620   -6.4598 C   0  0  0  0  0  0  0  0  0  0  0  0
   -3.0635    1.2985   -3.9577 C   0  0  0  0  0  0  0  0  0  0  0  0
   -2.6886    1.8978   -2.7568 C   0  0  0  0  0  0  0  0  0  0  0  0
   -2.6681    2.8588    0.4947 C   0  0  0  0  0  0  0  0  0  0  0  0
   -3.9803    3.8765    0.6249 S   0  0  0  0  0  0  0  0  0  0  0  0
    0.6486    1.5483   -0.5602 C   0  0  0  0  0  0  0  0  0  0  0  0
    1.6778    0.8784    0.1192 C   0  0  0  0  0  0  0  0  0  0  0  0
    1.8003    0.8029    1.5577 N   0  0  0  0  0  0  0  0  0  0  0  0
    1.5535    1.9755    2.3720 C   0  0  0  0  0  0  0  0  0  0  0  0
    1.7835    3.2707    1.8650 C   0  0  0  0  0  0  0  0  0  0  0  0
    1.6047    4.3957    2.6719 C   0  0  0  0  0  0  0  0  0  0  0  0
    1.2340    4.2453    4.0073 C   0  0  0  0  0  0  0  0  0  0  0  0
    1.0701    5.6866    5.0613 S   0  0  0  0  0  0  0  0  0  0  0  0
    2.8343    5.7035    5.5159 C   0  0  0  0  0  0  0  0  0  0  0  0
    1.0019    2.9679    4.5235 C   0  0  0  0  0  0  0  0  0  0  0  0
    1.1485    1.8409    3.7114 C   0  0  0  0  0  0  0  0  0  0  0  0
    2.4698   -0.3195    2.1555 C   0  0  0  0  0  0  0  0  0  0  0  0
    3.6781   -0.1298    2.8425 C   0  0  0  0  0  0  0  0  0  0  0  0
    4.3281   -1.2114    3.4423 C   0  0  0  0  0  0  0  0  0  0  0  0
    3.7671   -2.4935    3.3683 C   0  0  0  0  0  0  0  0  0  0  0  0
    4.5693   -3.8745    4.1916 S   0  0  0  0  0  0  0  0  0  0  0  0
    3.8094   -3.5100    5.8048 C   0  0  0  0  0  0  0  0  0  0  0  0
    2.5691   -2.6890    2.6701 C   0  0  0  0  0  0  0  0  0  0  0  0
    1.9247   -1.6102    2.0543 C   0  0  0  0  0  0  0  0  0  0  0  0
    2.7077    0.5447   -0.7572 C   0  0  0  0  0  0  0  0  0  0  0  0
    3.9756   -0.5305   -0.6734 S   0  0  0  0  0  0  0  0  0  0  0  0
    4.3593   -0.4321   -2.3319 C   0  0  0  0  0  0  0  0  0  0  0  0
    3.5165    0.5253   -2.9377 C   0  0  0  0  0  0  0  0  0  0  0  0
    3.9424    1.2578   -4.1022 N   0  0  0  0  0  0  0  0  0  0  0  0
    3.0533    1.6132   -5.1925 C   0  0  0  0  0  0  0  0  0  0  0  0
    3.4124    2.6352   -6.1007 C   0  0  0  0  0  0  0  0  0  0  0  0
    2.6248    2.9118   -7.2171 C   0  0  0  0  0  0  0  0  0  0  0  0
    1.4288    2.2269   -7.4245 C   0  0  0  0  0  0  0  0  0  0  0  0
    0.4568    2.5517   -8.9000 S   0  0  0  0  0  0  0  0  0  0  0  0
   -0.0475    4.2513   -8.4520 C   0  0  0  0  0  0  0  0  0  0  0  0
    1.0296    1.2459   -6.5067 C   0  0  0  0  0  0  0  0  0  0  0  0
    1.8409    0.9308   -5.4055 C   0  0  0  0  0  0  0  0  0  0  0  0
    5.2847    1.7832   -4.0663 C   0  0  0  0  0  0  0  0  0  0  0  0
    6.2325    1.3920   -5.0225 C   0  0  0  0  0  0  0  0  0  0  0  0
    7.5182    1.9478   -5.0080 C   0  0  0  0  0  0  0  0  0  0  0  0
    7.8628    2.8888   -4.0321 C   0  0  0  0  0  0  0  0  0  0  0  0
    9.4821    3.6643   -4.0469 S   0  0  0  0  0  0  0  0  0  0  0  0
   10.1828    2.5614   -2.7776 C   0  0  0  0  0  0  0  0  0  0  0  0
    6.9222    3.2681   -3.0681 C   0  0  0  0  0  0  0  0  0  0  0  0
    5.6405    2.7131   -3.0804 C   0  0  0  0  0  0  0  0  0  0  0  0
    2.5775    1.0085   -2.0292 C   0  0  0  0  0  0  0  0  0  0  0  0
    1.1180    1.8175   -2.1827 S   0  0  0  0  0  0  0  0  0  0  0  0
    4.6800   -1.6856   -3.0230 C   0  0  0  0  0  0  0  0  0  0  0  0
    6.0013   -2.1237   -3.2305 C   0  0  0  0  0  0  0  0  0  0  0  0
    7.1675   -1.3690   -3.0440 C   0  0  0  0  0  0  0  0  0  0  0  0
    8.3252   -2.1119   -3.2709 C   0  0  0  0  0  0  0  0  0  0  0  0
    9.7267   -1.5838   -3.2025 C   0  0  0  0  0  0  0  0  0  0  0  0
   10.1645   -1.0444   -4.5622 C   0  0  0  0  0  0  0  0  0  0  0  0
    7.9108   -3.6930   -3.6989 S   0  0  0  0  0  0  0  0  0  0  0  0
    6.2521   -3.4510   -3.6118 C   0  0  0  0  0  0  0  0  0  0  0  0
    5.2231   -4.3953   -3.7754 C   0  0  0  0  0  0  0  0  0  0  0  0
    3.9020   -3.9421   -3.6147 C   0  0  0  0  0  0  0  0  0  0  0  0
    3.6527   -2.6195   -3.2585 C   0  0  0  0  0  0  0  0  0  0  0  0
    1.9957   -2.4309   -3.0059 S   0  0  0  0  0  0  0  0  0  0  0  0
    1.5854   -4.0280   -3.3634 C   0  0  0  0  0  0  0  0  0  0  0  0
    0.1952   -4.5875   -3.3199 C   0  0  0  0  0  0  0  0  0  0  0  0
   -0.5511   -4.3038   -4.6182 C   0  0  0  0  0  0  0  0  0  0  0  0
    2.7393   -4.7358   -3.6888 C   0  0  0  0  0  0  0  0  0  0  0  0
    5.5100   -5.8297   -3.9534 C   0  0  0  0  0  0  0  0  0  0  0  0
    5.4899   -6.6881   -2.9130 C   0  0  0  0  0  0  0  0  0  0  0  0
    5.2464   -6.3186   -1.5140 C   0  0  0  0  0  0  0  0  0  0  0  0
    5.3453   -5.1667   -1.0174 O   0  0  0  0  0  0  0  0  0  0  0  0
    4.8543   -7.4996   -0.7773 C   0  0  0  0  0  0  0  0  0  0  0  0
    4.5064   -7.5775    0.5909 C   0  0  0  0  0  0  0  0  0  0  0  0
    4.1166   -8.8415    0.9933 C   0  0  0  0  0  0  0  0  0  0  0  0
    4.0343   -9.9564    0.0994 C   0  0  0  0  0  0  0  0  0  0  0  0
    4.3950   -9.8907   -1.2375 C   0  0  0  0  0  0  0  0  0  0  0  0
    4.8518   -8.6097   -1.6622 C   0  0  0  0  0  0  0  0  0  0  0  0
    5.3836   -8.1737   -2.9893 C   0  0  0  0  0  0  0  0  0  0  0  0
    5.8751   -8.9723   -3.9703 C   0  0  0  0  0  0  0  0  0  0  0  0
    6.6268   -8.4492   -5.0832 C   0  0  0  0  0  0  0  0  0  0  0  0
    7.2412   -8.0390   -5.9768 N   0  0  0  0  0  0  0  0  0  0  0  0
    5.7680  -10.4074   -3.9373 C   0  0  0  0  0  0  0  0  0  0  0  0
    5.6738  -11.5598   -3.9334 N   0  0  0  0  0  0  0  0  0  0  0  0
    3.5293  -10.8291    1.2063 C   0  0  0  0  0  0  0  0  0  0  0  0
    2.0051  -11.1592    1.2543 C   0  0  0  0  0  0  0  0  0  0  0  0
    1.1994  -10.0024    0.7108 C   0  0  0  0  0  0  0  0  0  0  0  0
    1.3273   -9.0007    1.5806 C   0  0  0  0  0  0  0  0  0  0  0  0
    2.2202   -9.5081    2.6842 C   0  0  0  0  0  0  0  0  0  0  0  0
    1.7526  -10.9503    2.7300 C   0  0  0  0  0  0  0  0  0  0  0  0
    3.6643   -9.7051    2.1368 C   0  0  0  0  0  0  0  0  0  0  0  0
   -6.7912    3.6634    1.6414 H   0  0  0  0  0  0  0  0  0  0  0  0
   -9.6696    4.6052    6.0454 H   0  0  0  0  0  0  0  0  0  0  0  0
   -5.1036    3.1942    7.8272 H   0  0  0  0  0  0  0  0  0  0  0  0
   -6.7894    5.2132    9.9647 H   0  0  0  0  0  0  0  0  0  0  0  0
   -6.9520    2.6295   10.9799 H   0  0  0  0  0  0  0  0  0  0  0  0
   -8.0466    4.2099   12.8097 H   0  0  0  0  0  0  0  0  0  0  0  0
  -10.3819    4.9860   11.9406 H   0  0  0  0  0  0  0  0  0  0  0  0
  -10.7815    3.8829    9.5451 H   0  0  0  0  0  0  0  0  0  0  0  0
   -9.5100    1.9332   10.8268 H   0  0  0  0  0  0  0  0  0  0  0  0
   -8.8260    2.0913    9.1482 H   0  0  0  0  0  0  0  0  0  0  0  0
   -8.9167    5.9025    9.1441 H   0  0  0  0  0  0  0  0  0  0  0  0
   -4.5471   -0.3586   -0.2207 H   0  0  0  0  0  0  0  0  0  0  0  0
   -3.7108   -2.4954   -1.0946 H   0  0  0  0  0  0  0  0  0  0  0  0
   -3.5553   -5.3535    0.3776 H   0  0  0  0  0  0  0  0  0  0  0  0
   -2.4063   -4.5216   -0.7417 H   0  0  0  0  0  0  0  0  0  0  0  0
   -1.8653   -4.9838    0.9115 H   0  0  0  0  0  0  0  0  0  0  0  0
   -2.8568   -3.7928    2.9293 H   0  0  0  0  0  0  0  0  0  0  0  0
   -3.7028   -1.6457    3.8005 H   0  0  0  0  0  0  0  0  0  0  0  0
   -6.8493    0.7328    0.8246 H   0  0  0  0  0  0  0  0  0  0  0  0
   -9.1787    0.8336    1.5801 H   0  0  0  0  0  0  0  0  0  0  0  0
  -10.8399    0.3550    3.3040 H   0  0  0  0  0  0  0  0  0  0  0  0
  -10.2720    1.5699    4.5184 H   0  0  0  0  0  0  0  0  0  0  0  0
  -10.3454   -0.1870    4.9384 H   0  0  0  0  0  0  0  0  0  0  0  0
   -7.8900   -0.0284    5.6152 H   0  0  0  0  0  0  0  0  0  0  0  0
   -5.5574   -0.0865    4.8441 H   0  0  0  0  0  0  0  0  0  0  0  0
   -3.1645    5.4321   -2.6252 H   0  0  0  0  0  0  0  0  0  0  0  0
   -3.2684    7.8416   -2.2048 H   0  0  0  0  0  0  0  0  0  0  0  0
   -0.9786    9.8611   -1.2371 H   0  0  0  0  0  0  0  0  0  0  0  0
   -1.4051    9.5431    0.4969 H   0  0  0  0  0  0  0  0  0  0  0  0
   -2.7115    9.7055   -0.7262 H   0  0  0  0  0  0  0  0  0  0  0  0
    0.1113    7.5340    0.4490 H   0  0  0  0  0  0  0  0  0  0  0  0
    0.2374    5.1151   -0.0002 H   0  0  0  0  0  0  0  0  0  0  0  0
   -0.7409    4.4074   -3.9984 H   0  0  0  0  0  0  0  0  0  0  0  0
   -1.4309    3.3534   -6.1106 H   0  0  0  0  0  0  0  0  0  0  0  0
   -2.9340    1.8604   -7.3157 H   0  0  0  0  0  0  0  0  0  0  0  0
   -2.3493    0.2908   -6.6336 H   0  0  0  0  0  0  0  0  0  0  0  0
   -4.0636    0.8024   -6.4119 H   0  0  0  0  0  0  0  0  0  0  0  0
   -3.6974    0.4212   -3.9386 H   0  0  0  0  0  0  0  0  0  0  0  0
   -3.0630    1.4722   -1.8390 H   0  0  0  0  0  0  0  0  0  0  0  0
    2.1288    3.4125    0.8484 H   0  0  0  0  0  0  0  0  0  0  0  0
    1.7877    5.3851    2.2635 H   0  0  0  0  0  0  0  0  0  0  0  0
    3.0831    4.7872    6.0957 H   0  0  0  0  0  0  0  0  0  0  0  0
    3.0435    6.5977    6.1419 H   0  0  0  0  0  0  0  0  0  0  0  0
    3.4589    5.7489    4.6001 H   0  0  0  0  0  0  0  0  0  0  0  0
    0.7037    2.8474    5.5526 H   0  0  0  0  0  0  0  0  0  0  0  0
    0.9555    0.8583    4.1296 H   0  0  0  0  0  0  0  0  0  0  0  0
    4.1217    0.8577    2.8929 H   0  0  0  0  0  0  0  0  0  0  0  0
    5.2581   -1.0485    3.9759 H   0  0  0  0  0  0  0  0  0  0  0  0
    4.3227   -2.6383    6.2583 H   0  0  0  0  0  0  0  0  0  0  0  0
    3.9167   -4.3829    6.4810 H   0  0  0  0  0  0  0  0  0  0  0  0
    2.7319   -3.2897    5.6818 H   0  0  0  0  0  0  0  0  0  0  0  0
    2.1281   -3.6760    2.6171 H   0  0  0  0  0  0  0  0  0  0  0  0
    1.0024   -1.7681    1.5130 H   0  0  0  0  0  0  0  0  0  0  0  0
    4.3131    3.2176   -5.9616 H   0  0  0  0  0  0  0  0  0  0  0  0
    2.9436    3.6682   -7.9218 H   0  0  0  0  0  0  0  0  0  0  0  0
   -1.1321    4.3742   -8.6630 H   0  0  0  0  0  0  0  0  0  0  0  0
    0.5180    4.9731   -9.0814 H   0  0  0  0  0  0  0  0  0  0  0  0
    0.1446    4.4834   -7.3824 H   0  0  0  0  0  0  0  0  0  0  0  0
    0.1159    0.6907   -6.6757 H   0  0  0  0  0  0  0  0  0  0  0  0
    1.5322    0.1296   -4.7463 H   0  0  0  0  0  0  0  0  0  0  0  0
    5.9671    0.6781   -5.7889 H   0  0  0  0  0  0  0  0  0  0  0  0
    8.2315    1.6707   -5.7753 H   0  0  0  0  0  0  0  0  0  0  0  0
   10.3570    1.5556   -3.2071 H   0  0  0  0  0  0  0  0  0  0  0  0
    9.5022    2.4875   -1.9030 H   0  0  0  0  0  0  0  0  0  0  0  0
   11.1531    2.9760   -2.4339 H   0  0  0  0  0  0  0  0  0  0  0  0
    7.1808    4.0079   -2.3206 H   0  0  0  0  0  0  0  0  0  0  0  0
    4.9134    3.0272   -2.3415 H   0  0  0  0  0  0  0  0  0  0  0  0
    7.1753   -0.3238   -2.7599 H   0  0  0  0  0  0  0  0  0  0  0  0
    9.7849   -0.7764   -2.4409 H   0  0  0  0  0  0  0  0  0  0  0  0
   10.4145   -2.4050   -2.8914 H   0  0  0  0  0  0  0  0  0  0  0  0
    9.5231   -0.1859   -4.8565 H   0  0  0  0  0  0  0  0  0  0  0  0
   10.0937   -1.8368   -5.3375 H   0  0  0  0  0  0  0  0  0  0  0  0
   11.2182   -0.6972   -4.4988 H   0  0  0  0  0  0  0  0  0  0  0  0
    0.2365   -5.6866   -3.1470 H   0  0  0  0  0  0  0  0  0  0  0  0
   -0.3527   -4.1213   -2.4729 H   0  0  0  0  0  0  0  0  0  0  0  0
   -0.0498   -4.8157   -5.4712 H   0  0  0  0  0  0  0  0  0  0  0  0
   -0.5880   -3.2117   -4.8131 H   0  0  0  0  0  0  0  0  0  0  0  0
   -1.5903   -4.6872   -4.5384 H   0  0  0  0  0  0  0  0  0  0  0  0
    2.7377   -5.7880   -3.9347 H   0  0  0  0  0  0  0  0  0  0  0  0
    5.5245   -6.1859   -4.9706 H   0  0  0  0  0  0  0  0  0  0  0  0
    4.5256   -6.7294    1.2613 H   0  0  0  0  0  0  0  0  0  0  0  0
    4.2981  -10.7519   -1.8708 H   0  0  0  0  0  0  0  0  0  0  0  0
    4.2027  -11.6853    1.4420 H   0  0  0  0  0  0  0  0  0  0  0  0
    1.7247  -12.1563    0.8572 H   0  0  0  0  0  0  0  0  0  0  0  0
    0.5316  -10.0123   -0.1407 H   0  0  0  0  0  0  0  0  0  0  0  0
    0.7940   -8.0582    1.5436 H   0  0  0  0  0  0  0  0  0  0  0  0
    2.1474   -8.9527    3.6401 H   0  0  0  0  0  0  0  0  0  0  0  0
    2.3782  -11.5976    3.3866 H   0  0  0  0  0  0  0  0  0  0  0  0
    0.6810  -11.0633    3.0180 H   0  0  0  0  0  0  0  0  0  0  0  0
    4.4408   -9.8629    2.9136 H   0  0  0  0  0  0  0  0  0  0  0  0
  1  2  2  3
  2  3  1  0
  3  4  2  0
  3  5  1  0
  5  6  2  0
  6  7  1  0
  7  8  2  0
  8  9  1  0
  9 10  2  0
 10 11  1  0
 11 12  2  3
 12 13  1  0
 13 14  3  0
 12 15  1  0
 15 16  3  0
  8 17  1  0
 17 18  1  0
 18 19  1  0
 19 20  2  0
 20 21  1  0
 21 22  1  0
 21 23  1  0
  1 24  1  0
 24 25  2  0
 25 26  1  0
 26 27  1  0
 27 28  2  0
 28 29  1  0
 29 30  2  0
 30 31  1  0
 30 32  1  0
 32 33  2  0
 26 34  1  0
 34 35  2  0
 35 36  1  0
 36 37  2  0
 37 38  1  0
 37 39  1  0
 39 40  2  0
 25 41  1  0
 41 42  1  0
 42 43  1  0
 43 44  2  0
 44 45  1  0
 45 46  1  0
 46 47  2  0
 47 48  1  0
 48 49  2  0
 49 50  1  0
 49 51  1  0
 51 52  2  0
 45 53  1  0
 53 54  2  0
 54 55  1  0
 55 56  2  0
 56 57  1  0
 56 58  1  0
 58 59  2  0
 44 60  1  0
 60 61  1  0
 43 62  1  0
 62 63  2  0
 63 64  1  0
 64 65  1  0
 65 66  2  0
 66 67  1  0
 67 68  2  0
 68 69  1  0
 69 70  1  0
 68 71  1  0
 71 72  2  0
 64 73  1  0
 73 74  2  0
 74 75  1  0
 75 76  2  0
 76 77  1  0
 77 78  1  0
 76 79  1  0
 79 80  2  0
 63 81  1  0
 81 82  1  0
 82 83  1  0
 83 84  2  0
 84 85  1  0
 85 86  1  0
 86 87  2  0
 87 88  1  0
 88 89  2  0
 89 90  1  0
 90 91  1  0
 89 92  1  0
 92 93  2  0
 85 94  1  0
 94 95  2  0
 95 96  1  0
 96 97  2  0
 97 98  1  0
 98 99  1  0
 97100  1  0
100101  2  0
 84102  1  0
102103  1  0
 83104  1  0
104105  2  0
105106  1  0
106107  2  0
107108  1  0
108109  1  0
107110  1  0
110111  1  0
111112  2  0
112113  1  0
113114  2  0
114115  1  0
115116  1  0
116117  1  0
117118  1  0
116119  2  0
112120  1  0
120121  2  3
121122  1  0
122123  2  0
122124  1  0
124125  2  0
125126  1  0
126127  2  0
127128  1  0
128129  2  0
129130  1  0
130131  2  3
131132  1  0
132133  3  0
131134  1  0
134135  3  0
127136  1  0
136137  1  0
137138  1  0
138139  2  0
139140  1  0
140141  1  0
140142  1  0
 11  2  1  0
 23 17  1  0
 61 24  1  0
103 62  1  0
114104  1  0
130121  1  0
142136  1  0
 10  5  1  0
 22 18  1  0
 33 27  1  0
 40 34  1  0
 60 41  2  0
 72 65  1  0
 80 73  1  0
102 81  2  0
111105  1  0
119113  1  0
129124  1  0
141137  1  0
 23  7  1  0
 52 46  1  0
 59 53  1  0
 93 86  1  0
101 94  1  0
142126  1  0
  1143  1  0
  6144  1  0
  9145  1  0
 17146  1  0
 18147  1  0
 19148  1  0
 20149  1  0
 21150  1  0
 22151  1  0
 22152  1  0
 23153  1  0
 28154  1  0
 29155  1  0
 31156  1  0
 31157  1  0
 31158  1  0
 32159  1  0
 33160  1  0
 35161  1  0
 36162  1  0
 38163  1  0
 38164  1  0
 38165  1  0
 39166  1  0
 40167  1  0
 47168  1  0
 48169  1  0
 50170  1  0
 50171  1  0
 50172  1  0
 51173  1  0
 52174  1  0
 54175  1  0
 55176  1  0
 57177  1  0
 57178  1  0
 57179  1  0
 58180  1  0
 59181  1  0
 66182  1  0
 67183  1  0
 70184  1  0
 70185  1  0
 70186  1  0
 71187  1  0
 72188  1  0
 74189  1  0
 75190  1  0
 78191  1  0
 78192  1  0
 78193  1  0
 79194  1  0
 80195  1  0
 87196  1  0
 88197  1  0
 91198  1  0
 91199  1  0
 91200  1  0
 92201  1  0
 93202  1  0
 95203  1  0
 96204  1  0
 99205  1  0
 99206  1  0
 99207  1  0
100208  1  0
101209  1  0
106210  1  0
108211  1  0
108212  1  0
109213  1  0
109214  1  0
109215  1  0
117216  1  0
117217  1  0
118218  1  0
118219  1  0
118220  1  0
119221  1  0
120222  1  0
125223  1  0
128224  1  0
136225  1  0
137226  1  0
138227  1  0
139228  1  0
140229  1  0
141230  1  0
141231  1  0
142232  1  0
M  END

