
     RDKit          3D

224248  0  0  0  0  0  0  0  0999 V2000
    7.3241   -1.7215   -4.5984 C   0  0  0  0  0  0  0  0  0  0  0  0
    6.3550   -2.3464   -5.3028 C   0  0  0  0  0  0  0  0  0  0  0  0
    4.9510   -1.9147   -5.3445 C   0  0  0  0  0  0  0  0  0  0  0  0
    4.5370   -0.7257   -5.2783 O   0  0  0  0  0  0  0  0  0  0  0  0
    4.1036   -3.0735   -5.4918 C   0  0  0  0  0  0  0  0  0  0  0  0
    2.6952   -3.1136   -5.3874 C   0  0  0  0  0  0  0  0  0  0  0  0
    2.1737   -4.3909   -5.3641 C   0  0  0  0  0  0  0  0  0  0  0  0
    2.9870   -5.5669   -5.4161 C   0  0  0  0  0  0  0  0  0  0  0  0
    4.3710   -5.5337   -5.5382 C   0  0  0  0  0  0  0  0  0  0  0  0
    4.9230   -4.2240   -5.6118 C   0  0  0  0  0  0  0  0  0  0  0  0
    6.3512   -3.7910   -5.6713 C   0  0  0  0  0  0  0  0  0  0  0  0
    7.4015   -4.5139   -6.1264 C   0  0  0  0  0  0  0  0  0  0  0  0
    8.7110   -3.9368   -6.2827 C   0  0  0  0  0  0  0  0  0  0  0  0
    9.7649   -3.4745   -6.4156 N   0  0  0  0  0  0  0  0  0  0  0  0
    7.2481   -5.8614   -6.6129 C   0  0  0  0  0  0  0  0  0  0  0  0
    7.1340   -6.9394   -7.0138 N   0  0  0  0  0  0  0  0  0  0  0  0
    1.7703   -6.4318   -5.2548 C   0  0  0  0  0  0  0  0  0  0  0  0
    1.4927   -7.0666   -3.8565 C   0  0  0  0  0  0  0  0  0  0  0  0
    1.9982   -6.1534   -2.7578 C   0  0  0  0  0  0  0  0  0  0  0  0
    1.2092   -5.0791   -2.7625 C   0  0  0  0  0  0  0  0  0  0  0  0
    0.2101   -5.2809   -3.8727 C   0  0  0  0  0  0  0  0  0  0  0  0
    0.0054   -6.7782   -3.7359 C   0  0  0  0  0  0  0  0  0  0  0  0
    0.9313   -5.2282   -5.2530 C   0  0  0  0  0  0  0  0  0  0  0  0
    6.9634   -0.7123   -3.5880 C   0  0  0  0  0  0  0  0  0  0  0  0
    6.0807   -0.9978   -2.5175 C   0  0  0  0  0  0  0  0  0  0  0  0
    5.9053   -2.3121   -1.9199 N   0  0  0  0  0  0  0  0  0  0  0  0
    6.8968   -3.3401   -2.1099 C   0  0  0  0  0  0  0  0  0  0  0  0
    6.5195   -4.6223   -2.5431 C   0  0  0  0  0  0  0  0  0  0  0  0
    7.4806   -5.6150   -2.7397 C   0  0  0  0  0  0  0  0  0  0  0  0
    8.8342   -5.3492   -2.4840 C   0  0  0  0  0  0  0  0  0  0  0  0
    9.8683   -6.3990   -2.7495 C   0  0  0  0  0  0  0  0  0  0  0  0
    9.2154   -4.0741   -2.0403 C   0  0  0  0  0  0  0  0  0  0  0  0
    8.2505   -3.0823   -1.8372 C   0  0  0  0  0  0  0  0  0  0  0  0
    5.0322   -2.5063   -0.7997 C   0  0  0  0  0  0  0  0  0  0  0  0
    5.3878   -2.0038    0.4606 C   0  0  0  0  0  0  0  0  0  0  0  0
    4.6591   -2.3629    1.5990 C   0  0  0  0  0  0  0  0  0  0  0  0
    3.5671   -3.2393    1.4911 C   0  0  0  0  0  0  0  0  0  0  0  0
    2.8650   -3.7337    2.7185 C   0  0  0  0  0  0  0  0  0  0  0  0
    3.2056   -3.7347    0.2289 C   0  0  0  0  0  0  0  0  0  0  0  0
    3.9200   -3.3542   -0.9111 C   0  0  0  0  0  0  0  0  0  0  0  0
    5.3306    0.1406   -2.1967 C   0  0  0  0  0  0  0  0  0  0  0  0
    3.8137    0.3603   -1.5282 S   0  0  0  0  0  0  0  0  0  0  0  0
    3.6328    1.9741   -2.0414 C   0  0  0  0  0  0  0  0  0  0  0  0
    4.7950    2.3523   -2.7545 C   0  0  0  0  0  0  0  0  0  0  0  0
    5.2481    3.7178   -2.8829 N   0  0  0  0  0  0  0  0  0  0  0  0
    4.8129    4.5608   -3.9659 C   0  0  0  0  0  0  0  0  0  0  0  0
    4.4566    5.8931   -3.7087 C   0  0  0  0  0  0  0  0  0  0  0  0
    4.1049    6.7480   -4.7554 C   0  0  0  0  0  0  0  0  0  0  0  0
    4.0960    6.2804   -6.0793 C   0  0  0  0  0  0  0  0  0  0  0  0
    3.7865    7.2195   -7.2121 C   0  0  0  0  0  0  0  0  0  0  0  0
    4.4581    4.9464   -6.3396 C   0  0  0  0  0  0  0  0  0  0  0  0
    4.8116    4.0938   -5.2886 C   0  0  0  0  0  0  0  0  0  0  0  0
    6.3273    4.1621   -2.0288 C   0  0  0  0  0  0  0  0  0  0  0  0
    6.3568    3.7886   -0.6730 C   0  0  0  0  0  0  0  0  0  0  0  0
    7.4378    4.1474    0.1398 C   0  0  0  0  0  0  0  0  0  0  0  0
    8.5127    4.8726   -0.3920 C   0  0  0  0  0  0  0  0  0  0  0  0
    9.6899    5.2407    0.4681 C   0  0  0  0  0  0  0  0  0  0  0  0
    8.4765    5.2726   -1.7352 C   0  0  0  0  0  0  0  0  0  0  0  0
    7.3979    4.9139   -2.5515 C   0  0  0  0  0  0  0  0  0  0  0  0
    5.6900    1.2863   -2.8398 C   0  0  0  0  0  0  0  0  0  0  0  0
    6.8862    0.9474   -3.9636 S   0  0  0  0  0  0  0  0  0  0  0  0
    2.2979    2.6149   -2.1053 C   0  0  0  0  0  0  0  0  0  0  0  0
    1.8685    3.2300   -3.2913 C   0  0  0  0  0  0  0  0  0  0  0  0
    0.5335    3.6269   -3.4639 C   0  0  0  0  0  0  0  0  0  0  0  0
    0.0849    4.2250   -4.7456 C   0  0  0  0  0  0  0  0  0  0  0  0
    0.8783    4.3470   -5.7143 O   0  0  0  0  0  0  0  0  0  0  0  0
   -1.2899    4.5873   -4.9099 N   0  0  0  0  0  0  0  0  0  0  0  0
   -2.2236    4.3513   -3.8583 C   0  0  0  0  0  0  0  0  0  0  0  0
   -3.4385    4.6581   -4.0269 O   0  0  0  0  0  0  0  0  0  0  0  0
   -1.7755    3.6850   -2.6159 C   0  0  0  0  0  0  0  0  0  0  0  0
   -2.7034    3.2999   -1.6360 C   0  0  0  0  0  0  0  0  0  0  0  0
   -2.3226    2.5223   -0.5287 C   0  0  0  0  0  0  0  0  0  0  0  0
   -0.9457    2.2981   -0.3231 C   0  0  0  0  0  0  0  0  0  0  0  0
    0.0063    2.7014   -1.2698 C   0  0  0  0  0  0  0  0  0  0  0  0
    1.3580    2.3636   -1.0947 C   0  0  0  0  0  0  0  0  0  0  0  0
   -0.4093    3.3623   -2.4458 C   0  0  0  0  0  0  0  0  0  0  0  0
   -3.3147    1.8367    0.3627 C   0  0  0  0  0  0  0  0  0  0  0  0
   -4.7256    1.9977    0.4952 C   0  0  0  0  0  0  0  0  0  0  0  0
   -5.5709    2.9123   -0.2278 N   0  0  0  0  0  0  0  0  0  0  0  0
   -5.9880    2.5757   -1.5769 C   0  0  0  0  0  0  0  0  0  0  0  0
   -6.2713    3.5936   -2.5127 C   0  0  0  0  0  0  0  0  0  0  0  0
   -6.5997    3.2755   -3.8345 C   0  0  0  0  0  0  0  0  0  0  0  0
   -6.6451    1.9382   -4.2449 C   0  0  0  0  0  0  0  0  0  0  0  0
   -7.0384    1.5251   -5.9486 S   0  0  0  0  0  0  0  0  0  0  0  0
   -8.8181    1.3291   -5.6275 C   0  0  0  0  0  0  0  0  0  0  0  0
   -6.3433    0.9209   -3.3333 C   0  0  0  0  0  0  0  0  0  0  0  0
   -6.0252    1.2339   -2.0091 C   0  0  0  0  0  0  0  0  0  0  0  0
   -6.2394    3.9440    0.5440 C   0  0  0  0  0  0  0  0  0  0  0  0
   -5.6132    4.4979    1.6797 C   0  0  0  0  0  0  0  0  0  0  0  0
   -6.2904    5.3982    2.5011 C   0  0  0  0  0  0  0  0  0  0  0  0
   -7.6044    5.7658    2.2049 C   0  0  0  0  0  0  0  0  0  0  0  0
   -8.4840    6.8977    3.2851 S   0  0  0  0  0  0  0  0  0  0  0  0
   -9.3230    5.5629    4.1916 C   0  0  0  0  0  0  0  0  0  0  0  0
   -8.2332    5.2530    1.0706 C   0  0  0  0  0  0  0  0  0  0  0  0
   -7.5670    4.3282    0.2570 C   0  0  0  0  0  0  0  0  0  0  0  0
   -5.2527    1.1249    1.4518 C   0  0  0  0  0  0  0  0  0  0  0  0
   -6.8010    0.7906    2.0012 S   0  0  0  0  0  0  0  0  0  0  0  0
   -6.3004   -0.4527    3.0581 C   0  0  0  0  0  0  0  0  0  0  0  0
   -4.9054   -0.6224    2.9501 C   0  0  0  0  0  0  0  0  0  0  0  0
   -4.1517   -1.7290    3.4893 N   0  0  0  0  0  0  0  0  0  0  0  0
   -2.8348   -1.4721    4.0397 C   0  0  0  0  0  0  0  0  0  0  0  0
   -2.5879   -0.3017    4.7818 C   0  0  0  0  0  0  0  0  0  0  0  0
   -1.2942    0.0118    5.2046 C   0  0  0  0  0  0  0  0  0  0  0  0
   -0.2283   -0.8448    4.9017 C   0  0  0  0  0  0  0  0  0  0  0  0
    1.4465   -0.4090    5.3774 S   0  0  0  0  0  0  0  0  0  0  0  0
    1.9030    0.1975    3.7189 C   0  0  0  0  0  0  0  0  0  0  0  0
   -0.4696   -2.0321    4.2063 C   0  0  0  0  0  0  0  0  0  0  0  0
   -1.7546   -2.3332    3.7555 C   0  0  0  0  0  0  0  0  0  0  0  0
   -4.5938   -3.0806    3.2187 C   0  0  0  0  0  0  0  0  0  0  0  0
   -5.2669   -3.3931    2.0233 C   0  0  0  0  0  0  0  0  0  0  0  0
   -5.6727   -4.7040    1.7582 C   0  0  0  0  0  0  0  0  0  0  0  0
   -5.3944   -5.7237    2.6727 C   0  0  0  0  0  0  0  0  0  0  0  0
   -5.9261   -7.4039    2.3329 S   0  0  0  0  0  0  0  0  0  0  0  0
   -4.3795   -7.8563    1.4855 C   0  0  0  0  0  0  0  0  0  0  0  0
   -4.7305   -5.4263    3.8658 C   0  0  0  0  0  0  0  0  0  0  0  0
   -4.3219   -4.1151    4.1331 C   0  0  0  0  0  0  0  0  0  0  0  0
   -4.3725    0.2916    2.0418 C   0  0  0  0  0  0  0  0  0  0  0  0
   -2.8521    0.5669    1.4146 S   0  0  0  0  0  0  0  0  0  0  0  0
   -7.2012   -1.1569    3.9844 C   0  0  0  0  0  0  0  0  0  0  0  0
   -7.0979   -0.9545    5.3047 C   0  0  0  0  0  0  0  0  0  0  0  0
   -6.2355   -1.8329    6.0947 C   0  0  0  0  0  0  0  0  0  0  0  0
   -6.2654   -3.0897    6.0690 O   0  0  0  0  0  0  0  0  0  0  0  0
   -5.3823   -1.0476    6.9639 C   0  0  0  0  0  0  0  0  0  0  0  0
   -4.3253   -1.5084    7.7838 C   0  0  0  0  0  0  0  0  0  0  0  0
   -3.6445   -0.4925    8.4393 C   0  0  0  0  0  0  0  0  0  0  0  0
   -3.9781    0.8941    8.2876 C   0  0  0  0  0  0  0  0  0  0  0  0
   -5.0116    1.3452    7.4874 C   0  0  0  0  0  0  0  0  0  0  0  0
   -5.7359    0.3137    6.8277 C   0  0  0  0  0  0  0  0  0  0  0  0
   -6.8614    0.4071    5.8699 C   0  0  0  0  0  0  0  0  0  0  0  0
   -7.6890    1.4650    5.6721 C   0  0  0  0  0  0  0  0  0  0  0  0
   -7.5211    2.7231    6.3396 C   0  0  0  0  0  0  0  0  0  0  0  0
   -7.3966    3.7656    6.8400 N   0  0  0  0  0  0  0  0  0  0  0  0
   -8.8182    1.3721    4.7769 C   0  0  0  0  0  0  0  0  0  0  0  0
   -9.7092    1.3153    4.0467 N   0  0  0  0  0  0  0  0  0  0  0  0
   -2.8794    1.2812    9.2249 C   0  0  0  0  0  0  0  0  0  0  0  0
   -3.3168    1.7069   10.6612 C   0  0  0  0  0  0  0  0  0  0  0  0
   -2.0617    1.6693   11.4973 C   0  0  0  0  0  0  0  0  0  0  0  0
   -1.7462    0.3755   11.6469 C   0  0  0  0  0  0  0  0  0  0  0  0
   -2.7917   -0.4124   10.8943 C   0  0  0  0  0  0  0  0  0  0  0  0
   -3.9983    0.4595   11.2020 C   0  0  0  0  0  0  0  0  0  0  0  0
   -2.5357   -0.1392    9.3802 C   0  0  0  0  0  0  0  0  0  0  0  0
    8.2987   -2.1718   -4.4912 H   0  0  0  0  0  0  0  0  0  0  0  0
    2.0798   -2.2312   -5.2722 H   0  0  0  0  0  0  0  0  0  0  0  0
    4.9533   -6.4417   -5.5118 H   0  0  0  0  0  0  0  0  0  0  0  0
    1.5776   -7.1026   -6.1196 H   0  0  0  0  0  0  0  0  0  0  0  0
    1.7834   -8.1348   -3.7513 H   0  0  0  0  0  0  0  0  0  0  0  0
    2.7755   -6.3619   -2.0278 H   0  0  0  0  0  0  0  0  0  0  0  0
    1.2312   -4.2611   -2.0521 H   0  0  0  0  0  0  0  0  0  0  0  0
   -0.7088   -4.6656   -3.7927 H   0  0  0  0  0  0  0  0  0  0  0  0
   -0.4218   -7.0779   -2.7441 H   0  0  0  0  0  0  0  0  0  0  0  0
   -0.6053   -7.2206   -4.5594 H   0  0  0  0  0  0  0  0  0  0  0  0
    0.2543   -5.1475   -6.1359 H   0  0  0  0  0  0  0  0  0  0  0  0
    5.4853   -4.8429   -2.7649 H   0  0  0  0  0  0  0  0  0  0  0  0
    7.1717   -6.5878   -3.1019 H   0  0  0  0  0  0  0  0  0  0  0  0
   10.1892   -6.3342   -3.8097 H   0  0  0  0  0  0  0  0  0  0  0  0
    9.4534   -7.4098   -2.5568 H   0  0  0  0  0  0  0  0  0  0  0  0
   10.7532   -6.2574   -2.0923 H   0  0  0  0  0  0  0  0  0  0  0  0
   10.2564   -3.8417   -1.8538 H   0  0  0  0  0  0  0  0  0  0  0  0
    8.5575   -2.1052   -1.4885 H   0  0  0  0  0  0  0  0  0  0  0  0
    6.2594   -1.3696    0.5620 H   0  0  0  0  0  0  0  0  0  0  0  0
    4.9659   -1.9840    2.5648 H   0  0  0  0  0  0  0  0  0  0  0  0
    3.3350   -4.6824    3.0491 H   0  0  0  0  0  0  0  0  0  0  0  0
    1.7957   -3.9227    2.5001 H   0  0  0  0  0  0  0  0  0  0  0  0
    2.9309   -2.9908    3.5403 H   0  0  0  0  0  0  0  0  0  0  0  0
    2.3793   -4.4308    0.1347 H   0  0  0  0  0  0  0  0  0  0  0  0
    3.6359   -3.7468   -1.8778 H   0  0  0  0  0  0  0  0  0  0  0  0
    4.4657    6.2738   -2.6944 H   0  0  0  0  0  0  0  0  0  0  0  0
    3.8577    7.7813   -4.5386 H   0  0  0  0  0  0  0  0  0  0  0  0
    4.7247    7.7049   -7.5535 H   0  0  0  0  0  0  0  0  0  0  0  0
    3.0745    8.0074   -6.8842 H   0  0  0  0  0  0  0  0  0  0  0  0
    3.3298    6.6720   -8.0610 H   0  0  0  0  0  0  0  0  0  0  0  0
    4.4878    4.5765   -7.3558 H   0  0  0  0  0  0  0  0  0  0  0  0
    5.1031    3.0743   -5.5067 H   0  0  0  0  0  0  0  0  0  0  0  0
    5.5438    3.2218   -0.2433 H   0  0  0  0  0  0  0  0  0  0  0  0
    7.4397    3.8431    1.1791 H   0  0  0  0  0  0  0  0  0  0  0  0
    9.6621    4.7065    1.4406 H   0  0  0  0  0  0  0  0  0  0  0  0
    9.6825    6.3328    0.6595 H   0  0  0  0  0  0  0  0  0  0  0  0
   10.6362    4.9683   -0.0461 H   0  0  0  0  0  0  0  0  0  0  0  0
    9.2954    5.8414   -2.1577 H   0  0  0  0  0  0  0  0  0  0  0  0
    7.4100    5.2048   -3.5919 H   0  0  0  0  0  0  0  0  0  0  0  0
    2.5478    3.3091   -4.1217 H   0  0  0  0  0  0  0  0  0  0  0  0
   -1.6084    5.0193   -5.8045 H   0  0  0  0  0  0  0  0  0  0  0  0
   -3.7241    3.5722   -1.7787 H   0  0  0  0  0  0  0  0  0  0  0  0
   -0.6044    1.7591    0.5491 H   0  0  0  0  0  0  0  0  0  0  0  0
    1.6637    1.8356   -0.1983 H   0  0  0  0  0  0  0  0  0  0  0  0
   -6.2064    4.6353   -2.2272 H   0  0  0  0  0  0  0  0  0  0  0  0
   -6.8010    4.0683   -4.5421 H   0  0  0  0  0  0  0  0  0  0  0  0
   -9.2863    0.8193   -6.4893 H   0  0  0  0  0  0  0  0  0  0  0  0
   -9.2883    2.3242   -5.4963 H   0  0  0  0  0  0  0  0  0  0  0  0
   -8.9929    0.7145   -4.7212 H   0  0  0  0  0  0  0  0  0  0  0  0
   -6.3397   -0.1123   -3.6520 H   0  0  0  0  0  0  0  0  0  0  0  0
   -5.7894    0.4274   -1.3298 H   0  0  0  0  0  0  0  0  0  0  0  0
   -4.5941    4.2261    1.9355 H   0  0  0  0  0  0  0  0  0  0  0  0
   -5.7988    5.7980    3.3785 H   0  0  0  0  0  0  0  0  0  0  0  0
   -8.5799    4.8252    4.5571 H   0  0  0  0  0  0  0  0  0  0  0  0
  -10.0507    5.0564    3.5255 H   0  0  0  0  0  0  0  0  0  0  0  0
   -9.8603    5.9885    5.0620 H   0  0  0  0  0  0  0  0  0  0  0  0
   -9.2563    5.5217    0.8458 H   0  0  0  0  0  0  0  0  0  0  0  0
   -8.1052    3.9003   -0.5780 H   0  0  0  0  0  0  0  0  0  0  0  0
   -3.3968    0.3804    5.0052 H   0  0  0  0  0  0  0  0  0  0  0  0
   -1.1202    0.9261    5.7584 H   0  0  0  0  0  0  0  0  0  0  0  0
    1.8023   -0.6146    2.9700 H   0  0  0  0  0  0  0  0  0  0  0  0
    2.9568    0.5416    3.7274 H   0  0  0  0  0  0  0  0  0  0  0  0
    1.2491    1.0493    3.4333 H   0  0  0  0  0  0  0  0  0  0  0  0
    0.3457   -2.7008    3.9777 H   0  0  0  0  0  0  0  0  0  0  0  0
   -1.8969   -3.2296    3.1635 H   0  0  0  0  0  0  0  0  0  0  0  0
   -5.4801   -2.6229    1.2914 H   0  0  0  0  0  0  0  0  0  0  0  0
   -6.1933   -4.9248    0.8332 H   0  0  0  0  0  0  0  0  0  0  0  0
   -3.5036   -7.6545    2.1398 H   0  0  0  0  0  0  0  0  0  0  0  0
   -4.4034   -8.9396    1.2457 H   0  0  0  0  0  0  0  0  0  0  0  0
   -4.2805   -7.2816    0.5382 H   0  0  0  0  0  0  0  0  0  0  0  0
   -4.5182   -6.2082    4.5832 H   0  0  0  0  0  0  0  0  0  0  0  0
   -3.8101   -3.8994    5.0646 H   0  0  0  0  0  0  0  0  0  0  0  0
   -8.2200   -1.2150    3.6230 H   0  0  0  0  0  0  0  0  0  0  0  0
   -4.0582   -2.5516    7.8830 H   0  0  0  0  0  0  0  0  0  0  0  0
   -5.2002    2.3973    7.3769 H   0  0  0  0  0  0  0  0  0  0  0  0
   -2.0823    1.9050    8.7520 H   0  0  0  0  0  0  0  0  0  0  0  0
   -3.9011    2.6512   10.7312 H   0  0  0  0  0  0  0  0  0  0  0  0
   -1.5543    2.4990   11.9644 H   0  0  0  0  0  0  0  0  0  0  0  0
   -0.9391   -0.0167   12.2535 H   0  0  0  0  0  0  0  0  0  0  0  0
   -2.8820   -1.4809   11.1877 H   0  0  0  0  0  0  0  0  0  0  0  0
   -4.2321    0.5334   12.2935 H   0  0  0  0  0  0  0  0  0  0  0  0
   -4.9221    0.1665   10.6583 H   0  0  0  0  0  0  0  0  0  0  0  0
   -1.5244   -0.4104    9.0022 H   0  0  0  0  0  0  0  0  0  0  0  0
  1  2  2  3
  2  3  1  0
  3  4  2  0
  3  5  1  0
  5  6  2  0
  6  7  1  0
  7  8  2  0
  8  9  1  0
  9 10  2  0
 10 11  1  0
 11 12  2  3
 12 13  1  0
 13 14  3  0
 12 15  1  0
 15 16  3  0
  8 17  1  0
 17 18  1  0
 18 19  1  0
 19 20  2  0
 20 21  1  0
 21 22  1  0
 21 23  1  0
  1 24  1  0
 24 25  2  0
 25 26  1  0
 26 27  1  0
 27 28  2  0
 28 29  1  0
 29 30  2  0
 30 31  1  0
 30 32  1  0
 32 33  2  0
 26 34  1  0
 34 35  2  0
 35 36  1  0
 36 37  2  0
 37 38  1  0
 37 39  1  0
 39 40  2  0
 25 41  1  0
 41 42  1  0
 42 43  1  0
 43 44  2  0
 44 45  1  0
 45 46  1  0
 46 47  2  0
 47 48  1  0
 48 49  2  0
 49 50  1  0
 49 51  1  0
 51 52  2  0
 45 53  1  0
 53 54  2  0
 54 55  1  0
 55 56  2  0
 56 57  1  0
 56 58  1  0
 58 59  2  0
 44 60  1  0
 60 61  1  0
 43 62  1  0
 62 63  2  0
 63 64  1  0
 64 65  1  0
 65 66  2  0
 65 67  1  0
 67 68  1  0
 68 69  2  0
 68 70  1  0
 70 71  2  0
 71 72  1  0
 72 73  2  0
 73 74  1  0
 74 75  2  0
 74 76  1  0
 72 77  1  0
 77 78  2  0
 78 79  1  0
 79 80  1  0
 80 81  2  0
 81 82  1  0
 82 83  2  0
 83 84  1  0
 84 85  1  0
 83 86  1  0
 86 87  2  0
 79 88  1  0
 88 89  2  0
 89 90  1  0
 90 91  2  0
 91 92  1  0
 92 93  1  0
 91 94  1  0
 94 95  2  0
 78 96  1  0
 96 97  1  0
 97 98  1  0
 98 99  2  0
 99100  1  0
100101  1  0
101102  2  0
102103  1  0
103104  2  0
104105  1  0
105106  1  0
104107  1  0
107108  2  0
100109  1  0
109110  2  0
110111  1  0
111112  2  0
112113  1  0
113114  1  0
112115  1  0
115116  2  0
 99117  1  0
117118  1  0
 98119  1  0
119120  2  3
120121  1  0
121122  2  0
121123  1  0
123124  2  0
124125  1  0
125126  2  0
126127  1  0
127128  2  0
128129  1  0
129130  2  3
130131  1  0
131132  3  0
130133  1  0
133134  3  0
126135  1  0
135136  1  0
136137  1  0
137138  2  0
138139  1  0
139140  1  0
139141  1  0
 11  2  1  0
 23 17  1  0
 61 24  1  0
 75 62  1  0
118 77  1  0
129120  1  0
141135  1  0
 10  5  1  0
 22 18  1  0
 33 27  1  0
 40 34  1  0
 60 41  2  0
 76 64  2  0
 87 80  1  0
 95 88  1  0
117 96  2  0
128123  1  0
140136  1  0
 23  7  1  0
 52 46  1  0
 59 53  1  0
 76 70  1  0
108101  1  0
116109  1  0
141125  1  0
  1142  1  0
  6143  1  0
  9144  1  0
 17145  1  0
 18146  1  0
 19147  1  0
 20148  1  0
 21149  1  0
 22150  1  0
 22151  1  0
 23152  1  0
 28153  1  0
 29154  1  0
 31155  1  0
 31156  1  0
 31157  1  0
 32158  1  0
 33159  1  0
 35160  1  0
 36161  1  0
 38162  1  0
 38163  1  0
 38164  1  0
 39165  1  0
 40166  1  0
 47167  1  0
 48168  1  0
 50169  1  0
 50170  1  0
 50171  1  0
 51172  1  0
 52173  1  0
 54174  1  0
 55175  1  0
 57176  1  0
 57177  1  0
 57178  1  0
 58179  1  0
 59180  1  0
 63181  1  0
 67182  1  0
 71183  1  0
 73184  1  0
 75185  1  0
 81186  1  0
 82187  1  0
 85188  1  0
 85189  1  0
 85190  1  0
 86191  1  0
 87192  1  0
 89193  1  0
 90194  1  0
 93195  1  0
 93196  1  0
 93197  1  0
 94198  1  0
 95199  1  0
102200  1  0
103201  1  0
106202  1  0
106203  1  0
106204  1  0
107205  1  0
108206  1  0
110207  1  0
111208  1  0
114209  1  0
114210  1  0
114211  1  0
115212  1  0
116213  1  0
119214  1  0
124215  1  0
127216  1  0
135217  1  0
136218  1  0
137219  1  0
138220  1  0
139221  1  0
140222  1  0
140223  1  0
141224  1  0
M  END

