
     RDKit          3D

201223  0  0  0  0  0  0  0  0999 V2000
    1.1584   -4.8018   -5.9326 C   0  0  0  0  0  0  0  0  0  0  0  0
    2.3922   -4.6472   -6.4600 C   0  0  0  0  0  0  0  0  0  0  0  0
    3.5660   -4.1677   -5.7119 C   0  0  0  0  0  0  0  0  0  0  0  0
    3.7041   -4.1499   -4.4609 O   0  0  0  0  0  0  0  0  0  0  0  0
    4.5423   -3.6728   -6.6441 C   0  0  0  0  0  0  0  0  0  0  0  0
    5.7782   -3.0691   -6.3204 C   0  0  0  0  0  0  0  0  0  0  0  0
    6.4928   -2.6353   -7.4163 C   0  0  0  0  0  0  0  0  0  0  0  0
    6.0229   -2.7768   -8.7604 C   0  0  0  0  0  0  0  0  0  0  0  0
    4.8113   -3.3750   -9.0848 C   0  0  0  0  0  0  0  0  0  0  0  0
    4.0678   -3.8557   -7.9662 C   0  0  0  0  0  0  0  0  0  0  0  0
    2.7596   -4.5852   -7.9110 C   0  0  0  0  0  0  0  0  0  0  0  0
    2.1167   -5.2043   -8.9297 C   0  0  0  0  0  0  0  0  0  0  0  0
    1.0178   -6.1114   -8.7113 C   0  0  0  0  0  0  0  0  0  0  0  0
    0.1359   -6.8419   -8.5470 N   0  0  0  0  0  0  0  0  0  0  0  0
    2.5153   -5.0466  -10.2973 C   0  0  0  0  0  0  0  0  0  0  0  0
    2.8202   -4.9026  -11.4133 N   0  0  0  0  0  0  0  0  0  0  0  0
    7.2573   -2.0934   -9.2755 C   0  0  0  0  0  0  0  0  0  0  0  0
    7.1042   -0.6144   -9.7448 C   0  0  0  0  0  0  0  0  0  0  0  0
    8.5079   -0.0517   -9.8165 C   0  0  0  0  0  0  0  0  0  0  0  0
    8.9361    0.0663   -8.5509 C   0  0  0  0  0  0  0  0  0  0  0  0
    7.8088   -0.4178   -7.6740 C   0  0  0  0  0  0  0  0  0  0  0  0
    6.6347    0.1006   -8.4874 C   0  0  0  0  0  0  0  0  0  0  0  0
    7.7346   -1.9585   -7.8939 C   0  0  0  0  0  0  0  0  0  0  0  0
    0.8711   -4.3789   -4.5620 C   0  0  0  0  0  0  0  0  0  0  0  0
    1.1117   -5.1488   -3.4111 C   0  0  0  0  0  0  0  0  0  0  0  0
    0.5523   -6.4632   -3.2542 N   0  0  0  0  0  0  0  0  0  0  0  0
   -0.6760   -6.5405   -2.4989 C   0  0  0  0  0  0  0  0  0  0  0  0
   -0.7646   -7.3734   -1.3741 C   0  0  0  0  0  0  0  0  0  0  0  0
   -1.8862   -7.3065   -0.5354 C   0  0  0  0  0  0  0  0  0  0  0  0
   -2.9316   -6.4126   -0.8166 C   0  0  0  0  0  0  0  0  0  0  0  0
   -4.0809   -6.2577    0.1373 C   0  0  0  0  0  0  0  0  0  0  0  0
   -2.8445   -5.5860   -1.9451 C   0  0  0  0  0  0  0  0  0  0  0  0
   -1.7365   -5.6634   -2.7907 C   0  0  0  0  0  0  0  0  0  0  0  0
    1.1279   -7.6250   -3.8957 C   0  0  0  0  0  0  0  0  0  0  0  0
    2.4902   -7.6517   -4.2518 C   0  0  0  0  0  0  0  0  0  0  0  0
    3.0392   -8.7775   -4.8740 C   0  0  0  0  0  0  0  0  0  0  0  0
    2.2508   -9.9123   -5.1154 C   0  0  0  0  0  0  0  0  0  0  0  0
    2.8569  -11.1171   -5.7717 C   0  0  0  0  0  0  0  0  0  0  0  0
    0.8922   -9.8941   -4.7625 C   0  0  0  0  0  0  0  0  0  0  0  0
    0.3340   -8.7620   -4.1574 C   0  0  0  0  0  0  0  0  0  0  0  0
    1.2691   -4.3093   -2.3080 C   0  0  0  0  0  0  0  0  0  0  0  0
    1.5490   -4.5656   -0.6715 S   0  0  0  0  0  0  0  0  0  0  0  0
    1.3383   -2.9308   -0.2426 C   0  0  0  0  0  0  0  0  0  0  0  0
    0.9830   -2.1973   -1.3931 C   0  0  0  0  0  0  0  0  0  0  0  0
    0.3441   -0.9101   -1.3855 N   0  0  0  0  0  0  0  0  0  0  0  0
    0.8958    0.1272   -2.2217 C   0  0  0  0  0  0  0  0  0  0  0  0
    2.2755    0.3975   -2.1983 C   0  0  0  0  0  0  0  0  0  0  0  0
    2.8258    1.3427   -3.0687 C   0  0  0  0  0  0  0  0  0  0  0  0
    2.0080    2.0278   -3.9817 C   0  0  0  0  0  0  0  0  0  0  0  0
    2.6010    3.0576   -4.8979 C   0  0  0  0  0  0  0  0  0  0  0  0
    0.6274    1.7741   -3.9923 C   0  0  0  0  0  0  0  0  0  0  0  0
    0.0789    0.8244   -3.1291 C   0  0  0  0  0  0  0  0  0  0  0  0
   -1.0146   -0.8059   -0.8958 C   0  0  0  0  0  0  0  0  0  0  0  0
   -1.9083   -1.8894   -0.9870 C   0  0  0  0  0  0  0  0  0  0  0  0
   -3.2435   -1.7488   -0.6094 C   0  0  0  0  0  0  0  0  0  0  0  0
   -3.7121   -0.5245   -0.1173 C   0  0  0  0  0  0  0  0  0  0  0  0
   -5.1703   -0.3613    0.1900 C   0  0  0  0  0  0  0  0  0  0  0  0
   -2.8209    0.5535    0.0233 C   0  0  0  0  0  0  0  0  0  0  0  0
   -1.4826    0.4099   -0.3567 C   0  0  0  0  0  0  0  0  0  0  0  0
    1.0203   -3.0000   -2.5284 C   0  0  0  0  0  0  0  0  0  0  0  0
    0.7091   -2.7362   -4.1521 S   0  0  0  0  0  0  0  0  0  0  0  0
    1.6268   -2.3632    1.0833 C   0  0  0  0  0  0  0  0  0  0  0  0
    1.0386   -0.9069    1.6864 S   0  0  0  0  0  0  0  0  0  0  0  0
    1.9482   -0.8481    3.1041 C   0  0  0  0  0  0  0  0  0  0  0  0
    2.7461   -1.9756    3.1153 C   0  0  0  0  0  0  0  0  0  0  0  0
    3.7109   -2.4277    4.0163 C   0  0  0  0  0  0  0  0  0  0  0  0
    4.2802   -3.6336    3.5792 C   0  0  0  0  0  0  0  0  0  0  0  0
    5.2778   -4.4322    4.3073 C   0  0  0  0  0  0  0  0  0  0  0  0
    5.6776   -5.5323    3.8239 O   0  0  0  0  0  0  0  0  0  0  0  0
    5.7331   -4.0078    5.5565 O   0  0  0  0  0  0  0  0  0  0  0  0
    6.6947   -4.7461    6.3151 C   0  0  0  0  0  0  0  0  0  0  0  0
    6.9339   -4.0580    7.6476 C   0  0  0  0  0  0  0  0  0  0  0  0
    3.5845   -4.1132    2.0999 S   0  0  0  0  0  0  0  0  0  0  0  0
    2.5576   -2.7961    2.0186 C   0  0  0  0  0  0  0  0  0  0  0  0
    1.8616    0.2610    4.0501 C   0  0  0  0  0  0  0  0  0  0  0  0
    0.6198    0.6578    4.5306 C   0  0  0  0  0  0  0  0  0  0  0  0
    0.5034    2.0399    4.7203 C   0  0  0  0  0  0  0  0  0  0  0  0
   -0.7041    2.7148    4.9421 C   0  0  0  0  0  0  0  0  0  0  0  0
   -1.9671    1.9931    5.1627 C   0  0  0  0  0  0  0  0  0  0  0  0
   -2.2919    1.5465    6.4488 C   0  0  0  0  0  0  0  0  0  0  0  0
   -3.4854    0.8479    6.6653 C   0  0  0  0  0  0  0  0  0  0  0  0
   -3.7852    0.4333    7.9251 F   0  0  0  0  0  0  0  0  0  0  0  0
   -4.3590    0.5802    5.5970 C   0  0  0  0  0  0  0  0  0  0  0  0
   -5.6453   -0.1741    5.8301 C   0  0  0  0  0  0  0  0  0  0  0  0
   -5.3893   -1.6730    5.9326 C   0  0  0  0  0  0  0  0  0  0  0  0
   -4.0104    1.0143    4.3000 C   0  0  0  0  0  0  0  0  0  0  0  0
   -4.8164    0.7458    3.2435 F   0  0  0  0  0  0  0  0  0  0  0  0
   -2.8202    1.7123    4.0867 C   0  0  0  0  0  0  0  0  0  0  0  0
   -0.6733    4.1116    4.8552 C   0  0  0  0  0  0  0  0  0  0  0  0
    0.4936    4.8320    4.5866 C   0  0  0  0  0  0  0  0  0  0  0  0
    1.7152    4.1482    4.3790 C   0  0  0  0  0  0  0  0  0  0  0  0
    2.9468    4.8521    3.9756 C   0  0  0  0  0  0  0  0  0  0  0  0
    4.0869    4.7949    4.7888 C   0  0  0  0  0  0  0  0  0  0  0  0
    5.2561    5.4714    4.4221 C   0  0  0  0  0  0  0  0  0  0  0  0
    5.3045    6.1904    3.2117 C   0  0  0  0  0  0  0  0  0  0  0  0
    6.5581    6.9335    2.8126 C   0  0  0  0  0  0  0  0  0  0  0  0
    6.4748    8.3998    3.2165 C   0  0  0  0  0  0  0  0  0  0  0  0
    4.1560    6.2545    2.4005 C   0  0  0  0  0  0  0  0  0  0  0  0
    2.9880    5.5859    2.7817 C   0  0  0  0  0  0  0  0  0  0  0  0
    4.1683    6.9573    1.2372 F   0  0  0  0  0  0  0  0  0  0  0  0
    6.3353    5.4140    5.2448 F   0  0  0  0  0  0  0  0  0  0  0  0
    1.6768    2.7410    4.4416 C   0  0  0  0  0  0  0  0  0  0  0  0
    2.8329    1.6410    3.9037 S   0  0  0  0  0  0  0  0  0  0  0  0
    0.2667    6.2186    4.4848 C   0  0  0  0  0  0  0  0  0  0  0  0
   -1.0764    6.5722    4.6581 C   0  0  0  0  0  0  0  0  0  0  0  0
   -1.9786    5.1659    4.8989 S   0  0  0  0  0  0  0  0  0  0  0  0
   -1.6286    7.9084    4.3476 C   0  0  0  0  0  0  0  0  0  0  0  0
   -2.8351    8.3759    4.7388 C   0  0  0  0  0  0  0  0  0  0  0  0
   -3.7967    7.6972    5.6161 C   0  0  0  0  0  0  0  0  0  0  0  0
   -3.5196    6.9334    6.5749 O   0  0  0  0  0  0  0  0  0  0  0  0
   -5.1225    8.1628    5.2927 C   0  0  0  0  0  0  0  0  0  0  0  0
   -6.3478    7.6196    5.7368 C   0  0  0  0  0  0  0  0  0  0  0  0
   -7.4606    8.1859    5.1480 C   0  0  0  0  0  0  0  0  0  0  0  0
   -7.3793    9.2283    4.1683 C   0  0  0  0  0  0  0  0  0  0  0  0
   -6.1789    9.7713    3.7343 C   0  0  0  0  0  0  0  0  0  0  0  0
   -5.0237    9.2112    4.3441 C   0  0  0  0  0  0  0  0  0  0  0  0
   -3.5863    9.4943    4.0935 C   0  0  0  0  0  0  0  0  0  0  0  0
   -3.0641   10.6535    3.6194 C   0  0  0  0  0  0  0  0  0  0  0  0
   -1.6482   10.9336    3.6763 C   0  0  0  0  0  0  0  0  0  0  0  0
   -0.5193   11.1714    3.7307 N   0  0  0  0  0  0  0  0  0  0  0  0
   -3.8902   11.7501    3.1939 C   0  0  0  0  0  0  0  0  0  0  0  0
   -4.5426   12.6402    2.8395 N   0  0  0  0  0  0  0  0  0  0  0  0
   -8.8719    9.2273    4.0184 C   0  0  0  0  0  0  0  0  0  0  0  0
   -9.4429    8.5591    2.7356 C   0  0  0  0  0  0  0  0  0  0  0  0
  -10.9104    8.3354    3.0027 C   0  0  0  0  0  0  0  0  0  0  0  0
  -10.9898    7.3646    3.9197 C   0  0  0  0  0  0  0  0  0  0  0  0
   -9.5688    6.9674    4.2411 C   0  0  0  0  0  0  0  0  0  0  0  0
   -8.9625    7.1203    2.8583 C   0  0  0  0  0  0  0  0  0  0  0  0
   -8.9545    8.1670    5.0263 C   0  0  0  0  0  0  0  0  0  0  0  0
    0.3059   -4.9840   -6.5642 H   0  0  0  0  0  0  0  0  0  0  0  0
    6.1344   -2.9332   -5.3053 H   0  0  0  0  0  0  0  0  0  0  0  0
    4.4901   -3.4316  -10.1069 H   0  0  0  0  0  0  0  0  0  0  0  0
    7.8988   -2.7368   -9.9162 H   0  0  0  0  0  0  0  0  0  0  0  0
    6.4795   -0.4440  -10.6523 H   0  0  0  0  0  0  0  0  0  0  0  0
    9.0439    0.2792  -10.7010 H   0  0  0  0  0  0  0  0  0  0  0  0
    9.8786    0.5028   -8.2398 H   0  0  0  0  0  0  0  0  0  0  0  0
    7.8595   -0.0859   -6.6169 H   0  0  0  0  0  0  0  0  0  0  0  0
    5.6418   -0.2315   -8.1112 H   0  0  0  0  0  0  0  0  0  0  0  0
    6.6290    1.2135   -8.5827 H   0  0  0  0  0  0  0  0  0  0  0  0
    8.6660   -2.5200   -7.6598 H   0  0  0  0  0  0  0  0  0  0  0  0
    0.0578   -8.0288   -1.1149 H   0  0  0  0  0  0  0  0  0  0  0  0
   -1.9238   -7.9312    0.3480 H   0  0  0  0  0  0  0  0  0  0  0  0
   -4.9956   -5.9323   -0.4004 H   0  0  0  0  0  0  0  0  0  0  0  0
   -3.8229   -5.4944    0.8988 H   0  0  0  0  0  0  0  0  0  0  0  0
   -4.3062   -7.2193    0.6427 H   0  0  0  0  0  0  0  0  0  0  0  0
   -3.6260   -4.8676   -2.1595 H   0  0  0  0  0  0  0  0  0  0  0  0
   -1.6924   -5.0086   -3.6508 H   0  0  0  0  0  0  0  0  0  0  0  0
    3.1344   -6.8150   -4.0261 H   0  0  0  0  0  0  0  0  0  0  0  0
    4.0913   -8.7812   -5.1383 H   0  0  0  0  0  0  0  0  0  0  0  0
    3.7566  -11.4377   -5.2079 H   0  0  0  0  0  0  0  0  0  0  0  0
    3.1513  -10.8598   -6.8091 H   0  0  0  0  0  0  0  0  0  0  0  0
    2.1372  -11.9633   -5.7983 H   0  0  0  0  0  0  0  0  0  0  0  0
    0.2649  -10.7585   -4.9466 H   0  0  0  0  0  0  0  0  0  0  0  0
   -0.7211   -8.7724   -3.9083 H   0  0  0  0  0  0  0  0  0  0  0  0
    2.9209   -0.1286   -1.5075 H   0  0  0  0  0  0  0  0  0  0  0  0
    3.8897    1.5380   -3.0392 H   0  0  0  0  0  0  0  0  0  0  0  0
    2.7072    4.0174   -4.3515 H   0  0  0  0  0  0  0  0  0  0  0  0
    3.5943    2.7231   -5.2591 H   0  0  0  0  0  0  0  0  0  0  0  0
    1.9487    3.2189   -5.7846 H   0  0  0  0  0  0  0  0  0  0  0  0
   -0.0228    2.2993   -4.6809 H   0  0  0  0  0  0  0  0  0  0  0  0
   -0.9830    0.6154   -3.1886 H   0  0  0  0  0  0  0  0  0  0  0  0
   -1.5895   -2.8427   -1.3928 H   0  0  0  0  0  0  0  0  0  0  0  0
   -3.9249   -2.5856   -0.7217 H   0  0  0  0  0  0  0  0  0  0  0  0
   -5.3864    0.6331    0.6315 H   0  0  0  0  0  0  0  0  0  0  0  0
   -5.7545   -0.4642   -0.7478 H   0  0  0  0  0  0  0  0  0  0  0  0
   -5.4939   -1.1449    0.9082 H   0  0  0  0  0  0  0  0  0  0  0  0
   -3.1606    1.5051    0.4117 H   0  0  0  0  0  0  0  0  0  0  0  0
   -0.8115    1.2503   -0.2530 H   0  0  0  0  0  0  0  0  0  0  0  0
    3.9756   -1.9189    4.9325 H   0  0  0  0  0  0  0  0  0  0  0  0
    6.3131   -5.7760    6.5010 H   0  0  0  0  0  0  0  0  0  0  0  0
    7.6507   -4.8110    5.7496 H   0  0  0  0  0  0  0  0  0  0  0  0
    7.6920   -4.6221    8.2321 H   0  0  0  0  0  0  0  0  0  0  0  0
    7.2993   -3.0237    7.4831 H   0  0  0  0  0  0  0  0  0  0  0  0
    5.9873   -4.0233    8.2268 H   0  0  0  0  0  0  0  0  0  0  0  0
   -0.2279   -0.0110    4.5666 H   0  0  0  0  0  0  0  0  0  0  0  0
   -1.6182    1.7326    7.2784 H   0  0  0  0  0  0  0  0  0  0  0  0
   -6.1284    0.1873    6.7680 H   0  0  0  0  0  0  0  0  0  0  0  0
   -6.3686    0.0154    5.0087 H   0  0  0  0  0  0  0  0  0  0  0  0
   -6.3383   -2.2030    6.1743 H   0  0  0  0  0  0  0  0  0  0  0  0
   -4.9953   -2.0629    4.9730 H   0  0  0  0  0  0  0  0  0  0  0  0
   -4.6536   -1.8887    6.7404 H   0  0  0  0  0  0  0  0  0  0  0  0
   -2.5647    2.0381    3.0853 H   0  0  0  0  0  0  0  0  0  0  0  0
    4.0697    4.2246    5.7047 H   0  0  0  0  0  0  0  0  0  0  0  0
    6.7062    6.8690    1.7096 H   0  0  0  0  0  0  0  0  0  0  0  0
    7.4551    6.4736    3.2846 H   0  0  0  0  0  0  0  0  0  0  0  0
    7.4467    8.9017    3.0016 H   0  0  0  0  0  0  0  0  0  0  0  0
    6.2597    8.4959    4.2999 H   0  0  0  0  0  0  0  0  0  0  0  0
    5.6746    8.9138    2.6398 H   0  0  0  0  0  0  0  0  0  0  0  0
    2.1183    5.6332    2.1382 H   0  0  0  0  0  0  0  0  0  0  0  0
    1.0298    6.9427    4.2366 H   0  0  0  0  0  0  0  0  0  0  0  0
   -1.0466    8.4788    3.6410 H   0  0  0  0  0  0  0  0  0  0  0  0
   -6.4175    6.7963    6.4358 H   0  0  0  0  0  0  0  0  0  0  0  0
   -6.1496   10.5043    2.9465 H   0  0  0  0  0  0  0  0  0  0  0  0
   -9.3456   10.1932    4.3170 H   0  0  0  0  0  0  0  0  0  0  0  0
   -9.2055    9.0654    1.7772 H   0  0  0  0  0  0  0  0  0  0  0  0
  -11.7471    8.8266    2.5168 H   0  0  0  0  0  0  0  0  0  0  0  0
  -11.9026    6.9103    4.2892 H   0  0  0  0  0  0  0  0  0  0  0  0
   -9.4562    5.9714    4.7227 H   0  0  0  0  0  0  0  0  0  0  0  0
   -7.8569    6.9939    2.8322 H   0  0  0  0  0  0  0  0  0  0  0  0
   -9.4156    6.4360    2.1015 H   0  0  0  0  0  0  0  0  0  0  0  0
   -9.4848    8.4578    5.9618 H   0  0  0  0  0  0  0  0  0  0  0  0
  1  2  2  3
  2  3  1  0
  3  4  2  0
  3  5  1  0
  5  6  2  0
  6  7  1  0
  7  8  2  0
  8  9  1  0
  9 10  2  0
 10 11  1  0
 11 12  2  3
 12 13  1  0
 13 14  3  0
 12 15  1  0
 15 16  3  0
  8 17  1  0
 17 18  1  0
 18 19  1  0
 19 20  2  0
 20 21  1  0
 21 22  1  0
 21 23  1  0
  1 24  1  0
 24 25  2  0
 25 26  1  0
 26 27  1  0
 27 28  2  0
 28 29  1  0
 29 30  2  0
 30 31  1  0
 30 32  1  0
 32 33  2  0
 26 34  1  0
 34 35  2  0
 35 36  1  0
 36 37  2  0
 37 38  1  0
 37 39  1  0
 39 40  2  0
 25 41  1  0
 41 42  1  0
 42 43  1  0
 43 44  2  0
 44 45  1  0
 45 46  1  0
 46 47  2  0
 47 48  1  0
 48 49  2  0
 49 50  1  0
 49 51  1  0
 51 52  2  0
 45 53  1  0
 53 54  2  0
 54 55  1  0
 55 56  2  0
 56 57  1  0
 56 58  1  0
 58 59  2  0
 44 60  1  0
 60 61  1  0
 43 62  1  0
 62 63  1  0
 63 64  1  0
 64 65  2  0
 65 66  1  0
 66 67  2  0
 67 68  1  0
 68 69  2  0
 68 70  1  0
 70 71  1  0
 71 72  1  0
 67 73  1  0
 73 74  1  0
 64 75  1  0
 75 76  2  0
 76 77  1  0
 77 78  2  0
 78 79  1  0
 79 80  2  0
 80 81  1  0
 81 82  1  0
 81 83  2  0
 83 84  1  0
 84 85  1  0
 83 86  1  0
 86 87  1  0
 86 88  2  0
 78 89  1  0
 89 90  2  0
 90 91  1  0
 91 92  1  0
 92 93  2  0
 93 94  1  0
 94 95  2  0
 95 96  1  0
 96 97  1  0
 95 98  1  0
 98 99  2  0
 98100  1  0
 94101  1  0
 91102  2  0
102103  1  0
 90104  1  0
104105  2  0
105106  1  0
105107  1  0
107108  2  3
108109  1  0
109110  2  0
109111  1  0
111112  2  0
112113  1  0
113114  2  0
114115  1  0
115116  2  0
116117  1  0
117118  2  3
118119  1  0
119120  3  0
118121  1  0
121122  3  0
114123  1  0
123124  1  0
124125  1  0
125126  2  0
126127  1  0
127128  1  0
127129  1  0
 11  2  1  0
 23 17  1  0
 61 24  1  0
 74 62  2  0
103 75  1  0
117108  1  0
129123  1  0
 10  5  1  0
 22 18  1  0
 33 27  1  0
 40 34  1  0
 60 41  2  0
 74 65  1  0
102 77  1  0
116111  1  0
128124  1  0
 23  7  1  0
 52 46  1  0
 59 53  1  0
 88 79  1  0
106 89  1  0
129113  1  0
 99 92  1  0
  1130  1  0
  6131  1  0
  9132  1  0
 17133  1  0
 18134  1  0
 19135  1  0
 20136  1  0
 21137  1  0
 22138  1  0
 22139  1  0
 23140  1  0
 28141  1  0
 29142  1  0
 31143  1  0
 31144  1  0
 31145  1  0
 32146  1  0
 33147  1  0
 35148  1  0
 36149  1  0
 38150  1  0
 38151  1  0
 38152  1  0
 39153  1  0
 40154  1  0
 47155  1  0
 48156  1  0
 50157  1  0
 50158  1  0
 50159  1  0
 51160  1  0
 52161  1  0
 54162  1  0
 55163  1  0
 57164  1  0
 57165  1  0
 57166  1  0
 58167  1  0
 59168  1  0
 66169  1  0
 71170  1  0
 71171  1  0
 72172  1  0
 72173  1  0
 72174  1  0
 76175  1  0
 80176  1  0
 84177  1  0
 84178  1  0
 85179  1  0
 85180  1  0
 85181  1  0
 88182  1  0
 93183  1  0
 96184  1  0
 96185  1  0
 97186  1  0
 97187  1  0
 97188  1  0
 99189  1  0
104190  1  0
107191  1  0
112192  1  0
115193  1  0
123194  1  0
124195  1  0
125196  1  0
126197  1  0
127198  1  0
128199  1  0
128200  1  0
129201  1  0
M  END

