
     RDKit          3D

221244  0  0  0  0  0  0  0  0999 V2000
    0.9191    1.1887   -8.4956 C   0  0  0  0  0  0  0  0  0  0  0  0
    1.2752    2.4282   -8.0303 C   0  0  0  0  0  0  0  0  0  0  0  0
    1.4940    2.7997   -6.6168 C   0  0  0  0  0  0  0  0  0  0  0  0
    1.4807    2.0468   -5.6119 O   0  0  0  0  0  0  0  0  0  0  0  0
    1.7696    4.2154   -6.5242 C   0  0  0  0  0  0  0  0  0  0  0  0
    2.2619    4.8842   -5.3785 C   0  0  0  0  0  0  0  0  0  0  0  0
    2.8048    6.1080   -5.6632 C   0  0  0  0  0  0  0  0  0  0  0  0
    2.8840    6.6369   -6.9896 C   0  0  0  0  0  0  0  0  0  0  0  0
    2.2924    6.0282   -8.0940 C   0  0  0  0  0  0  0  0  0  0  0  0
    1.6874    4.7697   -7.8111 C   0  0  0  0  0  0  0  0  0  0  0  0
    1.3225    3.7057   -8.7776 C   0  0  0  0  0  0  0  0  0  0  0  0
    1.1753    3.8975  -10.1182 C   0  0  0  0  0  0  0  0  0  0  0  0
    1.4517    2.8784  -11.0699 C   0  0  0  0  0  0  0  0  0  0  0  0
    1.6663    2.0236  -11.8374 N   0  0  0  0  0  0  0  0  0  0  0  0
    0.3065    4.9784  -10.5282 C   0  0  0  0  0  0  0  0  0  0  0  0
   -0.5448    5.7198  -10.7578 N   0  0  0  0  0  0  0  0  0  0  0  0
    3.8594    7.6776   -6.5265 C   0  0  0  0  0  0  0  0  0  0  0  0
    5.3667    7.3959   -6.7959 C   0  0  0  0  0  0  0  0  0  0  0  0
    5.6698    5.9044   -6.6802 C   0  0  0  0  0  0  0  0  0  0  0  0
    5.5551    5.5853   -5.3885 C   0  0  0  0  0  0  0  0  0  0  0  0
    5.1225    6.8383   -4.6829 C   0  0  0  0  0  0  0  0  0  0  0  0
    5.9412    7.8452   -5.4708 C   0  0  0  0  0  0  0  0  0  0  0  0
    3.6725    7.2172   -5.1405 C   0  0  0  0  0  0  0  0  0  0  0  0
    1.0581   -0.0208   -7.6560 C   0  0  0  0  0  0  0  0  0  0  0  0
    0.0567   -0.3956   -6.7792 C   0  0  0  0  0  0  0  0  0  0  0  0
   -1.3502   -0.5893   -7.1055 N   0  0  0  0  0  0  0  0  0  0  0  0
   -1.7371   -1.9573   -7.3872 C   0  0  0  0  0  0  0  0  0  0  0  0
   -2.4731   -2.2786   -8.5465 C   0  0  0  0  0  0  0  0  0  0  0  0
   -2.9637   -3.5713   -8.7324 C   0  0  0  0  0  0  0  0  0  0  0  0
   -2.6600   -4.5951   -7.8154 C   0  0  0  0  0  0  0  0  0  0  0  0
   -3.2252   -5.9717   -7.9702 C   0  0  0  0  0  0  0  0  0  0  0  0
   -1.8845   -4.2897   -6.6930 C   0  0  0  0  0  0  0  0  0  0  0  0
   -1.4400   -2.9946   -6.4769 C   0  0  0  0  0  0  0  0  0  0  0  0
   -2.3457    0.3626   -6.6367 C   0  0  0  0  0  0  0  0  0  0  0  0
   -3.7292    0.1796   -6.9230 C   0  0  0  0  0  0  0  0  0  0  0  0
   -4.6839    1.0583   -6.4284 C   0  0  0  0  0  0  0  0  0  0  0  0
   -4.3107    2.1207   -5.5939 C   0  0  0  0  0  0  0  0  0  0  0  0
   -5.3470    3.0461   -5.0397 C   0  0  0  0  0  0  0  0  0  0  0  0
   -2.9531    2.3422   -5.3368 C   0  0  0  0  0  0  0  0  0  0  0  0
   -1.9913    1.4864   -5.8732 C   0  0  0  0  0  0  0  0  0  0  0  0
    0.5627   -0.7297   -5.5420 C   0  0  0  0  0  0  0  0  0  0  0  0
   -0.1313   -0.5266   -4.0615 S   0  0  0  0  0  0  0  0  0  0  0  0
    1.3374   -0.4850   -3.2190 C   0  0  0  0  0  0  0  0  0  0  0  0
    2.4207   -0.6897   -4.1154 C   0  0  0  0  0  0  0  0  0  0  0  0
    3.5508   -1.5087   -3.7358 N   0  0  0  0  0  0  0  0  0  0  0  0
    4.8430   -1.3346   -4.3339 C   0  0  0  0  0  0  0  0  0  0  0  0
    5.4445   -2.4027   -5.0179 C   0  0  0  0  0  0  0  0  0  0  0  0
    6.7746   -2.3168   -5.4478 C   0  0  0  0  0  0  0  0  0  0  0  0
    7.5034   -1.1535   -5.2273 C   0  0  0  0  0  0  0  0  0  0  0  0
    8.9536   -1.1144   -5.6366 C   0  0  0  0  0  0  0  0  0  0  0  0
    6.9142   -0.0677   -4.5641 C   0  0  0  0  0  0  0  0  0  0  0  0
    5.5746   -0.1567   -4.1323 C   0  0  0  0  0  0  0  0  0  0  0  0
    3.2487   -2.7520   -3.0880 C   0  0  0  0  0  0  0  0  0  0  0  0
    2.2981   -3.6304   -3.6451 C   0  0  0  0  0  0  0  0  0  0  0  0
    1.8565   -4.7352   -2.9152 C   0  0  0  0  0  0  0  0  0  0  0  0
    2.3822   -4.9988   -1.6478 C   0  0  0  0  0  0  0  0  0  0  0  0
    1.8303   -6.0991   -0.8096 C   0  0  0  0  0  0  0  0  0  0  0  0
    3.3854   -4.1520   -1.1116 C   0  0  0  0  0  0  0  0  0  0  0  0
    3.8198   -3.0440   -1.8404 C   0  0  0  0  0  0  0  0  0  0  0  0
    1.9195   -0.7790   -5.4167 C   0  0  0  0  0  0  0  0  0  0  0  0
    2.5743   -0.3308   -6.8996 S   0  0  0  0  0  0  0  0  0  0  0  0
    1.3193   -0.2721   -1.7775 C   0  0  0  0  0  0  0  0  0  0  0  0
    2.0848    0.6008   -1.0028 C   0  0  0  0  0  0  0  0  0  0  0  0
    1.5265    0.8477    0.2877 C   0  0  0  0  0  0  0  0  0  0  0  0
    2.0582    1.8917    1.2000 C   0  0  0  0  0  0  0  0  0  0  0  0
    2.5383    3.1118    0.6488 C   0  0  0  0  0  0  0  0  0  0  0  0
    2.9464    4.1643    1.4900 C   0  0  0  0  0  0  0  0  0  0  0  0
    2.8931    4.0104    2.8815 C   0  0  0  0  0  0  0  0  0  0  0  0
    2.4447    2.8092    3.4298 C   0  0  0  0  0  0  0  0  0  0  0  0
    2.0362    1.7640    2.6091 C   0  0  0  0  0  0  0  0  0  0  0  0
    0.3292    0.1488    0.5044 C   0  0  0  0  0  0  0  0  0  0  0  0
    0.0317   -0.7804   -0.8533 S   0  0  0  0  0  0  0  0  0  0  0  0
   -0.2682   -0.2661    1.7671 C   0  0  0  0  0  0  0  0  0  0  0  0
   -1.5204    0.1160    2.3384 C   0  0  0  0  0  0  0  0  0  0  0  0
   -2.0956    1.4456    2.2692 N   0  0  0  0  0  0  0  0  0  0  0  0
   -3.0020    1.8811    3.2811 C   0  0  0  0  0  0  0  0  0  0  0  0
   -2.5613    2.2418    4.5712 C   0  0  0  0  0  0  0  0  0  0  0  0
   -3.5097    2.4381    5.5855 C   0  0  0  0  0  0  0  0  0  0  0  0
   -4.8984    2.2830    5.3362 C   0  0  0  0  0  0  0  0  0  0  0  0
   -6.1019    2.1148    6.7087 S   0  0  0  0  0  0  0  0  0  0  0  0
   -5.6282    0.3879    7.1342 C   0  0  0  0  0  0  0  0  0  0  0  0
   -5.3370    1.9785    4.0138 C   0  0  0  0  0  0  0  0  0  0  0  0
   -4.3890    1.8033    2.9832 C   0  0  0  0  0  0  0  0  0  0  0  0
   -1.9441    2.2815    1.0912 C   0  0  0  0  0  0  0  0  0  0  0  0
   -1.5372    3.6197    1.2334 C   0  0  0  0  0  0  0  0  0  0  0  0
   -1.4902    4.4758    0.1255 C   0  0  0  0  0  0  0  0  0  0  0  0
   -1.8490    4.0103   -1.1475 C   0  0  0  0  0  0  0  0  0  0  0  0
   -1.6899    5.0994   -2.5879 S   0  0  0  0  0  0  0  0  0  0  0  0
   -3.2891    5.9279   -2.3507 C   0  0  0  0  0  0  0  0  0  0  0  0
   -2.2561    2.6764   -1.2992 C   0  0  0  0  0  0  0  0  0  0  0  0
   -2.3110    1.8221   -0.1865 C   0  0  0  0  0  0  0  0  0  0  0  0
   -1.9848   -0.9146    3.1853 C   0  0  0  0  0  0  0  0  0  0  0  0
   -3.2840   -1.0662    4.2507 S   0  0  0  0  0  0  0  0  0  0  0  0
   -2.7097   -2.5147    4.9662 C   0  0  0  0  0  0  0  0  0  0  0  0
   -1.6095   -2.9448    4.2151 C   0  0  0  0  0  0  0  0  0  0  0  0
   -1.0020   -4.2453    4.3455 N   0  0  0  0  0  0  0  0  0  0  0  0
   -0.2070   -4.5488    5.5159 C   0  0  0  0  0  0  0  0  0  0  0  0
    0.8587   -3.7041    5.8658 C   0  0  0  0  0  0  0  0  0  0  0  0
    1.8122   -4.1348    6.7958 C   0  0  0  0  0  0  0  0  0  0  0  0
    1.7308   -5.4248    7.3626 C   0  0  0  0  0  0  0  0  0  0  0  0
    3.1547   -6.0095    8.3336 S   0  0  0  0  0  0  0  0  0  0  0  0
    2.3425   -7.3059    9.3331 C   0  0  0  0  0  0  0  0  0  0  0  0
    0.6559   -6.2514    7.0178 C   0  0  0  0  0  0  0  0  0  0  0  0
   -0.3387   -5.7927    6.1511 C   0  0  0  0  0  0  0  0  0  0  0  0
   -1.2508   -5.2742    3.3548 C   0  0  0  0  0  0  0  0  0  0  0  0
   -2.4620   -5.3028    2.6178 C   0  0  0  0  0  0  0  0  0  0  0  0
   -2.7860   -6.4110    1.8261 C   0  0  0  0  0  0  0  0  0  0  0  0
   -1.9061   -7.5137    1.7495 C   0  0  0  0  0  0  0  0  0  0  0  0
   -2.4306   -9.0556    1.0277 S   0  0  0  0  0  0  0  0  0  0  0  0
   -2.0203   -8.6439   -0.6965 C   0  0  0  0  0  0  0  0  0  0  0  0
   -0.6663   -7.4325    2.3851 C   0  0  0  0  0  0  0  0  0  0  0  0
   -0.3267   -6.3132    3.1564 C   0  0  0  0  0  0  0  0  0  0  0  0
   -1.2203   -2.0089    3.2863 C   0  0  0  0  0  0  0  0  0  0  0  0
    0.1481   -1.8328    2.3557 S   0  0  0  0  0  0  0  0  0  0  0  0
   -3.0998   -3.1204    6.2640 C   0  0  0  0  0  0  0  0  0  0  0  0
   -2.8742   -2.5022    7.4386 C   0  0  0  0  0  0  0  0  0  0  0  0
   -2.5715   -1.0721    7.6473 C   0  0  0  0  0  0  0  0  0  0  0  0
   -2.4502   -0.1749    6.7925 O   0  0  0  0  0  0  0  0  0  0  0  0
   -2.2717   -0.8271    9.0213 C   0  0  0  0  0  0  0  0  0  0  0  0
   -1.8314    0.3947    9.5441 C   0  0  0  0  0  0  0  0  0  0  0  0
   -1.3058    0.2813   10.8072 C   0  0  0  0  0  0  0  0  0  0  0  0
   -1.1928   -0.9670   11.5056 C   0  0  0  0  0  0  0  0  0  0  0  0
   -1.7244   -2.1495   11.0190 C   0  0  0  0  0  0  0  0  0  0  0  0
   -2.2300   -2.0357    9.6958 C   0  0  0  0  0  0  0  0  0  0  0  0
   -2.6022   -3.1459    8.7711 C   0  0  0  0  0  0  0  0  0  0  0  0
   -2.1348   -4.3844    8.8690 C   0  0  0  0  0  0  0  0  0  0  0  0
   -2.8344   -5.5209    8.3229 C   0  0  0  0  0  0  0  0  0  0  0  0
   -3.3955   -6.4154    7.8422 N   0  0  0  0  0  0  0  0  0  0  0  0
   -0.9103   -4.6721    9.6221 C   0  0  0  0  0  0  0  0  0  0  0  0
    0.1104   -4.8217   10.1192 N   0  0  0  0  0  0  0  0  0  0  0  0
   -0.1929   -0.3569   12.4477 C   0  0  0  0  0  0  0  0  0  0  0  0
    1.3307   -0.6210   12.1378 C   0  0  0  0  0  0  0  0  0  0  0  0
    1.5735   -0.6888   10.6364 C   0  0  0  0  0  0  0  0  0  0  0  0
    1.4107    0.5488   10.1747 C   0  0  0  0  0  0  0  0  0  0  0  0
    0.9951    1.3963   11.3534 C   0  0  0  0  0  0  0  0  0  0  0  0
    1.8745    0.7555   12.4146 C   0  0  0  0  0  0  0  0  0  0  0  0
   -0.4353    0.9517   11.8286 C   0  0  0  0  0  0  0  0  0  0  0  0
    0.5226    1.0778   -9.4903 H   0  0  0  0  0  0  0  0  0  0  0  0
    2.4082    4.4038   -4.4271 H   0  0  0  0  0  0  0  0  0  0  0  0
    2.4059    6.4209   -9.0872 H   0  0  0  0  0  0  0  0  0  0  0  0
    3.5372    8.7397   -6.6923 H   0  0  0  0  0  0  0  0  0  0  0  0
    5.7932    7.8740   -7.6969 H   0  0  0  0  0  0  0  0  0  0  0  0
    5.9297    5.2096   -7.4773 H   0  0  0  0  0  0  0  0  0  0  0  0
    5.7328    4.6119   -4.9445 H   0  0  0  0  0  0  0  0  0  0  0  0
    5.2876    6.8451   -3.5820 H   0  0  0  0  0  0  0  0  0  0  0  0
    7.0531    7.6711   -5.3842 H   0  0  0  0  0  0  0  0  0  0  0  0
    5.7135    8.9057   -5.2158 H   0  0  0  0  0  0  0  0  0  0  0  0
    3.1408    7.9438   -4.4809 H   0  0  0  0  0  0  0  0  0  0  0  0
   -2.7204   -1.5033   -9.2591 H   0  0  0  0  0  0  0  0  0  0  0  0
   -3.6052   -3.7833   -9.5846 H   0  0  0  0  0  0  0  0  0  0  0  0
   -3.5290   -6.1663   -9.0227 H   0  0  0  0  0  0  0  0  0  0  0  0
   -2.4718   -6.7284   -7.6830 H   0  0  0  0  0  0  0  0  0  0  0  0
   -4.1105   -6.0788   -7.3120 H   0  0  0  0  0  0  0  0  0  0  0  0
   -1.6561   -5.0605   -5.9683 H   0  0  0  0  0  0  0  0  0  0  0  0
   -0.8925   -2.8048   -5.5710 H   0  0  0  0  0  0  0  0  0  0  0  0
   -4.0832   -0.6516   -7.5023 H   0  0  0  0  0  0  0  0  0  0  0  0
   -5.7245    0.8986   -6.6749 H   0  0  0  0  0  0  0  0  0  0  0  0
   -6.3294    2.5337   -4.9588 H   0  0  0  0  0  0  0  0  0  0  0  0
   -5.4556    3.9232   -5.7165 H   0  0  0  0  0  0  0  0  0  0  0  0
   -5.0592    3.3922   -4.0289 H   0  0  0  0  0  0  0  0  0  0  0  0
   -2.6474    3.1743   -4.7224 H   0  0  0  0  0  0  0  0  0  0  0  0
   -0.9611    1.6802   -5.6306 H   0  0  0  0  0  0  0  0  0  0  0  0
    4.9036   -3.3285   -5.1813 H   0  0  0  0  0  0  0  0  0  0  0  0
    7.2279   -3.1719   -5.9384 H   0  0  0  0  0  0  0  0  0  0  0  0
    9.3864   -0.1015   -5.5094 H   0  0  0  0  0  0  0  0  0  0  0  0
    9.5291   -1.8351   -5.0238 H   0  0  0  0  0  0  0  0  0  0  0  0
    9.0449   -1.4021   -6.7088 H   0  0  0  0  0  0  0  0  0  0  0  0
    7.4753    0.8323   -4.3630 H   0  0  0  0  0  0  0  0  0  0  0  0
    5.1397    0.6709   -3.5844 H   0  0  0  0  0  0  0  0  0  0  0  0
    1.8737   -3.4329   -4.6146 H   0  0  0  0  0  0  0  0  0  0  0  0
    1.0955   -5.3717   -3.3384 H   0  0  0  0  0  0  0  0  0  0  0  0
    1.0738   -5.6838   -0.1062 H   0  0  0  0  0  0  0  0  0  0  0  0
    1.3265   -6.8684   -1.4456 H   0  0  0  0  0  0  0  0  0  0  0  0
    2.6325   -6.5928   -0.2285 H   0  0  0  0  0  0  0  0  0  0  0  0
    3.7959   -4.3423   -0.1425 H   0  0  0  0  0  0  0  0  0  0  0  0
    4.5569   -2.3767   -1.4204 H   0  0  0  0  0  0  0  0  0  0  0  0
    2.9930    1.0251   -1.3341 H   0  0  0  0  0  0  0  0  0  0  0  0
    2.5552    3.2725   -0.4148 H   0  0  0  0  0  0  0  0  0  0  0  0
    3.2958    5.0913    1.0524 H   0  0  0  0  0  0  0  0  0  0  0  0
    3.2012    4.8256    3.5143 H   0  0  0  0  0  0  0  0  0  0  0  0
    2.4045    2.7038    4.5061 H   0  0  0  0  0  0  0  0  0  0  0  0
    1.7059    0.8514    3.0562 H   0  0  0  0  0  0  0  0  0  0  0  0
   -1.5150    2.3683    4.7712 H   0  0  0  0  0  0  0  0  0  0  0  0
   -3.1901    2.5672    6.5846 H   0  0  0  0  0  0  0  0  0  0  0  0
   -6.4479   -0.3675    7.1296 H   0  0  0  0  0  0  0  0  0  0  0  0
   -5.1155    0.4123    8.1287 H   0  0  0  0  0  0  0  0  0  0  0  0
   -4.8666    0.0471    6.4227 H   0  0  0  0  0  0  0  0  0  0  0  0
   -6.3561    1.5840    3.9158 H   0  0  0  0  0  0  0  0  0  0  0  0
   -4.6989    1.3880    2.0309 H   0  0  0  0  0  0  0  0  0  0  0  0
   -1.2648    4.0073    2.2119 H   0  0  0  0  0  0  0  0  0  0  0  0
   -1.1887    5.5136    0.2597 H   0  0  0  0  0  0  0  0  0  0  0  0
   -4.1197    5.2235   -2.5448 H   0  0  0  0  0  0  0  0  0  0  0  0
   -3.3792    6.3413   -1.3245 H   0  0  0  0  0  0  0  0  0  0  0  0
   -3.3526    6.7695   -3.0729 H   0  0  0  0  0  0  0  0  0  0  0  0
   -2.5282    2.3028   -2.2778 H   0  0  0  0  0  0  0  0  0  0  0  0
   -2.6550    0.8083   -0.3174 H   0  0  0  0  0  0  0  0  0  0  0  0
    0.9961   -2.7490    5.3733 H   0  0  0  0  0  0  0  0  0  0  0  0
    2.6523   -3.4982    7.0297 H   0  0  0  0  0  0  0  0  0  0  0  0
    2.3443   -8.2605    8.7634 H   0  0  0  0  0  0  0  0  0  0  0  0
    2.9246   -7.4541   10.2635 H   0  0  0  0  0  0  0  0  0  0  0  0
    1.3026   -7.0450    9.6113 H   0  0  0  0  0  0  0  0  0  0  0  0
    0.5751   -7.2588    7.3886 H   0  0  0  0  0  0  0  0  0  0  0  0
   -1.1531   -6.4518    5.8862 H   0  0  0  0  0  0  0  0  0  0  0  0
   -3.1870   -4.5130    2.7228 H   0  0  0  0  0  0  0  0  0  0  0  0
   -3.7469   -6.4580    1.3564 H   0  0  0  0  0  0  0  0  0  0  0  0
   -2.0686   -9.5647   -1.3101 H   0  0  0  0  0  0  0  0  0  0  0  0
   -2.7644   -7.9147   -1.0848 H   0  0  0  0  0  0  0  0  0  0  0  0
   -1.0025   -8.1992   -0.7889 H   0  0  0  0  0  0  0  0  0  0  0  0
    0.0113   -8.2830    2.3372 H   0  0  0  0  0  0  0  0  0  0  0  0
    0.6373   -6.3138    3.6471 H   0  0  0  0  0  0  0  0  0  0  0  0
   -3.3125   -4.1742    6.2316 H   0  0  0  0  0  0  0  0  0  0  0  0
   -1.7233    1.2768    8.9109 H   0  0  0  0  0  0  0  0  0  0  0  0
   -1.7029   -3.0605   11.5937 H   0  0  0  0  0  0  0  0  0  0  0  0
   -0.4707   -0.4340   13.5330 H   0  0  0  0  0  0  0  0  0  0  0  0
    1.7865   -1.4549   12.7115 H   0  0  0  0  0  0  0  0  0  0  0  0
    1.7515   -1.5729   10.0228 H   0  0  0  0  0  0  0  0  0  0  0  0
    1.4644    0.8643    9.1375 H   0  0  0  0  0  0  0  0  0  0  0  0
    1.1253    2.4988   11.2242 H   0  0  0  0  0  0  0  0  0  0  0  0
    1.6573    1.1346   13.4392 H   0  0  0  0  0  0  0  0  0  0  0  0
    2.9555    0.8415   12.1934 H   0  0  0  0  0  0  0  0  0  0  0  0
   -0.9579    1.6769   12.4948 H   0  0  0  0  0  0  0  0  0  0  0  0
  1  2  2  3
  2  3  1  0
  3  4  2  0
  3  5  1  0
  5  6  2  0
  6  7  1  0
  7  8  2  0
  8  9  1  0
  9 10  2  0
 10 11  1  0
 11 12  2  3
 12 13  1  0
 13 14  3  0
 12 15  1  0
 15 16  3  0
  8 17  1  0
 17 18  1  0
 18 19  1  0
 19 20  2  0
 20 21  1  0
 21 22  1  0
 21 23  1  0
  1 24  1  0
 24 25  2  0
 25 26  1  0
 26 27  1  0
 27 28  2  0
 28 29  1  0
 29 30  2  0
 30 31  1  0
 30 32  1  0
 32 33  2  0
 26 34  1  0
 34 35  2  0
 35 36  1  0
 36 37  2  0
 37 38  1  0
 37 39  1  0
 39 40  2  0
 25 41  1  0
 41 42  1  0
 42 43  1  0
 43 44  2  0
 44 45  1  0
 45 46  1  0
 46 47  2  0
 47 48  1  0
 48 49  2  0
 49 50  1  0
 49 51  1  0
 51 52  2  0
 45 53  1  0
 53 54  2  0
 54 55  1  0
 55 56  2  0
 56 57  1  0
 56 58  1  0
 58 59  2  0
 44 60  1  0
 60 61  1  0
 43 62  1  0
 62 63  2  0
 63 64  1  0
 64 65  1  0
 65 66  2  0
 66 67  1  0
 67 68  2  0
 68 69  1  0
 69 70  2  0
 64 71  2  0
 71 72  1  0
 71 73  1  0
 73 74  2  0
 74 75  1  0
 75 76  1  0
 76 77  2  0
 77 78  1  0
 78 79  2  0
 79 80  1  0
 80 81  1  0
 79 82  1  0
 82 83  2  0
 75 84  1  0
 84 85  2  0
 85 86  1  0
 86 87  2  0
 87 88  1  0
 88 89  1  0
 87 90  1  0
 90 91  2  0
 74 92  1  0
 92 93  1  0
 93 94  1  0
 94 95  2  0
 95 96  1  0
 96 97  1  0
 97 98  2  0
 98 99  1  0
 99100  2  0
100101  1  0
101102  1  0
100103  1  0
103104  2  0
 96105  1  0
105106  2  0
106107  1  0
107108  2  0
108109  1  0
109110  1  0
108111  1  0
111112  2  0
 95113  1  0
113114  1  0
 94115  1  0
115116  2  3
116117  1  0
117118  2  0
117119  1  0
119120  2  0
120121  1  0
121122  2  0
122123  1  0
123124  2  0
124125  1  0
125126  2  3
126127  1  0
127128  3  0
126129  1  0
129130  3  0
122131  1  0
131132  1  0
132133  1  0
133134  2  0
134135  1  0
135136  1  0
135137  1  0
 11  2  1  0
 23 17  1  0
 61 24  1  0
 72 62  1  0
114 73  1  0
125116  1  0
137131  1  0
 10  5  1  0
 22 18  1  0
 33 27  1  0
 40 34  1  0
 60 41  2  0
 70 65  1  0
 83 76  1  0
 91 84  1  0
113 92  2  0
124119  1  0
136132  1  0
 23  7  1  0
 52 46  1  0
 59 53  1  0
104 97  1  0
112105  1  0
137121  1  0
  1138  1  0
  6139  1  0
  9140  1  0
 17141  1  0
 18142  1  0
 19143  1  0
 20144  1  0
 21145  1  0
 22146  1  0
 22147  1  0
 23148  1  0
 28149  1  0
 29150  1  0
 31151  1  0
 31152  1  0
 31153  1  0
 32154  1  0
 33155  1  0
 35156  1  0
 36157  1  0
 38158  1  0
 38159  1  0
 38160  1  0
 39161  1  0
 40162  1  0
 47163  1  0
 48164  1  0
 50165  1  0
 50166  1  0
 50167  1  0
 51168  1  0
 52169  1  0
 54170  1  0
 55171  1  0
 57172  1  0
 57173  1  0
 57174  1  0
 58175  1  0
 59176  1  0
 63177  1  0
 66178  1  0
 67179  1  0
 68180  1  0
 69181  1  0
 70182  1  0
 77183  1  0
 78184  1  0
 81185  1  0
 81186  1  0
 81187  1  0
 82188  1  0
 83189  1  0
 85190  1  0
 86191  1  0
 89192  1  0
 89193  1  0
 89194  1  0
 90195  1  0
 91196  1  0
 98197  1  0
 99198  1  0
102199  1  0
102200  1  0
102201  1  0
103202  1  0
104203  1  0
106204  1  0
107205  1  0
110206  1  0
110207  1  0
110208  1  0
111209  1  0
112210  1  0
115211  1  0
120212  1  0
123213  1  0
131214  1  0
132215  1  0
133216  1  0
134217  1  0
135218  1  0
136219  1  0
136220  1  0
137221  1  0
M  END

