
     RDKit          3D

260285  0  0  0  0  0  0  0  0999 V2000
    0.9335   -4.6804   -5.5316 C   0  0  0  0  0  0  0  0  0  0  0  0
    0.9269   -5.8612   -6.1592 C   0  0  0  0  0  0  0  0  0  0  0  0
    0.3144   -7.0878   -5.6472 C   0  0  0  0  0  0  0  0  0  0  0  0
   -0.6269   -7.1595   -4.8070 O   0  0  0  0  0  0  0  0  0  0  0  0
    0.9839   -8.2193   -6.2534 C   0  0  0  0  0  0  0  0  0  0  0  0
    0.8252   -9.5838   -5.9279 C   0  0  0  0  0  0  0  0  0  0  0  0
    1.6767  -10.4253   -6.6174 C   0  0  0  0  0  0  0  0  0  0  0  0
    2.6354   -9.9553   -7.5756 C   0  0  0  0  0  0  0  0  0  0  0  0
    2.8074   -8.6215   -7.8893 C   0  0  0  0  0  0  0  0  0  0  0  0
    1.9391   -7.7378   -7.1944 C   0  0  0  0  0  0  0  0  0  0  0  0
    1.8615   -6.2562   -7.2478 C   0  0  0  0  0  0  0  0  0  0  0  0
    2.3094   -5.4406   -8.2353 C   0  0  0  0  0  0  0  0  0  0  0  0
    3.1723   -5.8947   -9.2892 C   0  0  0  0  0  0  0  0  0  0  0  0
    3.8826   -6.2382  -10.1385 N   0  0  0  0  0  0  0  0  0  0  0  0
    1.8650   -4.0733   -8.3489 C   0  0  0  0  0  0  0  0  0  0  0  0
    1.5007   -2.9835   -8.4543 N   0  0  0  0  0  0  0  0  0  0  0  0
    3.1142  -11.3539   -7.8142 C   0  0  0  0  0  0  0  0  0  0  0  0
    4.4939  -11.7518   -7.2111 C   0  0  0  0  0  0  0  0  0  0  0  0
    4.7529  -10.9617   -5.9497 C   0  0  0  0  0  0  0  0  0  0  0  0
    3.8772  -11.4002   -5.0432 C   0  0  0  0  0  0  0  0  0  0  0  0
    3.0509  -12.4679   -5.7210 C   0  0  0  0  0  0  0  0  0  0  0  0
    4.1295  -13.0885   -6.5882 C   0  0  0  0  0  0  0  0  0  0  0  0
    2.1463  -11.8352   -6.8225 C   0  0  0  0  0  0  0  0  0  0  0  0
   -0.0328   -4.2973   -4.4987 C   0  0  0  0  0  0  0  0  0  0  0  0
    0.3356   -3.6680   -3.3011 C   0  0  0  0  0  0  0  0  0  0  0  0
    1.6047   -3.8571   -2.6538 N   0  0  0  0  0  0  0  0  0  0  0  0
    2.0619   -5.2072   -2.4160 C   0  0  0  0  0  0  0  0  0  0  0  0
    1.1559   -6.1999   -2.0024 C   0  0  0  0  0  0  0  0  0  0  0  0
    1.5927   -7.5082   -1.7788 C   0  0  0  0  0  0  0  0  0  0  0  0
    2.9395   -7.8481   -1.9757 C   0  0  0  0  0  0  0  0  0  0  0  0
    3.4051   -9.2440   -1.6891 C   0  0  0  0  0  0  0  0  0  0  0  0
    3.8504   -6.8598   -2.3744 C   0  0  0  0  0  0  0  0  0  0  0  0
    3.4130   -5.5494   -2.6012 C   0  0  0  0  0  0  0  0  0  0  0  0
    2.3892   -2.7283   -2.2085 C   0  0  0  0  0  0  0  0  0  0  0  0
    2.5628   -1.6138   -3.0387 C   0  0  0  0  0  0  0  0  0  0  0  0
    3.3763   -0.5490   -2.6330 C   0  0  0  0  0  0  0  0  0  0  0  0
    4.0044   -0.5784   -1.3802 C   0  0  0  0  0  0  0  0  0  0  0  0
    4.8248    0.5955   -0.9107 C   0  0  0  0  0  0  0  0  0  0  0  0
    3.8012   -1.6792   -0.5321 C   0  0  0  0  0  0  0  0  0  0  0  0
    3.0042   -2.7481   -0.9462 C   0  0  0  0  0  0  0  0  0  0  0  0
   -0.7139   -2.9179   -2.7781 C   0  0  0  0  0  0  0  0  0  0  0  0
   -0.8274   -1.7535   -1.5879 S   0  0  0  0  0  0  0  0  0  0  0  0
   -2.4111   -1.2659   -2.0162 C   0  0  0  0  0  0  0  0  0  0  0  0
   -2.8394   -2.0448   -3.1038 C   0  0  0  0  0  0  0  0  0  0  0  0
   -4.1857   -2.0630   -3.5959 N   0  0  0  0  0  0  0  0  0  0  0  0
   -4.6384   -1.0510   -4.5283 C   0  0  0  0  0  0  0  0  0  0  0  0
   -5.9737   -0.6037   -4.5081 C   0  0  0  0  0  0  0  0  0  0  0  0
   -6.4102    0.3746   -5.4034 C   0  0  0  0  0  0  0  0  0  0  0  0
   -5.5214    0.9356   -6.3305 C   0  0  0  0  0  0  0  0  0  0  0  0
   -6.0088    1.9695   -7.3020 C   0  0  0  0  0  0  0  0  0  0  0  0
   -4.1940    0.4842   -6.3699 C   0  0  0  0  0  0  0  0  0  0  0  0
   -3.7522   -0.4871   -5.4650 C   0  0  0  0  0  0  0  0  0  0  0  0
   -5.0587   -3.1134   -3.1136 C   0  0  0  0  0  0  0  0  0  0  0  0
   -4.9900   -3.5351   -1.7722 C   0  0  0  0  0  0  0  0  0  0  0  0
   -5.8280   -4.5449   -1.2995 C   0  0  0  0  0  0  0  0  0  0  0  0
   -6.7364   -5.1673   -2.1682 C   0  0  0  0  0  0  0  0  0  0  0  0
   -7.6848   -6.2009   -1.6341 C   0  0  0  0  0  0  0  0  0  0  0  0
   -6.7965   -4.7654   -3.5124 C   0  0  0  0  0  0  0  0  0  0  0  0
   -5.9531   -3.7541   -3.9852 C   0  0  0  0  0  0  0  0  0  0  0  0
   -1.8667   -2.9591   -3.4928 C   0  0  0  0  0  0  0  0  0  0  0  0
   -1.6520   -3.9043   -4.8637 S   0  0  0  0  0  0  0  0  0  0  0  0
   -2.8477    0.1019   -1.7457 C   0  0  0  0  0  0  0  0  0  0  0  0
   -3.1203    0.5375   -0.4389 C   0  0  0  0  0  0  0  0  0  0  0  0
   -3.8930   -0.2108    0.5189 N   0  0  0  0  0  0  0  0  0  0  0  0
   -5.2381   -0.6455    0.1968 C   0  0  0  0  0  0  0  0  0  0  0  0
   -5.8489   -1.6731    0.9399 C   0  0  0  0  0  0  0  0  0  0  0  0
   -7.1598   -2.0701    0.6566 C   0  0  0  0  0  0  0  0  0  0  0  0
   -7.8769   -1.4566   -0.3728 C   0  0  0  0  0  0  0  0  0  0  0  0
   -9.5583   -1.9521   -0.7211 S   0  0  0  0  0  0  0  0  0  0  0  0
  -10.2730   -0.7725    0.4702 C   0  0  0  0  0  0  0  0  0  0  0  0
   -7.2847   -0.4300   -1.1151 C   0  0  0  0  0  0  0  0  0  0  0  0
   -5.9721   -0.0359   -0.8422 C   0  0  0  0  0  0  0  0  0  0  0  0
   -3.4354   -0.2558    1.8817 C   0  0  0  0  0  0  0  0  0  0  0  0
   -2.2111   -0.8698    2.1911 C   0  0  0  0  0  0  0  0  0  0  0  0
   -1.7662   -0.9180    3.5172 C   0  0  0  0  0  0  0  0  0  0  0  0
   -2.5386   -0.3483    4.5410 C   0  0  0  0  0  0  0  0  0  0  0  0
   -1.9984   -0.4811    6.2434 S   0  0  0  0  0  0  0  0  0  0  0  0
   -2.9362   -2.0172    6.5280 C   0  0  0  0  0  0  0  0  0  0  0  0
   -3.7422    0.2999    4.2296 C   0  0  0  0  0  0  0  0  0  0  0  0
   -4.1930    0.3354    2.9074 C   0  0  0  0  0  0  0  0  0  0  0  0
   -2.5671    1.7905   -0.1876 C   0  0  0  0  0  0  0  0  0  0  0  0
   -2.1371    2.6055    1.2130 S   0  0  0  0  0  0  0  0  0  0  0  0
   -1.0862    3.7022    0.4506 C   0  0  0  0  0  0  0  0  0  0  0  0
   -1.0928    3.4302   -0.9296 C   0  0  0  0  0  0  0  0  0  0  0  0
   -0.6475    4.3575   -1.9352 N   0  0  0  0  0  0  0  0  0  0  0  0
   -1.4425    5.5454   -2.1868 C   0  0  0  0  0  0  0  0  0  0  0  0
   -0.9455    6.5747   -3.0065 C   0  0  0  0  0  0  0  0  0  0  0  0
   -1.7849    7.6132   -3.4341 C   0  0  0  0  0  0  0  0  0  0  0  0
   -3.1190    7.6614   -3.0118 C   0  0  0  0  0  0  0  0  0  0  0  0
   -4.2277    8.9120   -3.6572 S   0  0  0  0  0  0  0  0  0  0  0  0
   -4.8611    7.8373   -4.9822 C   0  0  0  0  0  0  0  0  0  0  0  0
   -3.5927    6.7098   -2.1059 C   0  0  0  0  0  0  0  0  0  0  0  0
   -2.7670    5.6546   -1.7014 C   0  0  0  0  0  0  0  0  0  0  0  0
    0.2358    3.8577   -2.9634 C   0  0  0  0  0  0  0  0  0  0  0  0
    1.5118    3.3804   -2.6354 C   0  0  0  0  0  0  0  0  0  0  0  0
    2.3910    2.9597   -3.6440 C   0  0  0  0  0  0  0  0  0  0  0  0
    1.9897    2.9860   -4.9862 C   0  0  0  0  0  0  0  0  0  0  0  0
    3.1498    2.5476   -6.2758 S   0  0  0  0  0  0  0  0  0  0  0  0
    2.6629    0.7926   -6.3694 C   0  0  0  0  0  0  0  0  0  0  0  0
    0.6962    3.4089   -5.3166 C   0  0  0  0  0  0  0  0  0  0  0  0
   -0.1767    3.8427   -4.3117 C   0  0  0  0  0  0  0  0  0  0  0  0
   -1.9343    2.3627   -1.2341 C   0  0  0  0  0  0  0  0  0  0  0  0
   -2.0156    1.3499   -2.5575 S   0  0  0  0  0  0  0  0  0  0  0  0
    0.1310    4.0783    1.1728 C   0  0  0  0  0  0  0  0  0  0  0  0
    0.1471    4.8383    2.3562 C   0  0  0  0  0  0  0  0  0  0  0  0
   -0.7794    5.8999    2.6361 N   0  0  0  0  0  0  0  0  0  0  0  0
   -0.9774    6.9260    1.6332 C   0  0  0  0  0  0  0  0  0  0  0  0
    0.0763    7.3169    0.7828 C   0  0  0  0  0  0  0  0  0  0  0  0
   -0.0848    8.3615   -0.1289 C   0  0  0  0  0  0  0  0  0  0  0  0
   -1.3157    9.0347   -0.2156 C   0  0  0  0  0  0  0  0  0  0  0  0
   -1.4632   10.2101   -1.1320 C   0  0  0  0  0  0  0  0  0  0  0  0
   -2.3756    8.6406    0.6146 C   0  0  0  0  0  0  0  0  0  0  0  0
   -2.2126    7.5899    1.5229 C   0  0  0  0  0  0  0  0  0  0  0  0
   -1.2980    6.0633    3.9709 C   0  0  0  0  0  0  0  0  0  0  0  0
   -1.2384    7.3137    4.6111 C   0  0  0  0  0  0  0  0  0  0  0  0
   -1.6748    7.4533    5.9299 C   0  0  0  0  0  0  0  0  0  0  0  0
   -2.1766    6.3477    6.6309 C   0  0  0  0  0  0  0  0  0  0  0  0
   -2.5863    6.4912    8.0692 C   0  0  0  0  0  0  0  0  0  0  0  0
   -2.2151    5.0904    6.0062 C   0  0  0  0  0  0  0  0  0  0  0  0
   -1.7828    4.9504    4.6817 C   0  0  0  0  0  0  0  0  0  0  0  0
    1.2515    4.5201    3.1512 C   0  0  0  0  0  0  0  0  0  0  0  0
    1.7897    4.9794    4.6820 S   0  0  0  0  0  0  0  0  0  0  0  0
    3.0983    3.8735    4.6753 C   0  0  0  0  0  0  0  0  0  0  0  0
    3.1383    3.2086    3.4480 C   0  0  0  0  0  0  0  0  0  0  0  0
    4.1253    2.2321    3.0888 N   0  0  0  0  0  0  0  0  0  0  0  0
    5.3242    2.6386    2.3925 C   0  0  0  0  0  0  0  0  0  0  0  0
    5.2845    3.6696    1.4309 C   0  0  0  0  0  0  0  0  0  0  0  0
    6.4491    4.0899    0.7875 C   0  0  0  0  0  0  0  0  0  0  0  0
    7.6812    3.4873    1.0824 C   0  0  0  0  0  0  0  0  0  0  0  0
    8.9362    4.0052    0.4512 C   0  0  0  0  0  0  0  0  0  0  0  0
    7.7310    2.4605    2.0383 C   0  0  0  0  0  0  0  0  0  0  0  0
    6.5629    2.0266    2.6713 C   0  0  0  0  0  0  0  0  0  0  0  0
    3.9224    0.8686    3.4872 C   0  0  0  0  0  0  0  0  0  0  0  0
    3.2182   -0.0101    2.6549 C   0  0  0  0  0  0  0  0  0  0  0  0
    3.0017   -1.3366    3.0496 C   0  0  0  0  0  0  0  0  0  0  0  0
    3.4771   -1.7889    4.2878 C   0  0  0  0  0  0  0  0  0  0  0  0
    3.2802   -3.2181    4.7085 C   0  0  0  0  0  0  0  0  0  0  0  0
    4.1836   -0.9079    5.1220 C   0  0  0  0  0  0  0  0  0  0  0  0
    4.3940    0.4169    4.7300 C   0  0  0  0  0  0  0  0  0  0  0  0
    2.0715    3.5717    2.6412 C   0  0  0  0  0  0  0  0  0  0  0  0
    1.4823    3.0338    1.1738 S   0  0  0  0  0  0  0  0  0  0  0  0
    4.1029    3.7001    5.7318 C   0  0  0  0  0  0  0  0  0  0  0  0
    3.8762    3.5649    7.0527 C   0  0  0  0  0  0  0  0  0  0  0  0
    4.9631    3.6809    8.0200 C   0  0  0  0  0  0  0  0  0  0  0  0
    6.1902    3.7105    7.7452 O   0  0  0  0  0  0  0  0  0  0  0  0
    4.4046    3.7878    9.3431 C   0  0  0  0  0  0  0  0  0  0  0  0
    5.1006    3.8863   10.5524 C   0  0  0  0  0  0  0  0  0  0  0  0
    4.3477    3.8351   11.7283 C   0  0  0  0  0  0  0  0  0  0  0  0
    4.8621    3.8567   13.0315 C   0  0  0  0  0  0  0  0  0  0  0  0
    3.8689    3.7617   14.0077 C   0  0  0  0  0  0  0  0  0  0  0  0
    2.3621    3.6475   13.2465 S   0  0  0  0  0  0  0  0  0  0  0  0
    2.9622    3.7082   11.6809 C   0  0  0  0  0  0  0  0  0  0  0  0
    2.2594    3.6393   10.4753 C   0  0  0  0  0  0  0  0  0  0  0  0
    3.0162    3.6826    9.2783 C   0  0  0  0  0  0  0  0  0  0  0  0
    2.6067    3.4615    7.8521 C   0  0  0  0  0  0  0  0  0  0  0  0
    1.4151    2.9469    7.4353 C   0  0  0  0  0  0  0  0  0  0  0  0
    1.2867    2.1423    6.2450 C   0  0  0  0  0  0  0  0  0  0  0  0
    1.1716    1.4771    5.3062 N   0  0  0  0  0  0  0  0  0  0  0  0
    0.2188    3.0243    8.2334 C   0  0  0  0  0  0  0  0  0  0  0  0
   -0.7569    3.0799    8.8580 N   0  0  0  0  0  0  0  0  0  0  0  0
    1.6937   -3.9528   -5.7707 H   0  0  0  0  0  0  0  0  0  0  0  0
    0.1184   -9.9405   -5.1838 H   0  0  0  0  0  0  0  0  0  0  0  0
    3.5890   -8.3129   -8.5671 H   0  0  0  0  0  0  0  0  0  0  0  0
    2.9237  -11.7306   -8.8444 H   0  0  0  0  0  0  0  0  0  0  0  0
    5.3469  -11.7694   -7.9287 H   0  0  0  0  0  0  0  0  0  0  0  0
    5.5267  -10.2205   -5.7795 H   0  0  0  0  0  0  0  0  0  0  0  0
    3.8152  -11.0771   -4.0108 H   0  0  0  0  0  0  0  0  0  0  0  0
    2.5294  -13.1701   -5.0314 H   0  0  0  0  0  0  0  0  0  0  0  0
    3.7352  -13.8314   -7.3165 H   0  0  0  0  0  0  0  0  0  0  0  0
    4.9693  -13.5398   -6.0031 H   0  0  0  0  0  0  0  0  0  0  0  0
    1.3770  -12.5105   -7.2540 H   0  0  0  0  0  0  0  0  0  0  0  0
    0.1169   -5.9546   -1.8297 H   0  0  0  0  0  0  0  0  0  0  0  0
    0.8848   -8.2531   -1.4449 H   0  0  0  0  0  0  0  0  0  0  0  0
    3.5953   -9.3559   -0.6005 H   0  0  0  0  0  0  0  0  0  0  0  0
    2.6354   -9.9839   -1.9965 H   0  0  0  0  0  0  0  0  0  0  0  0
    4.3445   -9.4733   -2.2389 H   0  0  0  0  0  0  0  0  0  0  0  0
    4.8989   -7.0974   -2.5008 H   0  0  0  0  0  0  0  0  0  0  0  0
    4.1306   -4.8017   -2.9185 H   0  0  0  0  0  0  0  0  0  0  0  0
    2.1042   -1.5854   -4.0168 H   0  0  0  0  0  0  0  0  0  0  0  0
    3.5309    0.2855   -3.3046 H   0  0  0  0  0  0  0  0  0  0  0  0
    5.3487    1.0663   -1.7682 H   0  0  0  0  0  0  0  0  0  0  0  0
    5.5875    0.2761   -0.1686 H   0  0  0  0  0  0  0  0  0  0  0  0
    4.1583    1.3469   -0.4357 H   0  0  0  0  0  0  0  0  0  0  0  0
    4.2722   -1.7160    0.4415 H   0  0  0  0  0  0  0  0  0  0  0  0
    2.8705   -3.5934   -0.2844 H   0  0  0  0  0  0  0  0  0  0  0  0
   -6.6793   -1.0197   -3.8037 H   0  0  0  0  0  0  0  0  0  0  0  0
   -7.4438    0.6986   -5.3741 H   0  0  0  0  0  0  0  0  0  0  0  0
   -6.6434    2.7207   -6.7832 H   0  0  0  0  0  0  0  0  0  0  0  0
   -6.6053    1.4781   -8.0996 H   0  0  0  0  0  0  0  0  0  0  0  0
   -5.1591    2.5050   -7.7806 H   0  0  0  0  0  0  0  0  0  0  0  0
   -3.4979    0.8846   -7.0985 H   0  0  0  0  0  0  0  0  0  0  0  0
   -2.7218   -0.8162   -5.5135 H   0  0  0  0  0  0  0  0  0  0  0  0
   -4.3040   -3.0676   -1.0813 H   0  0  0  0  0  0  0  0  0  0  0  0
   -5.7803   -4.8300   -0.2590 H   0  0  0  0  0  0  0  0  0  0  0  0
   -8.0346   -6.8710   -2.4461 H   0  0  0  0  0  0  0  0  0  0  0  0
   -7.1823   -6.8252   -0.8630 H   0  0  0  0  0  0  0  0  0  0  0  0
   -8.5601   -5.6990   -1.1688 H   0  0  0  0  0  0  0  0  0  0  0  0
   -7.4917   -5.2337   -4.1986 H   0  0  0  0  0  0  0  0  0  0  0  0
   -5.9940   -3.4698   -5.0261 H   0  0  0  0  0  0  0  0  0  0  0  0
   -5.3125   -2.1770    1.7347 H   0  0  0  0  0  0  0  0  0  0  0  0
   -7.6154   -2.8678    1.2322 H   0  0  0  0  0  0  0  0  0  0  0  0
  -10.0159    0.2674    0.1813 H   0  0  0  0  0  0  0  0  0  0  0  0
  -11.3751   -0.8791    0.4804 H   0  0  0  0  0  0  0  0  0  0  0  0
   -9.8832   -0.9800    1.4862 H   0  0  0  0  0  0  0  0  0  0  0  0
   -7.8419    0.0649   -1.9021 H   0  0  0  0  0  0  0  0  0  0  0  0
   -5.5505    0.7716   -1.4289 H   0  0  0  0  0  0  0  0  0  0  0  0
   -1.6136   -1.3174    1.4097 H   0  0  0  0  0  0  0  0  0  0  0  0
   -0.8292   -1.4124    3.7522 H   0  0  0  0  0  0  0  0  0  0  0  0
   -2.6687   -2.7820    5.7641 H   0  0  0  0  0  0  0  0  0  0  0  0
   -2.6934   -2.4166    7.5335 H   0  0  0  0  0  0  0  0  0  0  0  0
   -4.0254   -1.8073    6.4823 H   0  0  0  0  0  0  0  0  0  0  0  0
   -4.3340    0.7523    5.0119 H   0  0  0  0  0  0  0  0  0  0  0  0
   -5.1239    0.8317    2.6775 H   0  0  0  0  0  0  0  0  0  0  0  0
    0.0787    6.5540   -3.3589 H   0  0  0  0  0  0  0  0  0  0  0  0
   -1.4036    8.3696   -4.1057 H   0  0  0  0  0  0  0  0  0  0  0  0
   -5.5152    8.4289   -5.6565 H   0  0  0  0  0  0  0  0  0  0  0  0
   -4.0214    7.4243   -5.5854 H   0  0  0  0  0  0  0  0  0  0  0  0
   -5.4561    7.0121   -4.5424 H   0  0  0  0  0  0  0  0  0  0  0  0
   -4.6155    6.7508   -1.7566 H   0  0  0  0  0  0  0  0  0  0  0  0
   -3.2007    4.9028   -1.0625 H   0  0  0  0  0  0  0  0  0  0  0  0
    1.8427    3.3544   -1.6109 H   0  0  0  0  0  0  0  0  0  0  0  0
    3.3861    2.6329   -3.3836 H   0  0  0  0  0  0  0  0  0  0  0  0
    3.5757    0.1709   -6.4736 H   0  0  0  0  0  0  0  0  0  0  0  0
    2.1091    0.4615   -5.4663 H   0  0  0  0  0  0  0  0  0  0  0  0
    2.0269    0.6378   -7.2627 H   0  0  0  0  0  0  0  0  0  0  0  0
    0.3736    3.4328   -6.3498 H   0  0  0  0  0  0  0  0  0  0  0  0
   -1.1698    4.1755   -4.5853 H   0  0  0  0  0  0  0  0  0  0  0  0
    1.0451    6.8395    0.8511 H   0  0  0  0  0  0  0  0  0  0  0  0
    0.7462    8.6530   -0.7610 H   0  0  0  0  0  0  0  0  0  0  0  0
   -2.5045   10.2750   -1.5103 H   0  0  0  0  0  0  0  0  0  0  0  0
   -1.2131   11.1428   -0.5802 H   0  0  0  0  0  0  0  0  0  0  0  0
   -0.7859   10.1190   -2.0092 H   0  0  0  0  0  0  0  0  0  0  0  0
   -3.3306    9.1541    0.5598 H   0  0  0  0  0  0  0  0  0  0  0  0
   -3.0426    7.3076    2.1540 H   0  0  0  0  0  0  0  0  0  0  0  0
   -0.8273    8.1713    4.0986 H   0  0  0  0  0  0  0  0  0  0  0  0
   -1.6096    8.4225    6.4043 H   0  0  0  0  0  0  0  0  0  0  0  0
   -2.9469    7.5197    8.2748 H   0  0  0  0  0  0  0  0  0  0  0  0
   -1.7198    6.2700    8.7247 H   0  0  0  0  0  0  0  0  0  0  0  0
   -3.4141    5.7894    8.3143 H   0  0  0  0  0  0  0  0  0  0  0  0
   -2.5677    4.2191    6.5493 H   0  0  0  0  0  0  0  0  0  0  0  0
   -1.8089    3.9704    4.2171 H   0  0  0  0  0  0  0  0  0  0  0  0
    4.3549    4.1690    1.1939 H   0  0  0  0  0  0  0  0  0  0  0  0
    6.3904    4.8974    0.0694 H   0  0  0  0  0  0  0  0  0  0  0  0
    8.7693    4.1923   -0.6302 H   0  0  0  0  0  0  0  0  0  0  0  0
    9.2358    4.9550    0.9438 H   0  0  0  0  0  0  0  0  0  0  0  0
    9.7660    3.2731    0.5499 H   0  0  0  0  0  0  0  0  0  0  0  0
    8.6770    2.0035    2.3066 H   0  0  0  0  0  0  0  0  0  0  0  0
    6.6335    1.2314    3.4037 H   0  0  0  0  0  0  0  0  0  0  0  0
    2.8327    0.3276    1.7017 H   0  0  0  0  0  0  0  0  0  0  0  0
    2.4574   -2.0021    2.3912 H   0  0  0  0  0  0  0  0  0  0  0  0
    2.4480   -3.6922    4.1464 H   0  0  0  0  0  0  0  0  0  0  0  0
    4.2146   -3.7869    4.5163 H   0  0  0  0  0  0  0  0  0  0  0  0
    3.0398   -3.2713    5.7925 H   0  0  0  0  0  0  0  0  0  0  0  0
    4.5769   -1.2486    6.0700 H   0  0  0  0  0  0  0  0  0  0  0  0
    4.9476    1.0835    5.3786 H   0  0  0  0  0  0  0  0  0  0  0  0
    5.1278    3.6676    5.3893 H   0  0  0  0  0  0  0  0  0  0  0  0
    6.1810    3.9571   10.5737 H   0  0  0  0  0  0  0  0  0  0  0  0
    5.9189    3.9448   13.2639 H   0  0  0  0  0  0  0  0  0  0  0  0
    4.0386    3.7684   15.0765 H   0  0  0  0  0  0  0  0  0  0  0  0
    1.1893    3.5267   10.5052 H   0  0  0  0  0  0  0  0  0  0  0  0
  1  2  2  3
  2  3  1  0
  3  4  2  0
  3  5  1  0
  5  6  2  0
  6  7  1  0
  7  8  2  0
  8  9  1  0
  9 10  2  0
 10 11  1  0
 11 12  2  3
 12 13  1  0
 13 14  3  0
 12 15  1  0
 15 16  3  0
  8 17  1  0
 17 18  1  0
 18 19  1  0
 19 20  2  0
 20 21  1  0
 21 22  1  0
 21 23  1  0
  1 24  1  0
 24 25  2  0
 25 26  1  0
 26 27  1  0
 27 28  2  0
 28 29  1  0
 29 30  2  0
 30 31  1  0
 30 32  1  0
 32 33  2  0
 26 34  1  0
 34 35  2  0
 35 36  1  0
 36 37  2  0
 37 38  1  0
 37 39  1  0
 39 40  2  0
 25 41  1  0
 41 42  1  0
 42 43  1  0
 43 44  2  0
 44 45  1  0
 45 46  1  0
 46 47  2  0
 47 48  1  0
 48 49  2  0
 49 50  1  0
 49 51  1  0
 51 52  2  0
 45 53  1  0
 53 54  2  0
 54 55  1  0
 55 56  2  0
 56 57  1  0
 56 58  1  0
 58 59  2  0
 44 60  1  0
 60 61  1  0
 43 62  1  0
 62 63  2  0
 63 64  1  0
 64 65  1  0
 65 66  2  0
 66 67  1  0
 67 68  2  0
 68 69  1  0
 69 70  1  0
 68 71  1  0
 71 72  2  0
 64 73  1  0
 73 74  2  0
 74 75  1  0
 75 76  2  0
 76 77  1  0
 77 78  1  0
 76 79  1  0
 79 80  2  0
 63 81  1  0
 81 82  1  0
 82 83  1  0
 83 84  2  0
 84 85  1  0
 85 86  1  0
 86 87  2  0
 87 88  1  0
 88 89  2  0
 89 90  1  0
 90 91  1  0
 89 92  1  0
 92 93  2  0
 85 94  1  0
 94 95  2  0
 95 96  1  0
 96 97  2  0
 97 98  1  0
 98 99  1  0
 97100  1  0
100101  2  0
 84102  1  0
102103  1  0
 83104  1  0
104105  2  0
105106  1  0
106107  1  0
107108  2  0
108109  1  0
109110  2  0
110111  1  0
110112  1  0
112113  2  0
106114  1  0
114115  2  0
115116  1  0
116117  2  0
117118  1  0
117119  1  0
119120  2  0
105121  1  0
121122  1  0
122123  1  0
123124  2  0
124125  1  0
125126  1  0
126127  2  0
127128  1  0
128129  2  0
129130  1  0
129131  1  0
131132  2  0
125133  1  0
133134  2  0
134135  1  0
135136  2  0
136137  1  0
136138  1  0
138139  2  0
124140  1  0
140141  1  0
123142  1  0
142143  2  3
143144  1  0
144145  2  0
144146  1  0
146147  2  0
147148  1  0
148149  1  0
149150  2  0
150151  1  0
151152  1  0
152153  1  0
153154  2  0
154155  1  0
155156  2  3
156157  1  0
157158  3  0
156159  1  0
159160  3  0
 11  2  1  0
 23 17  1  0
 61 24  1  0
103 62  1  0
141104  1  0
155143  1  0
 10  5  1  0
 22 18  1  0
 33 27  1  0
 40 34  1  0
 60 41  2  0
 72 65  1  0
 80 73  1  0
102 81  2  0
113107  1  0
120114  1  0
140121  2  0
154146  1  0
 23  7  1  0
 52 46  1  0
 59 53  1  0
 93 86  1  0
101 94  1  0
132126  1  0
139133  1  0
152148  2  0
  1161  1  0
  6162  1  0
  9163  1  0
 17164  1  0
 18165  1  0
 19166  1  0
 20167  1  0
 21168  1  0
 22169  1  0
 22170  1  0
 23171  1  0
 28172  1  0
 29173  1  0
 31174  1  0
 31175  1  0
 31176  1  0
 32177  1  0
 33178  1  0
 35179  1  0
 36180  1  0
 38181  1  0
 38182  1  0
 38183  1  0
 39184  1  0
 40185  1  0
 47186  1  0
 48187  1  0
 50188  1  0
 50189  1  0
 50190  1  0
 51191  1  0
 52192  1  0
 54193  1  0
 55194  1  0
 57195  1  0
 57196  1  0
 57197  1  0
 58198  1  0
 59199  1  0
 66200  1  0
 67201  1  0
 70202  1  0
 70203  1  0
 70204  1  0
 71205  1  0
 72206  1  0
 74207  1  0
 75208  1  0
 78209  1  0
 78210  1  0
 78211  1  0
 79212  1  0
 80213  1  0
 87214  1  0
 88215  1  0
 91216  1  0
 91217  1  0
 91218  1  0
 92219  1  0
 93220  1  0
 95221  1  0
 96222  1  0
 99223  1  0
 99224  1  0
 99225  1  0
100226  1  0
101227  1  0
108228  1  0
109229  1  0
111230  1  0
111231  1  0
111232  1  0
112233  1  0
113234  1  0
115235  1  0
116236  1  0
118237  1  0
118238  1  0
118239  1  0
119240  1  0
120241  1  0
127242  1  0
128243  1  0
130244  1  0
130245  1  0
130246  1  0
131247  1  0
132248  1  0
134249  1  0
135250  1  0
137251  1  0
137252  1  0
137253  1  0
138254  1  0
139255  1  0
142256  1  0
147257  1  0
149258  1  0
150259  1  0
153260  1  0
M  END

