
     RDKit          3D

127142  0  0  0  0  0  0  0  0999 V2000
   -2.7450   -5.2899    3.9584 C   0  0  0  0  0  0  0  0  0  0  0  0
   -3.6298   -5.1640    2.8968 C   0  0  0  0  0  0  0  0  0  0  0  0
   -3.2855   -4.9177    1.5857 C   0  0  0  0  0  0  0  0  0  0  0  0
   -2.1953   -5.2857    1.0327 O   0  0  0  0  0  0  0  0  0  0  0  0
   -4.3446   -4.1903    0.9944 C   0  0  0  0  0  0  0  0  0  0  0  0
   -4.4172   -3.6995   -0.3463 C   0  0  0  0  0  0  0  0  0  0  0  0
   -5.5926   -2.9640   -0.5928 C   0  0  0  0  0  0  0  0  0  0  0  0
   -6.5170   -2.7427    0.2664 C   0  0  0  0  0  0  0  0  0  0  0  0
   -6.3810   -3.2753    1.5762 C   0  0  0  0  0  0  0  0  0  0  0  0
   -5.2948   -3.9791    1.8649 C   0  0  0  0  0  0  0  0  0  0  0  0
   -4.8792   -4.7195    3.4392 C   0  0  0  0  0  0  0  0  0  0  0  0
   -5.9731   -4.1790    3.8538 C   0  0  0  0  0  0  0  0  0  0  0  0
   -7.0219   -4.2720    4.4744 C   0  0  0  0  0  0  0  0  0  0  0  0
   -8.1379   -4.3769    5.1607 N   0  0  0  0  0  0  0  0  0  0  0  0
   -5.4206   -2.5827    4.1403 C   0  0  0  0  0  0  0  0  0  0  0  0
   -5.0702   -1.5455    4.3143 N   0  0  0  0  0  0  0  0  0  0  0  0
   -7.3287   -1.7709   -0.4894 C   0  0  0  0  0  0  0  0  0  0  0  0
   -8.6661   -2.0358   -0.9669 C   0  0  0  0  0  0  0  0  0  0  0  0
   -9.0301   -3.4320   -1.0028 C   0  0  0  0  0  0  0  0  0  0  0  0
   -8.0755   -4.0120   -1.8148 C   0  0  0  0  0  0  0  0  0  0  0  0
   -7.3641   -2.9636   -2.4802 C   0  0  0  0  0  0  0  0  0  0  0  0
   -8.4609   -1.8364   -2.5005 C   0  0  0  0  0  0  0  0  0  0  0  0
   -6.3819   -2.2464   -1.6334 C   0  0  0  0  0  0  0  0  0  0  0  0
   -1.3349   -5.2131    4.0045 C   0  0  0  0  0  0  0  0  0  0  0  0
   -0.4727   -6.0306    4.6148 C   0  0  0  0  0  0  0  0  0  0  0  0
    0.8250   -5.7338    4.7314 C   0  0  0  0  0  0  0  0  0  0  0  0
    1.4489   -4.6953    4.3037 C   0  0  0  0  0  0  0  0  0  0  0  0
   -0.1423   -3.8047    3.4702 Se  0  0  0  0  0  2  0  0  0  0  0  0
    2.6283   -3.8454    4.4216 C   0  0  0  0  0  0  0  0  0  0  0  0
    3.2943   -3.5407    5.6103 C   0  0  0  0  0  0  0  0  0  0  0  0
    3.1178   -4.2895    6.6875 F   0  0  0  0  0  0  0  0  0  0  0  0
    4.2286   -2.4361    5.6699 C   0  0  0  0  0  0  0  0  0  0  0  0
    4.8766   -2.1656    6.8462 F   0  0  0  0  0  0  0  0  0  0  0  0
    4.4809   -1.6907    4.6079 C   0  0  0  0  0  0  0  0  0  0  0  0
    3.8193   -2.0361    3.4109 C   0  0  0  0  0  0  0  0  0  0  0  0
    4.2964   -1.3202    2.3414 N   0  0  0  0  0  0  0  0  0  0  0  0
    3.8335   -1.7130    1.0963 C   0  0  0  0  0  0  0  0  0  0  0  0
    4.2356   -0.9377   -0.0915 C   0  0  0  0  0  0  0  0  0  0  0  0
    3.0600    0.0267   -0.3678 C   0  0  0  0  0  0  0  0  0  0  0  0
    2.9744   -2.7548    1.0547 C   0  0  0  0  0  0  0  0  0  0  0  0
    2.4866   -3.4596    2.1251 N   0  0  0  0  0  0  0  0  0  0  0  0
    2.9449   -3.0635    3.3440 C   0  0  0  0  0  0  0  0  0  0  0  0
    2.6941   -3.2634   -0.3416 C   0  0  0  0  0  0  0  0  0  0  0  0
    3.9152   -4.0185   -0.8364 C   0  0  0  0  0  0  0  0  0  0  0  0
    5.1137   -0.3070    4.4748 C   0  0  0  0  0  0  0  0  0  0  0  0
    5.9541   -0.1610    3.4635 C   0  0  0  0  0  0  0  0  0  0  0  0
    5.9939    1.1466    2.8741 C   0  0  0  0  0  0  0  0  0  0  0  0
    6.4749    1.5987    1.7073 N   0  0  0  0  0  0  0  0  0  0  0  0
    7.4351    0.8080    0.9302 C   0  0  0  0  0  0  0  0  0  0  0  0
    8.8164    1.0344    1.5605 C   0  0  0  0  0  0  0  0  0  0  0  0
    6.0304    2.8223    1.3991 C   0  0  0  0  0  0  0  0  0  0  0  0
    5.2336    3.1849    2.4544 C   0  0  0  0  0  0  0  0  0  0  0  0
    5.2064    2.1560    3.3716 C   0  0  0  0  0  0  0  0  0  0  0  0
    4.3594    1.9303    4.4714 C   0  0  0  0  0  0  0  0  0  0  0  0
    4.2938    0.6816    5.0511 C   0  0  0  0  0  0  0  0  0  0  0  0
    4.4706    4.3433    2.3510 C   0  0  0  0  0  0  0  0  0  0  0  0
    4.4845    5.1365    1.1961 C   0  0  0  0  0  0  0  0  0  0  0  0
    5.2792    4.7622    0.1279 C   0  0  0  0  0  0  0  0  0  0  0  0
    6.0446    3.6313    0.2339 C   0  0  0  0  0  0  0  0  0  0  0  0
    5.0761    5.4682   -1.1630 C   0  0  0  0  0  0  0  0  0  0  0  0
    3.9654    5.2849   -1.8743 C   0  0  0  0  0  0  0  0  0  0  0  0
    2.8636    4.3795   -1.4577 C   0  0  0  0  0  0  0  0  0  0  0  0
    2.8522    3.7093   -0.4063 O   0  0  0  0  0  0  0  0  0  0  0  0
    1.8295    4.3985   -2.4683 C   0  0  0  0  0  0  0  0  0  0  0  0
    0.6394    3.7426   -2.6222 C   0  0  0  0  0  0  0  0  0  0  0  0
   -0.2331    3.8280   -3.6460 C   0  0  0  0  0  0  0  0  0  0  0  0
    0.1475    4.7097   -4.6904 C   0  0  0  0  0  0  0  0  0  0  0  0
    1.3542    5.4008   -4.5961 C   0  0  0  0  0  0  0  0  0  0  0  0
    2.2014    5.2699   -3.5199 C   0  0  0  0  0  0  0  0  0  0  0  0
    3.4971    5.8078   -3.1551 C   0  0  0  0  0  0  0  0  0  0  0  0
    4.2842    6.6732   -3.8184 C   0  0  0  0  0  0  0  0  0  0  0  0
    5.4701    7.1870   -3.5729 C   0  0  0  0  0  0  0  0  0  0  0  0
    6.5909    7.6863   -3.3583 N   0  0  0  0  0  0  0  0  0  0  0  0
    3.5964    7.1665   -5.1602 C   0  0  0  0  0  0  0  0  0  0  0  0
    3.1546    7.5034   -6.0576 N   0  0  0  0  0  0  0  0  0  0  0  0
   -1.0940    4.4741   -5.4579 C   0  0  0  0  0  0  0  0  0  0  0  0
   -2.1507    5.5643   -5.2777 C   0  0  0  0  0  0  0  0  0  0  0  0
   -1.9939    6.0973   -3.9031 C   0  0  0  0  0  0  0  0  0  0  0  0
   -2.4171    5.1550   -3.0645 C   0  0  0  0  0  0  0  0  0  0  0  0
   -2.7491    3.9360   -3.8297 C   0  0  0  0  0  0  0  0  0  0  0  0
   -3.3492    4.6163   -5.0713 C   0  0  0  0  0  0  0  0  0  0  0  0
   -1.4705    3.4455   -4.3839 C   0  0  0  0  0  0  0  0  0  0  0  0
   -3.2360   -5.4931    4.9241 H   0  0  0  0  0  0  0  0  0  0  0  0
   -3.6620   -3.9066   -1.0340 H   0  0  0  0  0  0  0  0  0  0  0  0
   -7.1946   -3.0341    2.2658 H   0  0  0  0  0  0  0  0  0  0  0  0
   -7.1219   -0.6838   -0.2367 H   0  0  0  0  0  0  0  0  0  0  0  0
   -9.4457   -1.3500   -0.5814 H   0  0  0  0  0  0  0  0  0  0  0  0
   -9.8525   -3.9110   -0.4991 H   0  0  0  0  0  0  0  0  0  0  0  0
   -8.0410   -5.1216   -1.8523 H   0  0  0  0  0  0  0  0  0  0  0  0
   -7.0482   -3.1397   -3.5194 H   0  0  0  0  0  0  0  0  0  0  0  0
   -8.0073   -0.8577   -2.6531 H   0  0  0  0  0  0  0  0  0  0  0  0
   -9.3241   -2.1235   -3.0478 H   0  0  0  0  0  0  0  0  0  0  0  0
   -5.8373   -1.4226   -2.0820 H   0  0  0  0  0  0  0  0  0  0  0  0
   -0.9018   -7.0000    5.0007 H   0  0  0  0  0  0  0  0  0  0  0  0
    1.4821   -6.5240    5.2771 H   0  0  0  0  0  0  0  0  0  0  0  0
    4.4494   -1.5930   -0.9107 H   0  0  0  0  0  0  0  0  0  0  0  0
    5.1177   -0.2846    0.1395 H   0  0  0  0  0  0  0  0  0  0  0  0
    2.6625   -0.0975   -1.3740 H   0  0  0  0  0  0  0  0  0  0  0  0
    3.4479    1.0293   -0.1323 H   0  0  0  0  0  0  0  0  0  0  0  0
    2.2696   -0.2445    0.3900 H   0  0  0  0  0  0  0  0  0  0  0  0
    2.3116   -2.4970   -0.9964 H   0  0  0  0  0  0  0  0  0  0  0  0
    1.8700   -4.0689   -0.2410 H   0  0  0  0  0  0  0  0  0  0  0  0
    4.7803   -3.8056   -0.1876 H   0  0  0  0  0  0  0  0  0  0  0  0
    3.7760   -5.1333   -0.7220 H   0  0  0  0  0  0  0  0  0  0  0  0
    4.2187   -3.7438   -1.8588 H   0  0  0  0  0  0  0  0  0  0  0  0
    6.5915   -0.8906    3.0458 H   0  0  0  0  0  0  0  0  0  0  0  0
    7.2169   -0.2563    0.9190 H   0  0  0  0  0  0  0  0  0  0  0  0
    7.5235    1.2202   -0.0780 H   0  0  0  0  0  0  0  0  0  0  0  0
    9.4776    1.6788    0.9243 H   0  0  0  0  0  0  0  0  0  0  0  0
    8.6860    1.4588    2.5487 H   0  0  0  0  0  0  0  0  0  0  0  0
    9.3160    0.0152    1.5976 H   0  0  0  0  0  0  0  0  0  0  0  0
    3.7934    2.7554    4.8120 H   0  0  0  0  0  0  0  0  0  0  0  0
    3.6760    0.4391    5.8954 H   0  0  0  0  0  0  0  0  0  0  0  0
    3.8997    4.6207    3.2075 H   0  0  0  0  0  0  0  0  0  0  0  0
    3.8556    6.0016    1.1981 H   0  0  0  0  0  0  0  0  0  0  0  0
    6.6853    3.3143   -0.5903 H   0  0  0  0  0  0  0  0  0  0  0  0
    5.8431    6.0860   -1.4722 H   0  0  0  0  0  0  0  0  0  0  0  0
    0.3518    3.0737   -1.7843 H   0  0  0  0  0  0  0  0  0  0  0  0
    1.5689    6.0218   -5.4135 H   0  0  0  0  0  0  0  0  0  0  0  0
   -1.0033    4.0935   -6.4694 H   0  0  0  0  0  0  0  0  0  0  0  0
   -2.2897    6.2268   -6.0761 H   0  0  0  0  0  0  0  0  0  0  0  0
   -1.6067    7.0737   -3.6943 H   0  0  0  0  0  0  0  0  0  0  0  0
   -2.5130    5.2659   -1.9539 H   0  0  0  0  0  0  0  0  0  0  0  0
   -3.3950    3.2330   -3.3505 H   0  0  0  0  0  0  0  0  0  0  0  0
   -4.2829    5.1258   -4.8654 H   0  0  0  0  0  0  0  0  0  0  0  0
   -3.4355    3.8957   -5.9460 H   0  0  0  0  0  0  0  0  0  0  0  0
   -1.4408    2.4193   -4.7591 H   0  0  0  0  0  0  0  0  0  0  0  0
  1  2  2  3
  2  3  1  0
  3  4  2  0
  3  5  1  0
  5  6  2  0
  6  7  1  0
  7  8  2  0
  8  9  1  0
  9 10  2  0
 10 11  1  0
 11 12  2  3
 12 13  1  0
 13 14  3  0
 12 15  1  0
 15 16  3  0
  8 17  1  0
 17 18  1  0
 18 19  1  0
 19 20  2  0
 20 21  1  0
 21 22  1  0
 21 23  1  0
  1 24  1  0
 24 25  2  0
 25 26  1  0
 26 27  2  0
 27 28  1  0
 27 29  1  0
 29 30  2  0
 30 31  1  0
 30 32  1  0
 32 33  1  0
 32 34  2  0
 34 35  1  0
 35 36  2  0
 36 37  1  0
 37 38  1  0
 38 39  1  0
 37 40  2  0
 40 41  1  0
 41 42  2  0
 40 43  1  0
 43 44  1  0
 34 45  1  0
 45 46  2  0
 46 47  1  0
 47 48  1  0
 48 49  1  0
 49 50  1  0
 48 51  1  0
 51 52  2  0
 52 53  1  0
 53 54  1  0
 54 55  2  0
 52 56  1  0
 56 57  2  0
 57 58  1  0
 58 59  2  0
 58 60  1  0
 60 61  2  3
 61 62  1  0
 62 63  2  0
 62 64  1  0
 64 65  2  0
 65 66  1  0
 66 67  2  0
 67 68  1  0
 68 69  2  0
 69 70  1  0
 70 71  2  3
 71 72  1  0
 72 73  3  0
 71 74  1  0
 74 75  3  0
 67 76  1  0
 76 77  1  0
 77 78  1  0
 78 79  2  0
 79 80  1  0
 80 81  1  0
 80 82  1  0
 11  2  1  0
 23 17  1  0
 28 24  1  0
 42 29  1  0
 55 45  1  0
 70 61  1  0
 82 76  1  0
 10  5  1  0
 22 18  1  0
 42 35  1  0
 53 47  2  0
 69 64  1  0
 81 77  1  0
 23  7  1  0
 59 51  1  0
 82 66  1  0
  1 83  1  0
  6 84  1  0
  9 85  1  0
 17 86  1  0
 18 87  1  0
 19 88  1  0
 20 89  1  0
 21 90  1  0
 22 91  1  0
 22 92  1  0
 23 93  1  0
 25 94  1  0
 26 95  1  0
 38 96  1  0
 38 97  1  0
 39 98  1  0
 39 99  1  0
 39100  1  0
 43101  1  0
 43102  1  0
 44103  1  0
 44104  1  0
 44105  1  0
 46106  1  0
 49107  1  0
 49108  1  0
 50109  1  0
 50110  1  0
 50111  1  0
 54112  1  0
 55113  1  0
 56114  1  0
 57115  1  0
 59116  1  0
 60117  1  0
 65118  1  0
 68119  1  0
 76120  1  0
 77121  1  0
 78122  1  0
 79123  1  0
 80124  1  0
 81125  1  0
 81126  1  0
 82127  1  0
M  END

