
     RDKit          3D

214237  0  0  0  0  0  0  0  0999 V2000
   -4.4469    5.0664   -5.4653 C   0  0  0  0  0  0  0  0  0  0  0  0
   -5.1129    4.1265   -6.2333 C   0  0  0  0  0  0  0  0  0  0  0  0
   -5.4695    2.8520   -5.6147 C   0  0  0  0  0  0  0  0  0  0  0  0
   -5.6780    2.8023   -4.3332 O   0  0  0  0  0  0  0  0  0  0  0  0
   -5.0184    1.7936   -6.4775 C   0  0  0  0  0  0  0  0  0  0  0  0
   -4.8439    0.4416   -6.0875 C   0  0  0  0  0  0  0  0  0  0  0  0
   -4.0868   -0.2823   -6.9425 C   0  0  0  0  0  0  0  0  0  0  0  0
   -3.7119    0.2822   -8.2774 C   0  0  0  0  0  0  0  0  0  0  0  0
   -3.8433    1.5701   -8.6461 C   0  0  0  0  0  0  0  0  0  0  0  0
   -4.5838    2.3301   -7.7502 C   0  0  0  0  0  0  0  0  0  0  0  0
   -4.7298    3.8263   -7.6533 C   0  0  0  0  0  0  0  0  0  0  0  0
   -4.4284    4.7151   -8.6620 C   0  0  0  0  0  0  0  0  0  0  0  0
   -5.1800    5.9293   -8.8173 C   0  0  0  0  0  0  0  0  0  0  0  0
   -5.7812    6.9066   -8.9954 N   0  0  0  0  0  0  0  0  0  0  0  0
   -3.4974    4.3608   -9.7315 C   0  0  0  0  0  0  0  0  0  0  0  0
   -2.7037    4.1033  -10.5765 N   0  0  0  0  0  0  0  0  0  0  0  0
   -3.2961   -1.0711   -8.7642 C   0  0  0  0  0  0  0  0  0  0  0  0
   -4.3228   -1.8096   -9.6997 C   0  0  0  0  0  0  0  0  0  0  0  0
   -3.8620   -3.2123   -9.7461 C   0  0  0  0  0  0  0  0  0  0  0  0
   -4.1293   -3.7311   -8.5449 C   0  0  0  0  0  0  0  0  0  0  0  0
   -4.7495   -2.6629   -7.6733 C   0  0  0  0  0  0  0  0  0  0  0  0
   -5.5291   -1.9274   -8.7708 C   0  0  0  0  0  0  0  0  0  0  0  0
   -3.5885   -1.6361   -7.3843 C   0  0  0  0  0  0  0  0  0  0  0  0
   -3.7514    4.5390   -4.1929 C   0  0  0  0  0  0  0  0  0  0  0  0
   -4.3540    4.7269   -2.8855 C   0  0  0  0  0  0  0  0  0  0  0  0
   -4.5659    6.0532   -2.4656 N   0  0  0  0  0  0  0  0  0  0  0  0
   -5.9283    6.4242   -2.2079 C   0  0  0  0  0  0  0  0  0  0  0  0
   -6.8971    6.2764   -3.2007 C   0  0  0  0  0  0  0  0  0  0  0  0
   -8.2303    6.6640   -2.9558 C   0  0  0  0  0  0  0  0  0  0  0  0
   -8.5455    7.1880   -1.6587 C   0  0  0  0  0  0  0  0  0  0  0  0
   -9.9236    7.7210   -1.4214 C   0  0  0  0  0  0  0  0  0  0  0  0
   -7.5869    7.2252   -0.6565 C   0  0  0  0  0  0  0  0  0  0  0  0
   -6.3236    6.8322   -0.9149 C   0  0  0  0  0  0  0  0  0  0  0  0
   -3.4039    6.8526   -2.0614 C   0  0  0  0  0  0  0  0  0  0  0  0
   -3.5542    8.1009   -1.4172 C   0  0  0  0  0  0  0  0  0  0  0  0
   -2.4426    8.7820   -0.9050 C   0  0  0  0  0  0  0  0  0  0  0  0
   -1.1543    8.2492   -1.1229 C   0  0  0  0  0  0  0  0  0  0  0  0
    0.0474    8.9649   -0.5743 C   0  0  0  0  0  0  0  0  0  0  0  0
   -0.9688    7.0303   -1.8228 C   0  0  0  0  0  0  0  0  0  0  0  0
   -2.0949    6.3145   -2.2449 C   0  0  0  0  0  0  0  0  0  0  0  0
   -4.0171    3.7493   -2.0097 C   0  0  0  0  0  0  0  0  0  0  0  0
   -3.7319    3.8177   -0.2856 S   0  0  0  0  0  0  0  0  0  0  0  0
   -2.5709    2.5210   -0.1469 C   0  0  0  0  0  0  0  0  0  0  0  0
   -2.4676    1.9899   -1.4354 C   0  0  0  0  0  0  0  0  0  0  0  0
   -1.9132    0.6614   -1.6274 N   0  0  0  0  0  0  0  0  0  0  0  0
   -2.8605   -0.4628   -1.4299 C   0  0  0  0  0  0  0  0  0  0  0  0
   -2.7259   -1.6190   -2.2616 C   0  0  0  0  0  0  0  0  0  0  0  0
   -3.8253   -2.4688   -2.4240 C   0  0  0  0  0  0  0  0  0  0  0  0
   -5.0300   -2.1963   -1.7565 C   0  0  0  0  0  0  0  0  0  0  0  0
   -6.2347   -2.9904   -2.1166 C   0  0  0  0  0  0  0  0  0  0  0  0
   -5.1044   -1.1377   -0.8441 C   0  0  0  0  0  0  0  0  0  0  0  0
   -4.0267   -0.2833   -0.6756 C   0  0  0  0  0  0  0  0  0  0  0  0
   -0.8207    0.4968   -2.5096 C   0  0  0  0  0  0  0  0  0  0  0  0
   -1.0622    0.7611   -3.8580 C   0  0  0  0  0  0  0  0  0  0  0  0
   -0.0410    0.6065   -4.8053 C   0  0  0  0  0  0  0  0  0  0  0  0
    1.1943    0.1145   -4.4531 C   0  0  0  0  0  0  0  0  0  0  0  0
    2.2428    0.0358   -5.5258 C   0  0  0  0  0  0  0  0  0  0  0  0
    1.4275   -0.2884   -3.1436 C   0  0  0  0  0  0  0  0  0  0  0  0
    0.4140   -0.1330   -2.1670 C   0  0  0  0  0  0  0  0  0  0  0  0
   -3.2123    2.6715   -2.4540 C   0  0  0  0  0  0  0  0  0  0  0  0
   -2.9749    2.9552   -4.1367 S   0  0  0  0  0  0  0  0  0  0  0  0
   -1.7814    1.9609    1.0315 C   0  0  0  0  0  0  0  0  0  0  0  0
   -0.5372    1.4520    0.6796 C   0  0  0  0  0  0  0  0  0  0  0  0
    0.1482    0.5789    1.5312 C   0  0  0  0  0  0  0  0  0  0  0  0
   -0.3388    0.3358    2.8565 C   0  0  0  0  0  0  0  0  0  0  0  0
   -1.5110    1.0000    3.2650 C   0  0  0  0  0  0  0  0  0  0  0  0
   -1.8592    0.9631    4.5828 N   0  0  0  0  0  0  0  0  0  0  0  0
   -2.9796    1.6262    5.0010 C   0  0  0  0  0  0  0  0  0  0  0  0
   -3.7535    2.2858    4.0796 C   0  0  0  0  0  0  0  0  0  0  0  0
   -3.4041    2.2950    2.7581 N   0  0  0  0  0  0  0  0  0  0  0  0
   -2.2439    1.7185    2.3285 C   0  0  0  0  0  0  0  0  0  0  0  0
    0.5920   -0.4581    3.7373 C   0  0  0  0  0  0  0  0  0  0  0  0
    2.0359   -0.6155    3.6005 C   0  0  0  0  0  0  0  0  0  0  0  0
    2.7010   -0.4806    2.3354 N   0  0  0  0  0  0  0  0  0  0  0  0
    2.5631   -1.5859    1.3710 C   0  0  0  0  0  0  0  0  0  0  0  0
    1.4268   -2.4708    1.4575 C   0  0  0  0  0  0  0  0  0  0  0  0
    1.0616   -3.2719    0.3677 C   0  0  0  0  0  0  0  0  0  0  0  0
    1.7736   -3.2595   -0.8174 C   0  0  0  0  0  0  0  0  0  0  0  0
    1.2485   -4.0429   -2.0035 C   0  0  0  0  0  0  0  0  0  0  0  0
    2.9081   -2.4716   -0.9259 C   0  0  0  0  0  0  0  0  0  0  0  0
    3.2613   -1.5948    0.1483 C   0  0  0  0  0  0  0  0  0  0  0  0
    3.4809    0.6828    2.1332 C   0  0  0  0  0  0  0  0  0  0  0  0
    3.3115    1.4551    0.9730 C   0  0  0  0  0  0  0  0  0  0  0  0
    3.8402    2.7509    0.9086 C   0  0  0  0  0  0  0  0  0  0  0  0
    4.5077    3.3153    2.0056 C   0  0  0  0  0  0  0  0  0  0  0  0
    5.0134    4.7266    2.0390 C   0  0  0  0  0  0  0  0  0  0  0  0
    4.6998    2.5193    3.1372 C   0  0  0  0  0  0  0  0  0  0  0  0
    4.2055    1.2462    3.2293 C   0  0  0  0  0  0  0  0  0  0  0  0
    2.7930   -1.2115    4.6385 C   0  0  0  0  0  0  0  0  0  0  0  0
    2.7732   -2.6406    5.5234 S   0  0  0  0  0  0  0  0  0  0  0  0
    3.0912   -4.0273    4.4533 C   0  0  0  0  0  0  0  0  0  0  0  0
    2.3905   -3.5337    5.6552 C   0  0  0  0  0  0  0  0  0  0  0  0
    1.6371   -4.4995    6.7060 N   0  0  0  0  0  0  0  0  0  0  0  0
    1.0240   -3.6728    7.7914 C   0  0  0  0  0  0  0  0  0  0  0  0
   -0.1536   -2.9989    7.5198 C   0  0  0  0  0  0  0  0  0  0  0  0
   -0.4206   -1.8841    8.2249 C   0  0  0  0  0  0  0  0  0  0  0  0
    0.3105   -1.5786    9.3623 C   0  0  0  0  0  0  0  0  0  0  0  0
   -0.0377   -0.3779   10.1642 C   0  0  0  0  0  0  0  0  0  0  0  0
    1.2376   -2.4660    9.8655 C   0  0  0  0  0  0  0  0  0  0  0  0
    1.7056   -3.5168    9.0545 C   0  0  0  0  0  0  0  0  0  0  0  0
    1.9770   -5.8741    7.0353 C   0  0  0  0  0  0  0  0  0  0  0  0
    2.6684   -6.7111    6.1542 C   0  0  0  0  0  0  0  0  0  0  0  0
    3.2660   -7.8767    6.5794 C   0  0  0  0  0  0  0  0  0  0  0  0
    3.2313   -8.2465    7.9328 C   0  0  0  0  0  0  0  0  0  0  0  0
    4.0320   -9.3989    8.4727 C   0  0  0  0  0  0  0  0  0  0  0  0
    2.4282   -7.5143    8.8047 C   0  0  0  0  0  0  0  0  0  0  0  0
    1.7334   -6.4028    8.3489 C   0  0  0  0  0  0  0  0  0  0  0  0
    1.9702   -2.1526    5.4411 C   0  0  0  0  0  0  0  0  0  0  0  0
    0.2487   -1.6990    4.8389 S   0  0  0  0  0  0  0  0  0  0  0  0
    4.4610   -4.7888    4.4000 C   0  0  0  0  0  0  0  0  0  0  0  0
    5.2880   -5.1239    3.3012 C   0  0  0  0  0  0  0  0  0  0  0  0
    5.3007   -4.3302    1.9967 C   0  0  0  0  0  0  0  0  0  0  0  0
    5.2044   -4.9267    0.8069 O   0  0  0  0  0  0  0  0  0  0  0  0
    6.4092   -3.3387    2.0056 C   0  0  0  0  0  0  0  0  0  0  0  0
    6.4562   -1.8829    1.6498 C   0  0  0  0  0  0  0  0  0  0  0  0
    7.6932   -1.3386    1.7407 C   0  0  0  0  0  0  0  0  0  0  0  0
    8.8293   -2.1523    2.0897 C   0  0  0  0  0  0  0  0  0  0  0  0
    8.7481   -3.3956    2.6156 C   0  0  0  0  0  0  0  0  0  0  0  0
    7.4282   -3.9471    2.6932 C   0  0  0  0  0  0  0  0  0  0  0  0
    6.7707   -5.0640    3.4891 C   0  0  0  0  0  0  0  0  0  0  0  0
    7.5330   -5.7746    4.3803 C   0  0  0  0  0  0  0  0  0  0  0  0
    7.0158   -6.2638    5.6349 C   0  0  0  0  0  0  0  0  0  0  0  0
    6.6420   -6.6592    6.6569 N   0  0  0  0  0  0  0  0  0  0  0  0
    8.8251   -6.2327    4.1194 C   0  0  0  0  0  0  0  0  0  0  0  0
    9.9511   -6.5819    3.8853 N   0  0  0  0  0  0  0  0  0  0  0  0
    9.7673   -1.0185    1.8785 C   0  0  0  0  0  0  0  0  0  0  0  0
   10.5362   -1.0325    0.5492 C   0  0  0  0  0  0  0  0  0  0  0  0
   11.0815    0.3988    0.3883 C   0  0  0  0  0  0  0  0  0  0  0  0
   10.0069    1.1765    0.1792 C   0  0  0  0  0  0  0  0  0  0  0  0
    8.8081    0.2949    0.1283 C   0  0  0  0  0  0  0  0  0  0  0  0
    9.4191   -0.9011   -0.5538 C   0  0  0  0  0  0  0  0  0  0  0  0
    8.5689   -0.1669    1.6028 C   0  0  0  0  0  0  0  0  0  0  0  0
   -4.0321    5.9218   -5.9899 H   0  0  0  0  0  0  0  0  0  0  0  0
   -5.0726    0.1070   -5.0794 H   0  0  0  0  0  0  0  0  0  0  0  0
   -3.5629    1.8610   -9.6359 H   0  0  0  0  0  0  0  0  0  0  0  0
   -2.1949   -1.1210   -9.0660 H   0  0  0  0  0  0  0  0  0  0  0  0
   -4.4899   -1.2810  -10.6667 H   0  0  0  0  0  0  0  0  0  0  0  0
   -3.5697   -3.7661  -10.6424 H   0  0  0  0  0  0  0  0  0  0  0  0
   -4.0579   -4.8095   -8.3063 H   0  0  0  0  0  0  0  0  0  0  0  0
   -5.3400   -2.9895   -6.8112 H   0  0  0  0  0  0  0  0  0  0  0  0
   -5.8994   -0.9351   -8.4602 H   0  0  0  0  0  0  0  0  0  0  0  0
   -6.3900   -2.4868   -9.2051 H   0  0  0  0  0  0  0  0  0  0  0  0
   -2.6859   -2.0048   -6.8329 H   0  0  0  0  0  0  0  0  0  0  0  0
   -6.6703    5.9022   -4.1590 H   0  0  0  0  0  0  0  0  0  0  0  0
   -8.9599    6.5742   -3.7385 H   0  0  0  0  0  0  0  0  0  0  0  0
  -10.1717    8.5171   -2.1850 H   0  0  0  0  0  0  0  0  0  0  0  0
  -10.0045    8.1977   -0.4237 H   0  0  0  0  0  0  0  0  0  0  0  0
  -10.6901    6.9124   -1.4860 H   0  0  0  0  0  0  0  0  0  0  0  0
   -7.8200    7.6236    0.3112 H   0  0  0  0  0  0  0  0  0  0  0  0
   -5.5312    6.8485   -0.1242 H   0  0  0  0  0  0  0  0  0  0  0  0
   -4.5462    8.5583   -1.2418 H   0  0  0  0  0  0  0  0  0  0  0  0
   -2.5529    9.7324   -0.3945 H   0  0  0  0  0  0  0  0  0  0  0  0
    0.1127    9.9883   -1.0008 H   0  0  0  0  0  0  0  0  0  0  0  0
    1.0144    8.4344   -0.8074 H   0  0  0  0  0  0  0  0  0  0  0  0
   -0.0367    9.0366    0.5342 H   0  0  0  0  0  0  0  0  0  0  0  0
    0.0068    6.5803   -1.9361 H   0  0  0  0  0  0  0  0  0  0  0  0
   -1.9203    5.2980   -2.5860 H   0  0  0  0  0  0  0  0  0  0  0  0
   -1.8059   -1.7744   -2.7456 H   0  0  0  0  0  0  0  0  0  0  0  0
   -3.7443   -3.3148   -3.0576 H   0  0  0  0  0  0  0  0  0  0  0  0
   -7.0354   -2.9016   -1.3528 H   0  0  0  0  0  0  0  0  0  0  0  0
   -6.6186   -2.5229   -3.0754 H   0  0  0  0  0  0  0  0  0  0  0  0
   -5.9805   -4.0530   -2.2903 H   0  0  0  0  0  0  0  0  0  0  0  0
   -6.0293   -0.9395   -0.2971 H   0  0  0  0  0  0  0  0  0  0  0  0
   -4.1787    0.5491   -0.0188 H   0  0  0  0  0  0  0  0  0  0  0  0
   -2.0610    0.9194   -4.1178 H   0  0  0  0  0  0  0  0  0  0  0  0
   -0.2642    0.8738   -5.8293 H   0  0  0  0  0  0  0  0  0  0  0  0
    1.8380   -0.4767   -6.4120 H   0  0  0  0  0  0  0  0  0  0  0  0
    2.4845    1.1185   -5.7910 H   0  0  0  0  0  0  0  0  0  0  0  0
    3.1575   -0.4611   -5.1607 H   0  0  0  0  0  0  0  0  0  0  0  0
    2.3732   -0.7869   -2.8837 H   0  0  0  0  0  0  0  0  0  0  0  0
    0.5785   -0.5021   -1.1512 H   0  0  0  0  0  0  0  0  0  0  0  0
   -0.1024    1.7209   -0.2838 H   0  0  0  0  0  0  0  0  0  0  0  0
    1.0660    0.1798    1.1624 H   0  0  0  0  0  0  0  0  0  0  0  0
   -3.2820    1.6334    6.0395 H   0  0  0  0  0  0  0  0  0  0  0  0
   -4.6984    2.8366    4.4067 H   0  0  0  0  0  0  0  0  0  0  0  0
    0.7495   -2.5151    2.2893 H   0  0  0  0  0  0  0  0  0  0  0  0
    0.1545   -3.8537    0.4593 H   0  0  0  0  0  0  0  0  0  0  0  0
    2.0514   -4.2898   -2.6971 H   0  0  0  0  0  0  0  0  0  0  0  0
    0.7413   -4.9612   -1.6805 H   0  0  0  0  0  0  0  0  0  0  0  0
    0.5092   -3.3977   -2.5545 H   0  0  0  0  0  0  0  0  0  0  0  0
    3.5127   -2.4799   -1.8492 H   0  0  0  0  0  0  0  0  0  0  0  0
    4.0153   -0.8655   -0.0786 H   0  0  0  0  0  0  0  0  0  0  0  0
    2.7564    1.1187    0.1156 H   0  0  0  0  0  0  0  0  0  0  0  0
    3.7207    3.3547    0.0099 H   0  0  0  0  0  0  0  0  0  0  0  0
    6.0393    4.7242    1.6891 H   0  0  0  0  0  0  0  0  0  0  0  0
    4.3608    5.3429    1.4182 H   0  0  0  0  0  0  0  0  0  0  0  0
    4.9639    5.1005    3.0821 H   0  0  0  0  0  0  0  0  0  0  0  0
    5.2322    2.8958    3.9998 H   0  0  0  0  0  0  0  0  0  0  0  0
    4.3765    0.7245    4.1714 H   0  0  0  0  0  0  0  0  0  0  0  0
   -0.7595   -3.3203    6.6471 H   0  0  0  0  0  0  0  0  0  0  0  0
   -1.1463   -1.1896    7.8484 H   0  0  0  0  0  0  0  0  0  0  0  0
   -0.9572   -0.5349   10.7742 H   0  0  0  0  0  0  0  0  0  0  0  0
   -0.2445    0.4979    9.4888 H   0  0  0  0  0  0  0  0  0  0  0  0
    0.8236   -0.0131   10.8245 H   0  0  0  0  0  0  0  0  0  0  0  0
    1.7546   -2.3724   10.8422 H   0  0  0  0  0  0  0  0  0  0  0  0
    2.3446   -4.3098    9.3729 H   0  0  0  0  0  0  0  0  0  0  0  0
    2.7318   -6.5490    5.1133 H   0  0  0  0  0  0  0  0  0  0  0  0
    3.7695   -8.5780    5.9053 H   0  0  0  0  0  0  0  0  0  0  0  0
    4.5976   -9.9313    7.6874 H   0  0  0  0  0  0  0  0  0  0  0  0
    4.7853   -8.9154    9.1757 H   0  0  0  0  0  0  0  0  0  0  0  0
    3.4046  -10.0785    9.0968 H   0  0  0  0  0  0  0  0  0  0  0  0
    2.3325   -7.8291    9.8888 H   0  0  0  0  0  0  0  0  0  0  0  0
    0.9523   -5.9113    8.9854 H   0  0  0  0  0  0  0  0  0  0  0  0
    4.8495   -4.8298    5.4383 H   0  0  0  0  0  0  0  0  0  0  0  0
    5.5747   -1.2645    1.3741 H   0  0  0  0  0  0  0  0  0  0  0  0
    9.5850   -3.9142    2.9986 H   0  0  0  0  0  0  0  0  0  0  0  0
   10.3656   -0.7515    2.7570 H   0  0  0  0  0  0  0  0  0  0  0  0
   11.2126   -1.8337    0.3695 H   0  0  0  0  0  0  0  0  0  0  0  0
   12.1286    0.7018    0.4324 H   0  0  0  0  0  0  0  0  0  0  0  0
   10.0725    2.1942   -0.0860 H   0  0  0  0  0  0  0  0  0  0  0  0
    7.9394    0.7215   -0.3214 H   0  0  0  0  0  0  0  0  0  0  0  0
    8.7368   -1.7651   -0.5201 H   0  0  0  0  0  0  0  0  0  0  0  0
    9.7688   -0.6516   -1.5957 H   0  0  0  0  0  0  0  0  0  0  0  0
    8.3989    0.5837    2.3842 H   0  0  0  0  0  0  0  0  0  0  0  0
  1  2  2  3
  2  3  1  0
  3  4  2  0
  3  5  1  0
  5  6  2  0
  6  7  1  0
  7  8  2  0
  8  9  1  0
  9 10  2  0
 10 11  1  0
 11 12  2  3
 12 13  1  0
 13 14  3  0
 12 15  1  0
 15 16  3  0
  8 17  1  0
 17 18  1  0
 18 19  1  0
 19 20  2  0
 20 21  1  0
 21 22  1  0
 21 23  1  0
  1 24  1  0
 24 25  2  0
 25 26  1  0
 26 27  1  0
 27 28  2  0
 28 29  1  0
 29 30  2  0
 30 31  1  0
 30 32  1  0
 32 33  2  0
 26 34  1  0
 34 35  2  0
 35 36  1  0
 36 37  2  0
 37 38  1  0
 37 39  1  0
 39 40  2  0
 25 41  1  0
 41 42  1  0
 42 43  1  0
 43 44  2  0
 44 45  1  0
 45 46  1  0
 46 47  2  0
 47 48  1  0
 48 49  2  0
 49 50  1  0
 49 51  1  0
 51 52  2  0
 45 53  1  0
 53 54  2  0
 54 55  1  0
 55 56  2  0
 56 57  1  0
 56 58  1  0
 58 59  2  0
 44 60  1  0
 60 61  1  0
 43 62  1  0
 62 63  2  0
 63 64  1  0
 64 65  2  0
 65 66  1  0
 66 67  2  0
 67 68  1  0
 68 69  2  0
 69 70  1  0
 70 71  2  0
 65 72  1  0
 72 73  2  0
 73 74  1  0
 74 75  1  0
 75 76  2  0
 76 77  1  0
 77 78  2  0
 78 79  1  0
 78 80  1  0
 80 81  2  0
 74 82  1  0
 82 83  2  0
 83 84  1  0
 84 85  2  0
 85 86  1  0
 85 87  1  0
 87 88  2  0
 73 89  1  0
 89 90  1  0
 90 91  1  0
 91 92  2  0
 92 93  1  0
 93 94  1  0
 94 95  2  0
 95 96  1  0
 96 97  2  0
 97 98  1  0
 97 99  1  0
 99100  2  0
 93101  1  0
101102  2  0
102103  1  0
103104  2  0
104105  1  0
104106  1  0
106107  2  0
 92108  1  0
108109  1  0
 91110  1  0
110111  2  3
111112  1  0
112113  2  0
112114  1  0
114115  2  0
115116  1  0
116117  2  0
117118  1  0
118119  2  0
119120  1  0
120121  2  3
121122  1  0
122123  3  0
121124  1  0
124125  3  0
117126  1  0
126127  1  0
127128  1  0
128129  2  0
129130  1  0
130131  1  0
130132  1  0
 11  2  1  0
 23 17  1  0
 61 24  1  0
 71 62  1  0
109 72  1  0
120111  1  0
132126  1  0
 10  5  1  0
 22 18  1  0
 33 27  1  0
 40 34  1  0
 60 41  2  0
 71 66  1  0
 81 75  1  0
 88 82  1  0
108 89  2  0
119114  1  0
131127  1  0
 23  7  1  0
 52 46  1  0
 59 53  1  0
100 94  1  0
107101  1  0
132116  1  0
  1133  1  0
  6134  1  0
  9135  1  0
 17136  1  0
 18137  1  0
 19138  1  0
 20139  1  0
 21140  1  0
 22141  1  0
 22142  1  0
 23143  1  0
 28144  1  0
 29145  1  0
 31146  1  0
 31147  1  0
 31148  1  0
 32149  1  0
 33150  1  0
 35151  1  0
 36152  1  0
 38153  1  0
 38154  1  0
 38155  1  0
 39156  1  0
 40157  1  0
 47158  1  0
 48159  1  0
 50160  1  0
 50161  1  0
 50162  1  0
 51163  1  0
 52164  1  0
 54165  1  0
 55166  1  0
 57167  1  0
 57168  1  0
 57169  1  0
 58170  1  0
 59171  1  0
 63172  1  0
 64173  1  0
 68174  1  0
 69175  1  0
 76176  1  0
 77177  1  0
 79178  1  0
 79179  1  0
 79180  1  0
 80181  1  0
 81182  1  0
 83183  1  0
 84184  1  0
 86185  1  0
 86186  1  0
 86187  1  0
 87188  1  0
 88189  1  0
 95190  1  0
 96191  1  0
 98192  1  0
 98193  1  0
 98194  1  0
 99195  1  0
100196  1  0
102197  1  0
103198  1  0
105199  1  0
105200  1  0
105201  1  0
106202  1  0
107203  1  0
110204  1  0
115205  1  0
118206  1  0
126207  1  0
127208  1  0
128209  1  0
129210  1  0
130211  1  0
131212  1  0
131213  1  0
132214  1  0
M  END

