
     RDKit          3D

202221  0  0  0  0  0  0  0  0999 V2000
    6.5649    0.4325   -3.2677 C   0  0  0  0  0  0  0  0  0  0  0  0
    6.7134    1.4994   -2.4457 C   0  0  0  0  0  0  0  0  0  0  0  0
    5.6792    1.9988   -1.5244 C   0  0  0  0  0  0  0  0  0  0  0  0
    4.6129    1.4137   -1.1974 O   0  0  0  0  0  0  0  0  0  0  0  0
    6.0349    3.3240   -1.0871 C   0  0  0  0  0  0  0  0  0  0  0  0
    5.2624    4.1717   -0.2625 C   0  0  0  0  0  0  0  0  0  0  0  0
    5.8325    5.4080   -0.0433 C   0  0  0  0  0  0  0  0  0  0  0  0
    7.0957    5.7973   -0.5946 C   0  0  0  0  0  0  0  0  0  0  0  0
    7.8546    4.9721   -1.4093 C   0  0  0  0  0  0  0  0  0  0  0  0
    7.2872    3.6842   -1.6500 C   0  0  0  0  0  0  0  0  0  0  0  0
    7.7990    2.5348   -2.4625 C   0  0  0  0  0  0  0  0  0  0  0  0
    9.0542    2.3900   -2.9662 C   0  0  0  0  0  0  0  0  0  0  0  0
    9.5271    1.1464   -3.5205 C   0  0  0  0  0  0  0  0  0  0  0  0
    9.9164    0.1522   -3.9689 N   0  0  0  0  0  0  0  0  0  0  0  0
   10.0442    3.4353   -2.9063 C   0  0  0  0  0  0  0  0  0  0  0  0
   10.8564    4.2604   -2.8749 N   0  0  0  0  0  0  0  0  0  0  0  0
    6.9892    7.1377    0.0714 C   0  0  0  0  0  0  0  0  0  0  0  0
    7.8672    7.3604    1.3374 C   0  0  0  0  0  0  0  0  0  0  0  0
    7.3013    8.5802    2.0230 C   0  0  0  0  0  0  0  0  0  0  0  0
    6.1134    8.2180    2.5241 C   0  0  0  0  0  0  0  0  0  0  0  0
    5.9206    6.7672    2.1637 C   0  0  0  0  0  0  0  0  0  0  0  0
    7.3590    6.2992    2.3005 C   0  0  0  0  0  0  0  0  0  0  0  0
    5.6895    6.7406    0.6246 C   0  0  0  0  0  0  0  0  0  0  0  0
    5.3980   -0.4600   -3.1881 C   0  0  0  0  0  0  0  0  0  0  0  0
    5.0975   -1.2725   -2.0791 C   0  0  0  0  0  0  0  0  0  0  0  0
    6.0997   -1.8989   -1.2392 N   0  0  0  0  0  0  0  0  0  0  0  0
    7.3812   -2.2377   -1.7974 C   0  0  0  0  0  0  0  0  0  0  0  0
    8.5556   -1.9673   -1.0830 C   0  0  0  0  0  0  0  0  0  0  0  0
    9.8005   -2.3380   -1.6053 C   0  0  0  0  0  0  0  0  0  0  0  0
    9.8800   -2.9999   -2.8397 C   0  0  0  0  0  0  0  0  0  0  0  0
   11.2081   -3.3860   -3.4188 C   0  0  0  0  0  0  0  0  0  0  0  0
    8.7069   -3.2697   -3.5549 C   0  0  0  0  0  0  0  0  0  0  0  0
    7.4649   -2.8989   -3.0338 C   0  0  0  0  0  0  0  0  0  0  0  0
    5.7222   -2.5966   -0.0427 C   0  0  0  0  0  0  0  0  0  0  0  0
    5.5445   -3.9895   -0.0701 C   0  0  0  0  0  0  0  0  0  0  0  0
    5.1741   -4.6745    1.0895 C   0  0  0  0  0  0  0  0  0  0  0  0
    4.9951   -3.9782    2.2953 C   0  0  0  0  0  0  0  0  0  0  0  0
    4.5667   -4.7123    3.5297 C   0  0  0  0  0  0  0  0  0  0  0  0
    5.1596   -2.5821    2.3156 C   0  0  0  0  0  0  0  0  0  0  0  0
    5.5343   -1.8975    1.1533 C   0  0  0  0  0  0  0  0  0  0  0  0
    3.7125   -1.4849   -1.9899 C   0  0  0  0  0  0  0  0  0  0  0  0
    2.6771   -2.0328   -0.8067 S   0  0  0  0  0  0  0  0  0  0  0  0
    1.2235   -1.6439   -1.6168 C   0  0  0  0  0  0  0  0  0  0  0  0
    1.5699   -1.1246   -2.8977 C   0  0  0  0  0  0  0  0  0  0  0  0
    0.7381   -1.1757   -4.0870 N   0  0  0  0  0  0  0  0  0  0  0  0
    0.1668   -2.4550   -4.4771 C   0  0  0  0  0  0  0  0  0  0  0  0
   -0.9420   -2.5137   -5.3370 C   0  0  0  0  0  0  0  0  0  0  0  0
   -1.4646   -3.7402   -5.7554 C   0  0  0  0  0  0  0  0  0  0  0  0
   -0.8871   -4.9383   -5.3144 C   0  0  0  0  0  0  0  0  0  0  0  0
   -1.4278   -6.2515   -5.7945 C   0  0  0  0  0  0  0  0  0  0  0  0
    0.2482   -4.8925   -4.4992 C   0  0  0  0  0  0  0  0  0  0  0  0
    0.7644   -3.6660   -4.0755 C   0  0  0  0  0  0  0  0  0  0  0  0
    0.9327   -0.1410   -5.0914 C   0  0  0  0  0  0  0  0  0  0  0  0
    1.0710    1.2048   -4.7036 C   0  0  0  0  0  0  0  0  0  0  0  0
    1.3391    2.2005   -5.6499 C   0  0  0  0  0  0  0  0  0  0  0  0
    1.5064    1.8632   -6.9999 C   0  0  0  0  0  0  0  0  0  0  0  0
    1.7989    2.9162   -8.0284 C   0  0  0  0  0  0  0  0  0  0  0  0
    1.3587    0.5319   -7.3984 C   0  0  0  0  0  0  0  0  0  0  0  0
    1.0935   -0.4622   -6.4510 C   0  0  0  0  0  0  0  0  0  0  0  0
    2.9682   -0.9855   -3.0075 C   0  0  0  0  0  0  0  0  0  0  0  0
    3.9781   -0.1640   -4.0708 S   0  0  0  0  0  0  0  0  0  0  0  0
   -0.0524   -1.6274   -0.8418 C   0  0  0  0  0  0  0  0  0  0  0  0
   -1.4190   -1.5334   -1.2196 C   0  0  0  0  0  0  0  0  0  0  0  0
   -1.9352   -1.0547   -2.4737 N   0  0  0  0  0  0  0  0  0  0  0  0
   -3.0058   -1.8594   -3.0481 C   0  0  0  0  0  0  0  0  0  0  0  0
   -2.9419   -3.2666   -2.9634 C   0  0  0  0  0  0  0  0  0  0  0  0
   -3.9821   -4.0630   -3.4458 C   0  0  0  0  0  0  0  0  0  0  0  0
   -5.1086   -3.4701   -4.0186 C   0  0  0  0  0  0  0  0  0  0  0  0
   -6.4129   -4.4935   -4.7065 S   0  0  0  0  0  0  0  0  0  0  0  0
   -7.2988   -4.6341   -3.1253 C   0  0  0  0  0  0  0  0  0  0  0  0
   -5.2078   -2.0801   -4.0727 C   0  0  0  0  0  0  0  0  0  0  0  0
   -4.1836   -1.2765   -3.5637 C   0  0  0  0  0  0  0  0  0  0  0  0
   -1.7764    0.3647   -2.7887 C   0  0  0  0  0  0  0  0  0  0  0  0
   -1.3592    1.2842   -1.7988 C   0  0  0  0  0  0  0  0  0  0  0  0
   -1.2453    2.6456   -2.0803 C   0  0  0  0  0  0  0  0  0  0  0  0
   -1.5683    3.1275   -3.3494 C   0  0  0  0  0  0  0  0  0  0  0  0
   -1.4343    4.8811   -3.7083 S   0  0  0  0  0  0  0  0  0  0  0  0
   -3.1008    5.2572   -3.0859 C   0  0  0  0  0  0  0  0  0  0  0  0
   -1.9768    2.2372   -4.3451 C   0  0  0  0  0  0  0  0  0  0  0  0
   -2.0590    0.8696   -4.0737 C   0  0  0  0  0  0  0  0  0  0  0  0
   -2.2616   -1.5793   -0.0995 C   0  0  0  0  0  0  0  0  0  0  0  0
   -3.9017   -1.3044    0.0889 S   0  0  0  0  0  0  0  0  0  0  0  0
   -3.8106   -1.1292    1.7797 C   0  0  0  0  0  0  0  0  0  0  0  0
   -2.4709   -1.2485    2.1919 C   0  0  0  0  0  0  0  0  0  0  0  0
   -1.9490   -0.6800    3.4045 N   0  0  0  0  0  0  0  0  0  0  0  0
   -1.6760    0.7469    3.4947 C   0  0  0  0  0  0  0  0  0  0  0  0
   -1.9047    1.6054    2.3909 C   0  0  0  0  0  0  0  0  0  0  0  0
   -1.6824    2.9782    2.4928 C   0  0  0  0  0  0  0  0  0  0  0  0
   -1.2251    3.5282    3.6934 C   0  0  0  0  0  0  0  0  0  0  0  0
   -0.9756    5.3018    3.8295 S   0  0  0  0  0  0  0  0  0  0  0  0
    0.7032    5.2496    3.1276 C   0  0  0  0  0  0  0  0  0  0  0  0
   -0.9979    2.7017    4.7949 C   0  0  0  0  0  0  0  0  0  0  0  0
   -1.2337    1.3260    4.7044 C   0  0  0  0  0  0  0  0  0  0  0  0
   -1.5113   -1.5713    4.4388 C   0  0  0  0  0  0  0  0  0  0  0  0
   -0.1420   -1.8145    4.6272 C   0  0  0  0  0  0  0  0  0  0  0  0
    0.2971   -2.5200    5.7524 C   0  0  0  0  0  0  0  0  0  0  0  0
   -0.6254   -2.9726    6.7006 C   0  0  0  0  0  0  0  0  0  0  0  0
   -0.0534   -3.7614    8.2099 S   0  0  0  0  0  0  0  0  0  0  0  0
    0.1497   -2.1800    9.0910 C   0  0  0  0  0  0  0  0  0  0  0  0
   -1.9954   -2.7647    6.4969 C   0  0  0  0  0  0  0  0  0  0  0  0
   -2.4397   -2.0703    5.3690 C   0  0  0  0  0  0  0  0  0  0  0  0
   -1.6544   -1.5533    1.1051 C   0  0  0  0  0  0  0  0  0  0  0  0
   -0.0060   -1.5901    0.8753 S   0  0  0  0  0  0  0  0  0  0  0  0
   -4.9870   -0.8666    2.6124 C   0  0  0  0  0  0  0  0  0  0  0  0
   -5.0958    0.0003    3.6977 C   0  0  0  0  0  0  0  0  0  0  0  0
   -6.3901    0.0333    4.2489 C   0  0  0  0  0  0  0  0  0  0  0  0
   -6.7867    0.8768    5.3005 O   0  0  0  0  0  0  0  0  0  0  0  0
   -5.9822    1.9227    5.8353 C   0  0  0  0  0  0  0  0  0  0  0  0
   -5.9494    3.1179    4.8845 C   0  0  0  0  0  0  0  0  0  0  0  0
   -7.2734   -0.8507    3.6383 C   0  0  0  0  0  0  0  0  0  0  0  0
   -6.4893   -1.5652    2.3323 S   0  0  0  0  0  0  0  0  0  0  0  0
   -8.7088   -0.9862    3.9428 C   0  0  0  0  0  0  0  0  0  0  0  0
   -9.3580   -2.1681    3.9756 C   0  0  0  0  0  0  0  0  0  0  0  0
   -8.7282   -3.5086    3.8702 C   0  0  0  0  0  0  0  0  0  0  0  0
   -7.5040   -3.7854    3.9689 O   0  0  0  0  0  0  0  0  0  0  0  0
   -9.7847   -4.4858    3.7726 C   0  0  0  0  0  0  0  0  0  0  0  0
   -9.8299   -5.8531    3.5315 C   0  0  0  0  0  0  0  0  0  0  0  0
  -11.1538   -6.2908    3.4513 C   0  0  0  0  0  0  0  0  0  0  0  0
  -11.6581   -7.9252    3.0908 Cl  0  0  0  0  0  0  0  0  0  0  0  0
  -12.2196   -4.9795    3.6510 S   0  0  0  0  0  0  0  0  0  0  0  0
  -10.9818   -3.8653    3.8698 C   0  0  0  0  0  0  0  0  0  0  0  0
  -10.8484   -2.4076    4.0419 C   0  0  0  0  0  0  0  0  0  0  0  0
  -11.8702   -1.5468    4.2476 C   0  0  0  0  0  0  0  0  0  0  0  0
  -13.2310   -2.0105    4.3056 C   0  0  0  0  0  0  0  0  0  0  0  0
  -14.3249   -2.3893    4.3491 N   0  0  0  0  0  0  0  0  0  0  0  0
  -11.6896   -0.1387    4.4801 C   0  0  0  0  0  0  0  0  0  0  0  0
  -11.5655    0.9961    4.6722 N   0  0  0  0  0  0  0  0  0  0  0  0
    7.2491    0.2580   -4.0824 H   0  0  0  0  0  0  0  0  0  0  0  0
    4.3012    3.8923    0.1509 H   0  0  0  0  0  0  0  0  0  0  0  0
    8.7841    5.3278   -1.8183 H   0  0  0  0  0  0  0  0  0  0  0  0
    6.9495    7.9867   -0.6474 H   0  0  0  0  0  0  0  0  0  0  0  0
    8.9639    7.3723    1.1666 H   0  0  0  0  0  0  0  0  0  0  0  0
    7.7917    9.5324    2.1833 H   0  0  0  0  0  0  0  0  0  0  0  0
    5.4840    8.8303    3.1648 H   0  0  0  0  0  0  0  0  0  0  0  0
    5.1693    6.2200    2.7710 H   0  0  0  0  0  0  0  0  0  0  0  0
    7.7612    6.4101    3.3385 H   0  0  0  0  0  0  0  0  0  0  0  0
    7.5387    5.2564    1.9614 H   0  0  0  0  0  0  0  0  0  0  0  0
    4.8270    7.3322    0.2525 H   0  0  0  0  0  0  0  0  0  0  0  0
    8.5028   -1.4643   -0.1212 H   0  0  0  0  0  0  0  0  0  0  0  0
   10.6965   -2.1113   -1.0374 H   0  0  0  0  0  0  0  0  0  0  0  0
   11.1735   -4.4351   -3.7861 H   0  0  0  0  0  0  0  0  0  0  0  0
   11.4488   -2.7168   -4.2705 H   0  0  0  0  0  0  0  0  0  0  0  0
   12.0186   -3.3091   -2.6642 H   0  0  0  0  0  0  0  0  0  0  0  0
    8.7460   -3.7762   -4.5109 H   0  0  0  0  0  0  0  0  0  0  0  0
    6.5637   -3.1369   -3.5855 H   0  0  0  0  0  0  0  0  0  0  0  0
    5.6754   -4.5374   -0.9960 H   0  0  0  0  0  0  0  0  0  0  0  0
    5.0321   -5.7459    1.0485 H   0  0  0  0  0  0  0  0  0  0  0  0
    4.8865   -4.1694    4.4431 H   0  0  0  0  0  0  0  0  0  0  0  0
    3.4616   -4.8076    3.5336 H   0  0  0  0  0  0  0  0  0  0  0  0
    5.0200   -5.7276    3.5538 H   0  0  0  0  0  0  0  0  0  0  0  0
    5.0018   -2.0249    3.2316 H   0  0  0  0  0  0  0  0  0  0  0  0
    5.6764   -0.8246    1.1819 H   0  0  0  0  0  0  0  0  0  0  0  0
   -1.4130   -1.6125   -5.6794 H   0  0  0  0  0  0  0  0  0  0  0  0
   -2.3237   -3.7510   -6.4146 H   0  0  0  0  0  0  0  0  0  0  0  0
   -2.5313   -6.1896   -5.9356 H   0  0  0  0  0  0  0  0  0  0  0  0
   -0.9441   -6.5146   -6.7584 H   0  0  0  0  0  0  0  0  0  0  0  0
   -1.2146   -7.0533   -5.0537 H   0  0  0  0  0  0  0  0  0  0  0  0
    0.7214   -5.8074   -4.1643 H   0  0  0  0  0  0  0  0  0  0  0  0
    1.6532   -3.6691   -3.4611 H   0  0  0  0  0  0  0  0  0  0  0  0
    0.9833    1.4823   -3.6618 H   0  0  0  0  0  0  0  0  0  0  0  0
    1.4251    3.2317   -5.3251 H   0  0  0  0  0  0  0  0  0  0  0  0
    2.1498    3.8630   -7.5555 H   0  0  0  0  0  0  0  0  0  0  0  0
    0.8770    3.1245   -8.6105 H   0  0  0  0  0  0  0  0  0  0  0  0
    2.5928    2.5634   -8.7243 H   0  0  0  0  0  0  0  0  0  0  0  0
    1.4825    0.2579   -8.4365 H   0  0  0  0  0  0  0  0  0  0  0  0
    1.0575   -1.4908   -6.7903 H   0  0  0  0  0  0  0  0  0  0  0  0
   -2.0615   -3.7524   -2.5602 H   0  0  0  0  0  0  0  0  0  0  0  0
   -3.9099   -5.1420   -3.3875 H   0  0  0  0  0  0  0  0  0  0  0  0
   -6.6670   -5.1729   -2.3892 H   0  0  0  0  0  0  0  0  0  0  0  0
   -7.5568   -3.6291   -2.7277 H   0  0  0  0  0  0  0  0  0  0  0  0
   -8.2331   -5.2088   -3.2861 H   0  0  0  0  0  0  0  0  0  0  0  0
   -6.0912   -1.6156   -4.4878 H   0  0  0  0  0  0  0  0  0  0  0  0
   -4.3426   -0.2041   -3.5408 H   0  0  0  0  0  0  0  0  0  0  0  0
   -1.1262    0.9647   -0.7952 H   0  0  0  0  0  0  0  0  0  0  0  0
   -0.9194    3.3286   -1.3003 H   0  0  0  0  0  0  0  0  0  0  0  0
   -3.3384    6.3194   -3.3041 H   0  0  0  0  0  0  0  0  0  0  0  0
   -3.8574    4.6126   -3.5841 H   0  0  0  0  0  0  0  0  0  0  0  0
   -3.1349    5.0975   -1.9862 H   0  0  0  0  0  0  0  0  0  0  0  0
   -2.2181    2.6007   -5.3369 H   0  0  0  0  0  0  0  0  0  0  0  0
   -2.3689    0.2147   -4.8751 H   0  0  0  0  0  0  0  0  0  0  0  0
   -2.2628    1.2200    1.4487 H   0  0  0  0  0  0  0  0  0  0  0  0
   -1.8646    3.6151    1.6367 H   0  0  0  0  0  0  0  0  0  0  0  0
    1.1386    6.2690    3.1548 H   0  0  0  0  0  0  0  0  0  0  0  0
    1.3505    4.5666    3.7168 H   0  0  0  0  0  0  0  0  0  0  0  0
    0.6604    4.9076    2.0725 H   0  0  0  0  0  0  0  0  0  0  0  0
   -0.6563    3.1243    5.7324 H   0  0  0  0  0  0  0  0  0  0  0  0
   -1.0775    0.7226    5.5864 H   0  0  0  0  0  0  0  0  0  0  0  0
    0.5856   -1.4191    3.9271 H   0  0  0  0  0  0  0  0  0  0  0  0
    1.3560   -2.6688    5.9110 H   0  0  0  0  0  0  0  0  0  0  0  0
   -0.7920   -1.5911    9.0525 H   0  0  0  0  0  0  0  0  0  0  0  0
    0.4050   -2.3782   10.1528 H   0  0  0  0  0  0  0  0  0  0  0  0
    0.9721   -1.5975    8.6247 H   0  0  0  0  0  0  0  0  0  0  0  0
   -2.7095   -3.1025    7.2348 H   0  0  0  0  0  0  0  0  0  0  0  0
   -3.4952   -1.8770    5.2433 H   0  0  0  0  0  0  0  0  0  0  0  0
   -4.2773    0.5984    4.0648 H   0  0  0  0  0  0  0  0  0  0  0  0
   -4.9542    1.5628    6.0502 H   0  0  0  0  0  0  0  0  0  0  0  0
   -6.4278    2.2560    6.8005 H   0  0  0  0  0  0  0  0  0  0  0  0
   -5.5297    2.8231    3.9006 H   0  0  0  0  0  0  0  0  0  0  0  0
   -6.9778    3.5090    4.7421 H   0  0  0  0  0  0  0  0  0  0  0  0
   -5.3184    3.9178    5.3180 H   0  0  0  0  0  0  0  0  0  0  0  0
   -9.2354   -0.0633    4.0987 H   0  0  0  0  0  0  0  0  0  0  0  0
   -8.9621   -6.4867    3.4124 H   0  0  0  0  0  0  0  0  0  0  0  0
  1  2  2  3
  2  3  1  0
  3  4  2  0
  3  5  1  0
  5  6  2  0
  6  7  1  0
  7  8  2  0
  8  9  1  0
  9 10  2  0
 10 11  1  0
 11 12  2  3
 12 13  1  0
 13 14  3  0
 12 15  1  0
 15 16  3  0
  8 17  1  0
 17 18  1  0
 18 19  1  0
 19 20  2  0
 20 21  1  0
 21 22  1  0
 21 23  1  0
  1 24  1  0
 24 25  2  0
 25 26  1  0
 26 27  1  0
 27 28  2  0
 28 29  1  0
 29 30  2  0
 30 31  1  0
 30 32  1  0
 32 33  2  0
 26 34  1  0
 34 35  2  0
 35 36  1  0
 36 37  2  0
 37 38  1  0
 37 39  1  0
 39 40  2  0
 25 41  1  0
 41 42  1  0
 42 43  1  0
 43 44  2  0
 44 45  1  0
 45 46  1  0
 46 47  2  0
 47 48  1  0
 48 49  2  0
 49 50  1  0
 49 51  1  0
 51 52  2  0
 45 53  1  0
 53 54  2  0
 54 55  1  0
 55 56  2  0
 56 57  1  0
 56 58  1  0
 58 59  2  0
 44 60  1  0
 60 61  1  0
 43 62  1  0
 62 63  2  0
 63 64  1  0
 64 65  1  0
 65 66  2  0
 66 67  1  0
 67 68  2  0
 68 69  1  0
 69 70  1  0
 68 71  1  0
 71 72  2  0
 64 73  1  0
 73 74  2  0
 74 75  1  0
 75 76  2  0
 76 77  1  0
 77 78  1  0
 76 79  1  0
 79 80  2  0
 63 81  1  0
 81 82  1  0
 82 83  1  0
 83 84  2  0
 84 85  1  0
 85 86  1  0
 86 87  2  0
 87 88  1  0
 88 89  2  0
 89 90  1  0
 90 91  1  0
 89 92  1  0
 92 93  2  0
 85 94  1  0
 94 95  2  0
 95 96  1  0
 96 97  2  0
 97 98  1  0
 98 99  1  0
 97100  1  0
100101  2  0
 84102  1  0
102103  1  0
 83104  1  0
104105  2  0
105106  1  0
106107  1  0
107108  1  0
108109  1  0
106110  2  0
110111  1  0
110112  1  0
112113  2  3
113114  1  0
114115  2  0
114116  1  0
116117  1  0
117118  2  0
118119  1  0
118120  1  0
120121  1  0
121122  1  0
122123  2  3
123124  1  0
124125  3  0
123126  1  0
126127  3  0
 11  2  1  0
 23 17  1  0
 61 24  1  0
103 62  1  0
111104  1  0
122113  1  0
 10  5  1  0
 22 18  1  0
 33 27  1  0
 40 34  1  0
 60 41  2  0
 72 65  1  0
 80 73  1  0
102 81  2  0
121116  2  0
 23  7  1  0
 52 46  1  0
 59 53  1  0
 93 86  1  0
101 94  1  0
  1128  1  0
  6129  1  0
  9130  1  0
 17131  1  0
 18132  1  0
 19133  1  0
 20134  1  0
 21135  1  0
 22136  1  0
 22137  1  0
 23138  1  0
 28139  1  0
 29140  1  0
 31141  1  0
 31142  1  0
 31143  1  0
 32144  1  0
 33145  1  0
 35146  1  0
 36147  1  0
 38148  1  0
 38149  1  0
 38150  1  0
 39151  1  0
 40152  1  0
 47153  1  0
 48154  1  0
 50155  1  0
 50156  1  0
 50157  1  0
 51158  1  0
 52159  1  0
 54160  1  0
 55161  1  0
 57162  1  0
 57163  1  0
 57164  1  0
 58165  1  0
 59166  1  0
 66167  1  0
 67168  1  0
 70169  1  0
 70170  1  0
 70171  1  0
 71172  1  0
 72173  1  0
 74174  1  0
 75175  1  0
 78176  1  0
 78177  1  0
 78178  1  0
 79179  1  0
 80180  1  0
 87181  1  0
 88182  1  0
 91183  1  0
 91184  1  0
 91185  1  0
 92186  1  0
 93187  1  0
 95188  1  0
 96189  1  0
 99190  1  0
 99191  1  0
 99192  1  0
100193  1  0
101194  1  0
105195  1  0
108196  1  0
108197  1  0
109198  1  0
109199  1  0
109200  1  0
112201  1  0
117202  1  0
M  END

