
     RDKit          3D

213235  0  0  0  0  0  0  0  0999 V2000
   -0.3253    1.0158    5.8229 C   0  0  0  0  0  0  0  0  0  0  0  0
    0.3678    2.1341    5.4872 C   0  0  0  0  0  0  0  0  0  0  0  0
    1.2476    2.2566    4.3155 C   0  0  0  0  0  0  0  0  0  0  0  0
    1.4848    1.3711    3.4515 O   0  0  0  0  0  0  0  0  0  0  0  0
    1.8530    3.5649    4.3053 C   0  0  0  0  0  0  0  0  0  0  0  0
    2.7784    4.0600    3.3571 C   0  0  0  0  0  0  0  0  0  0  0  0
    3.1780    5.3590    3.5914 C   0  0  0  0  0  0  0  0  0  0  0  0
    2.7150    6.1360    4.6968 C   0  0  0  0  0  0  0  0  0  0  0  0
    1.8254    5.6479    5.6436 C   0  0  0  0  0  0  0  0  0  0  0  0
    1.3549    4.3203    5.4010 C   0  0  0  0  0  0  0  0  0  0  0  0
    0.3602    3.4873    6.1611 C   0  0  0  0  0  0  0  0  0  0  0  0
   -0.4410    3.9155    7.1775 C   0  0  0  0  0  0  0  0  0  0  0  0
   -0.4717    5.2826    7.6412 C   0  0  0  0  0  0  0  0  0  0  0  0
   -0.5049    6.3696    8.0370 N   0  0  0  0  0  0  0  0  0  0  0  0
   -1.3665    3.0585    7.8763 C   0  0  0  0  0  0  0  0  0  0  0  0
   -2.1178    2.4037    8.4683 N   0  0  0  0  0  0  0  0  0  0  0  0
    3.5486    7.3007    4.2435 C   0  0  0  0  0  0  0  0  0  0  0  0
    4.8395    7.6003    5.0620 C   0  0  0  0  0  0  0  0  0  0  0  0
    5.6894    8.4995    4.1883 C   0  0  0  0  0  0  0  0  0  0  0  0
    6.1472    7.7353    3.1893 C   0  0  0  0  0  0  0  0  0  0  0  0
    5.5649    6.3601    3.4025 C   0  0  0  0  0  0  0  0  0  0  0  0
    5.6378    6.3116    4.9196 C   0  0  0  0  0  0  0  0  0  0  0  0
    4.0359    6.4918    3.1244 C   0  0  0  0  0  0  0  0  0  0  0  0
   -0.3349   -0.2193    5.0223 C   0  0  0  0  0  0  0  0  0  0  0  0
   -1.4352   -0.7015    4.2994 C   0  0  0  0  0  0  0  0  0  0  0  0
   -2.7868   -0.2532    4.4908 N   0  0  0  0  0  0  0  0  0  0  0  0
   -3.4138   -0.4499    5.7834 C   0  0  0  0  0  0  0  0  0  0  0  0
   -2.9793   -1.4790    6.6433 C   0  0  0  0  0  0  0  0  0  0  0  0
   -3.5204   -1.6181    7.9217 C   0  0  0  0  0  0  0  0  0  0  0  0
   -4.5173   -0.7377    8.3709 C   0  0  0  0  0  0  0  0  0  0  0  0
   -5.0958   -0.9004    9.7445 C   0  0  0  0  0  0  0  0  0  0  0  0
   -4.9954    0.2546    7.5004 C   0  0  0  0  0  0  0  0  0  0  0  0
   -4.4426    0.4047    6.2226 C   0  0  0  0  0  0  0  0  0  0  0  0
   -3.5314    0.2345    3.3615 C   0  0  0  0  0  0  0  0  0  0  0  0
   -4.7606   -0.3547    3.0154 C   0  0  0  0  0  0  0  0  0  0  0  0
   -5.4709    0.1128    1.9119 C   0  0  0  0  0  0  0  0  0  0  0  0
   -4.9771    1.1807    1.1483 C   0  0  0  0  0  0  0  0  0  0  0  0
   -5.7548    1.6985   -0.0253 C   0  0  0  0  0  0  0  0  0  0  0  0
   -3.7398    1.7603    1.4845 C   0  0  0  0  0  0  0  0  0  0  0  0
   -3.0200    1.2846    2.5840 C   0  0  0  0  0  0  0  0  0  0  0  0
   -1.1051   -1.8516    3.5847 C   0  0  0  0  0  0  0  0  0  0  0  0
   -1.8584   -2.7323    2.3826 S   0  0  0  0  0  0  0  0  0  0  0  0
   -0.5212   -3.7483    2.0601 C   0  0  0  0  0  0  0  0  0  0  0  0
    0.5056   -3.4229    2.9798 C   0  0  0  0  0  0  0  0  0  0  0  0
    1.7263   -4.1837    3.1460 N   0  0  0  0  0  0  0  0  0  0  0  0
    1.7217   -5.6258    3.0601 C   0  0  0  0  0  0  0  0  0  0  0  0
    0.6000   -6.3753    3.4662 C   0  0  0  0  0  0  0  0  0  0  0  0
    0.5959   -7.7699    3.3375 C   0  0  0  0  0  0  0  0  0  0  0  0
    1.7189   -8.4371    2.8243 C   0  0  0  0  0  0  0  0  0  0  0  0
    1.6848   -9.9269    2.6391 C   0  0  0  0  0  0  0  0  0  0  0  0
    2.8456   -7.6926    2.4395 C   0  0  0  0  0  0  0  0  0  0  0  0
    2.8512   -6.3010    2.5780 C   0  0  0  0  0  0  0  0  0  0  0  0
    2.8985   -3.5672    3.7046 C   0  0  0  0  0  0  0  0  0  0  0  0
    3.3121   -3.9152    4.9973 C   0  0  0  0  0  0  0  0  0  0  0  0
    4.4846   -3.3754    5.5283 C   0  0  0  0  0  0  0  0  0  0  0  0
    5.2778   -2.5071    4.7609 C   0  0  0  0  0  0  0  0  0  0  0  0
    6.5365   -1.9431    5.3451 C   0  0  0  0  0  0  0  0  0  0  0  0
    4.8487   -2.1418    3.4713 C   0  0  0  0  0  0  0  0  0  0  0  0
    3.6625   -2.6698    2.9456 C   0  0  0  0  0  0  0  0  0  0  0  0
    0.1522   -2.3185    3.7754 C   0  0  0  0  0  0  0  0  0  0  0  0
    0.9730   -1.2944    4.8352 S   0  0  0  0  0  0  0  0  0  0  0  0
   -0.2056   -4.0653    0.6550 C   0  0  0  0  0  0  0  0  0  0  0  0
    0.6168   -5.0839    0.1829 C   0  0  0  0  0  0  0  0  0  0  0  0
    1.2885   -4.7736   -1.0177 C   0  0  0  0  0  0  0  0  0  0  0  0
    2.3225   -5.7008   -1.5989 C   0  0  0  0  0  0  0  0  0  0  0  0
    3.7399   -5.1655   -1.4180 C   0  0  0  0  0  0  0  0  0  0  0  0
    0.9523   -3.5085   -1.5155 C   0  0  0  0  0  0  0  0  0  0  0  0
   -0.1568   -2.8318   -0.4604 S   0  0  0  0  0  0  0  0  0  0  0  0
    1.6528   -2.6501   -2.4858 C   0  0  0  0  0  0  0  0  0  0  0  0
    1.4642   -2.7020   -3.8795 C   0  0  0  0  0  0  0  0  0  0  0  0
    1.1481   -3.8850   -4.6264 N   0  0  0  0  0  0  0  0  0  0  0  0
    2.2386   -4.7408   -5.0575 C   0  0  0  0  0  0  0  0  0  0  0  0
    3.5664   -4.2622   -5.0920 C   0  0  0  0  0  0  0  0  0  0  0  0
    4.6179   -5.0936   -5.4767 C   0  0  0  0  0  0  0  0  0  0  0  0
    4.3705   -6.4202   -5.8489 C   0  0  0  0  0  0  0  0  0  0  0  0
    5.5086   -7.3154   -6.2365 C   0  0  0  0  0  0  0  0  0  0  0  0
    3.0607   -6.9161   -5.7938 C   0  0  0  0  0  0  0  0  0  0  0  0
    2.0012   -6.0824   -5.4105 C   0  0  0  0  0  0  0  0  0  0  0  0
   -0.1588   -3.9582   -5.2349 C   0  0  0  0  0  0  0  0  0  0  0  0
   -1.3007   -3.6459   -4.4783 C   0  0  0  0  0  0  0  0  0  0  0  0
   -2.5517   -3.5464   -5.0908 C   0  0  0  0  0  0  0  0  0  0  0  0
   -2.6761   -3.7461   -6.4744 C   0  0  0  0  0  0  0  0  0  0  0  0
   -4.0136   -3.6173   -7.1439 C   0  0  0  0  0  0  0  0  0  0  0  0
   -1.5467   -4.0975   -7.2254 C   0  0  0  0  0  0  0  0  0  0  0  0
   -0.2947   -4.1918   -6.6131 C   0  0  0  0  0  0  0  0  0  0  0  0
    1.5502   -1.4406   -4.4708 C   0  0  0  0  0  0  0  0  0  0  0  0
    0.9708   -0.8330   -5.9266 S   0  0  0  0  0  0  0  0  0  0  0  0
    1.0174    0.7875   -5.4043 C   0  0  0  0  0  0  0  0  0  0  0  0
    1.4962    0.8445   -4.0873 C   0  0  0  0  0  0  0  0  0  0  0  0
    1.4957    2.0219   -3.2634 N   0  0  0  0  0  0  0  0  0  0  0  0
    0.2553    2.5977   -2.8183 C   0  0  0  0  0  0  0  0  0  0  0  0
   -0.0365    3.9427   -3.0970 C   0  0  0  0  0  0  0  0  0  0  0  0
   -1.3094    4.4560   -2.8426 C   0  0  0  0  0  0  0  0  0  0  0  0
   -2.3083    3.6354   -2.2979 C   0  0  0  0  0  0  0  0  0  0  0  0
   -3.7020    4.1662   -2.1439 C   0  0  0  0  0  0  0  0  0  0  0  0
   -1.9906    2.3173   -1.9309 C   0  0  0  0  0  0  0  0  0  0  0  0
   -0.7183    1.7998   -2.1914 C   0  0  0  0  0  0  0  0  0  0  0  0
    2.7297    2.7270   -3.0726 C   0  0  0  0  0  0  0  0  0  0  0  0
    3.2256    2.9540   -1.7806 C   0  0  0  0  0  0  0  0  0  0  0  0
    4.4379    3.6287   -1.6008 C   0  0  0  0  0  0  0  0  0  0  0  0
    5.1545    4.1033   -2.7131 C   0  0  0  0  0  0  0  0  0  0  0  0
    6.4447    4.8466   -2.5355 C   0  0  0  0  0  0  0  0  0  0  0  0
    4.6395    3.9052   -4.0029 C   0  0  0  0  0  0  0  0  0  0  0  0
    3.4357    3.2189   -4.1834 C   0  0  0  0  0  0  0  0  0  0  0  0
    1.8054   -0.4195   -3.6111 C   0  0  0  0  0  0  0  0  0  0  0  0
    1.9579   -1.0210   -2.0690 S   0  0  0  0  0  0  0  0  0  0  0  0
    0.3347    1.8900   -6.0896 C   0  0  0  0  0  0  0  0  0  0  0  0
   -0.9657    2.1743   -5.8705 C   0  0  0  0  0  0  0  0  0  0  0  0
   -1.9116    1.3038   -5.1551 C   0  0  0  0  0  0  0  0  0  0  0  0
   -1.6629    0.1851   -4.6325 O   0  0  0  0  0  0  0  0  0  0  0  0
   -3.2191    1.9081   -5.1823 C   0  0  0  0  0  0  0  0  0  0  0  0
   -4.4036    1.3867   -4.6100 C   0  0  0  0  0  0  0  0  0  0  0  0
   -5.5217    2.1595   -4.8399 C   0  0  0  0  0  0  0  0  0  0  0  0
   -5.4862    3.3706   -5.5965 C   0  0  0  0  0  0  0  0  0  0  0  0
   -4.3324    3.8840   -6.1629 C   0  0  0  0  0  0  0  0  0  0  0  0
   -3.1581    3.1201   -5.9116 C   0  0  0  0  0  0  0  0  0  0  0  0
   -1.7365    3.3863   -6.3024 C   0  0  0  0  0  0  0  0  0  0  0  0
   -1.2283    4.5791   -6.7125 C   0  0  0  0  0  0  0  0  0  0  0  0
    0.1838    4.8237   -6.8489 C   0  0  0  0  0  0  0  0  0  0  0  0
    1.3163    5.0424   -6.9674 N   0  0  0  0  0  0  0  0  0  0  0  0
   -2.0513    5.7407   -6.9222 C   0  0  0  0  0  0  0  0  0  0  0  0
   -2.6943    6.6878   -7.0919 N   0  0  0  0  0  0  0  0  0  0  0  0
   -6.9640    3.5438   -5.4189 C   0  0  0  0  0  0  0  0  0  0  0  0
   -7.8513    3.2343   -6.6613 C   0  0  0  0  0  0  0  0  0  0  0  0
   -9.2601    3.0889   -6.1397 C   0  0  0  0  0  0  0  0  0  0  0  0
   -9.2907    1.9466   -5.4371 C   0  0  0  0  0  0  0  0  0  0  0  0
   -7.8990    1.3645   -5.5084 C   0  0  0  0  0  0  0  0  0  0  0  0
   -7.5525    1.7706   -6.9340 C   0  0  0  0  0  0  0  0  0  0  0  0
   -6.9998    2.2980   -4.6456 C   0  0  0  0  0  0  0  0  0  0  0  0
   -1.0144    1.0041    6.6458 H   0  0  0  0  0  0  0  0  0  0  0  0
    3.1334    3.4835    2.5172 H   0  0  0  0  0  0  0  0  0  0  0  0
    1.5379    6.2632    6.4775 H   0  0  0  0  0  0  0  0  0  0  0  0
    2.9498    8.1919    3.9508 H   0  0  0  0  0  0  0  0  0  0  0  0
    4.6737    7.9682    6.0961 H   0  0  0  0  0  0  0  0  0  0  0  0
    5.9660    9.5330    4.3773 H   0  0  0  0  0  0  0  0  0  0  0  0
    6.8675    8.0395    2.4314 H   0  0  0  0  0  0  0  0  0  0  0  0
    6.0820    5.5384    2.8651 H   0  0  0  0  0  0  0  0  0  0  0  0
    5.1489    5.4226    5.3795 H   0  0  0  0  0  0  0  0  0  0  0  0
    6.6762    6.3964    5.3183 H   0  0  0  0  0  0  0  0  0  0  0  0
    3.7536    6.8908    2.1267 H   0  0  0  0  0  0  0  0  0  0  0  0
   -2.2230   -2.1842    6.3296 H   0  0  0  0  0  0  0  0  0  0  0  0
   -3.1574   -2.4143    8.5677 H   0  0  0  0  0  0  0  0  0  0  0  0
   -4.2953   -1.1439   10.4769 H   0  0  0  0  0  0  0  0  0  0  0  0
   -5.8448   -1.7208    9.7338 H   0  0  0  0  0  0  0  0  0  0  0  0
   -5.5936    0.0362   10.0825 H   0  0  0  0  0  0  0  0  0  0  0  0
   -5.7866    0.9249    7.8161 H   0  0  0  0  0  0  0  0  0  0  0  0
   -4.8089    1.2007    5.5851 H   0  0  0  0  0  0  0  0  0  0  0  0
   -5.1536   -1.1822    3.5921 H   0  0  0  0  0  0  0  0  0  0  0  0
   -6.4145   -0.3541    1.6568 H   0  0  0  0  0  0  0  0  0  0  0  0
   -5.8286    2.8032    0.0281 H   0  0  0  0  0  0  0  0  0  0  0  0
   -5.2444    1.4011   -0.9624 H   0  0  0  0  0  0  0  0  0  0  0  0
   -6.7864    1.2845   -0.0416 H   0  0  0  0  0  0  0  0  0  0  0  0
   -3.3423    2.5838    0.9020 H   0  0  0  0  0  0  0  0  0  0  0  0
   -2.0705    1.7415    2.8425 H   0  0  0  0  0  0  0  0  0  0  0  0
   -0.2813   -5.8883    3.8579 H   0  0  0  0  0  0  0  0  0  0  0  0
   -0.2862   -8.3281    3.6337 H   0  0  0  0  0  0  0  0  0  0  0  0
    1.0538  -10.1731    1.7618 H   0  0  0  0  0  0  0  0  0  0  0  0
    1.2645  -10.4112    3.5445 H   0  0  0  0  0  0  0  0  0  0  0  0
    2.7042  -10.3280    2.4713 H   0  0  0  0  0  0  0  0  0  0  0  0
    3.7177   -8.1869    2.0229 H   0  0  0  0  0  0  0  0  0  0  0  0
    3.7256   -5.7485    2.2561 H   0  0  0  0  0  0  0  0  0  0  0  0
    2.7197   -4.5993    5.5945 H   0  0  0  0  0  0  0  0  0  0  0  0
    4.7851   -3.6450    6.5331 H   0  0  0  0  0  0  0  0  0  0  0  0
    6.2850   -1.2074    6.1335 H   0  0  0  0  0  0  0  0  0  0  0  0
    7.1412   -2.7618    5.7905 H   0  0  0  0  0  0  0  0  0  0  0  0
    7.1549   -1.4473    4.5675 H   0  0  0  0  0  0  0  0  0  0  0  0
    5.4568   -1.4889    2.8524 H   0  0  0  0  0  0  0  0  0  0  0  0
    3.3533   -2.4090    1.9413 H   0  0  0  0  0  0  0  0  0  0  0  0
    0.7765   -6.0131    0.7064 H   0  0  0  0  0  0  0  0  0  0  0  0
    2.2581   -6.6966   -1.1034 H   0  0  0  0  0  0  0  0  0  0  0  0
    2.1117   -5.8745   -2.6683 H   0  0  0  0  0  0  0  0  0  0  0  0
    3.9480   -4.9841   -0.3436 H   0  0  0  0  0  0  0  0  0  0  0  0
    3.8777   -4.2236   -1.9864 H   0  0  0  0  0  0  0  0  0  0  0  0
    4.4674   -5.9184   -1.8081 H   0  0  0  0  0  0  0  0  0  0  0  0
    3.8018   -3.2423   -4.8256 H   0  0  0  0  0  0  0  0  0  0  0  0
    5.6274   -4.6967   -5.4872 H   0  0  0  0  0  0  0  0  0  0  0  0
    5.8887   -7.8388   -5.3345 H   0  0  0  0  0  0  0  0  0  0  0  0
    6.3353   -6.7255   -6.6843 H   0  0  0  0  0  0  0  0  0  0  0  0
    5.1787   -8.0666   -6.9868 H   0  0  0  0  0  0  0  0  0  0  0  0
    2.8554   -7.9497   -6.0516 H   0  0  0  0  0  0  0  0  0  0  0  0
    0.9982   -6.4921   -5.3659 H   0  0  0  0  0  0  0  0  0  0  0  0
   -1.2180   -3.4566   -3.4150 H   0  0  0  0  0  0  0  0  0  0  0  0
   -3.4176   -3.2942   -4.4902 H   0  0  0  0  0  0  0  0  0  0  0  0
   -4.4686   -4.6225   -7.2556 H   0  0  0  0  0  0  0  0  0  0  0  0
   -4.6915   -2.9707   -6.5501 H   0  0  0  0  0  0  0  0  0  0  0  0
   -3.8954   -3.1559   -8.1479 H   0  0  0  0  0  0  0  0  0  0  0  0
   -1.6268   -4.2723   -8.2929 H   0  0  0  0  0  0  0  0  0  0  0  0
    0.5728   -4.4013   -7.2234 H   0  0  0  0  0  0  0  0  0  0  0  0
    0.7017    4.5767   -3.5696 H   0  0  0  0  0  0  0  0  0  0  0  0
   -1.5348    5.4814   -3.1073 H   0  0  0  0  0  0  0  0  0  0  0  0
   -3.9896    4.7190   -3.0598 H   0  0  0  0  0  0  0  0  0  0  0  0
   -3.7546    4.8471   -1.2684 H   0  0  0  0  0  0  0  0  0  0  0  0
   -4.4319    3.3423   -2.0201 H   0  0  0  0  0  0  0  0  0  0  0  0
   -2.7404    1.6743   -1.4871 H   0  0  0  0  0  0  0  0  0  0  0  0
   -0.5076    0.7653   -1.9527 H   0  0  0  0  0  0  0  0  0  0  0  0
    2.6856    2.5882   -0.9157 H   0  0  0  0  0  0  0  0  0  0  0  0
    4.8144    3.7799   -0.5955 H   0  0  0  0  0  0  0  0  0  0  0  0
    6.3089    5.9115   -2.8174 H   0  0  0  0  0  0  0  0  0  0  0  0
    7.2210    4.3950   -3.1896 H   0  0  0  0  0  0  0  0  0  0  0  0
    6.8021    4.7950   -1.4859 H   0  0  0  0  0  0  0  0  0  0  0  0
    5.1638    4.2933   -4.8708 H   0  0  0  0  0  0  0  0  0  0  0  0
    3.0512    3.0689   -5.1836 H   0  0  0  0  0  0  0  0  0  0  0  0
    0.9422    2.4778   -6.7502 H   0  0  0  0  0  0  0  0  0  0  0  0
   -4.4380    0.4635   -4.0519 H   0  0  0  0  0  0  0  0  0  0  0  0
   -4.3742    4.7626   -6.7789 H   0  0  0  0  0  0  0  0  0  0  0  0
   -7.2400    4.4575   -4.8449 H   0  0  0  0  0  0  0  0  0  0  0  0
   -7.7362    3.9281   -7.5251 H   0  0  0  0  0  0  0  0  0  0  0  0
  -10.1173    3.7102   -6.3704 H   0  0  0  0  0  0  0  0  0  0  0  0
  -10.1734    1.4911   -4.9989 H   0  0  0  0  0  0  0  0  0  0  0  0
   -7.8247    0.2802   -5.2829 H   0  0  0  0  0  0  0  0  0  0  0  0
   -6.4985    1.5641   -7.2302 H   0  0  0  0  0  0  0  0  0  0  0  0
   -8.2300    1.3203   -7.6994 H   0  0  0  0  0  0  0  0  0  0  0  0
   -7.3031    2.4247   -3.5801 H   0  0  0  0  0  0  0  0  0  0  0  0
  1  2  2  3
  2  3  1  0
  3  4  2  0
  3  5  1  0
  5  6  2  0
  6  7  1  0
  7  8  2  0
  8  9  1  0
  9 10  2  0
 10 11  1  0
 11 12  2  3
 12 13  1  0
 13 14  3  0
 12 15  1  0
 15 16  3  0
  8 17  1  0
 17 18  1  0
 18 19  1  0
 19 20  2  0
 20 21  1  0
 21 22  1  0
 21 23  1  0
  1 24  1  0
 24 25  2  0
 25 26  1  0
 26 27  1  0
 27 28  2  0
 28 29  1  0
 29 30  2  0
 30 31  1  0
 30 32  1  0
 32 33  2  0
 26 34  1  0
 34 35  2  0
 35 36  1  0
 36 37  2  0
 37 38  1  0
 37 39  1  0
 39 40  2  0
 25 41  1  0
 41 42  1  0
 42 43  1  0
 43 44  2  0
 44 45  1  0
 45 46  1  0
 46 47  2  0
 47 48  1  0
 48 49  2  0
 49 50  1  0
 49 51  1  0
 51 52  2  0
 45 53  1  0
 53 54  2  0
 54 55  1  0
 55 56  2  0
 56 57  1  0
 56 58  1  0
 58 59  2  0
 44 60  1  0
 60 61  1  0
 43 62  1  0
 62 63  2  0
 63 64  1  0
 64 65  1  0
 65 66  1  0
 64 67  2  0
 67 68  1  0
 67 69  1  0
 69 70  2  0
 70 71  1  0
 71 72  1  0
 72 73  2  0
 73 74  1  0
 74 75  2  0
 75 76  1  0
 75 77  1  0
 77 78  2  0
 71 79  1  0
 79 80  2  0
 80 81  1  0
 81 82  2  0
 82 83  1  0
 82 84  1  0
 84 85  2  0
 70 86  1  0
 86 87  1  0
 87 88  1  0
 88 89  2  0
 89 90  1  0
 90 91  1  0
 91 92  2  0
 92 93  1  0
 93 94  2  0
 94 95  1  0
 94 96  1  0
 96 97  2  0
 90 98  1  0
 98 99  2  0
 99100  1  0
100101  2  0
101102  1  0
101103  1  0
103104  2  0
 89105  1  0
105106  1  0
 88107  1  0
107108  2  3
108109  1  0
109110  2  0
109111  1  0
111112  2  0
112113  1  0
113114  2  0
114115  1  0
115116  2  0
116117  1  0
117118  2  3
118119  1  0
119120  3  0
118121  1  0
121122  3  0
114123  1  0
123124  1  0
124125  1  0
125126  2  0
126127  1  0
127128  1  0
127129  1  0
 11  2  1  0
 23 17  1  0
 61 24  1  0
 68 62  1  0
106 69  1  0
117108  1  0
129123  1  0
 10  5  1  0
 22 18  1  0
 33 27  1  0
 40 34  1  0
 60 41  2  0
 78 72  1  0
 85 79  1  0
105 86  2  0
116111  1  0
128124  1  0
 23  7  1  0
 52 46  1  0
 59 53  1  0
 97 91  1  0
104 98  1  0
129113  1  0
  1130  1  0
  6131  1  0
  9132  1  0
 17133  1  0
 18134  1  0
 19135  1  0
 20136  1  0
 21137  1  0
 22138  1  0
 22139  1  0
 23140  1  0
 28141  1  0
 29142  1  0
 31143  1  0
 31144  1  0
 31145  1  0
 32146  1  0
 33147  1  0
 35148  1  0
 36149  1  0
 38150  1  0
 38151  1  0
 38152  1  0
 39153  1  0
 40154  1  0
 47155  1  0
 48156  1  0
 50157  1  0
 50158  1  0
 50159  1  0
 51160  1  0
 52161  1  0
 54162  1  0
 55163  1  0
 57164  1  0
 57165  1  0
 57166  1  0
 58167  1  0
 59168  1  0
 63169  1  0
 65170  1  0
 65171  1  0
 66172  1  0
 66173  1  0
 66174  1  0
 73175  1  0
 74176  1  0
 76177  1  0
 76178  1  0
 76179  1  0
 77180  1  0
 78181  1  0
 80182  1  0
 81183  1  0
 83184  1  0
 83185  1  0
 83186  1  0
 84187  1  0
 85188  1  0
 92189  1  0
 93190  1  0
 95191  1  0
 95192  1  0
 95193  1  0
 96194  1  0
 97195  1  0
 99196  1  0
100197  1  0
102198  1  0
102199  1  0
102200  1  0
103201  1  0
104202  1  0
107203  1  0
112204  1  0
115205  1  0
123206  1  0
124207  1  0
125208  1  0
126209  1  0
127210  1  0
128211  1  0
128212  1  0
129213  1  0
M  END

