
     RDKit          3D

215237  0  0  0  0  0  0  0  0999 V2000
    2.7741   -6.6132    3.8018 C   0  0  0  0  0  0  0  0  0  0  0  0
    2.1574   -6.0127    4.9749 C   0  0  0  0  0  0  0  0  0  0  0  0
    1.6767   -5.5116    5.9607 C   0  0  0  0  0  0  0  0  0  0  0  0
    0.7086   -6.3392    6.6463 O   0  0  0  0  0  0  0  0  0  0  0  0
    1.8870   -4.2510    6.5910 C   0  0  0  0  0  0  0  0  0  0  0  0
    1.3450   -3.5185    7.5968 C   0  0  0  0  0  0  0  0  0  0  0  0
    1.6442   -2.2434    7.8875 C   0  0  0  0  0  0  0  0  0  0  0  0
    2.6031   -1.6197    7.0737 C   0  0  0  0  0  0  0  0  0  0  0  0
    3.1588   -2.3692    6.0550 C   0  0  0  0  0  0  0  0  0  0  0  0
    2.8517   -3.6550    5.7671 C   0  0  0  0  0  0  0  0  0  0  0  0
    3.1880   -4.5948    4.7008 C   0  0  0  0  0  0  0  0  0  0  0  0
    3.9877   -4.4594    3.7639 C   0  0  0  0  0  0  0  0  0  0  0  0
    4.8270   -3.1685    3.6867 C   0  0  0  0  0  0  0  0  0  0  0  0
    5.4235   -2.2497    3.6217 N   0  0  0  0  0  0  0  0  0  0  0  0
    4.3519   -5.2773    2.5606 C   0  0  0  0  0  0  0  0  0  0  0  0
    4.5772   -5.8221    1.7735 N   0  0  0  0  0  0  0  0  0  0  0  0
    2.5208   -0.2796    7.6917 C   0  0  0  0  0  0  0  0  0  0  0  0
    3.6525    0.1842    8.5025 C   0  0  0  0  0  0  0  0  0  0  0  0
    4.3841   -1.0024    9.0500 C   0  0  0  0  0  0  0  0  0  0  0  0
    3.5274   -1.6371    9.8819 C   0  0  0  0  0  0  0  0  0  0  0  0
    2.2505   -0.8504    9.9344 C   0  0  0  0  0  0  0  0  0  0  0  0
    2.8841    0.5764    9.7866 C   0  0  0  0  0  0  0  0  0  0  0  0
    1.5551   -0.9864    8.6285 C   0  0  0  0  0  0  0  0  0  0  0  0
    1.5277   -6.8341    2.9571 C   0  0  0  0  0  0  0  0  0  0  0  0
    0.2470   -7.1212    3.2677 C   0  0  0  0  0  0  0  0  0  0  0  0
   -0.8297   -6.9205    2.4421 C   0  0  0  0  0  0  0  0  0  0  0  0
   -0.5356   -6.3806    1.1708 C   0  0  0  0  0  0  0  0  0  0  0  0
    1.2985   -6.1834    1.1849 Se  0  0  0  0  0  2  0  0  0  0  0  0
   -1.3871   -5.6556    0.1618 C   0  0  0  0  0  0  0  0  0  0  0  0
   -2.3820   -4.7696    0.3432 C   0  0  0  0  0  0  0  0  0  0  0  0
   -3.2869   -4.7269    1.4251 N   0  0  0  0  0  0  0  0  0  0  0  0
   -3.5577   -3.4002    2.0265 C   0  0  0  0  0  0  0  0  0  0  0  0
   -4.8509   -3.0292    2.3041 C   0  0  0  0  0  0  0  0  0  0  0  0
   -5.1102   -1.8480    2.9596 C   0  0  0  0  0  0  0  0  0  0  0  0
   -4.0754   -1.0001    3.3666 C   0  0  0  0  0  0  0  0  0  0  0  0
   -4.4833    0.4697    4.2964 S   0  0  0  0  0  0  0  0  0  0  0  0
   -2.9283    1.3487    4.6394 C   0  0  0  0  0  0  0  0  0  0  0  0
   -2.7809   -1.3902    3.0765 C   0  0  0  0  0  0  0  0  0  0  0  0
   -2.5185   -2.5993    2.4011 C   0  0  0  0  0  0  0  0  0  0  0  0
   -3.9282   -5.7538    2.1272 C   0  0  0  0  0  0  0  0  0  0  0  0
   -3.9526   -5.5669    3.5635 C   0  0  0  0  0  0  0  0  0  0  0  0
   -4.5810   -6.5226    4.2875 C   0  0  0  0  0  0  0  0  0  0  0  0
   -5.1699   -7.6030    3.7896 C   0  0  0  0  0  0  0  0  0  0  0  0
   -6.0598   -8.7483    4.8286 S   0  0  0  0  0  0  0  0  0  0  0  0
   -6.0042   -8.1040    6.5515 C   0  0  0  0  0  0  0  0  0  0  0  0
   -5.1767   -7.8400    2.3899 C   0  0  0  0  0  0  0  0  0  0  0  0
   -4.5119   -6.8192    1.6871 C   0  0  0  0  0  0  0  0  0  0  0  0
   -2.5226   -3.8273   -0.6850 C   0  0  0  0  0  0  0  0  0  0  0  0
   -3.2588   -2.2621   -0.8233 S   0  0  0  0  0  0  0  0  0  0  0  0
   -2.4715   -1.6881   -2.2744 C   0  0  0  0  0  0  0  0  0  0  0  0
   -1.6894   -2.7626   -2.6103 C   0  0  0  0  0  0  0  0  0  0  0  0
   -0.9298   -2.9100   -3.7925 N   0  0  0  0  0  0  0  0  0  0  0  0
   -1.0066   -4.2254   -4.4640 C   0  0  0  0  0  0  0  0  0  0  0  0
    0.2696   -4.6684   -4.9540 C   0  0  0  0  0  0  0  0  0  0  0  0
    0.2957   -5.9570   -5.4889 C   0  0  0  0  0  0  0  0  0  0  0  0
   -0.7528   -6.7709   -5.5715 C   0  0  0  0  0  0  0  0  0  0  0  0
   -0.7770   -8.4301   -6.2230 S   0  0  0  0  0  0  0  0  0  0  0  0
    0.9080   -8.8575   -6.7524 C   0  0  0  0  0  0  0  0  0  0  0  0
   -2.0166   -6.3068   -5.0737 C   0  0  0  0  0  0  0  0  0  0  0  0
   -2.0335   -5.0115   -4.5420 C   0  0  0  0  0  0  0  0  0  0  0  0
    0.0177   -2.0417   -4.3707 C   0  0  0  0  0  0  0  0  0  0  0  0
   -0.0179   -1.8264   -5.7420 C   0  0  0  0  0  0  0  0  0  0  0  0
    1.0064   -1.0874   -6.3256 C   0  0  0  0  0  0  0  0  0  0  0  0
    2.0343   -0.5820   -5.6028 C   0  0  0  0  0  0  0  0  0  0  0  0
    3.3773    0.3240   -6.4111 S   0  0  0  0  0  0  0  0  0  0  0  0
    4.6479    0.7538   -5.1699 C   0  0  0  0  0  0  0  0  0  0  0  0
    2.0669   -0.8016   -4.2149 C   0  0  0  0  0  0  0  0  0  0  0  0
    1.0375   -1.5467   -3.6294 C   0  0  0  0  0  0  0  0  0  0  0  0
   -1.7755   -3.8330   -1.7165 C   0  0  0  0  0  0  0  0  0  0  0  0
   -0.7155   -5.2270   -1.3878 S   0  0  0  0  0  0  0  0  0  0  0  0
   -2.2833   -0.2808   -2.6547 C   0  0  0  0  0  0  0  0  0  0  0  0
   -2.1746    0.5992   -3.6303 C   0  0  0  0  0  0  0  0  0  0  0  0
   -2.8210    0.2886   -4.9144 N   0  0  0  0  0  0  0  0  0  0  0  0
   -2.5628    0.8854   -6.1322 C   0  0  0  0  0  0  0  0  0  0  0  0
   -3.4061    1.2153   -7.0290 C   0  0  0  0  0  0  0  0  0  0  0  0
   -3.3189    1.9431   -8.2135 C   0  0  0  0  0  0  0  0  0  0  0  0
   -1.9274    2.4150   -8.4148 C   0  0  0  0  0  0  0  0  0  0  0  0
   -1.6037    3.4234   -9.8728 S   0  0  0  0  0  0  0  0  0  0  0  0
   -1.4900    5.2041   -9.4602 C   0  0  0  0  0  0  0  0  0  0  0  0
   -1.0744    2.0823   -7.5060 C   0  0  0  0  0  0  0  0  0  0  0  0
   -1.1544    1.3633   -6.3452 C   0  0  0  0  0  0  0  0  0  0  0  0
   -3.9227   -0.6410   -4.8245 C   0  0  0  0  0  0  0  0  0  0  0  0
   -4.7468   -0.4849   -3.7660 C   0  0  0  0  0  0  0  0  0  0  0  0
   -5.9409   -1.2129   -3.5691 C   0  0  0  0  0  0  0  0  0  0  0  0
   -6.2510   -2.1607   -4.5884 C   0  0  0  0  0  0  0  0  0  0  0  0
   -7.7899   -2.9852   -4.3548 S   0  0  0  0  0  0  0  0  0  0  0  0
   -8.2989   -4.0457   -5.6677 C   0  0  0  0  0  0  0  0  0  0  0  0
   -5.4212   -2.2976   -5.6381 C   0  0  0  0  0  0  0  0  0  0  0  0
   -4.2310   -1.5409   -5.8001 C   0  0  0  0  0  0  0  0  0  0  0  0
   -1.7435    1.8881   -3.2992 C   0  0  0  0  0  0  0  0  0  0  0  0
   -1.1484    3.3549   -4.0768 S   0  0  0  0  0  0  0  0  0  0  0  0
   -0.6416    4.2331   -2.7294 C   0  0  0  0  0  0  0  0  0  0  0  0
   -0.9270    3.4337   -1.6602 C   0  0  0  0  0  0  0  0  0  0  0  0
   -1.0789    3.6704   -0.2144 N   0  0  0  0  0  0  0  0  0  0  0  0
   -0.1116    3.2574    0.7144 C   0  0  0  0  0  0  0  0  0  0  0  0
    1.1550    3.6381    0.8581 C   0  0  0  0  0  0  0  0  0  0  0  0
    2.1385    2.9301    1.5084 C   0  0  0  0  0  0  0  0  0  0  0  0
    1.8221    1.7108    2.0753 C   0  0  0  0  0  0  0  0  0  0  0  0
    3.1641    0.6023    2.7264 S   0  0  0  0  0  0  0  0  0  0  0  0
    3.5948   -0.6017    1.3875 C   0  0  0  0  0  0  0  0  0  0  0  0
    0.5480    1.2503    1.9793 C   0  0  0  0  0  0  0  0  0  0  0  0
   -0.4163    1.9820    1.3273 C   0  0  0  0  0  0  0  0  0  0  0  0
   -2.2998    4.3134    0.2174 C   0  0  0  0  0  0  0  0  0  0  0  0
   -2.8246    5.4252   -0.3984 C   0  0  0  0  0  0  0  0  0  0  0  0
   -3.9879    5.9777   -0.0099 C   0  0  0  0  0  0  0  0  0  0  0  0
   -4.7521    5.5322    0.9974 C   0  0  0  0  0  0  0  0  0  0  0  0
   -6.3357    6.2376    1.4855 S   0  0  0  0  0  0  0  0  0  0  0  0
   -7.1162    5.3410    2.8198 C   0  0  0  0  0  0  0  0  0  0  0  0
   -4.2531    4.3849    1.6811 C   0  0  0  0  0  0  0  0  0  0  0  0
   -3.0822    3.8234    1.2892 C   0  0  0  0  0  0  0  0  0  0  0  0
   -1.5017    2.1940   -2.0682 C   0  0  0  0  0  0  0  0  0  0  0  0
   -1.8300    0.7013   -1.2634 S   0  0  0  0  0  0  0  0  0  0  0  0
    0.0171    5.5772   -2.5663 C   0  0  0  0  0  0  0  0  0  0  0  0
    1.3229    5.6694   -2.2220 C   0  0  0  0  0  0  0  0  0  0  0  0
    1.9471    6.9712   -1.9806 C   0  0  0  0  0  0  0  0  0  0  0  0
    1.4474    8.0583   -2.2619 O   0  0  0  0  0  0  0  0  0  0  0  0
    3.2378    6.6217   -1.3731 C   0  0  0  0  0  0  0  0  0  0  0  0
    4.2478    7.4722   -0.8615 C   0  0  0  0  0  0  0  0  0  0  0  0
    5.3497    6.9398   -0.2797 C   0  0  0  0  0  0  0  0  0  0  0  0
    5.5109    5.5719   -0.1686 C   0  0  0  0  0  0  0  0  0  0  0  0
    4.5163    4.7004   -0.6711 C   0  0  0  0  0  0  0  0  0  0  0  0
    3.4062    5.2711   -1.2645 C   0  0  0  0  0  0  0  0  0  0  0  0
    2.1146    4.5802   -1.8398 C   0  0  0  0  0  0  0  0  0  0  0  0
    2.3455    3.3914   -2.2237 C   0  0  0  0  0  0  0  0  0  0  0  0
    3.0728    2.2631   -1.8294 C   0  0  0  0  0  0  0  0  0  0  0  0
    3.7056    1.3127   -1.4989 N   0  0  0  0  0  0  0  0  0  0  0  0
    2.5498    3.4181   -3.8311 C   0  0  0  0  0  0  0  0  0  0  0  0
    2.6761    3.4326   -4.9481 N   0  0  0  0  0  0  0  0  0  0  0  0
    6.7973    5.5291    0.5402 C   0  0  0  0  0  0  0  0  0  0  0  0
    8.0208    5.2300   -0.3039 C   0  0  0  0  0  0  0  0  0  0  0  0
    7.7183    5.6596   -1.7089 C   0  0  0  0  0  0  0  0  0  0  0  0
    7.7304    6.9813   -1.7418 C   0  0  0  0  0  0  0  0  0  0  0  0
    7.8548    7.4788   -0.3438 C   0  0  0  0  0  0  0  0  0  0  0  0
    8.9076    6.4095    0.1321 C   0  0  0  0  0  0  0  0  0  0  0  0
    6.6664    7.0605    0.4321 C   0  0  0  0  0  0  0  0  0  0  0  0
    3.6638   -6.8774    3.6955 H   0  0  0  0  0  0  0  0  0  0  0  0
    0.5827   -4.0730    8.2184 H   0  0  0  0  0  0  0  0  0  0  0  0
    3.8662   -1.8619    5.3981 H   0  0  0  0  0  0  0  0  0  0  0  0
    1.9849    0.5344    7.0999 H   0  0  0  0  0  0  0  0  0  0  0  0
    4.2849    0.9706    8.1558 H   0  0  0  0  0  0  0  0  0  0  0  0
    5.4176   -1.2430    8.7525 H   0  0  0  0  0  0  0  0  0  0  0  0
    3.7988   -2.5464   10.3958 H   0  0  0  0  0  0  0  0  0  0  0  0
    1.7102   -0.9435   10.8416 H   0  0  0  0  0  0  0  0  0  0  0  0
    3.5533    0.8162   10.5999 H   0  0  0  0  0  0  0  0  0  0  0  0
    2.0580    1.3037    9.5827 H   0  0  0  0  0  0  0  0  0  0  0  0
    0.5343   -0.5221    8.6245 H   0  0  0  0  0  0  0  0  0  0  0  0
    0.1003   -7.5333    4.2903 H   0  0  0  0  0  0  0  0  0  0  0  0
   -1.8117   -7.1834    2.7284 H   0  0  0  0  0  0  0  0  0  0  0  0
   -5.6542   -3.6490    2.0010 H   0  0  0  0  0  0  0  0  0  0  0  0
   -6.1079   -1.5261    3.1770 H   0  0  0  0  0  0  0  0  0  0  0  0
   -2.5235    1.8207    3.7739 H   0  0  0  0  0  0  0  0  0  0  0  0
   -2.2639    0.6965    5.2236 H   0  0  0  0  0  0  0  0  0  0  0  0
   -3.1977    2.2407    5.3311 H   0  0  0  0  0  0  0  0  0  0  0  0
   -2.0029   -0.7077    3.3805 H   0  0  0  0  0  0  0  0  0  0  0  0
   -1.4788   -2.8032    2.2075 H   0  0  0  0  0  0  0  0  0  0  0  0
   -3.4916   -4.7111    3.9912 H   0  0  0  0  0  0  0  0  0  0  0  0
   -4.5957   -6.3790    5.3749 H   0  0  0  0  0  0  0  0  0  0  0  0
   -4.9646   -8.0812    6.8938 H   0  0  0  0  0  0  0  0  0  0  0  0
   -6.6245   -8.6758    7.2307 H   0  0  0  0  0  0  0  0  0  0  0  0
   -6.3658   -7.0454    6.6117 H   0  0  0  0  0  0  0  0  0  0  0  0
   -5.6423   -8.6765    1.9893 H   0  0  0  0  0  0  0  0  0  0  0  0
   -4.5354   -6.9940    0.5471 H   0  0  0  0  0  0  0  0  0  0  0  0
    1.1401   -4.0448   -4.9472 H   0  0  0  0  0  0  0  0  0  0  0  0
    1.2778   -6.3365   -5.8351 H   0  0  0  0  0  0  0  0  0  0  0  0
    0.9617   -9.3149   -7.7381 H   0  0  0  0  0  0  0  0  0  0  0  0
    1.5306   -7.9106   -6.8333 H   0  0  0  0  0  0  0  0  0  0  0  0
    1.4374   -9.5152   -6.0187 H   0  0  0  0  0  0  0  0  0  0  0  0
   -2.8676   -6.8597   -5.0657 H   0  0  0  0  0  0  0  0  0  0  0  0
   -3.0144   -4.6710   -4.1633 H   0  0  0  0  0  0  0  0  0  0  0  0
   -0.8134   -2.2362   -6.3370 H   0  0  0  0  0  0  0  0  0  0  0  0
    0.9546   -0.8870   -7.3802 H   0  0  0  0  0  0  0  0  0  0  0  0
    5.3278   -0.0896   -5.0456 H   0  0  0  0  0  0  0  0  0  0  0  0
    5.1922    1.6447   -5.5996 H   0  0  0  0  0  0  0  0  0  0  0  0
    4.1857    1.0300   -4.2135 H   0  0  0  0  0  0  0  0  0  0  0  0
    2.8972   -0.4091   -3.6590 H   0  0  0  0  0  0  0  0  0  0  0  0
    1.0656   -1.6996   -2.5781 H   0  0  0  0  0  0  0  0  0  0  0  0
   -4.5115    0.8758   -6.9128 H   0  0  0  0  0  0  0  0  0  0  0  0
   -4.0539    2.1605   -8.9063 H   0  0  0  0  0  0  0  0  0  0  0  0
   -1.1819    5.7754  -10.3877 H   0  0  0  0  0  0  0  0  0  0  0  0
   -2.3808    5.6150   -9.0513 H   0  0  0  0  0  0  0  0  0  0  0  0
   -0.6347    5.3176   -8.7463 H   0  0  0  0  0  0  0  0  0  0  0  0
   -0.0058    2.4580   -7.6721 H   0  0  0  0  0  0  0  0  0  0  0  0
   -0.5015    1.0981   -5.6291 H   0  0  0  0  0  0  0  0  0  0  0  0
   -4.4985    0.2568   -2.9977 H   0  0  0  0  0  0  0  0  0  0  0  0
   -6.5774   -1.1083   -2.7753 H   0  0  0  0  0  0  0  0  0  0  0  0
   -7.9242   -3.8455   -6.6747 H   0  0  0  0  0  0  0  0  0  0  0  0
   -9.4405   -3.9863   -5.7309 H   0  0  0  0  0  0  0  0  0  0  0  0
   -8.1116   -5.1102   -5.3776 H   0  0  0  0  0  0  0  0  0  0  0  0
   -5.6458   -2.9840   -6.4203 H   0  0  0  0  0  0  0  0  0  0  0  0
   -3.5931   -1.6534   -6.6678 H   0  0  0  0  0  0  0  0  0  0  0  0
    1.3526    4.6658    0.5176 H   0  0  0  0  0  0  0  0  0  0  0  0
    3.1187    3.2951    1.5522 H   0  0  0  0  0  0  0  0  0  0  0  0
    4.6845   -0.4761    1.0644 H   0  0  0  0  0  0  0  0  0  0  0  0
    2.9652   -0.4116    0.4908 H   0  0  0  0  0  0  0  0  0  0  0  0
    3.4253   -1.6004    1.7460 H   0  0  0  0  0  0  0  0  0  0  0  0
    0.2964    0.2666    2.4227 H   0  0  0  0  0  0  0  0  0  0  0  0
   -1.3846    1.5274    1.3064 H   0  0  0  0  0  0  0  0  0  0  0  0
   -2.2614    5.8535   -1.2220 H   0  0  0  0  0  0  0  0  0  0  0  0
   -4.3752    6.8681   -0.5268 H   0  0  0  0  0  0  0  0  0  0  0  0
   -6.8472    5.6447    3.8208 H   0  0  0  0  0  0  0  0  0  0  0  0
   -8.2369    5.4334    2.6865 H   0  0  0  0  0  0  0  0  0  0  0  0
   -6.8936    4.2498    2.7719 H   0  0  0  0  0  0  0  0  0  0  0  0
   -4.8144    3.9677    2.4612 H   0  0  0  0  0  0  0  0  0  0  0  0
   -2.6709    2.9992    1.8500 H   0  0  0  0  0  0  0  0  0  0  0  0
   -0.5649    6.4775   -2.7982 H   0  0  0  0  0  0  0  0  0  0  0  0
    4.1085    8.5149   -0.9351 H   0  0  0  0  0  0  0  0  0  0  0  0
    4.6007    3.6290   -0.5787 H   0  0  0  0  0  0  0  0  0  0  0  0
    6.8382    5.1775    1.5597 H   0  0  0  0  0  0  0  0  0  0  0  0
    8.5016    4.2962   -0.1848 H   0  0  0  0  0  0  0  0  0  0  0  0
    7.5123    4.9697   -2.5206 H   0  0  0  0  0  0  0  0  0  0  0  0
    7.6582    7.6394   -2.5810 H   0  0  0  0  0  0  0  0  0  0  0  0
    8.1968    8.4767   -0.2457 H   0  0  0  0  0  0  0  0  0  0  0  0
    9.0292    6.4534    1.2360 H   0  0  0  0  0  0  0  0  0  0  0  0
    9.8499    6.4774   -0.4359 H   0  0  0  0  0  0  0  0  0  0  0  0
    6.5669    7.5518    1.4174 H   0  0  0  0  0  0  0  0  0  0  0  0
  1  2  2  3
  2  3  1  0
  3  4  2  0
  3  5  1  0
  5  6  2  0
  6  7  1  0
  7  8  2  0
  8  9  1  0
  9 10  2  0
 10 11  1  0
 11 12  2  3
 12 13  1  0
 13 14  3  0
 12 15  1  0
 15 16  3  0
  8 17  1  0
 17 18  1  0
 18 19  1  0
 19 20  2  0
 20 21  1  0
 21 22  1  0
 21 23  1  0
  1 24  1  0
 24 25  2  0
 25 26  1  0
 26 27  2  0
 27 28  1  0
 27 29  1  0
 29 30  2  0
 30 31  1  0
 31 32  1  0
 32 33  2  0
 33 34  1  0
 34 35  2  0
 35 36  1  0
 36 37  1  0
 35 38  1  0
 38 39  2  0
 31 40  1  0
 40 41  2  0
 41 42  1  0
 42 43  2  0
 43 44  1  0
 44 45  1  0
 43 46  1  0
 46 47  2  0
 30 48  1  0
 48 49  1  0
 49 50  1  0
 50 51  2  0
 51 52  1  0
 52 53  1  0
 53 54  2  0
 54 55  1  0
 55 56  2  0
 56 57  1  0
 57 58  1  0
 56 59  1  0
 59 60  2  0
 52 61  1  0
 61 62  2  0
 62 63  1  0
 63 64  2  0
 64 65  1  0
 65 66  1  0
 64 67  1  0
 67 68  2  0
 51 69  1  0
 69 70  1  0
 50 71  1  0
 71 72  2  0
 72 73  1  0
 73 74  1  0
 74 75  2  0
 75 76  1  0
 76 77  2  0
 77 78  1  0
 78 79  1  0
 77 80  1  0
 80 81  2  0
 73 82  1  0
 82 83  2  0
 83 84  1  0
 84 85  2  0
 85 86  1  0
 86 87  1  0
 85 88  1  0
 88 89  2  0
 72 90  1  0
 90 91  1  0
 91 92  1  0
 92 93  2  0
 93 94  1  0
 94 95  1  0
 95 96  2  0
 96 97  1  0
 97 98  2  0
 98 99  1  0
 99100  1  0
 98101  1  0
101102  2  0
 94103  1  0
103104  2  0
104105  1  0
105106  2  0
106107  1  0
107108  1  0
106109  1  0
109110  2  0
 93111  1  0
111112  1  0
 92113  1  0
113114  2  3
114115  1  0
115116  2  0
115117  1  0
117118  2  0
118119  1  0
119120  2  0
120121  1  0
121122  2  0
122123  1  0
123124  2  3
124125  1  0
125126  3  0
124127  1  0
127128  3  0
120129  1  0
129130  1  0
130131  1  0
131132  2  0
132133  1  0
133134  1  0
133135  1  0
 11  2  1  0
 23 17  1  0
 28 24  1  0
 70 29  1  0
112 71  1  0
123114  1  0
135129  1  0
 10  5  1  0
 22 18  1  0
 39 32  1  0
 47 40  1  0
 69 48  2  0
 81 74  1  0
 89 82  1  0
111 90  2  0
122117  1  0
134130  1  0
 23  7  1  0
 60 53  1  0
 68 61  1  0
102 95  1  0
110103  1  0
135119  1  0
  1136  1  0
  6137  1  0
  9138  1  0
 17139  1  0
 18140  1  0
 19141  1  0
 20142  1  0
 21143  1  0
 22144  1  0
 22145  1  0
 23146  1  0
 25147  1  0
 26148  1  0
 33149  1  0
 34150  1  0
 37151  1  0
 37152  1  0
 37153  1  0
 38154  1  0
 39155  1  0
 41156  1  0
 42157  1  0
 45158  1  0
 45159  1  0
 45160  1  0
 46161  1  0
 47162  1  0
 54163  1  0
 55164  1  0
 58165  1  0
 58166  1  0
 58167  1  0
 59168  1  0
 60169  1  0
 62170  1  0
 63171  1  0
 66172  1  0
 66173  1  0
 66174  1  0
 67175  1  0
 68176  1  0
 75177  1  0
 76178  1  0
 79179  1  0
 79180  1  0
 79181  1  0
 80182  1  0
 81183  1  0
 83184  1  0
 84185  1  0
 87186  1  0
 87187  1  0
 87188  1  0
 88189  1  0
 89190  1  0
 96191  1  0
 97192  1  0
100193  1  0
100194  1  0
100195  1  0
101196  1  0
102197  1  0
104198  1  0
105199  1  0
108200  1  0
108201  1  0
108202  1  0
109203  1  0
110204  1  0
113205  1  0
118206  1  0
121207  1  0
129208  1  0
130209  1  0
131210  1  0
132211  1  0
133212  1  0
134213  1  0
134214  1  0
135215  1  0
M  END

