
     RDKit          3D

178196  0  0  0  0  0  0  0  0999 V2000
   -1.6942   -5.9709    3.2185 C   0  0  0  0  0  0  0  0  0  0  0  0
   -2.4873   -5.5142    4.2090 C   0  0  0  0  0  0  0  0  0  0  0  0
   -3.8754   -5.0721    4.0108 C   0  0  0  0  0  0  0  0  0  0  0  0
   -4.5578   -5.2077    2.9615 O   0  0  0  0  0  0  0  0  0  0  0  0
   -4.3696   -4.5049    5.2337 C   0  0  0  0  0  0  0  0  0  0  0  0
   -5.6294   -3.8942    5.4270 C   0  0  0  0  0  0  0  0  0  0  0  0
   -5.7955   -3.3408    6.6767 C   0  0  0  0  0  0  0  0  0  0  0  0
   -4.7767   -3.3548    7.6803 C   0  0  0  0  0  0  0  0  0  0  0  0
   -3.5418   -3.9564    7.4992 C   0  0  0  0  0  0  0  0  0  0  0  0
   -3.3600   -4.5813    6.2282 C   0  0  0  0  0  0  0  0  0  0  0  0
   -2.1657   -5.2902    5.6624 C   0  0  0  0  0  0  0  0  0  0  0  0
   -1.0377   -5.6483    6.3407 C   0  0  0  0  0  0  0  0  0  0  0  0
   -0.8918   -5.4619    7.7623 C   0  0  0  0  0  0  0  0  0  0  0  0
   -0.7507   -5.3234    8.9035 N   0  0  0  0  0  0  0  0  0  0  0  0
    0.0898   -6.2859    5.7192 C   0  0  0  0  0  0  0  0  0  0  0  0
    1.0068   -6.8040    5.2401 N   0  0  0  0  0  0  0  0  0  0  0  0
   -5.6441   -2.5382    8.5924 C   0  0  0  0  0  0  0  0  0  0  0  0
   -5.2855   -1.0276    8.7282 C   0  0  0  0  0  0  0  0  0  0  0  0
   -6.4941   -0.3674    9.3489 C   0  0  0  0  0  0  0  0  0  0  0  0
   -7.4559   -0.3787    8.4188 C   0  0  0  0  0  0  0  0  0  0  0  0
   -6.8588   -1.0400    7.1993 C   0  0  0  0  0  0  0  0  0  0  0  0
   -5.4422   -0.5027    7.3101 C   0  0  0  0  0  0  0  0  0  0  0  0
   -6.6972   -2.5451    7.5677 C   0  0  0  0  0  0  0  0  0  0  0  0
   -1.9892   -5.6798    1.8099 C   0  0  0  0  0  0  0  0  0  0  0  0
   -2.0047   -6.5763    0.7516 C   0  0  0  0  0  0  0  0  0  0  0  0
   -2.2392   -5.9568   -0.4935 C   0  0  0  0  0  0  0  0  0  0  0  0
   -2.3584   -6.6585   -1.6951 O   0  0  0  0  0  0  0  0  0  0  0  0
   -3.2969   -7.7067   -1.9258 C   0  0  0  0  0  0  0  0  0  0  0  0
   -2.8984   -9.0102   -1.2364 C   0  0  0  0  0  0  0  0  0  0  0  0
   -2.3321   -4.5606   -0.4201 C   0  0  0  0  0  0  0  0  0  0  0  0
   -2.1719   -4.1346    1.1979 S   0  0  0  0  0  0  0  0  0  0  0  0
   -2.3921   -3.5514   -1.5132 C   0  0  0  0  0  0  0  0  0  0  0  0
   -1.6438   -3.7108   -2.6987 C   0  0  0  0  0  0  0  0  0  0  0  0
   -1.0496   -4.8913   -3.0027 F   0  0  0  0  0  0  0  0  0  0  0  0
   -1.3395   -2.6038   -3.5011 C   0  0  0  0  0  0  0  0  0  0  0  0
   -0.5317   -2.7789   -4.5778 F   0  0  0  0  0  0  0  0  0  0  0  0
   -1.7193   -1.3100   -3.1016 C   0  0  0  0  0  0  0  0  0  0  0  0
   -2.6500   -1.1798   -2.0536 C   0  0  0  0  0  0  0  0  0  0  0  0
   -3.1550    0.0349   -1.7133 N   0  0  0  0  0  0  0  0  0  0  0  0
   -4.0029    0.2093   -0.6642 C   0  0  0  0  0  0  0  0  0  0  0  0
   -4.4538    1.6130   -0.3374 C   0  0  0  0  0  0  0  0  0  0  0  0
   -3.4258    2.2834    0.5571 C   0  0  0  0  0  0  0  0  0  0  0  0
   -4.3371   -0.9090    0.1304 C   0  0  0  0  0  0  0  0  0  0  0  0
   -3.8283   -2.1192   -0.2090 N   0  0  0  0  0  0  0  0  0  0  0  0
   -2.9934   -2.2974   -1.2683 C   0  0  0  0  0  0  0  0  0  0  0  0
   -5.2446   -0.8225    1.3317 C   0  0  0  0  0  0  0  0  0  0  0  0
   -6.7091   -0.9308    0.9228 C   0  0  0  0  0  0  0  0  0  0  0  0
   -0.8976   -0.1383   -3.5196 C   0  0  0  0  0  0  0  0  0  0  0  0
    0.5026   -0.0847   -3.3715 C   0  0  0  0  0  0  0  0  0  0  0  0
    1.3729   -1.2112   -3.1487 N   0  0  0  0  0  0  0  0  0  0  0  0
    1.3107   -1.9866   -1.9295 C   0  0  0  0  0  0  0  0  0  0  0  0
    0.9795   -1.3872   -0.7031 C   0  0  0  0  0  0  0  0  0  0  0  0
    0.9958   -2.1378    0.4769 C   0  0  0  0  0  0  0  0  0  0  0  0
    1.3346   -3.4962    0.4406 C   0  0  0  0  0  0  0  0  0  0  0  0
    1.4073   -4.4582    1.9542 S   0  0  0  0  0  0  0  0  0  0  0  0
    3.1856   -4.1699    2.2017 C   0  0  0  0  0  0  0  0  0  0  0  0
    1.6216   -4.1103   -0.7819 C   0  0  0  0  0  0  0  0  0  0  0  0
    1.6169   -3.3605   -1.9574 C   0  0  0  0  0  0  0  0  0  0  0  0
    2.4467   -1.4198   -4.0902 C   0  0  0  0  0  0  0  0  0  0  0  0
    3.7636   -1.6236   -3.6405 C   0  0  0  0  0  0  0  0  0  0  0  0
    4.8064   -1.7722   -4.5619 C   0  0  0  0  0  0  0  0  0  0  0  0
    4.5434   -1.7297   -5.9366 C   0  0  0  0  0  0  0  0  0  0  0  0
    5.8847   -1.9118   -7.1126 S   0  0  0  0  0  0  0  0  0  0  0  0
    6.2073   -0.1231   -7.2036 C   0  0  0  0  0  0  0  0  0  0  0  0
    3.2348   -1.5320   -6.3859 C   0  0  0  0  0  0  0  0  0  0  0  0
    2.1950   -1.3702   -5.4710 C   0  0  0  0  0  0  0  0  0  0  0  0
    0.9765    1.2186   -3.3627 C   0  0  0  0  0  0  0  0  0  0  0  0
    2.4237    1.8643   -2.8525 S   0  0  0  0  0  0  0  0  0  0  0  0
    1.8395    3.4638   -2.7743 C   0  0  0  0  0  0  0  0  0  0  0  0
    0.5171    3.4882   -3.2374 C   0  0  0  0  0  0  0  0  0  0  0  0
   -0.2607    4.6843   -3.4048 N   0  0  0  0  0  0  0  0  0  0  0  0
   -0.6368    5.4564   -2.2543 C   0  0  0  0  0  0  0  0  0  0  0  0
   -1.5403    4.9277   -1.3263 C   0  0  0  0  0  0  0  0  0  0  0  0
   -1.8951    5.6653   -0.1958 C   0  0  0  0  0  0  0  0  0  0  0  0
   -1.3420    6.9318    0.0198 C   0  0  0  0  0  0  0  0  0  0  0  0
   -1.7961    7.8582    1.4860 S   0  0  0  0  0  0  0  0  0  0  0  0
   -0.4955    7.0976    2.5050 C   0  0  0  0  0  0  0  0  0  0  0  0
   -0.4463    7.4697   -0.9107 C   0  0  0  0  0  0  0  0  0  0  0  0
   -0.0966    6.7374   -2.0485 C   0  0  0  0  0  0  0  0  0  0  0  0
   -0.5511    5.1620   -4.7311 C   0  0  0  0  0  0  0  0  0  0  0  0
   -1.7947    5.7498   -5.0235 C   0  0  0  0  0  0  0  0  0  0  0  0
   -2.0890    6.1670   -6.3243 C   0  0  0  0  0  0  0  0  0  0  0  0
   -1.1425    6.0099   -7.3453 C   0  0  0  0  0  0  0  0  0  0  0  0
   -1.5461    6.4795   -9.0269 S   0  0  0  0  0  0  0  0  0  0  0  0
   -2.0704    4.7948   -9.4848 C   0  0  0  0  0  0  0  0  0  0  0  0
    0.1103    5.4584   -7.0526 C   0  0  0  0  0  0  0  0  0  0  0  0
    0.4002    5.0247   -5.7576 C   0  0  0  0  0  0  0  0  0  0  0  0
    0.0542    2.1979   -3.5203 C   0  0  0  0  0  0  0  0  0  0  0  0
   -1.4619    1.4851   -3.6651 S   0  0  0  0  0  0  0  0  0  0  0  0
    2.6657    4.6198   -2.3783 C   0  0  0  0  0  0  0  0  0  0  0  0
    3.6187    4.5154   -1.4335 C   0  0  0  0  0  0  0  0  0  0  0  0
    3.7384    3.3733   -0.5203 C   0  0  0  0  0  0  0  0  0  0  0  0
    2.7859    2.8091    0.0829 O   0  0  0  0  0  0  0  0  0  0  0  0
    5.1217    2.9499   -0.4850 C   0  0  0  0  0  0  0  0  0  0  0  0
    5.6001    1.6761   -0.0979 C   0  0  0  0  0  0  0  0  0  0  0  0
    6.8858    1.4121   -0.5279 C   0  0  0  0  0  0  0  0  0  0  0  0
    7.6730    2.3457   -1.2786 C   0  0  0  0  0  0  0  0  0  0  0  0
    7.2132    3.6060   -1.6414 C   0  0  0  0  0  0  0  0  0  0  0  0
    5.8897    3.8944   -1.2109 C   0  0  0  0  0  0  0  0  0  0  0  0
    4.9988    5.0062   -1.6437 C   0  0  0  0  0  0  0  0  0  0  0  0
    5.3600    6.2605   -1.9865 C   0  0  0  0  0  0  0  0  0  0  0  0
    4.3728    7.2908   -2.1890 C   0  0  0  0  0  0  0  0  0  0  0  0
    3.5812    8.1210   -2.3477 N   0  0  0  0  0  0  0  0  0  0  0  0
    6.7412    6.6660   -2.0411 C   0  0  0  0  0  0  0  0  0  0  0  0
    7.8523    6.9984   -2.0878 N   0  0  0  0  0  0  0  0  0  0  0  0
    8.7766    1.3321   -1.4065 C   0  0  0  0  0  0  0  0  0  0  0  0
   10.0530    1.5212   -0.5399 C   0  0  0  0  0  0  0  0  0  0  0  0
    9.6957    2.2202    0.7518 C   0  0  0  0  0  0  0  0  0  0  0  0
    8.9633    1.3653    1.4612 C   0  0  0  0  0  0  0  0  0  0  0  0
    8.8425    0.1091    0.6306 C   0  0  0  0  0  0  0  0  0  0  0  0
   10.2167    0.1085   -0.0098 C   0  0  0  0  0  0  0  0  0  0  0  0
    7.9705    0.3808   -0.6303 C   0  0  0  0  0  0  0  0  0  0  0  0
   -0.7330   -6.4083    3.4066 H   0  0  0  0  0  0  0  0  0  0  0  0
   -6.3763   -3.8213    4.6483 H   0  0  0  0  0  0  0  0  0  0  0  0
   -2.8001   -3.9007    8.2737 H   0  0  0  0  0  0  0  0  0  0  0  0
   -5.9129   -3.0592    9.5416 H   0  0  0  0  0  0  0  0  0  0  0  0
   -4.3152   -0.8030    9.2196 H   0  0  0  0  0  0  0  0  0  0  0  0
   -6.5511    0.1242   10.3117 H   0  0  0  0  0  0  0  0  0  0  0  0
   -8.4199    0.1067    8.4957 H   0  0  0  0  0  0  0  0  0  0  0  0
   -7.3870   -0.8360    6.2414 H   0  0  0  0  0  0  0  0  0  0  0  0
   -5.3847    0.6094    7.2367 H   0  0  0  0  0  0  0  0  0  0  0  0
   -4.7301   -0.9400    6.5747 H   0  0  0  0  0  0  0  0  0  0  0  0
   -7.6290   -3.0805    7.8620 H   0  0  0  0  0  0  0  0  0  0  0  0
   -1.8083   -7.6308    0.8799 H   0  0  0  0  0  0  0  0  0  0  0  0
   -4.3140   -7.3828   -1.6064 H   0  0  0  0  0  0  0  0  0  0  0  0
   -3.3345   -7.8891   -3.0229 H   0  0  0  0  0  0  0  0  0  0  0  0
   -3.2658   -9.0151   -0.1880 H   0  0  0  0  0  0  0  0  0  0  0  0
   -3.3801   -9.8643   -1.7592 H   0  0  0  0  0  0  0  0  0  0  0  0
   -1.7961   -9.1411   -1.2593 H   0  0  0  0  0  0  0  0  0  0  0  0
   -4.5535    2.1848   -1.2832 H   0  0  0  0  0  0  0  0  0  0  0  0
   -5.4386    1.6268    0.1607 H   0  0  0  0  0  0  0  0  0  0  0  0
   -3.7376    3.3267    0.7478 H   0  0  0  0  0  0  0  0  0  0  0  0
   -2.4235    2.2797    0.0754 H   0  0  0  0  0  0  0  0  0  0  0  0
   -3.3449    1.7552    1.5322 H   0  0  0  0  0  0  0  0  0  0  0  0
   -5.0058   -1.6459    2.0373 H   0  0  0  0  0  0  0  0  0  0  0  0
   -5.0724    0.1224    1.8899 H   0  0  0  0  0  0  0  0  0  0  0  0
   -7.3548   -0.7196    1.8013 H   0  0  0  0  0  0  0  0  0  0  0  0
   -6.9489   -0.2018    0.1224 H   0  0  0  0  0  0  0  0  0  0  0  0
   -6.9251   -1.9554    0.5517 H   0  0  0  0  0  0  0  0  0  0  0  0
    0.7443   -0.3316   -0.6484 H   0  0  0  0  0  0  0  0  0  0  0  0
    0.7665   -1.6639    1.4203 H   0  0  0  0  0  0  0  0  0  0  0  0
    3.3679   -3.0952    2.4170 H   0  0  0  0  0  0  0  0  0  0  0  0
    3.7537   -4.4672    1.2951 H   0  0  0  0  0  0  0  0  0  0  0  0
    3.5359   -4.7790    3.0611 H   0  0  0  0  0  0  0  0  0  0  0  0
    1.8754   -5.1631   -0.8216 H   0  0  0  0  0  0  0  0  0  0  0  0
    1.8530   -3.8445   -2.8964 H   0  0  0  0  0  0  0  0  0  0  0  0
    3.9874   -1.6384   -2.5792 H   0  0  0  0  0  0  0  0  0  0  0  0
    5.8200   -1.9189   -4.2069 H   0  0  0  0  0  0  0  0  0  0  0  0
    6.4019    0.2841   -6.1889 H   0  0  0  0  0  0  0  0  0  0  0  0
    7.1028    0.0514   -7.8348 H   0  0  0  0  0  0  0  0  0  0  0  0
    5.3373    0.3970   -7.6571 H   0  0  0  0  0  0  0  0  0  0  0  0
    3.0267   -1.4945   -7.4472 H   0  0  0  0  0  0  0  0  0  0  0  0
    1.1870   -1.2045   -5.8387 H   0  0  0  0  0  0  0  0  0  0  0  0
   -1.9864    3.9600   -1.5022 H   0  0  0  0  0  0  0  0  0  0  0  0
   -2.5850    5.2560    0.5229 H   0  0  0  0  0  0  0  0  0  0  0  0
   -0.5791    5.9905    2.4842 H   0  0  0  0  0  0  0  0  0  0  0  0
   -0.6034    7.4397    3.5542 H   0  0  0  0  0  0  0  0  0  0  0  0
    0.5008    7.4053    2.1269 H   0  0  0  0  0  0  0  0  0  0  0  0
   -0.0203    8.4513   -0.7548 H   0  0  0  0  0  0  0  0  0  0  0  0
    0.5994    7.1565   -2.7654 H   0  0  0  0  0  0  0  0  0  0  0  0
   -2.5430    5.8629   -4.2493 H   0  0  0  0  0  0  0  0  0  0  0  0
   -3.0563    6.5954   -6.5417 H   0  0  0  0  0  0  0  0  0  0  0  0
   -2.4514    4.8005  -10.5249 H   0  0  0  0  0  0  0  0  0  0  0  0
   -2.8777    4.4464   -8.8049 H   0  0  0  0  0  0  0  0  0  0  0  0
   -1.2013    4.1052   -9.4201 H   0  0  0  0  0  0  0  0  0  0  0  0
    0.8508    5.3405   -7.8344 H   0  0  0  0  0  0  0  0  0  0  0  0
    1.3713    4.5891   -5.5582 H   0  0  0  0  0  0  0  0  0  0  0  0
    2.6722    5.4624   -3.0553 H   0  0  0  0  0  0  0  0  0  0  0  0
    4.9860    0.9310    0.3932 H   0  0  0  0  0  0  0  0  0  0  0  0
    7.7850    4.2442   -2.2931 H   0  0  0  0  0  0  0  0  0  0  0  0
    8.9588    1.0050   -2.4539 H   0  0  0  0  0  0  0  0  0  0  0  0
   10.9315    1.9415   -1.0753 H   0  0  0  0  0  0  0  0  0  0  0  0
   10.0337    3.1933    1.0859 H   0  0  0  0  0  0  0  0  0  0  0  0
    8.5942    1.5273    2.4675 H   0  0  0  0  0  0  0  0  0  0  0  0
    8.5781   -0.8061    1.1960 H   0  0  0  0  0  0  0  0  0  0  0  0
   10.3276   -0.6589   -0.8094 H   0  0  0  0  0  0  0  0  0  0  0  0
   11.0502    0.0110    0.7250 H   0  0  0  0  0  0  0  0  0  0  0  0
    7.6766   -0.5260   -1.2083 H   0  0  0  0  0  0  0  0  0  0  0  0
  1  2  2  3
  2  3  1  0
  3  4  2  0
  3  5  1  0
  5  6  2  0
  6  7  1  0
  7  8  2  0
  8  9  1  0
  9 10  2  0
 10 11  1  0
 11 12  2  3
 12 13  1  0
 13 14  3  0
 12 15  1  0
 15 16  3  0
  8 17  1  0
 17 18  1  0
 18 19  1  0
 19 20  2  0
 20 21  1  0
 21 22  1  0
 21 23  1  0
  1 24  1  0
 24 25  2  0
 25 26  1  0
 26 27  1  0
 27 28  1  0
 28 29  1  0
 26 30  2  0
 30 31  1  0
 30 32  1  0
 32 33  2  0
 33 34  1  0
 33 35  1  0
 35 36  1  0
 35 37  2  0
 37 38  1  0
 38 39  2  0
 39 40  1  0
 40 41  1  0
 41 42  1  0
 40 43  2  0
 43 44  1  0
 44 45  2  0
 43 46  1  0
 46 47  1  0
 37 48  1  0
 48 49  2  0
 49 50  1  0
 50 51  1  0
 51 52  2  0
 52 53  1  0
 53 54  2  0
 54 55  1  0
 55 56  1  0
 54 57  1  0
 57 58  2  0
 50 59  1  0
 59 60  2  0
 60 61  1  0
 61 62  2  0
 62 63  1  0
 63 64  1  0
 62 65  1  0
 65 66  2  0
 49 67  1  0
 67 68  1  0
 68 69  1  0
 69 70  2  0
 70 71  1  0
 71 72  1  0
 72 73  2  0
 73 74  1  0
 74 75  2  0
 75 76  1  0
 76 77  1  0
 75 78  1  0
 78 79  2  0
 71 80  1  0
 80 81  2  0
 81 82  1  0
 82 83  2  0
 83 84  1  0
 84 85  1  0
 83 86  1  0
 86 87  2  0
 70 88  1  0
 88 89  1  0
 69 90  1  0
 90 91  2  3
 91 92  1  0
 92 93  2  0
 92 94  1  0
 94 95  2  0
 95 96  1  0
 96 97  2  0
 97 98  1  0
 98 99  2  0
 99100  1  0
100101  2  3
101102  1  0
102103  3  0
101104  1  0
104105  3  0
 97106  1  0
106107  1  0
107108  1  0
108109  2  0
109110  1  0
110111  1  0
110112  1  0
 11  2  1  0
 23 17  1  0
 31 24  1  0
 45 32  1  0
 89 48  1  0
100 91  1  0
112106  1  0
 10  5  1  0
 22 18  1  0
 45 38  1  0
 58 51  1  0
 66 59  1  0
 88 67  2  0
 99 94  1  0
111107  1  0
 23  7  1  0
 79 72  1  0
 87 80  1  0
112 96  1  0
  1113  1  0
  6114  1  0
  9115  1  0
 17116  1  0
 18117  1  0
 19118  1  0
 20119  1  0
 21120  1  0
 22121  1  0
 22122  1  0
 23123  1  0
 25124  1  0
 28125  1  0
 28126  1  0
 29127  1  0
 29128  1  0
 29129  1  0
 41130  1  0
 41131  1  0
 42132  1  0
 42133  1  0
 42134  1  0
 46135  1  0
 46136  1  0
 47137  1  0
 47138  1  0
 47139  1  0
 52140  1  0
 53141  1  0
 56142  1  0
 56143  1  0
 56144  1  0
 57145  1  0
 58146  1  0
 60147  1  0
 61148  1  0
 64149  1  0
 64150  1  0
 64151  1  0
 65152  1  0
 66153  1  0
 73154  1  0
 74155  1  0
 77156  1  0
 77157  1  0
 77158  1  0
 78159  1  0
 79160  1  0
 81161  1  0
 82162  1  0
 85163  1  0
 85164  1  0
 85165  1  0
 86166  1  0
 87167  1  0
 90168  1  0
 95169  1  0
 98170  1  0
106171  1  0
107172  1  0
108173  1  0
109174  1  0
110175  1  0
111176  1  0
111177  1  0
112178  1  0
M  END

