
     RDKit          3D

170188  0  0  0  0  0  0  0  0999 V2000
   -0.8857   -0.2219   -4.4653 C   0  0  0  0  0  0  0  0  0  0  0  0
   -0.6625    0.8585   -5.2423 C   0  0  0  0  0  0  0  0  0  0  0  0
    0.2647    1.9495   -4.9175 C   0  0  0  0  0  0  0  0  0  0  0  0
    0.6764    2.2462   -3.7751 O   0  0  0  0  0  0  0  0  0  0  0  0
    0.5606    2.7113   -6.1202 C   0  0  0  0  0  0  0  0  0  0  0  0
    1.5598    3.7381   -6.2920 C   0  0  0  0  0  0  0  0  0  0  0  0
    1.6248    4.1258   -7.6215 C   0  0  0  0  0  0  0  0  0  0  0  0
    0.8097    3.5938   -8.7079 C   0  0  0  0  0  0  0  0  0  0  0  0
   -0.1399    2.5705   -8.5822 C   0  0  0  0  0  0  0  0  0  0  0  0
   -0.2643    2.1518   -7.2073 C   0  0  0  0  0  0  0  0  0  0  0  0
   -1.1626    1.1030   -6.6378 C   0  0  0  0  0  0  0  0  0  0  0  0
   -2.2124    0.5280   -7.3120 C   0  0  0  0  0  0  0  0  0  0  0  0
   -2.3998    0.5733   -8.7316 C   0  0  0  0  0  0  0  0  0  0  0  0
   -2.5575    0.6153   -9.9127 N   0  0  0  0  0  0  0  0  0  0  0  0
   -3.2658   -0.1114   -6.5990 C   0  0  0  0  0  0  0  0  0  0  0  0
   -4.0630   -0.5477   -5.8749 N   0  0  0  0  0  0  0  0  0  0  0  0
    1.3281    4.6762   -9.6261 C   0  0  0  0  0  0  0  0  0  0  0  0
    0.4144    5.9279   -9.9237 C   0  0  0  0  0  0  0  0  0  0  0  0
   -0.3825    6.3644   -8.6844 C   0  0  0  0  0  0  0  0  0  0  0  0
    0.5288    6.8056   -7.7866 C   0  0  0  0  0  0  0  0  0  0  0  0
    1.8719    6.6502   -8.4385 C   0  0  0  0  0  0  0  0  0  0  0  0
    1.4864    6.9825   -9.8660 C   0  0  0  0  0  0  0  0  0  0  0  0
    2.2352    5.1279   -8.5802 C   0  0  0  0  0  0  0  0  0  0  0  0
   -0.1703   -0.5353   -3.1986 C   0  0  0  0  0  0  0  0  0  0  0  0
    1.2163   -0.6771   -2.9998 C   0  0  0  0  0  0  0  0  0  0  0  0
    2.2196   -0.5337   -4.0846 N   0  0  0  0  0  0  0  0  0  0  0  0
    3.2019    0.4683   -3.8164 C   0  0  0  0  0  0  0  0  0  0  0  0
    3.4934    1.3973   -4.8178 C   0  0  0  0  0  0  0  0  0  0  0  0
    4.6661    2.1532   -4.7339 C   0  0  0  0  0  0  0  0  0  0  0  0
    5.4547    2.1290   -3.5753 C   0  0  0  0  0  0  0  0  0  0  0  0
    6.5962    3.0618   -3.4301 C   0  0  0  0  0  0  0  0  0  0  0  0
    5.0429    1.3466   -2.4535 C   0  0  0  0  0  0  0  0  0  0  0  0
    3.9269    0.5469   -2.5827 C   0  0  0  0  0  0  0  0  0  0  0  0
    2.4615   -1.6831   -4.9919 C   0  0  0  0  0  0  0  0  0  0  0  0
    2.1725   -3.0453   -4.6180 C   0  0  0  0  0  0  0  0  0  0  0  0
    2.5458   -4.0635   -5.4936 C   0  0  0  0  0  0  0  0  0  0  0  0
    3.2047   -3.7815   -6.7351 C   0  0  0  0  0  0  0  0  0  0  0  0
    3.5338   -4.8796   -7.6746 C   0  0  0  0  0  0  0  0  0  0  0  0
    3.4821   -2.4579   -7.1063 C   0  0  0  0  0  0  0  0  0  0  0  0
    3.0646   -1.4366   -6.2565 C   0  0  0  0  0  0  0  0  0  0  0  0
    1.4596   -1.4183   -1.7951 C   0  0  0  0  0  0  0  0  0  0  0  0
    2.8351   -2.1356   -0.9770 S   0  0  0  0  0  0  0  0  0  0  0  0
    2.0114   -2.9774    0.1780 C   0  0  0  0  0  0  0  0  0  0  0  0
    0.6644   -2.8729   -0.2450 C   0  0  0  0  0  0  0  0  0  0  0  0
   -0.4191   -3.4459    0.5066 N   0  0  0  0  0  0  0  0  0  0  0  0
   -0.5788   -4.8306    0.3214 C   0  0  0  0  0  0  0  0  0  0  0  0
   -0.4615   -5.7254    1.4399 C   0  0  0  0  0  0  0  0  0  0  0  0
   -0.7432   -7.1006    1.1013 C   0  0  0  0  0  0  0  0  0  0  0  0
   -1.0093   -7.5107   -0.2148 C   0  0  0  0  0  0  0  0  0  0  0  0
   -1.1890   -8.9461   -0.4551 C   0  0  0  0  0  0  0  0  0  0  0  0
   -1.0833   -6.6160   -1.3066 C   0  0  0  0  0  0  0  0  0  0  0  0
   -0.8441   -5.2966   -1.0260 C   0  0  0  0  0  0  0  0  0  0  0  0
   -1.3986   -2.6485    1.1450 C   0  0  0  0  0  0  0  0  0  0  0  0
   -2.6819   -3.1464    1.0758 C   0  0  0  0  0  0  0  0  0  0  0  0
   -3.7899   -2.3445    1.4564 C   0  0  0  0  0  0  0  0  0  0  0  0
   -3.5460   -1.0046    1.8328 C   0  0  0  0  0  0  0  0  0  0  0  0
   -4.7110   -0.2388    2.3772 C   0  0  0  0  0  0  0  0  0  0  0  0
   -2.2489   -0.4452    1.8235 C   0  0  0  0  0  0  0  0  0  0  0  0
   -1.1287   -1.2577    1.4654 C   0  0  0  0  0  0  0  0  0  0  0  0
    0.4023   -1.9937   -1.2487 C   0  0  0  0  0  0  0  0  0  0  0  0
   -0.9326   -1.3599   -1.9089 S   0  0  0  0  0  0  0  0  0  0  0  0
    2.2664   -3.1112    1.6198 C   0  0  0  0  0  0  0  0  0  0  0  0
    2.2655   -4.3505    2.3271 C   0  0  0  0  0  0  0  0  0  0  0  0
    2.3795   -5.5073    1.6633 F   0  0  0  0  0  0  0  0  0  0  0  0
    1.9482   -4.3931    3.7417 C   0  0  0  0  0  0  0  0  0  0  0  0
    1.8461   -5.5747    4.4401 F   0  0  0  0  0  0  0  0  0  0  0  0
    1.7527   -3.1731    4.4703 C   0  0  0  0  0  0  0  0  0  0  0  0
    2.0501   -1.9534    3.7639 C   0  0  0  0  0  0  0  0  0  0  0  0
    2.0051   -0.7931    4.4685 N   0  0  0  0  0  0  0  0  0  0  0  0
    2.5229    0.3600    3.9805 C   0  0  0  0  0  0  0  0  0  0  0  0
    2.9640    1.3761    4.9445 C   0  0  0  0  0  0  0  0  0  0  0  0
    1.6727    2.0579    5.4647 C   0  0  0  0  0  0  0  0  0  0  0  0
    2.7661    0.4003    2.5700 C   0  0  0  0  0  0  0  0  0  0  0  0
    2.6293   -0.7153    1.8127 N   0  0  0  0  0  0  0  0  0  0  0  0
    2.4006   -1.9532    2.3893 C   0  0  0  0  0  0  0  0  0  0  0  0
    3.1497    1.6679    1.8470 C   0  0  0  0  0  0  0  0  0  0  0  0
    4.6962    1.8189    1.8970 C   0  0  0  0  0  0  0  0  0  0  0  0
    1.3578   -3.1426    5.9635 C   0  0  0  0  0  0  0  0  0  0  0  0
    2.0291   -2.3076    6.9045 C   0  0  0  0  0  0  0  0  0  0  0  0
    3.2304   -1.7760    6.5953 F   0  0  0  0  0  0  0  0  0  0  0  0
    1.3725   -1.7972    8.0567 C   0  0  0  0  0  0  0  0  0  0  0  0
    0.0696   -2.2765    8.3692 C   0  0  0  0  0  0  0  0  0  0  0  0
   -0.4465   -3.3822    7.6236 C   0  0  0  0  0  0  0  0  0  0  0  0
    0.1421   -3.7558    6.3685 C   0  0  0  0  0  0  0  0  0  0  0  0
   -0.6530   -1.6016    9.4654 C   0  0  0  0  0  0  0  0  0  0  0  0
   -1.0617   -0.3238    9.3127 C   0  0  0  0  0  0  0  0  0  0  0  0
   -1.6411    0.5588   10.3355 C   0  0  0  0  0  0  0  0  0  0  0  0
   -1.9949    0.2368   11.5072 O   0  0  0  0  0  0  0  0  0  0  0  0
   -1.9421    1.8585    9.7203 C   0  0  0  0  0  0  0  0  0  0  0  0
   -2.5335    3.0412   10.3390 C   0  0  0  0  0  0  0  0  0  0  0  0
   -2.6548    4.0892    9.3700 C   0  0  0  0  0  0  0  0  0  0  0  0
   -2.2328    3.9807    7.9771 C   0  0  0  0  0  0  0  0  0  0  0  0
   -1.6390    2.8594    7.3916 C   0  0  0  0  0  0  0  0  0  0  0  0
   -1.5274    1.8177    8.3469 C   0  0  0  0  0  0  0  0  0  0  0  0
   -1.1327    0.4414    7.9848 C   0  0  0  0  0  0  0  0  0  0  0  0
   -1.7284   -0.1063    6.8862 C   0  0  0  0  0  0  0  0  0  0  0  0
   -1.3616    0.3677    5.5396 C   0  0  0  0  0  0  0  0  0  0  0  0
   -1.0370    0.6947    4.4846 N   0  0  0  0  0  0  0  0  0  0  0  0
   -2.6038   -1.2824    6.9237 C   0  0  0  0  0  0  0  0  0  0  0  0
   -3.1646   -2.2759    6.9135 N   0  0  0  0  0  0  0  0  0  0  0  0
   -2.8440    5.3006    7.6510 C   0  0  0  0  0  0  0  0  0  0  0  0
   -4.2130    5.2868    6.8642 C   0  0  0  0  0  0  0  0  0  0  0  0
   -5.0614    4.1028    7.2826 C   0  0  0  0  0  0  0  0  0  0  0  0
   -5.4566    4.3228    8.5573 C   0  0  0  0  0  0  0  0  0  0  0  0
   -4.7905    5.6156    8.9766 C   0  0  0  0  0  0  0  0  0  0  0  0
   -4.9334    6.3603    7.6467 C   0  0  0  0  0  0  0  0  0  0  0  0
   -3.2259    5.4698    9.0534 C   0  0  0  0  0  0  0  0  0  0  0  0
   -1.6055   -0.9762   -4.7719 H   0  0  0  0  0  0  0  0  0  0  0  0
    2.0832    4.2902   -5.4451 H   0  0  0  0  0  0  0  0  0  0  0  0
   -0.7115    2.2606   -9.5113 H   0  0  0  0  0  0  0  0  0  0  0  0
    1.7952    4.2365  -10.5121 H   0  0  0  0  0  0  0  0  0  0  0  0
   -0.1970    5.9059  -10.8395 H   0  0  0  0  0  0  0  0  0  0  0  0
   -1.4475    6.2113   -8.4612 H   0  0  0  0  0  0  0  0  0  0  0  0
    0.3271    7.1080   -6.7512 H   0  0  0  0  0  0  0  0  0  0  0  0
    2.6949    7.2514   -8.0169 H   0  0  0  0  0  0  0  0  0  0  0  0
    2.3228    6.9003  -10.6454 H   0  0  0  0  0  0  0  0  0  0  0  0
    1.1037    8.0521  -10.0128 H   0  0  0  0  0  0  0  0  0  0  0  0
    3.3225    4.8786   -8.8375 H   0  0  0  0  0  0  0  0  0  0  0  0
    2.8506    1.4915   -5.6869 H   0  0  0  0  0  0  0  0  0  0  0  0
    4.9140    2.7604   -5.6044 H   0  0  0  0  0  0  0  0  0  0  0  0
    7.2752    2.7746   -2.6015 H   0  0  0  0  0  0  0  0  0  0  0  0
    6.2234    4.1020   -3.2754 H   0  0  0  0  0  0  0  0  0  0  0  0
    7.1798    3.0764   -4.3993 H   0  0  0  0  0  0  0  0  0  0  0  0
    5.5877    1.3385   -1.5307 H   0  0  0  0  0  0  0  0  0  0  0  0
    3.6971    0.0407   -1.6715 H   0  0  0  0  0  0  0  0  0  0  0  0
    1.6483   -3.3889   -3.7014 H   0  0  0  0  0  0  0  0  0  0  0  0
    2.3403   -5.0663   -5.1560 H   0  0  0  0  0  0  0  0  0  0  0  0
    4.6402   -4.9943   -7.6630 H   0  0  0  0  0  0  0  0  0  0  0  0
    3.0747   -5.8192   -7.3689 H   0  0  0  0  0  0  0  0  0  0  0  0
    3.2039   -4.5934   -8.6979 H   0  0  0  0  0  0  0  0  0  0  0  0
    3.9680   -2.1506   -8.0742 H   0  0  0  0  0  0  0  0  0  0  0  0
    3.2298   -0.4499   -6.6625 H   0  0  0  0  0  0  0  0  0  0  0  0
   -0.2714   -5.3167    2.4505 H   0  0  0  0  0  0  0  0  0  0  0  0
   -0.6853   -7.7214    1.9353 H   0  0  0  0  0  0  0  0  0  0  0  0
   -1.8339   -9.0801   -1.3591 H   0  0  0  0  0  0  0  0  0  0  0  0
   -0.1864   -9.3799   -0.5882 H   0  0  0  0  0  0  0  0  0  0  0  0
   -1.7278   -9.3999    0.4084 H   0  0  0  0  0  0  0  0  0  0  0  0
   -1.2630   -6.9087   -2.4010 H   0  0  0  0  0  0  0  0  0  0  0  0
   -0.8845   -4.6713   -1.9123 H   0  0  0  0  0  0  0  0  0  0  0  0
   -2.8868   -4.1296    0.7082 H   0  0  0  0  0  0  0  0  0  0  0  0
   -4.7554   -2.8048    1.3774 H   0  0  0  0  0  0  0  0  0  0  0  0
   -4.7327   -0.3263    3.4850 H   0  0  0  0  0  0  0  0  0  0  0  0
   -5.6711   -0.6070    1.9238 H   0  0  0  0  0  0  0  0  0  0  0  0
   -4.6274    0.8226    2.0812 H   0  0  0  0  0  0  0  0  0  0  0  0
   -2.0644    0.6238    2.1274 H   0  0  0  0  0  0  0  0  0  0  0  0
   -0.1468   -0.7834    1.4951 H   0  0  0  0  0  0  0  0  0  0  0  0
    3.4549    0.8264    5.8215 H   0  0  0  0  0  0  0  0  0  0  0  0
    3.7430    2.0659    4.5006 H   0  0  0  0  0  0  0  0  0  0  0  0
    1.9730    2.8297    6.2048 H   0  0  0  0  0  0  0  0  0  0  0  0
    1.0986    2.4635    4.5690 H   0  0  0  0  0  0  0  0  0  0  0  0
    1.0649    1.2728    6.0081 H   0  0  0  0  0  0  0  0  0  0  0  0
    2.8048    1.5901    0.7770 H   0  0  0  0  0  0  0  0  0  0  0  0
    2.6113    2.4465    2.3664 H   0  0  0  0  0  0  0  0  0  0  0  0
    4.8769    2.9164    2.0081 H   0  0  0  0  0  0  0  0  0  0  0  0
    5.1419    1.2923    2.7800 H   0  0  0  0  0  0  0  0  0  0  0  0
    5.1541    1.4457    0.9469 H   0  0  0  0  0  0  0  0  0  0  0  0
    1.8709   -0.9460    8.5833 H   0  0  0  0  0  0  0  0  0  0  0  0
   -1.4240   -3.7617    7.8503 H   0  0  0  0  0  0  0  0  0  0  0  0
   -0.4731   -4.3521    5.6529 H   0  0  0  0  0  0  0  0  0  0  0  0
   -0.7536   -2.1055   10.4237 H   0  0  0  0  0  0  0  0  0  0  0  0
   -2.9187    3.1463   11.3847 H   0  0  0  0  0  0  0  0  0  0  0  0
   -1.4377    2.7893    6.2670 H   0  0  0  0  0  0  0  0  0  0  0  0
   -2.0626    6.0286    7.3105 H   0  0  0  0  0  0  0  0  0  0  0  0
   -4.1038    5.4769    5.7834 H   0  0  0  0  0  0  0  0  0  0  0  0
   -5.2716    3.1969    6.6966 H   0  0  0  0  0  0  0  0  0  0  0  0
   -6.0912    3.6511    9.1681 H   0  0  0  0  0  0  0  0  0  0  0  0
   -5.2833    6.1063    9.8344 H   0  0  0  0  0  0  0  0  0  0  0  0
   -6.0125    6.5816    7.2971 H   0  0  0  0  0  0  0  0  0  0  0  0
   -4.4422    7.3918    7.6369 H   0  0  0  0  0  0  0  0  0  0  0  0
   -2.7120    6.3029    9.5671 H   0  0  0  0  0  0  0  0  0  0  0  0
  1  2  2  3
  2  3  1  0
  3  4  2  0
  3  5  1  0
  5  6  2  0
  6  7  1  0
  7  8  2  0
  8  9  1  0
  9 10  2  0
 10 11  1  0
 11 12  2  3
 12 13  1  0
 13 14  3  0
 12 15  1  0
 15 16  3  0
  8 17  1  0
 17 18  1  0
 18 19  1  0
 19 20  2  0
 20 21  1  0
 21 22  1  0
 21 23  1  0
  1 24  1  0
 24 25  2  0
 25 26  1  0
 26 27  1  0
 27 28  2  0
 28 29  1  0
 29 30  2  0
 30 31  1  0
 30 32  1  0
 32 33  2  0
 26 34  1  0
 34 35  2  0
 35 36  1  0
 36 37  2  0
 37 38  1  0
 37 39  1  0
 39 40  2  0
 25 41  1  0
 41 42  1  0
 42 43  1  0
 43 44  2  0
 44 45  1  0
 45 46  1  0
 46 47  2  0
 47 48  1  0
 48 49  2  0
 49 50  1  0
 49 51  1  0
 51 52  2  0
 45 53  1  0
 53 54  2  0
 54 55  1  0
 55 56  2  0
 56 57  1  0
 56 58  1  0
 58 59  2  0
 44 60  1  0
 60 61  1  0
 43 62  1  0
 62 63  2  0
 63 64  1  0
 63 65  1  0
 65 66  1  0
 65 67  2  0
 67 68  1  0
 68 69  2  0
 69 70  1  0
 70 71  1  0
 71 72  1  0
 70 73  2  0
 73 74  1  0
 74 75  2  0
 73 76  1  0
 76 77  1  0
 67 78  1  0
 78 79  2  0
 79 80  1  0
 79 81  1  0
 81 82  2  0
 82 83  1  0
 83 84  2  0
 82 85  1  0
 85 86  2  3
 86 87  1  0
 87 88  2  0
 87 89  1  0
 89 90  2  0
 90 91  1  0
 91 92  2  0
 92 93  1  0
 93 94  2  0
 94 95  1  0
 95 96  2  3
 96 97  1  0
 97 98  3  0
 96 99  1  0
 99100  3  0
 92101  1  0
101102  1  0
102103  1  0
103104  2  0
104105  1  0
105106  1  0
105107  1  0
 11  2  1  0
 23 17  1  0
 61 24  1  0
 75 62  1  0
 84 78  1  0
 95 86  1  0
107101  1  0
 10  5  1  0
 22 18  1  0
 33 27  1  0
 40 34  1  0
 60 41  2  0
 75 68  1  0
 94 89  1  0
106102  1  0
 23  7  1  0
 52 46  1  0
 59 53  1  0
107 91  1  0
  1108  1  0
  6109  1  0
  9110  1  0
 17111  1  0
 18112  1  0
 19113  1  0
 20114  1  0
 21115  1  0
 22116  1  0
 22117  1  0
 23118  1  0
 28119  1  0
 29120  1  0
 31121  1  0
 31122  1  0
 31123  1  0
 32124  1  0
 33125  1  0
 35126  1  0
 36127  1  0
 38128  1  0
 38129  1  0
 38130  1  0
 39131  1  0
 40132  1  0
 47133  1  0
 48134  1  0
 50135  1  0
 50136  1  0
 50137  1  0
 51138  1  0
 52139  1  0
 54140  1  0
 55141  1  0
 57142  1  0
 57143  1  0
 57144  1  0
 58145  1  0
 59146  1  0
 71147  1  0
 71148  1  0
 72149  1  0
 72150  1  0
 72151  1  0
 76152  1  0
 76153  1  0
 77154  1  0
 77155  1  0
 77156  1  0
 81157  1  0
 83158  1  0
 84159  1  0
 85160  1  0
 90161  1  0
 93162  1  0
101163  1  0
102164  1  0
103165  1  0
104166  1  0
105167  1  0
106168  1  0
106169  1  0
107170  1  0
M  END

