
     RDKit          3D

212235  0  0  0  0  0  0  0  0999 V2000
   -1.8536    3.4855   -7.2394 C   0  0  0  0  0  0  0  0  0  0  0  0
   -0.6999    4.1608   -7.4474 C   0  0  0  0  0  0  0  0  0  0  0  0
    0.4869    3.9939   -6.6009 C   0  0  0  0  0  0  0  0  0  0  0  0
    0.4801    3.7434   -5.3658 O   0  0  0  0  0  0  0  0  0  0  0  0
    1.6699    4.1130   -7.4078 C   0  0  0  0  0  0  0  0  0  0  0  0
    2.9957    3.8434   -6.9990 C   0  0  0  0  0  0  0  0  0  0  0  0
    3.9204    3.9518   -8.0179 C   0  0  0  0  0  0  0  0  0  0  0  0
    3.5747    4.3233   -9.3564 C   0  0  0  0  0  0  0  0  0  0  0  0
    2.2739    4.5875   -9.7610 C   0  0  0  0  0  0  0  0  0  0  0  0
    1.2940    4.4617   -8.7314 C   0  0  0  0  0  0  0  0  0  0  0  0
   -0.1959    4.6134   -8.7804 C   0  0  0  0  0  0  0  0  0  0  0  0
   -0.9503    5.0672   -9.8109 C   0  0  0  0  0  0  0  0  0  0  0  0
   -2.3419    5.4119   -9.6396 C   0  0  0  0  0  0  0  0  0  0  0  0
   -3.4549    5.7034   -9.5031 N   0  0  0  0  0  0  0  0  0  0  0  0
   -0.4212    5.2699  -11.1364 C   0  0  0  0  0  0  0  0  0  0  0  0
   -0.0133    5.4088  -12.2149 N   0  0  0  0  0  0  0  0  0  0  0  0
    5.0161    4.2153   -9.7731 C   0  0  0  0  0  0  0  0  0  0  0  0
    5.7937    5.5497   -9.9748 C   0  0  0  0  0  0  0  0  0  0  0  0
    7.2547    5.1690   -9.9920 C   0  0  0  0  0  0  0  0  0  0  0  0
    7.5676    4.8200   -8.7380 C   0  0  0  0  0  0  0  0  0  0  0  0
    6.3074    4.9604   -7.9225 C   0  0  0  0  0  0  0  0  0  0  0  0
    5.7320    6.1912   -8.5976 C   0  0  0  0  0  0  0  0  0  0  0  0
    5.3630    3.8234   -8.4055 C   0  0  0  0  0  0  0  0  0  0  0  0
   -1.8352    2.2518   -6.4443 C   0  0  0  0  0  0  0  0  0  0  0  0
   -2.5488    1.9637   -5.2662 C   0  0  0  0  0  0  0  0  0  0  0  0
   -3.5245    2.8288   -4.6624 N   0  0  0  0  0  0  0  0  0  0  0  0
   -3.1275    3.6277   -3.5353 C   0  0  0  0  0  0  0  0  0  0  0  0
   -3.6824    3.3885   -2.2688 C   0  0  0  0  0  0  0  0  0  0  0  0
   -3.2875    4.1568   -1.1705 C   0  0  0  0  0  0  0  0  0  0  0  0
   -2.3492    5.1861   -1.3257 C   0  0  0  0  0  0  0  0  0  0  0  0
   -1.9024    5.9820   -0.1366 C   0  0  0  0  0  0  0  0  0  0  0  0
   -1.7910    5.4207   -2.5940 C   0  0  0  0  0  0  0  0  0  0  0  0
   -2.1844    4.6513   -3.6907 C   0  0  0  0  0  0  0  0  0  0  0  0
   -4.9261    2.6735   -4.9630 C   0  0  0  0  0  0  0  0  0  0  0  0
   -5.4754    1.3987   -5.1947 C   0  0  0  0  0  0  0  0  0  0  0  0
   -6.8510    1.2467   -5.3930 C   0  0  0  0  0  0  0  0  0  0  0  0
   -7.6979    2.3651   -5.3800 C   0  0  0  0  0  0  0  0  0  0  0  0
   -9.1803    2.2018   -5.5360 C   0  0  0  0  0  0  0  0  0  0  0  0
   -7.1531    3.6346   -5.1465 C   0  0  0  0  0  0  0  0  0  0  0  0
   -5.7799    3.7862   -4.9373 C   0  0  0  0  0  0  0  0  0  0  0  0
   -2.0535    0.8055   -4.6565 C   0  0  0  0  0  0  0  0  0  0  0  0
   -2.2126    0.1192   -3.1279 S   0  0  0  0  0  0  0  0  0  0  0  0
   -0.9059   -0.9626   -3.3392 C   0  0  0  0  0  0  0  0  0  0  0  0
   -0.3141   -0.7337   -4.5894 C   0  0  0  0  0  0  0  0  0  0  0  0
    1.0424   -1.0785   -4.9129 N   0  0  0  0  0  0  0  0  0  0  0  0
    2.1514   -0.2545   -4.4600 C   0  0  0  0  0  0  0  0  0  0  0  0
    1.9402    0.7862   -3.5338 C   0  0  0  0  0  0  0  0  0  0  0  0
    3.0075    1.4565   -2.9511 C   0  0  0  0  0  0  0  0  0  0  0  0
    4.3247    1.1395   -3.3128 C   0  0  0  0  0  0  0  0  0  0  0  0
    5.4711    1.8313   -2.6374 C   0  0  0  0  0  0  0  0  0  0  0  0
    4.5512    0.1681   -4.2952 C   0  0  0  0  0  0  0  0  0  0  0  0
    3.4732   -0.5152   -4.8678 C   0  0  0  0  0  0  0  0  0  0  0  0
    1.2299   -2.2676   -5.6924 C   0  0  0  0  0  0  0  0  0  0  0  0
    1.3583   -3.5080   -5.0564 C   0  0  0  0  0  0  0  0  0  0  0  0
    1.4095   -4.6823   -5.8130 C   0  0  0  0  0  0  0  0  0  0  0  0
    1.3199   -4.6263   -7.2124 C   0  0  0  0  0  0  0  0  0  0  0  0
    1.3127   -5.8945   -8.0118 C   0  0  0  0  0  0  0  0  0  0  0  0
    1.2177   -3.3797   -7.8490 C   0  0  0  0  0  0  0  0  0  0  0  0
    1.1674   -2.2058   -7.0902 C   0  0  0  0  0  0  0  0  0  0  0  0
   -1.0174    0.2170   -5.3046 C   0  0  0  0  0  0  0  0  0  0  0  0
   -0.6406    1.0574   -6.6867 S   0  0  0  0  0  0  0  0  0  0  0  0
   -0.2801   -1.7279   -2.2642 C   0  0  0  0  0  0  0  0  0  0  0  0
    0.7761   -1.0451   -1.1095 S   0  0  0  0  0  0  0  0  0  0  0  0
    1.0466   -2.5398   -0.4286 C   0  0  0  0  0  0  0  0  0  0  0  0
    1.4635   -2.8279    0.8190 N   0  0  0  0  0  0  0  0  0  0  0  0
    1.0764   -4.0866    1.1553 C   0  0  0  0  0  0  0  0  0  0  0  0
    0.1368   -4.8165   -0.0753 S   0  0  0  0  0  0  0  0  0  0  0  0
    0.3102   -3.4793   -1.0646 C   0  0  0  0  0  0  0  0  0  0  0  0
   -0.4605   -3.0661   -2.0988 N   0  0  0  0  0  0  0  0  0  0  0  0
    0.8706   -4.4008    2.5636 C   0  0  0  0  0  0  0  0  0  0  0  0
    1.8363   -4.2106    3.5787 C   0  0  0  0  0  0  0  0  0  0  0  0
    3.2430   -4.0308    3.3098 N   0  0  0  0  0  0  0  0  0  0  0  0
    3.8952   -4.8798    2.3380 C   0  0  0  0  0  0  0  0  0  0  0  0
    3.6124   -6.2563    2.2924 C   0  0  0  0  0  0  0  0  0  0  0  0
    4.1882   -7.0660    1.3106 C   0  0  0  0  0  0  0  0  0  0  0  0
    5.0537   -6.5104    0.3616 C   0  0  0  0  0  0  0  0  0  0  0  0
    5.7512   -7.5382   -0.9333 S   0  0  0  0  0  0  0  0  0  0  0  0
    4.4023   -7.1734   -2.0999 C   0  0  0  0  0  0  0  0  0  0  0  0
    5.3592   -5.1462    0.4111 C   0  0  0  0  0  0  0  0  0  0  0  0
    4.7830   -4.3328    1.3901 C   0  0  0  0  0  0  0  0  0  0  0  0
    3.9443   -2.8941    3.8539 C   0  0  0  0  0  0  0  0  0  0  0  0
    3.3342   -1.6270    3.8909 C   0  0  0  0  0  0  0  0  0  0  0  0
    4.0238   -0.5225    4.3891 C   0  0  0  0  0  0  0  0  0  0  0  0
    5.3487   -0.6615    4.8188 C   0  0  0  0  0  0  0  0  0  0  0  0
    6.2632    0.7654    5.4066 S   0  0  0  0  0  0  0  0  0  0  0  0
    6.6701    1.3547    3.7325 C   0  0  0  0  0  0  0  0  0  0  0  0
    5.9682   -1.9174    4.7803 C   0  0  0  0  0  0  0  0  0  0  0  0
    5.2681   -3.0269    4.3046 C   0  0  0  0  0  0  0  0  0  0  0  0
    1.2207   -3.9233    4.8061 C   0  0  0  0  0  0  0  0  0  0  0  0
    1.7647   -3.3756    6.3093 S   0  0  0  0  0  0  0  0  0  0  0  0
    0.2177   -2.8744    6.8198 C   0  0  0  0  0  0  0  0  0  0  0  0
   -0.7159   -3.1281    5.8089 C   0  0  0  0  0  0  0  0  0  0  0  0
   -2.0299   -2.5424    5.7342 N   0  0  0  0  0  0  0  0  0  0  0  0
   -2.2288   -1.2493    5.0944 C   0  0  0  0  0  0  0  0  0  0  0  0
   -3.3127   -0.4315    5.4687 C   0  0  0  0  0  0  0  0  0  0  0  0
   -3.5919    0.7520    4.7776 C   0  0  0  0  0  0  0  0  0  0  0  0
   -2.7920    1.1380    3.6959 C   0  0  0  0  0  0  0  0  0  0  0  0
   -3.2694    2.5404    2.6768 S   0  0  0  0  0  0  0  0  0  0  0  0
   -2.0379    3.6808    3.3818 C   0  0  0  0  0  0  0  0  0  0  0  0
   -1.6797    0.3667    3.3510 C   0  0  0  0  0  0  0  0  0  0  0  0
   -1.3799   -0.7972    4.0592 C   0  0  0  0  0  0  0  0  0  0  0  0
   -3.1621   -3.3650    6.0827 C   0  0  0  0  0  0  0  0  0  0  0  0
   -3.1513   -4.1299    7.2605 C   0  0  0  0  0  0  0  0  0  0  0  0
   -4.2528   -4.9187    7.6024 C   0  0  0  0  0  0  0  0  0  0  0  0
   -5.3715   -4.9621    6.7637 C   0  0  0  0  0  0  0  0  0  0  0  0
   -6.7845   -5.9723    7.2078 S   0  0  0  0  0  0  0  0  0  0  0  0
   -6.1152   -7.4610    6.4071 C   0  0  0  0  0  0  0  0  0  0  0  0
   -5.3869   -4.2171    5.5804 C   0  0  0  0  0  0  0  0  0  0  0  0
   -4.2879   -3.4245    5.2408 C   0  0  0  0  0  0  0  0  0  0  0  0
   -0.1304   -3.7911    4.7427 C   0  0  0  0  0  0  0  0  0  0  0  0
   -0.6773   -4.1337    3.2095 S   0  0  0  0  0  0  0  0  0  0  0  0
   -0.1318   -2.3815    8.1572 C   0  0  0  0  0  0  0  0  0  0  0  0
   -0.6476   -1.1546    8.3257 C   0  0  0  0  0  0  0  0  0  0  0  0
   -0.3844   -0.0268    7.4303 C   0  0  0  0  0  0  0  0  0  0  0  0
    0.5054    0.0191    6.5381 O   0  0  0  0  0  0  0  0  0  0  0  0
   -1.3038    1.0403    7.7368 C   0  0  0  0  0  0  0  0  0  0  0  0
   -1.5242    2.2049    6.9676 C   0  0  0  0  0  0  0  0  0  0  0  0
   -2.6705    2.8945    7.3120 C   0  0  0  0  0  0  0  0  0  0  0  0
   -3.5387    2.4817    8.3724 C   0  0  0  0  0  0  0  0  0  0  0  0
   -3.3122    1.3584    9.1490 C   0  0  0  0  0  0  0  0  0  0  0  0
   -2.1319    0.6358    8.8196 C   0  0  0  0  0  0  0  0  0  0  0  0
   -1.6900   -0.7066    9.3032 C   0  0  0  0  0  0  0  0  0  0  0  0
   -2.1896   -1.3715   10.3789 C   0  0  0  0  0  0  0  0  0  0  0  0
   -3.0140   -0.7203   11.3661 C   0  0  0  0  0  0  0  0  0  0  0  0
   -3.6661   -0.2092   12.1708 N   0  0  0  0  0  0  0  0  0  0  0  0
   -1.9241   -2.7604   10.6458 C   0  0  0  0  0  0  0  0  0  0  0  0
   -1.7409   -3.8813   10.8614 N   0  0  0  0  0  0  0  0  0  0  0  0
   -4.4823    3.6025    8.0619 C   0  0  0  0  0  0  0  0  0  0  0  0
   -4.4755    4.8077    9.0441 C   0  0  0  0  0  0  0  0  0  0  0  0
   -5.1791    5.9294    8.3181 C   0  0  0  0  0  0  0  0  0  0  0  0
   -4.3579    6.3220    7.3360 C   0  0  0  0  0  0  0  0  0  0  0  0
   -3.1306    5.4516    7.4317 C   0  0  0  0  0  0  0  0  0  0  0  0
   -3.0493    5.3252    8.9447 C   0  0  0  0  0  0  0  0  0  0  0  0
   -3.5858    4.0318    6.9814 C   0  0  0  0  0  0  0  0  0  0  0  0
   -2.6797    3.5743   -7.9267 H   0  0  0  0  0  0  0  0  0  0  0  0
    3.2600    3.5544   -5.9917 H   0  0  0  0  0  0  0  0  0  0  0  0
    2.0651    4.8362  -10.7892 H   0  0  0  0  0  0  0  0  0  0  0  0
    5.2015    3.4334  -10.5401 H   0  0  0  0  0  0  0  0  0  0  0  0
    5.4557    6.1865  -10.8222 H   0  0  0  0  0  0  0  0  0  0  0  0
    7.9492    5.2474  -10.8226 H   0  0  0  0  0  0  0  0  0  0  0  0
    8.5631    4.5680   -8.3787 H   0  0  0  0  0  0  0  0  0  0  0  0
    6.4611    5.0296   -6.8265 H   0  0  0  0  0  0  0  0  0  0  0  0
    6.3812    7.0934   -8.4975 H   0  0  0  0  0  0  0  0  0  0  0  0
    4.7018    6.4560   -8.2663 H   0  0  0  0  0  0  0  0  0  0  0  0
    5.7613    2.7889   -8.3043 H   0  0  0  0  0  0  0  0  0  0  0  0
   -4.4125    2.5969   -2.1309 H   0  0  0  0  0  0  0  0  0  0  0  0
   -3.7139    3.9528   -0.1949 H   0  0  0  0  0  0  0  0  0  0  0  0
   -2.7496    6.1395    0.5616 H   0  0  0  0  0  0  0  0  0  0  0  0
   -1.5221    6.9780   -0.4459 H   0  0  0  0  0  0  0  0  0  0  0  0
   -1.0937    5.4355    0.3933 H   0  0  0  0  0  0  0  0  0  0  0  0
   -1.0567    6.2017   -2.7338 H   0  0  0  0  0  0  0  0  0  0  0  0
   -1.7701    4.8645   -4.6672 H   0  0  0  0  0  0  0  0  0  0  0  0
   -4.8497    0.5151   -5.1830 H   0  0  0  0  0  0  0  0  0  0  0  0
   -7.2611    0.2520   -5.5367 H   0  0  0  0  0  0  0  0  0  0  0  0
   -9.6011    3.0464   -6.1186 H   0  0  0  0  0  0  0  0  0  0  0  0
   -9.6529    2.1801   -4.5320 H   0  0  0  0  0  0  0  0  0  0  0  0
   -9.4208    1.2574   -6.0697 H   0  0  0  0  0  0  0  0  0  0  0  0
   -7.7963    4.5066   -5.1185 H   0  0  0  0  0  0  0  0  0  0  0  0
   -5.3800    4.7776   -4.7557 H   0  0  0  0  0  0  0  0  0  0  0  0
    0.9426    1.0680   -3.2210 H   0  0  0  0  0  0  0  0  0  0  0  0
    2.8143    2.1727   -2.1692 H   0  0  0  0  0  0  0  0  0  0  0  0
    5.5568    1.4577   -1.5952 H   0  0  0  0  0  0  0  0  0  0  0  0
    6.4305    1.6421   -3.1650 H   0  0  0  0  0  0  0  0  0  0  0  0
    5.2940    2.9273   -2.6186 H   0  0  0  0  0  0  0  0  0  0  0  0
    5.5621   -0.0726   -4.6077 H   0  0  0  0  0  0  0  0  0  0  0  0
    3.6812   -1.2753   -5.6023 H   0  0  0  0  0  0  0  0  0  0  0  0
    1.4030   -3.5651   -3.9786 H   0  0  0  0  0  0  0  0  0  0  0  0
    1.5008   -5.6345   -5.3051 H   0  0  0  0  0  0  0  0  0  0  0  0
    0.5078   -6.5642   -7.6417 H   0  0  0  0  0  0  0  0  0  0  0  0
    2.2940   -6.4072   -7.9068 H   0  0  0  0  0  0  0  0  0  0  0  0
    1.1276   -5.6951   -9.0891 H   0  0  0  0  0  0  0  0  0  0  0  0
    1.1538   -3.3140   -8.9276 H   0  0  0  0  0  0  0  0  0  0  0  0
    1.0655   -1.2519   -7.5922 H   0  0  0  0  0  0  0  0  0  0  0  0
    2.9402   -6.6985    3.0199 H   0  0  0  0  0  0  0  0  0  0  0  0
    3.9531   -8.1223    1.2820 H   0  0  0  0  0  0  0  0  0  0  0  0
    4.3903   -6.0874   -2.3374 H   0  0  0  0  0  0  0  0  0  0  0  0
    3.4268   -7.4744   -1.6647 H   0  0  0  0  0  0  0  0  0  0  0  0
    4.5715   -7.7412   -3.0369 H   0  0  0  0  0  0  0  0  0  0  0  0
    6.0264   -4.7097   -0.3208 H   0  0  0  0  0  0  0  0  0  0  0  0
    5.0064   -3.2747    1.3874 H   0  0  0  0  0  0  0  0  0  0  0  0
    2.3198   -1.4958    3.5327 H   0  0  0  0  0  0  0  0  0  0  0  0
    3.5436    0.4458    4.4057 H   0  0  0  0  0  0  0  0  0  0  0  0
    7.4777    2.1128    3.8008 H   0  0  0  0  0  0  0  0  0  0  0  0
    7.0157    0.5199    3.0865 H   0  0  0  0  0  0  0  0  0  0  0  0
    5.7725    1.8286    3.2822 H   0  0  0  0  0  0  0  0  0  0  0  0
    6.9925   -2.0320    5.1080 H   0  0  0  0  0  0  0  0  0  0  0  0
    5.7563   -3.9952    4.2826 H   0  0  0  0  0  0  0  0  0  0  0  0
   -3.9546   -0.7226    6.2916 H   0  0  0  0  0  0  0  0  0  0  0  0
   -4.4430    1.3509    5.0678 H   0  0  0  0  0  0  0  0  0  0  0  0
   -1.0134    3.3096    3.1690 H   0  0  0  0  0  0  0  0  0  0  0  0
   -2.1608    4.6798    2.9145 H   0  0  0  0  0  0  0  0  0  0  0  0
   -2.1858    3.7743    4.4720 H   0  0  0  0  0  0  0  0  0  0  0  0
   -1.0562    0.6605    2.5156 H   0  0  0  0  0  0  0  0  0  0  0  0
   -0.5061   -1.3525    3.7617 H   0  0  0  0  0  0  0  0  0  0  0  0
   -2.3000   -4.1029    7.9247 H   0  0  0  0  0  0  0  0  0  0  0  0
   -4.2369   -5.4927    8.5192 H   0  0  0  0  0  0  0  0  0  0  0  0
   -5.1501   -7.7449    6.8763 H   0  0  0  0  0  0  0  0  0  0  0  0
   -6.8349   -8.2952    6.5320 H   0  0  0  0  0  0  0  0  0  0  0  0
   -5.9606   -7.2736    5.3241 H   0  0  0  0  0  0  0  0  0  0  0  0
   -6.2479   -4.2454    4.9289 H   0  0  0  0  0  0  0  0  0  0  0  0
   -4.3138   -2.8565    4.3194 H   0  0  0  0  0  0  0  0  0  0  0  0
   -0.2217   -3.1454    8.9051 H   0  0  0  0  0  0  0  0  0  0  0  0
   -0.9048    2.4804    6.1215 H   0  0  0  0  0  0  0  0  0  0  0  0
   -4.0424    1.0450    9.8741 H   0  0  0  0  0  0  0  0  0  0  0  0
   -5.4848    3.2628    7.7161 H   0  0  0  0  0  0  0  0  0  0  0  0
   -4.8453    4.5953   10.0695 H   0  0  0  0  0  0  0  0  0  0  0  0
   -6.1280    6.3892    8.5747 H   0  0  0  0  0  0  0  0  0  0  0  0
   -4.5353    7.1407    6.6496 H   0  0  0  0  0  0  0  0  0  0  0  0
   -2.2222    5.8472    6.9297 H   0  0  0  0  0  0  0  0  0  0  0  0
   -2.2767    4.6153    9.3101 H   0  0  0  0  0  0  0  0  0  0  0  0
   -2.9037    6.3026    9.4664 H   0  0  0  0  0  0  0  0  0  0  0  0
   -4.0445    3.9634    5.9696 H   0  0  0  0  0  0  0  0  0  0  0  0
  1  2  2  3
  2  3  1  0
  3  4  2  0
  3  5  1  0
  5  6  2  0
  6  7  1  0
  7  8  2  0
  8  9  1  0
  9 10  2  0
 10 11  1  0
 11 12  2  3
 12 13  1  0
 13 14  3  0
 12 15  1  0
 15 16  3  0
  8 17  1  0
 17 18  1  0
 18 19  1  0
 19 20  2  0
 20 21  1  0
 21 22  1  0
 21 23  1  0
  1 24  1  0
 24 25  2  0
 25 26  1  0
 26 27  1  0
 27 28  2  0
 28 29  1  0
 29 30  2  0
 30 31  1  0
 30 32  1  0
 32 33  2  0
 26 34  1  0
 34 35  2  0
 35 36  1  0
 36 37  2  0
 37 38  1  0
 37 39  1  0
 39 40  2  0
 25 41  1  0
 41 42  1  0
 42 43  1  0
 43 44  2  0
 44 45  1  0
 45 46  1  0
 46 47  2  0
 47 48  1  0
 48 49  2  0
 49 50  1  0
 49 51  1  0
 51 52  2  0
 45 53  1  0
 53 54  2  0
 54 55  1  0
 55 56  2  0
 56 57  1  0
 56 58  1  0
 58 59  2  0
 44 60  1  0
 60 61  1  0
 43 62  1  0
 62 63  1  0
 63 64  1  0
 64 65  1  0
 65 66  2  0
 66 67  1  0
 67 68  1  0
 68 69  1  0
 66 70  1  0
 70 71  2  0
 71 72  1  0
 72 73  1  0
 73 74  2  0
 74 75  1  0
 75 76  2  0
 76 77  1  0
 77 78  1  0
 76 79  1  0
 79 80  2  0
 72 81  1  0
 81 82  2  0
 82 83  1  0
 83 84  2  0
 84 85  1  0
 85 86  1  0
 84 87  1  0
 87 88  2  0
 71 89  1  0
 89 90  1  0
 90 91  1  0
 91 92  2  0
 92 93  1  0
 93 94  1  0
 94 95  2  0
 95 96  1  0
 96 97  2  0
 97 98  1  0
 98 99  1  0
 97100  1  0
100101  2  0
 93102  1  0
102103  2  0
103104  1  0
104105  2  0
105106  1  0
106107  1  0
105108  1  0
108109  2  0
 92110  1  0
110111  1  0
 91112  1  0
112113  2  3
113114  1  0
114115  2  0
114116  1  0
116117  2  0
117118  1  0
118119  2  0
119120  1  0
120121  2  0
121122  1  0
122123  2  3
123124  1  0
124125  3  0
123126  1  0
126127  3  0
119128  1  0
128129  1  0
129130  1  0
130131  2  0
131132  1  0
132133  1  0
132134  1  0
 11  2  1  0
 23 17  1  0
 61 24  1  0
 69 62  2  0
111 70  1  0
122113  1  0
134128  1  0
 10  5  1  0
 22 18  1  0
 33 27  1  0
 40 34  1  0
 60 41  2  0
 68 64  2  0
 80 73  1  0
 88 81  1  0
110 89  2  0
121116  1  0
133129  1  0
 23  7  1  0
 52 46  1  0
 59 53  1  0
101 94  1  0
109102  1  0
134118  1  0
  1135  1  0
  6136  1  0
  9137  1  0
 17138  1  0
 18139  1  0
 19140  1  0
 20141  1  0
 21142  1  0
 22143  1  0
 22144  1  0
 23145  1  0
 28146  1  0
 29147  1  0
 31148  1  0
 31149  1  0
 31150  1  0
 32151  1  0
 33152  1  0
 35153  1  0
 36154  1  0
 38155  1  0
 38156  1  0
 38157  1  0
 39158  1  0
 40159  1  0
 47160  1  0
 48161  1  0
 50162  1  0
 50163  1  0
 50164  1  0
 51165  1  0
 52166  1  0
 54167  1  0
 55168  1  0
 57169  1  0
 57170  1  0
 57171  1  0
 58172  1  0
 59173  1  0
 74174  1  0
 75175  1  0
 78176  1  0
 78177  1  0
 78178  1  0
 79179  1  0
 80180  1  0
 82181  1  0
 83182  1  0
 86183  1  0
 86184  1  0
 86185  1  0
 87186  1  0
 88187  1  0
 95188  1  0
 96189  1  0
 99190  1  0
 99191  1  0
 99192  1  0
100193  1  0
101194  1  0
103195  1  0
104196  1  0
107197  1  0
107198  1  0
107199  1  0
108200  1  0
109201  1  0
112202  1  0
117203  1  0
120204  1  0
128205  1  0
129206  1  0
130207  1  0
131208  1  0
132209  1  0
133210  1  0
133211  1  0
134212  1  0
M  END

