
     RDKit          3D

224248  0  0  0  0  0  0  0  0999 V2000
   -0.2599    7.8580   -0.0890 C   0  0  0  0  0  0  0  0  0  0  0  0
    0.6772    7.3735   -0.9401 C   0  0  0  0  0  0  0  0  0  0  0  0
    1.0933    5.9597   -0.9719 C   0  0  0  0  0  0  0  0  0  0  0  0
    0.9238    5.1082   -0.0675 O   0  0  0  0  0  0  0  0  0  0  0  0
    1.6662    5.6600   -2.2564 C   0  0  0  0  0  0  0  0  0  0  0  0
    2.0230    4.3728   -2.7186 C   0  0  0  0  0  0  0  0  0  0  0  0
    2.4469    4.3548   -4.0254 C   0  0  0  0  0  0  0  0  0  0  0  0
    2.5468    5.5281   -4.8382 C   0  0  0  0  0  0  0  0  0  0  0  0
    2.1847    6.7930   -4.3954 C   0  0  0  0  0  0  0  0  0  0  0  0
    1.7183    6.8441   -3.0380 C   0  0  0  0  0  0  0  0  0  0  0  0
    1.1673    7.9864   -2.2322 C   0  0  0  0  0  0  0  0  0  0  0  0
    1.0971    9.2943   -2.6028 C   0  0  0  0  0  0  0  0  0  0  0  0
    1.4705    9.7519   -3.9144 C   0  0  0  0  0  0  0  0  0  0  0  0
    1.7399   10.1326   -4.9780 N   0  0  0  0  0  0  0  0  0  0  0  0
    0.5226   10.3066   -1.7610 C   0  0  0  0  0  0  0  0  0  0  0  0
   -0.0114   11.0796   -1.0889 N   0  0  0  0  0  0  0  0  0  0  0  0
    3.0677    4.7060   -5.9834 C   0  0  0  0  0  0  0  0  0  0  0  0
    4.5970    4.7694   -6.2871 C   0  0  0  0  0  0  0  0  0  0  0  0
    5.3718    5.0303   -5.0119 C   0  0  0  0  0  0  0  0  0  0  0  0
    5.2580    3.9285   -4.2674 C   0  0  0  0  0  0  0  0  0  0  0  0
    4.3997    2.9592   -5.0515 C   0  0  0  0  0  0  0  0  0  0  0  0
    4.8950    3.2841   -6.4492 C   0  0  0  0  0  0  0  0  0  0  0  0
    2.9436    3.5036   -5.1518 C   0  0  0  0  0  0  0  0  0  0  0  0
   -1.1960    6.9400    0.5719 C   0  0  0  0  0  0  0  0  0  0  0  0
   -2.0758    6.1572   -0.1921 C   0  0  0  0  0  0  0  0  0  0  0  0
   -2.8668    6.7433   -1.2538 N   0  0  0  0  0  0  0  0  0  0  0  0
   -3.3107    8.1085   -1.0685 C   0  0  0  0  0  0  0  0  0  0  0  0
   -3.8834    8.4957    0.1572 C   0  0  0  0  0  0  0  0  0  0  0  0
   -4.2422    9.8227    0.3824 C   0  0  0  0  0  0  0  0  0  0  0  0
   -4.0388   10.7920   -0.6110 C   0  0  0  0  0  0  0  0  0  0  0  0
   -4.4444   12.2120   -0.3565 C   0  0  0  0  0  0  0  0  0  0  0  0
   -3.5014   10.4017   -1.8510 C   0  0  0  0  0  0  0  0  0  0  0  0
   -3.1287    9.0705   -2.0713 C   0  0  0  0  0  0  0  0  0  0  0  0
   -3.5402    5.9590   -2.2456 C   0  0  0  0  0  0  0  0  0  0  0  0
   -3.1738    6.0831   -3.5913 C   0  0  0  0  0  0  0  0  0  0  0  0
   -3.9938    5.5499   -4.5974 C   0  0  0  0  0  0  0  0  0  0  0  0
   -5.1515    4.8377   -4.2595 C   0  0  0  0  0  0  0  0  0  0  0  0
   -6.0752    4.3460   -5.3339 C   0  0  0  0  0  0  0  0  0  0  0  0
   -5.4989    4.6867   -2.9086 C   0  0  0  0  0  0  0  0  0  0  0  0
   -4.6990    5.2501   -1.9070 C   0  0  0  0  0  0  0  0  0  0  0  0
   -2.3671    4.9617    0.4613 C   0  0  0  0  0  0  0  0  0  0  0  0
   -2.5331    3.4014   -0.1460 S   0  0  0  0  0  0  0  0  0  0  0  0
   -2.0592    2.6096    1.2810 C   0  0  0  0  0  0  0  0  0  0  0  0
   -1.7221    3.5902    2.2303 C   0  0  0  0  0  0  0  0  0  0  0  0
   -1.5894    3.3362    3.6384 N   0  0  0  0  0  0  0  0  0  0  0  0
   -0.2956    3.2031    4.2889 C   0  0  0  0  0  0  0  0  0  0  0  0
   -0.2074    2.6120    5.5643 C   0  0  0  0  0  0  0  0  0  0  0  0
    1.0347    2.4237    6.1766 C   0  0  0  0  0  0  0  0  0  0  0  0
    2.2109    2.8210    5.5349 C   0  0  0  0  0  0  0  0  0  0  0  0
    3.5398    2.5749    6.1885 C   0  0  0  0  0  0  0  0  0  0  0  0
    2.1351    3.4017    4.2600 C   0  0  0  0  0  0  0  0  0  0  0  0
    0.8942    3.5962    3.6459 C   0  0  0  0  0  0  0  0  0  0  0  0
   -2.7955    3.4650    4.4180 C   0  0  0  0  0  0  0  0  0  0  0  0
   -2.9075    4.4600    5.3973 C   0  0  0  0  0  0  0  0  0  0  0  0
   -4.1092    4.6320    6.0947 C   0  0  0  0  0  0  0  0  0  0  0  0
   -5.2108    3.8061    5.8208 C   0  0  0  0  0  0  0  0  0  0  0  0
   -6.5162    4.0297    6.5308 C   0  0  0  0  0  0  0  0  0  0  0  0
   -5.1009    2.8175    4.8298 C   0  0  0  0  0  0  0  0  0  0  0  0
   -3.9024    2.6508    4.1323 C   0  0  0  0  0  0  0  0  0  0  0  0
   -1.8642    4.8743    1.7309 C   0  0  0  0  0  0  0  0  0  0  0  0
   -0.9095    6.2168    2.0726 S   0  0  0  0  0  0  0  0  0  0  0  0
   -1.5272    1.2362    1.3427 C   0  0  0  0  0  0  0  0  0  0  0  0
   -2.0807    0.0258    0.8718 C   0  0  0  0  0  0  0  0  0  0  0  0
   -3.2401   -0.0936    0.0271 N   0  0  0  0  0  0  0  0  0  0  0  0
   -3.1570    0.3789   -1.3325 C   0  0  0  0  0  0  0  0  0  0  0  0
   -4.2665    0.9955   -1.9371 C   0  0  0  0  0  0  0  0  0  0  0  0
   -4.1862    1.4352   -3.2614 C   0  0  0  0  0  0  0  0  0  0  0  0
   -3.0124    1.2418   -4.0014 C   0  0  0  0  0  0  0  0  0  0  0  0
   -2.9386    1.7737   -5.7161 S   0  0  0  0  0  0  0  0  0  0  0  0
   -1.7664    3.1358   -5.4004 C   0  0  0  0  0  0  0  0  0  0  0  0
   -1.9162    0.6050   -3.4122 C   0  0  0  0  0  0  0  0  0  0  0  0
   -1.9847    0.1898   -2.0848 C   0  0  0  0  0  0  0  0  0  0  0  0
   -4.2040   -1.1201    0.3476 C   0  0  0  0  0  0  0  0  0  0  0  0
   -4.8449   -1.1035    1.5966 C   0  0  0  0  0  0  0  0  0  0  0  0
   -5.7007   -2.1494    1.9664 C   0  0  0  0  0  0  0  0  0  0  0  0
   -5.8952   -3.2343    1.1012 C   0  0  0  0  0  0  0  0  0  0  0  0
   -6.8706   -4.6437    1.6338 S   0  0  0  0  0  0  0  0  0  0  0  0
   -8.3911   -4.0859    0.8001 C   0  0  0  0  0  0  0  0  0  0  0  0
   -5.2695   -3.2514   -0.1503 C   0  0  0  0  0  0  0  0  0  0  0  0
   -4.4392   -2.1944   -0.5348 C   0  0  0  0  0  0  0  0  0  0  0  0
   -1.2466   -1.0546    1.1852 C   0  0  0  0  0  0  0  0  0  0  0  0
   -1.3611   -2.7225    1.0570 S   0  0  0  0  0  0  0  0  0  0  0  0
    0.1563   -3.0181    1.7787 C   0  0  0  0  0  0  0  0  0  0  0  0
    0.7577   -1.7940    2.1214 C   0  0  0  0  0  0  0  0  0  0  0  0
    2.0492   -1.6184    2.7539 N   0  0  0  0  0  0  0  0  0  0  0  0
    2.9298   -0.5794    2.2684 C   0  0  0  0  0  0  0  0  0  0  0  0
    3.6703    0.2105    3.1668 C   0  0  0  0  0  0  0  0  0  0  0  0
    4.4599    1.2627    2.7019 C   0  0  0  0  0  0  0  0  0  0  0  0
    4.5151    1.5503    1.3345 C   0  0  0  0  0  0  0  0  0  0  0  0
    5.5161    2.9085    0.7306 S   0  0  0  0  0  0  0  0  0  0  0  0
    7.0306    1.9041    0.6146 C   0  0  0  0  0  0  0  0  0  0  0  0
    3.7888    0.7671    0.4311 C   0  0  0  0  0  0  0  0  0  0  0  0
    3.0058   -0.2926    0.8928 C   0  0  0  0  0  0  0  0  0  0  0  0
    2.4186   -2.4297    3.8929 C   0  0  0  0  0  0  0  0  0  0  0  0
    3.7327   -2.9122    4.0247 C   0  0  0  0  0  0  0  0  0  0  0  0
    4.0587   -3.8132    5.0432 C   0  0  0  0  0  0  0  0  0  0  0  0
    3.0786   -4.2229    5.9514 C   0  0  0  0  0  0  0  0  0  0  0  0
    3.4758   -5.4323    7.2171 S   0  0  0  0  0  0  0  0  0  0  0  0
    4.0322   -4.1738    8.4104 C   0  0  0  0  0  0  0  0  0  0  0  0
    1.7814   -3.7115    5.8600 C   0  0  0  0  0  0  0  0  0  0  0  0
    1.4520   -2.8095    4.8438 C   0  0  0  0  0  0  0  0  0  0  0  0
   -0.0767   -0.7330    1.7864 C   0  0  0  0  0  0  0  0  0  0  0  0
   -0.0126    0.9062    2.0454 S   0  0  0  0  0  0  0  0  0  0  0  0
    0.5790   -4.3489    2.2200 C   0  0  0  0  0  0  0  0  0  0  0  0
    2.1245   -5.0445    1.9754 S   0  0  0  0  0  0  0  0  0  0  0  0
    1.7418   -6.3874    2.9034 C   0  0  0  0  0  0  0  0  0  0  0  0
    2.1465   -7.6889    2.9804 C   0  0  0  0  0  0  0  0  0  0  0  0
    1.0544   -8.4034    3.3848 C   0  0  0  0  0  0  0  0  0  0  0  0
   -0.0192   -7.5977    3.6179 N   0  0  0  0  0  0  0  0  0  0  0  0
   -1.4172   -8.0031    3.7575 C   0  0  0  0  0  0  0  0  0  0  0  0
   -2.0903   -8.1253    2.3929 C   0  0  0  0  0  0  0  0  0  0  0  0
    0.4439   -6.3645    3.2977 C   0  0  0  0  0  0  0  0  0  0  0  0
   -0.2532   -5.2211    2.9307 C   0  0  0  0  0  0  0  0  0  0  0  0
    1.0808   -9.7510    3.0259 C   0  0  0  0  0  0  0  0  0  0  0  0
    2.2536  -10.0448    2.3121 C   0  0  0  0  0  0  0  0  0  0  0  0
    3.1937   -8.6352    2.0917 S   0  0  0  0  0  0  0  0  0  0  0  0
    2.4060  -11.2147    1.4414 C   0  0  0  0  0  0  0  0  0  0  0  0
    2.0805  -11.1479    0.1390 C   0  0  0  0  0  0  0  0  0  0  0  0
    1.4979   -9.9740   -0.5241 C   0  0  0  0  0  0  0  0  0  0  0  0
    0.7809   -9.0888    0.0131 O   0  0  0  0  0  0  0  0  0  0  0  0
    1.9157   -9.9669   -1.9051 C   0  0  0  0  0  0  0  0  0  0  0  0
    1.7778   -8.9045   -2.8239 C   0  0  0  0  0  0  0  0  0  0  0  0
    2.4628   -9.1039   -4.0022 C   0  0  0  0  0  0  0  0  0  0  0  0
    3.2571  -10.2684   -4.2695 C   0  0  0  0  0  0  0  0  0  0  0  0
    3.3833  -11.3189   -3.3755 C   0  0  0  0  0  0  0  0  0  0  0  0
    2.6630  -11.1468   -2.1615 C   0  0  0  0  0  0  0  0  0  0  0  0
    2.6543  -12.0004   -0.9438 C   0  0  0  0  0  0  0  0  0  0  0  0
    2.8809  -13.3347   -0.8819 C   0  0  0  0  0  0  0  0  0  0  0  0
    2.5981  -14.1005    0.3098 C   0  0  0  0  0  0  0  0  0  0  0  0
    2.3657  -14.7216    1.2605 N   0  0  0  0  0  0  0  0  0  0  0  0
    3.2361  -14.0999   -2.0433 C   0  0  0  0  0  0  0  0  0  0  0  0
    3.5232  -14.7366   -2.9696 N   0  0  0  0  0  0  0  0  0  0  0  0
    3.6655   -9.7018   -5.5973 C   0  0  0  0  0  0  0  0  0  0  0  0
    2.9950  -10.3301   -6.8553 C   0  0  0  0  0  0  0  0  0  0  0  0
    3.2452   -9.3592   -7.9854 C   0  0  0  0  0  0  0  0  0  0  0  0
    2.4794   -8.2858   -7.7367 C   0  0  0  0  0  0  0  0  0  0  0  0
    1.7571   -8.5629   -6.4433 C   0  0  0  0  0  0  0  0  0  0  0  0
    1.5168  -10.0530   -6.6313 C   0  0  0  0  0  0  0  0  0  0  0  0
    2.8402   -8.5165   -5.3260 C   0  0  0  0  0  0  0  0  0  0  0  0
   -0.5910    8.8726   -0.1118 H   0  0  0  0  0  0  0  0  0  0  0  0
    1.9586    3.4758   -2.1107 H   0  0  0  0  0  0  0  0  0  0  0  0
    2.2301    7.6322   -5.0568 H   0  0  0  0  0  0  0  0  0  0  0  0
    2.4105    4.6858   -6.8834 H   0  0  0  0  0  0  0  0  0  0  0  0
    4.8872    5.4073   -7.1492 H   0  0  0  0  0  0  0  0  0  0  0  0
    5.9662    5.9078   -4.7744 H   0  0  0  0  0  0  0  0  0  0  0  0
    5.7434    3.7543   -3.3120 H   0  0  0  0  0  0  0  0  0  0  0  0
    4.4920    1.8969   -4.7432 H   0  0  0  0  0  0  0  0  0  0  0  0
    5.9829    3.0683   -6.5990 H   0  0  0  0  0  0  0  0  0  0  0  0
    4.3020    2.7901   -7.2591 H   0  0  0  0  0  0  0  0  0  0  0  0
    2.1975    2.7622   -5.5203 H   0  0  0  0  0  0  0  0  0  0  0  0
   -4.0409    7.7640    0.9378 H   0  0  0  0  0  0  0  0  0  0  0  0
   -4.6726   10.0938    1.3384 H   0  0  0  0  0  0  0  0  0  0  0  0
   -3.9684   12.9003   -1.0849 H   0  0  0  0  0  0  0  0  0  0  0  0
   -4.1363   12.5206    0.6640 H   0  0  0  0  0  0  0  0  0  0  0  0
   -5.5462   12.2970   -0.4419 H   0  0  0  0  0  0  0  0  0  0  0  0
   -3.3561   11.1268   -2.6415 H   0  0  0  0  0  0  0  0  0  0  0  0
   -2.6849    8.7984   -3.0194 H   0  0  0  0  0  0  0  0  0  0  0  0
   -2.2871    6.6395   -3.8710 H   0  0  0  0  0  0  0  0  0  0  0  0
   -3.7329    5.7118   -5.6384 H   0  0  0  0  0  0  0  0  0  0  0  0
   -5.5106    4.1199   -6.2660 H   0  0  0  0  0  0  0  0  0  0  0  0
   -6.5958    3.4165   -5.0141 H   0  0  0  0  0  0  0  0  0  0  0  0
   -6.8322    5.1294   -5.5489 H   0  0  0  0  0  0  0  0  0  0  0  0
   -6.4016    4.1578   -2.6250 H   0  0  0  0  0  0  0  0  0  0  0  0
   -5.0027    5.1628   -0.8740 H   0  0  0  0  0  0  0  0  0  0  0  0
   -1.0949    2.2670    6.0785 H   0  0  0  0  0  0  0  0  0  0  0  0
    1.0770    1.9513    7.1525 H   0  0  0  0  0  0  0  0  0  0  0  0
    4.3385    3.1958    5.7247 H   0  0  0  0  0  0  0  0  0  0  0  0
    3.8171    1.5058    6.0862 H   0  0  0  0  0  0  0  0  0  0  0  0
    3.4909    2.8272    7.2703 H   0  0  0  0  0  0  0  0  0  0  0  0
    3.0355    3.6888    3.7359 H   0  0  0  0  0  0  0  0  0  0  0  0
    0.8771    4.0293    2.6539 H   0  0  0  0  0  0  0  0  0  0  0  0
   -2.0675    5.1161    5.6119 H   0  0  0  0  0  0  0  0  0  0  0  0
   -4.1878    5.4146    6.8393 H   0  0  0  0  0  0  0  0  0  0  0  0
   -7.1625    3.1241    6.4735 H   0  0  0  0  0  0  0  0  0  0  0  0
   -7.0517    4.8842    6.0642 H   0  0  0  0  0  0  0  0  0  0  0  0
   -6.3339    4.2576    7.6013 H   0  0  0  0  0  0  0  0  0  0  0  0
   -5.9390    2.1804    4.5848 H   0  0  0  0  0  0  0  0  0  0  0  0
   -3.8386    1.8847    3.3697 H   0  0  0  0  0  0  0  0  0  0  0  0
   -5.1804    1.1398   -1.3767 H   0  0  0  0  0  0  0  0  0  0  0  0
   -5.0468    1.8979   -3.7241 H   0  0  0  0  0  0  0  0  0  0  0  0
   -1.8491    3.8853   -6.2138 H   0  0  0  0  0  0  0  0  0  0  0  0
   -0.7298    2.7363   -5.3879 H   0  0  0  0  0  0  0  0  0  0  0  0
   -1.9750    3.6279   -4.4262 H   0  0  0  0  0  0  0  0  0  0  0  0
   -1.0107    0.4388   -3.9782 H   0  0  0  0  0  0  0  0  0  0  0  0
   -1.1223   -0.3051   -1.6486 H   0  0  0  0  0  0  0  0  0  0  0  0
   -4.6725   -0.2822    2.2835 H   0  0  0  0  0  0  0  0  0  0  0  0
   -6.1823   -2.1310    2.9376 H   0  0  0  0  0  0  0  0  0  0  0  0
   -9.2314   -4.7564    1.0757 H   0  0  0  0  0  0  0  0  0  0  0  0
   -8.6392   -3.0521    1.1196 H   0  0  0  0  0  0  0  0  0  0  0  0
   -8.2454   -4.1155   -0.3006 H   0  0  0  0  0  0  0  0  0  0  0  0
   -5.3981   -4.0973   -0.8183 H   0  0  0  0  0  0  0  0  0  0  0  0
   -3.9352   -2.2424   -1.4906 H   0  0  0  0  0  0  0  0  0  0  0  0
    3.6212    0.0153    4.2294 H   0  0  0  0  0  0  0  0  0  0  0  0
    5.0207    1.8615    3.4091 H   0  0  0  0  0  0  0  0  0  0  0  0
    6.8434    0.9798    0.0274 H   0  0  0  0  0  0  0  0  0  0  0  0
    7.8205    2.4987    0.1093 H   0  0  0  0  0  0  0  0  0  0  0  0
    7.3806    1.6345    1.6336 H   0  0  0  0  0  0  0  0  0  0  0  0
    3.8195    0.9886   -0.6316 H   0  0  0  0  0  0  0  0  0  0  0  0
    2.4476   -0.8823    0.1735 H   0  0  0  0  0  0  0  0  0  0  0  0
    4.4928   -2.6374    3.3044 H   0  0  0  0  0  0  0  0  0  0  0  0
    5.0671   -4.2010    5.1077 H   0  0  0  0  0  0  0  0  0  0  0  0
    4.9370   -3.6575    8.0255 H   0  0  0  0  0  0  0  0  0  0  0  0
    4.2844   -4.6753    9.3678 H   0  0  0  0  0  0  0  0  0  0  0  0
    3.2253   -3.4324    8.5927 H   0  0  0  0  0  0  0  0  0  0  0  0
    1.0192   -4.0270    6.5649 H   0  0  0  0  0  0  0  0  0  0  0  0
    0.4394   -2.4354    4.7737 H   0  0  0  0  0  0  0  0  0  0  0  0
   -1.4697   -8.9787    4.2889 H   0  0  0  0  0  0  0  0  0  0  0  0
   -1.9568   -7.2516    4.3699 H   0  0  0  0  0  0  0  0  0  0  0  0
   -3.1524   -8.4157    2.5300 H   0  0  0  0  0  0  0  0  0  0  0  0
   -2.0624   -7.1563    1.8545 H   0  0  0  0  0  0  0  0  0  0  0  0
   -1.5807   -8.8957    1.7771 H   0  0  0  0  0  0  0  0  0  0  0  0
   -1.2983   -5.0503    3.1281 H   0  0  0  0  0  0  0  0  0  0  0  0
    0.2341  -10.4190    3.1025 H   0  0  0  0  0  0  0  0  0  0  0  0
    3.0227  -12.0244    1.8141 H   0  0  0  0  0  0  0  0  0  0  0  0
    1.2466   -7.9924   -2.6001 H   0  0  0  0  0  0  0  0  0  0  0  0
    4.0445  -12.1506   -3.5786 H   0  0  0  0  0  0  0  0  0  0  0  0
    4.7572   -9.4917   -5.6829 H   0  0  0  0  0  0  0  0  0  0  0  0
    3.2605  -11.3853   -7.0660 H   0  0  0  0  0  0  0  0  0  0  0  0
    3.8418   -9.5237   -8.8746 H   0  0  0  0  0  0  0  0  0  0  0  0
    2.3642   -7.4271   -8.3885 H   0  0  0  0  0  0  0  0  0  0  0  0
    0.8461   -7.9481   -6.2676 H   0  0  0  0  0  0  0  0  0  0  0  0
    1.0878  -10.5632   -5.7400 H   0  0  0  0  0  0  0  0  0  0  0  0
    0.8780  -10.2912   -7.5143 H   0  0  0  0  0  0  0  0  0  0  0  0
    3.4096   -7.5645   -5.2459 H   0  0  0  0  0  0  0  0  0  0  0  0
  1  2  2  3
  2  3  1  0
  3  4  2  0
  3  5  1  0
  5  6  2  0
  6  7  1  0
  7  8  2  0
  8  9  1  0
  9 10  2  0
 10 11  1  0
 11 12  2  3
 12 13  1  0
 13 14  3  0
 12 15  1  0
 15 16  3  0
  8 17  1  0
 17 18  1  0
 18 19  1  0
 19 20  2  0
 20 21  1  0
 21 22  1  0
 21 23  1  0
  1 24  1  0
 24 25  2  0
 25 26  1  0
 26 27  1  0
 27 28  2  0
 28 29  1  0
 29 30  2  0
 30 31  1  0
 30 32  1  0
 32 33  2  0
 26 34  1  0
 34 35  2  0
 35 36  1  0
 36 37  2  0
 37 38  1  0
 37 39  1  0
 39 40  2  0
 25 41  1  0
 41 42  1  0
 42 43  1  0
 43 44  2  0
 44 45  1  0
 45 46  1  0
 46 47  2  0
 47 48  1  0
 48 49  2  0
 49 50  1  0
 49 51  1  0
 51 52  2  0
 45 53  1  0
 53 54  2  0
 54 55  1  0
 55 56  2  0
 56 57  1  0
 56 58  1  0
 58 59  2  0
 44 60  1  0
 60 61  1  0
 43 62  1  0
 62 63  2  0
 63 64  1  0
 64 65  1  0
 65 66  2  0
 66 67  1  0
 67 68  2  0
 68 69  1  0
 69 70  1  0
 68 71  1  0
 71 72  2  0
 64 73  1  0
 73 74  2  0
 74 75  1  0
 75 76  2  0
 76 77  1  0
 77 78  1  0
 76 79  1  0
 79 80  2  0
 63 81  1  0
 81 82  1  0
 82 83  1  0
 83 84  2  0
 84 85  1  0
 85 86  1  0
 86 87  2  0
 87 88  1  0
 88 89  2  0
 89 90  1  0
 90 91  1  0
 89 92  1  0
 92 93  2  0
 85 94  1  0
 94 95  2  0
 95 96  1  0
 96 97  2  0
 97 98  1  0
 98 99  1  0
 97100  1  0
100101  2  0
 84102  1  0
102103  1  0
 83104  1  0
104105  1  0
105106  1  0
106107  1  0
107108  2  0
108109  1  0
109110  1  0
110111  1  0
109112  1  0
112113  1  0
108114  1  0
114115  2  0
115116  1  0
115117  1  0
117118  2  3
118119  1  0
119120  2  0
119121  1  0
121122  2  0
122123  1  0
123124  2  0
124125  1  0
125126  2  0
126127  1  0
127128  2  3
128129  1  0
129130  3  0
128131  1  0
131132  3  0
124133  1  0
133134  1  0
134135  1  0
135136  2  0
136137  1  0
137138  1  0
137139  1  0
 11  2  1  0
 23 17  1  0
 61 24  1  0
103 62  1  0
113104  2  0
127118  1  0
139133  1  0
 10  5  1  0
 22 18  1  0
 33 27  1  0
 40 34  1  0
 60 41  2  0
 72 65  1  0
 80 73  1  0
102 81  2  0
112106  2  0
126121  1  0
138134  1  0
 23  7  1  0
 52 46  1  0
 59 53  1  0
 93 86  1  0
101 94  1  0
116107  1  0
139123  1  0
  1140  1  0
  6141  1  0
  9142  1  0
 17143  1  0
 18144  1  0
 19145  1  0
 20146  1  0
 21147  1  0
 22148  1  0
 22149  1  0
 23150  1  0
 28151  1  0
 29152  1  0
 31153  1  0
 31154  1  0
 31155  1  0
 32156  1  0
 33157  1  0
 35158  1  0
 36159  1  0
 38160  1  0
 38161  1  0
 38162  1  0
 39163  1  0
 40164  1  0
 47165  1  0
 48166  1  0
 50167  1  0
 50168  1  0
 50169  1  0
 51170  1  0
 52171  1  0
 54172  1  0
 55173  1  0
 57174  1  0
 57175  1  0
 57176  1  0
 58177  1  0
 59178  1  0
 66179  1  0
 67180  1  0
 70181  1  0
 70182  1  0
 70183  1  0
 71184  1  0
 72185  1  0
 74186  1  0
 75187  1  0
 78188  1  0
 78189  1  0
 78190  1  0
 79191  1  0
 80192  1  0
 87193  1  0
 88194  1  0
 91195  1  0
 91196  1  0
 91197  1  0
 92198  1  0
 93199  1  0
 95200  1  0
 96201  1  0
 99202  1  0
 99203  1  0
 99204  1  0
100205  1  0
101206  1  0
110207  1  0
110208  1  0
111209  1  0
111210  1  0
111211  1  0
113212  1  0
114213  1  0
117214  1  0
122215  1  0
125216  1  0
133217  1  0
134218  1  0
135219  1  0
136220  1  0
137221  1  0
138222  1  0
138223  1  0
139224  1  0
M  END

