
     RDKit          3D

246272  0  0  0  0  0  0  0  0999 V2000
   -7.1844   -5.2073    3.4483 C   0  0  0  0  0  0  0  0  0  0  0  0
   -6.3667   -6.2807    3.3580 C   0  0  0  0  0  0  0  0  0  0  0  0
   -4.9600   -6.2458    2.9084 C   0  0  0  0  0  0  0  0  0  0  0  0
   -4.3905   -5.3175    2.2784 O   0  0  0  0  0  0  0  0  0  0  0  0
   -4.3116   -7.4665    3.2960 C   0  0  0  0  0  0  0  0  0  0  0  0
   -2.9375   -7.7656    3.1634 C   0  0  0  0  0  0  0  0  0  0  0  0
   -2.5684   -8.9585    3.7526 C   0  0  0  0  0  0  0  0  0  0  0  0
   -3.4956   -9.8159    4.4400 C   0  0  0  0  0  0  0  0  0  0  0  0
   -4.8499   -9.5307    4.5572 C   0  0  0  0  0  0  0  0  0  0  0  0
   -5.2517   -8.3145    3.9303 C   0  0  0  0  0  0  0  0  0  0  0  0
   -6.5960   -7.6628    3.8875 C   0  0  0  0  0  0  0  0  0  0  0  0
   -7.7989   -8.2763    4.0420 C   0  0  0  0  0  0  0  0  0  0  0  0
   -9.0463   -7.6284    3.7322 C   0  0  0  0  0  0  0  0  0  0  0  0
  -10.0524   -7.1171    3.4733 N   0  0  0  0  0  0  0  0  0  0  0  0
   -7.9071   -9.6690    4.3903 C   0  0  0  0  0  0  0  0  0  0  0  0
   -8.0158  -10.7879    4.6641 N   0  0  0  0  0  0  0  0  0  0  0  0
   -2.3725  -10.7438    4.8114 C   0  0  0  0  0  0  0  0  0  0  0  0
   -1.8494  -10.7078    6.2794 C   0  0  0  0  0  0  0  0  0  0  0  0
   -2.0237   -9.3240    6.8597 C   0  0  0  0  0  0  0  0  0  0  0  0
   -1.1755   -8.5286    6.2075 C   0  0  0  0  0  0  0  0  0  0  0  0
   -0.4510   -9.3974    5.2024 C   0  0  0  0  0  0  0  0  0  0  0  0
   -0.3509  -10.6717    6.0232 C   0  0  0  0  0  0  0  0  0  0  0  0
   -1.4360   -9.8697    4.0972 C   0  0  0  0  0  0  0  0  0  0  0  0
   -6.7085   -3.8692    3.0908 C   0  0  0  0  0  0  0  0  0  0  0  0
   -6.6823   -3.3664    1.7799 C   0  0  0  0  0  0  0  0  0  0  0  0
   -7.7159   -3.6110    0.8183 N   0  0  0  0  0  0  0  0  0  0  0  0
   -9.0090   -2.9986    1.0280 C   0  0  0  0  0  0  0  0  0  0  0  0
   -9.1140   -1.7295    1.6225 C   0  0  0  0  0  0  0  0  0  0  0  0
  -10.3641   -1.1493    1.8479 C   0  0  0  0  0  0  0  0  0  0  0  0
  -11.5352   -1.8295    1.5004 C   0  0  0  0  0  0  0  0  0  0  0  0
  -12.8705   -1.1824    1.7048 C   0  0  0  0  0  0  0  0  0  0  0  0
  -11.4396   -3.0962    0.8904 C   0  0  0  0  0  0  0  0  0  0  0  0
  -10.1898   -3.6746    0.6599 C   0  0  0  0  0  0  0  0  0  0  0  0
   -7.4069   -4.3172   -0.3992 C   0  0  0  0  0  0  0  0  0  0  0  0
   -7.8137   -3.8109   -1.6464 C   0  0  0  0  0  0  0  0  0  0  0  0
   -7.4858   -4.4875   -2.8260 C   0  0  0  0  0  0  0  0  0  0  0  0
   -6.7314   -5.6663   -2.7765 C   0  0  0  0  0  0  0  0  0  0  0  0
   -6.3898   -6.4011   -4.0418 C   0  0  0  0  0  0  0  0  0  0  0  0
   -6.3439   -6.1875   -1.5381 C   0  0  0  0  0  0  0  0  0  0  0  0
   -6.6764   -5.5109   -0.3574 C   0  0  0  0  0  0  0  0  0  0  0  0
   -5.7021   -2.3906    1.6310 C   0  0  0  0  0  0  0  0  0  0  0  0
   -5.1451   -1.4428    0.3621 S   0  0  0  0  0  0  0  0  0  0  0  0
   -3.9426   -0.6838    1.3068 C   0  0  0  0  0  0  0  0  0  0  0  0
   -4.0018   -1.1696    2.6284 C   0  0  0  0  0  0  0  0  0  0  0  0
   -3.4029   -0.5315    3.7734 N   0  0  0  0  0  0  0  0  0  0  0  0
   -4.0921    0.6545    4.2062 C   0  0  0  0  0  0  0  0  0  0  0  0
   -5.1601    0.5442    5.1166 C   0  0  0  0  0  0  0  0  0  0  0  0
   -5.8997    1.6692    5.4759 C   0  0  0  0  0  0  0  0  0  0  0  0
   -5.5959    2.9208    4.9178 C   0  0  0  0  0  0  0  0  0  0  0  0
   -6.4060    4.1211    5.3042 C   0  0  0  0  0  0  0  0  0  0  0  0
   -4.5124    3.0364    4.0319 C   0  0  0  0  0  0  0  0  0  0  0  0
   -3.7637    1.9092    3.6798 C   0  0  0  0  0  0  0  0  0  0  0  0
   -2.6417   -1.3011    4.7462 C   0  0  0  0  0  0  0  0  0  0  0  0
   -2.3276   -2.6588    4.5255 C   0  0  0  0  0  0  0  0  0  0  0  0
   -1.6172   -3.3967    5.4838 C   0  0  0  0  0  0  0  0  0  0  0  0
   -1.1594   -2.7780    6.6521 C   0  0  0  0  0  0  0  0  0  0  0  0
   -0.4009   -3.5715    7.6758 C   0  0  0  0  0  0  0  0  0  0  0  0
   -1.4536   -1.4291    6.8769 C   0  0  0  0  0  0  0  0  0  0  0  0
   -2.1736   -0.6928    5.9318 C   0  0  0  0  0  0  0  0  0  0  0  0
   -5.0054   -2.1180    2.7537 C   0  0  0  0  0  0  0  0  0  0  0  0
   -5.5596   -3.0481    4.0326 S   0  0  0  0  0  0  0  0  0  0  0  0
   -2.9307    0.2571    0.7774 C   0  0  0  0  0  0  0  0  0  0  0  0
   -1.5578    0.2058    1.0773 C   0  0  0  0  0  0  0  0  0  0  0  0
   -0.8574   -1.0162    1.3955 N   0  0  0  0  0  0  0  0  0  0  0  0
   -0.1300   -1.1170    2.6509 C   0  0  0  0  0  0  0  0  0  0  0  0
    0.4021   -2.3633    3.0480 C   0  0  0  0  0  0  0  0  0  0  0  0
    1.2540   -2.4511    4.1516 C   0  0  0  0  0  0  0  0  0  0  0  0
    1.5589   -1.3056    4.8941 C   0  0  0  0  0  0  0  0  0  0  0  0
    2.7073   -1.4027    6.2682 S   0  0  0  0  0  0  0  0  0  0  0  0
    4.1599   -1.0736    5.2213 C   0  0  0  0  0  0  0  0  0  0  0  0
    0.9735   -0.0812    4.5587 C   0  0  0  0  0  0  0  0  0  0  0  0
    0.1375    0.0182    3.4471 C   0  0  0  0  0  0  0  0  0  0  0  0
   -0.3820   -1.7598    0.2416 C   0  0  0  0  0  0  0  0  0  0  0  0
    0.9971   -1.9890    0.0583 C   0  0  0  0  0  0  0  0  0  0  0  0
    1.4788   -2.5326   -1.1348 C   0  0  0  0  0  0  0  0  0  0  0  0
    0.6048   -2.7891   -2.1884 C   0  0  0  0  0  0  0  0  0  0  0  0
    1.2551   -3.3326   -3.7689 S   0  0  0  0  0  0  0  0  0  0  0  0
    2.0045   -1.7173   -4.1728 C   0  0  0  0  0  0  0  0  0  0  0  0
   -0.7708   -2.5845   -2.0186 C   0  0  0  0  0  0  0  0  0  0  0  0
   -1.2612   -2.0917   -0.8129 C   0  0  0  0  0  0  0  0  0  0  0  0
   -0.8877    1.2249    0.4264 C   0  0  0  0  0  0  0  0  0  0  0  0
    0.7403    1.4934    0.2535 S   0  0  0  0  0  0  0  0  0  0  0  0
    0.5704    2.5903   -1.0170 C   0  0  0  0  0  0  0  0  0  0  0  0
   -0.7912    2.7269   -1.3477 C   0  0  0  0  0  0  0  0  0  0  0  0
   -1.2680    3.2435   -2.6046 N   0  0  0  0  0  0  0  0  0  0  0  0
   -2.0343    4.4749   -2.6784 C   0  0  0  0  0  0  0  0  0  0  0  0
   -2.6640    5.0132   -1.5412 C   0  0  0  0  0  0  0  0  0  0  0  0
   -3.4527    6.1643   -1.6484 C   0  0  0  0  0  0  0  0  0  0  0  0
   -3.6099    6.7993   -2.8828 C   0  0  0  0  0  0  0  0  0  0  0  0
   -4.6661    8.2412   -3.0202 S   0  0  0  0  0  0  0  0  0  0  0  0
   -6.1418    7.2661   -3.4508 C   0  0  0  0  0  0  0  0  0  0  0  0
   -2.9528    6.2991   -4.0106 C   0  0  0  0  0  0  0  0  0  0  0  0
   -2.1657    5.1498   -3.9124 C   0  0  0  0  0  0  0  0  0  0  0  0
   -1.2334    2.3593   -3.7422 C   0  0  0  0  0  0  0  0  0  0  0  0
   -2.4239    1.7964   -4.2265 C   0  0  0  0  0  0  0  0  0  0  0  0
   -2.4156    0.9955   -5.3691 C   0  0  0  0  0  0  0  0  0  0  0  0
   -1.2179    0.7693   -6.0595 C   0  0  0  0  0  0  0  0  0  0  0  0
   -1.2219   -0.1845   -7.5884 S   0  0  0  0  0  0  0  0  0  0  0  0
   -0.9054   -1.7618   -6.7364 C   0  0  0  0  0  0  0  0  0  0  0  0
   -0.0308    1.3362   -5.5877 C   0  0  0  0  0  0  0  0  0  0  0  0
   -0.0382    2.1300   -4.4358 C   0  0  0  0  0  0  0  0  0  0  0  0
   -1.5853    1.9450   -0.4828 C   0  0  0  0  0  0  0  0  0  0  0  0
   -3.1857    1.4291   -0.4449 S   0  0  0  0  0  0  0  0  0  0  0  0
    1.7616    3.1765   -1.6400 C   0  0  0  0  0  0  0  0  0  0  0  0
    1.8763    4.4083   -2.2928 C   0  0  0  0  0  0  0  0  0  0  0  0
    3.2184    4.7593   -2.5477 C   0  0  0  0  0  0  0  0  0  0  0  0
    3.6961    5.9472   -3.1586 C   0  0  0  0  0  0  0  0  0  0  0  0
    2.7737    6.9107   -3.8034 C   0  0  0  0  0  0  0  0  0  0  0  0
    1.6877    6.5710   -4.6097 C   0  0  0  0  0  0  0  0  0  0  0  0
    0.9558    7.6829   -5.0379 C   0  0  0  0  0  0  0  0  0  0  0  0
   -0.1628    7.5677   -5.8037 F   0  0  0  0  0  0  0  0  0  0  0  0
    1.4602    8.8962   -4.5976 C   0  0  0  0  0  0  0  0  0  0  0  0
    0.8371   10.2365   -4.8182 C   0  0  0  0  0  0  0  0  0  0  0  0
   -0.1776   10.5495   -3.7260 C   0  0  0  0  0  0  0  0  0  0  0  0
    2.8081    8.5918   -3.6332 S   0  0  0  0  0  0  0  0  0  0  0  0
    5.0969    6.1480   -3.1509 C   0  0  0  0  0  0  0  0  0  0  0  0
    5.9782    5.1988   -2.6104 C   0  0  0  0  0  0  0  0  0  0  0  0
    5.5076    3.9928   -2.0681 C   0  0  0  0  0  0  0  0  0  0  0  0
    6.4196    2.9708   -1.5134 C   0  0  0  0  0  0  0  0  0  0  0  0
    6.3870    2.3739    0.0623 S   0  0  0  0  0  0  0  0  0  0  0  0
    7.7173    1.3523   -0.0963 C   0  0  0  0  0  0  0  0  0  0  0  0
    8.2670    0.4585    0.9790 C   0  0  0  0  0  0  0  0  0  0  0  0
    8.6468    1.2664    2.2146 C   0  0  0  0  0  0  0  0  0  0  0  0
    8.1958    1.4610   -1.3960 C   0  0  0  0  0  0  0  0  0  0  0  0
    7.4851    2.3767   -2.1899 C   0  0  0  0  0  0  0  0  0  0  0  0
    9.2681    0.7634   -1.8537 F   0  0  0  0  0  0  0  0  0  0  0  0
    4.1223    3.8167   -2.0513 C   0  0  0  0  0  0  0  0  0  0  0  0
    3.2913    2.5376   -1.3850 S   0  0  0  0  0  0  0  0  0  0  0  0
    7.3232    5.5870   -2.6586 C   0  0  0  0  0  0  0  0  0  0  0  0
    7.5110    6.8142   -3.2671 C   0  0  0  0  0  0  0  0  0  0  0  0
    6.0164    7.4475   -3.7409 S   0  0  0  0  0  0  0  0  0  0  0  0
    8.8542    7.3605   -3.5074 C   0  0  0  0  0  0  0  0  0  0  0  0
    9.6241    6.8190   -4.4685 C   0  0  0  0  0  0  0  0  0  0  0  0
    9.0676    6.0944   -5.6097 C   0  0  0  0  0  0  0  0  0  0  0  0
    7.9846    6.3622   -6.1974 O   0  0  0  0  0  0  0  0  0  0  0  0
    9.9637    5.0249   -5.9695 C   0  0  0  0  0  0  0  0  0  0  0  0
    9.7008    3.9775   -6.8807 C   0  0  0  0  0  0  0  0  0  0  0  0
   10.6372    2.9635   -6.8539 C   0  0  0  0  0  0  0  0  0  0  0  0
   11.7753    2.9663   -5.9807 C   0  0  0  0  0  0  0  0  0  0  0  0
   12.0527    4.0010   -5.1002 C   0  0  0  0  0  0  0  0  0  0  0  0
   11.1027    5.0668   -5.1203 C   0  0  0  0  0  0  0  0  0  0  0  0
   11.0041    6.2765   -4.2520 C   0  0  0  0  0  0  0  0  0  0  0  0
   11.9917    6.8450   -3.5175 C   0  0  0  0  0  0  0  0  0  0  0  0
   13.3178    6.3008   -3.4345 C   0  0  0  0  0  0  0  0  0  0  0  0
   14.3863    5.8601   -3.3245 N   0  0  0  0  0  0  0  0  0  0  0  0
   11.8180    8.1181   -2.8592 C   0  0  0  0  0  0  0  0  0  0  0  0
   11.6887    9.1351   -2.3185 N   0  0  0  0  0  0  0  0  0  0  0  0
   12.1767    1.6069   -6.4853 C   0  0  0  0  0  0  0  0  0  0  0  0
   13.3962    1.5066   -7.4505 C   0  0  0  0  0  0  0  0  0  0  0  0
   13.5031    2.7732   -8.2594 C   0  0  0  0  0  0  0  0  0  0  0  0
   12.4525    2.7877   -9.0883 C   0  0  0  0  0  0  0  0  0  0  0  0
   11.6597    1.5279   -8.8058 C   0  0  0  0  0  0  0  0  0  0  0  0
   12.8105    0.5846   -8.5125 C   0  0  0  0  0  0  0  0  0  0  0  0
   11.0187    1.6153   -7.3873 C   0  0  0  0  0  0  0  0  0  0  0  0
   -8.1417   -5.2748    3.9389 H   0  0  0  0  0  0  0  0  0  0  0  0
   -2.2230   -7.0895    2.7125 H   0  0  0  0  0  0  0  0  0  0  0  0
   -5.5013  -10.1754    5.1285 H   0  0  0  0  0  0  0  0  0  0  0  0
   -2.4624  -11.7599    4.3638 H   0  0  0  0  0  0  0  0  0  0  0  0
   -2.1996  -11.5395    6.9261 H   0  0  0  0  0  0  0  0  0  0  0  0
   -2.6600   -9.0341    7.6938 H   0  0  0  0  0  0  0  0  0  0  0  0
   -1.0023   -7.4759    6.4123 H   0  0  0  0  0  0  0  0  0  0  0  0
    0.5138   -8.9875    4.8399 H   0  0  0  0  0  0  0  0  0  0  0  0
    0.2567  -10.5573    6.9510 H   0  0  0  0  0  0  0  0  0  0  0  0
    0.0248  -11.5462    5.4368 H   0  0  0  0  0  0  0  0  0  0  0  0
   -0.9594  -10.3515    3.2104 H   0  0  0  0  0  0  0  0  0  0  0  0
   -8.2310   -1.1699    1.9052 H   0  0  0  0  0  0  0  0  0  0  0  0
  -10.4140   -0.1606    2.2919 H   0  0  0  0  0  0  0  0  0  0  0  0
  -13.1116   -0.5336    0.8358 H   0  0  0  0  0  0  0  0  0  0  0  0
  -12.8596   -0.5629    2.6236 H   0  0  0  0  0  0  0  0  0  0  0  0
  -13.6662   -1.9468    1.8182 H   0  0  0  0  0  0  0  0  0  0  0  0
  -12.3371   -3.6273    0.5965 H   0  0  0  0  0  0  0  0  0  0  0  0
  -10.1396   -4.6620    0.2124 H   0  0  0  0  0  0  0  0  0  0  0  0
   -8.3784   -2.8855   -1.6992 H   0  0  0  0  0  0  0  0  0  0  0  0
   -7.8125   -4.0788   -3.7754 H   0  0  0  0  0  0  0  0  0  0  0  0
   -7.2215   -7.0868   -4.3006 H   0  0  0  0  0  0  0  0  0  0  0  0
   -6.2350   -5.6831   -4.8761 H   0  0  0  0  0  0  0  0  0  0  0  0
   -5.4599   -6.9934   -3.9119 H   0  0  0  0  0  0  0  0  0  0  0  0
   -5.7850   -7.1127   -1.4725 H   0  0  0  0  0  0  0  0  0  0  0  0
   -6.3825   -5.9329    0.5872 H   0  0  0  0  0  0  0  0  0  0  0  0
   -5.4267   -0.4215    5.5272 H   0  0  0  0  0  0  0  0  0  0  0  0
   -6.7220    1.5662    6.1744 H   0  0  0  0  0  0  0  0  0  0  0  0
   -7.4866    3.8677    5.3141 H   0  0  0  0  0  0  0  0  0  0  0  0
   -6.2552    4.9582    4.5852 H   0  0  0  0  0  0  0  0  0  0  0  0
   -6.1039    4.4586    6.3168 H   0  0  0  0  0  0  0  0  0  0  0  0
   -4.2641    3.9971    3.5896 H   0  0  0  0  0  0  0  0  0  0  0  0
   -2.9346    2.0134    2.9899 H   0  0  0  0  0  0  0  0  0  0  0  0
   -2.6074   -3.1601    3.6109 H   0  0  0  0  0  0  0  0  0  0  0  0
   -1.3931   -4.4341    5.2844 H   0  0  0  0  0  0  0  0  0  0  0  0
   -1.1158   -4.0356    8.3860 H   0  0  0  0  0  0  0  0  0  0  0  0
    0.2967   -2.9178    8.2373 H   0  0  0  0  0  0  0  0  0  0  0  0
    0.1987   -4.3695    7.1864 H   0  0  0  0  0  0  0  0  0  0  0  0
   -1.1086   -0.9365    7.7793 H   0  0  0  0  0  0  0  0  0  0  0  0
   -2.3501    0.3571    6.1288 H   0  0  0  0  0  0  0  0  0  0  0  0
    0.1847   -3.2567    2.4826 H   0  0  0  0  0  0  0  0  0  0  0  0
    1.6860   -3.4066    4.4183 H   0  0  0  0  0  0  0  0  0  0  0  0
    4.3185   -1.9181    4.5200 H   0  0  0  0  0  0  0  0  0  0  0  0
    5.0562   -0.9682    5.8671 H   0  0  0  0  0  0  0  0  0  0  0  0
    4.0221   -0.1325    4.6488 H   0  0  0  0  0  0  0  0  0  0  0  0
    1.1884    0.8028    5.1451 H   0  0  0  0  0  0  0  0  0  0  0  0
   -0.2659    0.9907    3.1935 H   0  0  0  0  0  0  0  0  0  0  0  0
    1.7150   -1.6977    0.8075 H   0  0  0  0  0  0  0  0  0  0  0  0
    2.5426   -2.6820   -1.2612 H   0  0  0  0  0  0  0  0  0  0  0  0
    2.2856   -1.7014   -5.2444 H   0  0  0  0  0  0  0  0  0  0  0  0
    1.2925   -0.8918   -3.9750 H   0  0  0  0  0  0  0  0  0  0  0  0
    2.9212   -1.5754   -3.5651 H   0  0  0  0  0  0  0  0  0  0  0  0
   -1.4613   -2.7953   -2.8329 H   0  0  0  0  0  0  0  0  0  0  0  0
   -2.3252   -1.9220   -0.7101 H   0  0  0  0  0  0  0  0  0  0  0  0
   -2.5768    4.5345   -0.5758 H   0  0  0  0  0  0  0  0  0  0  0  0
   -3.9619    6.5442   -0.7698 H   0  0  0  0  0  0  0  0  0  0  0  0
   -6.3293    6.4859   -2.6826 H   0  0  0  0  0  0  0  0  0  0  0  0
   -7.0264    7.9397   -3.5006 H   0  0  0  0  0  0  0  0  0  0  0  0
   -6.0000    6.7891   -4.4430 H   0  0  0  0  0  0  0  0  0  0  0  0
   -3.0644    6.8015   -4.9679 H   0  0  0  0  0  0  0  0  0  0  0  0
   -1.6617    4.7828   -4.8013 H   0  0  0  0  0  0  0  0  0  0  0  0
   -3.3584    1.9852   -3.7116 H   0  0  0  0  0  0  0  0  0  0  0  0
   -3.3385    0.5621   -5.7263 H   0  0  0  0  0  0  0  0  0  0  0  0
   -0.9033   -2.5896   -7.4759 H   0  0  0  0  0  0  0  0  0  0  0  0
    0.0848   -1.7293   -6.2430 H   0  0  0  0  0  0  0  0  0  0  0  0
   -1.6946   -1.9565   -5.9805 H   0  0  0  0  0  0  0  0  0  0  0  0
    0.8957    1.1731   -6.1202 H   0  0  0  0  0  0  0  0  0  0  0  0
    0.8860    2.5866   -4.1129 H   0  0  0  0  0  0  0  0  0  0  0  0
    1.0266    5.0487   -2.5006 H   0  0  0  0  0  0  0  0  0  0  0  0
    1.4323    5.5498   -4.8740 H   0  0  0  0  0  0  0  0  0  0  0  0
    1.6276   11.0193   -4.8250 H   0  0  0  0  0  0  0  0  0  0  0  0
    0.3313   10.2522   -5.8087 H   0  0  0  0  0  0  0  0  0  0  0  0
   -0.9915    9.7987   -3.7343 H   0  0  0  0  0  0  0  0  0  0  0  0
    0.3124   10.5505   -2.7295 H   0  0  0  0  0  0  0  0  0  0  0  0
   -0.6225   11.5474   -3.9096 H   0  0  0  0  0  0  0  0  0  0  0  0
    9.1641   -0.0800    0.6020 H   0  0  0  0  0  0  0  0  0  0  0  0
    7.5022   -0.2985    1.2516 H   0  0  0  0  0  0  0  0  0  0  0  0
    9.3270    2.0977    1.9369 H   0  0  0  0  0  0  0  0  0  0  0  0
    9.1624    0.6078    2.9443 H   0  0  0  0  0  0  0  0  0  0  0  0
    7.7397    1.6770    2.7059 H   0  0  0  0  0  0  0  0  0  0  0  0
    7.7336    2.5968   -3.2196 H   0  0  0  0  0  0  0  0  0  0  0  0
    8.1504    4.9962   -2.2697 H   0  0  0  0  0  0  0  0  0  0  0  0
    9.3243    7.7385   -2.6116 H   0  0  0  0  0  0  0  0  0  0  0  0
    8.8130    3.9373   -7.4937 H   0  0  0  0  0  0  0  0  0  0  0  0
   12.8868    3.9473   -4.4193 H   0  0  0  0  0  0  0  0  0  0  0  0
   12.1210    0.8126   -5.7113 H   0  0  0  0  0  0  0  0  0  0  0  0
   14.3410    1.1620   -6.9767 H   0  0  0  0  0  0  0  0  0  0  0  0
   14.3139    3.4892   -8.2504 H   0  0  0  0  0  0  0  0  0  0  0  0
   12.2793    3.5273   -9.8699 H   0  0  0  0  0  0  0  0  0  0  0  0
   10.9723    1.2194   -9.6154 H   0  0  0  0  0  0  0  0  0  0  0  0
   13.4969    0.4332   -9.3831 H   0  0  0  0  0  0  0  0  0  0  0  0
   12.4868   -0.4090   -8.1105 H   0  0  0  0  0  0  0  0  0  0  0  0
   10.2733    0.8213   -7.1634 H   0  0  0  0  0  0  0  0  0  0  0  0
  1  2  2  3
  2  3  1  0
  3  4  2  0
  3  5  1  0
  5  6  2  0
  6  7  1  0
  7  8  2  0
  8  9  1  0
  9 10  2  0
 10 11  1  0
 11 12  2  3
 12 13  1  0
 13 14  3  0
 12 15  1  0
 15 16  3  0
  8 17  1  0
 17 18  1  0
 18 19  1  0
 19 20  2  0
 20 21  1  0
 21 22  1  0
 21 23  1  0
  1 24  1  0
 24 25  2  0
 25 26  1  0
 26 27  1  0
 27 28  2  0
 28 29  1  0
 29 30  2  0
 30 31  1  0
 30 32  1  0
 32 33  2  0
 26 34  1  0
 34 35  2  0
 35 36  1  0
 36 37  2  0
 37 38  1  0
 37 39  1  0
 39 40  2  0
 25 41  1  0
 41 42  1  0
 42 43  1  0
 43 44  2  0
 44 45  1  0
 45 46  1  0
 46 47  2  0
 47 48  1  0
 48 49  2  0
 49 50  1  0
 49 51  1  0
 51 52  2  0
 45 53  1  0
 53 54  2  0
 54 55  1  0
 55 56  2  0
 56 57  1  0
 56 58  1  0
 58 59  2  0
 44 60  1  0
 60 61  1  0
 43 62  1  0
 62 63  2  0
 63 64  1  0
 64 65  1  0
 65 66  2  0
 66 67  1  0
 67 68  2  0
 68 69  1  0
 69 70  1  0
 68 71  1  0
 71 72  2  0
 64 73  1  0
 73 74  2  0
 74 75  1  0
 75 76  2  0
 76 77  1  0
 77 78  1  0
 76 79  1  0
 79 80  2  0
 63 81  1  0
 81 82  1  0
 82 83  1  0
 83 84  2  0
 84 85  1  0
 85 86  1  0
 86 87  2  0
 87 88  1  0
 88 89  2  0
 89 90  1  0
 90 91  1  0
 89 92  1  0
 92 93  2  0
 85 94  1  0
 94 95  2  0
 95 96  1  0
 96 97  2  0
 97 98  1  0
 98 99  1  0
 97100  1  0
100101  2  0
 84102  1  0
102103  1  0
 83104  1  0
104105  2  0
105106  1  0
106107  2  0
107108  1  0
108109  2  0
109110  1  0
110111  1  0
110112  2  0
112113  1  0
113114  1  0
112115  1  0
107116  1  0
116117  2  0
117118  1  0
118119  1  0
119120  1  0
120121  1  0
121122  1  0
122123  1  0
121124  2  0
124125  1  0
124126  1  0
118127  2  0
127128  1  0
117129  1  0
129130  2  0
130131  1  0
130132  1  0
132133  2  3
133134  1  0
134135  2  0
134136  1  0
136137  2  0
137138  1  0
138139  2  0
139140  1  0
140141  2  0
141142  1  0
142143  2  3
143144  1  0
144145  3  0
143146  1  0
146147  3  0
139148  1  0
148149  1  0
149150  1  0
150151  2  0
151152  1  0
152153  1  0
152154  1  0
 11  2  1  0
 23 17  1  0
 61 24  1  0
103 62  1  0
128104  1  0
142133  1  0
154148  1  0
 10  5  1  0
 22 18  1  0
 33 27  1  0
 40 34  1  0
 60 41  2  0
 72 65  1  0
 80 73  1  0
102 81  2  0
127106  1  0
141136  1  0
153149  1  0
 23  7  1  0
 52 46  1  0
 59 53  1  0
 93 86  1  0
101 94  1  0
115108  1  0
131116  1  0
154138  1  0
125119  2  0
  1155  1  0
  6156  1  0
  9157  1  0
 17158  1  0
 18159  1  0
 19160  1  0
 20161  1  0
 21162  1  0
 22163  1  0
 22164  1  0
 23165  1  0
 28166  1  0
 29167  1  0
 31168  1  0
 31169  1  0
 31170  1  0
 32171  1  0
 33172  1  0
 35173  1  0
 36174  1  0
 38175  1  0
 38176  1  0
 38177  1  0
 39178  1  0
 40179  1  0
 47180  1  0
 48181  1  0
 50182  1  0
 50183  1  0
 50184  1  0
 51185  1  0
 52186  1  0
 54187  1  0
 55188  1  0
 57189  1  0
 57190  1  0
 57191  1  0
 58192  1  0
 59193  1  0
 66194  1  0
 67195  1  0
 70196  1  0
 70197  1  0
 70198  1  0
 71199  1  0
 72200  1  0
 74201  1  0
 75202  1  0
 78203  1  0
 78204  1  0
 78205  1  0
 79206  1  0
 80207  1  0
 87208  1  0
 88209  1  0
 91210  1  0
 91211  1  0
 91212  1  0
 92213  1  0
 93214  1  0
 95215  1  0
 96216  1  0
 99217  1  0
 99218  1  0
 99219  1  0
100220  1  0
101221  1  0
105222  1  0
109223  1  0
113224  1  0
113225  1  0
114226  1  0
114227  1  0
114228  1  0
122229  1  0
122230  1  0
123231  1  0
123232  1  0
123233  1  0
125234  1  0
129235  1  0
132236  1  0
137237  1  0
140238  1  0
148239  1  0
149240  1  0
150241  1  0
151242  1  0
152243  1  0
153244  1  0
153245  1  0
154246  1  0
M  END

