
     RDKit          3D

197216  0  0  0  0  0  0  0  0999 V2000
   -4.4288   -4.1298   -0.8809 C   0  0  0  0  0  0  0  0  0  0  0  0
   -3.9044   -5.3282   -1.2995 C   0  0  0  0  0  0  0  0  0  0  0  0
   -4.5366   -6.5688   -0.7783 C   0  0  0  0  0  0  0  0  0  0  0  0
   -5.7225   -6.7077   -0.3699 O   0  0  0  0  0  0  0  0  0  0  0  0
   -3.5918   -7.6787   -0.7732 C   0  0  0  0  0  0  0  0  0  0  0  0
   -3.8747   -9.0250   -0.3659 C   0  0  0  0  0  0  0  0  0  0  0  0
   -2.7620   -9.8674   -0.5103 C   0  0  0  0  0  0  0  0  0  0  0  0
   -1.5313   -9.3776   -1.0789 C   0  0  0  0  0  0  0  0  0  0  0  0
   -1.2201   -8.0694   -1.4874 C   0  0  0  0  0  0  0  0  0  0  0  0
   -2.3601   -7.1714   -1.3102 C   0  0  0  0  0  0  0  0  0  0  0  0
   -2.5592   -5.7356   -1.7429 C   0  0  0  0  0  0  0  0  0  0  0  0
   -1.9639   -5.2961   -2.8688 C   0  0  0  0  0  0  0  0  0  0  0  0
   -2.7498   -4.7415   -3.9130 C   0  0  0  0  0  0  0  0  0  0  0  0
   -3.4153   -4.3114   -4.7535 N   0  0  0  0  0  0  0  0  0  0  0  0
   -0.6382   -5.7687   -3.2945 C   0  0  0  0  0  0  0  0  0  0  0  0
    0.4040   -6.1098   -3.6724 N   0  0  0  0  0  0  0  0  0  0  0  0
   -0.8557  -10.6893   -0.6914 C   0  0  0  0  0  0  0  0  0  0  0  0
    0.1393  -10.6284    0.5081 C   0  0  0  0  0  0  0  0  0  0  0  0
    0.3151  -12.0631    0.9605 C   0  0  0  0  0  0  0  0  0  0  0  0
   -0.8448  -12.4010    1.5834 C   0  0  0  0  0  0  0  0  0  0  0  0
   -1.7545  -11.1809    1.4729 C   0  0  0  0  0  0  0  0  0  0  0  0
   -0.6879  -10.0987    1.7023 C   0  0  0  0  0  0  0  0  0  0  0  0
   -2.1313  -11.0985   -0.0500 C   0  0  0  0  0  0  0  0  0  0  0  0
   -3.7315   -2.8177   -0.7722 C   0  0  0  0  0  0  0  0  0  0  0  0
   -3.4712   -1.8023   -1.7179 C   0  0  0  0  0  0  0  0  0  0  0  0
   -3.9382   -1.7272   -3.0682 N   0  0  0  0  0  0  0  0  0  0  0  0
   -5.3747   -1.9161   -3.3476 C   0  0  0  0  0  0  0  0  0  0  0  0
   -5.7529   -2.2922   -4.6190 C   0  0  0  0  0  0  0  0  0  0  0  0
   -7.1019   -2.8175   -4.8369 C   0  0  0  0  0  0  0  0  0  0  0  0
   -7.9496   -2.8845   -3.7538 C   0  0  0  0  0  0  0  0  0  0  0  0
   -9.3213   -3.5152   -3.8980 C   0  0  0  0  0  0  0  0  0  0  0  0
   -7.6054   -2.3322   -2.5113 C   0  0  0  0  0  0  0  0  0  0  0  0
   -6.3326   -1.7794   -2.3166 C   0  0  0  0  0  0  0  0  0  0  0  0
   -3.0025   -1.3119   -4.0188 C   0  0  0  0  0  0  0  0  0  0  0  0
   -1.6674   -1.8025   -3.9368 C   0  0  0  0  0  0  0  0  0  0  0  0
   -0.7149   -1.4915   -4.8587 C   0  0  0  0  0  0  0  0  0  0  0  0
   -1.0134   -0.6442   -5.9423 C   0  0  0  0  0  0  0  0  0  0  0  0
    0.0637   -0.4561   -6.9658 C   0  0  0  0  0  0  0  0  0  0  0  0
   -2.2902   -0.0370   -5.9974 C   0  0  0  0  0  0  0  0  0  0  0  0
   -3.2852   -0.3639   -5.0390 C   0  0  0  0  0  0  0  0  0  0  0  0
   -3.0125   -0.6477   -1.0319 C   0  0  0  0  0  0  0  0  0  0  0  0
   -2.1712    0.7418   -1.5815 S   0  0  0  0  0  0  0  0  0  0  0  0
   -1.7573    1.3420   -0.0292 C   0  0  0  0  0  0  0  0  0  0  0  0
   -2.3696    0.4706    0.9382 C   0  0  0  0  0  0  0  0  0  0  0  0
   -2.7297    0.6835    2.2843 N   0  0  0  0  0  0  0  0  0  0  0  0
   -4.1135    0.9749    2.5307 C   0  0  0  0  0  0  0  0  0  0  0  0
   -4.9059    0.1513    3.3713 C   0  0  0  0  0  0  0  0  0  0  0  0
   -6.2301    0.5222    3.7039 C   0  0  0  0  0  0  0  0  0  0  0  0
   -6.7466    1.7108    3.1726 C   0  0  0  0  0  0  0  0  0  0  0  0
   -8.1650    2.1316    3.4430 C   0  0  0  0  0  0  0  0  0  0  0  0
   -5.9837    2.5333    2.3182 C   0  0  0  0  0  0  0  0  0  0  0  0
   -4.6819    2.1480    1.9742 C   0  0  0  0  0  0  0  0  0  0  0  0
   -1.8407    0.6318    3.3711 C   0  0  0  0  0  0  0  0  0  0  0  0
   -0.5297    0.1432    3.2668 C   0  0  0  0  0  0  0  0  0  0  0  0
    0.3249    0.0576    4.3745 C   0  0  0  0  0  0  0  0  0  0  0  0
   -0.1385    0.4585    5.6428 C   0  0  0  0  0  0  0  0  0  0  0  0
    0.6619    0.3652    6.9062 C   0  0  0  0  0  0  0  0  0  0  0  0
   -1.4324    0.9932    5.7907 C   0  0  0  0  0  0  0  0  0  0  0  0
   -2.2875    1.0615    4.6657 C   0  0  0  0  0  0  0  0  0  0  0  0
   -3.0582   -0.5429    0.2804 C   0  0  0  0  0  0  0  0  0  0  0  0
   -3.7009   -2.0653    0.7857 S   0  0  0  0  0  0  0  0  0  0  0  0
   -0.6059    2.2233    0.1004 C   0  0  0  0  0  0  0  0  0  0  0  0
   -0.2619    3.3130    0.9017 C   0  0  0  0  0  0  0  0  0  0  0  0
   -1.1626    4.1637    1.7782 N   0  0  0  0  0  0  0  0  0  0  0  0
   -1.8217    5.3569    1.1666 C   0  0  0  0  0  0  0  0  0  0  0  0
   -1.3456    6.0017   -0.0104 C   0  0  0  0  0  0  0  0  0  0  0  0
   -1.7939    7.2799   -0.4179 C   0  0  0  0  0  0  0  0  0  0  0  0
   -2.7908    8.0017    0.3607 C   0  0  0  0  0  0  0  0  0  0  0  0
   -3.0364    9.7246    0.1150 S   0  0  0  0  0  0  0  0  0  0  0  0
   -4.1115    9.7395   -1.3588 C   0  0  0  0  0  0  0  0  0  0  0  0
   -3.3918    7.3415    1.3900 C   0  0  0  0  0  0  0  0  0  0  0  0
   -2.9344    6.0353    1.8029 C   0  0  0  0  0  0  0  0  0  0  0  0
   -0.9583    4.2384    3.1971 C   0  0  0  0  0  0  0  0  0  0  0  0
   -2.0350    3.9401    4.0689 C   0  0  0  0  0  0  0  0  0  0  0  0
   -2.0596    4.3910    5.4096 C   0  0  0  0  0  0  0  0  0  0  0  0
   -1.0676    5.2381    5.9363 C   0  0  0  0  0  0  0  0  0  0  0  0
   -0.9058    5.7660    7.6610 S   0  0  0  0  0  0  0  0  0  0  0  0
   -2.6482    5.7135    8.2066 C   0  0  0  0  0  0  0  0  0  0  0  0
    0.0180    5.5643    5.0760 C   0  0  0  0  0  0  0  0  0  0  0  0
    0.0668    5.0521    3.7908 C   0  0  0  0  0  0  0  0  0  0  0  0
    1.0140    3.7839    0.5645 C   0  0  0  0  0  0  0  0  0  0  0  0
    1.9388    5.1760    0.9454 S   0  0  0  0  0  0  0  0  0  0  0  0
    3.3383    4.8180   -0.0137 C   0  0  0  0  0  0  0  0  0  0  0  0
    2.9400    3.7542   -0.8502 C   0  0  0  0  0  0  0  0  0  0  0  0
    3.3743    3.5541   -2.2105 N   0  0  0  0  0  0  0  0  0  0  0  0
    3.7993    2.2532   -2.6571 C   0  0  0  0  0  0  0  0  0  0  0  0
    4.8179    1.4577   -1.9900 C   0  0  0  0  0  0  0  0  0  0  0  0
    5.1535    0.1829   -2.4808 C   0  0  0  0  0  0  0  0  0  0  0  0
    4.4393   -0.3555   -3.5866 C   0  0  0  0  0  0  0  0  0  0  0  0
    4.9299   -1.8854   -4.3160 S   0  0  0  0  0  0  0  0  0  0  0  0
    4.1166   -3.0143   -3.1191 C   0  0  0  0  0  0  0  0  0  0  0  0
    3.4103    0.3458   -4.1654 C   0  0  0  0  0  0  0  0  0  0  0  0
    3.1013    1.6453   -3.7026 C   0  0  0  0  0  0  0  0  0  0  0  0
    2.9852    4.5417   -3.2092 C   0  0  0  0  0  0  0  0  0  0  0  0
    1.6506    4.7860   -3.4739 C   0  0  0  0  0  0  0  0  0  0  0  0
    1.2021    5.5485   -4.5921 C   0  0  0  0  0  0  0  0  0  0  0  0
    2.1496    6.1003   -5.4499 C   0  0  0  0  0  0  0  0  0  0  0  0
    1.7396    6.9750   -7.0204 S   0  0  0  0  0  0  0  0  0  0  0  0
    0.0889    7.6551   -6.6732 C   0  0  0  0  0  0  0  0  0  0  0  0
    3.5320    5.8623   -5.1944 C   0  0  0  0  0  0  0  0  0  0  0  0
    3.9528    5.1062   -4.0839 C   0  0  0  0  0  0  0  0  0  0  0  0
    1.6906    3.1774   -0.4662 C   0  0  0  0  0  0  0  0  0  0  0  0
    0.5939    2.0618   -1.0607 S   0  0  0  0  0  0  0  0  0  0  0  0
    4.7692    5.0745    0.4110 C   0  0  0  0  0  0  0  0  0  0  0  0
    4.8959    5.6022    1.7167 C   0  0  0  0  0  0  0  0  0  0  0  0
    6.0424    5.4294    2.4125 C   0  0  0  0  0  0  0  0  0  0  0  0
    7.1210    4.7919    1.8755 C   0  0  0  0  0  0  0  0  0  0  0  0
    7.1207    4.5129    0.5036 C   0  0  0  0  0  0  0  0  0  0  0  0
    8.1736    4.1274   -0.1708 N   0  0  0  0  0  0  0  0  0  0  0  0
    7.5839    3.9637   -1.6875 S   0  0  0  0  0  0  0  0  0  0  0  0
    6.0168    4.4049   -1.5262 N   0  0  0  0  0  0  0  0  0  0  0  0
    5.9065    4.6790   -0.2240 C   0  0  0  0  0  0  0  0  0  0  0  0
    8.0023    3.9631    2.7848 C   0  0  0  0  0  0  0  0  0  0  0  0
    7.6915    2.7341    3.0497 C   0  0  0  0  0  0  0  0  0  0  0  0
    6.2480    2.0119    2.2619 S   0  0  0  0  0  0  0  0  0  0  0  0
    7.0469    0.4397    2.3694 C   0  0  0  0  0  0  0  0  0  0  0  0
    6.7441   -0.5868    1.1528 S   0  0  0  0  0  0  0  0  0  0  0  0
    8.3971    0.4343    2.9116 N   0  0  0  0  0  0  0  0  0  0  0  0
    9.2280   -0.7566    3.0817 C   0  0  0  0  0  0  0  0  0  0  0  0
    8.6803   -1.5841    4.2173 C   0  0  0  0  0  0  0  0  0  0  0  0
    8.6869    1.7044    3.4362 C   0  0  0  0  0  0  0  0  0  0  0  0
    9.6500    1.9090    4.2136 O   0  0  0  0  0  0  0  0  0  0  0  0
   -5.3598   -4.1355   -0.2747 H   0  0  0  0  0  0  0  0  0  0  0  0
   -4.8343   -9.3303    0.1710 H   0  0  0  0  0  0  0  0  0  0  0  0
   -0.1747   -7.8021   -1.7223 H   0  0  0  0  0  0  0  0  0  0  0  0
   -0.5265  -11.3092   -1.5573 H   0  0  0  0  0  0  0  0  0  0  0  0
    1.1041  -10.0998    0.3417 H   0  0  0  0  0  0  0  0  0  0  0  0
    1.2151  -12.7145    0.9274 H   0  0  0  0  0  0  0  0  0  0  0  0
   -1.0149  -13.3201    2.1764 H   0  0  0  0  0  0  0  0  0  0  0  0
   -2.5992  -11.1756    2.2032 H   0  0  0  0  0  0  0  0  0  0  0  0
   -1.0618   -9.0300    1.6603 H   0  0  0  0  0  0  0  0  0  0  0  0
   -0.1604  -10.1309    2.7325 H   0  0  0  0  0  0  0  0  0  0  0  0
   -2.5824  -11.9825   -0.5184 H   0  0  0  0  0  0  0  0  0  0  0  0
   -5.0830   -2.2973   -5.4393 H   0  0  0  0  0  0  0  0  0  0  0  0
   -7.3550   -3.2291   -5.8606 H   0  0  0  0  0  0  0  0  0  0  0  0
   -9.4359   -4.0727   -4.8626 H   0  0  0  0  0  0  0  0  0  0  0  0
  -10.0508   -2.6862   -3.8328 H   0  0  0  0  0  0  0  0  0  0  0  0
   -9.5023   -4.2124   -3.0604 H   0  0  0  0  0  0  0  0  0  0  0  0
   -8.2163   -2.4043   -1.6361 H   0  0  0  0  0  0  0  0  0  0  0  0
   -6.1612   -1.3777   -1.3125 H   0  0  0  0  0  0  0  0  0  0  0  0
   -1.4481   -2.4473   -3.1279 H   0  0  0  0  0  0  0  0  0  0  0  0
    0.2510   -2.0028   -4.7269 H   0  0  0  0  0  0  0  0  0  0  0  0
    0.5679   -1.4183   -7.1861 H   0  0  0  0  0  0  0  0  0  0  0  0
    0.7586    0.2981   -6.5818 H   0  0  0  0  0  0  0  0  0  0  0  0
   -0.3574   -0.1184   -7.9032 H   0  0  0  0  0  0  0  0  0  0  0  0
   -2.5109    0.6663   -6.8249 H   0  0  0  0  0  0  0  0  0  0  0  0
   -4.2557    0.1995   -5.1321 H   0  0  0  0  0  0  0  0  0  0  0  0
   -4.5374   -0.7718    3.8209 H   0  0  0  0  0  0  0  0  0  0  0  0
   -6.8178   -0.1002    4.3776 H   0  0  0  0  0  0  0  0  0  0  0  0
   -8.8643    1.4046    2.9401 H   0  0  0  0  0  0  0  0  0  0  0  0
   -8.3982    3.1657    3.0924 H   0  0  0  0  0  0  0  0  0  0  0  0
   -8.3608    2.1363    4.5466 H   0  0  0  0  0  0  0  0  0  0  0  0
   -6.3600    3.4545    1.9019 H   0  0  0  0  0  0  0  0  0  0  0  0
   -4.1011    2.8206    1.3342 H   0  0  0  0  0  0  0  0  0  0  0  0
   -0.1390   -0.1937    2.3203 H   0  0  0  0  0  0  0  0  0  0  0  0
    1.3196   -0.3821    4.2716 H   0  0  0  0  0  0  0  0  0  0  0  0
    0.7960    1.3883    7.3177 H   0  0  0  0  0  0  0  0  0  0  0  0
    1.6307   -0.1026    6.6934 H   0  0  0  0  0  0  0  0  0  0  0  0
    0.1241   -0.2411    7.6692 H   0  0  0  0  0  0  0  0  0  0  0  0
   -1.8408    1.3303    6.7325 H   0  0  0  0  0  0  0  0  0  0  0  0
   -3.2451    1.5665    4.9606 H   0  0  0  0  0  0  0  0  0  0  0  0
   -0.5061    5.5869   -0.6731 H   0  0  0  0  0  0  0  0  0  0  0  0
   -1.2366    7.7722   -1.2050 H   0  0  0  0  0  0  0  0  0  0  0  0
   -3.8310   10.5930   -2.0125 H   0  0  0  0  0  0  0  0  0  0  0  0
   -5.1521    9.9683   -1.0834 H   0  0  0  0  0  0  0  0  0  0  0  0
   -4.0672    8.8412   -1.9869 H   0  0  0  0  0  0  0  0  0  0  0  0
   -4.0627    7.8747    2.0864 H   0  0  0  0  0  0  0  0  0  0  0  0
   -3.4579    5.6431    2.6557 H   0  0  0  0  0  0  0  0  0  0  0  0
   -2.9548    3.4565    3.6514 H   0  0  0  0  0  0  0  0  0  0  0  0
   -2.9634    4.2146    5.9711 H   0  0  0  0  0  0  0  0  0  0  0  0
   -2.7208    6.1984    9.1991 H   0  0  0  0  0  0  0  0  0  0  0  0
   -2.9697    4.6653    8.3556 H   0  0  0  0  0  0  0  0  0  0  0  0
   -3.3653    6.2566    7.5657 H   0  0  0  0  0  0  0  0  0  0  0  0
    0.8820    6.1766    5.4374 H   0  0  0  0  0  0  0  0  0  0  0  0
    0.8664    5.4711    3.2254 H   0  0  0  0  0  0  0  0  0  0  0  0
    5.3842    1.8705   -1.1789 H   0  0  0  0  0  0  0  0  0  0  0  0
    5.9924   -0.2749   -2.0288 H   0  0  0  0  0  0  0  0  0  0  0  0
    3.0151   -2.9060   -3.1036 H   0  0  0  0  0  0  0  0  0  0  0  0
    4.5313   -2.8875   -2.1055 H   0  0  0  0  0  0  0  0  0  0  0  0
    4.3042   -4.0493   -3.4252 H   0  0  0  0  0  0  0  0  0  0  0  0
    2.8937   -0.0384   -5.0519 H   0  0  0  0  0  0  0  0  0  0  0  0
    2.2973    2.1887   -4.2557 H   0  0  0  0  0  0  0  0  0  0  0  0
    0.9254    4.2869   -2.9120 H   0  0  0  0  0  0  0  0  0  0  0  0
    0.0795    5.5827   -4.7381 H   0  0  0  0  0  0  0  0  0  0  0  0
   -0.3386    7.7762   -7.6819 H   0  0  0  0  0  0  0  0  0  0  0  0
   -0.5816    6.9558   -6.1655 H   0  0  0  0  0  0  0  0  0  0  0  0
    0.0886    8.6606   -6.1917 H   0  0  0  0  0  0  0  0  0  0  0  0
    4.2743    6.2063   -5.8417 H   0  0  0  0  0  0  0  0  0  0  0  0
    5.0107    4.8274   -4.0011 H   0  0  0  0  0  0  0  0  0  0  0  0
    4.1505    6.0040    2.3712 H   0  0  0  0  0  0  0  0  0  0  0  0
    6.0197    5.5805    3.5229 H   0  0  0  0  0  0  0  0  0  0  0  0
    8.9552    4.3758    3.1161 H   0  0  0  0  0  0  0  0  0  0  0  0
    9.2310   -1.3777    2.2169 H   0  0  0  0  0  0  0  0  0  0  0  0
   10.3056   -0.5451    3.2907 H   0  0  0  0  0  0  0  0  0  0  0  0
    7.5822   -1.4228    4.3796 H   0  0  0  0  0  0  0  0  0  0  0  0
    8.7752   -2.6811    4.0056 H   0  0  0  0  0  0  0  0  0  0  0  0
    9.2291   -1.3903    5.1603 H   0  0  0  0  0  0  0  0  0  0  0  0
  1  2  2  3
  2  3  1  0
  3  4  2  0
  3  5  1  0
  5  6  2  0
  6  7  1  0
  7  8  2  0
  8  9  1  0
  9 10  2  0
 10 11  1  0
 11 12  2  3
 12 13  1  0
 13 14  3  0
 12 15  1  0
 15 16  3  0
  8 17  1  0
 17 18  1  0
 18 19  1  0
 19 20  2  0
 20 21  1  0
 21 22  1  0
 21 23  1  0
  1 24  1  0
 24 25  2  0
 25 26  1  0
 26 27  1  0
 27 28  2  0
 28 29  1  0
 29 30  2  0
 30 31  1  0
 30 32  1  0
 32 33  2  0
 26 34  1  0
 34 35  2  0
 35 36  1  0
 36 37  2  0
 37 38  1  0
 37 39  1  0
 39 40  2  0
 25 41  1  0
 41 42  1  0
 42 43  1  0
 43 44  2  0
 44 45  1  0
 45 46  1  0
 46 47  2  0
 47 48  1  0
 48 49  2  0
 49 50  1  0
 49 51  1  0
 51 52  2  0
 45 53  1  0
 53 54  2  0
 54 55  1  0
 55 56  2  0
 56 57  1  0
 56 58  1  0
 58 59  2  0
 44 60  1  0
 60 61  1  0
 43 62  1  0
 62 63  2  0
 63 64  1  0
 64 65  1  0
 65 66  2  0
 66 67  1  0
 67 68  2  0
 68 69  1  0
 69 70  1  0
 68 71  1  0
 71 72  2  0
 64 73  1  0
 73 74  2  0
 74 75  1  0
 75 76  2  0
 76 77  1  0
 77 78  1  0
 76 79  1  0
 79 80  2  0
 63 81  1  0
 81 82  1  0
 82 83  1  0
 83 84  2  0
 84 85  1  0
 85 86  1  0
 86 87  2  0
 87 88  1  0
 88 89  2  0
 89 90  1  0
 90 91  1  0
 89 92  1  0
 92 93  2  0
 85 94  1  0
 94 95  2  0
 95 96  1  0
 96 97  2  0
 97 98  1  0
 98 99  1  0
 97100  1  0
100101  2  0
 84102  1  0
102103  1  0
 83104  1  0
104105  2  0
105106  1  0
106107  2  0
107108  1  0
108109  2  0
109110  1  0
110111  1  0
111112  2  0
107113  1  0
113114  2  3
114115  1  0
115116  1  0
116117  2  0
116118  1  0
118119  1  0
119120  1  0
118121  1  0
121122  2  0
 11  2  1  0
 23 17  1  0
 61 24  1  0
103 62  1  0
112104  1  0
121114  1  0
 10  5  1  0
 22 18  1  0
 33 27  1  0
 40 34  1  0
 60 41  2  0
 72 65  1  0
 80 73  1  0
102 81  2  0
112108  1  0
 23  7  1  0
 52 46  1  0
 59 53  1  0
 93 86  1  0
101 94  1  0
  1123  1  0
  6124  1  0
  9125  1  0
 17126  1  0
 18127  1  0
 19128  1  0
 20129  1  0
 21130  1  0
 22131  1  0
 22132  1  0
 23133  1  0
 28134  1  0
 29135  1  0
 31136  1  0
 31137  1  0
 31138  1  0
 32139  1  0
 33140  1  0
 35141  1  0
 36142  1  0
 38143  1  0
 38144  1  0
 38145  1  0
 39146  1  0
 40147  1  0
 47148  1  0
 48149  1  0
 50150  1  0
 50151  1  0
 50152  1  0
 51153  1  0
 52154  1  0
 54155  1  0
 55156  1  0
 57157  1  0
 57158  1  0
 57159  1  0
 58160  1  0
 59161  1  0
 66162  1  0
 67163  1  0
 70164  1  0
 70165  1  0
 70166  1  0
 71167  1  0
 72168  1  0
 74169  1  0
 75170  1  0
 78171  1  0
 78172  1  0
 78173  1  0
 79174  1  0
 80175  1  0
 87176  1  0
 88177  1  0
 91178  1  0
 91179  1  0
 91180  1  0
 92181  1  0
 93182  1  0
 95183  1  0
 96184  1  0
 99185  1  0
 99186  1  0
 99187  1  0
100188  1  0
101189  1  0
105190  1  0
106191  1  0
113192  1  0
119193  1  0
119194  1  0
120195  1  0
120196  1  0
120197  1  0
M  END

