
     RDKit          3D

218241  0  0  0  0  0  0  0  0999 V2000
   -4.8639   -4.4844   -1.3476 C   0  0  0  0  0  0  0  0  0  0  0  0
   -4.4873   -4.8675   -0.1362 C   0  0  0  0  0  0  0  0  0  0  0  0
   -3.1101   -4.7974    0.3779 C   0  0  0  0  0  0  0  0  0  0  0  0
   -2.1453   -4.1674   -0.1209 O   0  0  0  0  0  0  0  0  0  0  0  0
   -2.9545   -5.6482    1.5042 C   0  0  0  0  0  0  0  0  0  0  0  0
   -1.7467   -6.0330    2.1241 C   0  0  0  0  0  0  0  0  0  0  0  0
   -1.8801   -6.8759    3.2037 C   0  0  0  0  0  0  0  0  0  0  0  0
   -3.1489   -7.3493    3.5869 C   0  0  0  0  0  0  0  0  0  0  0  0
   -4.3542   -7.1228    2.9688 C   0  0  0  0  0  0  0  0  0  0  0  0
   -4.2201   -6.1702    1.8653 C   0  0  0  0  0  0  0  0  0  0  0  0
   -5.2299   -5.7339    0.8594 C   0  0  0  0  0  0  0  0  0  0  0  0
   -6.5602   -5.9666    0.8980 C   0  0  0  0  0  0  0  0  0  0  0  0
   -7.5407   -5.1800    0.2086 C   0  0  0  0  0  0  0  0  0  0  0  0
   -8.4044   -4.5334   -0.3300 N   0  0  0  0  0  0  0  0  0  0  0  0
   -7.1361   -7.0449    1.7874 C   0  0  0  0  0  0  0  0  0  0  0  0
   -7.6396   -7.7851    2.4531 N   0  0  0  0  0  0  0  0  0  0  0  0
   -2.5758   -7.9354    4.8226 C   0  0  0  0  0  0  0  0  0  0  0  0
   -2.4901   -6.9837    6.0597 C   0  0  0  0  0  0  0  0  0  0  0  0
   -1.7220   -7.8119    7.0521 C   0  0  0  0  0  0  0  0  0  0  0  0
   -0.4840   -7.9242    6.5530 C   0  0  0  0  0  0  0  0  0  0  0  0
   -0.4331   -7.0282    5.3308 C   0  0  0  0  0  0  0  0  0  0  0  0
   -1.3799   -5.9269    5.8145 C   0  0  0  0  0  0  0  0  0  0  0  0
   -1.2285   -7.7678    4.2367 C   0  0  0  0  0  0  0  0  0  0  0  0
   -3.8761   -3.7918   -2.2516 C   0  0  0  0  0  0  0  0  0  0  0  0
   -3.5240   -2.4632   -2.0920 C   0  0  0  0  0  0  0  0  0  0  0  0
   -4.2827   -1.4779   -1.3371 N   0  0  0  0  0  0  0  0  0  0  0  0
   -4.4694   -0.1446   -1.8508 C   0  0  0  0  0  0  0  0  0  0  0  0
   -4.6236    0.9480   -0.9643 C   0  0  0  0  0  0  0  0  0  0  0  0
   -4.7000    2.2418   -1.4572 C   0  0  0  0  0  0  0  0  0  0  0  0
   -4.6188    2.4788   -2.8404 C   0  0  0  0  0  0  0  0  0  0  0  0
   -4.6239    3.8844   -3.3174 C   0  0  0  0  0  0  0  0  0  0  0  0
   -4.4673    1.3788   -3.7254 C   0  0  0  0  0  0  0  0  0  0  0  0
   -4.4140    0.0898   -3.2197 C   0  0  0  0  0  0  0  0  0  0  0  0
   -4.7217   -1.6921    0.0574 C   0  0  0  0  0  0  0  0  0  0  0  0
   -6.0723   -1.5968    0.4044 C   0  0  0  0  0  0  0  0  0  0  0  0
   -6.4961   -1.5322    1.7514 C   0  0  0  0  0  0  0  0  0  0  0  0
   -5.5192   -1.5984    2.7647 C   0  0  0  0  0  0  0  0  0  0  0  0
   -5.8975   -1.5316    4.2247 C   0  0  0  0  0  0  0  0  0  0  0  0
   -4.1566   -1.7420    2.4226 C   0  0  0  0  0  0  0  0  0  0  0  0
   -3.7864   -1.7896    1.0752 C   0  0  0  0  0  0  0  0  0  0  0  0
   -2.2600   -2.1721   -2.6977 C   0  0  0  0  0  0  0  0  0  0  0  0
   -1.0550   -0.9925   -2.3488 S   0  0  0  0  0  0  0  0  0  0  0  0
    0.3547   -1.8359   -2.9307 C   0  0  0  0  0  0  0  0  0  0  0  0
   -0.1873   -3.0613   -3.3734 C   0  0  0  0  0  0  0  0  0  0  0  0
    0.3956   -3.7735   -4.5134 N   0  0  0  0  0  0  0  0  0  0  0  0
    0.6741   -5.2069   -4.3844 C   0  0  0  0  0  0  0  0  0  0  0  0
    1.4245   -5.7047   -3.3557 C   0  0  0  0  0  0  0  0  0  0  0  0
    1.8876   -7.0391   -3.4050 C   0  0  0  0  0  0  0  0  0  0  0  0
    1.6075   -7.8372   -4.5314 C   0  0  0  0  0  0  0  0  0  0  0  0
    2.1901   -9.2173   -4.6355 C   0  0  0  0  0  0  0  0  0  0  0  0
    0.7436   -7.3639   -5.5108 C   0  0  0  0  0  0  0  0  0  0  0  0
    0.2788   -6.0590   -5.4565 C   0  0  0  0  0  0  0  0  0  0  0  0
    0.5366   -3.1398   -5.8180 C   0  0  0  0  0  0  0  0  0  0  0  0
   -0.4578   -2.2913   -6.3028 C   0  0  0  0  0  0  0  0  0  0  0  0
   -0.6330   -2.0399   -7.6846 C   0  0  0  0  0  0  0  0  0  0  0  0
    0.2055   -2.6740   -8.6302 C   0  0  0  0  0  0  0  0  0  0  0  0
   -0.0128   -2.4249  -10.1237 C   0  0  0  0  0  0  0  0  0  0  0  0
    1.2520   -3.4601   -8.1833 C   0  0  0  0  0  0  0  0  0  0  0  0
    1.4275   -3.6988   -6.8176 C   0  0  0  0  0  0  0  0  0  0  0  0
   -1.6173   -3.2449   -3.1247 C   0  0  0  0  0  0  0  0  0  0  0  0
   -2.6771   -4.5774   -3.1653 S   0  0  0  0  0  0  0  0  0  0  0  0
    1.6193   -1.7862   -2.0235 C   0  0  0  0  0  0  0  0  0  0  0  0
    2.9401   -1.6088   -2.3914 C   0  0  0  0  0  0  0  0  0  0  0  0
    3.6899   -1.0202   -1.3285 C   0  0  0  0  0  0  0  0  0  0  0  0
    2.8893   -0.9314   -0.1756 C   0  0  0  0  0  0  0  0  0  0  0  0
    3.1958   -0.4801    0.9669 O   0  0  0  0  0  0  0  0  0  0  0  0
    1.6075   -1.4817   -0.5471 N   0  0  0  0  0  0  0  0  0  0  0  0
    0.6513   -1.7159    0.5435 C   0  0  0  0  0  0  0  0  0  0  0  0
    4.7296   -0.2547   -1.7186 C   0  0  0  0  0  0  0  0  0  0  0  0
    4.9212   -0.4603   -3.1183 N   0  0  0  0  0  0  0  0  0  0  0  0
    6.2428   -0.3798   -3.7516 C   0  0  0  0  0  0  0  0  0  0  0  0
    3.8597   -1.3385   -3.5111 C   0  0  0  0  0  0  0  0  0  0  0  0
    3.8717   -2.0309   -4.5476 O   0  0  0  0  0  0  0  0  0  0  0  0
    4.8596    1.1373   -1.1089 C   0  0  0  0  0  0  0  0  0  0  0  0
    3.8501    2.0063   -1.4040 C   0  0  0  0  0  0  0  0  0  0  0  0
    3.7976    2.6539   -2.7141 N   0  0  0  0  0  0  0  0  0  0  0  0
    2.5920    2.7419   -3.4743 C   0  0  0  0  0  0  0  0  0  0  0  0
    1.6369    1.7153   -3.4433 C   0  0  0  0  0  0  0  0  0  0  0  0
    0.4682    1.8449   -4.1849 C   0  0  0  0  0  0  0  0  0  0  0  0
    0.2304    3.0045   -4.9484 C   0  0  0  0  0  0  0  0  0  0  0  0
   -1.0271    3.0541   -5.7617 C   0  0  0  0  0  0  0  0  0  0  0  0
    1.1626    4.0487   -4.9205 C   0  0  0  0  0  0  0  0  0  0  0  0
    2.3412    3.9204   -4.1969 C   0  0  0  0  0  0  0  0  0  0  0  0
    4.9955    3.3050   -3.1467 C   0  0  0  0  0  0  0  0  0  0  0  0
    5.5918    3.0106   -4.3918 C   0  0  0  0  0  0  0  0  0  0  0  0
    6.6885    3.7732   -4.8288 C   0  0  0  0  0  0  0  0  0  0  0  0
    7.2102    4.7954   -4.0111 C   0  0  0  0  0  0  0  0  0  0  0  0
    8.3393    5.6671   -4.4624 C   0  0  0  0  0  0  0  0  0  0  0  0
    6.6250    5.0391   -2.7586 C   0  0  0  0  0  0  0  0  0  0  0  0
    5.5478    4.2844   -2.3311 C   0  0  0  0  0  0  0  0  0  0  0  0
    3.3609    2.6879   -0.2949 C   0  0  0  0  0  0  0  0  0  0  0  0
    1.7405    2.7567    0.1896 S   0  0  0  0  0  0  0  0  0  0  0  0
    2.1042    2.9617    1.8250 C   0  0  0  0  0  0  0  0  0  0  0  0
    3.4738    3.0970    1.9326 C   0  0  0  0  0  0  0  0  0  0  0  0
    4.1055    3.2704    3.2545 N   0  0  0  0  0  0  0  0  0  0  0  0
    3.6781    4.4120    4.0308 C   0  0  0  0  0  0  0  0  0  0  0  0
    3.1233    4.2549    5.3143 C   0  0  0  0  0  0  0  0  0  0  0  0
    2.6851    5.3343    6.0607 C   0  0  0  0  0  0  0  0  0  0  0  0
    2.7758    6.6439    5.5578 C   0  0  0  0  0  0  0  0  0  0  0  0
    2.1992    7.7903    6.3377 C   0  0  0  0  0  0  0  0  0  0  0  0
    3.3950    6.8337    4.2953 C   0  0  0  0  0  0  0  0  0  0  0  0
    3.8293    5.7353    3.5453 C   0  0  0  0  0  0  0  0  0  0  0  0
    4.6991    2.1812    3.9797 C   0  0  0  0  0  0  0  0  0  0  0  0
    5.7125    2.4635    4.9112 C   0  0  0  0  0  0  0  0  0  0  0  0
    6.1825    1.4551    5.7558 C   0  0  0  0  0  0  0  0  0  0  0  0
    5.6392    0.1565    5.6802 C   0  0  0  0  0  0  0  0  0  0  0  0
    6.1338   -0.9056    6.5879 C   0  0  0  0  0  0  0  0  0  0  0  0
    4.6332   -0.1117    4.7383 C   0  0  0  0  0  0  0  0  0  0  0  0
    4.1582    0.8846    3.8957 C   0  0  0  0  0  0  0  0  0  0  0  0
    4.1783    2.7171    0.7352 C   0  0  0  0  0  0  0  0  0  0  0  0
    5.3878    1.4928    0.4947 S   0  0  0  0  0  0  0  0  0  0  0  0
    1.0380    3.2048    2.8756 C   0  0  0  0  0  0  0  0  0  0  0  0
   -0.0271    4.0112    2.6343 C   0  0  0  0  0  0  0  0  0  0  0  0
   -0.0326    4.8557    1.3937 C   0  0  0  0  0  0  0  0  0  0  0  0
    0.9632    5.5187    1.0540 O   0  0  0  0  0  0  0  0  0  0  0  0
   -1.4628    5.3444    1.3177 C   0  0  0  0  0  0  0  0  0  0  0  0
   -2.0812    5.9104    0.1196 C   0  0  0  0  0  0  0  0  0  0  0  0
   -3.4405    6.1445    0.2782 C   0  0  0  0  0  0  0  0  0  0  0  0
   -4.0971    5.7311    1.5039 C   0  0  0  0  0  0  0  0  0  0  0  0
   -3.5863    5.2995    2.6621 C   0  0  0  0  0  0  0  0  0  0  0  0
   -2.1986    4.9660    2.5166 C   0  0  0  0  0  0  0  0  0  0  0  0
   -1.2957    4.2117    3.4690 C   0  0  0  0  0  0  0  0  0  0  0  0
   -1.5314    3.9249    4.8062 C   0  0  0  0  0  0  0  0  0  0  0  0
   -0.5087    3.5630    5.6695 C   0  0  0  0  0  0  0  0  0  0  0  0
    0.3178    3.1820    6.4118 N   0  0  0  0  0  0  0  0  0  0  0  0
   -2.7098    4.0847    5.6732 C   0  0  0  0  0  0  0  0  0  0  0  0
   -3.6211    4.1744    6.3824 N   0  0  0  0  0  0  0  0  0  0  0  0
   -5.4225    6.0929    0.9326 C   0  0  0  0  0  0  0  0  0  0  0  0
   -6.0168    7.3014    1.7192 C   0  0  0  0  0  0  0  0  0  0  0  0
   -7.1148    7.8765    0.8627 C   0  0  0  0  0  0  0  0  0  0  0  0
   -6.4962    8.3875   -0.2069 C   0  0  0  0  0  0  0  0  0  0  0  0
   -5.0091    8.2028    0.0041 C   0  0  0  0  0  0  0  0  0  0  0  0
   -4.9903    8.4125    1.5379 C   0  0  0  0  0  0  0  0  0  0  0  0
   -4.7459    6.6777   -0.2536 C   0  0  0  0  0  0  0  0  0  0  0  0
   -5.8638   -4.6327   -1.7021 H   0  0  0  0  0  0  0  0  0  0  0  0
   -0.8487   -5.4866    1.9915 H   0  0  0  0  0  0  0  0  0  0  0  0
   -5.3087   -7.5275    3.3097 H   0  0  0  0  0  0  0  0  0  0  0  0
   -2.8757   -8.9579    4.9944 H   0  0  0  0  0  0  0  0  0  0  0  0
   -3.4353   -6.5386    6.4325 H   0  0  0  0  0  0  0  0  0  0  0  0
   -2.0600   -8.1689    8.0161 H   0  0  0  0  0  0  0  0  0  0  0  0
    0.3276   -8.4214    7.0494 H   0  0  0  0  0  0  0  0  0  0  0  0
    0.5969   -6.7306    5.0055 H   0  0  0  0  0  0  0  0  0  0  0  0
   -1.5915   -5.0612    5.1136 H   0  0  0  0  0  0  0  0  0  0  0  0
   -0.9725   -5.4469    6.7380 H   0  0  0  0  0  0  0  0  0  0  0  0
   -0.7794   -8.7451    3.8242 H   0  0  0  0  0  0  0  0  0  0  0  0
   -4.6837    0.8499    0.1315 H   0  0  0  0  0  0  0  0  0  0  0  0
   -4.8193    3.0810   -0.7589 H   0  0  0  0  0  0  0  0  0  0  0  0
   -4.8031    3.9493   -4.4181 H   0  0  0  0  0  0  0  0  0  0  0  0
   -5.4631    4.4324   -2.8223 H   0  0  0  0  0  0  0  0  0  0  0  0
   -3.6441    4.3591   -3.0570 H   0  0  0  0  0  0  0  0  0  0  0  0
   -4.4251    1.5407   -4.7849 H   0  0  0  0  0  0  0  0  0  0  0  0
   -4.3117   -0.7152   -3.9121 H   0  0  0  0  0  0  0  0  0  0  0  0
   -6.8488   -1.4436   -0.3389 H   0  0  0  0  0  0  0  0  0  0  0  0
   -7.5382   -1.3741    2.0198 H   0  0  0  0  0  0  0  0  0  0  0  0
   -6.9097   -1.1323    4.3660 H   0  0  0  0  0  0  0  0  0  0  0  0
   -5.1962   -0.8677    4.7687 H   0  0  0  0  0  0  0  0  0  0  0  0
   -5.8422   -2.5503    4.6469 H   0  0  0  0  0  0  0  0  0  0  0  0
   -3.3841   -1.7729    3.2037 H   0  0  0  0  0  0  0  0  0  0  0  0
   -2.7366   -1.7887    0.8435 H   0  0  0  0  0  0  0  0  0  0  0  0
    1.7596   -5.1014   -2.5297 H   0  0  0  0  0  0  0  0  0  0  0  0
    2.5091   -7.4174   -2.5927 H   0  0  0  0  0  0  0  0  0  0  0  0
    1.6917   -9.8504   -3.8750 H   0  0  0  0  0  0  0  0  0  0  0  0
    3.2895   -9.1897   -4.4613 H   0  0  0  0  0  0  0  0  0  0  0  0
    2.0028   -9.6588   -5.6368 H   0  0  0  0  0  0  0  0  0  0  0  0
    0.5941   -7.9250   -6.4395 H   0  0  0  0  0  0  0  0  0  0  0  0
   -0.4270   -5.7747   -6.2110 H   0  0  0  0  0  0  0  0  0  0  0  0
   -1.1990   -1.8702   -5.6465 H   0  0  0  0  0  0  0  0  0  0  0  0
   -1.4143   -1.3620   -8.0126 H   0  0  0  0  0  0  0  0  0  0  0  0
    0.6543   -1.5913  -10.4020 H   0  0  0  0  0  0  0  0  0  0  0  0
    0.2337   -3.3368  -10.7188 H   0  0  0  0  0  0  0  0  0  0  0  0
   -1.0652   -2.1426  -10.3383 H   0  0  0  0  0  0  0  0  0  0  0  0
    1.8487   -4.0345   -8.8906 H   0  0  0  0  0  0  0  0  0  0  0  0
    2.3255   -4.2807   -6.5646 H   0  0  0  0  0  0  0  0  0  0  0  0
    1.2138   -1.8840    1.5448 H   0  0  0  0  0  0  0  0  0  0  0  0
    0.1026   -2.6600    0.4078 H   0  0  0  0  0  0  0  0  0  0  0  0
    0.0380   -0.7875    0.6737 H   0  0  0  0  0  0  0  0  0  0  0  0
    6.9168   -1.2040   -3.4336 H   0  0  0  0  0  0  0  0  0  0  0  0
    6.7503    0.5781   -3.5041 H   0  0  0  0  0  0  0  0  0  0  0  0
    6.1564   -0.4037   -4.8619 H   0  0  0  0  0  0  0  0  0  0  0  0
    1.7879    0.8350   -2.8613 H   0  0  0  0  0  0  0  0  0  0  0  0
   -0.2334    1.0273   -4.1989 H   0  0  0  0  0  0  0  0  0  0  0  0
   -1.0707    3.9718   -6.3886 H   0  0  0  0  0  0  0  0  0  0  0  0
   -1.1044    2.1527   -6.4144 H   0  0  0  0  0  0  0  0  0  0  0  0
   -1.8874    3.0732   -5.0595 H   0  0  0  0  0  0  0  0  0  0  0  0
    0.9775    4.9635   -5.4757 H   0  0  0  0  0  0  0  0  0  0  0  0
    3.0240    4.7581   -4.1972 H   0  0  0  0  0  0  0  0  0  0  0  0
    5.1868    2.2162   -5.0251 H   0  0  0  0  0  0  0  0  0  0  0  0
    7.1277    3.5700   -5.8213 H   0  0  0  0  0  0  0  0  0  0  0  0
    7.9310    6.5853   -4.9297 H   0  0  0  0  0  0  0  0  0  0  0  0
    8.9742    5.1289   -5.2103 H   0  0  0  0  0  0  0  0  0  0  0  0
    8.9757    5.9490   -3.6003 H   0  0  0  0  0  0  0  0  0  0  0  0
    6.9715    5.8201   -2.0992 H   0  0  0  0  0  0  0  0  0  0  0  0
    5.1083    4.5078   -1.3904 H   0  0  0  0  0  0  0  0  0  0  0  0
    2.9701    3.2638    5.7412 H   0  0  0  0  0  0  0  0  0  0  0  0
    2.2275    5.1459    7.0534 H   0  0  0  0  0  0  0  0  0  0  0  0
    1.7319    7.4277    7.2725 H   0  0  0  0  0  0  0  0  0  0  0  0
    1.4137    8.2887    5.7191 H   0  0  0  0  0  0  0  0  0  0  0  0
    3.0144    8.4861    6.6259 H   0  0  0  0  0  0  0  0  0  0  0  0
    3.5249    7.8449    3.8865 H   0  0  0  0  0  0  0  0  0  0  0  0
    4.2823    5.9116    2.5782 H   0  0  0  0  0  0  0  0  0  0  0  0
    6.0913    3.4799    5.0209 H   0  0  0  0  0  0  0  0  0  0  0  0
    6.9508    1.6959    6.4882 H   0  0  0  0  0  0  0  0  0  0  0  0
    7.1467   -1.2088    6.2501 H   0  0  0  0  0  0  0  0  0  0  0  0
    5.4664   -1.7971    6.5733 H   0  0  0  0  0  0  0  0  0  0  0  0
    6.1728   -0.5172    7.6335 H   0  0  0  0  0  0  0  0  0  0  0  0
    4.1873   -1.1015    4.6456 H   0  0  0  0  0  0  0  0  0  0  0  0
    3.3386    0.6687    3.2619 H   0  0  0  0  0  0  0  0  0  0  0  0
    1.1241    2.6075    3.7633 H   0  0  0  0  0  0  0  0  0  0  0  0
   -1.4985    6.1382   -0.7885 H   0  0  0  0  0  0  0  0  0  0  0  0
   -4.5314    4.9192    3.1295 H   0  0  0  0  0  0  0  0  0  0  0  0
   -6.1214    5.2176    0.8198 H   0  0  0  0  0  0  0  0  0  0  0  0
   -6.2566    7.1151    2.8017 H   0  0  0  0  0  0  0  0  0  0  0  0
   -8.1790    7.8963    1.1036 H   0  0  0  0  0  0  0  0  0  0  0  0
   -7.0073    8.8917   -1.0081 H   0  0  0  0  0  0  0  0  0  0  0  0
   -4.3582    8.8839   -0.5675 H   0  0  0  0  0  0  0  0  0  0  0  0
   -5.3326    9.4351    1.8580 H   0  0  0  0  0  0  0  0  0  0  0  0
   -3.9949    8.2261    2.0307 H   0  0  0  0  0  0  0  0  0  0  0  0
   -5.1351    6.1955   -1.1919 H   0  0  0  0  0  0  0  0  0  0  0  0
  1  2  2  3
  2  3  1  0
  3  4  2  0
  3  5  1  0
  5  6  2  0
  6  7  1  0
  7  8  2  0
  8  9  1  0
  9 10  2  0
 10 11  1  0
 11 12  2  3
 12 13  1  0
 13 14  3  0
 12 15  1  0
 15 16  3  0
  8 17  1  0
 17 18  1  0
 18 19  1  0
 19 20  2  0
 20 21  1  0
 21 22  1  0
 21 23  1  0
  1 24  1  0
 24 25  2  0
 25 26  1  0
 26 27  1  0
 27 28  2  0
 28 29  1  0
 29 30  2  0
 30 31  1  0
 30 32  1  0
 32 33  2  0
 26 34  1  0
 34 35  2  0
 35 36  1  0
 36 37  2  0
 37 38  1  0
 37 39  1  0
 39 40  2  0
 25 41  1  0
 41 42  1  0
 42 43  1  0
 43 44  2  0
 44 45  1  0
 45 46  1  0
 46 47  2  0
 47 48  1  0
 48 49  2  0
 49 50  1  0
 49 51  1  0
 51 52  2  0
 45 53  1  0
 53 54  2  0
 54 55  1  0
 55 56  2  0
 56 57  1  0
 56 58  1  0
 58 59  2  0
 44 60  1  0
 60 61  1  0
 43 62  1  0
 62 63  2  0
 63 64  1  0
 64 65  1  0
 65 66  2  0
 65 67  1  0
 67 68  1  0
 64 69  2  0
 69 70  1  0
 70 71  1  0
 70 72  1  0
 72 73  2  0
 69 74  1  0
 74 75  2  0
 75 76  1  0
 76 77  1  0
 77 78  2  0
 78 79  1  0
 79 80  2  0
 80 81  1  0
 80 82  1  0
 82 83  2  0
 76 84  1  0
 84 85  2  0
 85 86  1  0
 86 87  2  0
 87 88  1  0
 87 89  1  0
 89 90  2  0
 75 91  1  0
 91 92  1  0
 92 93  1  0
 93 94  2  0
 94 95  1  0
 95 96  1  0
 96 97  2  0
 97 98  1  0
 98 99  2  0
 99100  1  0
 99101  1  0
101102  2  0
 95103  1  0
103104  2  0
104105  1  0
105106  2  0
106107  1  0
106108  1  0
108109  2  0
 94110  1  0
110111  1  0
 93112  1  0
112113  2  3
113114  1  0
114115  2  0
114116  1  0
116117  2  0
117118  1  0
118119  2  0
119120  1  0
120121  2  0
121122  1  0
122123  2  3
123124  1  0
124125  3  0
123126  1  0
126127  3  0
119128  1  0
128129  1  0
129130  1  0
130131  2  0
131132  1  0
132133  1  0
132134  1  0
 11  2  1  0
 23 17  1  0
 61 24  1  0
 67 62  1  0
111 74  1  0
122113  1  0
134128  1  0
 10  5  1  0
 22 18  1  0
 33 27  1  0
 40 34  1  0
 60 41  2  0
 72 63  1  0
 83 77  1  0
 90 84  1  0
110 91  2  0
121116  1  0
133129  1  0
 23  7  1  0
 52 46  1  0
 59 53  1  0
102 96  1  0
109103  1  0
134118  1  0
  1135  1  0
  6136  1  0
  9137  1  0
 17138  1  0
 18139  1  0
 19140  1  0
 20141  1  0
 21142  1  0
 22143  1  0
 22144  1  0
 23145  1  0
 28146  1  0
 29147  1  0
 31148  1  0
 31149  1  0
 31150  1  0
 32151  1  0
 33152  1  0
 35153  1  0
 36154  1  0
 38155  1  0
 38156  1  0
 38157  1  0
 39158  1  0
 40159  1  0
 47160  1  0
 48161  1  0
 50162  1  0
 50163  1  0
 50164  1  0
 51165  1  0
 52166  1  0
 54167  1  0
 55168  1  0
 57169  1  0
 57170  1  0
 57171  1  0
 58172  1  0
 59173  1  0
 68174  1  0
 68175  1  0
 68176  1  0
 71177  1  0
 71178  1  0
 71179  1  0
 78180  1  0
 79181  1  0
 81182  1  0
 81183  1  0
 81184  1  0
 82185  1  0
 83186  1  0
 85187  1  0
 86188  1  0
 88189  1  0
 88190  1  0
 88191  1  0
 89192  1  0
 90193  1  0
 97194  1  0
 98195  1  0
100196  1  0
100197  1  0
100198  1  0
101199  1  0
102200  1  0
104201  1  0
105202  1  0
107203  1  0
107204  1  0
107205  1  0
108206  1  0
109207  1  0
112208  1  0
117209  1  0
120210  1  0
128211  1  0
129212  1  0
130213  1  0
131214  1  0
132215  1  0
133216  1  0
133217  1  0
134218  1  0
M  END

