
     RDKit          3D

157175  0  0  0  0  0  0  0  0999 V2000
   -3.3516    2.1868   -7.6389 C   0  0  0  0  0  0  0  0  0  0  0  0
   -4.2331    3.1132   -8.0688 C   0  0  0  0  0  0  0  0  0  0  0  0
   -4.3122    4.4674   -7.5252 C   0  0  0  0  0  0  0  0  0  0  0  0
   -3.3328    5.1680   -7.1532 O   0  0  0  0  0  0  0  0  0  0  0  0
   -5.6994    4.8478   -7.4099 C   0  0  0  0  0  0  0  0  0  0  0  0
   -6.2117    5.8592   -6.5672 C   0  0  0  0  0  0  0  0  0  0  0  0
   -7.5719    5.7604   -6.3379 C   0  0  0  0  0  0  0  0  0  0  0  0
   -8.4003    4.7547   -6.9384 C   0  0  0  0  0  0  0  0  0  0  0  0
   -7.9047    3.7746   -7.7918 C   0  0  0  0  0  0  0  0  0  0  0  0
   -6.4977    3.8400   -8.0122 C   0  0  0  0  0  0  0  0  0  0  0  0
   -5.6006    2.7986   -8.5860 C   0  0  0  0  0  0  0  0  0  0  0  0
   -5.9456    1.8157   -9.4564 C   0  0  0  0  0  0  0  0  0  0  0  0
   -7.2853    1.6809   -9.9780 C   0  0  0  0  0  0  0  0  0  0  0  0
   -8.3577    1.5651  -10.4014 N   0  0  0  0  0  0  0  0  0  0  0  0
   -4.9628    0.9242  -10.0153 C   0  0  0  0  0  0  0  0  0  0  0  0
   -4.1804    0.2016  -10.4753 N   0  0  0  0  0  0  0  0  0  0  0  0
   -9.5856    5.2397   -6.1546 C   0  0  0  0  0  0  0  0  0  0  0  0
  -10.6477    6.0910   -6.9103 C   0  0  0  0  0  0  0  0  0  0  0  0
  -11.4829    6.7519   -5.8365 C   0  0  0  0  0  0  0  0  0  0  0  0
  -10.6988    7.6690   -5.2523 C   0  0  0  0  0  0  0  0  0  0  0  0
   -9.3629    7.6000   -5.9576 C   0  0  0  0  0  0  0  0  0  0  0  0
   -9.8543    7.3079   -7.3673 C   0  0  0  0  0  0  0  0  0  0  0  0
   -8.7275    6.2535   -5.5235 C   0  0  0  0  0  0  0  0  0  0  0  0
   -2.6369    2.3276   -6.3584 C   0  0  0  0  0  0  0  0  0  0  0  0
   -1.1707    1.5746   -5.9742 S   0  0  0  0  0  0  0  0  0  0  0  0
   -1.2686    1.8703   -4.3198 C   0  0  0  0  0  0  0  0  0  0  0  0
   -0.4018    1.4557   -3.3032 C   0  0  0  0  0  0  0  0  0  0  0  0
   -0.8150    1.6857   -1.9781 C   0  0  0  0  0  0  0  0  0  0  0  0
   -0.1582    1.2490   -0.8217 C   0  0  0  0  0  0  0  0  0  0  0  0
   -0.8915    1.5184    0.3342 C   0  0  0  0  0  0  0  0  0  0  0  0
   -2.3274    2.3045   -0.0632 S   0  0  0  0  0  0  0  0  0  0  0  0
   -2.0276    2.3220   -1.7160 C   0  0  0  0  0  0  0  0  0  0  0  0
   -2.8703    2.7746   -2.7318 C   0  0  0  0  0  0  0  0  0  0  0  0
   -2.4695    2.5260   -4.0493 C   0  0  0  0  0  0  0  0  0  0  0  0
   -3.2413    2.7773   -5.1813 C   0  0  0  0  0  0  0  0  0  0  0  0
   -0.5640    1.0092    1.6630 C   0  0  0  0  0  0  0  0  0  0  0  0
    0.5595    1.3620    2.4293 C   0  0  0  0  0  0  0  0  0  0  0  0
    1.4137    2.4996    2.1609 N   0  0  0  0  0  0  0  0  0  0  0  0
    0.8474    3.7345    1.6767 C   0  0  0  0  0  0  0  0  0  0  0  0
    1.4793    4.4459    0.6388 C   0  0  0  0  0  0  0  0  0  0  0  0
    0.8396    5.5340    0.0340 C   0  0  0  0  0  0  0  0  0  0  0  0
   -0.4328    5.9184    0.4652 C   0  0  0  0  0  0  0  0  0  0  0  0
   -1.3383    7.1774   -0.4226 S   0  0  0  0  0  0  0  0  0  0  0  0
   -2.1973    5.9665   -1.4776 C   0  0  0  0  0  0  0  0  0  0  0  0
   -1.0311    5.2672    1.5471 C   0  0  0  0  0  0  0  0  0  0  0  0
   -0.3926    4.1874    2.1584 C   0  0  0  0  0  0  0  0  0  0  0  0
    2.8253    2.4166    2.4202 C   0  0  0  0  0  0  0  0  0  0  0  0
    3.6214    1.5316    1.6767 C   0  0  0  0  0  0  0  0  0  0  0  0
    4.9665    1.3532    2.0036 C   0  0  0  0  0  0  0  0  0  0  0  0
    5.5076    2.0118    3.1085 C   0  0  0  0  0  0  0  0  0  0  0  0
    7.1993    1.6839    3.6173 S   0  0  0  0  0  0  0  0  0  0  0  0
    6.7557    0.1758    4.5462 C   0  0  0  0  0  0  0  0  0  0  0  0
    4.7242    2.9114    3.8399 C   0  0  0  0  0  0  0  0  0  0  0  0
    3.3878    3.1228    3.4928 C   0  0  0  0  0  0  0  0  0  0  0  0
    0.7495    0.4475    3.4684 C   0  0  0  0  0  0  0  0  0  0  0  0
    1.9996    0.1400    4.5311 S   0  0  0  0  0  0  0  0  0  0  0  0
    1.4047   -1.3737    5.0544 C   0  0  0  0  0  0  0  0  0  0  0  0
    0.1811   -1.6220    4.4041 C   0  0  0  0  0  0  0  0  0  0  0  0
   -0.6139   -2.8139    4.5784 N   0  0  0  0  0  0  0  0  0  0  0  0
   -1.3577   -3.3547    3.4672 C   0  0  0  0  0  0  0  0  0  0  0  0
   -2.7588   -3.4675    3.5423 C   0  0  0  0  0  0  0  0  0  0  0  0
   -3.4888   -3.9381    2.4493 C   0  0  0  0  0  0  0  0  0  0  0  0
   -2.8233   -4.3254    1.2798 C   0  0  0  0  0  0  0  0  0  0  0  0
   -3.7579   -4.9185   -0.1297 S   0  0  0  0  0  0  0  0  0  0  0  0
   -3.9318   -6.6042    0.5455 C   0  0  0  0  0  0  0  0  0  0  0  0
   -1.4332   -4.2011    1.1959 C   0  0  0  0  0  0  0  0  0  0  0  0
   -0.7028   -3.7097    2.2822 C   0  0  0  0  0  0  0  0  0  0  0  0
   -0.8591   -3.3519    5.8924 C   0  0  0  0  0  0  0  0  0  0  0  0
   -1.0337   -4.7417    6.0707 C   0  0  0  0  0  0  0  0  0  0  0  0
   -1.4961   -5.2520    7.2842 C   0  0  0  0  0  0  0  0  0  0  0  0
   -1.8132   -4.3769    8.3304 C   0  0  0  0  0  0  0  0  0  0  0  0
   -2.6294   -4.9905    9.8046 S   0  0  0  0  0  0  0  0  0  0  0  0
   -4.2993   -4.8715    9.0658 C   0  0  0  0  0  0  0  0  0  0  0  0
   -1.5706   -3.0024    8.1900 C   0  0  0  0  0  0  0  0  0  0  0  0
   -1.0922   -2.4930    6.9828 C   0  0  0  0  0  0  0  0  0  0  0  0
   -0.1407   -0.5786    3.5247 C   0  0  0  0  0  0  0  0  0  0  0  0
   -1.2773   -0.3946    2.3019 S   0  0  0  0  0  0  0  0  0  0  0  0
    2.3330   -2.4065    5.5518 C   0  0  0  0  0  0  0  0  0  0  0  0
    3.8615   -2.0161    6.1817 S   0  0  0  0  0  0  0  0  0  0  0  0
    4.6150   -3.4279    5.7118 C   0  0  0  0  0  0  0  0  0  0  0  0
    5.9920   -3.6502    5.6132 C   0  0  0  0  0  0  0  0  0  0  0  0
    6.4142   -4.7176    4.8061 C   0  0  0  0  0  0  0  0  0  0  0  0
    7.7243   -4.9309    4.3733 C   0  0  0  0  0  0  0  0  0  0  0  0
    7.8014   -5.9202    3.3943 C   0  0  0  0  0  0  0  0  0  0  0  0
    6.2666   -6.5707    3.1148 S   0  0  0  0  0  0  0  0  0  0  0  0
    5.4786   -5.5657    4.2036 C   0  0  0  0  0  0  0  0  0  0  0  0
    4.0986   -5.3701    4.3353 C   0  0  0  0  0  0  0  0  0  0  0  0
    3.6853   -4.2445    5.0675 C   0  0  0  0  0  0  0  0  0  0  0  0
    2.4071   -3.6916    4.9993 C   0  0  0  0  0  0  0  0  0  0  0  0
    8.9605   -6.1770    2.5296 C   0  0  0  0  0  0  0  0  0  0  0  0
    9.5331   -5.2260    1.7607 C   0  0  0  0  0  0  0  0  0  0  0  0
    8.9644   -3.9005    1.4657 C   0  0  0  0  0  0  0  0  0  0  0  0
    7.9609   -3.3647    2.0150 O   0  0  0  0  0  0  0  0  0  0  0  0
    9.6758   -3.3403    0.3398 C   0  0  0  0  0  0  0  0  0  0  0  0
    9.4190   -2.1384   -0.3243 C   0  0  0  0  0  0  0  0  0  0  0  0
   10.1894   -1.8265   -1.4564 C   0  0  0  0  0  0  0  0  0  0  0  0
    9.9072   -0.3190   -2.3124 Cl  0  0  0  0  0  0  0  0  0  0  0  0
   11.1527   -2.7366   -1.9298 C   0  0  0  0  0  0  0  0  0  0  0  0
   11.3831   -3.9448   -1.2536 C   0  0  0  0  0  0  0  0  0  0  0  0
   10.6539   -4.2256   -0.0839 C   0  0  0  0  0  0  0  0  0  0  0  0
   10.6896   -5.4065    0.8268 C   0  0  0  0  0  0  0  0  0  0  0  0
   11.6886   -6.3235    0.9409 C   0  0  0  0  0  0  0  0  0  0  0  0
   12.8415   -6.3277    0.0846 C   0  0  0  0  0  0  0  0  0  0  0  0
   13.7826   -6.3424   -0.5882 N   0  0  0  0  0  0  0  0  0  0  0  0
   11.7506   -7.2748    2.0276 C   0  0  0  0  0  0  0  0  0  0  0  0
   11.8163   -8.0285    2.9045 N   0  0  0  0  0  0  0  0  0  0  0  0
   -3.3657    1.1877   -8.0429 H   0  0  0  0  0  0  0  0  0  0  0  0
   -5.5765    6.5476   -6.0258 H   0  0  0  0  0  0  0  0  0  0  0  0
   -8.5365    2.9628   -8.1128 H   0  0  0  0  0  0  0  0  0  0  0  0
   -9.9912    4.4721   -5.4540 H   0  0  0  0  0  0  0  0  0  0  0  0
  -11.2227    5.5589   -7.7008 H   0  0  0  0  0  0  0  0  0  0  0  0
  -12.5321    6.5771   -5.6293 H   0  0  0  0  0  0  0  0  0  0  0  0
  -11.0057    8.3759   -4.4860 H   0  0  0  0  0  0  0  0  0  0  0  0
   -8.7160    8.4954   -5.8389 H   0  0  0  0  0  0  0  0  0  0  0  0
  -10.4905    8.1220   -7.7943 H   0  0  0  0  0  0  0  0  0  0  0  0
   -9.0424    7.0557   -8.0890 H   0  0  0  0  0  0  0  0  0  0  0  0
   -8.5912    6.1102   -4.4255 H   0  0  0  0  0  0  0  0  0  0  0  0
    0.5144    0.9200   -3.5243 H   0  0  0  0  0  0  0  0  0  0  0  0
    0.7803    0.7016   -0.8313 H   0  0  0  0  0  0  0  0  0  0  0  0
   -3.8163    3.2401   -2.5045 H   0  0  0  0  0  0  0  0  0  0  0  0
   -4.2333    3.1964   -5.1294 H   0  0  0  0  0  0  0  0  0  0  0  0
    2.4322    4.1218    0.2515 H   0  0  0  0  0  0  0  0  0  0  0  0
    1.3089    6.0467   -0.8010 H   0  0  0  0  0  0  0  0  0  0  0  0
   -2.9151    6.4872   -2.1460 H   0  0  0  0  0  0  0  0  0  0  0  0
   -2.7543    5.2452   -0.8550 H   0  0  0  0  0  0  0  0  0  0  0  0
   -1.4600    5.4206   -2.1039 H   0  0  0  0  0  0  0  0  0  0  0  0
   -2.0171    5.5526    1.8778 H   0  0  0  0  0  0  0  0  0  0  0  0
   -0.8924    3.6674    2.9673 H   0  0  0  0  0  0  0  0  0  0  0  0
    3.1947    0.9802    0.8518 H   0  0  0  0  0  0  0  0  0  0  0  0
    5.5795    0.6654    1.4270 H   0  0  0  0  0  0  0  0  0  0  0  0
    7.6312   -0.1520    5.1417 H   0  0  0  0  0  0  0  0  0  0  0  0
    6.4795   -0.6307    3.8375 H   0  0  0  0  0  0  0  0  0  0  0  0
    5.9091    0.3782    5.2351 H   0  0  0  0  0  0  0  0  0  0  0  0
    5.1411    3.4226    4.6988 H   0  0  0  0  0  0  0  0  0  0  0  0
    2.7774    3.7854    4.0845 H   0  0  0  0  0  0  0  0  0  0  0  0
   -3.2812   -3.1651    4.4446 H   0  0  0  0  0  0  0  0  0  0  0  0
   -4.5656   -4.0000    2.5128 H   0  0  0  0  0  0  0  0  0  0  0  0
   -4.4475   -7.2483   -0.1965 H   0  0  0  0  0  0  0  0  0  0  0  0
   -4.5556   -6.5616    1.4691 H   0  0  0  0  0  0  0  0  0  0  0  0
   -2.9416   -7.0382    0.7782 H   0  0  0  0  0  0  0  0  0  0  0  0
   -0.9149   -4.4710    0.2878 H   0  0  0  0  0  0  0  0  0  0  0  0
    0.3714   -3.6047    2.2062 H   0  0  0  0  0  0  0  0  0  0  0  0
   -0.8488   -5.4221    5.2539 H   0  0  0  0  0  0  0  0  0  0  0  0
   -1.6730   -6.3139    7.3874 H   0  0  0  0  0  0  0  0  0  0  0  0
   -5.0520   -4.8389    9.8725 H   0  0  0  0  0  0  0  0  0  0  0  0
   -4.4868   -5.7641    8.4251 H   0  0  0  0  0  0  0  0  0  0  0  0
   -4.4030   -3.9594    8.4485 H   0  0  0  0  0  0  0  0  0  0  0  0
   -1.8196   -2.3249    8.9956 H   0  0  0  0  0  0  0  0  0  0  0  0
   -0.9837   -1.4172    6.8738 H   0  0  0  0  0  0  0  0  0  0  0  0
    6.7016   -2.9295    6.0028 H   0  0  0  0  0  0  0  0  0  0  0  0
    8.5607   -4.3171    4.6734 H   0  0  0  0  0  0  0  0  0  0  0  0
    3.3927   -5.9564    3.7633 H   0  0  0  0  0  0  0  0  0  0  0  0
    1.6337   -4.1328    4.3948 H   0  0  0  0  0  0  0  0  0  0  0  0
    9.2740   -7.1996    2.4537 H   0  0  0  0  0  0  0  0  0  0  0  0
    8.6427   -1.4628    0.0221 H   0  0  0  0  0  0  0  0  0  0  0  0
   11.7161   -2.5122   -2.8297 H   0  0  0  0  0  0  0  0  0  0  0  0
   12.0846   -4.6454   -1.6746 H   0  0  0  0  0  0  0  0  0  0  0  0
  1  2  2  3
  2  3  1  0
  3  4  2  0
  3  5  1  0
  5  6  2  0
  6  7  1  0
  7  8  2  0
  8  9  1  0
  9 10  2  0
 10 11  1  0
 11 12  2  3
 12 13  1  0
 13 14  3  0
 12 15  1  0
 15 16  3  0
  8 17  1  0
 17 18  1  0
 18 19  1  0
 19 20  2  0
 20 21  1  0
 21 22  1  0
 21 23  1  0
  1 24  1  0
 24 25  1  0
 25 26  1  0
 26 27  2  0
 27 28  1  0
 28 29  1  0
 29 30  2  0
 30 31  1  0
 31 32  1  0
 32 33  1  0
 33 34  2  0
 34 35  1  0
 30 36  1  0
 36 37  2  0
 37 38  1  0
 38 39  1  0
 39 40  2  0
 40 41  1  0
 41 42  2  0
 42 43  1  0
 43 44  1  0
 42 45  1  0
 45 46  2  0
 38 47  1  0
 47 48  2  0
 48 49  1  0
 49 50  2  0
 50 51  1  0
 51 52  1  0
 50 53  1  0
 53 54  2  0
 37 55  1  0
 55 56  1  0
 56 57  1  0
 57 58  2  0
 58 59  1  0
 59 60  1  0
 60 61  2  0
 61 62  1  0
 62 63  2  0
 63 64  1  0
 64 65  1  0
 63 66  1  0
 66 67  2  0
 59 68  1  0
 68 69  2  0
 69 70  1  0
 70 71  2  0
 71 72  1  0
 72 73  1  0
 71 74  1  0
 74 75  2  0
 58 76  1  0
 76 77  1  0
 57 78  1  0
 78 79  1  0
 79 80  1  0
 80 81  2  0
 81 82  1  0
 82 83  1  0
 83 84  2  0
 84 85  1  0
 85 86  1  0
 86 87  1  0
 87 88  2  0
 88 89  1  0
 84 90  1  0
 90 91  2  3
 91 92  1  0
 92 93  2  0
 92 94  1  0
 94 95  2  0
 95 96  1  0
 96 97  1  0
 96 98  2  0
 98 99  1  0
 99100  2  0
100101  1  0
101102  2  3
102103  1  0
103104  3  0
102105  1  0
105106  3  0
 11  2  1  0
 23 17  1  0
 35 24  2  0
 77 36  1  0
 89 78  2  0
101 91  1  0
 10  5  1  0
 22 18  1  0
 34 26  1  0
 46 39  1  0
 54 47  1  0
 76 55  2  0
 88 80  1  0
100 94  1  0
 23  7  1  0
 32 28  2  0
 67 60  1  0
 75 68  1  0
 86 82  2  0
  1107  1  0
  6108  1  0
  9109  1  0
 17110  1  0
 18111  1  0
 19112  1  0
 20113  1  0
 21114  1  0
 22115  1  0
 22116  1  0
 23117  1  0
 27118  1  0
 29119  1  0
 33120  1  0
 35121  1  0
 40122  1  0
 41123  1  0
 44124  1  0
 44125  1  0
 44126  1  0
 45127  1  0
 46128  1  0
 48129  1  0
 49130  1  0
 52131  1  0
 52132  1  0
 52133  1  0
 53134  1  0
 54135  1  0
 61136  1  0
 62137  1  0
 65138  1  0
 65139  1  0
 65140  1  0
 66141  1  0
 67142  1  0
 69143  1  0
 70144  1  0
 73145  1  0
 73146  1  0
 73147  1  0
 74148  1  0
 75149  1  0
 81150  1  0
 83151  1  0
 87152  1  0
 89153  1  0
 90154  1  0
 95155  1  0
 98156  1  0
 99157  1  0
M  END

