
     RDKit          3D

201220  0  0  0  0  0  0  0  0999 V2000
   -4.9659   -1.0969    3.6363 C   0  0  0  0  0  0  0  0  0  0  0  0
   -5.4514   -2.0990    4.3893 C   0  0  0  0  0  0  0  0  0  0  0  0
   -5.4980   -3.5100    3.9895 C   0  0  0  0  0  0  0  0  0  0  0  0
   -5.0658   -3.9856    2.9056 O   0  0  0  0  0  0  0  0  0  0  0  0
   -6.1938   -4.2578    5.0105 C   0  0  0  0  0  0  0  0  0  0  0  0
   -6.3727   -5.6645    5.0646 C   0  0  0  0  0  0  0  0  0  0  0  0
   -6.8212   -6.1154    6.2952 C   0  0  0  0  0  0  0  0  0  0  0  0
   -7.0617   -5.2492    7.4093 C   0  0  0  0  0  0  0  0  0  0  0  0
   -6.9540   -3.8701    7.3381 C   0  0  0  0  0  0  0  0  0  0  0  0
   -6.5522   -3.3754    6.0662 C   0  0  0  0  0  0  0  0  0  0  0  0
   -6.1793   -1.9778    5.7013 C   0  0  0  0  0  0  0  0  0  0  0  0
   -6.4674   -0.8554    6.4018 C   0  0  0  0  0  0  0  0  0  0  0  0
   -5.6179    0.3038    6.3491 C   0  0  0  0  0  0  0  0  0  0  0  0
   -4.8717    1.1752    6.3296 N   0  0  0  0  0  0  0  0  0  0  0  0
   -7.4976   -0.8308    7.4117 C   0  0  0  0  0  0  0  0  0  0  0  0
   -8.3396   -0.7947    8.2038 N   0  0  0  0  0  0  0  0  0  0  0  0
   -7.3400   -6.4255    8.2931 C   0  0  0  0  0  0  0  0  0  0  0  0
   -8.8186   -6.6828    8.7164 C   0  0  0  0  0  0  0  0  0  0  0  0
   -9.7587   -6.1345    7.6760 C   0  0  0  0  0  0  0  0  0  0  0  0
   -9.6064   -6.8873    6.5808 C   0  0  0  0  0  0  0  0  0  0  0  0
   -8.5853   -7.9469    6.9374 C   0  0  0  0  0  0  0  0  0  0  0  0
   -8.9466   -8.1519    8.3980 C   0  0  0  0  0  0  0  0  0  0  0  0
   -7.1723   -7.3067    7.1285 C   0  0  0  0  0  0  0  0  0  0  0  0
   -4.1475   -1.3142    2.4340 C   0  0  0  0  0  0  0  0  0  0  0  0
   -2.7626   -1.5145    2.4408 C   0  0  0  0  0  0  0  0  0  0  0  0
   -1.9455   -1.3795    3.6233 N   0  0  0  0  0  0  0  0  0  0  0  0
   -0.9177   -2.3692    3.8658 C   0  0  0  0  0  0  0  0  0  0  0  0
   -1.2070   -3.7362    3.7315 C   0  0  0  0  0  0  0  0  0  0  0  0
   -0.1999   -4.6996    3.9194 C   0  0  0  0  0  0  0  0  0  0  0  0
    1.1024   -4.3058    4.2548 C   0  0  0  0  0  0  0  0  0  0  0  0
    2.1736   -5.3436    4.4304 C   0  0  0  0  0  0  0  0  0  0  0  0
    1.3904   -2.9383    4.3834 C   0  0  0  0  0  0  0  0  0  0  0  0
    0.3911   -1.9772    4.1939 C   0  0  0  0  0  0  0  0  0  0  0  0
   -2.0007   -0.1477    4.3816 C   0  0  0  0  0  0  0  0  0  0  0  0
   -1.7173   -0.1474    5.7531 C   0  0  0  0  0  0  0  0  0  0  0  0
   -1.7338    1.0512    6.4770 C   0  0  0  0  0  0  0  0  0  0  0  0
   -2.0510    2.2684    5.8442 C   0  0  0  0  0  0  0  0  0  0  0  0
   -2.1157    3.5315    6.6432 C   0  0  0  0  0  0  0  0  0  0  0  0
   -2.3508    2.2709    4.4761 C   0  0  0  0  0  0  0  0  0  0  0  0
   -2.3128    1.0745    3.7517 C   0  0  0  0  0  0  0  0  0  0  0  0
   -2.2219   -1.3286    1.1616 C   0  0  0  0  0  0  0  0  0  0  0  0
   -0.6642   -0.9985    0.6563 S   0  0  0  0  0  0  0  0  0  0  0  0
   -1.1099   -0.3047   -0.8289 C   0  0  0  0  0  0  0  0  0  0  0  0
   -2.5159   -0.3009   -0.9227 C   0  0  0  0  0  0  0  0  0  0  0  0
   -3.2680    0.5043   -1.8555 N   0  0  0  0  0  0  0  0  0  0  0  0
   -4.3503    1.3152   -1.3379 C   0  0  0  0  0  0  0  0  0  0  0  0
   -5.6678    1.0997   -1.7919 C   0  0  0  0  0  0  0  0  0  0  0  0
   -6.7348    1.7661   -1.2076 C   0  0  0  0  0  0  0  0  0  0  0  0
   -6.5077    2.6877   -0.1669 C   0  0  0  0  0  0  0  0  0  0  0  0
   -7.6663    3.3244    0.5356 C   0  0  0  0  0  0  0  0  0  0  0  0
   -5.1962    2.9133    0.2844 C   0  0  0  0  0  0  0  0  0  0  0  0
   -4.1162    2.2351   -0.3048 C   0  0  0  0  0  0  0  0  0  0  0  0
   -3.2680    0.2054   -3.2671 C   0  0  0  0  0  0  0  0  0  0  0  0
   -3.3028   -1.1248   -3.7150 C   0  0  0  0  0  0  0  0  0  0  0  0
   -3.6894   -1.4111   -5.0337 C   0  0  0  0  0  0  0  0  0  0  0  0
   -4.0132   -0.3697   -5.9148 C   0  0  0  0  0  0  0  0  0  0  0  0
   -4.6266   -0.6541   -7.2497 C   0  0  0  0  0  0  0  0  0  0  0  0
   -3.8481    0.9603   -5.5102 C   0  0  0  0  0  0  0  0  0  0  0  0
   -3.4790    1.2469   -4.1969 C   0  0  0  0  0  0  0  0  0  0  0  0
   -3.0964   -0.9136    0.2046 C   0  0  0  0  0  0  0  0  0  0  0  0
   -4.6290   -0.8280    0.8949 S   0  0  0  0  0  0  0  0  0  0  0  0
   -0.1979    0.5335   -1.6350 C   0  0  0  0  0  0  0  0  0  0  0  0
    0.6786    1.5260   -1.1261 C   0  0  0  0  0  0  0  0  0  0  0  0
    1.4098    1.3468    0.1127 N   0  0  0  0  0  0  0  0  0  0  0  0
    1.3438    2.3162    1.1732 C   0  0  0  0  0  0  0  0  0  0  0  0
    0.6500    2.0085    2.3534 C   0  0  0  0  0  0  0  0  0  0  0  0
    0.8641    2.7504    3.5220 C   0  0  0  0  0  0  0  0  0  0  0  0
    1.6955    3.8736    3.4977 C   0  0  0  0  0  0  0  0  0  0  0  0
    2.0521    4.7596    5.0211 S   0  0  0  0  0  0  0  0  0  0  0  0
    0.4752    5.6808    5.0575 C   0  0  0  0  0  0  0  0  0  0  0  0
    2.3351    4.2351    2.3078 C   0  0  0  0  0  0  0  0  0  0  0  0
    2.1869    3.4426    1.1634 C   0  0  0  0  0  0  0  0  0  0  0  0
    2.3866    0.2821    0.2077 C   0  0  0  0  0  0  0  0  0  0  0  0
    3.1769   -0.0715   -0.9035 C   0  0  0  0  0  0  0  0  0  0  0  0
    4.0143   -1.1882   -0.8671 C   0  0  0  0  0  0  0  0  0  0  0  0
    4.0624   -1.9864    0.2780 C   0  0  0  0  0  0  0  0  0  0  0  0
    5.0381   -3.4876    0.2734 S   0  0  0  0  0  0  0  0  0  0  0  0
    3.7955   -4.4326   -0.6675 C   0  0  0  0  0  0  0  0  0  0  0  0
    3.3198   -1.6320    1.4045 C   0  0  0  0  0  0  0  0  0  0  0  0
    2.5134   -0.4904    1.3823 C   0  0  0  0  0  0  0  0  0  0  0  0
    1.2464    2.2382   -2.2012 C   0  0  0  0  0  0  0  0  0  0  0  0
    2.4689    3.3691   -2.2742 S   0  0  0  0  0  0  0  0  0  0  0  0
    2.7206    3.2222   -3.9362 C   0  0  0  0  0  0  0  0  0  0  0  0
    1.9089    2.1919   -4.4545 C   0  0  0  0  0  0  0  0  0  0  0  0
    2.2885    1.3907   -5.6006 N   0  0  0  0  0  0  0  0  0  0  0  0
    1.2906    0.8081   -6.4839 C   0  0  0  0  0  0  0  0  0  0  0  0
    1.5779   -0.3712   -7.2021 C   0  0  0  0  0  0  0  0  0  0  0  0
    0.6906   -0.8516   -8.1611 C   0  0  0  0  0  0  0  0  0  0  0  0
   -0.5447   -0.2253   -8.3561 C   0  0  0  0  0  0  0  0  0  0  0  0
   -1.6600   -0.8339   -9.6240 S   0  0  0  0  0  0  0  0  0  0  0  0
   -2.0326   -2.3931   -8.7549 C   0  0  0  0  0  0  0  0  0  0  0  0
   -0.8742    0.9096   -7.5983 C   0  0  0  0  0  0  0  0  0  0  0  0
    0.0431    1.4298   -6.6821 C   0  0  0  0  0  0  0  0  0  0  0  0
    3.6981    1.0952   -5.8038 C   0  0  0  0  0  0  0  0  0  0  0  0
    4.5272    0.7725   -4.7117 C   0  0  0  0  0  0  0  0  0  0  0  0
    5.8937    0.5770   -4.8851 C   0  0  0  0  0  0  0  0  0  0  0  0
    6.4594    0.6475   -6.1670 C   0  0  0  0  0  0  0  0  0  0  0  0
    8.2365    0.5037   -6.3944 S   0  0  0  0  0  0  0  0  0  0  0  0
    8.3552   -1.2089   -5.7814 C   0  0  0  0  0  0  0  0  0  0  0  0
    5.6397    0.9268   -7.2654 C   0  0  0  0  0  0  0  0  0  0  0  0
    4.2734    1.1715   -7.0863 C   0  0  0  0  0  0  0  0  0  0  0  0
    1.0355    1.7261   -3.4518 C   0  0  0  0  0  0  0  0  0  0  0  0
   -0.0228    0.4261   -3.3293 S   0  0  0  0  0  0  0  0  0  0  0  0
    3.7923    3.9813   -4.6012 C   0  0  0  0  0  0  0  0  0  0  0  0
    3.8794    4.3682   -5.9265 C   0  0  0  0  0  0  0  0  0  0  0  0
    5.0223    5.1480   -6.0174 C   0  0  0  0  0  0  0  0  0  0  0  0
    5.5600    5.1610   -4.7429 C   0  0  0  0  0  0  0  0  0  0  0  0
    4.8076    4.4617   -3.9332 O   0  0  0  0  0  0  0  0  0  0  0  0
    6.7418    5.8959   -4.2778 C   0  0  0  0  0  0  0  0  0  0  0  0
    7.5812    5.3437   -3.3828 C   0  0  0  0  0  0  0  0  0  0  0  0
    7.8020    3.9078   -3.2187 C   0  0  0  0  0  0  0  0  0  0  0  0
    7.2123    2.9801   -3.8424 O   0  0  0  0  0  0  0  0  0  0  0  0
    8.9076    3.7199   -2.3056 C   0  0  0  0  0  0  0  0  0  0  0  0
    9.4118    2.5131   -1.8161 C   0  0  0  0  0  0  0  0  0  0  0  0
   10.4734    2.5579   -0.8898 C   0  0  0  0  0  0  0  0  0  0  0  0
   10.9873    1.2694   -0.2776 C   0  0  0  0  0  0  0  0  0  0  0  0
   10.8769    0.2098   -1.1711 F   0  0  0  0  0  0  0  0  0  0  0  0
   10.2653    0.9777    0.8666 F   0  0  0  0  0  0  0  0  0  0  0  0
   12.3260    1.4147    0.0609 F   0  0  0  0  0  0  0  0  0  0  0  0
   10.9911    3.8064   -0.4706 C   0  0  0  0  0  0  0  0  0  0  0  0
   10.4706    5.0051   -0.9950 C   0  0  0  0  0  0  0  0  0  0  0  0
    9.4053    4.9490   -1.9083 C   0  0  0  0  0  0  0  0  0  0  0  0
    8.5682    6.0462   -2.5050 C   0  0  0  0  0  0  0  0  0  0  0  0
    8.3934    7.2869   -1.9970 C   0  0  0  0  0  0  0  0  0  0  0  0
    7.0925    7.9125   -2.0416 C   0  0  0  0  0  0  0  0  0  0  0  0
    6.0192    8.3427   -2.0048 N   0  0  0  0  0  0  0  0  0  0  0  0
    9.3432    7.9025   -1.1118 C   0  0  0  0  0  0  0  0  0  0  0  0
   10.0915    8.3954   -0.3756 N   0  0  0  0  0  0  0  0  0  0  0  0
   -5.1151   -0.0682    3.9119 H   0  0  0  0  0  0  0  0  0  0  0  0
   -6.1085   -6.3309    4.2526 H   0  0  0  0  0  0  0  0  0  0  0  0
   -7.1022   -3.2474    8.2125 H   0  0  0  0  0  0  0  0  0  0  0  0
   -6.5793   -6.6075    9.0930 H   0  0  0  0  0  0  0  0  0  0  0  0
   -9.0678   -6.3909    9.7544 H   0  0  0  0  0  0  0  0  0  0  0  0
  -10.4805   -5.3267    7.7910 H   0  0  0  0  0  0  0  0  0  0  0  0
  -10.1718   -6.8066    5.6640 H   0  0  0  0  0  0  0  0  0  0  0  0
   -8.6334   -8.8654    6.3029 H   0  0  0  0  0  0  0  0  0  0  0  0
   -9.9895   -8.5437    8.5599 H   0  0  0  0  0  0  0  0  0  0  0  0
   -8.2247   -8.7873    8.9673 H   0  0  0  0  0  0  0  0  0  0  0  0
   -6.3338   -8.0316    7.2287 H   0  0  0  0  0  0  0  0  0  0  0  0
   -2.2107   -4.0713    3.4821 H   0  0  0  0  0  0  0  0  0  0  0  0
   -0.4428   -5.7520    3.8051 H   0  0  0  0  0  0  0  0  0  0  0  0
    3.0526   -4.9293    4.9667 H   0  0  0  0  0  0  0  0  0  0  0  0
    1.7820   -6.2060    5.0141 H   0  0  0  0  0  0  0  0  0  0  0  0
    2.5011   -5.7073    3.4304 H   0  0  0  0  0  0  0  0  0  0  0  0
    2.3978   -2.6195    4.6288 H   0  0  0  0  0  0  0  0  0  0  0  0
    0.6526   -0.9330    4.2857 H   0  0  0  0  0  0  0  0  0  0  0  0
   -1.4875   -1.0789    6.2708 H   0  0  0  0  0  0  0  0  0  0  0  0
   -1.5304    1.0283    7.5432 H   0  0  0  0  0  0  0  0  0  0  0  0
   -1.1807    3.6512    7.2251 H   0  0  0  0  0  0  0  0  0  0  0  0
   -2.2281    4.4163    5.9979 H   0  0  0  0  0  0  0  0  0  0  0  0
   -2.9757    3.4890    7.3343 H   0  0  0  0  0  0  0  0  0  0  0  0
   -2.5926    3.1948    3.9598 H   0  0  0  0  0  0  0  0  0  0  0  0
   -2.4993    1.1192    2.6820 H   0  0  0  0  0  0  0  0  0  0  0  0
   -5.8594    0.3762   -2.5673 H   0  0  0  0  0  0  0  0  0  0  0  0
   -7.7422    1.5595   -1.5484 H   0  0  0  0  0  0  0  0  0  0  0  0
   -7.9170    2.7291    1.4371 H   0  0  0  0  0  0  0  0  0  0  0  0
   -7.4111    4.3636    0.8325 H   0  0  0  0  0  0  0  0  0  0  0  0
   -8.5559    3.3663   -0.1327 H   0  0  0  0  0  0  0  0  0  0  0  0
   -5.0085    3.5870    1.1081 H   0  0  0  0  0  0  0  0  0  0  0  0
   -3.1214    2.3915    0.0736 H   0  0  0  0  0  0  0  0  0  0  0  0
   -3.1413   -1.9384   -3.0213 H   0  0  0  0  0  0  0  0  0  0  0  0
   -3.7868   -2.4439   -5.3471 H   0  0  0  0  0  0  0  0  0  0  0  0
   -4.6588   -1.7436   -7.4620 H   0  0  0  0  0  0  0  0  0  0  0  0
   -4.0565   -0.1498   -8.0542 H   0  0  0  0  0  0  0  0  0  0  0  0
   -5.6748   -0.2780   -7.2609 H   0  0  0  0  0  0  0  0  0  0  0  0
   -4.0970    1.7805   -6.1701 H   0  0  0  0  0  0  0  0  0  0  0  0
   -3.4615    2.2829   -3.8692 H   0  0  0  0  0  0  0  0  0  0  0  0
    0.0290    1.1323    2.3959 H   0  0  0  0  0  0  0  0  0  0  0  0
    0.4119    2.4257    4.4509 H   0  0  0  0  0  0  0  0  0  0  0  0
   -0.3534    5.0731    4.6540 H   0  0  0  0  0  0  0  0  0  0  0  0
    0.2301    5.9346    6.1086 H   0  0  0  0  0  0  0  0  0  0  0  0
    0.5635    6.6353    4.4843 H   0  0  0  0  0  0  0  0  0  0  0  0
    3.0115    5.0852    2.2980 H   0  0  0  0  0  0  0  0  0  0  0  0
    2.8126    3.6619    0.3122 H   0  0  0  0  0  0  0  0  0  0  0  0
    3.1257    0.5023   -1.8035 H   0  0  0  0  0  0  0  0  0  0  0  0
    4.6103   -1.4403   -1.7372 H   0  0  0  0  0  0  0  0  0  0  0  0
    4.1337   -5.4869   -0.7475 H   0  0  0  0  0  0  0  0  0  0  0  0
    2.8121   -4.3995   -0.1564 H   0  0  0  0  0  0  0  0  0  0  0  0
    3.7056   -4.0114   -1.6892 H   0  0  0  0  0  0  0  0  0  0  0  0
    3.3706   -2.2402    2.3048 H   0  0  0  0  0  0  0  0  0  0  0  0
    1.9321   -0.2678    2.2624 H   0  0  0  0  0  0  0  0  0  0  0  0
    2.5079   -0.9053   -7.0571 H   0  0  0  0  0  0  0  0  0  0  0  0
    0.9649   -1.7285   -8.7392 H   0  0  0  0  0  0  0  0  0  0  0  0
   -2.1983   -2.2174   -7.6700 H   0  0  0  0  0  0  0  0  0  0  0  0
   -2.9455   -2.8477   -9.1931 H   0  0  0  0  0  0  0  0  0  0  0  0
   -1.1878   -3.1017   -8.8809 H   0  0  0  0  0  0  0  0  0  0  0  0
   -1.8278    1.3950   -7.7373 H   0  0  0  0  0  0  0  0  0  0  0  0
   -0.2101    2.3352   -6.1486 H   0  0  0  0  0  0  0  0  0  0  0  0
    4.1275    0.7184   -3.7132 H   0  0  0  0  0  0  0  0  0  0  0  0
    6.5043    0.3675   -4.0183 H   0  0  0  0  0  0  0  0  0  0  0  0
    9.3045   -1.6501   -6.1419 H   0  0  0  0  0  0  0  0  0  0  0  0
    7.4985   -1.8283   -6.1303 H   0  0  0  0  0  0  0  0  0  0  0  0
    8.3678   -1.1845   -4.6647 H   0  0  0  0  0  0  0  0  0  0  0  0
    6.0646    0.9917   -8.2640 H   0  0  0  0  0  0  0  0  0  0  0  0
    3.6685    1.4461   -7.9342 H   0  0  0  0  0  0  0  0  0  0  0  0
    3.1878    4.1409   -6.7280 H   0  0  0  0  0  0  0  0  0  0  0  0
    5.4017    5.6537   -6.8925 H   0  0  0  0  0  0  0  0  0  0  0  0
    6.8227    6.9486   -4.5355 H   0  0  0  0  0  0  0  0  0  0  0  0
    8.9729    1.5698   -2.1239 H   0  0  0  0  0  0  0  0  0  0  0  0
   11.7717    3.8523    0.2830 H   0  0  0  0  0  0  0  0  0  0  0  0
   10.8968    5.9330   -0.6582 H   0  0  0  0  0  0  0  0  0  0  0  0
  1  2  2  3
  2  3  1  0
  3  4  2  0
  3  5  1  0
  5  6  2  0
  6  7  1  0
  7  8  2  0
  8  9  1  0
  9 10  2  0
 10 11  1  0
 11 12  2  3
 12 13  1  0
 13 14  3  0
 12 15  1  0
 15 16  3  0
  8 17  1  0
 17 18  1  0
 18 19  1  0
 19 20  2  0
 20 21  1  0
 21 22  1  0
 21 23  1  0
  1 24  1  0
 24 25  2  0
 25 26  1  0
 26 27  1  0
 27 28  2  0
 28 29  1  0
 29 30  2  0
 30 31  1  0
 30 32  1  0
 32 33  2  0
 26 34  1  0
 34 35  2  0
 35 36  1  0
 36 37  2  0
 37 38  1  0
 37 39  1  0
 39 40  2  0
 25 41  1  0
 41 42  1  0
 42 43  1  0
 43 44  2  0
 44 45  1  0
 45 46  1  0
 46 47  2  0
 47 48  1  0
 48 49  2  0
 49 50  1  0
 49 51  1  0
 51 52  2  0
 45 53  1  0
 53 54  2  0
 54 55  1  0
 55 56  2  0
 56 57  1  0
 56 58  1  0
 58 59  2  0
 44 60  1  0
 60 61  1  0
 43 62  1  0
 62 63  2  0
 63 64  1  0
 64 65  1  0
 65 66  2  0
 66 67  1  0
 67 68  2  0
 68 69  1  0
 69 70  1  0
 68 71  1  0
 71 72  2  0
 64 73  1  0
 73 74  2  0
 74 75  1  0
 75 76  2  0
 76 77  1  0
 77 78  1  0
 76 79  1  0
 79 80  2  0
 63 81  1  0
 81 82  1  0
 82 83  1  0
 83 84  2  0
 84 85  1  0
 85 86  1  0
 86 87  2  0
 87 88  1  0
 88 89  2  0
 89 90  1  0
 90 91  1  0
 89 92  1  0
 92 93  2  0
 85 94  1  0
 94 95  2  0
 95 96  1  0
 96 97  2  0
 97 98  1  0
 98 99  1  0
 97100  1  0
100101  2  0
 84102  1  0
102103  1  0
 83104  1  0
104105  2  0
105106  1  0
106107  2  0
107108  1  0
107109  1  0
109110  2  3
110111  1  0
111112  2  0
111113  1  0
113114  2  0
114115  1  0
115116  1  0
116117  1  0
116118  1  0
116119  1  0
115120  2  0
120121  1  0
121122  2  0
122123  1  0
123124  2  3
124125  1  0
125126  3  0
124127  1  0
127128  3  0
 11  2  1  0
 23 17  1  0
 61 24  1  0
103 62  1  0
108104  1  0
123110  1  0
 10  5  1  0
 22 18  1  0
 33 27  1  0
 40 34  1  0
 60 41  2  0
 72 65  1  0
 80 73  1  0
102 81  2  0
122113  1  0
 23  7  1  0
 52 46  1  0
 59 53  1  0
 93 86  1  0
101 94  1  0
  1129  1  0
  6130  1  0
  9131  1  0
 17132  1  0
 18133  1  0
 19134  1  0
 20135  1  0
 21136  1  0
 22137  1  0
 22138  1  0
 23139  1  0
 28140  1  0
 29141  1  0
 31142  1  0
 31143  1  0
 31144  1  0
 32145  1  0
 33146  1  0
 35147  1  0
 36148  1  0
 38149  1  0
 38150  1  0
 38151  1  0
 39152  1  0
 40153  1  0
 47154  1  0
 48155  1  0
 50156  1  0
 50157  1  0
 50158  1  0
 51159  1  0
 52160  1  0
 54161  1  0
 55162  1  0
 57163  1  0
 57164  1  0
 57165  1  0
 58166  1  0
 59167  1  0
 66168  1  0
 67169  1  0
 70170  1  0
 70171  1  0
 70172  1  0
 71173  1  0
 72174  1  0
 74175  1  0
 75176  1  0
 78177  1  0
 78178  1  0
 78179  1  0
 79180  1  0
 80181  1  0
 87182  1  0
 88183  1  0
 91184  1  0
 91185  1  0
 91186  1  0
 92187  1  0
 93188  1  0
 95189  1  0
 96190  1  0
 99191  1  0
 99192  1  0
 99193  1  0
100194  1  0
101195  1  0
105196  1  0
106197  1  0
109198  1  0
114199  1  0
120200  1  0
121201  1  0
M  END

