
     RDKit          3D

180195  0  0  0  0  0  0  0  0999 V2000
    0.5646   -3.6885    6.4861 C   0  0  0  0  0  0  0  0  0  0  0  0
   -0.4357   -2.7872    6.6234 C   0  0  0  0  0  0  0  0  0  0  0  0
   -1.2704   -2.2661    5.5270 C   0  0  0  0  0  0  0  0  0  0  0  0
   -1.0000   -2.2871    4.2963 O   0  0  0  0  0  0  0  0  0  0  0  0
   -2.4858   -1.7178    6.0814 C   0  0  0  0  0  0  0  0  0  0  0  0
   -3.6056   -1.2426    5.3614 C   0  0  0  0  0  0  0  0  0  0  0  0
   -4.6761   -0.9007    6.1623 C   0  0  0  0  0  0  0  0  0  0  0  0
   -4.6569   -1.0213    7.5899 C   0  0  0  0  0  0  0  0  0  0  0  0
   -3.5562   -1.4758    8.2999 C   0  0  0  0  0  0  0  0  0  0  0  0
   -2.4306   -1.8076    7.4942 C   0  0  0  0  0  0  0  0  0  0  0  0
   -1.1006   -2.3581    7.8927 C   0  0  0  0  0  0  0  0  0  0  0  0
   -0.5302   -2.2807    9.1234 C   0  0  0  0  0  0  0  0  0  0  0  0
   -1.2115   -1.7164   10.2589 C   0  0  0  0  0  0  0  0  0  0  0  0
   -1.7498   -1.2629   11.1793 N   0  0  0  0  0  0  0  0  0  0  0  0
    0.8350   -2.6651    9.3728 C   0  0  0  0  0  0  0  0  0  0  0  0
    1.9311   -2.9787    9.5864 N   0  0  0  0  0  0  0  0  0  0  0  0
   -6.0763   -0.5353    7.6642 C   0  0  0  0  0  0  0  0  0  0  0  0
   -6.3259    0.9199    8.1605 C   0  0  0  0  0  0  0  0  0  0  0  0
   -5.1498    1.7998    7.8013 C   0  0  0  0  0  0  0  0  0  0  0  0
   -5.1540    1.9168    6.4724 C   0  0  0  0  0  0  0  0  0  0  0  0
   -6.3369    1.1179    5.9735 C   0  0  0  0  0  0  0  0  0  0  0  0
   -7.3072    1.3923    7.1057 C   0  0  0  0  0  0  0  0  0  0  0  0
   -6.0880   -0.4033    6.2030 C   0  0  0  0  0  0  0  0  0  0  0  0
    0.9255   -4.2479    5.1775 C   0  0  0  0  0  0  0  0  0  0  0  0
    0.1357   -5.1758    4.5247 C   0  0  0  0  0  0  0  0  0  0  0  0
    0.2360   -5.1165    3.1229 C   0  0  0  0  0  0  0  0  0  0  0  0
   -0.6055   -5.8366    2.2672 O   0  0  0  0  0  0  0  0  0  0  0  0
   -1.7527   -6.5780    2.6877 C   0  0  0  0  0  0  0  0  0  0  0  0
   -2.8857   -5.6352    3.0922 C   0  0  0  0  0  0  0  0  0  0  0  0
    1.1770   -4.1867    2.6610 C   0  0  0  0  0  0  0  0  0  0  0  0
    1.8115   -3.4188    4.0218 S   0  0  0  0  0  0  0  0  0  0  0  0
    1.2226   -3.5508    1.3242 C   0  0  0  0  0  0  0  0  0  0  0  0
    0.6626   -3.9997    0.1031 C   0  0  0  0  0  0  0  0  0  0  0  0
    0.4257   -5.3712   -0.2485 N   0  0  0  0  0  0  0  0  0  0  0  0
    1.5956   -6.1429   -0.5458 C   0  0  0  0  0  0  0  0  0  0  0  0
    2.1002   -6.1751   -1.8556 C   0  0  0  0  0  0  0  0  0  0  0  0
    3.2885   -6.8544   -2.1335 C   0  0  0  0  0  0  0  0  0  0  0  0
    3.9807   -7.5056   -1.1024 C   0  0  0  0  0  0  0  0  0  0  0  0
    5.5160   -8.3644   -1.4561 S   0  0  0  0  0  0  0  0  0  0  0  0
    6.5492   -6.9117   -1.0882 C   0  0  0  0  0  0  0  0  0  0  0  0
    3.4649   -7.4954    0.1970 C   0  0  0  0  0  0  0  0  0  0  0  0
    2.2800   -6.8128    0.4779 C   0  0  0  0  0  0  0  0  0  0  0  0
   -0.8974   -5.8497   -0.6068 C   0  0  0  0  0  0  0  0  0  0  0  0
   -2.0298   -5.0205   -0.4605 C   0  0  0  0  0  0  0  0  0  0  0  0
   -3.3127   -5.5142   -0.7003 C   0  0  0  0  0  0  0  0  0  0  0  0
   -3.4935   -6.8454   -1.0812 C   0  0  0  0  0  0  0  0  0  0  0  0
   -5.1490   -7.4905   -1.3201 S   0  0  0  0  0  0  0  0  0  0  0  0
   -5.3269   -7.9954    0.4197 C   0  0  0  0  0  0  0  0  0  0  0  0
   -2.3825   -7.6723   -1.2637 C   0  0  0  0  0  0  0  0  0  0  0  0
   -1.0961   -7.1849   -1.0229 C   0  0  0  0  0  0  0  0  0  0  0  0
    0.5873   -2.9634   -0.8310 C   0  0  0  0  0  0  0  0  0  0  0  0
   -0.1202   -2.7725   -2.3386 S   0  0  0  0  0  0  0  0  0  0  0  0
    0.2248   -1.1032   -2.4645 C   0  0  0  0  0  0  0  0  0  0  0  0
    0.8799   -0.7047   -1.2852 C   0  0  0  0  0  0  0  0  0  0  0  0
    1.3547    0.6187   -0.9924 N   0  0  0  0  0  0  0  0  0  0  0  0
    2.6034    1.0706   -1.5814 C   0  0  0  0  0  0  0  0  0  0  0  0
    3.4331    0.1863   -2.3051 C   0  0  0  0  0  0  0  0  0  0  0  0
    4.6454    0.6225   -2.8492 C   0  0  0  0  0  0  0  0  0  0  0  0
    5.0508    1.9491   -2.6801 C   0  0  0  0  0  0  0  0  0  0  0  0
    6.5761    2.5218   -3.4298 S   0  0  0  0  0  0  0  0  0  0  0  0
    7.5944    2.0766   -1.9911 C   0  0  0  0  0  0  0  0  0  0  0  0
    4.2559    2.8316   -1.9480 C   0  0  0  0  0  0  0  0  0  0  0  0
    3.0270    2.4094   -1.4322 C   0  0  0  0  0  0  0  0  0  0  0  0
    0.7879    1.2769    0.1622 C   0  0  0  0  0  0  0  0  0  0  0  0
    1.6060    1.6872    1.2319 C   0  0  0  0  0  0  0  0  0  0  0  0
    1.0515    2.3296    2.3429 C   0  0  0  0  0  0  0  0  0  0  0  0
   -0.3254    2.5568    2.4048 C   0  0  0  0  0  0  0  0  0  0  0  0
   -1.0335    3.4183    3.8076 S   0  0  0  0  0  0  0  0  0  0  0  0
   -0.8343    5.0547    3.0390 C   0  0  0  0  0  0  0  0  0  0  0  0
   -1.1538    2.1069    1.3716 C   0  0  0  0  0  0  0  0  0  0  0  0
   -0.6006    1.4577    0.2636 C   0  0  0  0  0  0  0  0  0  0  0  0
    1.0658   -1.7713   -0.4156 C   0  0  0  0  0  0  0  0  0  0  0  0
    1.6193   -1.9003    1.1512 S   0  0  0  0  0  0  0  0  0  0  0  0
   -0.5460   -0.2137   -3.3426 C   0  0  0  0  0  0  0  0  0  0  0  0
   -0.1310    0.4675   -4.4973 C   0  0  0  0  0  0  0  0  0  0  0  0
    1.2476    0.4723   -5.0525 C   0  0  0  0  0  0  0  0  0  0  0  0
    2.0054    1.6840   -5.0913 C   0  0  0  0  0  0  0  0  0  0  0  0
    3.2960    1.6588   -5.6590 C   0  0  0  0  0  0  0  0  0  0  0  0
    3.8432    0.4733   -6.1598 C   0  0  0  0  0  0  0  0  0  0  0  0
    5.2266    0.4739   -6.7550 C   0  0  0  0  0  0  0  0  0  0  0  0
    5.1942    0.9439   -8.2071 C   0  0  0  0  0  0  0  0  0  0  0  0
    3.0792   -0.6932   -6.1631 C   0  0  0  0  0  0  0  0  0  0  0  0
    1.7835   -0.7092   -5.6307 C   0  0  0  0  0  0  0  0  0  0  0  0
    0.9581   -1.9613   -5.8458 C   0  0  0  0  0  0  0  0  0  0  0  0
    0.2767   -1.9277   -7.2081 C   0  0  0  0  0  0  0  0  0  0  0  0
    1.4265    2.9803   -4.5159 C   0  0  0  0  0  0  0  0  0  0  0  0
    2.3122    4.2277   -4.5975 C   0  0  0  0  0  0  0  0  0  0  0  0
   -1.1601    1.2308   -5.0726 C   0  0  0  0  0  0  0  0  0  0  0  0
   -2.3441    1.2142   -4.3504 C   0  0  0  0  0  0  0  0  0  0  0  0
   -2.1549    0.1788   -3.0421 S   0  0  0  0  0  0  0  0  0  0  0  0
   -3.3450    2.2846   -4.4305 C   0  0  0  0  0  0  0  0  0  0  0  0
   -3.1575    3.4648   -3.8007 C   0  0  0  0  0  0  0  0  0  0  0  0
   -1.9874    3.8104   -2.9820 C   0  0  0  0  0  0  0  0  0  0  0  0
   -1.2055    3.0087   -2.4103 O   0  0  0  0  0  0  0  0  0  0  0  0
   -1.8602    5.2443   -2.9404 C   0  0  0  0  0  0  0  0  0  0  0  0
   -0.7984    5.9837   -2.4287 C   0  0  0  0  0  0  0  0  0  0  0  0
   -0.7927    7.3788   -2.6143 C   0  0  0  0  0  0  0  0  0  0  0  0
    0.3487    8.1812   -2.1224 C   0  0  0  0  0  0  0  0  0  0  0  0
    0.3933    9.4249   -2.3338 O   0  0  0  0  0  0  0  0  0  0  0  0
    1.3859    7.5529   -1.4225 O   0  0  0  0  0  0  0  0  0  0  0  0
    2.5817    8.2232   -1.0457 C   0  0  0  0  0  0  0  0  0  0  0  0
   -1.8569    7.9831   -3.3278 C   0  0  0  0  0  0  0  0  0  0  0  0
   -2.9136    7.2086   -3.8429 C   0  0  0  0  0  0  0  0  0  0  0  0
   -2.9139    5.8230   -3.6193 C   0  0  0  0  0  0  0  0  0  0  0  0
   -3.8513    4.7566   -4.0877 C   0  0  0  0  0  0  0  0  0  0  0  0
   -5.1323    4.9184   -4.5027 C   0  0  0  0  0  0  0  0  0  0  0  0
   -5.7380    6.2151   -4.6616 C   0  0  0  0  0  0  0  0  0  0  0  0
   -6.2311    7.2551   -4.7946 N   0  0  0  0  0  0  0  0  0  0  0  0
   -6.0196    3.7996   -4.6898 C   0  0  0  0  0  0  0  0  0  0  0  0
   -6.7419    2.9059   -4.8372 N   0  0  0  0  0  0  0  0  0  0  0  0
    1.0045   -4.1645    7.3464 H   0  0  0  0  0  0  0  0  0  0  0  0
   -3.6402   -1.1915    4.2800 H   0  0  0  0  0  0  0  0  0  0  0  0
   -3.6052   -1.5983    9.3687 H   0  0  0  0  0  0  0  0  0  0  0  0
   -6.7966   -1.2924    8.0477 H   0  0  0  0  0  0  0  0  0  0  0  0
   -6.6736    1.0078    9.2104 H   0  0  0  0  0  0  0  0  0  0  0  0
   -4.4744    2.3043    8.4853 H   0  0  0  0  0  0  0  0  0  0  0  0
   -4.4892    2.5398    5.8870 H   0  0  0  0  0  0  0  0  0  0  0  0
   -6.6964    1.3923    4.9596 H   0  0  0  0  0  0  0  0  0  0  0  0
   -7.5804    2.4697    7.2031 H   0  0  0  0  0  0  0  0  0  0  0  0
   -8.2388    0.7785    7.0558 H   0  0  0  0  0  0  0  0  0  0  0  0
   -6.8151   -1.0786    5.6943 H   0  0  0  0  0  0  0  0  0  0  0  0
   -0.5994   -5.7685    5.0526 H   0  0  0  0  0  0  0  0  0  0  0  0
   -1.4935   -7.2638    3.5241 H   0  0  0  0  0  0  0  0  0  0  0  0
   -2.1035   -7.2018    1.8395 H   0  0  0  0  0  0  0  0  0  0  0  0
   -3.1252   -4.9530    2.2509 H   0  0  0  0  0  0  0  0  0  0  0  0
   -3.7925   -6.2251    3.3511 H   0  0  0  0  0  0  0  0  0  0  0  0
   -2.5982   -5.0289    3.9739 H   0  0  0  0  0  0  0  0  0  0  0  0
    1.5751   -5.6589   -2.6507 H   0  0  0  0  0  0  0  0  0  0  0  0
    3.6707   -6.8720   -3.1472 H   0  0  0  0  0  0  0  0  0  0  0  0
    6.3522   -6.5467   -0.0560 H   0  0  0  0  0  0  0  0  0  0  0  0
    6.3375   -6.0961   -1.8139 H   0  0  0  0  0  0  0  0  0  0  0  0
    7.6157   -7.1986   -1.1661 H   0  0  0  0  0  0  0  0  0  0  0  0
    3.9889   -8.0085    0.9942 H   0  0  0  0  0  0  0  0  0  0  0  0
    1.9044   -6.7974    1.4903 H   0  0  0  0  0  0  0  0  0  0  0  0
   -1.9327   -3.9977   -0.1225 H   0  0  0  0  0  0  0  0  0  0  0  0
   -4.1699   -4.8656   -0.5637 H   0  0  0  0  0  0  0  0  0  0  0  0
   -6.3190   -8.4752    0.5601 H   0  0  0  0  0  0  0  0  0  0  0  0
   -5.2589   -7.1076    1.0838 H   0  0  0  0  0  0  0  0  0  0  0  0
   -4.5336   -8.7237    0.6912 H   0  0  0  0  0  0  0  0  0  0  0  0
   -2.5183   -8.7058   -1.5596 H   0  0  0  0  0  0  0  0  0  0  0  0
   -0.2638   -7.8639   -1.1408 H   0  0  0  0  0  0  0  0  0  0  0  0
    3.1572   -0.8489   -2.4584 H   0  0  0  0  0  0  0  0  0  0  0  0
    5.2540   -0.0668   -3.4194 H   0  0  0  0  0  0  0  0  0  0  0  0
    7.2604    2.6400   -1.0953 H   0  0  0  0  0  0  0  0  0  0  0  0
    8.6512    2.3346   -2.2074 H   0  0  0  0  0  0  0  0  0  0  0  0
    7.5225    0.9857   -1.7979 H   0  0  0  0  0  0  0  0  0  0  0  0
    4.5628    3.8597   -1.8150 H   0  0  0  0  0  0  0  0  0  0  0  0
    2.4093    3.1323   -0.9190 H   0  0  0  0  0  0  0  0  0  0  0  0
    2.6745    1.5066    1.2050 H   0  0  0  0  0  0  0  0  0  0  0  0
    1.6977    2.6567    3.1504 H   0  0  0  0  0  0  0  0  0  0  0  0
   -1.2503    5.8260    3.7176 H   0  0  0  0  0  0  0  0  0  0  0  0
   -1.3764    5.0953    2.0693 H   0  0  0  0  0  0  0  0  0  0  0  0
    0.2433    5.2666    2.8704 H   0  0  0  0  0  0  0  0  0  0  0  0
   -2.2238    2.2621    1.4245 H   0  0  0  0  0  0  0  0  0  0  0  0
   -1.2544    1.1102   -0.5214 H   0  0  0  0  0  0  0  0  0  0  0  0
    3.8977    2.5530   -5.7152 H   0  0  0  0  0  0  0  0  0  0  0  0
    5.8913    1.1408   -6.1636 H   0  0  0  0  0  0  0  0  0  0  0  0
    5.6657   -0.5478   -6.7121 H   0  0  0  0  0  0  0  0  0  0  0  0
    6.2183    0.8986   -8.6346 H   0  0  0  0  0  0  0  0  0  0  0  0
    4.5289    0.2903   -8.8100 H   0  0  0  0  0  0  0  0  0  0  0  0
    4.8301    1.9932   -8.2652 H   0  0  0  0  0  0  0  0  0  0  0  0
    3.4840   -1.5920   -6.6135 H   0  0  0  0  0  0  0  0  0  0  0  0
    1.6095   -2.8611   -5.7837 H   0  0  0  0  0  0  0  0  0  0  0  0
    0.1826   -2.0862   -5.0687 H   0  0  0  0  0  0  0  0  0  0  0  0
    1.0316   -1.8365   -8.0197 H   0  0  0  0  0  0  0  0  0  0  0  0
   -0.4293   -1.0715   -7.2626 H   0  0  0  0  0  0  0  0  0  0  0  0
   -0.2942   -2.8685   -7.3601 H   0  0  0  0  0  0  0  0  0  0  0  0
    1.1667    2.8111   -3.4512 H   0  0  0  0  0  0  0  0  0  0  0  0
    0.4985    3.2422   -5.0563 H   0  0  0  0  0  0  0  0  0  0  0  0
    2.4886    4.5056   -5.6591 H   0  0  0  0  0  0  0  0  0  0  0  0
    1.7976    5.0745   -4.0963 H   0  0  0  0  0  0  0  0  0  0  0  0
    3.2799    4.0727   -4.0867 H   0  0  0  0  0  0  0  0  0  0  0  0
   -1.0237    1.8504   -5.9490 H   0  0  0  0  0  0  0  0  0  0  0  0
   -4.1169    2.1737   -5.1771 H   0  0  0  0  0  0  0  0  0  0  0  0
    0.0165    5.4792   -1.9231 H   0  0  0  0  0  0  0  0  0  0  0  0
    2.3448    9.1096   -0.4163 H   0  0  0  0  0  0  0  0  0  0  0  0
    3.2208    7.5253   -0.4660 H   0  0  0  0  0  0  0  0  0  0  0  0
    3.1348    8.5440   -1.9564 H   0  0  0  0  0  0  0  0  0  0  0  0
   -1.8566    9.0506   -3.5159 H   0  0  0  0  0  0  0  0  0  0  0  0
   -3.6689    7.6951   -4.4349 H   0  0  0  0  0  0  0  0  0  0  0  0
  1  2  2  3
  2  3  1  0
  3  4  2  0
  3  5  1  0
  5  6  2  0
  6  7  1  0
  7  8  2  0
  8  9  1  0
  9 10  2  0
 10 11  1  0
 11 12  2  3
 12 13  1  0
 13 14  3  0
 12 15  1  0
 15 16  3  0
  8 17  1  0
 17 18  1  0
 18 19  1  0
 19 20  2  0
 20 21  1  0
 21 22  1  0
 21 23  1  0
  1 24  1  0
 24 25  2  0
 25 26  1  0
 26 27  1  0
 27 28  1  0
 28 29  1  0
 26 30  2  0
 30 31  1  0
 30 32  1  0
 32 33  2  0
 33 34  1  0
 34 35  1  0
 35 36  2  0
 36 37  1  0
 37 38  2  0
 38 39  1  0
 39 40  1  0
 38 41  1  0
 41 42  2  0
 34 43  1  0
 43 44  2  0
 44 45  1  0
 45 46  2  0
 46 47  1  0
 47 48  1  0
 46 49  1  0
 49 50  2  0
 33 51  1  0
 51 52  1  0
 52 53  1  0
 53 54  2  0
 54 55  1  0
 55 56  1  0
 56 57  2  0
 57 58  1  0
 58 59  2  0
 59 60  1  0
 60 61  1  0
 59 62  1  0
 62 63  2  0
 55 64  1  0
 64 65  2  0
 65 66  1  0
 66 67  2  0
 67 68  1  0
 68 69  1  0
 67 70  1  0
 70 71  2  0
 54 72  1  0
 72 73  1  0
 53 74  1  0
 74 75  2  0
 75 76  1  0
 76 77  2  0
 77 78  1  0
 78 79  2  0
 79 80  1  0
 80 81  1  0
 79 82  1  0
 82 83  2  0
 83 84  1  0
 84 85  1  0
 77 86  1  0
 86 87  1  0
 75 88  1  0
 88 89  2  0
 89 90  1  0
 89 91  1  0
 91 92  2  3
 92 93  1  0
 93 94  2  0
 93 95  1  0
 95 96  2  0
 96 97  1  0
 97 98  1  0
 98 99  2  0
 98100  1  0
100101  1  0
 97102  2  0
102103  1  0
103104  2  0
104105  1  0
105106  2  3
106107  1  0
107108  3  0
106109  1  0
109110  3  0
 11  2  1  0
 23 17  1  0
 31 24  1  0
 73 32  1  0
 90 74  1  0
105 92  1  0
 10  5  1  0
 22 18  1  0
 42 35  1  0
 50 43  1  0
 72 51  2  0
 83 76  1  0
104 95  1  0
 23  7  1  0
 63 56  1  0
 71 64  1  0
  1111  1  0
  6112  1  0
  9113  1  0
 17114  1  0
 18115  1  0
 19116  1  0
 20117  1  0
 21118  1  0
 22119  1  0
 22120  1  0
 23121  1  0
 25122  1  0
 28123  1  0
 28124  1  0
 29125  1  0
 29126  1  0
 29127  1  0
 36128  1  0
 37129  1  0
 40130  1  0
 40131  1  0
 40132  1  0
 41133  1  0
 42134  1  0
 44135  1  0
 45136  1  0
 48137  1  0
 48138  1  0
 48139  1  0
 49140  1  0
 50141  1  0
 57142  1  0
 58143  1  0
 61144  1  0
 61145  1  0
 61146  1  0
 62147  1  0
 63148  1  0
 65149  1  0
 66150  1  0
 69151  1  0
 69152  1  0
 69153  1  0
 70154  1  0
 71155  1  0
 78156  1  0
 80157  1  0
 80158  1  0
 81159  1  0
 81160  1  0
 81161  1  0
 82162  1  0
 84163  1  0
 84164  1  0
 85165  1  0
 85166  1  0
 85167  1  0
 86168  1  0
 86169  1  0
 87170  1  0
 87171  1  0
 87172  1  0
 88173  1  0
 91174  1  0
 96175  1  0
101176  1  0
101177  1  0
101178  1  0
102179  1  0
103180  1  0
M  END

