
     RDKit          3D

175190  0  0  0  0  0  0  0  0999 V2000
    3.4109   -0.8086    4.8706 C   0  0  0  0  0  0  0  0  0  0  0  0
    3.9333    0.3820    4.5223 C   0  0  0  0  0  0  0  0  0  0  0  0
    3.3334    1.3370    3.5795 C   0  0  0  0  0  0  0  0  0  0  0  0
    2.3115    1.1493    2.8669 O   0  0  0  0  0  0  0  0  0  0  0  0
    4.0414    2.5904    3.6670 C   0  0  0  0  0  0  0  0  0  0  0  0
    3.7561    3.7745    2.9556 C   0  0  0  0  0  0  0  0  0  0  0  0
    4.4987    4.8629    3.3589 C   0  0  0  0  0  0  0  0  0  0  0  0
    5.4604    4.8084    4.4163 C   0  0  0  0  0  0  0  0  0  0  0  0
    5.7707    3.6377    5.0994 C   0  0  0  0  0  0  0  0  0  0  0  0
    5.0415    2.4907    4.6616 C   0  0  0  0  0  0  0  0  0  0  0  0
    5.1075    1.0745    5.1386 C   0  0  0  0  0  0  0  0  0  0  0  0
    6.1803    0.4794    5.7188 C   0  0  0  0  0  0  0  0  0  0  0  0
    7.3659    1.2118    6.0820 C   0  0  0  0  0  0  0  0  0  0  0  0
    8.3303    1.7863    6.3702 N   0  0  0  0  0  0  0  0  0  0  0  0
    6.2863   -0.9506    5.8609 C   0  0  0  0  0  0  0  0  0  0  0  0
    6.3866   -2.1005    5.9603 N   0  0  0  0  0  0  0  0  0  0  0  0
    5.7038    6.2865    4.2911 C   0  0  0  0  0  0  0  0  0  0  0  0
    5.0531    7.2048    5.3676 C   0  0  0  0  0  0  0  0  0  0  0  0
    5.1029    8.6070    4.8021 C   0  0  0  0  0  0  0  0  0  0  0  0
    4.2284    8.6402    3.7887 C   0  0  0  0  0  0  0  0  0  0  0  0
    3.6158    7.2637    3.7089 C   0  0  0  0  0  0  0  0  0  0  0  0
    3.5644    6.9431    5.1927 C   0  0  0  0  0  0  0  0  0  0  0  0
    4.7409    6.3289    3.1856 C   0  0  0  0  0  0  0  0  0  0  0  0
    2.2309   -1.3653    4.2036 C   0  0  0  0  0  0  0  0  0  0  0  0
    2.2446   -2.0150    2.9602 C   0  0  0  0  0  0  0  0  0  0  0  0
    3.3824   -2.7025    2.4069 N   0  0  0  0  0  0  0  0  0  0  0  0
    3.8954   -2.2979    1.1175 C   0  0  0  0  0  0  0  0  0  0  0  0
    4.1114   -3.2406    0.0982 C   0  0  0  0  0  0  0  0  0  0  0  0
    4.5822   -2.8325   -1.1580 C   0  0  0  0  0  0  0  0  0  0  0  0
    4.8172   -1.4761   -1.4157 C   0  0  0  0  0  0  0  0  0  0  0  0
    5.3462   -1.0341   -2.7446 C   0  0  0  0  0  0  0  0  0  0  0  0
    4.6245   -0.5366   -0.3921 C   0  0  0  0  0  0  0  0  0  0  0  0
    4.1625   -0.9494    0.8602 C   0  0  0  0  0  0  0  0  0  0  0  0
    3.8236   -3.9288    3.0326 C   0  0  0  0  0  0  0  0  0  0  0  0
    5.1800   -4.3115    2.9735 C   0  0  0  0  0  0  0  0  0  0  0  0
    5.5962   -5.5226    3.5403 C   0  0  0  0  0  0  0  0  0  0  0  0
    4.6826   -6.3457    4.2116 C   0  0  0  0  0  0  0  0  0  0  0  0
    5.1181   -7.6625    4.7836 C   0  0  0  0  0  0  0  0  0  0  0  0
    3.3320   -5.9713    4.2692 C   0  0  0  0  0  0  0  0  0  0  0  0
    2.9063   -4.7717    3.6902 C   0  0  0  0  0  0  0  0  0  0  0  0
    0.9650   -2.0936    2.4216 C   0  0  0  0  0  0  0  0  0  0  0  0
    0.3589   -2.5808    0.9496 S   0  0  0  0  0  0  0  0  0  0  0  0
   -1.2307   -2.0721    1.2912 C   0  0  0  0  0  0  0  0  0  0  0  0
   -1.2838   -1.5237    2.5865 C   0  0  0  0  0  0  0  0  0  0  0  0
   -2.4681   -1.0239    3.2441 N   0  0  0  0  0  0  0  0  0  0  0  0
   -2.7132   -1.3187    4.6358 C   0  0  0  0  0  0  0  0  0  0  0  0
   -2.4163   -2.5924    5.1623 C   0  0  0  0  0  0  0  0  0  0  0  0
   -2.6372   -2.8683    6.5125 C   0  0  0  0  0  0  0  0  0  0  0  0
   -3.1746   -1.8863    7.3601 C   0  0  0  0  0  0  0  0  0  0  0  0
   -3.3678   -2.1796    8.8213 C   0  0  0  0  0  0  0  0  0  0  0  0
   -3.4641   -0.6131    6.8432 C   0  0  0  0  0  0  0  0  0  0  0  0
   -3.2373   -0.3371    5.4928 C   0  0  0  0  0  0  0  0  0  0  0  0
   -3.4644   -0.2964    2.5108 C   0  0  0  0  0  0  0  0  0  0  0  0
   -3.1555    0.9522    1.9497 C   0  0  0  0  0  0  0  0  0  0  0  0
   -4.1206    1.6547    1.2163 C   0  0  0  0  0  0  0  0  0  0  0  0
   -5.4105    1.1235    1.0590 C   0  0  0  0  0  0  0  0  0  0  0  0
   -6.4432    1.8580    0.2599 C   0  0  0  0  0  0  0  0  0  0  0  0
   -5.7182   -0.1257    1.6256 C   0  0  0  0  0  0  0  0  0  0  0  0
   -4.7529   -0.8278    2.3539 C   0  0  0  0  0  0  0  0  0  0  0  0
   -0.0187   -1.5572    3.1816 C   0  0  0  0  0  0  0  0  0  0  0  0
    0.6400   -0.8975    4.5771 S   0  0  0  0  0  0  0  0  0  0  0  0
   -2.1769   -1.7993    0.2053 C   0  0  0  0  0  0  0  0  0  0  0  0
   -3.2298   -2.6759   -0.0770 C   0  0  0  0  0  0  0  0  0  0  0  0
   -3.4630   -3.7466    0.7257 F   0  0  0  0  0  0  0  0  0  0  0  0
   -4.0169   -2.4749   -1.2207 C   0  0  0  0  0  0  0  0  0  0  0  0
   -4.9966   -3.3711   -1.5103 F   0  0  0  0  0  0  0  0  0  0  0  0
   -3.7576   -1.3987   -2.0951 C   0  0  0  0  0  0  0  0  0  0  0  0
   -2.7450   -0.4737   -1.7557 C   0  0  0  0  0  0  0  0  0  0  0  0
   -2.4705    0.5980   -2.5478 N   0  0  0  0  0  0  0  0  0  0  0  0
   -1.4955    1.4997   -2.2549 C   0  0  0  0  0  0  0  0  0  0  0  0
   -1.3586    2.6969   -3.1554 C   0  0  0  0  0  0  0  0  0  0  0  0
   -2.1367    3.8856   -2.5818 C   0  0  0  0  0  0  0  0  0  0  0  0
   -0.7245    1.3049   -1.0848 C   0  0  0  0  0  0  0  0  0  0  0  0
   -0.9713    0.2031   -0.3252 N   0  0  0  0  0  0  0  0  0  0  0  0
   -1.9614   -0.6800   -0.6145 C   0  0  0  0  0  0  0  0  0  0  0  0
    0.3743    2.2357   -0.6332 C   0  0  0  0  0  0  0  0  0  0  0  0
    0.1021    2.7609    0.7727 C   0  0  0  0  0  0  0  0  0  0  0  0
   -4.3297   -1.4005   -3.4652 C   0  0  0  0  0  0  0  0  0  0  0  0
   -4.1026   -2.5411   -4.2574 C   0  0  0  0  0  0  0  0  0  0  0  0
   -4.1964   -2.4729   -5.6455 C   0  0  0  0  0  0  0  0  0  0  0  0
   -3.8203   -3.5667   -6.4407 O   0  0  0  0  0  0  0  0  0  0  0  0
   -4.2928   -4.8959   -6.2248 C   0  0  0  0  0  0  0  0  0  0  0  0
   -5.7132   -5.0475   -6.7626 C   0  0  0  0  0  0  0  0  0  0  0  0
   -4.5546   -1.2650   -6.2577 C   0  0  0  0  0  0  0  0  0  0  0  0
   -4.9497   -0.1707   -5.4670 C   0  0  0  0  0  0  0  0  0  0  0  0
   -4.8443   -0.2287   -4.0636 C   0  0  0  0  0  0  0  0  0  0  0  0
   -5.1756    0.8642   -3.2411 O   0  0  0  0  0  0  0  0  0  0  0  0
   -5.8238    2.0602   -3.6721 C   0  0  0  0  0  0  0  0  0  0  0  0
   -7.2949    1.7969   -3.9721 C   0  0  0  0  0  0  0  0  0  0  0  0
   -4.2454   -1.0827   -7.6869 C   0  0  0  0  0  0  0  0  0  0  0  0
   -2.9716   -0.8362   -8.0693 C   0  0  0  0  0  0  0  0  0  0  0  0
   -1.8669   -0.5907   -7.1321 C   0  0  0  0  0  0  0  0  0  0  0  0
   -1.9493   -0.0429   -6.0031 O   0  0  0  0  0  0  0  0  0  0  0  0
   -0.6554   -1.1296   -7.7073 C   0  0  0  0  0  0  0  0  0  0  0  0
    0.5571   -1.3615   -7.0705 C   0  0  0  0  0  0  0  0  0  0  0  0
    1.5435   -2.0770   -7.7563 C   0  0  0  0  0  0  0  0  0  0  0  0
    1.2923   -2.5877   -9.0532 C   0  0  0  0  0  0  0  0  0  0  0  0
    2.2305   -3.3716   -9.7422 O   0  0  0  0  0  0  0  0  0  0  0  0
    3.4991   -3.7529   -9.2105 C   0  0  0  0  0  0  0  0  0  0  0  0
    0.0522   -2.3298   -9.6711 C   0  0  0  0  0  0  0  0  0  0  0  0
   -0.9184   -1.5830   -8.9889 C   0  0  0  0  0  0  0  0  0  0  0  0
   -2.3392   -1.2899   -9.3395 C   0  0  0  0  0  0  0  0  0  0  0  0
   -2.9058   -1.2970  -10.5714 C   0  0  0  0  0  0  0  0  0  0  0  0
   -2.1753   -1.6863  -11.7527 C   0  0  0  0  0  0  0  0  0  0  0  0
   -1.6015   -2.0089  -12.7088 N   0  0  0  0  0  0  0  0  0  0  0  0
   -4.2436   -0.8148  -10.7926 C   0  0  0  0  0  0  0  0  0  0  0  0
   -5.3179   -0.4231  -10.9723 N   0  0  0  0  0  0  0  0  0  0  0  0
    3.7583   -1.3347    5.7384 H   0  0  0  0  0  0  0  0  0  0  0  0
    2.9973    3.8450    2.1906 H   0  0  0  0  0  0  0  0  0  0  0  0
    6.4763    3.6406    5.9129 H   0  0  0  0  0  0  0  0  0  0  0  0
    6.7444    6.5462    3.9984 H   0  0  0  0  0  0  0  0  0  0  0  0
    5.4431    7.0904    6.3978 H   0  0  0  0  0  0  0  0  0  0  0  0
    5.6409    9.4615    5.2002 H   0  0  0  0  0  0  0  0  0  0  0  0
    3.9427    9.5223    3.2255 H   0  0  0  0  0  0  0  0  0  0  0  0
    2.6448    7.2032    3.1676 H   0  0  0  0  0  0  0  0  0  0  0  0
    2.9192    7.6424    5.7786 H   0  0  0  0  0  0  0  0  0  0  0  0
    3.2569    5.8984    5.4237 H   0  0  0  0  0  0  0  0  0  0  0  0
    5.1806    6.5967    2.2018 H   0  0  0  0  0  0  0  0  0  0  0  0
    3.9081   -4.2893    0.2678 H   0  0  0  0  0  0  0  0  0  0  0  0
    4.7458   -3.5718   -1.9308 H   0  0  0  0  0  0  0  0  0  0  0  0
    5.0452    0.0138   -2.9622 H   0  0  0  0  0  0  0  0  0  0  0  0
    4.9502   -1.6829   -3.5551 H   0  0  0  0  0  0  0  0  0  0  0  0
    6.4543   -1.0988   -2.7375 H   0  0  0  0  0  0  0  0  0  0  0  0
    4.8277    0.5154   -0.5598 H   0  0  0  0  0  0  0  0  0  0  0  0
    4.0447   -0.2168    1.6358 H   0  0  0  0  0  0  0  0  0  0  0  0
    5.9067   -3.6824    2.4781 H   0  0  0  0  0  0  0  0  0  0  0  0
    6.6387   -5.8075    3.4677 H   0  0  0  0  0  0  0  0  0  0  0  0
    4.5737   -7.8694    5.7304 H   0  0  0  0  0  0  0  0  0  0  0  0
    6.2055   -7.6602    5.0076 H   0  0  0  0  0  0  0  0  0  0  0  0
    4.9002   -8.4770    4.0587 H   0  0  0  0  0  0  0  0  0  0  0  0
    2.6117   -6.6072    4.7641 H   0  0  0  0  0  0  0  0  0  0  0  0
    1.8555   -4.5243    3.7355 H   0  0  0  0  0  0  0  0  0  0  0  0
   -2.0215   -3.3714    4.5178 H   0  0  0  0  0  0  0  0  0  0  0  0
   -2.3920   -3.8484    6.8968 H   0  0  0  0  0  0  0  0  0  0  0  0
   -2.4102   -2.0164    9.3558 H   0  0  0  0  0  0  0  0  0  0  0  0
   -3.6924   -3.2309    8.9678 H   0  0  0  0  0  0  0  0  0  0  0  0
   -4.1442   -1.5151    9.2544 H   0  0  0  0  0  0  0  0  0  0  0  0
   -3.8556    0.1608    7.4875 H   0  0  0  0  0  0  0  0  0  0  0  0
   -3.4683    0.6523    5.1121 H   0  0  0  0  0  0  0  0  0  0  0  0
   -2.1698    1.3757    2.0828 H   0  0  0  0  0  0  0  0  0  0  0  0
   -3.8594    2.6086    0.7780 H   0  0  0  0  0  0  0  0  0  0  0  0
   -6.2046    2.9385    0.1950 H   0  0  0  0  0  0  0  0  0  0  0  0
   -7.4409    1.7538    0.7380 H   0  0  0  0  0  0  0  0  0  0  0  0
   -6.4888    1.4307   -0.7637 H   0  0  0  0  0  0  0  0  0  0  0  0
   -6.7005   -0.5531    1.4969 H   0  0  0  0  0  0  0  0  0  0  0  0
   -5.0014   -1.7833    2.7828 H   0  0  0  0  0  0  0  0  0  0  0  0
   -0.2950    2.9700   -3.3179 H   0  0  0  0  0  0  0  0  0  0  0  0
   -1.7726    2.4559   -4.1572 H   0  0  0  0  0  0  0  0  0  0  0  0
   -1.7710    4.1432   -1.5694 H   0  0  0  0  0  0  0  0  0  0  0  0
   -3.2178    3.6294   -2.5162 H   0  0  0  0  0  0  0  0  0  0  0  0
   -2.0135    4.7649   -3.2474 H   0  0  0  0  0  0  0  0  0  0  0  0
    0.5116    3.1026   -1.3011 H   0  0  0  0  0  0  0  0  0  0  0  0
    1.3306    1.6682   -0.6224 H   0  0  0  0  0  0  0  0  0  0  0  0
    0.9004    3.4692    1.0675 H   0  0  0  0  0  0  0  0  0  0  0  0
   -0.8764    3.2884    0.8093 H   0  0  0  0  0  0  0  0  0  0  0  0
    0.0962    1.9240    1.5049 H   0  0  0  0  0  0  0  0  0  0  0  0
   -3.6821   -3.4269   -3.8072 H   0  0  0  0  0  0  0  0  0  0  0  0
   -3.6216   -5.5985   -6.7639 H   0  0  0  0  0  0  0  0  0  0  0  0
   -4.2471   -5.1646   -5.1499 H   0  0  0  0  0  0  0  0  0  0  0  0
   -6.3946   -4.3660   -6.2082 H   0  0  0  0  0  0  0  0  0  0  0  0
   -6.0513   -6.0859   -6.6106 H   0  0  0  0  0  0  0  0  0  0  0  0
   -5.7540   -4.8077   -7.8411 H   0  0  0  0  0  0  0  0  0  0  0  0
   -5.2448    0.7463   -5.9655 H   0  0  0  0  0  0  0  0  0  0  0  0
   -5.3010    2.4977   -4.5481 H   0  0  0  0  0  0  0  0  0  0  0  0
   -5.7599    2.8108   -2.8551 H   0  0  0  0  0  0  0  0  0  0  0  0
   -7.8106    1.4776   -3.0386 H   0  0  0  0  0  0  0  0  0  0  0  0
   -7.4141    0.9889   -4.7149 H   0  0  0  0  0  0  0  0  0  0  0  0
   -7.7845    2.7233   -4.3513 H   0  0  0  0  0  0  0  0  0  0  0  0
   -4.9642   -1.4752   -8.3883 H   0  0  0  0  0  0  0  0  0  0  0  0
    0.7185   -1.0380   -6.0502 H   0  0  0  0  0  0  0  0  0  0  0  0
    2.4862   -2.2603   -7.2597 H   0  0  0  0  0  0  0  0  0  0  0  0
    4.0172   -4.4032   -9.9464 H   0  0  0  0  0  0  0  0  0  0  0  0
    3.3645   -4.3187   -8.2647 H   0  0  0  0  0  0  0  0  0  0  0  0
    4.1159   -2.8469   -9.0333 H   0  0  0  0  0  0  0  0  0  0  0  0
   -0.1466   -2.7771  -10.6310 H   0  0  0  0  0  0  0  0  0  0  0  0
  1  2  2  3
  2  3  1  0
  3  4  2  0
  3  5  1  0
  5  6  2  0
  6  7  1  0
  7  8  2  0
  8  9  1  0
  9 10  2  0
 10 11  1  0
 11 12  2  3
 12 13  1  0
 13 14  3  0
 12 15  1  0
 15 16  3  0
  8 17  1  0
 17 18  1  0
 18 19  1  0
 19 20  2  0
 20 21  1  0
 21 22  1  0
 21 23  1  0
  1 24  1  0
 24 25  2  0
 25 26  1  0
 26 27  1  0
 27 28  2  0
 28 29  1  0
 29 30  2  0
 30 31  1  0
 30 32  1  0
 32 33  2  0
 26 34  1  0
 34 35  2  0
 35 36  1  0
 36 37  2  0
 37 38  1  0
 37 39  1  0
 39 40  2  0
 25 41  1  0
 41 42  1  0
 42 43  1  0
 43 44  2  0
 44 45  1  0
 45 46  1  0
 46 47  2  0
 47 48  1  0
 48 49  2  0
 49 50  1  0
 49 51  1  0
 51 52  2  0
 45 53  1  0
 53 54  2  0
 54 55  1  0
 55 56  2  0
 56 57  1  0
 56 58  1  0
 58 59  2  0
 44 60  1  0
 60 61  1  0
 43 62  1  0
 62 63  2  0
 63 64  1  0
 63 65  1  0
 65 66  1  0
 65 67  2  0
 67 68  1  0
 68 69  2  0
 69 70  1  0
 70 71  1  0
 71 72  1  0
 70 73  2  0
 73 74  1  0
 74 75  2  0
 73 76  1  0
 76 77  1  0
 67 78  1  0
 78 79  2  0
 79 80  1  0
 80 81  1  0
 81 82  1  0
 82 83  1  0
 80 84  2  0
 84 85  1  0
 85 86  2  0
 86 87  1  0
 87 88  1  0
 88 89  1  0
 84 90  1  0
 90 91  2  3
 91 92  1  0
 92 93  2  0
 92 94  1  0
 94 95  2  0
 95 96  1  0
 96 97  2  0
 97 98  1  0
 98 99  1  0
 97100  1  0
100101  2  0
101102  1  0
102103  2  3
103104  1  0
104105  3  0
103106  1  0
106107  3  0
 11  2  1  0
 23 17  1  0
 61 24  1  0
 75 62  1  0
 86 78  1  0
102 91  1  0
 10  5  1  0
 22 18  1  0
 33 27  1  0
 40 34  1  0
 60 41  2  0
 75 68  1  0
101 94  1  0
 23  7  1  0
 52 46  1  0
 59 53  1  0
  1108  1  0
  6109  1  0
  9110  1  0
 17111  1  0
 18112  1  0
 19113  1  0
 20114  1  0
 21115  1  0
 22116  1  0
 22117  1  0
 23118  1  0
 28119  1  0
 29120  1  0
 31121  1  0
 31122  1  0
 31123  1  0
 32124  1  0
 33125  1  0
 35126  1  0
 36127  1  0
 38128  1  0
 38129  1  0
 38130  1  0
 39131  1  0
 40132  1  0
 47133  1  0
 48134  1  0
 50135  1  0
 50136  1  0
 50137  1  0
 51138  1  0
 52139  1  0
 54140  1  0
 55141  1  0
 57142  1  0
 57143  1  0
 57144  1  0
 58145  1  0
 59146  1  0
 71147  1  0
 71148  1  0
 72149  1  0
 72150  1  0
 72151  1  0
 76152  1  0
 76153  1  0
 77154  1  0
 77155  1  0
 77156  1  0
 79157  1  0
 82158  1  0
 82159  1  0
 83160  1  0
 83161  1  0
 83162  1  0
 85163  1  0
 88164  1  0
 88165  1  0
 89166  1  0
 89167  1  0
 89168  1  0
 90169  1  0
 95170  1  0
 96171  1  0
 99172  1  0
 99173  1  0
 99174  1  0
100175  1  0
M  END

