
     RDKit          3D

237261  0  0  0  0  0  0  0  0999 V2000
    4.2635   -6.8641    2.0112 C   0  0  0  0  0  0  0  0  0  0  0  0
    3.8641   -7.0047    3.2955 C   0  0  0  0  0  0  0  0  0  0  0  0
    3.4282   -5.8999    4.1641 C   0  0  0  0  0  0  0  0  0  0  0  0
    3.0197   -4.7665    3.7915 O   0  0  0  0  0  0  0  0  0  0  0  0
    3.5011   -6.3248    5.5367 C   0  0  0  0  0  0  0  0  0  0  0  0
    3.2449   -5.5332    6.6772 C   0  0  0  0  0  0  0  0  0  0  0  0
    3.3077   -6.2286    7.8663 C   0  0  0  0  0  0  0  0  0  0  0  0
    3.5817   -7.6336    7.9370 C   0  0  0  0  0  0  0  0  0  0  0  0
    3.8574   -8.4095    6.8248 C   0  0  0  0  0  0  0  0  0  0  0  0
    3.8361   -7.7035    5.5851 C   0  0  0  0  0  0  0  0  0  0  0  0
    4.0370   -8.2011    4.1860 C   0  0  0  0  0  0  0  0  0  0  0  0
    4.2602   -9.4793    3.7957 C   0  0  0  0  0  0  0  0  0  0  0  0
    4.6025  -10.5295    4.7225 C   0  0  0  0  0  0  0  0  0  0  0  0
    4.8934  -11.3821    5.4491 N   0  0  0  0  0  0  0  0  0  0  0  0
    4.0997   -9.9081    2.4277 C   0  0  0  0  0  0  0  0  0  0  0  0
    3.9668  -10.2587    1.3319 N   0  0  0  0  0  0  0  0  0  0  0  0
    3.3826   -7.6111    9.4213 C   0  0  0  0  0  0  0  0  0  0  0  0
    2.0324   -8.1783    9.9538 C   0  0  0  0  0  0  0  0  0  0  0  0
    1.9282   -7.7102   11.3903 C   0  0  0  0  0  0  0  0  0  0  0  0
    1.7204   -6.3898   11.3413 C   0  0  0  0  0  0  0  0  0  0  0  0
    1.6875   -6.0100    9.8802 C   0  0  0  0  0  0  0  0  0  0  0  0
    0.9982   -7.2506    9.3361 C   0  0  0  0  0  0  0  0  0  0  0  0
    3.1419   -6.1662    9.3575 C   0  0  0  0  0  0  0  0  0  0  0  0
    4.1934   -5.5839    1.2927 C   0  0  0  0  0  0  0  0  0  0  0  0
    4.8788   -4.3894    1.6264 C   0  0  0  0  0  0  0  0  0  0  0  0
    6.1964   -4.3205    2.2343 N   0  0  0  0  0  0  0  0  0  0  0  0
    7.1537   -3.3471    1.7676 C   0  0  0  0  0  0  0  0  0  0  0  0
    8.0589   -2.7554    2.6710 C   0  0  0  0  0  0  0  0  0  0  0  0
    9.0446   -1.8865    2.2117 C   0  0  0  0  0  0  0  0  0  0  0  0
    9.1342   -1.5741    0.8445 C   0  0  0  0  0  0  0  0  0  0  0  0
   10.1738   -0.6179    0.3390 C   0  0  0  0  0  0  0  0  0  0  0  0
    8.2468   -2.1688   -0.0565 C   0  0  0  0  0  0  0  0  0  0  0  0
    7.2733   -3.0585    0.3980 C   0  0  0  0  0  0  0  0  0  0  0  0
    6.7528   -5.4685    2.9002 C   0  0  0  0  0  0  0  0  0  0  0  0
    7.3326   -6.4993    2.1470 C   0  0  0  0  0  0  0  0  0  0  0  0
    7.8277   -7.6406    2.7764 C   0  0  0  0  0  0  0  0  0  0  0  0
    7.7901   -7.7461    4.1735 C   0  0  0  0  0  0  0  0  0  0  0  0
    8.2771   -8.9994    4.8390 C   0  0  0  0  0  0  0  0  0  0  0  0
    7.2408   -6.6978    4.9318 C   0  0  0  0  0  0  0  0  0  0  0  0
    6.7306   -5.5637    4.2963 C   0  0  0  0  0  0  0  0  0  0  0  0
    4.1992   -3.2858    1.0822 C   0  0  0  0  0  0  0  0  0  0  0  0
    4.2735   -1.6144    1.2702 S   0  0  0  0  0  0  0  0  0  0  0  0
    2.9751   -1.2900    0.2043 C   0  0  0  0  0  0  0  0  0  0  0  0
    2.5179   -2.5142   -0.3224 C   0  0  0  0  0  0  0  0  0  0  0  0
    1.7483   -2.6480   -1.5267 N   0  0  0  0  0  0  0  0  0  0  0  0
    0.4719   -3.3133   -1.4609 C   0  0  0  0  0  0  0  0  0  0  0  0
   -0.4929   -2.8895   -0.5348 C   0  0  0  0  0  0  0  0  0  0  0  0
   -1.7317   -3.5283   -0.4669 C   0  0  0  0  0  0  0  0  0  0  0  0
   -2.0286   -4.5925   -1.3330 C   0  0  0  0  0  0  0  0  0  0  0  0
   -3.3563   -5.2839   -1.2616 C   0  0  0  0  0  0  0  0  0  0  0  0
   -1.0527   -5.0357   -2.2412 C   0  0  0  0  0  0  0  0  0  0  0  0
    0.1866   -4.3965   -2.3083 C   0  0  0  0  0  0  0  0  0  0  0  0
    2.3700   -2.3482   -2.8036 C   0  0  0  0  0  0  0  0  0  0  0  0
    3.7690   -2.4124   -2.9613 C   0  0  0  0  0  0  0  0  0  0  0  0
    4.3622   -2.0947   -4.1849 C   0  0  0  0  0  0  0  0  0  0  0  0
    3.5688   -1.7207   -5.2798 C   0  0  0  0  0  0  0  0  0  0  0  0
    4.2167   -1.3459   -6.5801 C   0  0  0  0  0  0  0  0  0  0  0  0
    2.1776   -1.6393   -5.1265 C   0  0  0  0  0  0  0  0  0  0  0  0
    1.5845   -1.9585   -3.9032 C   0  0  0  0  0  0  0  0  0  0  0  0
    3.1763   -3.5944    0.2483 C   0  0  0  0  0  0  0  0  0  0  0  0
    2.9349   -5.2494    0.1971 S   0  0  0  0  0  0  0  0  0  0  0  0
    2.2283   -0.0186    0.0944 C   0  0  0  0  0  0  0  0  0  0  0  0
    1.4619    0.5546    1.1408 C   0  0  0  0  0  0  0  0  0  0  0  0
    1.6780    0.3068    2.5424 N   0  0  0  0  0  0  0  0  0  0  0  0
    0.5741   -0.1194    3.3634 C   0  0  0  0  0  0  0  0  0  0  0  0
   -0.0673   -1.3371    3.1015 C   0  0  0  0  0  0  0  0  0  0  0  0
   -1.1136   -1.7778    3.9175 C   0  0  0  0  0  0  0  0  0  0  0  0
   -1.5195   -0.9971    5.0072 C   0  0  0  0  0  0  0  0  0  0  0  0
   -2.8254   -1.5923    6.0851 S   0  0  0  0  0  0  0  0  0  0  0  0
   -1.6843   -2.3682    7.2733 C   0  0  0  0  0  0  0  0  0  0  0  0
   -0.8918    0.2283    5.2664 C   0  0  0  0  0  0  0  0  0  0  0  0
    0.1527    0.6654    4.4463 C   0  0  0  0  0  0  0  0  0  0  0  0
    2.9401    0.6319    3.1660 C   0  0  0  0  0  0  0  0  0  0  0  0
    3.4142   -0.1352    4.2477 C   0  0  0  0  0  0  0  0  0  0  0  0
    4.6295    0.1755    4.8622 C   0  0  0  0  0  0  0  0  0  0  0  0
    5.3834    1.2629    4.4121 C   0  0  0  0  0  0  0  0  0  0  0  0
    6.9039    1.7085    5.2482 S   0  0  0  0  0  0  0  0  0  0  0  0
    7.9360    0.6135    4.2310 C   0  0  0  0  0  0  0  0  0  0  0  0
    4.9261    2.0257    3.3296 C   0  0  0  0  0  0  0  0  0  0  0  0
    3.7144    1.7115    2.7094 C   0  0  0  0  0  0  0  0  0  0  0  0
    0.4111    1.3359    0.6405 C   0  0  0  0  0  0  0  0  0  0  0  0
   -0.9641    2.0709    1.2983 S   0  0  0  0  0  0  0  0  0  0  0  0
   -1.6601    2.4487   -0.2151 C   0  0  0  0  0  0  0  0  0  0  0  0
   -0.7973    2.0159   -1.2290 C   0  0  0  0  0  0  0  0  0  0  0  0
   -1.0726    2.1079   -2.6345 N   0  0  0  0  0  0  0  0  0  0  0  0
   -0.4774    3.2093   -3.3680 C   0  0  0  0  0  0  0  0  0  0  0  0
   -0.4120    4.4885   -2.7881 C   0  0  0  0  0  0  0  0  0  0  0  0
    0.1965    5.5471   -3.4683 C   0  0  0  0  0  0  0  0  0  0  0  0
    0.7556    5.3404   -4.7314 C   0  0  0  0  0  0  0  0  0  0  0  0
    1.5288    6.7113   -5.5888 S   0  0  0  0  0  0  0  0  0  0  0  0
    3.1900    6.3983   -4.9131 C   0  0  0  0  0  0  0  0  0  0  0  0
    0.7099    4.0668   -5.3134 C   0  0  0  0  0  0  0  0  0  0  0  0
    0.1043    3.0052   -4.6317 C   0  0  0  0  0  0  0  0  0  0  0  0
   -1.7380    1.0067   -3.3091 C   0  0  0  0  0  0  0  0  0  0  0  0
   -2.5062    1.2263   -4.4672 C   0  0  0  0  0  0  0  0  0  0  0  0
   -3.0645    0.1453   -5.1642 C   0  0  0  0  0  0  0  0  0  0  0  0
   -2.8602   -1.1624   -4.7134 C   0  0  0  0  0  0  0  0  0  0  0  0
   -3.4295   -2.5643   -5.6741 S   0  0  0  0  0  0  0  0  0  0  0  0
   -4.7445   -3.0216   -4.5070 C   0  0  0  0  0  0  0  0  0  0  0  0
   -2.1576   -1.3816   -3.5236 C   0  0  0  0  0  0  0  0  0  0  0  0
   -1.6188   -0.3078   -2.8190 C   0  0  0  0  0  0  0  0  0  0  0  0
    0.3531    1.4196   -0.7122 C   0  0  0  0  0  0  0  0  0  0  0  0
    1.5823    0.5165   -1.3908 S   0  0  0  0  0  0  0  0  0  0  0  0
   -2.9572    3.1089   -0.4456 C   0  0  0  0  0  0  0  0  0  0  0  0
   -3.9379    2.6044   -1.3047 C   0  0  0  0  0  0  0  0  0  0  0  0
   -4.7906    3.5941   -1.8135 C   0  0  0  0  0  0  0  0  0  0  0  0
   -5.7520    3.4105   -2.8288 C   0  0  0  0  0  0  0  0  0  0  0  0
   -6.1713    2.0718   -3.3108 C   0  0  0  0  0  0  0  0  0  0  0  0
   -6.8586    1.2047   -2.4504 C   0  0  0  0  0  0  0  0  0  0  0  0
   -7.4540    0.0423   -2.9505 C   0  0  0  0  0  0  0  0  0  0  0  0
   -7.3590   -0.2684   -4.3157 C   0  0  0  0  0  0  0  0  0  0  0  0
   -7.9834   -1.4103   -4.8428 C   0  0  0  0  0  0  0  0  0  0  0  0
   -7.8539   -1.7182   -6.1983 C   0  0  0  0  0  0  0  0  0  0  0  0
   -7.1033   -0.8919   -7.0410 C   0  0  0  0  0  0  0  0  0  0  0  0
   -6.4938    0.2582   -6.5351 C   0  0  0  0  0  0  0  0  0  0  0  0
   -6.6172    0.5792   -5.1761 C   0  0  0  0  0  0  0  0  0  0  0  0
   -6.0206    1.7365   -4.6674 C   0  0  0  0  0  0  0  0  0  0  0  0
   -6.3031    4.5727   -3.4030 C   0  0  0  0  0  0  0  0  0  0  0  0
   -5.9545    5.8582   -2.9953 C   0  0  0  0  0  0  0  0  0  0  0  0
   -5.0661    6.0389   -1.9079 C   0  0  0  0  0  0  0  0  0  0  0  0
   -4.7758    7.3752   -1.3889 C   0  0  0  0  0  0  0  0  0  0  0  0
   -4.0812    8.3783   -2.0632 C   0  0  0  0  0  0  0  0  0  0  0  0
   -4.1881    9.6280   -1.4480 C   0  0  0  0  0  0  0  0  0  0  0  0
   -4.9635    9.5982   -0.2977 C   0  0  0  0  0  0  0  0  0  0  0  0
   -5.3530   11.0135    0.7255 S   0  0  0  0  0  0  0  0  0  0  0  0
   -6.7162   11.5822   -0.3501 C   0  0  0  0  0  0  0  0  0  0  0  0
   -7.9959   10.7950   -0.0724 C   0  0  0  0  0  0  0  0  0  0  0  0
   -5.5273    8.0364   -0.0348 S   0  0  0  0  0  0  0  0  0  0  0  0
   -4.4910    4.8824   -1.3512 C   0  0  0  0  0  0  0  0  0  0  0  0
   -3.1882    4.7822   -0.2947 S   0  0  0  0  0  0  0  0  0  0  0  0
   -6.4764    6.8700   -3.8296 C   0  0  0  0  0  0  0  0  0  0  0  0
   -7.2458    6.3741   -4.8896 C   0  0  0  0  0  0  0  0  0  0  0  0
   -7.2859    4.6935   -4.7560 S   0  0  0  0  0  0  0  0  0  0  0  0
   -7.4290    7.0192   -6.2043 C   0  0  0  0  0  0  0  0  0  0  0  0
   -7.5475    8.3375   -6.4571 C   0  0  0  0  0  0  0  0  0  0  0  0
   -7.7523    9.3944   -5.4638 C   0  0  0  0  0  0  0  0  0  0  0  0
   -8.2861    9.2547   -4.3281 O   0  0  0  0  0  0  0  0  0  0  0  0
   -7.4098   10.6707   -6.0673 C   0  0  0  0  0  0  0  0  0  0  0  0
   -7.3923   11.9464   -5.4917 C   0  0  0  0  0  0  0  0  0  0  0  0
   -7.8452   12.2194   -3.8160 Cl  0  0  0  0  0  0  0  0  0  0  0  0
   -7.0006   13.0313   -6.2869 C   0  0  0  0  0  0  0  0  0  0  0  0
   -6.6981   12.8486   -7.6423 C   0  0  0  0  0  0  0  0  0  0  0  0
   -6.2038   14.3424   -8.7302 Br  0  0  0  0  0  0  0  0  0  0  0  0
   -6.7522   11.5693   -8.2170 C   0  0  0  0  0  0  0  0  0  0  0  0
   -7.0932   10.4717   -7.4053 C   0  0  0  0  0  0  0  0  0  0  0  0
   -7.2267    9.0211   -7.7466 C   0  0  0  0  0  0  0  0  0  0  0  0
   -7.1258    8.4557   -8.9803 C   0  0  0  0  0  0  0  0  0  0  0  0
   -6.4930    9.1108  -10.1046 C   0  0  0  0  0  0  0  0  0  0  0  0
   -5.9887    9.6195  -11.0142 N   0  0  0  0  0  0  0  0  0  0  0  0
   -7.6622    7.1527   -9.2745 C   0  0  0  0  0  0  0  0  0  0  0  0
   -8.1040    6.1118   -9.5314 N   0  0  0  0  0  0  0  0  0  0  0  0
    4.6819   -7.6880    1.4571 H   0  0  0  0  0  0  0  0  0  0  0  0
    2.9974   -4.4832    6.6307 H   0  0  0  0  0  0  0  0  0  0  0  0
    4.0331   -9.4685    6.9336 H   0  0  0  0  0  0  0  0  0  0  0  0
    4.2884   -7.9103    9.9988 H   0  0  0  0  0  0  0  0  0  0  0  0
    1.8637   -9.2616    9.8023 H   0  0  0  0  0  0  0  0  0  0  0  0
    1.9243   -8.3251   12.2849 H   0  0  0  0  0  0  0  0  0  0  0  0
    1.5216   -5.7500   12.1965 H   0  0  0  0  0  0  0  0  0  0  0  0
    1.1993   -5.0367    9.6585 H   0  0  0  0  0  0  0  0  0  0  0  0
    0.9477   -7.2966    8.2243 H   0  0  0  0  0  0  0  0  0  0  0  0
   -0.0306   -7.3973    9.7429 H   0  0  0  0  0  0  0  0  0  0  0  0
    3.9075   -5.5426    9.8695 H   0  0  0  0  0  0  0  0  0  0  0  0
    7.9943   -2.9776    3.7296 H   0  0  0  0  0  0  0  0  0  0  0  0
    9.7328   -1.4402    2.9210 H   0  0  0  0  0  0  0  0  0  0  0  0
   10.7728   -1.0979   -0.4647 H   0  0  0  0  0  0  0  0  0  0  0  0
    9.6743    0.2825   -0.0761 H   0  0  0  0  0  0  0  0  0  0  0  0
   10.8636   -0.2982    1.1443 H   0  0  0  0  0  0  0  0  0  0  0  0
    8.3084   -1.9479   -1.1171 H   0  0  0  0  0  0  0  0  0  0  0  0
    6.6213   -3.5343   -0.3239 H   0  0  0  0  0  0  0  0  0  0  0  0
    7.3588   -6.4302    1.0641 H   0  0  0  0  0  0  0  0  0  0  0  0
    8.2298   -8.4509    2.1733 H   0  0  0  0  0  0  0  0  0  0  0  0
    7.4786   -9.7672    4.8173 H   0  0  0  0  0  0  0  0  0  0  0  0
    9.1667   -9.3966    4.3112 H   0  0  0  0  0  0  0  0  0  0  0  0
    8.5622   -8.8095    5.8885 H   0  0  0  0  0  0  0  0  0  0  0  0
    7.2040   -6.7677    6.0125 H   0  0  0  0  0  0  0  0  0  0  0  0
    6.3099   -4.7620    4.8913 H   0  0  0  0  0  0  0  0  0  0  0  0
   -0.2963   -2.0389    0.1007 H   0  0  0  0  0  0  0  0  0  0  0  0
   -2.4676   -3.1806    0.2464 H   0  0  0  0  0  0  0  0  0  0  0  0
   -4.1416   -4.5921   -0.8915 H   0  0  0  0  0  0  0  0  0  0  0  0
   -3.6661   -5.6394   -2.2678 H   0  0  0  0  0  0  0  0  0  0  0  0
   -3.2826   -6.1538   -0.5762 H   0  0  0  0  0  0  0  0  0  0  0  0
   -1.2543   -5.8658   -2.9066 H   0  0  0  0  0  0  0  0  0  0  0  0
    0.9304   -4.7491   -3.0118 H   0  0  0  0  0  0  0  0  0  0  0  0
    4.4120   -2.7065   -2.1429 H   0  0  0  0  0  0  0  0  0  0  0  0
    5.4391   -2.1459   -4.2853 H   0  0  0  0  0  0  0  0  0  0  0  0
    3.4943   -1.4337   -7.4227 H   0  0  0  0  0  0  0  0  0  0  0  0
    5.0723   -2.0222   -6.7930 H   0  0  0  0  0  0  0  0  0  0  0  0
    4.5786   -0.2995   -6.5272 H   0  0  0  0  0  0  0  0  0  0  0  0
    1.5524   -1.3200   -5.9519 H   0  0  0  0  0  0  0  0  0  0  0  0
    0.5138   -1.8851   -3.8130 H   0  0  0  0  0  0  0  0  0  0  0  0
    0.2749   -1.9697    2.2958 H   0  0  0  0  0  0  0  0  0  0  0  0
   -1.5990   -2.7258    3.7121 H   0  0  0  0  0  0  0  0  0  0  0  0
   -2.2415   -3.1468    7.8361 H   0  0  0  0  0  0  0  0  0  0  0  0
   -1.3164   -1.5935    7.9805 H   0  0  0  0  0  0  0  0  0  0  0  0
   -0.8201   -2.8418    6.7521 H   0  0  0  0  0  0  0  0  0  0  0  0
   -1.2041    0.8333    6.1045 H   0  0  0  0  0  0  0  0  0  0  0  0
    0.6431    1.6052    4.6618 H   0  0  0  0  0  0  0  0  0  0  0  0
    2.8453   -0.9808    4.6147 H   0  0  0  0  0  0  0  0  0  0  0  0
    4.9800   -0.4197    5.6966 H   0  0  0  0  0  0  0  0  0  0  0  0
    7.5532   -0.4243    4.2894 H   0  0  0  0  0  0  0  0  0  0  0  0
    8.9760    0.6378    4.6140 H   0  0  0  0  0  0  0  0  0  0  0  0
    7.9307    0.9562    3.1757 H   0  0  0  0  0  0  0  0  0  0  0  0
    5.5023    2.8733    2.9800 H   0  0  0  0  0  0  0  0  0  0  0  0
    3.3653    2.3312    1.8891 H   0  0  0  0  0  0  0  0  0  0  0  0
   -0.8175    4.6782   -1.8082 H   0  0  0  0  0  0  0  0  0  0  0  0
    0.2346    6.5297   -3.0100 H   0  0  0  0  0  0  0  0  0  0  0  0
    3.7730    7.3401   -4.9387 H   0  0  0  0  0  0  0  0  0  0  0  0
    3.7048    5.6415   -5.5399 H   0  0  0  0  0  0  0  0  0  0  0  0
    3.1454    6.0416   -3.8620 H   0  0  0  0  0  0  0  0  0  0  0  0
    1.1541    3.8974   -6.2898 H   0  0  0  0  0  0  0  0  0  0  0  0
    0.1071    2.0269   -5.0873 H   0  0  0  0  0  0  0  0  0  0  0  0
   -2.6601    2.2295   -4.8395 H   0  0  0  0  0  0  0  0  0  0  0  0
   -3.6110    0.3260   -6.0821 H   0  0  0  0  0  0  0  0  0  0  0  0
   -5.4112   -2.1614   -4.3430 H   0  0  0  0  0  0  0  0  0  0  0  0
   -5.3290   -3.8660   -4.9267 H   0  0  0  0  0  0  0  0  0  0  0  0
   -4.3071   -3.3304   -3.5388 H   0  0  0  0  0  0  0  0  0  0  0  0
   -2.0028   -2.3848   -3.1674 H   0  0  0  0  0  0  0  0  0  0  0  0
   -1.0882   -0.5194   -1.9079 H   0  0  0  0  0  0  0  0  0  0  0  0
   -3.9551    1.5785   -1.6385 H   0  0  0  0  0  0  0  0  0  0  0  0
   -6.9798    1.4627   -1.4006 H   0  0  0  0  0  0  0  0  0  0  0  0
   -8.0048   -0.5933   -2.2771 H   0  0  0  0  0  0  0  0  0  0  0  0
   -8.5565   -2.0734   -4.1999 H   0  0  0  0  0  0  0  0  0  0  0  0
   -8.3192   -2.6121   -6.5960 H   0  0  0  0  0  0  0  0  0  0  0  0
   -6.9994   -1.1393   -8.0891 H   0  0  0  0  0  0  0  0  0  0  0  0
   -5.9270    0.8942   -7.2025 H   0  0  0  0  0  0  0  0  0  0  0  0
   -5.4710    2.4066   -5.3268 H   0  0  0  0  0  0  0  0  0  0  0  0
   -3.5561    8.2188   -2.9962 H   0  0  0  0  0  0  0  0  0  0  0  0
   -3.7415   10.5340   -1.8482 H   0  0  0  0  0  0  0  0  0  0  0  0
   -6.9127   12.6572   -0.1399 H   0  0  0  0  0  0  0  0  0  0  0  0
   -6.4243   11.4808   -1.4141 H   0  0  0  0  0  0  0  0  0  0  0  0
   -8.3287   10.9702    0.9720 H   0  0  0  0  0  0  0  0  0  0  0  0
   -8.7996   11.1191   -0.7712 H   0  0  0  0  0  0  0  0  0  0  0  0
   -7.8223    9.7072   -0.2160 H   0  0  0  0  0  0  0  0  0  0  0  0
   -6.1808    7.9083   -3.7420 H   0  0  0  0  0  0  0  0  0  0  0  0
   -7.2769    6.3384   -7.0179 H   0  0  0  0  0  0  0  0  0  0  0  0
   -6.9789   14.0348   -5.8684 H   0  0  0  0  0  0  0  0  0  0  0  0
   -6.5454   11.4710   -9.2636 H   0  0  0  0  0  0  0  0  0  0  0  0
  1  2  2  3
  2  3  1  0
  3  4  2  0
  3  5  1  0
  5  6  2  0
  6  7  1  0
  7  8  2  0
  8  9  1  0
  9 10  2  0
 10 11  1  0
 11 12  2  3
 12 13  1  0
 13 14  3  0
 12 15  1  0
 15 16  3  0
  8 17  1  0
 17 18  1  0
 18 19  1  0
 19 20  2  0
 20 21  1  0
 21 22  1  0
 21 23  1  0
  1 24  1  0
 24 25  2  0
 25 26  1  0
 26 27  1  0
 27 28  2  0
 28 29  1  0
 29 30  2  0
 30 31  1  0
 30 32  1  0
 32 33  2  0
 26 34  1  0
 34 35  2  0
 35 36  1  0
 36 37  2  0
 37 38  1  0
 37 39  1  0
 39 40  2  0
 25 41  1  0
 41 42  1  0
 42 43  1  0
 43 44  2  0
 44 45  1  0
 45 46  1  0
 46 47  2  0
 47 48  1  0
 48 49  2  0
 49 50  1  0
 49 51  1  0
 51 52  2  0
 45 53  1  0
 53 54  2  0
 54 55  1  0
 55 56  2  0
 56 57  1  0
 56 58  1  0
 58 59  2  0
 44 60  1  0
 60 61  1  0
 43 62  1  0
 62 63  2  0
 63 64  1  0
 64 65  1  0
 65 66  2  0
 66 67  1  0
 67 68  2  0
 68 69  1  0
 69 70  1  0
 68 71  1  0
 71 72  2  0
 64 73  1  0
 73 74  2  0
 74 75  1  0
 75 76  2  0
 76 77  1  0
 77 78  1  0
 76 79  1  0
 79 80  2  0
 63 81  1  0
 81 82  1  0
 82 83  1  0
 83 84  2  0
 84 85  1  0
 85 86  1  0
 86 87  2  0
 87 88  1  0
 88 89  2  0
 89 90  1  0
 90 91  1  0
 89 92  1  0
 92 93  2  0
 85 94  1  0
 94 95  2  0
 95 96  1  0
 96 97  2  0
 97 98  1  0
 98 99  1  0
 97100  1  0
100101  2  0
 84102  1  0
102103  1  0
 83104  1  0
104105  2  0
105106  1  0
106107  2  0
107108  1  0
108109  2  0
109110  1  0
110111  2  0
111112  1  0
112113  2  0
113114  1  0
114115  2  0
115116  1  0
116117  2  0
107118  1  0
118119  2  0
119120  1  0
120121  1  0
121122  2  0
122123  1  0
123124  2  0
124125  1  0
125126  1  0
126127  1  0
124128  1  0
120129  2  0
129130  1  0
119131  1  0
131132  2  0
132133  1  0
132134  1  0
134135  2  3
135136  1  0
136137  2  0
136138  1  0
138139  2  0
139140  1  0
139141  1  0
141142  2  0
142143  1  0
142144  1  0
144145  2  0
145146  1  0
146147  2  3
147148  1  0
148149  3  0
147150  1  0
150151  3  0
 11  2  1  0
 23 17  1  0
 61 24  1  0
103 62  1  0
130104  1  0
146135  1  0
 10  5  1  0
 22 18  1  0
 33 27  1  0
 40 34  1  0
 60 41  2  0
 72 65  1  0
 80 73  1  0
102 81  2  0
129106  1  0
145138  1  0
 23  7  1  0
 52 46  1  0
 59 53  1  0
 93 86  1  0
101 94  1  0
117108  1  0
133118  1  0
116111  1  0
128121  1  0
  1152  1  0
  6153  1  0
  9154  1  0
 17155  1  0
 18156  1  0
 19157  1  0
 20158  1  0
 21159  1  0
 22160  1  0
 22161  1  0
 23162  1  0
 28163  1  0
 29164  1  0
 31165  1  0
 31166  1  0
 31167  1  0
 32168  1  0
 33169  1  0
 35170  1  0
 36171  1  0
 38172  1  0
 38173  1  0
 38174  1  0
 39175  1  0
 40176  1  0
 47177  1  0
 48178  1  0
 50179  1  0
 50180  1  0
 50181  1  0
 51182  1  0
 52183  1  0
 54184  1  0
 55185  1  0
 57186  1  0
 57187  1  0
 57188  1  0
 58189  1  0
 59190  1  0
 66191  1  0
 67192  1  0
 70193  1  0
 70194  1  0
 70195  1  0
 71196  1  0
 72197  1  0
 74198  1  0
 75199  1  0
 78200  1  0
 78201  1  0
 78202  1  0
 79203  1  0
 80204  1  0
 87205  1  0
 88206  1  0
 91207  1  0
 91208  1  0
 91209  1  0
 92210  1  0
 93211  1  0
 95212  1  0
 96213  1  0
 99214  1  0
 99215  1  0
 99216  1  0
100217  1  0
101218  1  0
105219  1  0
109220  1  0
110221  1  0
112222  1  0
113223  1  0
114224  1  0
115225  1  0
117226  1  0
122227  1  0
123228  1  0
126229  1  0
126230  1  0
127231  1  0
127232  1  0
127233  1  0
131234  1  0
134235  1  0
141236  1  0
144237  1  0
M  END

