
     RDKit          3D

224248  0  0  0  0  0  0  0  0999 V2000
    2.2473   10.4926    1.5352 C   0  0  0  0  0  0  0  0  0  0  0  0
    2.3765   11.4747    0.6190 C   0  0  0  0  0  0  0  0  0  0  0  0
    2.2291   11.2792   -0.8291 C   0  0  0  0  0  0  0  0  0  0  0  0
    2.9213   10.5031   -1.5428 O   0  0  0  0  0  0  0  0  0  0  0  0
    1.3349   12.2879   -1.3421 C   0  0  0  0  0  0  0  0  0  0  0  0
    0.6935   12.2914   -2.5974 C   0  0  0  0  0  0  0  0  0  0  0  0
   -0.2764   13.2647   -2.7192 C   0  0  0  0  0  0  0  0  0  0  0  0
   -0.5784   14.2116   -1.6837 C   0  0  0  0  0  0  0  0  0  0  0  0
    0.0763   14.2296   -0.4590 C   0  0  0  0  0  0  0  0  0  0  0  0
    1.0703   13.2241   -0.3136 C   0  0  0  0  0  0  0  0  0  0  0  0
    1.8661   12.8471    0.8797 C   0  0  0  0  0  0  0  0  0  0  0  0
    2.2172   13.6359    1.9215 C   0  0  0  0  0  0  0  0  0  0  0  0
    3.1795   13.1956    2.8955 C   0  0  0  0  0  0  0  0  0  0  0  0
    3.9594   12.8474    3.6810 N   0  0  0  0  0  0  0  0  0  0  0  0
    1.7684   14.9947    2.0461 C   0  0  0  0  0  0  0  0  0  0  0  0
    1.4085   16.0905    2.1558 N   0  0  0  0  0  0  0  0  0  0  0  0
   -1.6545   14.8223   -2.5330 C   0  0  0  0  0  0  0  0  0  0  0  0
   -1.3248   16.1890   -3.2035 C   0  0  0  0  0  0  0  0  0  0  0  0
   -2.3638   16.3734   -4.2861 C   0  0  0  0  0  0  0  0  0  0  0  0
   -2.0757   15.4833   -5.2474 C   0  0  0  0  0  0  0  0  0  0  0  0
   -0.8591   14.7241   -4.7752 C   0  0  0  0  0  0  0  0  0  0  0  0
   -0.1262   15.8642   -4.0851 C   0  0  0  0  0  0  0  0  0  0  0  0
   -1.3487   13.8468   -3.5881 C   0  0  0  0  0  0  0  0  0  0  0  0
    1.7076    9.1676    1.1763 C   0  0  0  0  0  0  0  0  0  0  0  0
    2.3377    8.0997    0.0177 S   0  0  0  0  0  0  0  0  0  0  0  0
    0.9742    7.1255   -0.0427 C   0  0  0  0  0  0  0  0  0  0  0  0
    0.7427    6.0382   -0.8837 C   0  0  0  0  0  0  0  0  0  0  0  0
   -0.5092    5.4213   -0.7797 C   0  0  0  0  0  0  0  0  0  0  0  0
   -0.9016    4.2839   -1.4758 C   0  0  0  0  0  0  0  0  0  0  0  0
   -2.1589    3.8089   -1.0882 C   0  0  0  0  0  0  0  0  0  0  0  0
   -2.7855    4.8359    0.1094 S   0  0  0  0  0  0  0  0  0  0  0  0
   -1.4665    5.8773    0.1280 C   0  0  0  0  0  0  0  0  0  0  0  0
   -1.2368    6.9837    0.9560 C   0  0  0  0  0  0  0  0  0  0  0  0
    0.0170    7.6057    0.8500 C   0  0  0  0  0  0  0  0  0  0  0  0
    0.4279    8.7480    1.5475 C   0  0  0  0  0  0  0  0  0  0  0  0
   -2.6295    2.4340   -1.3404 C   0  0  0  0  0  0  0  0  0  0  0  0
   -2.1069    1.5878   -2.3355 C   0  0  0  0  0  0  0  0  0  0  0  0
   -1.6321    2.0447   -3.6148 N   0  0  0  0  0  0  0  0  0  0  0  0
   -2.6423    2.5855   -4.4763 C   0  0  0  0  0  0  0  0  0  0  0  0
   -2.7989    3.9716   -4.6007 C   0  0  0  0  0  0  0  0  0  0  0  0
   -3.8835    4.4895   -5.3152 C   0  0  0  0  0  0  0  0  0  0  0  0
   -4.8123    3.6258   -5.9107 C   0  0  0  0  0  0  0  0  0  0  0  0
   -6.2763    4.2860   -6.7043 S   0  0  0  0  0  0  0  0  0  0  0  0
   -7.2639    4.2005   -5.1767 C   0  0  0  0  0  0  0  0  0  0  0  0
   -4.6237    2.2416   -5.8353 C   0  0  0  0  0  0  0  0  0  0  0  0
   -3.5436    1.7226   -5.1160 C   0  0  0  0  0  0  0  0  0  0  0  0
   -0.2993    1.7529   -4.1037 C   0  0  0  0  0  0  0  0  0  0  0  0
    0.0116    1.8704   -5.4761 C   0  0  0  0  0  0  0  0  0  0  0  0
    1.3060    1.6244   -5.9419 C   0  0  0  0  0  0  0  0  0  0  0  0
    2.3147    1.2601   -5.0453 C   0  0  0  0  0  0  0  0  0  0  0  0
    3.9830    0.9877   -5.6431 S   0  0  0  0  0  0  0  0  0  0  0  0
    4.4689    2.7315   -5.4415 C   0  0  0  0  0  0  0  0  0  0  0  0
    2.0233    1.1245   -3.6840 C   0  0  0  0  0  0  0  0  0  0  0  0
    0.7296    1.3829   -3.2136 C   0  0  0  0  0  0  0  0  0  0  0  0
   -2.2322    0.2441   -1.9911 C   0  0  0  0  0  0  0  0  0  0  0  0
   -1.3895   -1.1070   -2.4944 S   0  0  0  0  0  0  0  0  0  0  0  0
   -1.7909   -2.0379   -1.1296 C   0  0  0  0  0  0  0  0  0  0  0  0
   -2.6225   -1.2817   -0.2783 C   0  0  0  0  0  0  0  0  0  0  0  0
   -3.0510   -1.7386    1.0267 N   0  0  0  0  0  0  0  0  0  0  0  0
   -3.4586   -3.1101    1.1918 C   0  0  0  0  0  0  0  0  0  0  0  0
   -4.4981   -3.6344    0.4067 C   0  0  0  0  0  0  0  0  0  0  0  0
   -4.8946   -4.9666    0.5608 C   0  0  0  0  0  0  0  0  0  0  0  0
   -4.2204   -5.8079    1.4542 C   0  0  0  0  0  0  0  0  0  0  0  0
   -4.6960   -7.5304    1.6010 S   0  0  0  0  0  0  0  0  0  0  0  0
   -3.6603   -8.0780    0.2059 C   0  0  0  0  0  0  0  0  0  0  0  0
   -3.1804   -5.2885    2.2385 C   0  0  0  0  0  0  0  0  0  0  0  0
   -2.8197   -3.9435    2.1272 C   0  0  0  0  0  0  0  0  0  0  0  0
   -3.0270   -0.8762    2.1793 C   0  0  0  0  0  0  0  0  0  0  0  0
   -1.9041   -0.0768    2.4547 C   0  0  0  0  0  0  0  0  0  0  0  0
   -1.8882    0.7556    3.5761 C   0  0  0  0  0  0  0  0  0  0  0  0
   -2.9940    0.8012    4.4326 C   0  0  0  0  0  0  0  0  0  0  0  0
   -2.9901    1.8945    5.8519 S   0  0  0  0  0  0  0  0  0  0  0  0
   -3.7398    3.2776    4.9297 C   0  0  0  0  0  0  0  0  0  0  0  0
   -4.1052   -0.0136    4.1788 C   0  0  0  0  0  0  0  0  0  0  0  0
   -4.1248   -0.8415    3.0555 C   0  0  0  0  0  0  0  0  0  0  0  0
   -2.8248    0.0041   -0.7898 C   0  0  0  0  0  0  0  0  0  0  0  0
   -3.2572    1.4649   -0.0841 S   0  0  0  0  0  0  0  0  0  0  0  0
   -0.8325   -2.9994   -0.5813 C   0  0  0  0  0  0  0  0  0  0  0  0
   -0.3612   -4.2027   -1.1425 C   0  0  0  0  0  0  0  0  0  0  0  0
   -0.6677   -4.6636   -2.4751 N   0  0  0  0  0  0  0  0  0  0  0  0
    0.3812   -5.1961   -3.2991 C   0  0  0  0  0  0  0  0  0  0  0  0
    1.5932   -4.5000   -3.4320 C   0  0  0  0  0  0  0  0  0  0  0  0
    2.6589   -5.0657   -4.1319 C   0  0  0  0  0  0  0  0  0  0  0  0
    2.5316   -6.3429   -4.6876 C   0  0  0  0  0  0  0  0  0  0  0  0
    3.9342   -7.1044   -5.5023 S   0  0  0  0  0  0  0  0  0  0  0  0
    4.5483   -7.8783   -3.9724 C   0  0  0  0  0  0  0  0  0  0  0  0
    1.3131   -7.0327   -4.5829 C   0  0  0  0  0  0  0  0  0  0  0  0
    0.2425   -6.4592   -3.8928 C   0  0  0  0  0  0  0  0  0  0  0  0
   -2.0013   -4.5742   -2.9983 C   0  0  0  0  0  0  0  0  0  0  0  0
   -2.2571   -3.8728   -4.1878 C   0  0  0  0  0  0  0  0  0  0  0  0
   -3.5642   -3.7641   -4.6736 C   0  0  0  0  0  0  0  0  0  0  0  0
   -4.6140   -4.4069   -4.0065 C   0  0  0  0  0  0  0  0  0  0  0  0
   -6.2917   -4.2944   -4.6281 S   0  0  0  0  0  0  0  0  0  0  0  0
   -6.0843   -5.6761   -5.7959 C   0  0  0  0  0  0  0  0  0  0  0  0
   -4.3525   -5.1357   -2.8436 C   0  0  0  0  0  0  0  0  0  0  0  0
   -3.0570   -5.1938   -2.3259 C   0  0  0  0  0  0  0  0  0  0  0  0
    0.6242   -4.7701   -0.3156 C   0  0  0  0  0  0  0  0  0  0  0  0
    1.5337   -6.1876   -0.3183 S   0  0  0  0  0  0  0  0  0  0  0  0
    2.4212   -5.7646    1.0795 C   0  0  0  0  0  0  0  0  0  0  0  0
    2.0085   -4.5126    1.5445 C   0  0  0  0  0  0  0  0  0  0  0  0
    2.7124   -3.7502    2.5395 N   0  0  0  0  0  0  0  0  0  0  0  0
    2.0804   -3.3709    3.7712 C   0  0  0  0  0  0  0  0  0  0  0  0
    1.3937   -2.1508    3.8732 C   0  0  0  0  0  0  0  0  0  0  0  0
    0.8252   -1.7621    5.0879 C   0  0  0  0  0  0  0  0  0  0  0  0
    0.9724   -2.5728    6.2200 C   0  0  0  0  0  0  0  0  0  0  0  0
    0.2996   -2.0498    7.7943 S   0  0  0  0  0  0  0  0  0  0  0  0
    1.8593   -1.2736    8.3229 C   0  0  0  0  0  0  0  0  0  0  0  0
    1.6862   -3.7705    6.1291 C   0  0  0  0  0  0  0  0  0  0  0  0
    2.2515   -4.1602    4.9134 C   0  0  0  0  0  0  0  0  0  0  0  0
    3.9772   -3.1611    2.2106 C   0  0  0  0  0  0  0  0  0  0  0  0
    5.0946   -3.3735    3.0343 C   0  0  0  0  0  0  0  0  0  0  0  0
    6.3256   -2.7948    2.7121 C   0  0  0  0  0  0  0  0  0  0  0  0
    6.4452   -1.9853    1.5763 C   0  0  0  0  0  0  0  0  0  0  0  0
    8.0290   -1.2391    1.1731 S   0  0  0  0  0  0  0  0  0  0  0  0
    8.5288   -2.6227    0.1026 C   0  0  0  0  0  0  0  0  0  0  0  0
    5.3334   -1.7616    0.7573 C   0  0  0  0  0  0  0  0  0  0  0  0
    4.1074   -2.3541    1.0689 C   0  0  0  0  0  0  0  0  0  0  0  0
    0.9837   -4.0140    0.7546 C   0  0  0  0  0  0  0  0  0  0  0  0
    0.0848   -2.6202    0.7995 S   0  0  0  0  0  0  0  0  0  0  0  0
    3.2501   -6.6833    1.8658 C   0  0  0  0  0  0  0  0  0  0  0  0
    2.7547   -7.2990    2.9609 C   0  0  0  0  0  0  0  0  0  0  0  0
    1.3654   -7.1900    3.4390 C   0  0  0  0  0  0  0  0  0  0  0  0
    0.3604   -6.8825    2.7422 O   0  0  0  0  0  0  0  0  0  0  0  0
    1.3515   -7.4091    4.8691 C   0  0  0  0  0  0  0  0  0  0  0  0
    0.2954   -7.0936    5.7529 C   0  0  0  0  0  0  0  0  0  0  0  0
    0.6702   -7.0830    7.0835 C   0  0  0  0  0  0  0  0  0  0  0  0
    2.0026   -7.3743    7.5257 C   0  0  0  0  0  0  0  0  0  0  0  0
    3.0346   -7.7056    6.6639 C   0  0  0  0  0  0  0  0  0  0  0  0
    2.6649   -7.7416    5.2914 C   0  0  0  0  0  0  0  0  0  0  0  0
    3.5486   -7.8430    4.0961 C   0  0  0  0  0  0  0  0  0  0  0  0
    4.7474   -8.4727    4.0239 C   0  0  0  0  0  0  0  0  0  0  0  0
    5.3589   -9.0909    5.1730 C   0  0  0  0  0  0  0  0  0  0  0  0
    5.8511   -9.5970    6.0907 N   0  0  0  0  0  0  0  0  0  0  0  0
    5.4075   -8.7059    2.7666 C   0  0  0  0  0  0  0  0  0  0  0  0
    5.9297   -8.9128    1.7546 N   0  0  0  0  0  0  0  0  0  0  0  0
    1.6145   -7.0759    8.9448 C   0  0  0  0  0  0  0  0  0  0  0  0
    1.4386   -8.2949    9.8937 C   0  0  0  0  0  0  0  0  0  0  0  0
    0.6747   -7.7824   11.0947 C   0  0  0  0  0  0  0  0  0  0  0  0
   -0.5683   -7.5255   10.6700 C   0  0  0  0  0  0  0  0  0  0  0  0
   -0.6032   -7.8819    9.2016 C   0  0  0  0  0  0  0  0  0  0  0  0
    0.3238   -9.0878    9.2309 C   0  0  0  0  0  0  0  0  0  0  0  0
    0.2493   -6.7922    8.4921 C   0  0  0  0  0  0  0  0  0  0  0  0
    2.0911   10.7818    2.5661 H   0  0  0  0  0  0  0  0  0  0  0  0
    0.8766   11.5474   -3.3638 H   0  0  0  0  0  0  0  0  0  0  0  0
   -0.2116   14.9091    0.3262 H   0  0  0  0  0  0  0  0  0  0  0  0
   -2.6771   14.7208   -2.1032 H   0  0  0  0  0  0  0  0  0  0  0  0
   -1.2044   17.0510   -2.5112 H   0  0  0  0  0  0  0  0  0  0  0  0
   -3.1348   17.1341   -4.3414 H   0  0  0  0  0  0  0  0  0  0  0  0
   -2.5812   15.3944   -6.2045 H   0  0  0  0  0  0  0  0  0  0  0  0
   -0.2912   14.1936   -5.5701 H   0  0  0  0  0  0  0  0  0  0  0  0
    0.7806   15.5431   -3.5228 H   0  0  0  0  0  0  0  0  0  0  0  0
    0.1494   16.7015   -4.7762 H   0  0  0  0  0  0  0  0  0  0  0  0
   -2.1771   13.1358   -3.8169 H   0  0  0  0  0  0  0  0  0  0  0  0
    1.4931    5.6856   -1.5821 H   0  0  0  0  0  0  0  0  0  0  0  0
   -0.2441    3.7620   -2.1525 H   0  0  0  0  0  0  0  0  0  0  0  0
   -1.9839    7.3244    1.6643 H   0  0  0  0  0  0  0  0  0  0  0  0
   -0.2077    9.2878    2.2360 H   0  0  0  0  0  0  0  0  0  0  0  0
   -2.1140    4.6467   -4.1086 H   0  0  0  0  0  0  0  0  0  0  0  0
   -4.0217    5.5629   -5.3757 H   0  0  0  0  0  0  0  0  0  0  0  0
   -8.3058    4.5152   -5.3943 H   0  0  0  0  0  0  0  0  0  0  0  0
   -7.2807    3.1598   -4.7897 H   0  0  0  0  0  0  0  0  0  0  0  0
   -6.8372    4.8782   -4.4106 H   0  0  0  0  0  0  0  0  0  0  0  0
   -5.3356    1.5652   -6.2934 H   0  0  0  0  0  0  0  0  0  0  0  0
   -3.4360    0.6470   -5.0119 H   0  0  0  0  0  0  0  0  0  0  0  0
   -0.7401    2.1606   -6.1961 H   0  0  0  0  0  0  0  0  0  0  0  0
    1.5278    1.7346   -6.9957 H   0  0  0  0  0  0  0  0  0  0  0  0
    5.4936    2.8716   -5.8412 H   0  0  0  0  0  0  0  0  0  0  0  0
    3.7760    3.3925   -6.0017 H   0  0  0  0  0  0  0  0  0  0  0  0
    4.4621    3.0061   -4.3655 H   0  0  0  0  0  0  0  0  0  0  0  0
    2.8057    0.8474   -2.9853 H   0  0  0  0  0  0  0  0  0  0  0  0
    0.5451    1.3020   -2.1495 H   0  0  0  0  0  0  0  0  0  0  0  0
   -5.0082   -3.0097   -0.3139 H   0  0  0  0  0  0  0  0  0  0  0  0
   -5.7130   -5.3572   -0.0300 H   0  0  0  0  0  0  0  0  0  0  0  0
   -2.5953   -7.8512    0.4094 H   0  0  0  0  0  0  0  0  0  0  0  0
   -3.7754   -9.1723    0.0658 H   0  0  0  0  0  0  0  0  0  0  0  0
   -3.9932   -7.5782   -0.7247 H   0  0  0  0  0  0  0  0  0  0  0  0
   -2.6607   -5.9260    2.9422 H   0  0  0  0  0  0  0  0  0  0  0  0
   -2.0156   -3.5554    2.7435 H   0  0  0  0  0  0  0  0  0  0  0  0
   -1.0477   -0.0905    1.7953 H   0  0  0  0  0  0  0  0  0  0  0  0
   -1.0278    1.3788    3.7700 H   0  0  0  0  0  0  0  0  0  0  0  0
   -4.7300    2.9760    4.5259 H   0  0  0  0  0  0  0  0  0  0  0  0
   -3.8842    4.1394    5.6159 H   0  0  0  0  0  0  0  0  0  0  0  0
   -3.0758    3.5907    4.0973 H   0  0  0  0  0  0  0  0  0  0  0  0
   -4.9661    0.0121    4.8385 H   0  0  0  0  0  0  0  0  0  0  0  0
   -4.9999   -1.4486    2.8555 H   0  0  0  0  0  0  0  0  0  0  0  0
    1.7141   -3.5251   -2.9760 H   0  0  0  0  0  0  0  0  0  0  0  0
    3.5966   -4.5303   -4.2091 H   0  0  0  0  0  0  0  0  0  0  0  0
    3.8812   -8.7228   -3.6980 H   0  0  0  0  0  0  0  0  0  0  0  0
    4.5797   -7.1494   -3.1348 H   0  0  0  0  0  0  0  0  0  0  0  0
    5.5710   -8.2701   -4.1489 H   0  0  0  0  0  0  0  0  0  0  0  0
    1.2100   -8.0256   -5.0076 H   0  0  0  0  0  0  0  0  0  0  0  0
   -0.6815   -7.0113   -3.7926 H   0  0  0  0  0  0  0  0  0  0  0  0
   -1.4503   -3.3887   -4.7225 H   0  0  0  0  0  0  0  0  0  0  0  0
   -3.7605   -3.2014   -5.5768 H   0  0  0  0  0  0  0  0  0  0  0  0
   -7.0726   -5.9301   -6.2348 H   0  0  0  0  0  0  0  0  0  0  0  0
   -5.4062   -5.3663   -6.6174 H   0  0  0  0  0  0  0  0  0  0  0  0
   -5.6742   -6.5716   -5.2822 H   0  0  0  0  0  0  0  0  0  0  0  0
   -5.1530   -5.6545   -2.3343 H   0  0  0  0  0  0  0  0  0  0  0  0
   -2.8555   -5.7360   -1.4123 H   0  0  0  0  0  0  0  0  0  0  0  0
    1.3192   -1.4926    3.0196 H   0  0  0  0  0  0  0  0  0  0  0  0
    0.2894   -0.8229    5.1519 H   0  0  0  0  0  0  0  0  0  0  0  0
    2.6120   -2.0611    8.5338 H   0  0  0  0  0  0  0  0  0  0  0  0
    1.6762   -0.6969    9.2528 H   0  0  0  0  0  0  0  0  0  0  0  0
    2.2389   -0.5848    7.5384 H   0  0  0  0  0  0  0  0  0  0  0  0
    1.8279   -4.3868    7.0048 H   0  0  0  0  0  0  0  0  0  0  0  0
    2.8487   -5.0540    4.8650 H   0  0  0  0  0  0  0  0  0  0  0  0
    5.0144   -3.9971    3.9135 H   0  0  0  0  0  0  0  0  0  0  0  0
    7.1856   -2.9756    3.3498 H   0  0  0  0  0  0  0  0  0  0  0  0
    8.5165   -3.5705    0.6790 H   0  0  0  0  0  0  0  0  0  0  0  0
    9.5612   -2.4437   -0.2651 H   0  0  0  0  0  0  0  0  0  0  0  0
    7.8408   -2.6984   -0.7639 H   0  0  0  0  0  0  0  0  0  0  0  0
    5.4181   -1.1292   -0.1196 H   0  0  0  0  0  0  0  0  0  0  0  0
    3.2571   -2.1691    0.4302 H   0  0  0  0  0  0  0  0  0  0  0  0
    4.3151   -6.6510    1.6829 H   0  0  0  0  0  0  0  0  0  0  0  0
   -0.6883   -6.7967    5.4153 H   0  0  0  0  0  0  0  0  0  0  0  0
    4.0415   -7.8298    7.0287 H   0  0  0  0  0  0  0  0  0  0  0  0
    2.1402   -6.1956    9.3717 H   0  0  0  0  0  0  0  0  0  0  0  0
    2.3681   -8.8603   10.1150 H   0  0  0  0  0  0  0  0  0  0  0  0
    1.0256   -7.7375   12.1242 H   0  0  0  0  0  0  0  0  0  0  0  0
   -1.3976   -7.2271   11.2994 H   0  0  0  0  0  0  0  0  0  0  0  0
   -1.6156   -8.0568    8.7828 H   0  0  0  0  0  0  0  0  0  0  0  0
   -0.0627   -9.9297    9.8631 H   0  0  0  0  0  0  0  0  0  0  0  0
    0.5787   -9.4820    8.2251 H   0  0  0  0  0  0  0  0  0  0  0  0
   -0.0807   -5.7376    8.6477 H   0  0  0  0  0  0  0  0  0  0  0  0
  1  2  2  3
  2  3  1  0
  3  4  2  0
  3  5  1  0
  5  6  2  0
  6  7  1  0
  7  8  2  0
  8  9  1  0
  9 10  2  0
 10 11  1  0
 11 12  2  3
 12 13  1  0
 13 14  3  0
 12 15  1  0
 15 16  3  0
  8 17  1  0
 17 18  1  0
 18 19  1  0
 19 20  2  0
 20 21  1  0
 21 22  1  0
 21 23  1  0
  1 24  1  0
 24 25  1  0
 25 26  1  0
 26 27  2  0
 27 28  1  0
 28 29  1  0
 29 30  2  0
 30 31  1  0
 31 32  1  0
 32 33  1  0
 33 34  2  0
 34 35  1  0
 30 36  1  0
 36 37  2  0
 37 38  1  0
 38 39  1  0
 39 40  2  0
 40 41  1  0
 41 42  2  0
 42 43  1  0
 43 44  1  0
 42 45  1  0
 45 46  2  0
 38 47  1  0
 47 48  2  0
 48 49  1  0
 49 50  2  0
 50 51  1  0
 51 52  1  0
 50 53  1  0
 53 54  2  0
 37 55  1  0
 55 56  1  0
 56 57  1  0
 57 58  2  0
 58 59  1  0
 59 60  1  0
 60 61  2  0
 61 62  1  0
 62 63  2  0
 63 64  1  0
 64 65  1  0
 63 66  1  0
 66 67  2  0
 59 68  1  0
 68 69  2  0
 69 70  1  0
 70 71  2  0
 71 72  1  0
 72 73  1  0
 71 74  1  0
 74 75  2  0
 58 76  1  0
 76 77  1  0
 57 78  1  0
 78 79  2  0
 79 80  1  0
 80 81  1  0
 81 82  2  0
 82 83  1  0
 83 84  2  0
 84 85  1  0
 85 86  1  0
 84 87  1  0
 87 88  2  0
 80 89  1  0
 89 90  2  0
 90 91  1  0
 91 92  2  0
 92 93  1  0
 93 94  1  0
 92 95  1  0
 95 96  2  0
 79 97  1  0
 97 98  1  0
 98 99  1  0
 99100  2  0
100101  1  0
101102  1  0
102103  2  0
103104  1  0
104105  2  0
105106  1  0
106107  1  0
105108  1  0
108109  2  0
101110  1  0
110111  2  0
111112  1  0
112113  2  0
113114  1  0
114115  1  0
113116  1  0
116117  2  0
100118  1  0
118119  1  0
 99120  1  0
120121  2  3
121122  1  0
122123  2  0
122124  1  0
124125  2  0
125126  1  0
126127  2  0
127128  1  0
128129  2  0
129130  1  0
130131  2  3
131132  1  0
132133  3  0
131134  1  0
134135  3  0
127136  1  0
136137  1  0
137138  1  0
138139  2  0
139140  1  0
140141  1  0
140142  1  0
 11  2  1  0
 23 17  1  0
 35 24  2  0
 77 36  1  0
119 78  1  0
130121  1  0
142136  1  0
 10  5  1  0
 22 18  1  0
 34 26  1  0
 46 39  1  0
 54 47  1  0
 76 55  2  0
 88 81  1  0
 96 89  1  0
118 97  2  0
129124  1  0
141137  1  0
 23  7  1  0
 32 28  2  0
 67 60  1  0
 75 68  1  0
109102  1  0
117110  1  0
142126  1  0
  1143  1  0
  6144  1  0
  9145  1  0
 17146  1  0
 18147  1  0
 19148  1  0
 20149  1  0
 21150  1  0
 22151  1  0
 22152  1  0
 23153  1  0
 27154  1  0
 29155  1  0
 33156  1  0
 35157  1  0
 40158  1  0
 41159  1  0
 44160  1  0
 44161  1  0
 44162  1  0
 45163  1  0
 46164  1  0
 48165  1  0
 49166  1  0
 52167  1  0
 52168  1  0
 52169  1  0
 53170  1  0
 54171  1  0
 61172  1  0
 62173  1  0
 65174  1  0
 65175  1  0
 65176  1  0
 66177  1  0
 67178  1  0
 69179  1  0
 70180  1  0
 73181  1  0
 73182  1  0
 73183  1  0
 74184  1  0
 75185  1  0
 82186  1  0
 83187  1  0
 86188  1  0
 86189  1  0
 86190  1  0
 87191  1  0
 88192  1  0
 90193  1  0
 91194  1  0
 94195  1  0
 94196  1  0
 94197  1  0
 95198  1  0
 96199  1  0
103200  1  0
104201  1  0
107202  1  0
107203  1  0
107204  1  0
108205  1  0
109206  1  0
111207  1  0
112208  1  0
115209  1  0
115210  1  0
115211  1  0
116212  1  0
117213  1  0
120214  1  0
125215  1  0
128216  1  0
136217  1  0
137218  1  0
138219  1  0
139220  1  0
140221  1  0
141222  1  0
141223  1  0
142224  1  0
M  END

