
     RDKit          3D

211230  0  0  0  0  0  0  0  0999 V2000
   -3.8062   -4.4253   -3.8649 C   0  0  0  0  0  0  0  0  0  0  0  0
   -4.3371   -3.2046   -4.1188 C   0  0  0  0  0  0  0  0  0  0  0  0
   -3.9047   -1.9539   -3.4743 C   0  0  0  0  0  0  0  0  0  0  0  0
   -3.3535   -1.8415   -2.3488 O   0  0  0  0  0  0  0  0  0  0  0  0
   -4.1921   -0.8533   -4.3556 C   0  0  0  0  0  0  0  0  0  0  0  0
   -3.6711    0.4567   -4.2530 C   0  0  0  0  0  0  0  0  0  0  0  0
   -3.9383    1.2479   -5.3490 C   0  0  0  0  0  0  0  0  0  0  0  0
   -4.6897    0.7989   -6.4843 C   0  0  0  0  0  0  0  0  0  0  0  0
   -5.1931   -0.4900   -6.5963 C   0  0  0  0  0  0  0  0  0  0  0  0
   -4.9187   -1.3344   -5.4777 C   0  0  0  0  0  0  0  0  0  0  0  0
   -5.1374   -2.8035   -5.3189 C   0  0  0  0  0  0  0  0  0  0  0  0
   -5.9915   -3.5865   -6.0239 C   0  0  0  0  0  0  0  0  0  0  0  0
   -6.2461   -4.9562   -5.6616 C   0  0  0  0  0  0  0  0  0  0  0  0
   -6.4537   -6.0548   -5.3749 N   0  0  0  0  0  0  0  0  0  0  0  0
   -6.8035   -3.0772   -7.0955 C   0  0  0  0  0  0  0  0  0  0  0  0
   -7.4667   -2.6762   -7.9557 N   0  0  0  0  0  0  0  0  0  0  0  0
   -4.4912    2.1291   -7.1504 C   0  0  0  0  0  0  0  0  0  0  0  0
   -5.7043    3.1099   -7.1556 C   0  0  0  0  0  0  0  0  0  0  0  0
   -5.1428    4.4642   -7.5132 C   0  0  0  0  0  0  0  0  0  0  0  0
   -4.4180    4.8631   -6.4594 C   0  0  0  0  0  0  0  0  0  0  0  0
   -4.5207    3.7669   -5.4261 C   0  0  0  0  0  0  0  0  0  0  0  0
   -5.9604    3.3438   -5.6766 C   0  0  0  0  0  0  0  0  0  0  0  0
   -3.7044    2.5735   -5.9955 C   0  0  0  0  0  0  0  0  0  0  0  0
   -2.7324   -4.5931   -2.8734 C   0  0  0  0  0  0  0  0  0  0  0  0
   -1.4357   -4.1035   -3.0790 C   0  0  0  0  0  0  0  0  0  0  0  0
   -0.8014   -4.0437   -4.3694 N   0  0  0  0  0  0  0  0  0  0  0  0
   -0.4596   -2.7669   -4.9295 C   0  0  0  0  0  0  0  0  0  0  0  0
    0.7834   -2.1840   -4.6558 C   0  0  0  0  0  0  0  0  0  0  0  0
    1.0789   -0.8992   -5.1214 C   0  0  0  0  0  0  0  0  0  0  0  0
    0.1465   -0.2022   -5.9040 C   0  0  0  0  0  0  0  0  0  0  0  0
    0.4394    1.1966   -6.3601 C   0  0  0  0  0  0  0  0  0  0  0  0
   -1.0795   -0.8083   -6.2213 C   0  0  0  0  0  0  0  0  0  0  0  0
   -1.3796   -2.0845   -5.7357 C   0  0  0  0  0  0  0  0  0  0  0  0
   -0.5395   -5.2727   -5.0909 C   0  0  0  0  0  0  0  0  0  0  0  0
   -0.5142   -5.2989   -6.4977 C   0  0  0  0  0  0  0  0  0  0  0  0
   -0.2576   -6.4908   -7.1818 C   0  0  0  0  0  0  0  0  0  0  0  0
   -0.0308   -7.6791   -6.4745 C   0  0  0  0  0  0  0  0  0  0  0  0
    0.2793   -8.9496   -7.2137 C   0  0  0  0  0  0  0  0  0  0  0  0
   -0.0372   -7.6578   -5.0722 C   0  0  0  0  0  0  0  0  0  0  0  0
   -0.2899   -6.4663   -4.3865 C   0  0  0  0  0  0  0  0  0  0  0  0
   -0.8103   -3.8116   -1.8712 C   0  0  0  0  0  0  0  0  0  0  0  0
    0.5923   -3.0201   -1.4583 S   0  0  0  0  0  0  0  0  0  0  0  0
    0.2924   -3.0265    0.2165 C   0  0  0  0  0  0  0  0  0  0  0  0
   -0.9141   -3.7292    0.4583 C   0  0  0  0  0  0  0  0  0  0  0  0
   -1.2508   -4.3517    1.7169 N   0  0  0  0  0  0  0  0  0  0  0  0
   -2.6442   -4.5349    2.0758 C   0  0  0  0  0  0  0  0  0  0  0  0
   -3.0958   -5.7463    2.6402 C   0  0  0  0  0  0  0  0  0  0  0  0
   -4.4445   -5.9256    2.9644 C   0  0  0  0  0  0  0  0  0  0  0  0
   -5.3680   -4.8953    2.7395 C   0  0  0  0  0  0  0  0  0  0  0  0
   -6.8208   -5.0977    3.0534 C   0  0  0  0  0  0  0  0  0  0  0  0
   -4.9362   -3.7042    2.1410 C   0  0  0  0  0  0  0  0  0  0  0  0
   -3.5911   -3.5307    1.8061 C   0  0  0  0  0  0  0  0  0  0  0  0
   -0.2131   -5.0726    2.4234 C   0  0  0  0  0  0  0  0  0  0  0  0
    0.8101   -5.7352    1.7169 C   0  0  0  0  0  0  0  0  0  0  0  0
    1.8252   -6.4127    2.3959 C   0  0  0  0  0  0  0  0  0  0  0  0
    1.8244   -6.4632    3.7958 C   0  0  0  0  0  0  0  0  0  0  0  0
    2.9380   -7.1481    4.5270 C   0  0  0  0  0  0  0  0  0  0  0  0
    0.8015   -5.8215    4.5070 C   0  0  0  0  0  0  0  0  0  0  0  0
   -0.2191   -5.1510    3.8245 C   0  0  0  0  0  0  0  0  0  0  0  0
   -1.5143   -4.1071   -0.7527 C   0  0  0  0  0  0  0  0  0  0  0  0
   -3.0166   -4.7201   -1.1976 S   0  0  0  0  0  0  0  0  0  0  0  0
    1.0378   -2.1171    1.1151 C   0  0  0  0  0  0  0  0  0  0  0  0
    0.4826   -1.1917    2.0329 C   0  0  0  0  0  0  0  0  0  0  0  0
   -0.8627   -1.1907    2.5440 N   0  0  0  0  0  0  0  0  0  0  0  0
   -1.1105   -1.7158    3.8783 C   0  0  0  0  0  0  0  0  0  0  0  0
   -2.4269   -1.9256    4.3407 C   0  0  0  0  0  0  0  0  0  0  0  0
   -2.6679   -2.4413    5.6177 C   0  0  0  0  0  0  0  0  0  0  0  0
   -1.6031   -2.7606    6.4595 C   0  0  0  0  0  0  0  0  0  0  0  0
   -1.9211   -3.4634    8.0752 S   0  0  0  0  0  0  0  0  0  0  0  0
   -2.0932   -5.1583    7.4386 C   0  0  0  0  0  0  0  0  0  0  0  0
   -0.2886   -2.5367    6.0313 C   0  0  0  0  0  0  0  0  0  0  0  0
   -0.0418   -2.0207    4.7546 C   0  0  0  0  0  0  0  0  0  0  0  0
   -1.7926   -0.2712    1.9235 C   0  0  0  0  0  0  0  0  0  0  0  0
   -1.9737   -0.2786    0.5308 C   0  0  0  0  0  0  0  0  0  0  0  0
   -2.8559    0.6179   -0.0776 C   0  0  0  0  0  0  0  0  0  0  0  0
   -3.5616    1.5450    0.6920 C   0  0  0  0  0  0  0  0  0  0  0  0
   -4.6787    2.7038   -0.1056 S   0  0  0  0  0  0  0  0  0  0  0  0
   -6.0489    1.5089   -0.2073 C   0  0  0  0  0  0  0  0  0  0  0  0
   -3.3629    1.5902    2.0769 C   0  0  0  0  0  0  0  0  0  0  0  0
   -2.4747    0.7007    2.6885 C   0  0  0  0  0  0  0  0  0  0  0  0
    1.3296   -0.1013    2.2437 C   0  0  0  0  0  0  0  0  0  0  0  0
    1.0578    1.4033    2.9202 S   0  0  0  0  0  0  0  0  0  0  0  0
    2.4839    2.0817    2.2968 C   0  0  0  0  0  0  0  0  0  0  0  0
    3.1978    1.1151    1.5586 C   0  0  0  0  0  0  0  0  0  0  0  0
    4.4623    1.3614    0.8962 N   0  0  0  0  0  0  0  0  0  0  0  0
    4.8753    0.5760   -0.2325 C   0  0  0  0  0  0  0  0  0  0  0  0
    4.4113    0.8897   -1.5187 C   0  0  0  0  0  0  0  0  0  0  0  0
    4.8986    0.1913   -2.6296 C   0  0  0  0  0  0  0  0  0  0  0  0
    5.8356   -0.8385   -2.4543 C   0  0  0  0  0  0  0  0  0  0  0  0
    6.4815   -1.7085   -3.8833 S   0  0  0  0  0  0  0  0  0  0  0  0
    8.0376   -0.7631   -3.9023 C   0  0  0  0  0  0  0  0  0  0  0  0
    6.2700   -1.1744   -1.1665 C   0  0  0  0  0  0  0  0  0  0  0  0
    5.8077   -0.4565   -0.0627 C   0  0  0  0  0  0  0  0  0  0  0  0
    5.3908    2.3330    1.4152 C   0  0  0  0  0  0  0  0  0  0  0  0
    5.9983    3.2653    0.5556 C   0  0  0  0  0  0  0  0  0  0  0  0
    6.8185    4.2708    1.0785 C   0  0  0  0  0  0  0  0  0  0  0  0
    7.0630    4.3398    2.4554 C   0  0  0  0  0  0  0  0  0  0  0  0
    8.0923    5.6436    3.1316 S   0  0  0  0  0  0  0  0  0  0  0  0
    9.6226    4.6648    3.0382 C   0  0  0  0  0  0  0  0  0  0  0  0
    6.4884    3.3955    3.3124 C   0  0  0  0  0  0  0  0  0  0  0  0
    5.6642    2.3922    2.7928 C   0  0  0  0  0  0  0  0  0  0  0  0
    2.5001   -0.1034    1.5586 C   0  0  0  0  0  0  0  0  0  0  0  0
    2.5707   -1.5083    0.6499 S   0  0  0  0  0  0  0  0  0  0  0  0
    2.7066    3.5309    2.2896 C   0  0  0  0  0  0  0  0  0  0  0  0
    2.7081    4.4965    3.6548 S   0  0  0  0  0  0  0  0  0  0  0  0
    2.8378    5.9613    2.8363 C   0  0  0  0  0  0  0  0  0  0  0  0
    2.8929    5.7174    1.4697 C   0  0  0  0  0  0  0  0  0  0  0  0
    2.7871    4.3407    1.1564 C   0  0  0  0  0  0  0  0  0  0  0  0
    2.7699    3.7848   -0.1243 O   0  0  0  0  0  0  0  0  0  0  0  0
    2.2063    4.4041   -1.2737 C   0  0  0  0  0  0  0  0  0  0  0  0
    2.9462    5.6858   -1.6342 C   0  0  0  0  0  0  0  0  0  0  0  0
    2.5088    6.8407   -0.7426 C   0  0  0  0  0  0  0  0  0  0  0  0
    3.0864    6.7609    0.5598 O   0  0  0  0  0  0  0  0  0  0  0  0
    2.9331    7.2821    3.4764 C   0  0  0  0  0  0  0  0  0  0  0  0
    2.1338    7.6839    4.4853 C   0  0  0  0  0  0  0  0  0  0  0  0
    0.8952    6.9740    4.8843 C   0  0  0  0  0  0  0  0  0  0  0  0
    0.2737    6.2549    4.0480 O   0  0  0  0  0  0  0  0  0  0  0  0
    0.3631    7.1532    6.2108 N   0  0  0  0  0  0  0  0  0  0  0  0
   -0.8105    6.3723    6.6419 C   0  0  0  0  0  0  0  0  0  0  0  0
   -0.4107    4.9439    6.9996 C   0  0  0  0  0  0  0  0  0  0  0  0
    1.0367    8.0337    7.1377 C   0  0  0  0  0  0  0  0  0  0  0  0
    0.5532    8.2427    8.2820 O   0  0  0  0  0  0  0  0  0  0  0  0
    2.3462    8.6875    6.7716 C   0  0  0  0  0  0  0  0  0  0  0  0
    3.4514    7.8312    7.2355 C   0  0  0  0  0  0  0  0  0  0  0  0
    4.3183    7.1577    7.6006 N   0  0  0  0  0  0  0  0  0  0  0  0
    2.4666    8.9430    5.2536 C   0  0  0  0  0  0  0  0  0  0  0  0
    1.5499   10.0915    4.8069 C   0  0  0  0  0  0  0  0  0  0  0  0
   -3.9981   -5.2606   -4.5200 H   0  0  0  0  0  0  0  0  0  0  0  0
   -3.0623    0.7958   -3.4330 H   0  0  0  0  0  0  0  0  0  0  0  0
   -5.6693   -0.8132   -7.5062 H   0  0  0  0  0  0  0  0  0  0  0  0
   -3.9170    2.0686   -8.1006 H   0  0  0  0  0  0  0  0  0  0  0  0
   -6.5773    2.7867   -7.7572 H   0  0  0  0  0  0  0  0  0  0  0  0
   -5.3458    5.0499   -8.4019 H   0  0  0  0  0  0  0  0  0  0  0  0
   -3.9238    5.8256   -6.3507 H   0  0  0  0  0  0  0  0  0  0  0  0
   -4.2759    4.0646   -4.3864 H   0  0  0  0  0  0  0  0  0  0  0  0
   -6.6978    4.1611   -5.4787 H   0  0  0  0  0  0  0  0  0  0  0  0
   -6.2738    2.4396   -5.1151 H   0  0  0  0  0  0  0  0  0  0  0  0
   -2.6340    2.7732   -6.2076 H   0  0  0  0  0  0  0  0  0  0  0  0
    1.5231   -2.7269   -4.0837 H   0  0  0  0  0  0  0  0  0  0  0  0
    2.0313   -0.4503   -4.8671 H   0  0  0  0  0  0  0  0  0  0  0  0
    0.1692    1.9125   -5.5570 H   0  0  0  0  0  0  0  0  0  0  0  0
   -0.1418    1.4444   -7.2735 H   0  0  0  0  0  0  0  0  0  0  0  0
    1.5192    1.3044   -6.6008 H   0  0  0  0  0  0  0  0  0  0  0  0
   -1.8119   -0.2879   -6.8332 H   0  0  0  0  0  0  0  0  0  0  0  0
   -2.3148   -2.5522   -6.0019 H   0  0  0  0  0  0  0  0  0  0  0  0
   -0.6927   -4.3977   -7.0721 H   0  0  0  0  0  0  0  0  0  0  0  0
   -0.2370   -6.4838   -8.2655 H   0  0  0  0  0  0  0  0  0  0  0  0
    0.1340   -9.8390   -6.5633 H   0  0  0  0  0  0  0  0  0  0  0  0
   -0.3897   -9.0528   -8.0938 H   0  0  0  0  0  0  0  0  0  0  0  0
    1.3330   -8.9253   -7.5593 H   0  0  0  0  0  0  0  0  0  0  0  0
    0.1511   -8.5631   -4.5088 H   0  0  0  0  0  0  0  0  0  0  0  0
   -0.2746   -6.4788   -3.3066 H   0  0  0  0  0  0  0  0  0  0  0  0
   -2.4118   -6.5681    2.8055 H   0  0  0  0  0  0  0  0  0  0  0  0
   -4.7699   -6.8687    3.3820 H   0  0  0  0  0  0  0  0  0  0  0  0
   -6.9391   -5.7833    3.9177 H   0  0  0  0  0  0  0  0  0  0  0  0
   -7.2998   -4.1309    3.3143 H   0  0  0  0  0  0  0  0  0  0  0  0
   -7.3357   -5.5333    2.1718 H   0  0  0  0  0  0  0  0  0  0  0  0
   -5.6418   -2.9089    1.9322 H   0  0  0  0  0  0  0  0  0  0  0  0
   -3.2865   -2.6079    1.3349 H   0  0  0  0  0  0  0  0  0  0  0  0
    0.8283   -5.7388    0.6357 H   0  0  0  0  0  0  0  0  0  0  0  0
    2.6098   -6.9012    1.8288 H   0  0  0  0  0  0  0  0  0  0  0  0
    2.5558   -7.6458    5.4458 H   0  0  0  0  0  0  0  0  0  0  0  0
    3.7056   -6.3968    4.8115 H   0  0  0  0  0  0  0  0  0  0  0  0
    3.4120   -7.9263    3.8910 H   0  0  0  0  0  0  0  0  0  0  0  0
    0.7960   -5.8460    5.5905 H   0  0  0  0  0  0  0  0  0  0  0  0
   -1.0159   -4.6928    4.3882 H   0  0  0  0  0  0  0  0  0  0  0  0
   -3.2764   -1.6899    3.7215 H   0  0  0  0  0  0  0  0  0  0  0  0
   -3.6865   -2.6040    5.9446 H   0  0  0  0  0  0  0  0  0  0  0  0
   -1.1659   -5.4646    6.9165 H   0  0  0  0  0  0  0  0  0  0  0  0
   -2.9531   -5.2202    6.7388 H   0  0  0  0  0  0  0  0  0  0  0  0
   -2.2688   -5.8503    8.2840 H   0  0  0  0  0  0  0  0  0  0  0  0
    0.5441   -2.7784    6.6813 H   0  0  0  0  0  0  0  0  0  0  0  0
    0.9858   -1.8686    4.4597 H   0  0  0  0  0  0  0  0  0  0  0  0
   -1.4439   -0.9845   -0.0907 H   0  0  0  0  0  0  0  0  0  0  0  0
   -2.9935    0.5861   -1.1460 H   0  0  0  0  0  0  0  0  0  0  0  0
   -6.9497    2.0256   -0.5937 H   0  0  0  0  0  0  0  0  0  0  0  0
   -6.2766    1.0906    0.7947 H   0  0  0  0  0  0  0  0  0  0  0  0
   -5.7804    0.6895   -0.9023 H   0  0  0  0  0  0  0  0  0  0  0  0
   -3.8889    2.3213    2.6753 H   0  0  0  0  0  0  0  0  0  0  0  0
   -2.3113    0.7757    3.7575 H   0  0  0  0  0  0  0  0  0  0  0  0
    3.6917    1.6856   -1.6613 H   0  0  0  0  0  0  0  0  0  0  0  0
    4.5615    0.4620   -3.6220 H   0  0  0  0  0  0  0  0  0  0  0  0
    8.6649   -1.0606   -3.0374 H   0  0  0  0  0  0  0  0  0  0  0  0
    8.5862   -0.9895   -4.8375 H   0  0  0  0  0  0  0  0  0  0  0  0
    7.8352    0.3256   -3.8602 H   0  0  0  0  0  0  0  0  0  0  0  0
    6.9947   -1.9669   -1.0275 H   0  0  0  0  0  0  0  0  0  0  0  0
    6.1747   -0.6962    0.9258 H   0  0  0  0  0  0  0  0  0  0  0  0
    5.8029    3.2372   -0.5094 H   0  0  0  0  0  0  0  0  0  0  0  0
    7.2573    5.0042    0.4120 H   0  0  0  0  0  0  0  0  0  0  0  0
   10.4292    5.1921    3.5864 H   0  0  0  0  0  0  0  0  0  0  0  0
    9.4803    3.6639    3.4917 H   0  0  0  0  0  0  0  0  0  0  0  0
    9.9297    4.5384    1.9751 H   0  0  0  0  0  0  0  0  0  0  0  0
    6.6633    3.4459    4.3790 H   0  0  0  0  0  0  0  0  0  0  0  0
    5.2147    1.6751    3.4636 H   0  0  0  0  0  0  0  0  0  0  0  0
    1.1220    4.5897   -1.1099 H   0  0  0  0  0  0  0  0  0  0  0  0
    2.2896    3.6931   -2.1217 H   0  0  0  0  0  0  0  0  0  0  0  0
    4.0447    5.5334   -1.5576 H   0  0  0  0  0  0  0  0  0  0  0  0
    2.7076    5.9468   -2.6873 H   0  0  0  0  0  0  0  0  0  0  0  0
    2.8455    7.7905   -1.2062 H   0  0  0  0  0  0  0  0  0  0  0  0
    1.4019    6.8893   -0.6620 H   0  0  0  0  0  0  0  0  0  0  0  0
    3.7393    7.9266    3.1412 H   0  0  0  0  0  0  0  0  0  0  0  0
   -1.5732    6.3536    5.8326 H   0  0  0  0  0  0  0  0  0  0  0  0
   -1.2986    6.8414    7.5198 H   0  0  0  0  0  0  0  0  0  0  0  0
   -0.0259    4.4104    6.1030 H   0  0  0  0  0  0  0  0  0  0  0  0
   -1.2963    4.4001    7.3889 H   0  0  0  0  0  0  0  0  0  0  0  0
    0.3787    4.9570    7.7817 H   0  0  0  0  0  0  0  0  0  0  0  0
    2.4282    9.6585    7.3085 H   0  0  0  0  0  0  0  0  0  0  0  0
    3.5137    9.2639    5.0373 H   0  0  0  0  0  0  0  0  0  0  0  0
    0.4884    9.8620    5.0249 H   0  0  0  0  0  0  0  0  0  0  0  0
    1.8252   11.0297    5.3321 H   0  0  0  0  0  0  0  0  0  0  0  0
    1.6602   10.2644    3.7135 H   0  0  0  0  0  0  0  0  0  0  0  0
  1  2  2  3
  2  3  1  0
  3  4  2  0
  3  5  1  0
  5  6  2  0
  6  7  1  0
  7  8  2  0
  8  9  1  0
  9 10  2  0
 10 11  1  0
 11 12  2  3
 12 13  1  0
 13 14  3  0
 12 15  1  0
 15 16  3  0
  8 17  1  0
 17 18  1  0
 18 19  1  0
 19 20  2  0
 20 21  1  0
 21 22  1  0
 21 23  1  0
  1 24  1  0
 24 25  2  0
 25 26  1  0
 26 27  1  0
 27 28  2  0
 28 29  1  0
 29 30  2  0
 30 31  1  0
 30 32  1  0
 32 33  2  0
 26 34  1  0
 34 35  2  0
 35 36  1  0
 36 37  2  0
 37 38  1  0
 37 39  1  0
 39 40  2  0
 25 41  1  0
 41 42  1  0
 42 43  1  0
 43 44  2  0
 44 45  1  0
 45 46  1  0
 46 47  2  0
 47 48  1  0
 48 49  2  0
 49 50  1  0
 49 51  1  0
 51 52  2  0
 45 53  1  0
 53 54  2  0
 54 55  1  0
 55 56  2  0
 56 57  1  0
 56 58  1  0
 58 59  2  0
 44 60  1  0
 60 61  1  0
 43 62  1  0
 62 63  2  0
 63 64  1  0
 64 65  1  0
 65 66  2  0
 66 67  1  0
 67 68  2  0
 68 69  1  0
 69 70  1  0
 68 71  1  0
 71 72  2  0
 64 73  1  0
 73 74  2  0
 74 75  1  0
 75 76  2  0
 76 77  1  0
 77 78  1  0
 76 79  1  0
 79 80  2  0
 63 81  1  0
 81 82  1  0
 82 83  1  0
 83 84  2  0
 84 85  1  0
 85 86  1  0
 86 87  2  0
 87 88  1  0
 88 89  2  0
 89 90  1  0
 90 91  1  0
 89 92  1  0
 92 93  2  0
 85 94  1  0
 94 95  2  0
 95 96  1  0
 96 97  2  0
 97 98  1  0
 98 99  1  0
 97100  1  0
100101  2  0
 84102  1  0
102103  1  0
 83104  1  0
104105  1  0
105106  1  0
106107  2  0
107108  1  0
108109  1  0
109110  1  0
110111  1  0
111112  1  0
112113  1  0
106114  1  0
114115  2  3
115116  1  0
116117  2  0
116118  1  0
118119  1  0
119120  1  0
118121  1  0
121122  2  0
121123  1  0
123124  1  0
124125  3  0
123126  1  0
126127  1  0
 11  2  1  0
 23 17  1  0
 61 24  1  0
103 62  1  0
108104  2  0
126115  1  0
 10  5  1  0
 22 18  1  0
 33 27  1  0
 40 34  1  0
 60 41  2  0
 72 65  1  0
 80 73  1  0
102 81  2  0
113107  1  0
 23  7  1  0
 52 46  1  0
 59 53  1  0
 93 86  1  0
101 94  1  0
  1128  1  0
  6129  1  0
  9130  1  0
 17131  1  0
 18132  1  0
 19133  1  0
 20134  1  0
 21135  1  0
 22136  1  0
 22137  1  0
 23138  1  0
 28139  1  0
 29140  1  0
 31141  1  0
 31142  1  0
 31143  1  0
 32144  1  0
 33145  1  0
 35146  1  0
 36147  1  0
 38148  1  0
 38149  1  0
 38150  1  0
 39151  1  0
 40152  1  0
 47153  1  0
 48154  1  0
 50155  1  0
 50156  1  0
 50157  1  0
 51158  1  0
 52159  1  0
 54160  1  0
 55161  1  0
 57162  1  0
 57163  1  0
 57164  1  0
 58165  1  0
 59166  1  0
 66167  1  0
 67168  1  0
 70169  1  0
 70170  1  0
 70171  1  0
 71172  1  0
 72173  1  0
 74174  1  0
 75175  1  0
 78176  1  0
 78177  1  0
 78178  1  0
 79179  1  0
 80180  1  0
 87181  1  0
 88182  1  0
 91183  1  0
 91184  1  0
 91185  1  0
 92186  1  0
 93187  1  0
 95188  1  0
 96189  1  0
 99190  1  0
 99191  1  0
 99192  1  0
100193  1  0
101194  1  0
110195  1  0
110196  1  0
111197  1  0
111198  1  0
112199  1  0
112200  1  0
114201  1  0
119202  1  0
119203  1  0
120204  1  0
120205  1  0
120206  1  0
123207  1  0
126208  1  0
127209  1  0
127210  1  0
127211  1  0
M  END

