
     RDKit          3D

167187  0  0  0  0  0  0  0  0999 V2000
    2.4859    3.4371   -5.6605 C   0  0  0  0  0  0  0  0  0  0  0  0
    2.4349    2.1481   -6.0524 C   0  0  0  0  0  0  0  0  0  0  0  0
    1.5632    1.1123   -5.4847 C   0  0  0  0  0  0  0  0  0  0  0  0
    1.0711    1.1058   -4.3253 O   0  0  0  0  0  0  0  0  0  0  0  0
    1.3483    0.0886   -6.4756 C   0  0  0  0  0  0  0  0  0  0  0  0
    0.4163   -0.9711   -6.4101 C   0  0  0  0  0  0  0  0  0  0  0  0
    0.2788   -1.6582   -7.6020 C   0  0  0  0  0  0  0  0  0  0  0  0
    1.0060   -1.3255   -8.7923 C   0  0  0  0  0  0  0  0  0  0  0  0
    1.9438   -0.3076   -8.8488 C   0  0  0  0  0  0  0  0  0  0  0  0
    2.1203    0.3954   -7.6242 C   0  0  0  0  0  0  0  0  0  0  0  0
    2.9585    1.5903   -7.3304 C   0  0  0  0  0  0  0  0  0  0  0  0
    4.1216    1.9258   -7.9346 C   0  0  0  0  0  0  0  0  0  0  0  0
    4.6064    1.2295   -9.1028 C   0  0  0  0  0  0  0  0  0  0  0  0
    4.9952    0.6834  -10.0496 N   0  0  0  0  0  0  0  0  0  0  0  0
    5.0144    2.9041   -7.3702 C   0  0  0  0  0  0  0  0  0  0  0  0
    5.7381    3.6832   -6.9155 N   0  0  0  0  0  0  0  0  0  0  0  0
    0.2625   -2.3804   -9.5555 C   0  0  0  0  0  0  0  0  0  0  0  0
    1.0216   -3.6900   -9.9247 C   0  0  0  0  0  0  0  0  0  0  0  0
    2.0755   -3.9828   -8.8858 C   0  0  0  0  0  0  0  0  0  0  0  0
    1.4276   -4.3007   -7.7642 C   0  0  0  0  0  0  0  0  0  0  0  0
   -0.0489   -4.2179   -8.0817 C   0  0  0  0  0  0  0  0  0  0  0  0
   -0.0156   -4.7194   -9.5118 C   0  0  0  0  0  0  0  0  0  0  0  0
   -0.4643   -2.7353   -8.3326 C   0  0  0  0  0  0  0  0  0  0  0  0
    1.6494    3.9511   -4.5653 C   0  0  0  0  0  0  0  0  0  0  0  0
    0.2629    3.8519   -4.5236 C   0  0  0  0  0  0  0  0  0  0  0  0
   -0.2714    3.9636   -3.2334 C   0  0  0  0  0  0  0  0  0  0  0  0
   -1.6462    3.5243   -2.9509 C   0  0  0  0  0  0  0  0  0  0  0  0
   -2.7030    4.4470   -2.9111 C   0  0  0  0  0  0  0  0  0  0  0  0
   -4.0033    4.0090   -2.6250 C   0  0  0  0  0  0  0  0  0  0  0  0
   -4.2528    2.6496   -2.3949 C   0  0  0  0  0  0  0  0  0  0  0  0
   -3.2041    1.7279   -2.4560 C   0  0  0  0  0  0  0  0  0  0  0  0
   -1.9048    2.1625   -2.7281 C   0  0  0  0  0  0  0  0  0  0  0  0
    0.7032    4.1843   -2.2482 C   0  0  0  0  0  0  0  0  0  0  0  0
    2.2090    4.2258   -3.0100 S   0  0  0  0  0  0  0  0  0  0  0  0
    0.4927    4.0396   -0.7969 C   0  0  0  0  0  0  0  0  0  0  0  0
    1.2558    3.2495    0.0826 C   0  0  0  0  0  0  0  0  0  0  0  0
    2.5471    2.6742   -0.2037 N   0  0  0  0  0  0  0  0  0  0  0  0
    2.6747    1.5648   -1.1179 C   0  0  0  0  0  0  0  0  0  0  0  0
    3.8008    1.4701   -1.9599 C   0  0  0  0  0  0  0  0  0  0  0  0
    3.9951    0.3429   -2.7631 C   0  0  0  0  0  0  0  0  0  0  0  0
    3.0787   -0.7143   -2.7154 C   0  0  0  0  0  0  0  0  0  0  0  0
    3.3880   -2.1951   -3.6822 S   0  0  0  0  0  0  0  0  0  0  0  0
    4.4154   -2.9614   -2.3930 C   0  0  0  0  0  0  0  0  0  0  0  0
    1.9346   -0.6126   -1.9144 C   0  0  0  0  0  0  0  0  0  0  0  0
    1.7246    0.5265   -1.1332 C   0  0  0  0  0  0  0  0  0  0  0  0
    3.6724    3.0817    0.6172 C   0  0  0  0  0  0  0  0  0  0  0  0
    4.6657    2.1568    0.9948 C   0  0  0  0  0  0  0  0  0  0  0  0
    5.7211    2.5499    1.8242 C   0  0  0  0  0  0  0  0  0  0  0  0
    5.7763    3.8583    2.3200 C   0  0  0  0  0  0  0  0  0  0  0  0
    7.1273    4.3592    3.3843 S   0  0  0  0  0  0  0  0  0  0  0  0
    8.0954    5.0777    2.0174 C   0  0  0  0  0  0  0  0  0  0  0  0
    4.7765    4.7762    1.9772 C   0  0  0  0  0  0  0  0  0  0  0  0
    3.7345    4.3938    1.1324 C   0  0  0  0  0  0  0  0  0  0  0  0
    0.6064    3.0592    1.3030 C   0  0  0  0  0  0  0  0  0  0  0  0
    0.6997    1.7936    2.3859 S   0  0  0  0  0  0  0  0  0  0  0  0
   -0.8600    2.0245    3.0310 C   0  0  0  0  0  0  0  0  0  0  0  0
   -1.4391    3.1448    2.4075 C   0  0  0  0  0  0  0  0  0  0  0  0
   -2.8026    3.5622    2.5722 N   0  0  0  0  0  0  0  0  0  0  0  0
   -3.0522    4.8989    3.0345 C   0  0  0  0  0  0  0  0  0  0  0  0
   -3.5433    5.8682    2.1496 C   0  0  0  0  0  0  0  0  0  0  0  0
   -3.7506    7.1800    2.5883 C   0  0  0  0  0  0  0  0  0  0  0  0
   -3.4695    7.5321    3.9130 C   0  0  0  0  0  0  0  0  0  0  0  0
   -3.7108    9.2229    4.4665 S   0  0  0  0  0  0  0  0  0  0  0  0
   -2.0109    9.7278    4.0486 C   0  0  0  0  0  0  0  0  0  0  0  0
   -2.9875    6.5605    4.8026 C   0  0  0  0  0  0  0  0  0  0  0  0
   -2.7448    5.2616    4.3553 C   0  0  0  0  0  0  0  0  0  0  0  0
   -3.9032    2.6793    2.2789 C   0  0  0  0  0  0  0  0  0  0  0  0
   -3.8367    1.7954    1.1894 C   0  0  0  0  0  0  0  0  0  0  0  0
   -4.8745    0.8936    0.9432 C   0  0  0  0  0  0  0  0  0  0  0  0
   -5.9911    0.8660    1.7849 C   0  0  0  0  0  0  0  0  0  0  0  0
   -7.3148   -0.3056    1.4730 S   0  0  0  0  0  0  0  0  0  0  0  0
   -6.6858   -1.5219    2.6730 C   0  0  0  0  0  0  0  0  0  0  0  0
   -6.0796    1.7613    2.8592 C   0  0  0  0  0  0  0  0  0  0  0  0
   -5.0389    2.6605    3.1097 C   0  0  0  0  0  0  0  0  0  0  0  0
   -0.6011    3.6703    1.4236 C   0  0  0  0  0  0  0  0  0  0  0  0
   -0.9539    4.4813   -0.0016 S   0  0  0  0  0  0  0  0  0  0  0  0
   -1.6389    0.9097    3.5983 C   0  0  0  0  0  0  0  0  0  0  0  0
   -2.2335    0.9725    4.8669 C   0  0  0  0  0  0  0  0  0  0  0  0
   -2.9808   -0.1136    5.3867 C   0  0  0  0  0  0  0  0  0  0  0  0
   -3.4918    0.0829    6.7071 N   0  0  0  0  0  0  0  0  0  0  0  0
   -2.9344    1.5523    7.0100 S   0  0  0  0  0  4  0  0  0  0  0  0
   -2.1035    2.0856    5.7575 N   0  0  0  0  0  0  0  0  0  0  0  0
   -3.1489   -1.2920    4.6482 C   0  0  0  0  0  0  0  0  0  0  0  0
   -2.6005   -1.3472    3.3606 C   0  0  0  0  0  0  0  0  0  0  0  0
   -2.7329   -2.4353    2.5542 N   0  0  0  0  0  0  0  0  0  0  0  0
   -1.8967   -1.9279    1.2227 S   0  0  0  0  0  0  0  0  0  0  0  0
   -1.3486   -0.4139    1.5801 N   0  0  0  0  0  0  0  0  0  0  0  0
   -1.8448   -0.2566    2.8371 C   0  0  0  0  0  0  0  0  0  0  0  0
   -3.7485   -2.5004    5.2305 C   0  0  0  0  0  0  0  0  0  0  0  0
   -2.9826   -3.4143    5.8544 C   0  0  0  0  0  0  0  0  0  0  0  0
   -1.5578   -3.2425    6.1591 C   0  0  0  0  0  0  0  0  0  0  0  0
   -0.9736   -2.1510    6.3979 O   0  0  0  0  0  0  0  0  0  0  0  0
   -0.9149   -4.5354    6.1335 C   0  0  0  0  0  0  0  0  0  0  0  0
    0.4749   -4.7887    6.1268 C   0  0  0  0  0  0  0  0  0  0  0  0
    0.8038   -6.0986    5.8400 C   0  0  0  0  0  0  0  0  0  0  0  0
   -0.1722   -7.1085    5.5548 C   0  0  0  0  0  0  0  0  0  0  0  0
   -1.5380   -6.8693    5.5726 C   0  0  0  0  0  0  0  0  0  0  0  0
   -1.8983   -5.5303    5.9001 C   0  0  0  0  0  0  0  0  0  0  0  0
   -3.2383   -4.8856    5.8679 C   0  0  0  0  0  0  0  0  0  0  0  0
   -4.4410   -5.4984    6.0011 C   0  0  0  0  0  0  0  0  0  0  0  0
   -4.5632   -6.9250    6.1415 C   0  0  0  0  0  0  0  0  0  0  0  0
   -4.6745   -8.0715    6.2615 N   0  0  0  0  0  0  0  0  0  0  0  0
   -5.6668   -4.7514    6.1410 C   0  0  0  0  0  0  0  0  0  0  0  0
   -6.6535   -4.1568    6.2566 N   0  0  0  0  0  0  0  0  0  0  0  0
    0.9161   -8.0943    5.2527 C   0  0  0  0  0  0  0  0  0  0  0  0
    1.1738   -8.4029    3.7454 C   0  0  0  0  0  0  0  0  0  0  0  0
    2.5221   -9.0830    3.6836 C   0  0  0  0  0  0  0  0  0  0  0  0
    3.4309   -8.1434    3.9735 C   0  0  0  0  0  0  0  0  0  0  0  0
    2.6659   -6.8644    4.2101 C   0  0  0  0  0  0  0  0  0  0  0  0
    1.5710   -7.0527    3.1763 C   0  0  0  0  0  0  0  0  0  0  0  0
    1.9127   -7.0622    5.5571 C   0  0  0  0  0  0  0  0  0  0  0  0
    3.0729    4.1585   -6.2051 H   0  0  0  0  0  0  0  0  0  0  0  0
   -0.1797   -1.1834   -5.5317 H   0  0  0  0  0  0  0  0  0  0  0  0
    2.4276   -0.0478   -9.7729 H   0  0  0  0  0  0  0  0  0  0  0  0
   -0.3881   -1.9733  -10.3597 H   0  0  0  0  0  0  0  0  0  0  0  0
    1.3628   -3.7566  -10.9769 H   0  0  0  0  0  0  0  0  0  0  0  0
    3.1499   -4.0074   -9.0282 H   0  0  0  0  0  0  0  0  0  0  0  0
    1.8807   -4.6173   -6.8306 H   0  0  0  0  0  0  0  0  0  0  0  0
   -0.7122   -4.7882   -7.3929 H   0  0  0  0  0  0  0  0  0  0  0  0
   -0.9904   -4.6050  -10.0425 H   0  0  0  0  0  0  0  0  0  0  0  0
    0.3395   -5.7734   -9.6118 H   0  0  0  0  0  0  0  0  0  0  0  0
   -1.5611   -2.5592   -8.3993 H   0  0  0  0  0  0  0  0  0  0  0  0
   -0.3340    3.5583   -5.3785 H   0  0  0  0  0  0  0  0  0  0  0  0
   -2.5219    5.4997   -3.0956 H   0  0  0  0  0  0  0  0  0  0  0  0
   -4.8201    4.7172   -2.5805 H   0  0  0  0  0  0  0  0  0  0  0  0
   -5.2567    2.3105   -2.1750 H   0  0  0  0  0  0  0  0  0  0  0  0
   -3.3964    0.6741   -2.2939 H   0  0  0  0  0  0  0  0  0  0  0  0
   -1.0962    1.4392   -2.7557 H   0  0  0  0  0  0  0  0  0  0  0  0
    4.5351    2.2637   -1.9744 H   0  0  0  0  0  0  0  0  0  0  0  0
    4.8711    0.2809   -3.3934 H   0  0  0  0  0  0  0  0  0  0  0  0
    3.8157   -3.1281   -1.4680 H   0  0  0  0  0  0  0  0  0  0  0  0
    4.7840   -3.9434   -2.7612 H   0  0  0  0  0  0  0  0  0  0  0  0
    5.2884   -2.3171   -2.1530 H   0  0  0  0  0  0  0  0  0  0  0  0
    1.2145   -1.4234   -1.8885 H   0  0  0  0  0  0  0  0  0  0  0  0
    0.8495    0.5761   -0.4986 H   0  0  0  0  0  0  0  0  0  0  0  0
    4.6100    1.1252    0.6847 H   0  0  0  0  0  0  0  0  0  0  0  0
    6.4510    1.8186    2.1329 H   0  0  0  0  0  0  0  0  0  0  0  0
    7.5486    5.9425    1.5771 H   0  0  0  0  0  0  0  0  0  0  0  0
    8.2873    4.3154    1.2295 H   0  0  0  0  0  0  0  0  0  0  0  0
    9.0695    5.4397    2.4121 H   0  0  0  0  0  0  0  0  0  0  0  0
    4.7935    5.7836    2.3773 H   0  0  0  0  0  0  0  0  0  0  0  0
    2.9693    5.1185    0.8831 H   0  0  0  0  0  0  0  0  0  0  0  0
   -3.7391    5.6077    1.1159 H   0  0  0  0  0  0  0  0  0  0  0  0
   -4.1025    7.9287    1.8924 H   0  0  0  0  0  0  0  0  0  0  0  0
   -1.8661   10.7825    4.3520 H   0  0  0  0  0  0  0  0  0  0  0  0
   -1.8412    9.6374    2.9525 H   0  0  0  0  0  0  0  0  0  0  0  0
   -1.2796    9.0918    4.5973 H   0  0  0  0  0  0  0  0  0  0  0  0
   -2.7622    6.8277    5.8293 H   0  0  0  0  0  0  0  0  0  0  0  0
   -2.3471    4.5318    5.0428 H   0  0  0  0  0  0  0  0  0  0  0  0
   -2.9748    1.8000    0.5358 H   0  0  0  0  0  0  0  0  0  0  0  0
   -4.8005    0.2149    0.1035 H   0  0  0  0  0  0  0  0  0  0  0  0
   -5.6775   -1.8649    2.3573 H   0  0  0  0  0  0  0  0  0  0  0  0
   -7.3728   -2.3946    2.6989 H   0  0  0  0  0  0  0  0  0  0  0  0
   -6.6416   -1.0759    3.6899 H   0  0  0  0  0  0  0  0  0  0  0  0
   -6.9428    1.7472    3.5087 H   0  0  0  0  0  0  0  0  0  0  0  0
   -5.1040    3.3230    3.9686 H   0  0  0  0  0  0  0  0  0  0  0  0
   -4.7107   -2.7819    4.8278 H   0  0  0  0  0  0  0  0  0  0  0  0
    1.2215   -4.0165    6.2551 H   0  0  0  0  0  0  0  0  0  0  0  0
   -2.2370   -7.6321    5.2731 H   0  0  0  0  0  0  0  0  0  0  0  0
    0.9280   -8.9718    5.9367 H   0  0  0  0  0  0  0  0  0  0  0  0
    0.3541   -8.9295    3.2112 H   0  0  0  0  0  0  0  0  0  0  0  0
    2.7321  -10.1005    3.3780 H   0  0  0  0  0  0  0  0  0  0  0  0
    4.5082   -8.2627    3.9444 H   0  0  0  0  0  0  0  0  0  0  0  0
    3.2604   -5.9316    4.1262 H   0  0  0  0  0  0  0  0  0  0  0  0
    1.9603   -7.0987    2.1285 H   0  0  0  0  0  0  0  0  0  0  0  0
    0.7697   -6.2825    3.2143 H   0  0  0  0  0  0  0  0  0  0  0  0
    2.5532   -7.2789    6.4442 H   0  0  0  0  0  0  0  0  0  0  0  0
  1  2  2  3
  2  3  1  0
  3  4  2  0
  3  5  1  0
  5  6  2  0
  6  7  1  0
  7  8  2  0
  8  9  1  0
  9 10  2  0
 10 11  1  0
 11 12  2  3
 12 13  1  0
 13 14  3  0
 12 15  1  0
 15 16  3  0
  8 17  1  0
 17 18  1  0
 18 19  1  0
 19 20  2  0
 20 21  1  0
 21 22  1  0
 21 23  1  0
  1 24  1  0
 24 25  2  0
 25 26  1  0
 26 27  1  0
 27 28  2  0
 28 29  1  0
 29 30  2  0
 30 31  1  0
 31 32  2  0
 26 33  2  0
 33 34  1  0
 33 35  1  0
 35 36  2  0
 36 37  1  0
 37 38  1  0
 38 39  2  0
 39 40  1  0
 40 41  2  0
 41 42  1  0
 42 43  1  0
 41 44  1  0
 44 45  2  0
 37 46  1  0
 46 47  2  0
 47 48  1  0
 48 49  2  0
 49 50  1  0
 50 51  1  0
 49 52  1  0
 52 53  2  0
 36 54  1  0
 54 55  1  0
 55 56  1  0
 56 57  2  0
 57 58  1  0
 58 59  1  0
 59 60  2  0
 60 61  1  0
 61 62  2  0
 62 63  1  0
 63 64  1  0
 62 65  1  0
 65 66  2  0
 58 67  1  0
 67 68  2  0
 68 69  1  0
 69 70  2  0
 70 71  1  0
 71 72  1  0
 70 73  1  0
 73 74  2  0
 57 75  1  0
 75 76  1  0
 56 77  1  0
 77 78  2  0
 78 79  1  0
 79 80  1  0
 80 81  2  0
 81 82  2  0
 79 83  2  0
 83 84  1  0
 84 85  2  0
 85 86  1  0
 86 87  1  0
 87 88  2  0
 83 89  1  0
 89 90  2  3
 90 91  1  0
 91 92  2  0
 91 93  1  0
 93 94  2  0
 94 95  1  0
 95 96  2  0
 96 97  1  0
 97 98  2  0
 98 99  1  0
 99100  2  3
100101  1  0
101102  3  0
100103  1  0
103104  3  0
 96105  1  0
105106  1  0
106107  1  0
107108  2  0
108109  1  0
109110  1  0
109111  1  0
 11  2  1  0
 23 17  1  0
 34 24  1  0
 76 35  1  0
 88 77  1  0
 99 90  1  0
111105  1  0
 10  5  1  0
 22 18  1  0
 32 27  1  0
 45 38  1  0
 53 46  1  0
 75 54  2  0
 82 78  1  0
 88 84  1  0
 98 93  1  0
110106  1  0
 23  7  1  0
 66 59  1  0
 74 67  1  0
111 95  1  0
  1112  1  0
  6113  1  0
  9114  1  0
 17115  1  0
 18116  1  0
 19117  1  0
 20118  1  0
 21119  1  0
 22120  1  0
 22121  1  0
 23122  1  0
 25123  1  0
 28124  1  0
 29125  1  0
 30126  1  0
 31127  1  0
 32128  1  0
 39129  1  0
 40130  1  0
 43131  1  0
 43132  1  0
 43133  1  0
 44134  1  0
 45135  1  0
 47136  1  0
 48137  1  0
 51138  1  0
 51139  1  0
 51140  1  0
 52141  1  0
 53142  1  0
 60143  1  0
 61144  1  0
 64145  1  0
 64146  1  0
 64147  1  0
 65148  1  0
 66149  1  0
 68150  1  0
 69151  1  0
 72152  1  0
 72153  1  0
 72154  1  0
 73155  1  0
 74156  1  0
 89157  1  0
 94158  1  0
 97159  1  0
105160  1  0
106161  1  0
107162  1  0
108163  1  0
109164  1  0
110165  1  0
110166  1  0
111167  1  0
M  END

