
     RDKit          3D

173191  0  0  0  0  0  0  0  0999 V2000
   -2.1576   -2.4336    7.7446 C   0  0  0  0  0  0  0  0  0  0  0  0
   -1.9433   -1.2252    7.1764 C   0  0  0  0  0  0  0  0  0  0  0  0
   -1.1044   -0.9908    5.9881 C   0  0  0  0  0  0  0  0  0  0  0  0
   -0.1393   -1.7003    5.5979 O   0  0  0  0  0  0  0  0  0  0  0  0
   -1.5749    0.1946    5.3135 C   0  0  0  0  0  0  0  0  0  0  0  0
   -1.1785    0.6557    4.0366 C   0  0  0  0  0  0  0  0  0  0  0  0
   -1.9529    1.6919    3.5565 C   0  0  0  0  0  0  0  0  0  0  0  0
   -3.0611    2.2456    4.2752 C   0  0  0  0  0  0  0  0  0  0  0  0
   -3.4412    1.8097    5.5373 C   0  0  0  0  0  0  0  0  0  0  0  0
   -2.6359    0.7595    6.0646 C   0  0  0  0  0  0  0  0  0  0  0  0
   -2.7983   -0.0119    7.3285 C   0  0  0  0  0  0  0  0  0  0  0  0
   -3.3854    0.4143    8.4728 C   0  0  0  0  0  0  0  0  0  0  0  0
   -3.2356   -0.3078    9.7128 C   0  0  0  0  0  0  0  0  0  0  0  0
   -3.1116   -0.8865   10.7088 N   0  0  0  0  0  0  0  0  0  0  0  0
   -4.0462    1.6879    8.5669 C   0  0  0  0  0  0  0  0  0  0  0  0
   -4.5763    2.7147    8.6522 N   0  0  0  0  0  0  0  0  0  0  0  0
   -3.3784    3.1449    3.1155 C   0  0  0  0  0  0  0  0  0  0  0  0
   -4.5920    2.7697    2.2062 C   0  0  0  0  0  0  0  0  0  0  0  0
   -4.7722    1.2685    2.1755 C   0  0  0  0  0  0  0  0  0  0  0  0
   -3.7295    0.7703    1.5128 C   0  0  0  0  0  0  0  0  0  0  0  0
   -2.8679    1.9480    1.1216 C   0  0  0  0  0  0  0  0  0  0  0  0
   -3.9624    2.9587    0.8356 C   0  0  0  0  0  0  0  0  0  0  0  0
   -2.2326    2.5915    2.3898 C   0  0  0  0  0  0  0  0  0  0  0  0
   -1.5953   -3.6517    7.1415 C   0  0  0  0  0  0  0  0  0  0  0  0
   -2.2325   -4.1627    5.9939 C   0  0  0  0  0  0  0  0  0  0  0  0
   -1.4737   -4.9054    5.0810 C   0  0  0  0  0  0  0  0  0  0  0  0
   -1.7555   -5.0632    3.7622 N   0  0  0  0  0  0  0  0  0  0  0  0
   -3.0298   -4.7357    3.1051 C   0  0  0  0  0  0  0  0  0  0  0  0
   -4.1073   -5.7333    3.5114 C   0  0  0  0  0  0  0  0  0  0  0  0
   -0.5581   -5.3378    3.1764 C   0  0  0  0  0  0  0  0  0  0  0  0
    0.4381   -5.4656    4.1298 C   0  0  0  0  0  0  0  0  0  0  0  0
   -0.1464   -5.1887    5.3456 C   0  0  0  0  0  0  0  0  0  0  0  0
    0.4654   -4.8168    6.5442 C   0  0  0  0  0  0  0  0  0  0  0  0
   -0.2747   -4.0416    7.4530 C   0  0  0  0  0  0  0  0  0  0  0  0
    1.7883   -5.4272    3.7943 C   0  0  0  0  0  0  0  0  0  0  0  0
    2.1310   -5.1309    2.4682 C   0  0  0  0  0  0  0  0  0  0  0  0
    1.1293   -4.9055    1.4956 C   0  0  0  0  0  0  0  0  0  0  0  0
   -0.2241   -5.1087    1.8363 C   0  0  0  0  0  0  0  0  0  0  0  0
    1.4232   -4.0236    0.3507 C   0  0  0  0  0  0  0  0  0  0  0  0
    2.5445   -4.0269   -0.5064 C   0  0  0  0  0  0  0  0  0  0  0  0
    3.3383   -5.1842   -0.7983 N   0  0  0  0  0  0  0  0  0  0  0  0
    4.4003   -5.6123    0.0701 C   0  0  0  0  0  0  0  0  0  0  0  0
    5.3141   -4.6846    0.5917 C   0  0  0  0  0  0  0  0  0  0  0  0
    6.3115   -5.1032    1.4767 C   0  0  0  0  0  0  0  0  0  0  0  0
    6.3948   -6.4500    1.8559 C   0  0  0  0  0  0  0  0  0  0  0  0
    7.6306   -6.9765    3.0467 S   0  0  0  0  0  0  0  0  0  0  0  0
    6.5785   -6.6266    4.4837 C   0  0  0  0  0  0  0  0  0  0  0  0
    5.5017   -7.3813    1.3172 C   0  0  0  0  0  0  0  0  0  0  0  0
    4.5081   -6.9657    0.4275 C   0  0  0  0  0  0  0  0  0  0  0  0
    3.0421   -5.9349   -1.9835 C   0  0  0  0  0  0  0  0  0  0  0  0
    4.0236   -6.1072   -2.9729 C   0  0  0  0  0  0  0  0  0  0  0  0
    3.7284   -6.8305   -4.1326 C   0  0  0  0  0  0  0  0  0  0  0  0
    2.4614   -7.3982   -4.3021 C   0  0  0  0  0  0  0  0  0  0  0  0
    2.0639   -8.3087   -5.7950 S   0  0  0  0  0  0  0  0  0  0  0  0
    1.3919   -6.8421   -6.6347 C   0  0  0  0  0  0  0  0  0  0  0  0
    1.4916   -7.2473   -3.3057 C   0  0  0  0  0  0  0  0  0  0  0  0
    1.7727   -6.5042   -2.1567 C   0  0  0  0  0  0  0  0  0  0  0  0
    2.5925   -2.8549   -1.2667 C   0  0  0  0  0  0  0  0  0  0  0  0
    3.7345   -2.1621   -2.2938 S   0  0  0  0  0  0  0  0  0  0  0  0
    2.8643   -0.6973   -2.4489 C   0  0  0  0  0  0  0  0  0  0  0  0
    1.6744   -0.7619   -1.7064 C   0  0  0  0  0  0  0  0  0  0  0  0
    0.7277    0.3175   -1.5616 N   0  0  0  0  0  0  0  0  0  0  0  0
    1.0731    1.5194   -0.8340 C   0  0  0  0  0  0  0  0  0  0  0  0
    0.5085    2.7646   -1.1822 C   0  0  0  0  0  0  0  0  0  0  0  0
    0.8736    3.9297   -0.5063 C   0  0  0  0  0  0  0  0  0  0  0  0
    1.7988    3.8705    0.5381 C   0  0  0  0  0  0  0  0  0  0  0  0
    2.3219    5.3755    1.3655 S   0  0  0  0  0  0  0  0  0  0  0  0
    0.9725    5.3260    2.5864 C   0  0  0  0  0  0  0  0  0  0  0  0
    2.3426    2.6385    0.9178 C   0  0  0  0  0  0  0  0  0  0  0  0
    1.9822    1.4687    0.2409 C   0  0  0  0  0  0  0  0  0  0  0  0
   -0.5613    0.1922   -2.1795 C   0  0  0  0  0  0  0  0  0  0  0  0
   -0.7830    0.7205   -3.4589 C   0  0  0  0  0  0  0  0  0  0  0  0
   -2.0607    0.6861   -4.0248 C   0  0  0  0  0  0  0  0  0  0  0  0
   -3.1259    0.1153   -3.3192 C   0  0  0  0  0  0  0  0  0  0  0  0
   -4.7685    0.0827   -4.0398 S   0  0  0  0  0  0  0  0  0  0  0  0
   -4.5346   -1.5611   -4.7859 C   0  0  0  0  0  0  0  0  0  0  0  0
   -2.9073   -0.4109   -2.0435 C   0  0  0  0  0  0  0  0  0  0  0  0
   -1.6310   -0.3689   -1.4710 C   0  0  0  0  0  0  0  0  0  0  0  0
    1.5742   -1.9810   -1.0534 C   0  0  0  0  0  0  0  0  0  0  0  0
    0.5543   -2.5712    0.1240 S   0  0  0  0  0  0  0  0  0  0  0  0
    3.3193    0.5092   -3.1383 C   0  0  0  0  0  0  0  0  0  0  0  0
    2.7161    0.8350   -4.3681 C   0  0  0  0  0  0  0  0  0  0  0  0
    2.6183    2.1855   -4.7206 C   0  0  0  0  0  0  0  0  0  0  0  0
    1.7534    2.7275   -5.6193 N   0  0  0  0  0  0  0  0  0  0  0  0
    0.9552    2.0323   -6.6417 C   0  0  0  0  0  0  0  0  0  0  0  0
    1.5528    2.2809   -8.0221 C   0  0  0  0  0  0  0  0  0  0  0  0
    1.6913    4.0444   -5.3054 C   0  0  0  0  0  0  0  0  0  0  0  0
    2.5409    4.3473   -4.2618 C   0  0  0  0  0  0  0  0  0  0  0  0
    3.1432    3.1650   -3.8956 C   0  0  0  0  0  0  0  0  0  0  0  0
    3.8765    2.8567   -2.7546 C   0  0  0  0  0  0  0  0  0  0  0  0
    3.9805    1.5070   -2.3853 C   0  0  0  0  0  0  0  0  0  0  0  0
    2.4902    5.5712   -3.5950 C   0  0  0  0  0  0  0  0  0  0  0  0
    1.5053    6.4932   -3.9847 C   0  0  0  0  0  0  0  0  0  0  0  0
    0.5842    6.1616   -5.0045 C   0  0  0  0  0  0  0  0  0  0  0  0
    0.7122    4.9541   -5.7170 C   0  0  0  0  0  0  0  0  0  0  0  0
   -0.6144    6.9912   -5.1926 C   0  0  0  0  0  0  0  0  0  0  0  0
   -1.8274    6.5924   -4.7756 C   0  0  0  0  0  0  0  0  0  0  0  0
   -2.1895    5.3554   -4.0556 C   0  0  0  0  0  0  0  0  0  0  0  0
   -1.4278    4.3950   -3.7738 O   0  0  0  0  0  0  0  0  0  0  0  0
   -3.6022    5.4335   -3.7021 C   0  0  0  0  0  0  0  0  0  0  0  0
   -4.3860    4.5256   -2.9888 C   0  0  0  0  0  0  0  0  0  0  0  0
   -5.7356    4.8472   -2.7552 C   0  0  0  0  0  0  0  0  0  0  0  0
   -6.7309    3.7153   -1.8464 Cl  0  0  0  0  0  0  0  0  0  0  0  0
   -6.2724    6.0699   -3.2345 C   0  0  0  0  0  0  0  0  0  0  0  0
   -7.9456    6.5057   -2.9308 Cl  0  0  0  0  0  0  0  0  0  0  0  0
   -5.4542    6.9665   -3.9485 C   0  0  0  0  0  0  0  0  0  0  0  0
   -4.1220    6.6231   -4.1676 C   0  0  0  0  0  0  0  0  0  0  0  0
   -3.0654    7.3754   -4.8439 C   0  0  0  0  0  0  0  0  0  0  0  0
   -3.2001    8.5043   -5.3904 O   0  0  0  0  0  0  0  0  0  0  0  0
   -2.9392   -2.5666    8.4766 H   0  0  0  0  0  0  0  0  0  0  0  0
   -0.3897    0.1931    3.4581 H   0  0  0  0  0  0  0  0  0  0  0  0
   -4.3194    2.2019    6.0229 H   0  0  0  0  0  0  0  0  0  0  0  0
   -3.2846    4.2289    3.3443 H   0  0  0  0  0  0  0  0  0  0  0  0
   -5.5201    3.3509    2.3924 H   0  0  0  0  0  0  0  0  0  0  0  0
   -5.6154    0.7004    2.5518 H   0  0  0  0  0  0  0  0  0  0  0  0
   -3.5760   -0.2772    1.2649 H   0  0  0  0  0  0  0  0  0  0  0  0
   -2.1675    1.7652    0.2818 H   0  0  0  0  0  0  0  0  0  0  0  0
   -4.6325    2.6591   -0.0054 H   0  0  0  0  0  0  0  0  0  0  0  0
   -3.5861    3.9938    0.6558 H   0  0  0  0  0  0  0  0  0  0  0  0
   -1.4270    3.3322    2.1873 H   0  0  0  0  0  0  0  0  0  0  0  0
   -3.2122   -3.7961    5.7180 H   0  0  0  0  0  0  0  0  0  0  0  0
   -2.9415   -4.7667    2.0022 H   0  0  0  0  0  0  0  0  0  0  0  0
   -3.3451   -3.7010    3.3749 H   0  0  0  0  0  0  0  0  0  0  0  0
   -3.8036   -6.7603    3.2231 H   0  0  0  0  0  0  0  0  0  0  0  0
   -4.2790   -5.7072    4.6084 H   0  0  0  0  0  0  0  0  0  0  0  0
   -5.0601   -5.4849    2.9994 H   0  0  0  0  0  0  0  0  0  0  0  0
    1.5201   -4.9888    6.7118 H   0  0  0  0  0  0  0  0  0  0  0  0
    0.2286   -3.6237    8.3178 H   0  0  0  0  0  0  0  0  0  0  0  0
    2.5556   -5.4569    4.5565 H   0  0  0  0  0  0  0  0  0  0  0  0
    3.1618   -4.8968    2.2615 H   0  0  0  0  0  0  0  0  0  0  0  0
   -0.9848   -4.8762    1.1089 H   0  0  0  0  0  0  0  0  0  0  0  0
    5.2529   -3.6387    0.3149 H   0  0  0  0  0  0  0  0  0  0  0  0
    7.0060   -4.3801    1.8849 H   0  0  0  0  0  0  0  0  0  0  0  0
    5.6675   -7.2582    4.4522 H   0  0  0  0  0  0  0  0  0  0  0  0
    6.2870   -5.5547    4.5011 H   0  0  0  0  0  0  0  0  0  0  0  0
    7.1395   -6.8691    5.4137 H   0  0  0  0  0  0  0  0  0  0  0  0
    5.5692   -8.4251    1.5940 H   0  0  0  0  0  0  0  0  0  0  0  0
    3.8032   -7.6914    0.0397 H   0  0  0  0  0  0  0  0  0  0  0  0
    5.0070   -5.6685   -2.8502 H   0  0  0  0  0  0  0  0  0  0  0  0
    4.4845   -6.9415   -4.9011 H   0  0  0  0  0  0  0  0  0  0  0  0
    0.6121   -6.3731   -5.9962 H   0  0  0  0  0  0  0  0  0  0  0  0
    2.2097   -6.1116   -6.8209 H   0  0  0  0  0  0  0  0  0  0  0  0
    0.9425   -7.1329   -7.6089 H   0  0  0  0  0  0  0  0  0  0  0  0
    0.5106   -7.6906   -3.4315 H   0  0  0  0  0  0  0  0  0  0  0  0
    1.0138   -6.3841   -1.3950 H   0  0  0  0  0  0  0  0  0  0  0  0
   -0.1978    2.8488   -1.9941 H   0  0  0  0  0  0  0  0  0  0  0  0
    0.4445    4.8784   -0.8019 H   0  0  0  0  0  0  0  0  0  0  0  0
   -0.0051    5.4384    2.0751 H   0  0  0  0  0  0  0  0  0  0  0  0
    1.1032    6.1561    3.3077 H   0  0  0  0  0  0  0  0  0  0  0  0
    0.9897    4.3619    3.1395 H   0  0  0  0  0  0  0  0  0  0  0  0
    3.0553    2.5877    1.7273 H   0  0  0  0  0  0  0  0  0  0  0  0
    2.4209    0.5271    0.5473 H   0  0  0  0  0  0  0  0  0  0  0  0
    0.0205    1.2020   -3.9925 H   0  0  0  0  0  0  0  0  0  0  0  0
   -2.2246    1.1262   -5.0001 H   0  0  0  0  0  0  0  0  0  0  0  0
   -5.4919   -1.8832   -5.2469 H   0  0  0  0  0  0  0  0  0  0  0  0
   -4.2342   -2.3066   -4.0177 H   0  0  0  0  0  0  0  0  0  0  0  0
   -3.7554   -1.5100   -5.5770 H   0  0  0  0  0  0  0  0  0  0  0  0
   -3.7290   -0.8352   -1.4804 H   0  0  0  0  0  0  0  0  0  0  0  0
   -1.4915   -0.7418   -0.4678 H   0  0  0  0  0  0  0  0  0  0  0  0
    2.1708    0.0731   -4.9049 H   0  0  0  0  0  0  0  0  0  0  0  0
    0.9209    0.9403   -6.4595 H   0  0  0  0  0  0  0  0  0  0  0  0
   -0.0996    2.3886   -6.6151 H   0  0  0  0  0  0  0  0  0  0  0  0
    2.5559    1.8095   -8.0914 H   0  0  0  0  0  0  0  0  0  0  0  0
    0.8943    1.8357   -8.7950 H   0  0  0  0  0  0  0  0  0  0  0  0
    1.6476    3.3681   -8.2156 H   0  0  0  0  0  0  0  0  0  0  0  0
    4.2483    3.6316   -2.0981 H   0  0  0  0  0  0  0  0  0  0  0  0
    4.4235    1.2588   -1.4288 H   0  0  0  0  0  0  0  0  0  0  0  0
    3.1229    5.7718   -2.7384 H   0  0  0  0  0  0  0  0  0  0  0  0
    1.3915    7.4144   -3.4244 H   0  0  0  0  0  0  0  0  0  0  0  0
   -0.0145    4.6896   -6.4743 H   0  0  0  0  0  0  0  0  0  0  0  0
   -0.4969    7.9821   -5.6138 H   0  0  0  0  0  0  0  0  0  0  0  0
   -3.9634    3.5996   -2.6216 H   0  0  0  0  0  0  0  0  0  0  0  0
   -5.8514    7.9060   -4.3153 H   0  0  0  0  0  0  0  0  0  0  0  0
  1  2  2  3
  2  3  1  0
  3  4  2  0
  3  5  1  0
  5  6  2  0
  6  7  1  0
  7  8  2  0
  8  9  1  0
  9 10  2  0
 10 11  1  0
 11 12  2  3
 12 13  1  0
 13 14  3  0
 12 15  1  0
 15 16  3  0
  8 17  1  0
 17 18  1  0
 18 19  1  0
 19 20  2  0
 20 21  1  0
 21 22  1  0
 21 23  1  0
  1 24  1  0
 24 25  2  0
 25 26  1  0
 26 27  1  0
 27 28  1  0
 28 29  1  0
 27 30  1  0
 30 31  2  0
 31 32  1  0
 32 33  1  0
 33 34  2  0
 31 35  1  0
 35 36  2  0
 36 37  1  0
 37 38  2  0
 37 39  1  0
 39 40  2  0
 40 41  1  0
 41 42  1  0
 42 43  2  0
 43 44  1  0
 44 45  2  0
 45 46  1  0
 46 47  1  0
 45 48  1  0
 48 49  2  0
 41 50  1  0
 50 51  2  0
 51 52  1  0
 52 53  2  0
 53 54  1  0
 54 55  1  0
 53 56  1  0
 56 57  2  0
 40 58  1  0
 58 59  1  0
 59 60  1  0
 60 61  2  0
 61 62  1  0
 62 63  1  0
 63 64  2  0
 64 65  1  0
 65 66  2  0
 66 67  1  0
 67 68  1  0
 66 69  1  0
 69 70  2  0
 62 71  1  0
 71 72  2  0
 72 73  1  0
 73 74  2  0
 74 75  1  0
 75 76  1  0
 74 77  1  0
 77 78  2  0
 61 79  1  0
 79 80  1  0
 60 81  1  0
 81 82  2  0
 82 83  1  0
 83 84  1  0
 84 85  1  0
 85 86  1  0
 84 87  1  0
 87 88  2  0
 88 89  1  0
 89 90  1  0
 90 91  2  0
 88 92  1  0
 92 93  2  0
 93 94  1  0
 94 95  2  0
 94 96  1  0
 96 97  2  3
 97 98  1  0
 98 99  2  0
 98100  1  0
100101  2  0
101102  1  0
102103  1  0
102104  2  0
104105  1  0
104106  1  0
106107  2  0
107108  1  0
108109  2  0
 11  2  1  0
 23 17  1  0
 34 24  1  0
 80 39  1  0
 91 81  1  0
108 97  1  0
 10  5  1  0
 22 18  1  0
 32 26  2  0
 49 42  1  0
 57 50  1  0
 79 58  2  0
 89 83  2  0
107100  1  0
 23  7  1  0
 38 30  1  0
 70 63  1  0
 78 71  1  0
 95 87  1  0
  1110  1  0
  6111  1  0
  9112  1  0
 17113  1  0
 18114  1  0
 19115  1  0
 20116  1  0
 21117  1  0
 22118  1  0
 22119  1  0
 23120  1  0
 25121  1  0
 28122  1  0
 28123  1  0
 29124  1  0
 29125  1  0
 29126  1  0
 33127  1  0
 34128  1  0
 35129  1  0
 36130  1  0
 38131  1  0
 43132  1  0
 44133  1  0
 47134  1  0
 47135  1  0
 47136  1  0
 48137  1  0
 49138  1  0
 51139  1  0
 52140  1  0
 55141  1  0
 55142  1  0
 55143  1  0
 56144  1  0
 57145  1  0
 64146  1  0
 65147  1  0
 68148  1  0
 68149  1  0
 68150  1  0
 69151  1  0
 70152  1  0
 72153  1  0
 73154  1  0
 76155  1  0
 76156  1  0
 76157  1  0
 77158  1  0
 78159  1  0
 82160  1  0
 85161  1  0
 85162  1  0
 86163  1  0
 86164  1  0
 86165  1  0
 90166  1  0
 91167  1  0
 92168  1  0
 93169  1  0
 95170  1  0
 96171  1  0
101172  1  0
106173  1  0
M  END

