
     RDKit          3D

151169  0  0  0  0  0  0  0  0999 V2000
    0.1039    4.2092    6.5498 C   0  0  0  0  0  0  0  0  0  0  0  0
    0.1828    5.5571    6.5440 C   0  0  0  0  0  0  0  0  0  0  0  0
    0.9451    6.3410    5.5567 C   0  0  0  0  0  0  0  0  0  0  0  0
    1.7076    5.8829    4.6621 O   0  0  0  0  0  0  0  0  0  0  0  0
    0.8006    7.7384    5.8459 C   0  0  0  0  0  0  0  0  0  0  0  0
    1.4233    8.8043    5.1548 C   0  0  0  0  0  0  0  0  0  0  0  0
    1.1429   10.0467    5.6773 C   0  0  0  0  0  0  0  0  0  0  0  0
    0.2992   10.2430    6.8175 C   0  0  0  0  0  0  0  0  0  0  0  0
   -0.3001    9.2027    7.5100 C   0  0  0  0  0  0  0  0  0  0  0  0
   -0.0286    7.9002    6.9872 C   0  0  0  0  0  0  0  0  0  0  0  0
   -0.4409    6.5472    7.4901 C   0  0  0  0  0  0  0  0  0  0  0  0
   -1.2915    6.2948    8.5239 C   0  0  0  0  0  0  0  0  0  0  0  0
   -1.9687    7.3325    9.2566 C   0  0  0  0  0  0  0  0  0  0  0  0
   -2.5240    8.1501    9.8600 N   0  0  0  0  0  0  0  0  0  0  0  0
   -1.5909    4.9694    8.9958 C   0  0  0  0  0  0  0  0  0  0  0  0
   -1.8415    3.9093    9.3933 N   0  0  0  0  0  0  0  0  0  0  0  0
    0.5245   11.7227    6.7488 C   0  0  0  0  0  0  0  0  0  0  0  0
    1.4623   12.3299    7.8297 C   0  0  0  0  0  0  0  0  0  0  0  0
    1.8588   13.6970    7.3263 C   0  0  0  0  0  0  0  0  0  0  0  0
    2.6737   13.4953    6.2782 C   0  0  0  0  0  0  0  0  0  0  0  0
    2.7983   11.9997    6.1174 C   0  0  0  0  0  0  0  0  0  0  0  0
    2.7750   11.6027    7.5852 C   0  0  0  0  0  0  0  0  0  0  0  0
    1.4138   11.5148    5.5977 C   0  0  0  0  0  0  0  0  0  0  0  0
    0.5159    3.3838    5.3941 C   0  0  0  0  0  0  0  0  0  0  0  0
    1.4657    2.3484    5.5635 C   0  0  0  0  0  0  0  0  0  0  0  0
    1.9192    1.6748    4.4229 C   0  0  0  0  0  0  0  0  0  0  0  0
    2.9068    0.7450    4.3240 N   0  0  0  0  0  0  0  0  0  0  0  0
    3.5983    0.0601    5.4207 C   0  0  0  0  0  0  0  0  0  0  0  0
    2.8758   -1.2380    5.7635 C   0  0  0  0  0  0  0  0  0  0  0  0
    3.0369    0.5040    2.9936 C   0  0  0  0  0  0  0  0  0  0  0  0
    2.1383    1.2591    2.2684 C   0  0  0  0  0  0  0  0  0  0  0  0
    1.4263    1.9985    3.1746 C   0  0  0  0  0  0  0  0  0  0  0  0
    0.4373    2.9574    2.9817 C   0  0  0  0  0  0  0  0  0  0  0  0
   -0.0323    3.6432    4.1103 C   0  0  0  0  0  0  0  0  0  0  0  0
    2.0940    1.2380    0.8820 C   0  0  0  0  0  0  0  0  0  0  0  0
    3.0092    0.4198    0.2127 C   0  0  0  0  0  0  0  0  0  0  0  0
    3.9542   -0.3651    0.9310 C   0  0  0  0  0  0  0  0  0  0  0  0
    3.9597   -0.3334    2.3472 C   0  0  0  0  0  0  0  0  0  0  0  0
    4.8778   -1.2161    0.1516 C   0  0  0  0  0  0  0  0  0  0  0  0
    5.7926   -2.1597    0.6049 C   0  0  0  0  0  0  0  0  0  0  0  0
    6.2974   -2.7747   -0.5301 C   0  0  0  0  0  0  0  0  0  0  0  0
    5.6637   -2.1599   -1.5940 C   0  0  0  0  0  0  0  0  0  0  0  0
    4.8552   -1.2293   -1.1545 O   0  0  0  0  0  0  0  0  0  0  0  0
    5.6534   -2.5534   -3.0033 C   0  0  0  0  0  0  0  0  0  0  0  0
    4.9586   -3.7123   -3.3519 C   0  0  0  0  0  0  0  0  0  0  0  0
    4.0250   -3.5220   -4.3881 C   0  0  0  0  0  0  0  0  0  0  0  0
    2.9231   -4.3646   -4.6528 C   0  0  0  0  0  0  0  0  0  0  0  0
    2.7621   -5.6621   -3.9734 C   0  0  0  0  0  0  0  0  0  0  0  0
    2.9341   -6.8558   -4.6901 C   0  0  0  0  0  0  0  0  0  0  0  0
    2.7706   -8.0874   -4.0483 C   0  0  0  0  0  0  0  0  0  0  0  0
    2.4318   -8.1345   -2.6905 C   0  0  0  0  0  0  0  0  0  0  0  0
    2.2483   -6.9470   -1.9718 C   0  0  0  0  0  0  0  0  0  0  0  0
    1.8126   -7.0009   -0.2307 S   0  0  0  0  0  0  0  0  0  0  0  0
    0.0191   -6.9533   -0.5616 C   0  0  0  0  0  0  0  0  0  0  0  0
   -0.7377   -6.8131    0.7531 C   0  0  0  0  0  0  0  0  0  0  0  0
    2.4146   -5.7110   -2.6128 C   0  0  0  0  0  0  0  0  0  0  0  0
    1.8697   -3.8170   -5.4010 C   0  0  0  0  0  0  0  0  0  0  0  0
    1.9129   -2.5224   -5.9265 C   0  0  0  0  0  0  0  0  0  0  0  0
    3.0521   -1.7139   -5.7432 C   0  0  0  0  0  0  0  0  0  0  0  0
    3.0008   -0.2594   -5.9917 C   0  0  0  0  0  0  0  0  0  0  0  0
    3.3688    0.2728   -7.2356 C   0  0  0  0  0  0  0  0  0  0  0  0
    3.3897    1.6592   -7.4237 C   0  0  0  0  0  0  0  0  0  0  0  0
    3.0839    2.5181   -6.3587 C   0  0  0  0  0  0  0  0  0  0  0  0
    2.7083    1.9886   -5.1143 C   0  0  0  0  0  0  0  0  0  0  0  0
    2.3592    3.0724   -3.7251 S   0  0  0  0  0  0  0  0  0  0  0  0
    4.0066    2.8356   -2.9690 C   0  0  0  0  0  0  0  0  0  0  0  0
    4.0954    3.5904   -1.6476 C   0  0  0  0  0  0  0  0  0  0  0  0
    2.6387    0.6036   -4.9450 C   0  0  0  0  0  0  0  0  0  0  0  0
    4.0894   -2.2471   -4.9578 C   0  0  0  0  0  0  0  0  0  0  0  0
    5.2576   -1.3660   -4.1364 S   0  0  0  0  0  0  0  0  0  0  0  0
    0.6594   -2.0588   -6.3600 C   0  0  0  0  0  0  0  0  0  0  0  0
   -0.3886   -2.9502   -6.1263 C   0  0  0  0  0  0  0  0  0  0  0  0
    0.2717   -4.3373   -5.4172 S   0  0  0  0  0  0  0  0  0  0  0  0
   -1.7821   -2.4717   -5.9702 C   0  0  0  0  0  0  0  0  0  0  0  0
   -2.8534   -3.2192   -5.6349 C   0  0  0  0  0  0  0  0  0  0  0  0
   -2.9238   -4.6835   -5.5824 C   0  0  0  0  0  0  0  0  0  0  0  0
   -2.2989   -5.4833   -6.3293 O   0  0  0  0  0  0  0  0  0  0  0  0
   -3.9380   -5.0629   -4.6223 C   0  0  0  0  0  0  0  0  0  0  0  0
   -4.2518   -6.3681   -4.1776 C   0  0  0  0  0  0  0  0  0  0  0  0
   -5.2007   -6.4020   -3.1704 C   0  0  0  0  0  0  0  0  0  0  0  0
   -5.7953   -5.2222   -2.6165 C   0  0  0  0  0  0  0  0  0  0  0  0
   -5.5087   -3.9443   -3.0592 C   0  0  0  0  0  0  0  0  0  0  0  0
   -4.5643   -3.8903   -4.1228 C   0  0  0  0  0  0  0  0  0  0  0  0
   -4.0257   -2.7111   -4.8573 C   0  0  0  0  0  0  0  0  0  0  0  0
   -4.5988   -1.4786   -4.9550 C   0  0  0  0  0  0  0  0  0  0  0  0
   -5.7546   -1.0928   -4.1906 C   0  0  0  0  0  0  0  0  0  0  0  0
   -6.6819   -0.7665   -3.5793 N   0  0  0  0  0  0  0  0  0  0  0  0
   -4.1773   -0.5188   -5.9439 C   0  0  0  0  0  0  0  0  0  0  0  0
   -3.8456    0.2484   -6.7435 N   0  0  0  0  0  0  0  0  0  0  0  0
   -6.5860   -6.0535   -1.6524 C   0  0  0  0  0  0  0  0  0  0  0  0
   -8.1048   -6.2023   -1.9525 C   0  0  0  0  0  0  0  0  0  0  0  0
   -8.5823   -7.3670   -1.1175 C   0  0  0  0  0  0  0  0  0  0  0  0
   -8.0499   -8.4697   -1.6614 C   0  0  0  0  0  0  0  0  0  0  0  0
   -7.2240   -8.0094   -2.8400 C   0  0  0  0  0  0  0  0  0  0  0  0
   -8.1186   -6.8743   -3.3165 C   0  0  0  0  0  0  0  0  0  0  0  0
   -5.9938   -7.2625   -2.2346 C   0  0  0  0  0  0  0  0  0  0  0  0
   -0.2587    3.6635    7.3960 H   0  0  0  0  0  0  0  0  0  0  0  0
    2.0858    8.6605    4.3122 H   0  0  0  0  0  0  0  0  0  0  0  0
   -0.8870    9.4170    8.3853 H   0  0  0  0  0  0  0  0  0  0  0  0
   -0.3973   12.3051    6.5214 H   0  0  0  0  0  0  0  0  0  0  0  0
    1.0773   12.2943    8.8705 H   0  0  0  0  0  0  0  0  0  0  0  0
    1.6309   14.6533    7.7799 H   0  0  0  0  0  0  0  0  0  0  0  0
    3.2090   14.2655    5.7385 H   0  0  0  0  0  0  0  0  0  0  0  0
    3.6830   11.6527    5.5345 H   0  0  0  0  0  0  0  0  0  0  0  0
    3.6279   12.0214    8.1674 H   0  0  0  0  0  0  0  0  0  0  0  0
    2.7362   10.5052    7.7590 H   0  0  0  0  0  0  0  0  0  0  0  0
    1.0656   11.9803    4.6478 H   0  0  0  0  0  0  0  0  0  0  0  0
    1.8682    2.1318    6.5450 H   0  0  0  0  0  0  0  0  0  0  0  0
    4.6445   -0.1597    5.1292 H   0  0  0  0  0  0  0  0  0  0  0  0
    3.6407    0.7102    6.3180 H   0  0  0  0  0  0  0  0  0  0  0  0
    2.8502   -1.9052    4.8781 H   0  0  0  0  0  0  0  0  0  0  0  0
    1.8353   -1.0225    6.0844 H   0  0  0  0  0  0  0  0  0  0  0  0
    3.4042   -1.7576    6.5883 H   0  0  0  0  0  0  0  0  0  0  0  0
    0.0581    3.1886    1.9920 H   0  0  0  0  0  0  0  0  0  0  0  0
   -0.7896    4.4063    3.9850 H   0  0  0  0  0  0  0  0  0  0  0  0
    1.3855    1.8456    0.3299 H   0  0  0  0  0  0  0  0  0  0  0  0
    2.9702    0.3937   -0.8719 H   0  0  0  0  0  0  0  0  0  0  0  0
    4.6679   -0.9153    2.9148 H   0  0  0  0  0  0  0  0  0  0  0  0
    6.0193   -2.4229    1.6308 H   0  0  0  0  0  0  0  0  0  0  0  0
    6.9794   -3.6141   -0.5700 H   0  0  0  0  0  0  0  0  0  0  0  0
    4.9301   -4.5668   -2.6900 H   0  0  0  0  0  0  0  0  0  0  0  0
    3.2055   -6.8318   -5.7381 H   0  0  0  0  0  0  0  0  0  0  0  0
    2.9119   -9.0075   -4.6027 H   0  0  0  0  0  0  0  0  0  0  0  0
    2.3027   -9.0948   -2.2052 H   0  0  0  0  0  0  0  0  0  0  0  0
   -0.2271   -6.0872   -1.2151 H   0  0  0  0  0  0  0  0  0  0  0  0
   -0.2891   -7.8934   -1.0709 H   0  0  0  0  0  0  0  0  0  0  0  0
   -0.5098   -7.6771    1.4132 H   0  0  0  0  0  0  0  0  0  0  0  0
   -0.4358   -5.8725    1.2617 H   0  0  0  0  0  0  0  0  0  0  0  0
   -1.8283   -6.7838    0.5532 H   0  0  0  0  0  0  0  0  0  0  0  0
    2.2670   -4.7944   -2.0555 H   0  0  0  0  0  0  0  0  0  0  0  0
    3.6448   -0.3849   -8.0522 H   0  0  0  0  0  0  0  0  0  0  0  0
    3.6724    2.0700   -8.3840 H   0  0  0  0  0  0  0  0  0  0  0  0
    3.1381    3.5888   -6.5031 H   0  0  0  0  0  0  0  0  0  0  0  0
    4.7910    3.2068   -3.6586 H   0  0  0  0  0  0  0  0  0  0  0  0
    4.1772    1.7539   -2.7774 H   0  0  0  0  0  0  0  0  0  0  0  0
    5.0915    3.4072   -1.1903 H   0  0  0  0  0  0  0  0  0  0  0  0
    3.3100    3.2384   -0.9495 H   0  0  0  0  0  0  0  0  0  0  0  0
    3.9776    4.6817   -1.8205 H   0  0  0  0  0  0  0  0  0  0  0  0
    2.3439    0.1959   -3.9841 H   0  0  0  0  0  0  0  0  0  0  0  0
    0.4873   -1.0412   -6.6867 H   0  0  0  0  0  0  0  0  0  0  0  0
   -1.8551   -1.3965   -5.8898 H   0  0  0  0  0  0  0  0  0  0  0  0
   -3.7728   -7.2590   -4.5577 H   0  0  0  0  0  0  0  0  0  0  0  0
   -5.9573   -3.0858   -2.5859 H   0  0  0  0  0  0  0  0  0  0  0  0
   -6.3175   -5.8785   -0.5854 H   0  0  0  0  0  0  0  0  0  0  0  0
   -8.7095   -5.2766   -1.8586 H   0  0  0  0  0  0  0  0  0  0  0  0
   -9.3004   -7.3416   -0.3042 H   0  0  0  0  0  0  0  0  0  0  0  0
   -8.2643   -9.4923   -1.3621 H   0  0  0  0  0  0  0  0  0  0  0  0
   -6.9915   -8.7919   -3.5931 H   0  0  0  0  0  0  0  0  0  0  0  0
   -9.1375   -7.2123   -3.6284 H   0  0  0  0  0  0  0  0  0  0  0  0
   -7.6819   -6.2593   -4.1353 H   0  0  0  0  0  0  0  0  0  0  0  0
   -5.3649   -7.8563   -1.5314 H   0  0  0  0  0  0  0  0  0  0  0  0
  1  2  2  3
  2  3  1  0
  3  4  2  0
  3  5  1  0
  5  6  2  0
  6  7  1  0
  7  8  2  0
  8  9  1  0
  9 10  2  0
 10 11  1  0
 11 12  2  3
 12 13  1  0
 13 14  3  0
 12 15  1  0
 15 16  3  0
  8 17  1  0
 17 18  1  0
 18 19  1  0
 19 20  2  0
 20 21  1  0
 21 22  1  0
 21 23  1  0
  1 24  1  0
 24 25  2  0
 25 26  1  0
 26 27  1  0
 27 28  1  0
 28 29  1  0
 27 30  1  0
 30 31  2  0
 31 32  1  0
 32 33  1  0
 33 34  2  0
 31 35  1  0
 35 36  2  0
 36 37  1  0
 37 38  2  0
 37 39  1  0
 39 40  2  0
 40 41  1  0
 41 42  2  0
 42 43  1  0
 42 44  1  0
 44 45  2  0
 45 46  1  0
 46 47  2  0
 47 48  1  0
 48 49  2  0
 49 50  1  0
 50 51  2  0
 51 52  1  0
 52 53  1  0
 53 54  1  0
 54 55  1  0
 52 56  2  0
 47 57  1  0
 57 58  2  0
 58 59  1  0
 59 60  1  0
 60 61  2  0
 61 62  1  0
 62 63  2  0
 63 64  1  0
 64 65  1  0
 65 66  1  0
 66 67  1  0
 64 68  2  0
 59 69  2  0
 69 70  1  0
 58 71  1  0
 71 72  2  0
 72 73  1  0
 72 74  1  0
 74 75  2  3
 75 76  1  0
 76 77  2  0
 76 78  1  0
 78 79  2  0
 79 80  1  0
 80 81  2  0
 81 82  1  0
 82 83  2  0
 83 84  1  0
 84 85  2  3
 85 86  1  0
 86 87  3  0
 85 88  1  0
 88 89  3  0
 81 90  1  0
 90 91  1  0
 91 92  1  0
 92 93  2  0
 93 94  1  0
 94 95  1  0
 94 96  1  0
 11  2  1  0
 23 17  1  0
 34 24  1  0
 43 39  1  0
 70 44  1  0
 84 75  1  0
 96 90  1  0
 10  5  1  0
 22 18  1  0
 32 26  2  0
 69 46  1  0
 83 78  1  0
 95 91  1  0
 23  7  1  0
 38 30  1  0
 56 48  1  0
 73 57  1  0
 96 80  1  0
 68 60  1  0
  1 97  1  0
  6 98  1  0
  9 99  1  0
 17100  1  0
 18101  1  0
 19102  1  0
 20103  1  0
 21104  1  0
 22105  1  0
 22106  1  0
 23107  1  0
 25108  1  0
 28109  1  0
 28110  1  0
 29111  1  0
 29112  1  0
 29113  1  0
 33114  1  0
 34115  1  0
 35116  1  0
 36117  1  0
 38118  1  0
 40119  1  0
 41120  1  0
 45121  1  0
 49122  1  0
 50123  1  0
 51124  1  0
 54125  1  0
 54126  1  0
 55127  1  0
 55128  1  0
 55129  1  0
 56130  1  0
 61131  1  0
 62132  1  0
 63133  1  0
 66134  1  0
 66135  1  0
 67136  1  0
 67137  1  0
 67138  1  0
 68139  1  0
 71140  1  0
 74141  1  0
 79142  1  0
 82143  1  0
 90144  1  0
 91145  1  0
 92146  1  0
 93147  1  0
 94148  1  0
 95149  1  0
 95150  1  0
 96151  1  0
M  END

