
     RDKit          3D

180198  0  0  0  0  0  0  0  0999 V2000
    4.9814   -1.9930    7.1928 C   0  0  0  0  0  0  0  0  0  0  0  0
    6.2020   -2.3487    6.7627 C   0  0  0  0  0  0  0  0  0  0  0  0
    7.3619   -1.4665    6.9053 C   0  0  0  0  0  0  0  0  0  0  0  0
    7.5137   -0.5818    7.7916 O   0  0  0  0  0  0  0  0  0  0  0  0
    8.2264   -1.6616    5.7548 C   0  0  0  0  0  0  0  0  0  0  0  0
    9.3069   -0.8444    5.3402 C   0  0  0  0  0  0  0  0  0  0  0  0
    9.7936   -1.1558    4.0798 C   0  0  0  0  0  0  0  0  0  0  0  0
    9.2545   -2.2070    3.2713 C   0  0  0  0  0  0  0  0  0  0  0  0
    8.1936   -2.9985    3.6602 C   0  0  0  0  0  0  0  0  0  0  0  0
    7.6885   -2.7044    4.9540 C   0  0  0  0  0  0  0  0  0  0  0  0
    6.4973   -3.2616    5.6247 C   0  0  0  0  0  0  0  0  0  0  0  0
    5.9771   -4.5009    5.4556 C   0  0  0  0  0  0  0  0  0  0  0  0
    5.0486   -5.0603    6.4025 C   0  0  0  0  0  0  0  0  0  0  0  0
    4.3110   -5.5260    7.1646 N   0  0  0  0  0  0  0  0  0  0  0  0
    6.4683   -5.4150    4.4573 C   0  0  0  0  0  0  0  0  0  0  0  0
    6.8617   -6.1566    3.6613 N   0  0  0  0  0  0  0  0  0  0  0  0
   10.1917   -1.8575    2.1569 C   0  0  0  0  0  0  0  0  0  0  0  0
    9.5919   -1.1157    0.9244 C   0  0  0  0  0  0  0  0  0  0  0  0
    8.4233   -0.2564    1.3524 C   0  0  0  0  0  0  0  0  0  0  0  0
    8.9252    0.7304    2.0958 C   0  0  0  0  0  0  0  0  0  0  0  0
   10.4205    0.5078    2.1510 C   0  0  0  0  0  0  0  0  0  0  0  0
   10.6349   -0.0302    0.7474 C   0  0  0  0  0  0  0  0  0  0  0  0
   10.7425   -0.7756    2.9786 C   0  0  0  0  0  0  0  0  0  0  0  0
    3.8196   -2.1403    6.3103 C   0  0  0  0  0  0  0  0  0  0  0  0
    2.6596   -2.8616    6.5530 C   0  0  0  0  0  0  0  0  0  0  0  0
    1.7820   -2.8745    5.4456 C   0  0  0  0  0  0  0  0  0  0  0  0
    0.5968   -3.6183    5.3993 O   0  0  0  0  0  0  0  0  0  0  0  0
    0.1154   -4.4086    6.4801 C   0  0  0  0  0  0  0  0  0  0  0  0
    2.2241   -2.0946    4.3724 C   0  0  0  0  0  0  0  0  0  0  0  0
    3.7321   -1.4740    4.7758 S   0  0  0  0  0  0  0  0  0  0  0  0
    1.5919   -1.8535    3.0586 C   0  0  0  0  0  0  0  0  0  0  0  0
    0.2228   -1.8611    2.7191 C   0  0  0  0  0  0  0  0  0  0  0  0
   -0.8374   -1.7872    3.6872 N   0  0  0  0  0  0  0  0  0  0  0  0
   -1.0319   -0.5160    4.3334 C   0  0  0  0  0  0  0  0  0  0  0  0
   -1.7050    0.5187    3.6676 C   0  0  0  0  0  0  0  0  0  0  0  0
   -1.8323    1.7782    4.2590 C   0  0  0  0  0  0  0  0  0  0  0  0
   -1.2871    2.0133    5.5244 C   0  0  0  0  0  0  0  0  0  0  0  0
   -1.4298    3.6320    6.2811 S   0  0  0  0  0  0  0  0  0  0  0  0
    0.0626    4.2719    5.4603 C   0  0  0  0  0  0  0  0  0  0  0  0
   -0.6383    0.9783    6.2075 C   0  0  0  0  0  0  0  0  0  0  0  0
   -0.5209   -0.2841    5.6203 C   0  0  0  0  0  0  0  0  0  0  0  0
   -1.7803   -2.8742    3.8610 C   0  0  0  0  0  0  0  0  0  0  0  0
   -1.5599   -4.1226    3.2441 C   0  0  0  0  0  0  0  0  0  0  0  0
   -2.4135   -5.1995    3.4882 C   0  0  0  0  0  0  0  0  0  0  0  0
   -3.5159   -5.0441    4.3311 C   0  0  0  0  0  0  0  0  0  0  0  0
   -4.5888   -6.4384    4.6719 S   0  0  0  0  0  0  0  0  0  0  0  0
   -5.6826   -6.0919    3.2626 C   0  0  0  0  0  0  0  0  0  0  0  0
   -3.7635   -3.8069    4.9315 C   0  0  0  0  0  0  0  0  0  0  0  0
   -2.9027   -2.7305    4.7026 C   0  0  0  0  0  0  0  0  0  0  0  0
    0.0390   -1.4486    1.3939 C   0  0  0  0  0  0  0  0  0  0  0  0
   -1.3109   -1.1194    0.4575 S   0  0  0  0  0  0  0  0  0  0  0  0
   -0.4319   -0.3084   -0.7561 C   0  0  0  0  0  0  0  0  0  0  0  0
    0.9328   -0.2368   -0.4056 C   0  0  0  0  0  0  0  0  0  0  0  0
    1.8137    0.8548   -0.7967 N   0  0  0  0  0  0  0  0  0  0  0  0
    2.6158    1.4854    0.2240 C   0  0  0  0  0  0  0  0  0  0  0  0
    4.0077    1.5709    0.0803 C   0  0  0  0  0  0  0  0  0  0  0  0
    4.7918    2.0725    1.1253 C   0  0  0  0  0  0  0  0  0  0  0  0
    4.1903    2.4900    2.3192 C   0  0  0  0  0  0  0  0  0  0  0  0
    5.2023    3.0684    3.6797 S   0  0  0  0  0  0  0  0  0  0  0  0
    4.9992    4.8228    3.2401 C   0  0  0  0  0  0  0  0  0  0  0  0
    2.7979    2.4405    2.4534 C   0  0  0  0  0  0  0  0  0  0  0  0
    2.0128    1.9606    1.4012 C   0  0  0  0  0  0  0  0  0  0  0  0
    1.6613    1.5611   -2.0459 C   0  0  0  0  0  0  0  0  0  0  0  0
    1.6851    0.8746   -3.2689 C   0  0  0  0  0  0  0  0  0  0  0  0
    1.4943    1.5701   -4.4699 C   0  0  0  0  0  0  0  0  0  0  0  0
    1.3505    2.9594   -4.4667 C   0  0  0  0  0  0  0  0  0  0  0  0
    1.1267    3.8484   -6.0064 S   0  0  0  0  0  0  0  0  0  0  0  0
    2.9095    3.9884   -6.3304 C   0  0  0  0  0  0  0  0  0  0  0  0
    1.3731    3.6565   -3.2559 C   0  0  0  0  0  0  0  0  0  0  0  0
    1.5101    2.9616   -2.0520 C   0  0  0  0  0  0  0  0  0  0  0  0
    1.1527   -0.9953    0.7566 C   0  0  0  0  0  0  0  0  0  0  0  0
    2.4778   -1.2328    1.7497 S   0  0  0  0  0  0  0  0  0  0  0  0
   -0.9913   -0.0549   -2.0816 C   0  0  0  0  0  0  0  0  0  0  0  0
   -0.9369   -0.9533   -3.1357 C   0  0  0  0  0  0  0  0  0  0  0  0
   -1.6343   -0.5180   -4.2722 C   0  0  0  0  0  0  0  0  0  0  0  0
   -1.8405   -1.4005   -5.4435 C   0  0  0  0  0  0  0  0  0  0  0  0
   -3.1374   -1.8725   -5.7353 C   0  0  0  0  0  0  0  0  0  0  0  0
   -4.1757   -1.5829   -4.8360 O   0  0  0  0  0  0  0  0  0  0  0  0
   -5.5380   -1.9534   -5.0194 C   0  0  0  0  0  0  0  0  0  0  0  0
   -6.3515   -1.4689   -3.8322 C   0  0  0  0  0  0  0  0  0  0  0  0
   -3.3543   -2.6314   -6.8969 C   0  0  0  0  0  0  0  0  0  0  0  0
   -2.2898   -2.9606   -7.7332 C   0  0  0  0  0  0  0  0  0  0  0  0
   -0.9950   -2.5681   -7.4018 C   0  0  0  0  0  0  0  0  0  0  0  0
   -0.7479   -1.8130   -6.2385 C   0  0  0  0  0  0  0  0  0  0  0  0
    0.5614   -1.4873   -5.8456 O   0  0  0  0  0  0  0  0  0  0  0  0
    1.7330   -2.0000   -6.4820 C   0  0  0  0  0  0  0  0  0  0  0  0
    2.9731   -1.6713   -5.6635 C   0  0  0  0  0  0  0  0  0  0  0  0
   -2.2183    0.7519   -4.1187 C   0  0  0  0  0  0  0  0  0  0  0  0
   -1.9292    1.2600   -2.5317 S   0  0  0  0  0  0  0  0  0  0  0  0
   -3.1307    1.3909   -5.0972 C   0  0  0  0  0  0  0  0  0  0  0  0
   -3.4293    2.7009   -5.1920 C   0  0  0  0  0  0  0  0  0  0  0  0
   -2.8884    3.7981   -4.3770 C   0  0  0  0  0  0  0  0  0  0  0  0
   -1.7531    3.8404   -3.8382 O   0  0  0  0  0  0  0  0  0  0  0  0
   -3.8300    4.8990   -4.4058 C   0  0  0  0  0  0  0  0  0  0  0  0
   -3.8033    6.0672   -3.6094 C   0  0  0  0  0  0  0  0  0  0  0  0
   -4.9372    6.8502   -3.7325 C   0  0  0  0  0  0  0  0  0  0  0  0
   -6.0388    6.5059   -4.5827 C   0  0  0  0  0  0  0  0  0  0  0  0
   -6.0624    5.3721   -5.3761 C   0  0  0  0  0  0  0  0  0  0  0  0
   -4.8898    4.5713   -5.2903 C   0  0  0  0  0  0  0  0  0  0  0  0
   -4.5935    3.2673   -5.9389 C   0  0  0  0  0  0  0  0  0  0  0  0
   -5.1124    2.8249   -7.1162 C   0  0  0  0  0  0  0  0  0  0  0  0
   -4.5852    1.6732   -7.8059 C   0  0  0  0  0  0  0  0  0  0  0  0
   -4.1707    0.7471   -8.3639 N   0  0  0  0  0  0  0  0  0  0  0  0
   -6.1259    3.5515   -7.8327 C   0  0  0  0  0  0  0  0  0  0  0  0
   -6.9416    4.1296   -8.4196 N   0  0  0  0  0  0  0  0  0  0  0  0
   -6.8067    7.6983   -4.0981 C   0  0  0  0  0  0  0  0  0  0  0  0
   -7.9562    7.4190   -3.0871 C   0  0  0  0  0  0  0  0  0  0  0  0
   -8.2949    8.7528   -2.4701 C   0  0  0  0  0  0  0  0  0  0  0  0
   -7.2626    9.0843   -1.6871 C   0  0  0  0  0  0  0  0  0  0  0  0
   -6.2613    7.9612   -1.7998 C   0  0  0  0  0  0  0  0  0  0  0  0
   -7.2328    6.7954   -1.9045 C   0  0  0  0  0  0  0  0  0  0  0  0
   -5.6730    8.0577   -3.2371 C   0  0  0  0  0  0  0  0  0  0  0  0
    4.8926   -1.2744    7.9943 H   0  0  0  0  0  0  0  0  0  0  0  0
    9.6785   -0.0047    5.9183 H   0  0  0  0  0  0  0  0  0  0  0  0
    7.7542   -3.7107    2.9812 H   0  0  0  0  0  0  0  0  0  0  0  0
   10.9233   -2.6614    1.9155 H   0  0  0  0  0  0  0  0  0  0  0  0
    9.4051   -1.7529    0.0343 H   0  0  0  0  0  0  0  0  0  0  0  0
    7.3845   -0.3617    1.0529 H   0  0  0  0  0  0  0  0  0  0  0  0
    8.3643    1.5650    2.5016 H   0  0  0  0  0  0  0  0  0  0  0  0
   11.0174    1.4070    2.4129 H   0  0  0  0  0  0  0  0  0  0  0  0
   11.6651   -0.4255    0.5725 H   0  0  0  0  0  0  0  0  0  0  0  0
   10.3800    0.7057   -0.0521 H   0  0  0  0  0  0  0  0  0  0  0  0
   11.8142   -0.9148    3.2341 H   0  0  0  0  0  0  0  0  0  0  0  0
    2.4769   -3.3933    7.4784 H   0  0  0  0  0  0  0  0  0  0  0  0
   -0.0312   -3.7729    7.3775 H   0  0  0  0  0  0  0  0  0  0  0  0
   -0.8603   -4.8497    6.2004 H   0  0  0  0  0  0  0  0  0  0  0  0
    0.8350   -5.2248    6.7093 H   0  0  0  0  0  0  0  0  0  0  0  0
   -2.1310    0.3562    2.6895 H   0  0  0  0  0  0  0  0  0  0  0  0
   -2.3444    2.5705    3.7295 H   0  0  0  0  0  0  0  0  0  0  0  0
   -0.0959    4.3167    4.3651 H   0  0  0  0  0  0  0  0  0  0  0  0
    0.9389    3.6298    5.6848 H   0  0  0  0  0  0  0  0  0  0  0  0
    0.2735    5.2971    5.8316 H   0  0  0  0  0  0  0  0  0  0  0  0
   -0.2276    1.1502    7.1947 H   0  0  0  0  0  0  0  0  0  0  0  0
   -0.0286   -1.0750    6.1662 H   0  0  0  0  0  0  0  0  0  0  0  0
   -0.7078   -4.2813    2.5940 H   0  0  0  0  0  0  0  0  0  0  0  0
   -2.2125   -6.1565    3.0260 H   0  0  0  0  0  0  0  0  0  0  0  0
   -5.1092   -6.1158    2.3117 H   0  0  0  0  0  0  0  0  0  0  0  0
   -6.1602   -5.0994    3.3829 H   0  0  0  0  0  0  0  0  0  0  0  0
   -6.4727   -6.8703    3.2247 H   0  0  0  0  0  0  0  0  0  0  0  0
   -4.6115   -3.6820    5.5923 H   0  0  0  0  0  0  0  0  0  0  0  0
   -3.1081   -1.7933    5.2068 H   0  0  0  0  0  0  0  0  0  0  0  0
    4.4844    1.2145   -0.8250 H   0  0  0  0  0  0  0  0  0  0  0  0
    5.8697    2.1108    1.0173 H   0  0  0  0  0  0  0  0  0  0  0  0
    5.6002    5.4411    3.9391 H   0  0  0  0  0  0  0  0  0  0  0  0
    5.3476    5.0034    2.2016 H   0  0  0  0  0  0  0  0  0  0  0  0
    3.9304    5.1125    3.3337 H   0  0  0  0  0  0  0  0  0  0  0  0
    2.3242    2.7635    3.3736 H   0  0  0  0  0  0  0  0  0  0  0  0
    0.9367    1.9136    1.5195 H   0  0  0  0  0  0  0  0  0  0  0  0
    1.8204   -0.1975   -3.2864 H   0  0  0  0  0  0  0  0  0  0  0  0
    1.4630    1.0333   -5.4087 H   0  0  0  0  0  0  0  0  0  0  0  0
    3.0584    4.5407   -7.2805 H   0  0  0  0  0  0  0  0  0  0  0  0
    3.4047    4.5420   -5.5058 H   0  0  0  0  0  0  0  0  0  0  0  0
    3.3552    2.9785   -6.4285 H   0  0  0  0  0  0  0  0  0  0  0  0
    1.2688    4.7331   -3.2414 H   0  0  0  0  0  0  0  0  0  0  0  0
    1.4851    3.5179   -1.1226 H   0  0  0  0  0  0  0  0  0  0  0  0
   -0.4498   -1.9174   -3.0679 H   0  0  0  0  0  0  0  0  0  0  0  0
   -5.6213   -3.0571   -5.0918 H   0  0  0  0  0  0  0  0  0  0  0  0
   -5.9305   -1.4848   -5.9482 H   0  0  0  0  0  0  0  0  0  0  0  0
   -5.9650   -1.9257   -2.8968 H   0  0  0  0  0  0  0  0  0  0  0  0
   -6.2845   -0.3636   -3.7528 H   0  0  0  0  0  0  0  0  0  0  0  0
   -7.4160   -1.7600   -3.9655 H   0  0  0  0  0  0  0  0  0  0  0  0
   -4.3429   -2.9788   -7.1601 H   0  0  0  0  0  0  0  0  0  0  0  0
   -2.4659   -3.5475   -8.6280 H   0  0  0  0  0  0  0  0  0  0  0  0
   -0.1891   -2.8622   -8.0598 H   0  0  0  0  0  0  0  0  0  0  0  0
    1.6603   -3.1058   -6.5677 H   0  0  0  0  0  0  0  0  0  0  0  0
    1.8341   -1.5574   -7.4960 H   0  0  0  0  0  0  0  0  0  0  0  0
    2.8683   -2.0775   -4.6357 H   0  0  0  0  0  0  0  0  0  0  0  0
    3.1295   -0.5776   -5.6147 H   0  0  0  0  0  0  0  0  0  0  0  0
    3.8647   -2.1300   -6.1398 H   0  0  0  0  0  0  0  0  0  0  0  0
   -3.6724    0.7101   -5.7223 H   0  0  0  0  0  0  0  0  0  0  0  0
   -3.0045    6.2925   -2.9144 H   0  0  0  0  0  0  0  0  0  0  0  0
   -6.9390    5.1083   -5.9433 H   0  0  0  0  0  0  0  0  0  0  0  0
   -7.0355    8.4350   -4.8995 H   0  0  0  0  0  0  0  0  0  0  0  0
   -8.8184    6.8445   -3.4832 H   0  0  0  0  0  0  0  0  0  0  0  0
   -9.2253    9.3013   -2.5591 H   0  0  0  0  0  0  0  0  0  0  0  0
   -7.2115    9.9490   -1.0333 H   0  0  0  0  0  0  0  0  0  0  0  0
   -5.5164    7.9002   -0.9796 H   0  0  0  0  0  0  0  0  0  0  0  0
   -7.8801    6.6767   -1.0023 H   0  0  0  0  0  0  0  0  0  0  0  0
   -6.7524    5.8180   -2.1265 H   0  0  0  0  0  0  0  0  0  0  0  0
   -5.1759    9.0193   -3.4964 H   0  0  0  0  0  0  0  0  0  0  0  0
  1  2  2  3
  2  3  1  0
  3  4  2  0
  3  5  1  0
  5  6  2  0
  6  7  1  0
  7  8  2  0
  8  9  1  0
  9 10  2  0
 10 11  1  0
 11 12  2  3
 12 13  1  0
 13 14  3  0
 12 15  1  0
 15 16  3  0
  8 17  1  0
 17 18  1  0
 18 19  1  0
 19 20  2  0
 20 21  1  0
 21 22  1  0
 21 23  1  0
  1 24  1  0
 24 25  2  0
 25 26  1  0
 26 27  1  0
 27 28  1  0
 26 29  2  0
 29 30  1  0
 29 31  1  0
 31 32  2  0
 32 33  1  0
 33 34  1  0
 34 35  2  0
 35 36  1  0
 36 37  2  0
 37 38  1  0
 38 39  1  0
 37 40  1  0
 40 41  2  0
 33 42  1  0
 42 43  2  0
 43 44  1  0
 44 45  2  0
 45 46  1  0
 46 47  1  0
 45 48  1  0
 48 49  2  0
 32 50  1  0
 50 51  1  0
 51 52  1  0
 52 53  2  0
 53 54  1  0
 54 55  1  0
 55 56  2  0
 56 57  1  0
 57 58  2  0
 58 59  1  0
 59 60  1  0
 58 61  1  0
 61 62  2  0
 54 63  1  0
 63 64  2  0
 64 65  1  0
 65 66  2  0
 66 67  1  0
 67 68  1  0
 66 69  1  0
 69 70  2  0
 53 71  1  0
 71 72  1  0
 52 73  1  0
 73 74  2  0
 74 75  1  0
 75 76  1  0
 76 77  2  0
 77 78  1  0
 78 79  1  0
 79 80  1  0
 77 81  1  0
 81 82  2  0
 82 83  1  0
 83 84  2  0
 84 85  1  0
 85 86  1  0
 86 87  1  0
 75 88  2  0
 88 89  1  0
 88 90  1  0
 90 91  2  3
 91 92  1  0
 92 93  2  0
 92 94  1  0
 94 95  2  0
 95 96  1  0
 96 97  2  0
 97 98  1  0
 98 99  2  0
 99100  1  0
100101  2  3
101102  1  0
102103  3  0
101104  1  0
104105  3  0
 97106  1  0
106107  1  0
107108  1  0
108109  2  0
109110  1  0
110111  1  0
110112  1  0
 11  2  1  0
 23 17  1  0
 30 24  1  0
 72 31  1  0
 89 73  1  0
100 91  1  0
112106  1  0
 10  5  1  0
 22 18  1  0
 41 34  1  0
 49 42  1  0
 71 50  2  0
 84 76  1  0
 99 94  1  0
111107  1  0
 23  7  1  0
 62 55  1  0
 70 63  1  0
112 96  1  0
  1113  1  0
  6114  1  0
  9115  1  0
 17116  1  0
 18117  1  0
 19118  1  0
 20119  1  0
 21120  1  0
 22121  1  0
 22122  1  0
 23123  1  0
 25124  1  0
 28125  1  0
 28126  1  0
 28127  1  0
 35128  1  0
 36129  1  0
 39130  1  0
 39131  1  0
 39132  1  0
 40133  1  0
 41134  1  0
 43135  1  0
 44136  1  0
 47137  1  0
 47138  1  0
 47139  1  0
 48140  1  0
 49141  1  0
 56142  1  0
 57143  1  0
 60144  1  0
 60145  1  0
 60146  1  0
 61147  1  0
 62148  1  0
 64149  1  0
 65150  1  0
 68151  1  0
 68152  1  0
 68153  1  0
 69154  1  0
 70155  1  0
 74156  1  0
 79157  1  0
 79158  1  0
 80159  1  0
 80160  1  0
 80161  1  0
 81162  1  0
 82163  1  0
 83164  1  0
 86165  1  0
 86166  1  0
 87167  1  0
 87168  1  0
 87169  1  0
 90170  1  0
 95171  1  0
 98172  1  0
106173  1  0
107174  1  0
108175  1  0
109176  1  0
110177  1  0
111178  1  0
111179  1  0
112180  1  0
M  END

