
     RDKit          3D

175195  0  0  0  0  0  0  0  0999 V2000
   -0.5146    2.8871   -6.7947 C   0  0  0  0  0  0  0  0  0  0  0  0
   -0.7817    3.5843   -7.8989 C   0  0  0  0  0  0  0  0  0  0  0  0
   -1.5542    4.8284   -7.8643 C   0  0  0  0  0  0  0  0  0  0  0  0
   -2.3943    5.1522   -6.9774 O   0  0  0  0  0  0  0  0  0  0  0  0
   -1.0759    5.7002   -8.9288 C   0  0  0  0  0  0  0  0  0  0  0  0
   -1.4149    7.0565   -9.1518 C   0  0  0  0  0  0  0  0  0  0  0  0
   -0.7209    7.6485  -10.1938 C   0  0  0  0  0  0  0  0  0  0  0  0
    0.2443    6.9404  -10.9831 C   0  0  0  0  0  0  0  0  0  0  0  0
    0.6177    5.6334  -10.7408 C   0  0  0  0  0  0  0  0  0  0  0  0
   -0.0706    5.0142   -9.6635 C   0  0  0  0  0  0  0  0  0  0  0  0
    0.1220    3.6622   -9.0766 C   0  0  0  0  0  0  0  0  0  0  0  0
    0.7855    2.6060   -9.6123 C   0  0  0  0  0  0  0  0  0  0  0  0
    0.6642    1.2825   -9.0548 C   0  0  0  0  0  0  0  0  0  0  0  0
    0.5837    0.2173   -8.6054 N   0  0  0  0  0  0  0  0  0  0  0  0
    1.5696    2.6938  -10.8154 C   0  0  0  0  0  0  0  0  0  0  0  0
    2.2021    2.7377  -11.7887 N   0  0  0  0  0  0  0  0  0  0  0  0
    0.4929    8.1595  -11.8168 C   0  0  0  0  0  0  0  0  0  0  0  0
    1.8375    8.9116  -11.5987 C   0  0  0  0  0  0  0  0  0  0  0  0
    2.3005    8.7460  -10.1676 C   0  0  0  0  0  0  0  0  0  0  0  0
    1.4353    9.4200   -9.4050 C   0  0  0  0  0  0  0  0  0  0  0  0
    0.4164   10.0241  -10.3452 C   0  0  0  0  0  0  0  0  0  0  0  0
    1.3306   10.3419  -11.5189 C   0  0  0  0  0  0  0  0  0  0  0  0
   -0.4649    8.9020  -10.9885 C   0  0  0  0  0  0  0  0  0  0  0  0
   -1.5768    2.2240   -6.0184 C   0  0  0  0  0  0  0  0  0  0  0  0
   -1.5266    2.2812   -4.6081 C   0  0  0  0  0  0  0  0  0  0  0  0
   -2.1672    1.2761   -3.8674 C   0  0  0  0  0  0  0  0  0  0  0  0
   -1.9789    0.9817   -2.5533 N   0  0  0  0  0  0  0  0  0  0  0  0
   -1.1479    1.7062   -1.5836 C   0  0  0  0  0  0  0  0  0  0  0  0
   -2.0191    2.4600   -0.5821 C   0  0  0  0  0  0  0  0  0  0  0  0
   -2.5012   -0.2658   -2.3971 C   0  0  0  0  0  0  0  0  0  0  0  0
   -3.0290   -0.7434   -3.5808 C   0  0  0  0  0  0  0  0  0  0  0  0
   -2.8427    0.2552   -4.5124 C   0  0  0  0  0  0  0  0  0  0  0  0
   -2.9887    0.2251   -5.8982 C   0  0  0  0  0  0  0  0  0  0  0  0
   -2.3559    1.2245   -6.6533 C   0  0  0  0  0  0  0  0  0  0  0  0
   -3.3220   -2.1015   -3.7655 C   0  0  0  0  0  0  0  0  0  0  0  0
   -3.0172   -2.9941   -2.7181 C   0  0  0  0  0  0  0  0  0  0  0  0
   -2.4407   -2.5100   -1.5180 C   0  0  0  0  0  0  0  0  0  0  0  0
   -2.2634   -1.1248   -1.3308 C   0  0  0  0  0  0  0  0  0  0  0  0
   -1.7427   -3.4143   -0.5876 C   0  0  0  0  0  0  0  0  0  0  0  0
   -0.3986   -3.2056   -0.2144 C   0  0  0  0  0  0  0  0  0  0  0  0
    0.5577   -2.4630   -1.0125 N   0  0  0  0  0  0  0  0  0  0  0  0
    1.5061   -1.5559   -0.4121 C   0  0  0  0  0  0  0  0  0  0  0  0
    2.8343   -1.5135   -0.8744 C   0  0  0  0  0  0  0  0  0  0  0  0
    3.7424   -0.5964   -0.3357 C   0  0  0  0  0  0  0  0  0  0  0  0
    3.3310    0.2921    0.6664 C   0  0  0  0  0  0  0  0  0  0  0  0
    4.4739    1.5017    1.3346 S   0  0  0  0  0  0  0  0  0  0  0  0
    4.1268    2.7385    0.0424 C   0  0  0  0  0  0  0  0  0  0  0  0
    2.0164    0.2444    1.1370 C   0  0  0  0  0  0  0  0  0  0  0  0
    1.1073   -0.6664    0.6008 C   0  0  0  0  0  0  0  0  0  0  0  0
    0.5115   -2.5649   -2.4544 C   0  0  0  0  0  0  0  0  0  0  0  0
    0.4809   -1.4036   -3.2445 C   0  0  0  0  0  0  0  0  0  0  0  0
    0.3764   -1.4922   -4.6347 C   0  0  0  0  0  0  0  0  0  0  0  0
    0.3541   -2.7461   -5.2570 C   0  0  0  0  0  0  0  0  0  0  0  0
    0.3309   -2.8513   -7.0489 S   0  0  0  0  0  0  0  0  0  0  0  0
   -1.4589   -3.1451   -7.1468 C   0  0  0  0  0  0  0  0  0  0  0  0
    0.4201   -3.9067   -4.4787 C   0  0  0  0  0  0  0  0  0  0  0  0
    0.4839   -3.8211   -3.0853 C   0  0  0  0  0  0  0  0  0  0  0  0
   -0.1589   -3.7107    1.0679 C   0  0  0  0  0  0  0  0  0  0  0  0
    1.0191   -3.4234    2.2143 S   0  0  0  0  0  0  0  0  0  0  0  0
    0.1803   -4.1160    3.5275 C   0  0  0  0  0  0  0  0  0  0  0  0
   -1.0312   -4.6535    3.0241 C   0  0  0  0  0  0  0  0  0  0  0  0
   -1.8561   -5.5997    3.7392 N   0  0  0  0  0  0  0  0  0  0  0  0
   -3.2919   -5.5680    3.6121 C   0  0  0  0  0  0  0  0  0  0  0  0
   -3.9895   -4.3478    3.6796 C   0  0  0  0  0  0  0  0  0  0  0  0
   -5.3839   -4.3232    3.5955 C   0  0  0  0  0  0  0  0  0  0  0  0
   -6.0938   -5.5147    3.4074 C   0  0  0  0  0  0  0  0  0  0  0  0
   -7.8763   -5.4803    3.2725 S   0  0  0  0  0  0  0  0  0  0  0  0
   -7.8456   -5.2039    1.4774 C   0  0  0  0  0  0  0  0  0  0  0  0
   -5.4099   -6.7304    3.3324 C   0  0  0  0  0  0  0  0  0  0  0  0
   -4.0173   -6.7597    3.4352 C   0  0  0  0  0  0  0  0  0  0  0  0
   -1.2238   -6.6369    4.5243 C   0  0  0  0  0  0  0  0  0  0  0  0
   -0.0756   -7.3012    4.0478 C   0  0  0  0  0  0  0  0  0  0  0  0
    0.5445   -8.2876    4.8191 C   0  0  0  0  0  0  0  0  0  0  0  0
    0.0284   -8.6271    6.0721 C   0  0  0  0  0  0  0  0  0  0  0  0
    0.8256   -9.8948    7.0603 S   0  0  0  0  0  0  0  0  0  0  0  0
    1.9273   -8.7128    7.9049 C   0  0  0  0  0  0  0  0  0  0  0  0
   -1.1141   -7.9817    6.5541 C   0  0  0  0  0  0  0  0  0  0  0  0
   -1.7379   -6.9925    5.7852 C   0  0  0  0  0  0  0  0  0  0  0  0
   -1.2004   -4.3539    1.6599 C   0  0  0  0  0  0  0  0  0  0  0  0
   -2.5395   -4.2902    0.6365 S   0  0  0  0  0  0  0  0  0  0  0  0
    0.5043   -3.7616    4.9509 C   0  0  0  0  0  0  0  0  0  0  0  0
   -0.5098   -3.5850    5.9291 C   0  0  0  0  0  0  0  0  0  0  0  0
   -1.8005   -3.8978    5.6879 F   0  0  0  0  0  0  0  0  0  0  0  0
   -0.2445   -2.9364    7.1470 C   0  0  0  0  0  0  0  0  0  0  0  0
   -1.2595   -2.7646    8.0354 F   0  0  0  0  0  0  0  0  0  0  0  0
    0.9942   -2.3306    7.3804 C   0  0  0  0  0  0  0  0  0  0  0  0
    2.0412   -2.5838    6.4847 C   0  0  0  0  0  0  0  0  0  0  0  0
    1.8095   -3.3293    5.2911 C   0  0  0  0  0  0  0  0  0  0  0  0
    2.8932   -3.5287    4.5001 N   0  0  0  0  0  0  0  0  0  0  0  0
    4.0595   -2.7341    5.3561 S   0  0  0  0  0  0  0  0  0  0  0  0
    3.3069   -2.1390    6.6981 N   0  0  0  0  0  0  0  0  0  0  0  0
    1.1643   -1.4047    8.5119 C   0  0  0  0  0  0  0  0  0  0  0  0
    1.4724   -0.1055    8.3489 C   0  0  0  0  0  0  0  0  0  0  0  0
    2.1747    0.6694    9.3734 C   0  0  0  0  0  0  0  0  0  0  0  0
    2.2072    0.4099   10.6062 O   0  0  0  0  0  0  0  0  0  0  0  0
    2.9114    1.7335    8.7159 C   0  0  0  0  0  0  0  0  0  0  0  0
    3.8217    2.6444    9.2967 C   0  0  0  0  0  0  0  0  0  0  0  0
    4.4375    3.4848    8.3862 C   0  0  0  0  0  0  0  0  0  0  0  0
    4.1937    3.4183    6.9747 C   0  0  0  0  0  0  0  0  0  0  0  0
    3.3090    2.5261    6.3963 C   0  0  0  0  0  0  0  0  0  0  0  0
    2.6375    1.6835    7.3236 C   0  0  0  0  0  0  0  0  0  0  0  0
    1.5969    0.6552    7.0712 C   0  0  0  0  0  0  0  0  0  0  0  0
    0.6683    0.7164    6.0812 C   0  0  0  0  0  0  0  0  0  0  0  0
   -0.6108    0.0711    6.1964 C   0  0  0  0  0  0  0  0  0  0  0  0
   -1.6593   -0.4241    6.2625 N   0  0  0  0  0  0  0  0  0  0  0  0
    0.7840    1.6274    4.9741 C   0  0  0  0  0  0  0  0  0  0  0  0
    0.8493    2.3746    4.0913 N   0  0  0  0  0  0  0  0  0  0  0  0
    5.1510    4.5467    6.7357 C   0  0  0  0  0  0  0  0  0  0  0  0
    4.5537    5.9427    6.3926 C   0  0  0  0  0  0  0  0  0  0  0  0
    3.2032    6.1025    7.0542 C   0  0  0  0  0  0  0  0  0  0  0  0
    3.4249    6.1717    8.3666 C   0  0  0  0  0  0  0  0  0  0  0  0
    4.9194    6.0558    8.5560 C   0  0  0  0  0  0  0  0  0  0  0  0
    5.3771    6.8132    7.3233 C   0  0  0  0  0  0  0  0  0  0  0  0
    5.3965    4.6183    8.1817 C   0  0  0  0  0  0  0  0  0  0  0  0
    0.4520    2.4012   -6.7027 H   0  0  0  0  0  0  0  0  0  0  0  0
   -2.1398    7.5929   -8.5509 H   0  0  0  0  0  0  0  0  0  0  0  0
    1.3945    5.1722  -11.3310 H   0  0  0  0  0  0  0  0  0  0  0  0
    0.1861    8.0515  -12.8790 H   0  0  0  0  0  0  0  0  0  0  0  0
    2.6214    8.7239  -12.3653 H   0  0  0  0  0  0  0  0  0  0  0  0
    3.1889    8.2241   -9.8218 H   0  0  0  0  0  0  0  0  0  0  0  0
    1.5059    9.5520   -8.3322 H   0  0  0  0  0  0  0  0  0  0  0  0
   -0.1493   10.8816   -9.9292 H   0  0  0  0  0  0  0  0  0  0  0  0
    0.7871   10.6692  -12.4376 H   0  0  0  0  0  0  0  0  0  0  0  0
    2.1396   11.0741  -11.2785 H   0  0  0  0  0  0  0  0  0  0  0  0
   -1.3533    9.2610  -11.5562 H   0  0  0  0  0  0  0  0  0  0  0  0
   -0.8995    3.0177   -4.1304 H   0  0  0  0  0  0  0  0  0  0  0  0
   -0.4712    2.4258   -2.0871 H   0  0  0  0  0  0  0  0  0  0  0  0
   -0.4829    1.0011   -1.0449 H   0  0  0  0  0  0  0  0  0  0  0  0
   -2.6742    1.7477   -0.0304 H   0  0  0  0  0  0  0  0  0  0  0  0
   -2.6473    3.2048   -1.1122 H   0  0  0  0  0  0  0  0  0  0  0  0
   -1.3673    2.9872    0.1424 H   0  0  0  0  0  0  0  0  0  0  0  0
   -3.4970   -0.5877   -6.3945 H   0  0  0  0  0  0  0  0  0  0  0  0
   -2.3608    1.1442   -7.7300 H   0  0  0  0  0  0  0  0  0  0  0  0
   -3.6610   -2.4751   -4.7216 H   0  0  0  0  0  0  0  0  0  0  0  0
   -3.1214   -4.0589   -2.8807 H   0  0  0  0  0  0  0  0  0  0  0  0
   -1.8017   -0.7608   -0.4257 H   0  0  0  0  0  0  0  0  0  0  0  0
    3.1662   -2.1950   -1.6516 H   0  0  0  0  0  0  0  0  0  0  0  0
    4.7566   -0.5677   -0.7077 H   0  0  0  0  0  0  0  0  0  0  0  0
    4.4321    3.7391    0.4066 H   0  0  0  0  0  0  0  0  0  0  0  0
    3.0467    2.7680   -0.2105 H   0  0  0  0  0  0  0  0  0  0  0  0
    4.7133    2.4898   -0.8629 H   0  0  0  0  0  0  0  0  0  0  0  0
    1.7018    0.9160    1.9230 H   0  0  0  0  0  0  0  0  0  0  0  0
    0.0883   -0.6724    0.9718 H   0  0  0  0  0  0  0  0  0  0  0  0
    0.5069   -0.4250   -2.7810 H   0  0  0  0  0  0  0  0  0  0  0  0
    0.3287   -0.5866   -5.2252 H   0  0  0  0  0  0  0  0  0  0  0  0
   -1.7036   -4.1226   -6.6832 H   0  0  0  0  0  0  0  0  0  0  0  0
   -1.7751   -3.1744   -8.2154 H   0  0  0  0  0  0  0  0  0  0  0  0
   -2.0101   -2.3392   -6.6319 H   0  0  0  0  0  0  0  0  0  0  0  0
    0.4233   -4.8756   -4.9577 H   0  0  0  0  0  0  0  0  0  0  0  0
    0.5241   -4.7280   -2.4935 H   0  0  0  0  0  0  0  0  0  0  0  0
   -3.4538   -3.4147    3.8114 H   0  0  0  0  0  0  0  0  0  0  0  0
   -5.9073   -3.3817    3.6535 H   0  0  0  0  0  0  0  0  0  0  0  0
   -7.2566   -6.0056    0.9767 H   0  0  0  0  0  0  0  0  0  0  0  0
   -7.3988   -4.2151    1.2502 H   0  0  0  0  0  0  0  0  0  0  0  0
   -8.8889   -5.2318    1.0827 H   0  0  0  0  0  0  0  0  0  0  0  0
   -5.9489   -7.6574    3.1857 H   0  0  0  0  0  0  0  0  0  0  0  0
   -3.4985   -7.7096    3.3708 H   0  0  0  0  0  0  0  0  0  0  0  0
    0.3306   -7.0556    3.0765 H   0  0  0  0  0  0  0  0  0  0  0  0
    1.4264   -8.7847    4.4400 H   0  0  0  0  0  0  0  0  0  0  0  0
    2.5772   -8.2047    7.1631 H   0  0  0  0  0  0  0  0  0  0  0  0
    2.5649   -9.2639    8.6247 H   0  0  0  0  0  0  0  0  0  0  0  0
    1.3212   -7.9662    8.4577 H   0  0  0  0  0  0  0  0  0  0  0  0
   -1.5162   -8.2359    7.5289 H   0  0  0  0  0  0  0  0  0  0  0  0
   -2.6162   -6.4953    6.1772 H   0  0  0  0  0  0  0  0  0  0  0  0
    1.1665   -1.8322    9.5070 H   0  0  0  0  0  0  0  0  0  0  0  0
    4.0373    2.6805   10.3596 H   0  0  0  0  0  0  0  0  0  0  0  0
    3.1810    2.4860    5.3267 H   0  0  0  0  0  0  0  0  0  0  0  0
    6.0491    4.2602    6.1425 H   0  0  0  0  0  0  0  0  0  0  0  0
    4.5860    6.2283    5.3202 H   0  0  0  0  0  0  0  0  0  0  0  0
    2.2383    6.1983    6.5649 H   0  0  0  0  0  0  0  0  0  0  0  0
    2.6724    6.3344    9.1306 H   0  0  0  0  0  0  0  0  0  0  0  0
    5.3009    6.4452    9.5223 H   0  0  0  0  0  0  0  0  0  0  0  0
    6.4753    6.7447    7.1418 H   0  0  0  0  0  0  0  0  0  0  0  0
    5.0646    7.8878    7.3181 H   0  0  0  0  0  0  0  0  0  0  0  0
    6.4467    4.3802    8.4643 H   0  0  0  0  0  0  0  0  0  0  0  0
  1  2  2  3
  2  3  1  0
  3  4  2  0
  3  5  1  0
  5  6  2  0
  6  7  1  0
  7  8  2  0
  8  9  1  0
  9 10  2  0
 10 11  1  0
 11 12  2  3
 12 13  1  0
 13 14  3  0
 12 15  1  0
 15 16  3  0
  8 17  1  0
 17 18  1  0
 18 19  1  0
 19 20  2  0
 20 21  1  0
 21 22  1  0
 21 23  1  0
  1 24  1  0
 24 25  2  0
 25 26  1  0
 26 27  1  0
 27 28  1  0
 28 29  1  0
 27 30  1  0
 30 31  2  0
 31 32  1  0
 32 33  1  0
 33 34  2  0
 31 35  1  0
 35 36  2  0
 36 37  1  0
 37 38  2  0
 37 39  1  0
 39 40  2  0
 40 41  1  0
 41 42  1  0
 42 43  2  0
 43 44  1  0
 44 45  2  0
 45 46  1  0
 46 47  1  0
 45 48  1  0
 48 49  2  0
 41 50  1  0
 50 51  2  0
 51 52  1  0
 52 53  2  0
 53 54  1  0
 54 55  1  0
 53 56  1  0
 56 57  2  0
 40 58  1  0
 58 59  1  0
 59 60  1  0
 60 61  2  0
 61 62  1  0
 62 63  1  0
 63 64  2  0
 64 65  1  0
 65 66  2  0
 66 67  1  0
 67 68  1  0
 66 69  1  0
 69 70  2  0
 62 71  1  0
 71 72  2  0
 72 73  1  0
 73 74  2  0
 74 75  1  0
 75 76  1  0
 74 77  1  0
 77 78  2  0
 61 79  1  0
 79 80  1  0
 60 81  1  0
 81 82  2  0
 82 83  1  0
 82 84  1  0
 84 85  1  0
 84 86  2  0
 86 87  1  0
 87 88  1  0
 88 89  2  0
 89 90  1  0
 90 91  1  0
 86 92  1  0
 92 93  2  3
 93 94  1  0
 94 95  2  0
 94 96  1  0
 96 97  2  0
 97 98  1  0
 98 99  2  0
 99100  1  0
100101  2  0
101102  1  0
102103  2  3
103104  1  0
104105  3  0
103106  1  0
106107  3  0
 99108  1  0
108109  1  0
109110  1  0
110111  2  0
111112  1  0
112113  1  0
112114  1  0
 11  2  1  0
 23 17  1  0
 34 24  1  0
 80 39  1  0
 88 81  1  0
102 93  1  0
114108  1  0
 10  5  1  0
 22 18  1  0
 32 26  2  0
 49 42  1  0
 57 50  1  0
 79 58  2  0
 91 87  2  0
101 96  1  0
113109  1  0
 23  7  1  0
 38 30  1  0
 70 63  1  0
 78 71  1  0
114 98  1  0
  1115  1  0
  6116  1  0
  9117  1  0
 17118  1  0
 18119  1  0
 19120  1  0
 20121  1  0
 21122  1  0
 22123  1  0
 22124  1  0
 23125  1  0
 25126  1  0
 28127  1  0
 28128  1  0
 29129  1  0
 29130  1  0
 29131  1  0
 33132  1  0
 34133  1  0
 35134  1  0
 36135  1  0
 38136  1  0
 43137  1  0
 44138  1  0
 47139  1  0
 47140  1  0
 47141  1  0
 48142  1  0
 49143  1  0
 51144  1  0
 52145  1  0
 55146  1  0
 55147  1  0
 55148  1  0
 56149  1  0
 57150  1  0
 64151  1  0
 65152  1  0
 68153  1  0
 68154  1  0
 68155  1  0
 69156  1  0
 70157  1  0
 72158  1  0
 73159  1  0
 76160  1  0
 76161  1  0
 76162  1  0
 77163  1  0
 78164  1  0
 92165  1  0
 97166  1  0
100167  1  0
108168  1  0
109169  1  0
110170  1  0
111171  1  0
112172  1  0
113173  1  0
113174  1  0
114175  1  0
M  END

