
     RDKit          3D

221245  0  0  0  0  0  0  0  0999 V2000
    3.7644    1.3639    7.8821 C   0  0  0  0  0  0  0  0  0  0  0  0
    3.2984    0.0965    7.9197 C   0  0  0  0  0  0  0  0  0  0  0  0
    2.8796   -0.6842    6.7419 C   0  0  0  0  0  0  0  0  0  0  0  0
    2.6722   -0.2497    5.5801 O   0  0  0  0  0  0  0  0  0  0  0  0
    2.6882   -2.0535    7.1292 C   0  0  0  0  0  0  0  0  0  0  0  0
    2.3838   -3.1351    6.2723 C   0  0  0  0  0  0  0  0  0  0  0  0
    2.3181   -4.3519    6.9187 C   0  0  0  0  0  0  0  0  0  0  0  0
    2.5523   -4.5107    8.3223 C   0  0  0  0  0  0  0  0  0  0  0  0
    2.8651   -3.4520    9.1624 C   0  0  0  0  0  0  0  0  0  0  0  0
    2.8974   -2.1769    8.5229 C   0  0  0  0  0  0  0  0  0  0  0  0
    3.1880   -0.8257    9.0966 C   0  0  0  0  0  0  0  0  0  0  0  0
    3.1407   -0.4815   10.4114 C   0  0  0  0  0  0  0  0  0  0  0  0
    3.3282    0.8683   10.8770 C   0  0  0  0  0  0  0  0  0  0  0  0
    3.4759    1.9497   11.2624 N   0  0  0  0  0  0  0  0  0  0  0  0
    2.7745   -1.4171   11.4416 C   0  0  0  0  0  0  0  0  0  0  0  0
    2.4710   -2.1560   12.2797 N   0  0  0  0  0  0  0  0  0  0  0  0
    2.3002   -5.9844    8.2153 C   0  0  0  0  0  0  0  0  0  0  0  0
    0.9321   -6.4936    8.7594 C   0  0  0  0  0  0  0  0  0  0  0  0
    0.7488   -7.8780    8.1857 C   0  0  0  0  0  0  0  0  0  0  0  0
    0.5234   -7.7208    6.8746 C   0  0  0  0  0  0  0  0  0  0  0  0
    0.5671   -6.2375    6.6082 C   0  0  0  0  0  0  0  0  0  0  0  0
   -0.0752   -5.7505    7.8968 C   0  0  0  0  0  0  0  0  0  0  0  0
    2.0587   -5.8185    6.7763 C   0  0  0  0  0  0  0  0  0  0  0  0
    3.8971    2.0938    6.6136 C   0  0  0  0  0  0  0  0  0  0  0  0
    2.8442    2.7443    5.9300 C   0  0  0  0  0  0  0  0  0  0  0  0
    1.6123    3.2223    6.5178 N   0  0  0  0  0  0  0  0  0  0  0  0
    0.9966    2.5358    7.6197 C   0  0  0  0  0  0  0  0  0  0  0  0
    0.3224    1.3230    7.4070 C   0  0  0  0  0  0  0  0  0  0  0  0
   -0.2889    0.6609    8.4770 C   0  0  0  0  0  0  0  0  0  0  0  0
   -0.2509    1.2205    9.7598 C   0  0  0  0  0  0  0  0  0  0  0  0
    0.3954    2.4424    9.9714 C   0  0  0  0  0  0  0  0  0  0  0  0
    1.0181    3.1006    8.9041 C   0  0  0  0  0  0  0  0  0  0  0  0
    0.9827    4.4169    6.0034 C   0  0  0  0  0  0  0  0  0  0  0  0
   -0.4142    4.4883    5.8645 C   0  0  0  0  0  0  0  0  0  0  0  0
   -1.0156    5.6256    5.3081 C   0  0  0  0  0  0  0  0  0  0  0  0
   -0.2269    6.6995    4.8887 C   0  0  0  0  0  0  0  0  0  0  0  0
    1.1607    6.6488    5.0351 C   0  0  0  0  0  0  0  0  0  0  0  0
    1.7649    5.5184    5.5927 C   0  0  0  0  0  0  0  0  0  0  0  0
    3.1027    2.7952    4.5600 C   0  0  0  0  0  0  0  0  0  0  0  0
    2.0745    2.9494    3.2470 S   0  0  0  0  0  0  0  0  0  0  0  0
    3.1768    2.3100    2.1210 C   0  0  0  0  0  0  0  0  0  0  0  0
    4.3591    1.9470    2.7940 C   0  0  0  0  0  0  0  0  0  0  0  0
    5.4575    1.2580    2.1666 N   0  0  0  0  0  0  0  0  0  0  0  0
    6.0343    0.0702    2.7480 C   0  0  0  0  0  0  0  0  0  0  0  0
    7.4218   -0.1503    2.6864 C   0  0  0  0  0  0  0  0  0  0  0  0
    7.9835   -1.2964    3.2554 C   0  0  0  0  0  0  0  0  0  0  0  0
    7.1694   -2.2393    3.8894 C   0  0  0  0  0  0  0  0  0  0  0  0
    5.7909   -2.0310    3.9659 C   0  0  0  0  0  0  0  0  0  0  0  0
    5.2246   -0.8873    3.3921 C   0  0  0  0  0  0  0  0  0  0  0  0
    5.9922    1.8026    0.9460 C   0  0  0  0  0  0  0  0  0  0  0  0
    6.3710    3.1551    0.8837 C   0  0  0  0  0  0  0  0  0  0  0  0
    6.9102    3.6822   -0.2919 C   0  0  0  0  0  0  0  0  0  0  0  0
    7.0516    2.8708   -1.4214 C   0  0  0  0  0  0  0  0  0  0  0  0
    6.6669    1.5271   -1.3715 C   0  0  0  0  0  0  0  0  0  0  0  0
    6.1419    0.9925   -0.1919 C   0  0  0  0  0  0  0  0  0  0  0  0
    4.2775    2.2402    4.1580 C   0  0  0  0  0  0  0  0  0  0  0  0
    5.1081    1.6662    5.4922 S   0  0  0  0  0  0  0  0  0  0  0  0
    2.7129    1.7312    0.8492 C   0  0  0  0  0  0  0  0  0  0  0  0
    2.7469    0.3312    0.7164 C   0  0  0  0  0  0  0  0  0  0  0  0
    1.9665   -0.3202   -0.2366 C   0  0  0  0  0  0  0  0  0  0  0  0
    1.1622    0.4020   -1.1257 C   0  0  0  0  0  0  0  0  0  0  0  0
    1.2163    1.8143   -1.0711 C   0  0  0  0  0  0  0  0  0  0  0  0
    0.4511    2.8301   -1.8142 C   0  0  0  0  0  0  0  0  0  0  0  0
   -0.0805    2.7111   -3.0379 C   0  0  0  0  0  0  0  0  0  0  0  0
   -0.9349    3.7394   -3.6522 C   0  0  0  0  0  0  0  0  0  0  0  0
   -1.9832    4.3834   -2.9732 C   0  0  0  0  0  0  0  0  0  0  0  0
   -2.6904    5.2777   -3.7656 C   0  0  0  0  0  0  0  0  0  0  0  0
   -2.0324    5.2309   -5.3111 S   0  0  0  0  0  0  0  0  0  0  0  0
   -0.8466    4.0846   -4.9963 C   0  0  0  0  0  0  0  0  0  0  0  0
    0.7621    4.0821   -1.1159 C   0  0  0  0  0  0  0  0  0  0  0  0
    0.3410    5.2235   -1.4488 O   0  0  0  0  0  0  0  0  0  0  0  0
    1.7367    3.8846   -0.0889 N   0  0  0  0  0  0  0  0  0  0  0  0
    2.7557    4.8968    0.2034 C   0  0  0  0  0  0  0  0  0  0  0  0
    3.7171    5.0416   -0.9747 C   0  0  0  0  0  0  0  0  0  0  0  0
    1.9537    2.4648   -0.0833 C   0  0  0  0  0  0  0  0  0  0  0  0
    0.1986   -0.3357   -1.9610 C   0  0  0  0  0  0  0  0  0  0  0  0
    0.4903   -1.4007   -2.8280 C   0  0  0  0  0  0  0  0  0  0  0  0
    1.8065   -1.8994   -3.1028 N   0  0  0  0  0  0  0  0  0  0  0  0
    2.4513   -1.5197   -4.3265 C   0  0  0  0  0  0  0  0  0  0  0  0
    2.8055   -2.4976   -5.2673 C   0  0  0  0  0  0  0  0  0  0  0  0
    3.3935   -2.1313   -6.4809 C   0  0  0  0  0  0  0  0  0  0  0  0
    3.6663   -0.7845   -6.7473 C   0  0  0  0  0  0  0  0  0  0  0  0
    4.4307   -0.3320   -8.3078 S   0  0  0  0  0  0  0  0  0  0  0  0
    6.1310   -0.6237   -7.7240 C   0  0  0  0  0  0  0  0  0  0  0  0
    3.3197    0.1968   -5.8107 C   0  0  0  0  0  0  0  0  0  0  0  0
    2.7061   -0.1672   -4.6082 C   0  0  0  0  0  0  0  0  0  0  0  0
    2.3957   -2.8967   -2.2458 C   0  0  0  0  0  0  0  0  0  0  0  0
    3.7676   -2.8446   -1.9453 C   0  0  0  0  0  0  0  0  0  0  0  0
    4.3204   -3.7360   -1.0197 C   0  0  0  0  0  0  0  0  0  0  0  0
    3.5112   -4.6902   -0.3958 C   0  0  0  0  0  0  0  0  0  0  0  0
    4.2056   -5.8159    0.8157 S   0  0  0  0  0  0  0  0  0  0  0  0
    3.9700   -4.6567    2.1990 C   0  0  0  0  0  0  0  0  0  0  0  0
    2.1516   -4.7678   -0.7139 C   0  0  0  0  0  0  0  0  0  0  0  0
    1.5942   -3.8749   -1.6294 C   0  0  0  0  0  0  0  0  0  0  0  0
   -0.6419   -1.8159   -3.5229 C   0  0  0  0  0  0  0  0  0  0  0  0
   -0.8797   -2.7739   -4.8661 S   0  0  0  0  0  0  0  0  0  0  0  0
   -2.4983   -2.2974   -5.1275 C   0  0  0  0  0  0  0  0  0  0  0  0
   -2.8446   -1.3431   -4.1258 C   0  0  0  0  0  0  0  0  0  0  0  0
   -4.0025   -0.4823   -4.0918 N   0  0  0  0  0  0  0  0  0  0  0  0
   -4.6298   -0.2882   -2.8012 C   0  0  0  0  0  0  0  0  0  0  0  0
   -5.0096   -1.3957   -2.0179 C   0  0  0  0  0  0  0  0  0  0  0  0
   -5.5160   -1.2132   -0.7270 C   0  0  0  0  0  0  0  0  0  0  0  0
   -5.6239    0.0733   -0.1876 C   0  0  0  0  0  0  0  0  0  0  0  0
   -6.1892    0.3021    1.5003 S   0  0  0  0  0  0  0  0  0  0  0  0
   -7.9295    0.5395    1.0314 C   0  0  0  0  0  0  0  0  0  0  0  0
   -5.2386    1.1790   -0.9521 C   0  0  0  0  0  0  0  0  0  0  0  0
   -4.7446    1.0032   -2.2480 C   0  0  0  0  0  0  0  0  0  0  0  0
   -4.2897    0.4386   -5.1765 C   0  0  0  0  0  0  0  0  0  0  0  0
   -3.3040    0.8193   -6.1084 C   0  0  0  0  0  0  0  0  0  0  0  0
   -3.6102    1.7127   -7.1415 C   0  0  0  0  0  0  0  0  0  0  0  0
   -4.8986    2.2489   -7.2491 C   0  0  0  0  0  0  0  0  0  0  0  0
   -5.3178    3.3696   -8.5849 S   0  0  0  0  0  0  0  0  0  0  0  0
   -4.9776    4.8670   -7.6077 C   0  0  0  0  0  0  0  0  0  0  0  0
   -5.8764    1.8920   -6.3209 C   0  0  0  0  0  0  0  0  0  0  0  0
   -5.5771    0.9994   -5.2926 C   0  0  0  0  0  0  0  0  0  0  0  0
   -1.7787   -1.1399   -3.2421 C   0  0  0  0  0  0  0  0  0  0  0  0
   -1.4647    0.0227   -2.0712 S   0  0  0  0  0  0  0  0  0  0  0  0
   -3.0782   -2.5597   -6.4620 C   0  0  0  0  0  0  0  0  0  0  0  0
   -4.3599   -2.6074   -6.8580 C   0  0  0  0  0  0  0  0  0  0  0  0
   -5.5643   -2.3153   -6.0781 C   0  0  0  0  0  0  0  0  0  0  0  0
   -5.7393   -2.5711   -4.8595 O   0  0  0  0  0  0  0  0  0  0  0  0
   -6.5504   -1.7304   -6.9753 C   0  0  0  0  0  0  0  0  0  0  0  0
   -7.6976   -0.9826   -6.6151 C   0  0  0  0  0  0  0  0  0  0  0  0
   -8.2169   -0.2223   -7.6522 C   0  0  0  0  0  0  0  0  0  0  0  0
   -7.6570   -0.2142   -8.9735 C   0  0  0  0  0  0  0  0  0  0  0  0
   -6.5712   -0.9865   -9.3454 C   0  0  0  0  0  0  0  0  0  0  0  0
   -6.0319   -1.7713   -8.2958 C   0  0  0  0  0  0  0  0  0  0  0  0
   -4.7577   -2.5121   -8.2851 C   0  0  0  0  0  0  0  0  0  0  0  0
   -4.2076   -3.1845   -9.3251 C   0  0  0  0  0  0  0  0  0  0  0  0
   -3.1368   -4.1295   -9.1348 C   0  0  0  0  0  0  0  0  0  0  0  0
   -2.2782   -4.8908   -8.9777 N   0  0  0  0  0  0  0  0  0  0  0  0
   -4.7537   -3.1198  -10.6583 C   0  0  0  0  0  0  0  0  0  0  0  0
   -5.1769   -3.0696  -11.7376 N   0  0  0  0  0  0  0  0  0  0  0  0
   -8.6169    0.8560   -9.3933 C   0  0  0  0  0  0  0  0  0  0  0  0
   -9.7964    0.4168  -10.3084 C   0  0  0  0  0  0  0  0  0  0  0  0
  -10.7964    1.5478  -10.2606 C   0  0  0  0  0  0  0  0  0  0  0  0
  -11.3283    1.5340   -9.0331 C   0  0  0  0  0  0  0  0  0  0  0  0
  -10.6707    0.3934   -8.2935 C   0  0  0  0  0  0  0  0  0  0  0  0
  -10.5411   -0.5885   -9.4458 C   0  0  0  0  0  0  0  0  0  0  0  0
   -9.2001    0.8418   -8.0466 C   0  0  0  0  0  0  0  0  0  0  0  0
    4.1567    1.8577    8.7538 H   0  0  0  0  0  0  0  0  0  0  0  0
    2.2232   -3.0290    5.2063 H   0  0  0  0  0  0  0  0  0  0  0  0
    3.0859   -3.6244   10.2009 H   0  0  0  0  0  0  0  0  0  0  0  0
    3.1902   -6.6052    8.4681 H   0  0  0  0  0  0  0  0  0  0  0  0
    0.7931   -6.4076    9.8579 H   0  0  0  0  0  0  0  0  0  0  0  0
    0.6892   -8.8115    8.7323 H   0  0  0  0  0  0  0  0  0  0  0  0
    0.2636   -8.5057    6.1734 H   0  0  0  0  0  0  0  0  0  0  0  0
    0.0778   -5.9092    5.6674 H   0  0  0  0  0  0  0  0  0  0  0  0
   -0.0635   -4.6439    8.0277 H   0  0  0  0  0  0  0  0  0  0  0  0
   -1.1212   -6.1125    8.0345 H   0  0  0  0  0  0  0  0  0  0  0  0
    2.7873   -6.3407    6.1166 H   0  0  0  0  0  0  0  0  0  0  0  0
    0.2792    0.8884    6.4158 H   0  0  0  0  0  0  0  0  0  0  0  0
   -0.7951   -0.2822    8.3144 H   0  0  0  0  0  0  0  0  0  0  0  0
   -0.7255    0.7080   10.5888 H   0  0  0  0  0  0  0  0  0  0  0  0
    0.4197    2.8771   10.9617 H   0  0  0  0  0  0  0  0  0  0  0  0
    1.5215    4.0421    9.0751 H   0  0  0  0  0  0  0  0  0  0  0  0
   -1.0427    3.6575    6.1526 H   0  0  0  0  0  0  0  0  0  0  0  0
   -2.0923    5.6639    5.1891 H   0  0  0  0  0  0  0  0  0  0  0  0
   -0.6924    7.5739    4.4519 H   0  0  0  0  0  0  0  0  0  0  0  0
    1.7671    7.4885    4.7203 H   0  0  0  0  0  0  0  0  0  0  0  0
    2.8378    5.5040    5.7141 H   0  0  0  0  0  0  0  0  0  0  0  0
    8.0721    0.5785    2.2165 H   0  0  0  0  0  0  0  0  0  0  0  0
    9.0522   -1.4491    3.2098 H   0  0  0  0  0  0  0  0  0  0  0  0
    7.6093   -3.1247    4.3282 H   0  0  0  0  0  0  0  0  0  0  0  0
    5.1566   -2.7557    4.4665 H   0  0  0  0  0  0  0  0  0  0  0  0
    4.1565   -0.7498    3.4642 H   0  0  0  0  0  0  0  0  0  0  0  0
    6.2658    3.7897    1.7522 H   0  0  0  0  0  0  0  0  0  0  0  0
    7.2132    4.7205   -0.3305 H   0  0  0  0  0  0  0  0  0  0  0  0
    7.4595    3.2844   -2.3350 H   0  0  0  0  0  0  0  0  0  0  0  0
    6.7755    0.9032   -2.2482 H   0  0  0  0  0  0  0  0  0  0  0  0
    5.8426   -0.0498   -0.1668 H   0  0  0  0  0  0  0  0  0  0  0  0
    3.2742   -0.2802    1.4303 H   0  0  0  0  0  0  0  0  0  0  0  0
    1.9039   -1.3974   -0.1937 H   0  0  0  0  0  0  0  0  0  0  0  0
    0.1086    1.8126   -3.6103 H   0  0  0  0  0  0  0  0  0  0  0  0
   -2.2316    4.1987   -1.9353 H   0  0  0  0  0  0  0  0  0  0  0  0
   -3.5251    5.8867   -3.4469 H   0  0  0  0  0  0  0  0  0  0  0  0
   -0.1352    3.6875   -5.7043 H   0  0  0  0  0  0  0  0  0  0  0  0
    2.2635    5.8763    0.3992 H   0  0  0  0  0  0  0  0  0  0  0  0
    3.3327    4.6413    1.1098 H   0  0  0  0  0  0  0  0  0  0  0  0
    4.1532    4.0553   -1.2380 H   0  0  0  0  0  0  0  0  0  0  0  0
    3.1808    5.4506   -1.8566 H   0  0  0  0  0  0  0  0  0  0  0  0
    4.5336    5.7399   -0.7023 H   0  0  0  0  0  0  0  0  0  0  0  0
    2.6006   -3.5407   -5.0657 H   0  0  0  0  0  0  0  0  0  0  0  0
    3.6436   -2.8941   -7.2063 H   0  0  0  0  0  0  0  0  0  0  0  0
    6.1881   -1.5367   -7.0924 H   0  0  0  0  0  0  0  0  0  0  0  0
    6.4866    0.2530   -7.1436 H   0  0  0  0  0  0  0  0  0  0  0  0
    6.7922   -0.7715   -8.6008 H   0  0  0  0  0  0  0  0  0  0  0  0
    3.5163    1.2426   -6.0176 H   0  0  0  0  0  0  0  0  0  0  0  0
    2.4367    0.6008   -3.8922 H   0  0  0  0  0  0  0  0  0  0  0  0
    4.3983   -2.0886   -2.3960 H   0  0  0  0  0  0  0  0  0  0  0  0
    5.3728   -3.6677   -0.7766 H   0  0  0  0  0  0  0  0  0  0  0  0
    2.9078   -4.3361    2.2646 H   0  0  0  0  0  0  0  0  0  0  0  0
    4.6178   -3.7677    2.0535 H   0  0  0  0  0  0  0  0  0  0  0  0
    4.2502   -5.1615    3.1481 H   0  0  0  0  0  0  0  0  0  0  0  0
    1.5225   -5.5100   -0.2387 H   0  0  0  0  0  0  0  0  0  0  0  0
    0.5363   -3.9414   -1.8544 H   0  0  0  0  0  0  0  0  0  0  0  0
   -4.8981   -2.4010   -2.4023 H   0  0  0  0  0  0  0  0  0  0  0  0
   -5.7936   -2.0751   -0.1329 H   0  0  0  0  0  0  0  0  0  0  0  0
   -8.0249    1.3999    0.3391 H   0  0  0  0  0  0  0  0  0  0  0  0
   -8.5269    0.7461    1.9406 H   0  0  0  0  0  0  0  0  0  0  0  0
   -8.3206   -0.3774    0.5449 H   0  0  0  0  0  0  0  0  0  0  0  0
   -5.2983    2.1775   -0.5318 H   0  0  0  0  0  0  0  0  0  0  0  0
   -4.4083    1.8704   -2.8036 H   0  0  0  0  0  0  0  0  0  0  0  0
   -2.2949    0.4325   -6.0400 H   0  0  0  0  0  0  0  0  0  0  0  0
   -2.8477    1.9829   -7.8601 H   0  0  0  0  0  0  0  0  0  0  0  0
   -5.5401    4.8482   -6.6472 H   0  0  0  0  0  0  0  0  0  0  0  0
   -5.2848    5.7611   -8.1877 H   0  0  0  0  0  0  0  0  0  0  0  0
   -3.8901    4.9319   -7.4060 H   0  0  0  0  0  0  0  0  0  0  0  0
   -6.8740    2.3079   -6.3903 H   0  0  0  0  0  0  0  0  0  0  0  0
   -6.3572    0.7353   -4.5897 H   0  0  0  0  0  0  0  0  0  0  0  0
   -2.3233   -2.6687   -7.2263 H   0  0  0  0  0  0  0  0  0  0  0  0
   -8.0563   -0.8989   -5.5951 H   0  0  0  0  0  0  0  0  0  0  0  0
   -6.1226   -0.8869  -10.3205 H   0  0  0  0  0  0  0  0  0  0  0  0
   -8.1204    1.8114   -9.6715 H   0  0  0  0  0  0  0  0  0  0  0  0
   -9.5153    0.0720  -11.3238 H   0  0  0  0  0  0  0  0  0  0  0  0
  -11.1008    2.1869  -11.0819 H   0  0  0  0  0  0  0  0  0  0  0  0
  -12.1387    2.1626   -8.6842 H   0  0  0  0  0  0  0  0  0  0  0  0
  -11.2210    0.0257   -7.4004 H   0  0  0  0  0  0  0  0  0  0  0  0
   -9.9569   -1.5042   -9.1999 H   0  0  0  0  0  0  0  0  0  0  0  0
  -11.5210   -0.8965   -9.8760 H   0  0  0  0  0  0  0  0  0  0  0  0
   -9.0730    1.7935   -7.4841 H   0  0  0  0  0  0  0  0  0  0  0  0
  1  2  2  3
  2  3  1  0
  3  4  2  0
  3  5  1  0
  5  6  2  0
  6  7  1  0
  7  8  2  0
  8  9  1  0
  9 10  2  0
 10 11  1  0
 11 12  2  3
 12 13  1  0
 13 14  3  0
 12 15  1  0
 15 16  3  0
  8 17  1  0
 17 18  1  0
 18 19  1  0
 19 20  2  0
 20 21  1  0
 21 22  1  0
 21 23  1  0
  1 24  1  0
 24 25  2  0
 25 26  1  0
 26 27  1  0
 27 28  2  0
 28 29  1  0
 29 30  2  0
 30 31  1  0
 31 32  2  0
 26 33  1  0
 33 34  2  0
 34 35  1  0
 35 36  2  0
 36 37  1  0
 37 38  2  0
 25 39  1  0
 39 40  1  0
 40 41  1  0
 41 42  2  0
 42 43  1  0
 43 44  1  0
 44 45  2  0
 45 46  1  0
 46 47  2  0
 47 48  1  0
 48 49  2  0
 43 50  1  0
 50 51  2  0
 51 52  1  0
 52 53  2  0
 53 54  1  0
 54 55  2  0
 42 56  1  0
 56 57  1  0
 41 58  1  0
 58 59  2  0
 59 60  1  0
 60 61  2  0
 61 62  1  0
 62 63  1  0
 63 64  2  3
 64 65  1  0
 65 66  1  0
 66 67  2  0
 67 68  1  0
 68 69  1  0
 63 70  1  0
 70 71  2  0
 70 72  1  0
 72 73  1  0
 73 74  1  0
 72 75  1  0
 61 76  1  0
 76 77  2  0
 77 78  1  0
 78 79  1  0
 79 80  2  0
 80 81  1  0
 81 82  2  0
 82 83  1  0
 83 84  1  0
 82 85  1  0
 85 86  2  0
 78 87  1  0
 87 88  2  0
 88 89  1  0
 89 90  2  0
 90 91  1  0
 91 92  1  0
 90 93  1  0
 93 94  2  0
 77 95  1  0
 95 96  1  0
 96 97  1  0
 97 98  2  0
 98 99  1  0
 99100  1  0
100101  2  0
101102  1  0
102103  2  0
103104  1  0
104105  1  0
103106  1  0
106107  2  0
 99108  1  0
108109  2  0
109110  1  0
110111  2  0
111112  1  0
112113  1  0
111114  1  0
114115  2  0
 98116  1  0
116117  1  0
 97118  1  0
118119  2  3
119120  1  0
120121  2  0
120122  1  0
122123  2  0
123124  1  0
124125  2  0
125126  1  0
126127  2  0
127128  1  0
128129  2  3
129130  1  0
130131  3  0
129132  1  0
132133  3  0
125134  1  0
134135  1  0
135136  1  0
136137  2  0
137138  1  0
138139  1  0
138140  1  0
 11  2  1  0
 23 17  1  0
 57 24  1  0
 75 58  1  0
117 76  1  0
128119  1  0
140134  1  0
 10  5  1  0
 22 18  1  0
 32 27  1  0
 38 33  1  0
 56 39  2  0
 75 62  2  0
 86 79  1  0
 94 87  1  0
116 95  2  0
127122  1  0
139135  1  0
 23  7  1  0
 49 44  1  0
 55 50  1  0
 69 65  2  0
107100  1  0
115108  1  0
140124  1  0
  1141  1  0
  6142  1  0
  9143  1  0
 17144  1  0
 18145  1  0
 19146  1  0
 20147  1  0
 21148  1  0
 22149  1  0
 22150  1  0
 23151  1  0
 28152  1  0
 29153  1  0
 30154  1  0
 31155  1  0
 32156  1  0
 34157  1  0
 35158  1  0
 36159  1  0
 37160  1  0
 38161  1  0
 45162  1  0
 46163  1  0
 47164  1  0
 48165  1  0
 49166  1  0
 51167  1  0
 52168  1  0
 53169  1  0
 54170  1  0
 55171  1  0
 59172  1  0
 60173  1  0
 64174  1  0
 66175  1  0
 67176  1  0
 69177  1  0
 73178  1  0
 73179  1  0
 74180  1  0
 74181  1  0
 74182  1  0
 80183  1  0
 81184  1  0
 84185  1  0
 84186  1  0
 84187  1  0
 85188  1  0
 86189  1  0
 88190  1  0
 89191  1  0
 92192  1  0
 92193  1  0
 92194  1  0
 93195  1  0
 94196  1  0
101197  1  0
102198  1  0
105199  1  0
105200  1  0
105201  1  0
106202  1  0
107203  1  0
109204  1  0
110205  1  0
113206  1  0
113207  1  0
113208  1  0
114209  1  0
115210  1  0
118211  1  0
123212  1  0
126213  1  0
134214  1  0
135215  1  0
136216  1  0
137217  1  0
138218  1  0
139219  1  0
139220  1  0
140221  1  0
M  END

