
     RDKit          3D

170186  0  0  0  0  0  0  0  0999 V2000
    2.3361   -5.6901    4.3567 C   0  0  0  0  0  0  0  0  0  0  0  0
    3.2741   -6.0697    3.4738 C   0  0  0  0  0  0  0  0  0  0  0  0
    4.0482   -5.1042    2.6624 C   0  0  0  0  0  0  0  0  0  0  0  0
    4.5145   -3.9892    3.0680 O   0  0  0  0  0  0  0  0  0  0  0  0
    4.0577   -5.5257    1.2938 C   0  0  0  0  0  0  0  0  0  0  0  0
    4.5870   -4.8358    0.1926 C   0  0  0  0  0  0  0  0  0  0  0  0
    4.3622   -5.4459   -1.0168 C   0  0  0  0  0  0  0  0  0  0  0  0
    3.6375   -6.6672   -1.1534 C   0  0  0  0  0  0  0  0  0  0  0  0
    3.1420   -7.3933   -0.0631 C   0  0  0  0  0  0  0  0  0  0  0  0
    3.3801   -6.7770    1.1918 C   0  0  0  0  0  0  0  0  0  0  0  0
    3.0616   -7.2360    2.5738 C   0  0  0  0  0  0  0  0  0  0  0  0
    2.7567   -8.4900    2.9848 C   0  0  0  0  0  0  0  0  0  0  0  0
    3.0233   -8.8909    4.3477 C   0  0  0  0  0  0  0  0  0  0  0  0
    3.3579   -9.2054    5.4060 N   0  0  0  0  0  0  0  0  0  0  0  0
    2.3402   -9.5358    2.0690 C   0  0  0  0  0  0  0  0  0  0  0  0
    1.9086  -10.3336    1.3628 N   0  0  0  0  0  0  0  0  0  0  0  0
    3.8719   -6.6329   -2.6311 C   0  0  0  0  0  0  0  0  0  0  0  0
    4.8758   -7.6722   -3.2302 C   0  0  0  0  0  0  0  0  0  0  0  0
    5.8445   -8.0387   -2.1345 C   0  0  0  0  0  0  0  0  0  0  0  0
    6.6015   -6.9585   -1.9281 C   0  0  0  0  0  0  0  0  0  0  0  0
    6.1029   -5.8989   -2.8763 C   0  0  0  0  0  0  0  0  0  0  0  0
    5.7636   -6.7684   -4.0604 C   0  0  0  0  0  0  0  0  0  0  0  0
    4.6829   -5.4295   -2.4649 C   0  0  0  0  0  0  0  0  0  0  0  0
    1.8374   -4.3079    4.3507 C   0  0  0  0  0  0  0  0  0  0  0  0
    2.0343   -3.3301    5.3163 C   0  0  0  0  0  0  0  0  0  0  0  0
    1.7265   -2.0188    4.8551 C   0  0  0  0  0  0  0  0  0  0  0  0
    2.4381   -0.9097    5.5103 C   0  0  0  0  0  0  0  0  0  0  0  0
    1.7678    0.1687    6.1203 C   0  0  0  0  0  0  0  0  0  0  0  0
    2.5030    1.1108    6.8519 C   0  0  0  0  0  0  0  0  0  0  0  0
    3.8878    0.9873    6.9677 C   0  0  0  0  0  0  0  0  0  0  0  0
    4.5656   -0.0342    6.3003 C   0  0  0  0  0  0  0  0  0  0  0  0
    3.8445   -0.9830    5.5603 C   0  0  0  0  0  0  0  0  0  0  0  0
    1.2453   -1.9866    3.5610 C   0  0  0  0  0  0  0  0  0  0  0  0
    1.3143   -3.5435    2.9775 S   0  0  0  0  0  0  0  0  0  0  0  0
    0.6808   -0.8738    2.7517 C   0  0  0  0  0  0  0  0  0  0  0  0
   -0.3385   -1.0793    1.8086 C   0  0  0  0  0  0  0  0  0  0  0  0
   -1.5496   -1.8194    2.1622 N   0  0  0  0  0  0  0  0  0  0  0  0
   -1.6429   -3.2224    1.7988 C   0  0  0  0  0  0  0  0  0  0  0  0
   -1.8039   -3.6099    0.4527 C   0  0  0  0  0  0  0  0  0  0  0  0
   -1.9490   -4.9637    0.1281 C   0  0  0  0  0  0  0  0  0  0  0  0
   -1.9229   -5.9477    1.1298 C   0  0  0  0  0  0  0  0  0  0  0  0
   -2.2948   -7.6669    0.7471 S   0  0  0  0  0  0  0  0  0  0  0  0
   -0.5835   -8.2664    0.9063 C   0  0  0  0  0  0  0  0  0  0  0  0
   -1.7578   -5.5614    2.4661 C   0  0  0  0  0  0  0  0  0  0  0  0
   -1.6450   -4.2195    2.8006 C   0  0  0  0  0  0  0  0  0  0  0  0
   -2.5118   -1.2139    3.0710 C   0  0  0  0  0  0  0  0  0  0  0  0
   -2.4488    0.1671    3.4153 C   0  0  0  0  0  0  0  0  0  0  0  0
   -3.3618    0.7485    4.2642 C   0  0  0  0  0  0  0  0  0  0  0  0
   -4.3837   -0.0180    4.8362 C   0  0  0  0  0  0  0  0  0  0  0  0
   -5.5026    0.6981    6.0325 S   0  0  0  0  0  0  0  0  0  0  0  0
   -6.4770    1.6102    4.7852 C   0  0  0  0  0  0  0  0  0  0  0  0
   -4.4847   -1.3796    4.5303 C   0  0  0  0  0  0  0  0  0  0  0  0
   -3.5920   -1.9616    3.6382 C   0  0  0  0  0  0  0  0  0  0  0  0
   -0.3400   -0.0225    0.8764 C   0  0  0  0  0  0  0  0  0  0  0  0
   -1.2473    0.2650   -0.4874 S   0  0  0  0  0  0  0  0  0  0  0  0
   -0.5836    1.8049   -0.7753 C   0  0  0  0  0  0  0  0  0  0  0  0
    0.3607    2.1272    0.2550 C   0  0  0  0  0  0  0  0  0  0  0  0
    0.5997    3.4973    0.6896 N   0  0  0  0  0  0  0  0  0  0  0  0
   -0.5637    4.3198    1.0024 C   0  0  0  0  0  0  0  0  0  0  0  0
   -0.4977    5.7277    0.8896 C   0  0  0  0  0  0  0  0  0  0  0  0
   -1.5791    6.5267    1.3101 C   0  0  0  0  0  0  0  0  0  0  0  0
   -2.7503    5.9325    1.7843 C   0  0  0  0  0  0  0  0  0  0  0  0
   -4.2095    6.9345    2.1385 S   0  0  0  0  0  0  0  0  0  0  0  0
   -3.9953    7.0133    3.9427 C   0  0  0  0  0  0  0  0  0  0  0  0
   -2.8130    4.5348    1.9229 C   0  0  0  0  0  0  0  0  0  0  0  0
   -1.7384    3.7493    1.5070 C   0  0  0  0  0  0  0  0  0  0  0  0
    1.8894    3.9592    1.1431 C   0  0  0  0  0  0  0  0  0  0  0  0
    2.0565    4.4399    2.4445 C   0  0  0  0  0  0  0  0  0  0  0  0
    3.1721    5.2109    2.7786 C   0  0  0  0  0  0  0  0  0  0  0  0
    4.1487    5.5086    1.8248 C   0  0  0  0  0  0  0  0  0  0  0  0
    5.4699    6.6830    2.1926 S   0  0  0  0  0  0  0  0  0  0  0  0
    6.7211    5.3858    2.4507 C   0  0  0  0  0  0  0  0  0  0  0  0
    4.0233    4.9787    0.5351 C   0  0  0  0  0  0  0  0  0  0  0  0
    2.9140    4.1787    0.2145 C   0  0  0  0  0  0  0  0  0  0  0  0
    0.5111    1.0133    1.1102 C   0  0  0  0  0  0  0  0  0  0  0  0
    1.4388    0.6400    2.4600 S   0  0  0  0  0  0  0  0  0  0  0  0
   -0.8816    2.5636   -2.0372 C   0  0  0  0  0  0  0  0  0  0  0  0
   -2.2027    2.5837   -2.5369 C   0  0  0  0  0  0  0  0  0  0  0  0
   -3.2491    2.1109   -1.7418 O   0  0  0  0  0  0  0  0  0  0  0  0
   -4.2153    2.9648   -1.1478 C   0  0  0  0  0  0  0  0  0  0  0  0
   -5.2689    2.1232   -0.4380 C   0  0  0  0  0  0  0  0  0  0  0  0
   -2.4656    3.0659   -3.8443 C   0  0  0  0  0  0  0  0  0  0  0  0
   -3.7795    3.2297   -4.3091 O   0  0  0  0  0  0  0  0  0  0  0  0
   -4.7029    2.1616   -4.5408 C   0  0  0  0  0  0  0  0  0  0  0  0
   -6.1179    2.7063   -4.5427 C   0  0  0  0  0  0  0  0  0  0  0  0
   -1.4004    3.4637   -4.6612 C   0  0  0  0  0  0  0  0  0  0  0  0
   -0.1018    3.5280   -4.1465 C   0  0  0  0  0  0  0  0  0  0  0  0
    0.1744    3.0291   -2.8479 C   0  0  0  0  0  0  0  0  0  0  0  0
    1.4719    2.8913   -2.4749 N   0  0  0  0  0  0  0  0  0  0  0  0
    2.4931    3.2766   -3.2806 C   0  0  0  0  0  0  0  0  0  0  0  0
    2.2110    3.8322   -4.5275 C   0  0  0  0  0  0  0  0  0  0  0  0
    0.9245    3.9232   -4.9356 N   0  0  0  0  0  0  0  0  0  0  0  0
   -1.5948    3.6823   -6.1055 C   0  0  0  0  0  0  0  0  0  0  0  0
   -1.7617    2.7120   -7.0192 C   0  0  0  0  0  0  0  0  0  0  0  0
   -1.9989    3.0285   -8.4286 C   0  0  0  0  0  0  0  0  0  0  0  0
   -1.7747    4.1310   -8.9887 O   0  0  0  0  0  0  0  0  0  0  0  0
   -2.5422    1.8572   -9.0870 C   0  0  0  0  0  0  0  0  0  0  0  0
   -2.9021    1.6920  -10.4212 C   0  0  0  0  0  0  0  0  0  0  0  0
   -3.3471    0.4264  -10.8480 C   0  0  0  0  0  0  0  0  0  0  0  0
   -3.7306    0.2556  -12.1269 F   0  0  0  0  0  0  0  0  0  0  0  0
   -3.3635   -0.6416   -9.9474 C   0  0  0  0  0  0  0  0  0  0  0  0
   -2.9942   -0.4627   -8.6112 C   0  0  0  0  0  0  0  0  0  0  0  0
   -2.6291    0.8235   -8.1761 C   0  0  0  0  0  0  0  0  0  0  0  0
   -2.1247    1.2606   -6.8566 C   0  0  0  0  0  0  0  0  0  0  0  0
   -1.9645    0.4419   -5.7830 C   0  0  0  0  0  0  0  0  0  0  0  0
   -2.9173   -0.5944   -5.5152 C   0  0  0  0  0  0  0  0  0  0  0  0
   -3.7298   -1.3757   -5.3305 N   0  0  0  0  0  0  0  0  0  0  0  0
   -0.8011    0.4752   -4.9393 C   0  0  0  0  0  0  0  0  0  0  0  0
    0.1196    0.4373   -4.2472 N   0  0  0  0  0  0  0  0  0  0  0  0
    1.6731   -6.4135    4.7594 H   0  0  0  0  0  0  0  0  0  0  0  0
    5.1580   -3.9423    0.3102 H   0  0  0  0  0  0  0  0  0  0  0  0
    2.6323   -8.3245   -0.2098 H   0  0  0  0  0  0  0  0  0  0  0  0
    2.9290   -6.4760   -3.2268 H   0  0  0  0  0  0  0  0  0  0  0  0
    4.4128   -8.5251   -3.7526 H   0  0  0  0  0  0  0  0  0  0  0  0
    5.9860   -8.9926   -1.6816 H   0  0  0  0  0  0  0  0  0  0  0  0
    7.4349   -6.8767   -1.2406 H   0  0  0  0  0  0  0  0  0  0  0  0
    6.8085   -5.0687   -3.0813 H   0  0  0  0  0  0  0  0  0  0  0  0
    5.2269   -6.2415   -4.8571 H   0  0  0  0  0  0  0  0  0  0  0  0
    6.6383   -7.2992   -4.4944 H   0  0  0  0  0  0  0  0  0  0  0  0
    4.2794   -4.5418   -2.9935 H   0  0  0  0  0  0  0  0  0  0  0  0
    2.5472   -3.5309    6.2713 H   0  0  0  0  0  0  0  0  0  0  0  0
    0.6966    0.2397    6.0924 H   0  0  0  0  0  0  0  0  0  0  0  0
    1.9956    1.9658    7.2962 H   0  0  0  0  0  0  0  0  0  0  0  0
    4.4433    1.7200    7.5384 H   0  0  0  0  0  0  0  0  0  0  0  0
    5.6508   -0.0794    6.3558 H   0  0  0  0  0  0  0  0  0  0  0  0
    4.3634   -1.7745    5.0351 H   0  0  0  0  0  0  0  0  0  0  0  0
   -1.8450   -2.8704   -0.3320 H   0  0  0  0  0  0  0  0  0  0  0  0
   -2.1269   -5.2587   -0.8981 H   0  0  0  0  0  0  0  0  0  0  0  0
    0.0560   -7.8638    0.0846 H   0  0  0  0  0  0  0  0  0  0  0  0
   -0.1709   -7.9820    1.8949 H   0  0  0  0  0  0  0  0  0  0  0  0
   -0.6082   -9.3746    0.8239 H   0  0  0  0  0  0  0  0  0  0  0  0
   -1.7258   -6.2894    3.2511 H   0  0  0  0  0  0  0  0  0  0  0  0
   -1.4996   -3.9355    3.8323 H   0  0  0  0  0  0  0  0  0  0  0  0
   -1.6731    0.8129    3.0247 H   0  0  0  0  0  0  0  0  0  0  0  0
   -3.2935    1.8189    4.4552 H   0  0  0  0  0  0  0  0  0  0  0  0
   -6.7238    0.9622    3.8983 H   0  0  0  0  0  0  0  0  0  0  0  0
   -7.4269    1.9516    5.2333 H   0  0  0  0  0  0  0  0  0  0  0  0
   -5.9070    2.4875    4.4324 H   0  0  0  0  0  0  0  0  0  0  0  0
   -5.2471   -2.0047    4.9685 H   0  0  0  0  0  0  0  0  0  0  0  0
   -3.7623   -2.9984    3.3759 H   0  0  0  0  0  0  0  0  0  0  0  0
    0.4071    6.2185    0.5312 H   0  0  0  0  0  0  0  0  0  0  0  0
   -1.5079    7.6061    1.1904 H   0  0  0  0  0  0  0  0  0  0  0  0
   -3.9192    8.0929    4.2120 H   0  0  0  0  0  0  0  0  0  0  0  0
   -3.1087    6.4222    4.3149 H   0  0  0  0  0  0  0  0  0  0  0  0
   -4.9063    6.5759    4.4083 H   0  0  0  0  0  0  0  0  0  0  0  0
   -3.7139    4.0751    2.2834 H   0  0  0  0  0  0  0  0  0  0  0  0
   -1.8228    2.6730    1.6405 H   0  0  0  0  0  0  0  0  0  0  0  0
    1.2452    4.3037    3.1609 H   0  0  0  0  0  0  0  0  0  0  0  0
    3.2555    5.6237    3.7829 H   0  0  0  0  0  0  0  0  0  0  0  0
    6.8400    4.7761    1.5326 H   0  0  0  0  0  0  0  0  0  0  0  0
    7.6911    5.8657    2.6715 H   0  0  0  0  0  0  0  0  0  0  0  0
    6.4413    4.7339    3.3063 H   0  0  0  0  0  0  0  0  0  0  0  0
    4.7751    5.2006   -0.1975 H   0  0  0  0  0  0  0  0  0  0  0  0
    2.8350    3.8506   -0.7853 H   0  0  0  0  0  0  0  0  0  0  0  0
   -4.6954    3.5971   -1.9104 H   0  0  0  0  0  0  0  0  0  0  0  0
   -3.7185    3.6329   -0.4273 H   0  0  0  0  0  0  0  0  0  0  0  0
   -5.5998    2.6394    0.4923 H   0  0  0  0  0  0  0  0  0  0  0  0
   -4.8513    1.1278   -0.1558 H   0  0  0  0  0  0  0  0  0  0  0  0
   -6.1625    1.9931   -1.1013 H   0  0  0  0  0  0  0  0  0  0  0  0
   -4.6006    1.3754   -3.7538 H   0  0  0  0  0  0  0  0  0  0  0  0
   -4.4851    1.6949   -5.5265 H   0  0  0  0  0  0  0  0  0  0  0  0
   -6.8206    1.9425   -4.9570 H   0  0  0  0  0  0  0  0  0  0  0  0
   -6.4435    2.9972   -3.5197 H   0  0  0  0  0  0  0  0  0  0  0  0
   -6.1703    3.5986   -5.2187 H   0  0  0  0  0  0  0  0  0  0  0  0
    3.5166    3.1792   -2.9637 H   0  0  0  0  0  0  0  0  0  0  0  0
    3.0137    4.1768   -5.1761 H   0  0  0  0  0  0  0  0  0  0  0  0
   -1.4321    4.6916   -6.4356 H   0  0  0  0  0  0  0  0  0  0  0  0
   -2.8255    2.5121  -11.1327 H   0  0  0  0  0  0  0  0  0  0  0  0
   -3.6679   -1.6228  -10.2908 H   0  0  0  0  0  0  0  0  0  0  0  0
   -2.9783   -1.3156   -7.9520 H   0  0  0  0  0  0  0  0  0  0  0  0
  1  2  2  3
  2  3  1  0
  3  4  2  0
  3  5  1  0
  5  6  2  0
  6  7  1  0
  7  8  2  0
  8  9  1  0
  9 10  2  0
 10 11  1  0
 11 12  2  3
 12 13  1  0
 13 14  3  0
 12 15  1  0
 15 16  3  0
  8 17  1  0
 17 18  1  0
 18 19  1  0
 19 20  2  0
 20 21  1  0
 21 22  1  0
 21 23  1  0
  1 24  1  0
 24 25  2  0
 25 26  1  0
 26 27  1  0
 27 28  2  0
 28 29  1  0
 29 30  2  0
 30 31  1  0
 31 32  2  0
 26 33  2  0
 33 34  1  0
 33 35  1  0
 35 36  2  0
 36 37  1  0
 37 38  1  0
 38 39  2  0
 39 40  1  0
 40 41  2  0
 41 42  1  0
 42 43  1  0
 41 44  1  0
 44 45  2  0
 37 46  1  0
 46 47  2  0
 47 48  1  0
 48 49  2  0
 49 50  1  0
 50 51  1  0
 49 52  1  0
 52 53  2  0
 36 54  1  0
 54 55  1  0
 55 56  1  0
 56 57  2  0
 57 58  1  0
 58 59  1  0
 59 60  2  0
 60 61  1  0
 61 62  2  0
 62 63  1  0
 63 64  1  0
 62 65  1  0
 65 66  2  0
 58 67  1  0
 67 68  2  0
 68 69  1  0
 69 70  2  0
 70 71  1  0
 71 72  1  0
 70 73  1  0
 73 74  2  0
 57 75  1  0
 75 76  1  0
 56 77  1  0
 77 78  2  0
 78 79  1  0
 79 80  1  0
 80 81  1  0
 78 82  1  0
 82 83  1  0
 83 84  1  0
 84 85  1  0
 82 86  2  0
 86 87  1  0
 87 88  2  0
 88 89  1  0
 89 90  2  0
 90 91  1  0
 91 92  2  0
 86 93  1  0
 93 94  2  3
 94 95  1  0
 95 96  2  0
 95 97  1  0
 97 98  2  0
 98 99  1  0
 99100  1  0
 99101  2  0
101102  1  0
102103  2  0
103104  1  0
104105  2  3
105106  1  0
106107  3  0
105108  1  0
108109  3  0
 11  2  1  0
 23 17  1  0
 34 24  1  0
 76 35  1  0
 88 77  1  0
104 94  1  0
 10  5  1  0
 22 18  1  0
 32 27  1  0
 45 38  1  0
 53 46  1  0
 75 54  2  0
 92 87  1  0
103 97  1  0
 23  7  1  0
 66 59  1  0
 74 67  1  0
  1110  1  0
  6111  1  0
  9112  1  0
 17113  1  0
 18114  1  0
 19115  1  0
 20116  1  0
 21117  1  0
 22118  1  0
 22119  1  0
 23120  1  0
 25121  1  0
 28122  1  0
 29123  1  0
 30124  1  0
 31125  1  0
 32126  1  0
 39127  1  0
 40128  1  0
 43129  1  0
 43130  1  0
 43131  1  0
 44132  1  0
 45133  1  0
 47134  1  0
 48135  1  0
 51136  1  0
 51137  1  0
 51138  1  0
 52139  1  0
 53140  1  0
 60141  1  0
 61142  1  0
 64143  1  0
 64144  1  0
 64145  1  0
 65146  1  0
 66147  1  0
 68148  1  0
 69149  1  0
 72150  1  0
 72151  1  0
 72152  1  0
 73153  1  0
 74154  1  0
 80155  1  0
 80156  1  0
 81157  1  0
 81158  1  0
 81159  1  0
 84160  1  0
 84161  1  0
 85162  1  0
 85163  1  0
 85164  1  0
 90165  1  0
 91166  1  0
 93167  1  0
 98168  1  0
101169  1  0
102170  1  0
M  END

