
     RDKit          3D

149162  0  0  0  0  0  0  0  0999 V2000
   -0.4407   -8.2550    4.2700 C   0  0  0  0  0  0  0  0  0  0  0  0
    0.0794   -7.5251    5.2749 C   0  0  0  0  0  0  0  0  0  0  0  0
    0.5613   -6.1448    5.1330 C   0  0  0  0  0  0  0  0  0  0  0  0
    0.1607   -5.2962    4.2895 O   0  0  0  0  0  0  0  0  0  0  0  0
    1.6215   -5.9240    6.0887 C   0  0  0  0  0  0  0  0  0  0  0  0
    2.5533   -4.8611    6.0733 C   0  0  0  0  0  0  0  0  0  0  0  0
    3.6484   -5.0655    6.8885 C   0  0  0  0  0  0  0  0  0  0  0  0
    3.8250   -6.2409    7.6857 C   0  0  0  0  0  0  0  0  0  0  0  0
    2.9038   -7.2789    7.7234 C   0  0  0  0  0  0  0  0  0  0  0  0
    1.7606   -7.0855    6.8945 C   0  0  0  0  0  0  0  0  0  0  0  0
    0.7031   -8.0672    6.5185 C   0  0  0  0  0  0  0  0  0  0  0  0
    0.3093   -9.1618    7.2245 C   0  0  0  0  0  0  0  0  0  0  0  0
    0.9192   -9.5286    8.4759 C   0  0  0  0  0  0  0  0  0  0  0  0
    1.4049   -9.8348    9.4809 N   0  0  0  0  0  0  0  0  0  0  0  0
   -0.7645  -10.0099    6.7738 C   0  0  0  0  0  0  0  0  0  0  0  0
   -1.5977  -10.6966    6.3660 N   0  0  0  0  0  0  0  0  0  0  0  0
    5.1809   -5.7700    8.1132 C   0  0  0  0  0  0  0  0  0  0  0  0
    5.3482   -5.2188    9.5581 C   0  0  0  0  0  0  0  0  0  0  0  0
    4.0591   -4.5892   10.0240 C   0  0  0  0  0  0  0  0  0  0  0  0
    3.8884   -3.4877    9.2925 C   0  0  0  0  0  0  0  0  0  0  0  0
    5.0673   -3.4074    8.3514 C   0  0  0  0  0  0  0  0  0  0  0  0
    6.1428   -3.9622    9.2652 C   0  0  0  0  0  0  0  0  0  0  0  0
    4.9968   -4.5584    7.3063 C   0  0  0  0  0  0  0  0  0  0  0  0
   -0.5076   -7.7337    2.8981 C   0  0  0  0  0  0  0  0  0  0  0  0
   -1.6237   -6.9894    2.4524 C   0  0  0  0  0  0  0  0  0  0  0  0
   -1.5408   -6.3747    1.1955 C   0  0  0  0  0  0  0  0  0  0  0  0
   -2.4234   -5.5178    0.6190 N   0  0  0  0  0  0  0  0  0  0  0  0
   -3.6781   -5.0248    1.1944 C   0  0  0  0  0  0  0  0  0  0  0  0
   -3.4188   -3.8085    2.0717 C   0  0  0  0  0  0  0  0  0  0  0  0
   -1.7935   -5.0522   -0.4925 C   0  0  0  0  0  0  0  0  0  0  0  0
   -0.5514   -5.6335   -0.6293 C   0  0  0  0  0  0  0  0  0  0  0  0
   -0.3972   -6.4881    0.4319 C   0  0  0  0  0  0  0  0  0  0  0  0
    0.6993   -7.2434    0.8306 C   0  0  0  0  0  0  0  0  0  0  0  0
    0.6300   -7.8833    2.0724 C   0  0  0  0  0  0  0  0  0  0  0  0
    0.3558   -5.2281   -1.5985 C   0  0  0  0  0  0  0  0  0  0  0  0
   -0.0249   -4.1854   -2.4524 C   0  0  0  0  0  0  0  0  0  0  0  0
   -1.3100   -3.5865   -2.3642 C   0  0  0  0  0  0  0  0  0  0  0  0
   -2.2128   -4.0433   -1.3679 C   0  0  0  0  0  0  0  0  0  0  0  0
   -1.6497   -2.4671   -3.2961 C   0  0  0  0  0  0  0  0  0  0  0  0
   -1.2505   -2.5508   -4.6422 C   0  0  0  0  0  0  0  0  0  0  0  0
   -0.7597   -3.7125   -5.1476 F   0  0  0  0  0  0  0  0  0  0  0  0
   -1.3259   -1.4417   -5.4824 C   0  0  0  0  0  0  0  0  0  0  0  0
   -0.8325   -1.5619   -6.7397 F   0  0  0  0  0  0  0  0  0  0  0  0
   -1.8559   -0.2216   -5.0245 C   0  0  0  0  0  0  0  0  0  0  0  0
   -2.4361   -0.1853   -3.7386 C   0  0  0  0  0  0  0  0  0  0  0  0
   -3.1597    0.8923   -3.3316 N   0  0  0  0  0  0  0  0  0  0  0  0
   -3.7312    0.9628   -2.0979 C   0  0  0  0  0  0  0  0  0  0  0  0
   -4.6217    2.1459   -1.8041 C   0  0  0  0  0  0  0  0  0  0  0  0
   -4.0029    3.1222   -0.8103 C   0  0  0  0  0  0  0  0  0  0  0  0
   -3.5193   -0.1057   -1.1908 C   0  0  0  0  0  0  0  0  0  0  0  0
   -2.8083   -1.1845   -1.6104 N   0  0  0  0  0  0  0  0  0  0  0  0
   -2.2975   -1.2851   -2.8642 C   0  0  0  0  0  0  0  0  0  0  0  0
   -4.0307   -0.1183    0.2257 C   0  0  0  0  0  0  0  0  0  0  0  0
   -2.9049    0.2276    1.1975 C   0  0  0  0  0  0  0  0  0  0  0  0
   -1.7113    1.0026   -5.8690 C   0  0  0  0  0  0  0  0  0  0  0  0
   -1.0822    2.1746   -5.3798 C   0  0  0  0  0  0  0  0  0  0  0  0
   -0.8397    2.3435   -4.0518 N   0  0  0  0  0  0  0  0  0  0  0  0
   -0.2414    3.4615   -3.5554 C   0  0  0  0  0  0  0  0  0  0  0  0
   -0.2684    3.6868   -2.0839 C   0  0  0  0  0  0  0  0  0  0  0  0
    0.0447    2.6420   -1.1944 C   0  0  0  0  0  0  0  0  0  0  0  0
   -0.0484    2.8444    0.1911 C   0  0  0  0  0  0  0  0  0  0  0  0
   -0.4487    4.0873    0.7006 C   0  0  0  0  0  0  0  0  0  0  0  0
   -0.5321    4.3100    2.0790 O   0  0  0  0  0  0  0  0  0  0  0  0
   -1.5873    3.7834    2.8754 C   0  0  0  0  0  0  0  0  0  0  0  0
   -2.8849    4.5417    2.6186 C   0  0  0  0  0  0  0  0  0  0  0  0
   -0.7679    5.1229   -0.1788 C   0  0  0  0  0  0  0  0  0  0  0  0
   -0.7183    4.9155   -1.5577 C   0  0  0  0  0  0  0  0  0  0  0  0
   -1.1998    5.8885   -2.3683 F   0  0  0  0  0  0  0  0  0  0  0  0
   -1.1800    6.3225    0.3071 F   0  0  0  0  0  0  0  0  0  0  0  0
    0.2576    1.8301    1.0346 F   0  0  0  0  0  0  0  0  0  0  0  0
    0.4362    1.4295   -1.6638 F   0  0  0  0  0  0  0  0  0  0  0  0
    0.2539    4.4274   -4.4692 C   0  0  0  0  0  0  0  0  0  0  0  0
    1.0545    5.5992   -4.0366 C   0  0  0  0  0  0  0  0  0  0  0  0
    0.6620    6.8940   -4.4128 C   0  0  0  0  0  0  0  0  0  0  0  0
   -0.4077    7.0771   -5.2293 F   0  0  0  0  0  0  0  0  0  0  0  0
    1.3153    8.0068   -3.8865 C   0  0  0  0  0  0  0  0  0  0  0  0
    0.8751    9.2517   -4.2025 F   0  0  0  0  0  0  0  0  0  0  0  0
    2.3952    7.8581   -3.0058 C   0  0  0  0  0  0  0  0  0  0  0  0
    2.9467    9.0250   -2.4537 O   0  0  0  0  0  0  0  0  0  0  0  0
    4.0691    9.0851   -1.5793 C   0  0  0  0  0  0  0  0  0  0  0  0
    4.2747   10.5204   -1.1224 C   0  0  0  0  0  0  0  0  0  0  0  0
    2.8566    6.5553   -2.7055 C   0  0  0  0  0  0  0  0  0  0  0  0
    3.9391    6.3509   -1.9140 F   0  0  0  0  0  0  0  0  0  0  0  0
    2.1830    5.4396   -3.2124 C   0  0  0  0  0  0  0  0  0  0  0  0
    2.6307    4.2000   -2.8928 F   0  0  0  0  0  0  0  0  0  0  0  0
   -0.0342    4.2855   -5.7896 N   0  0  0  0  0  0  0  0  0  0  0  0
   -0.7195    3.2097   -6.2670 C   0  0  0  0  0  0  0  0  0  0  0  0
   -1.0364    3.1157   -7.6299 C   0  0  0  0  0  0  0  0  0  0  0  0
   -1.7181    1.9863   -8.1038 C   0  0  0  0  0  0  0  0  0  0  0  0
   -2.0456    0.9435   -7.2344 C   0  0  0  0  0  0  0  0  0  0  0  0
   -0.7292    4.2295   -8.5493 C   0  0  0  0  0  0  0  0  0  0  0  0
    0.1358    4.1599   -9.5791 C   0  0  0  0  0  0  0  0  0  0  0  0
    0.2426    5.3035  -10.4528 C   0  0  0  0  0  0  0  0  0  0  0  0
    0.3336    6.2203  -11.1550 N   0  0  0  0  0  0  0  0  0  0  0  0
    1.0263    3.0027   -9.8337 C   0  0  0  0  0  0  0  0  0  0  0  0
    1.6329    2.9155  -10.9370 O   0  0  0  0  0  0  0  0  0  0  0  0
    1.2376    2.0357   -8.8451 O   0  0  0  0  0  0  0  0  0  0  0  0
    2.1328    0.9440   -9.0143 C   0  0  0  0  0  0  0  0  0  0  0  0
    2.1235    0.0833   -7.7632 C   0  0  0  0  0  0  0  0  0  0  0  0
   -0.5549   -9.3237    4.3653 H   0  0  0  0  0  0  0  0  0  0  0  0
    2.4667   -4.0102    5.4110 H   0  0  0  0  0  0  0  0  0  0  0  0
    3.1177   -8.1896    8.2580 H   0  0  0  0  0  0  0  0  0  0  0  0
    6.0109   -6.4183    7.7542 H   0  0  0  0  0  0  0  0  0  0  0  0
    5.8132   -5.9207   10.2768 H   0  0  0  0  0  0  0  0  0  0  0  0
    3.4269   -4.9146   10.8437 H   0  0  0  0  0  0  0  0  0  0  0  0
    3.0918   -2.7606    9.4160 H   0  0  0  0  0  0  0  0  0  0  0  0
    5.2681   -2.3967    7.9367 H   0  0  0  0  0  0  0  0  0  0  0  0
    6.3283   -3.3337   10.1665 H   0  0  0  0  0  0  0  0  0  0  0  0
    7.1099   -4.1564    8.7446 H   0  0  0  0  0  0  0  0  0  0  0  0
    5.7165   -4.4684    6.4607 H   0  0  0  0  0  0  0  0  0  0  0  0
   -2.4814   -6.8471    3.0949 H   0  0  0  0  0  0  0  0  0  0  0  0
   -4.1636   -5.8234    1.7944 H   0  0  0  0  0  0  0  0  0  0  0  0
   -4.3918   -4.7603    0.3846 H   0  0  0  0  0  0  0  0  0  0  0  0
   -4.3770   -3.4283    2.4827 H   0  0  0  0  0  0  0  0  0  0  0  0
   -2.9424   -3.0032    1.4763 H   0  0  0  0  0  0  0  0  0  0  0  0
   -2.7528   -4.0834    2.9142 H   0  0  0  0  0  0  0  0  0  0  0  0
    1.5901   -7.3099    0.2216 H   0  0  0  0  0  0  0  0  0  0  0  0
    1.4817   -8.4491    2.4241 H   0  0  0  0  0  0  0  0  0  0  0  0
    1.3472   -5.6609   -1.6608 H   0  0  0  0  0  0  0  0  0  0  0  0
    0.7016   -3.8216   -3.1668 H   0  0  0  0  0  0  0  0  0  0  0  0
   -3.2033   -3.6248   -1.2753 H   0  0  0  0  0  0  0  0  0  0  0  0
   -5.6143    1.8002   -1.4451 H   0  0  0  0  0  0  0  0  0  0  0  0
   -4.8083    2.6993   -2.7539 H   0  0  0  0  0  0  0  0  0  0  0  0
   -4.1384    2.7562    0.2264 H   0  0  0  0  0  0  0  0  0  0  0  0
   -4.5127    4.1037   -0.8896 H   0  0  0  0  0  0  0  0  0  0  0  0
   -2.9261    3.2598   -1.0201 H   0  0  0  0  0  0  0  0  0  0  0  0
   -4.8813    0.5728    0.3763 H   0  0  0  0  0  0  0  0  0  0  0  0
   -4.4064   -1.1366    0.4659 H   0  0  0  0  0  0  0  0  0  0  0  0
   -2.4921    1.2306    0.9691 H   0  0  0  0  0  0  0  0  0  0  0  0
   -3.2938    0.2294    2.2365 H   0  0  0  0  0  0  0  0  0  0  0  0
   -2.0844   -0.5213    1.1222 H   0  0  0  0  0  0  0  0  0  0  0  0
   -1.3154    3.8936    3.9441 H   0  0  0  0  0  0  0  0  0  0  0  0
   -1.7305    2.7004    2.6655 H   0  0  0  0  0  0  0  0  0  0  0  0
   -3.1657    4.4781    1.5501 H   0  0  0  0  0  0  0  0  0  0  0  0
   -2.7601    5.6140    2.8874 H   0  0  0  0  0  0  0  0  0  0  0  0
   -3.7036    4.1080    3.2321 H   0  0  0  0  0  0  0  0  0  0  0  0
    3.8891    8.4566   -0.6797 H   0  0  0  0  0  0  0  0  0  0  0  0
    4.9769    8.7351   -2.1156 H   0  0  0  0  0  0  0  0  0  0  0  0
    5.2684   10.6262   -0.6431 H   0  0  0  0  0  0  0  0  0  0  0  0
    4.2258   11.2108   -1.9871 H   0  0  0  0  0  0  0  0  0  0  0  0
    3.4922   10.7980   -0.3848 H   0  0  0  0  0  0  0  0  0  0  0  0
   -1.9912    1.9122   -9.1476 H   0  0  0  0  0  0  0  0  0  0  0  0
   -2.5487    0.0747   -7.6382 H   0  0  0  0  0  0  0  0  0  0  0  0
   -1.2699    5.1511   -8.3734 H   0  0  0  0  0  0  0  0  0  0  0  0
    1.8167    0.3305   -9.8884 H   0  0  0  0  0  0  0  0  0  0  0  0
    3.1628    1.3265   -9.1893 H   0  0  0  0  0  0  0  0  0  0  0  0
    2.4123    0.6909   -6.8803 H   0  0  0  0  0  0  0  0  0  0  0  0
    1.1046   -0.3239   -7.6066 H   0  0  0  0  0  0  0  0  0  0  0  0
    2.8350   -0.7593   -7.8788 H   0  0  0  0  0  0  0  0  0  0  0  0
  1  2  2  3
  2  3  1  0
  3  4  2  0
  3  5  1  0
  5  6  2  0
  6  7  1  0
  7  8  2  0
  8  9  1  0
  9 10  2  0
 10 11  1  0
 11 12  2  3
 12 13  1  0
 13 14  3  0
 12 15  1  0
 15 16  3  0
  8 17  1  0
 17 18  1  0
 18 19  1  0
 19 20  2  0
 20 21  1  0
 21 22  1  0
 21 23  1  0
  1 24  1  0
 24 25  2  0
 25 26  1  0
 26 27  1  0
 27 28  1  0
 28 29  1  0
 27 30  1  0
 30 31  2  0
 31 32  1  0
 32 33  1  0
 33 34  2  0
 31 35  1  0
 35 36  2  0
 36 37  1  0
 37 38  2  0
 37 39  1  0
 39 40  2  0
 40 41  1  0
 40 42  1  0
 42 43  1  0
 42 44  2  0
 44 45  1  0
 45 46  2  0
 46 47  1  0
 47 48  1  0
 48 49  1  0
 47 50  2  0
 50 51  1  0
 51 52  2  0
 50 53  1  0
 53 54  1  0
 44 55  1  0
 55 56  1  0
 56 57  2  0
 57 58  1  0
 58 59  1  0
 59 60  2  0
 60 61  1  0
 61 62  2  0
 62 63  1  0
 63 64  1  0
 64 65  1  0
 62 66  1  0
 66 67  2  0
 67 68  1  0
 66 69  1  0
 61 70  1  0
 60 71  1  0
 58 72  2  0
 72 73  1  0
 73 74  2  0
 74 75  1  0
 74 76  1  0
 76 77  1  0
 76 78  2  0
 78 79  1  0
 79 80  1  0
 80 81  1  0
 78 82  1  0
 82 83  1  0
 82 84  2  0
 84 85  1  0
 72 86  1  0
 86 87  2  0
 87 88  1  0
 88 89  2  0
 89 90  1  0
 88 91  1  0
 91 92  2  3
 92 93  1  0
 93 94  3  0
 92 95  1  0
 95 96  2  0
 95 97  1  0
 97 98  1  0
 98 99  1  0
 11  2  1  0
 23 17  1  0
 34 24  1  0
 52 39  1  0
 90 55  2  0
 10  5  1  0
 22 18  1  0
 32 26  2  0
 52 45  1  0
 87 56  1  0
 23  7  1  0
 38 30  1  0
 67 59  1  0
 84 73  1  0
  1100  1  0
  6101  1  0
  9102  1  0
 17103  1  0
 18104  1  0
 19105  1  0
 20106  1  0
 21107  1  0
 22108  1  0
 22109  1  0
 23110  1  0
 25111  1  0
 28112  1  0
 28113  1  0
 29114  1  0
 29115  1  0
 29116  1  0
 33117  1  0
 34118  1  0
 35119  1  0
 36120  1  0
 38121  1  0
 48122  1  0
 48123  1  0
 49124  1  0
 49125  1  0
 49126  1  0
 53127  1  0
 53128  1  0
 54129  1  0
 54130  1  0
 54131  1  0
 64132  1  0
 64133  1  0
 65134  1  0
 65135  1  0
 65136  1  0
 80137  1  0
 80138  1  0
 81139  1  0
 81140  1  0
 81141  1  0
 89142  1  0
 90143  1  0
 91144  1  0
 98145  1  0
 98146  1  0
 99147  1  0
 99148  1  0
 99149  1  0
M  END

