
     RDKit          3D

217239  0  0  0  0  0  0  0  0999 V2000
   -1.9957    1.5281   -5.5555 C   0  0  0  0  0  0  0  0  0  0  0  0
   -1.7410    2.4409   -4.5880 C   0  0  0  0  0  0  0  0  0  0  0  0
   -0.8999    2.2114   -3.3975 C   0  0  0  0  0  0  0  0  0  0  0  0
   -0.5484    1.1017   -2.9203 O   0  0  0  0  0  0  0  0  0  0  0  0
   -0.4729    3.4861   -2.8733 C   0  0  0  0  0  0  0  0  0  0  0  0
    0.4196    3.6976   -1.7985 C   0  0  0  0  0  0  0  0  0  0  0  0
    0.7063    5.0279   -1.5703 C   0  0  0  0  0  0  0  0  0  0  0  0
    0.1686    6.0912   -2.3636 C   0  0  0  0  0  0  0  0  0  0  0  0
   -0.6956    5.8857   -3.4260 C   0  0  0  0  0  0  0  0  0  0  0  0
   -1.0445    4.5224   -3.6522 C   0  0  0  0  0  0  0  0  0  0  0  0
   -1.9486    3.9191   -4.6749 C   0  0  0  0  0  0  0  0  0  0  0  0
   -2.9319    4.5512   -5.3584 C   0  0  0  0  0  0  0  0  0  0  0  0
   -3.9162    3.8348   -6.1230 C   0  0  0  0  0  0  0  0  0  0  0  0
   -4.7148    3.2673   -6.7395 N   0  0  0  0  0  0  0  0  0  0  0  0
   -3.1504    5.9719   -5.2625 C   0  0  0  0  0  0  0  0  0  0  0  0
   -3.3441    7.1106   -5.1911 N   0  0  0  0  0  0  0  0  0  0  0  0
    0.9194    7.1003   -1.5475 C   0  0  0  0  0  0  0  0  0  0  0  0
    2.1904    7.7571   -2.1751 C   0  0  0  0  0  0  0  0  0  0  0  0
    2.8525    6.7960   -3.1297 C   0  0  0  0  0  0  0  0  0  0  0  0
    3.3500    5.8052   -2.3921 C   0  0  0  0  0  0  0  0  0  0  0  0
    3.0049    6.1183   -0.9543 C   0  0  0  0  0  0  0  0  0  0  0  0
    3.1497    7.6288   -1.0067 C   0  0  0  0  0  0  0  0  0  0  0  0
    1.4656    6.0097   -0.7308 C   0  0  0  0  0  0  0  0  0  0  0  0
   -1.5678    0.1291   -5.4304 C   0  0  0  0  0  0  0  0  0  0  0  0
   -0.2554   -0.2861   -5.6986 C   0  0  0  0  0  0  0  0  0  0  0  0
    0.6445    0.4207   -6.5620 N   0  0  0  0  0  0  0  0  0  0  0  0
    1.6173    1.3396   -6.0400 C   0  0  0  0  0  0  0  0  0  0  0  0
    1.3209    2.7054   -5.9222 C   0  0  0  0  0  0  0  0  0  0  0  0
    2.2911    3.6049   -5.4669 C   0  0  0  0  0  0  0  0  0  0  0  0
    3.5747    3.1460   -5.1536 C   0  0  0  0  0  0  0  0  0  0  0  0
    3.8852    1.7910   -5.2889 C   0  0  0  0  0  0  0  0  0  0  0  0
    2.9134    0.8911   -5.7396 C   0  0  0  0  0  0  0  0  0  0  0  0
    0.5462    0.2055   -7.9805 C   0  0  0  0  0  0  0  0  0  0  0  0
    0.6683   -1.0891   -8.5049 C   0  0  0  0  0  0  0  0  0  0  0  0
    0.5785   -1.3055   -9.8838 C   0  0  0  0  0  0  0  0  0  0  0  0
    0.3377   -0.2331  -10.7460 C   0  0  0  0  0  0  0  0  0  0  0  0
    0.1984    1.0617  -10.2266 C   0  0  0  0  0  0  0  0  0  0  0  0
    0.3067    1.2821   -8.8523 C   0  0  0  0  0  0  0  0  0  0  0  0
    0.0910   -1.4003   -4.9355 C   0  0  0  0  0  0  0  0  0  0  0  0
    1.5631   -1.9164   -4.3430 S   0  0  0  0  0  0  0  0  0  0  0  0
    0.9493   -2.7168   -2.9678 C   0  0  0  0  0  0  0  0  0  0  0  0
   -0.4600   -2.6274   -3.0325 C   0  0  0  0  0  0  0  0  0  0  0  0
   -1.3811   -3.2405   -2.1093 N   0  0  0  0  0  0  0  0  0  0  0  0
   -2.1834   -2.3800   -1.2661 C   0  0  0  0  0  0  0  0  0  0  0  0
   -3.5900   -2.4663   -1.2757 C   0  0  0  0  0  0  0  0  0  0  0  0
   -4.3598   -1.6367   -0.4512 C   0  0  0  0  0  0  0  0  0  0  0  0
   -3.7360   -0.6964    0.3713 C   0  0  0  0  0  0  0  0  0  0  0  0
   -2.3438   -0.5783    0.3653 C   0  0  0  0  0  0  0  0  0  0  0  0
   -1.5710   -1.4116   -0.4489 C   0  0  0  0  0  0  0  0  0  0  0  0
   -1.7668   -4.6254   -2.3374 C   0  0  0  0  0  0  0  0  0  0  0  0
   -1.5188   -5.2605   -3.5798 C   0  0  0  0  0  0  0  0  0  0  0  0
   -1.9124   -6.5833   -3.7950 C   0  0  0  0  0  0  0  0  0  0  0  0
   -2.5407   -7.3047   -2.7797 C   0  0  0  0  0  0  0  0  0  0  0  0
   -2.7890   -6.6980   -1.5481 C   0  0  0  0  0  0  0  0  0  0  0  0
   -2.4171   -5.3690   -1.3284 C   0  0  0  0  0  0  0  0  0  0  0  0
   -0.8937   -1.8710   -4.1193 C   0  0  0  0  0  0  0  0  0  0  0  0
   -2.2719   -0.9294   -4.3009 S   0  0  0  0  0  0  0  0  0  0  0  0
    1.6749   -2.5542   -1.6965 C   0  0  0  0  0  0  0  0  0  0  0  0
    1.6440   -3.3866   -0.5613 C   0  0  0  0  0  0  0  0  0  0  0  0
    1.3982   -4.8086   -0.6011 N   0  0  0  0  0  0  0  0  0  0  0  0
    0.7442   -5.4799    0.4977 C   0  0  0  0  0  0  0  0  0  0  0  0
   -0.3692   -4.8992    1.1320 C   0  0  0  0  0  0  0  0  0  0  0  0
   -1.0607   -5.5956    2.1286 C   0  0  0  0  0  0  0  0  0  0  0  0
   -0.6241   -6.8647    2.5274 C   0  0  0  0  0  0  0  0  0  0  0  0
   -1.5492   -7.7902    3.7558 S   0  0  0  0  0  0  0  0  0  0  0  0
   -2.3843   -8.8308    2.5125 C   0  0  0  0  0  0  0  0  0  0  0  0
    0.5230   -7.4188    1.9524 C   0  0  0  0  0  0  0  0  0  0  0  0
    1.1971   -6.7352    0.9399 C   0  0  0  0  0  0  0  0  0  0  0  0
    1.9430   -5.5700   -1.7040 C   0  0  0  0  0  0  0  0  0  0  0  0
    3.2111   -5.2596   -2.2325 C   0  0  0  0  0  0  0  0  0  0  0  0
    3.6983   -5.9372   -3.3504 C   0  0  0  0  0  0  0  0  0  0  0  0
    2.9307   -6.9402   -3.9503 C   0  0  0  0  0  0  0  0  0  0  0  0
    3.5322   -7.7507   -5.4343 S   0  0  0  0  0  0  0  0  0  0  0  0
    2.8364   -6.4890   -6.5430 C   0  0  0  0  0  0  0  0  0  0  0  0
    1.6929   -7.2929   -3.4055 C   0  0  0  0  0  0  0  0  0  0  0  0
    1.2091   -6.6182   -2.2798 C   0  0  0  0  0  0  0  0  0  0  0  0
    2.1468   -2.7138    0.5547 C   0  0  0  0  0  0  0  0  0  0  0  0
    2.1172   -2.9808    2.2074 S   0  0  0  0  0  0  0  0  0  0  0  0
    2.6578   -1.4191    2.6475 C   0  0  0  0  0  0  0  0  0  0  0  0
    2.9284   -0.7007    1.4578 C   0  0  0  0  0  0  0  0  0  0  0  0
    3.5854    0.5891    1.3699 N   0  0  0  0  0  0  0  0  0  0  0  0
    4.5051    0.8562    0.2853 C   0  0  0  0  0  0  0  0  0  0  0  0
    4.4976    2.1075   -0.3601 C   0  0  0  0  0  0  0  0  0  0  0  0
    5.3778    2.3636   -1.4131 C   0  0  0  0  0  0  0  0  0  0  0  0
    6.2650    1.3716   -1.8467 C   0  0  0  0  0  0  0  0  0  0  0  0
    7.3789    1.7018   -3.2132 S   0  0  0  0  0  0  0  0  0  0  0  0
    8.7215    2.2848   -2.1333 C   0  0  0  0  0  0  0  0  0  0  0  0
    6.2815    0.1252   -1.2105 C   0  0  0  0  0  0  0  0  0  0  0  0
    5.4160   -0.1275   -0.1382 C   0  0  0  0  0  0  0  0  0  0  0  0
    3.4401    1.5908    2.3923 C   0  0  0  0  0  0  0  0  0  0  0  0
    4.5729    2.0539    3.0804 C   0  0  0  0  0  0  0  0  0  0  0  0
    4.4632    3.1137    3.9874 C   0  0  0  0  0  0  0  0  0  0  0  0
    3.2247    3.7256    4.1970 C   0  0  0  0  0  0  0  0  0  0  0  0
    3.1024    5.1197    5.3197 S   0  0  0  0  0  0  0  0  0  0  0  0
    2.6949    4.0801    6.7507 C   0  0  0  0  0  0  0  0  0  0  0  0
    2.0922    3.2655    3.5131 C   0  0  0  0  0  0  0  0  0  0  0  0
    2.1987    2.1985    2.6146 C   0  0  0  0  0  0  0  0  0  0  0  0
    2.5809   -1.4496    0.3326 C   0  0  0  0  0  0  0  0  0  0  0  0
    2.3438   -1.0472   -1.2702 S   0  0  0  0  0  0  0  0  0  0  0  0
    2.0499   -0.7767    3.8180 C   0  0  0  0  0  0  0  0  0  0  0  0
    0.6539   -0.5590    3.7868 C   0  0  0  0  0  0  0  0  0  0  0  0
    0.0093    0.0821    4.8444 C   0  0  0  0  0  0  0  0  0  0  0  0
    0.7806    0.5799    5.8949 C   0  0  0  0  0  0  0  0  0  0  0  0
    0.3377    1.1899    7.1547 C   0  0  0  0  0  0  0  0  0  0  0  0
    1.5228    1.1000    8.0140 C   0  0  0  0  0  0  0  0  0  0  0  0
    1.6015    1.4925    9.2083 O   0  0  0  0  0  0  0  0  0  0  0  0
    2.6440    0.6044    7.2767 N   0  0  0  0  0  0  0  0  0  0  0  0
    3.9507    0.2535    7.8194 C   0  0  0  0  0  0  0  0  0  0  0  0
    2.1231    0.2693    5.9890 C   0  0  0  0  0  0  0  0  0  0  0  0
    2.7939   -0.4008    4.9566 C   0  0  0  0  0  0  0  0  0  0  0  0
   -0.8326    1.8115    7.4032 C   0  0  0  0  0  0  0  0  0  0  0  0
   -1.5297    1.9254    8.6908 C   0  0  0  0  0  0  0  0  0  0  0  0
   -1.0247    1.7007    9.8221 O   0  0  0  0  0  0  0  0  0  0  0  0
   -2.9081    2.2529    8.4971 N   0  0  0  0  0  0  0  0  0  0  0  0
   -3.8242    2.7064    9.5349 C   0  0  0  0  0  0  0  0  0  0  0  0
   -3.0357    2.4774    7.0931 C   0  0  0  0  0  0  0  0  0  0  0  0
   -4.1677    2.9436    6.4110 C   0  0  0  0  0  0  0  0  0  0  0  0
   -4.0526    3.2217    5.0323 C   0  0  0  0  0  0  0  0  0  0  0  0
   -2.8002    3.1356    4.4001 C   0  0  0  0  0  0  0  0  0  0  0  0
   -1.6800    2.6675    5.1035 C   0  0  0  0  0  0  0  0  0  0  0  0
   -1.8422    2.2594    6.4319 C   0  0  0  0  0  0  0  0  0  0  0  0
   -5.2353    3.5884    4.2402 C   0  0  0  0  0  0  0  0  0  0  0  0
   -6.1237    2.6711    3.8103 C   0  0  0  0  0  0  0  0  0  0  0  0
   -5.9771    1.2149    3.9482 C   0  0  0  0  0  0  0  0  0  0  0  0
   -5.1305    0.6149    4.6657 O   0  0  0  0  0  0  0  0  0  0  0  0
   -6.8974    0.5704    3.0331 C   0  0  0  0  0  0  0  0  0  0  0  0
   -7.0128   -0.7933    2.7188 C   0  0  0  0  0  0  0  0  0  0  0  0
   -6.3209   -1.7697    3.4358 O   0  0  0  0  0  0  0  0  0  0  0  0
   -6.6447   -2.0808    4.7874 C   0  0  0  0  0  0  0  0  0  0  0  0
   -7.8246   -1.1597    1.6374 C   0  0  0  0  0  0  0  0  0  0  0  0
   -8.5088   -0.1823    0.8973 C   0  0  0  0  0  0  0  0  0  0  0  0
   -8.4011    1.1762    1.2397 C   0  0  0  0  0  0  0  0  0  0  0  0
   -7.6051    1.5429    2.3403 C   0  0  0  0  0  0  0  0  0  0  0  0
   -7.2624    2.8915    2.8721 C   0  0  0  0  0  0  0  0  0  0  0  0
   -7.9895    4.0309    2.7286 C   0  0  0  0  0  0  0  0  0  0  0  0
   -9.1985    4.0813    1.9446 C   0  0  0  0  0  0  0  0  0  0  0  0
  -10.1695    4.1382    1.3199 N   0  0  0  0  0  0  0  0  0  0  0  0
   -7.6927    5.2309    3.4645 C   0  0  0  0  0  0  0  0  0  0  0  0
   -7.4675    6.2018    4.0534 N   0  0  0  0  0  0  0  0  0  0  0  0
   -2.3968    1.8301   -6.5109 H   0  0  0  0  0  0  0  0  0  0  0  0
    0.8597    2.8949   -1.2179 H   0  0  0  0  0  0  0  0  0  0  0  0
   -1.0360    6.7108   -4.0294 H   0  0  0  0  0  0  0  0  0  0  0  0
    0.2660    7.7929   -0.9794 H   0  0  0  0  0  0  0  0  0  0  0  0
    2.0530    8.7856   -2.5677 H   0  0  0  0  0  0  0  0  0  0  0  0
    3.0009    6.9225   -4.1935 H   0  0  0  0  0  0  0  0  0  0  0  0
    3.9564    4.9885   -2.7568 H   0  0  0  0  0  0  0  0  0  0  0  0
    3.6273    5.6020   -0.1995 H   0  0  0  0  0  0  0  0  0  0  0  0
    4.1863    7.9679   -1.2438 H   0  0  0  0  0  0  0  0  0  0  0  0
    2.7984    8.1388   -0.0777 H   0  0  0  0  0  0  0  0  0  0  0  0
    1.1428    6.0470    0.3336 H   0  0  0  0  0  0  0  0  0  0  0  0
    0.3501    3.0815   -6.2107 H   0  0  0  0  0  0  0  0  0  0  0  0
    2.0518    4.6524   -5.3760 H   0  0  0  0  0  0  0  0  0  0  0  0
    4.3317    3.8435   -4.8269 H   0  0  0  0  0  0  0  0  0  0  0  0
    4.8811    1.4418   -5.0598 H   0  0  0  0  0  0  0  0  0  0  0  0
    3.1801   -0.1458   -5.8798 H   0  0  0  0  0  0  0  0  0  0  0  0
    0.8472   -1.9298   -7.8488 H   0  0  0  0  0  0  0  0  0  0  0  0
    0.6969   -2.3065  -10.2843 H   0  0  0  0  0  0  0  0  0  0  0  0
    0.2534   -0.4001  -11.8121 H   0  0  0  0  0  0  0  0  0  0  0  0
   -0.0029    1.8901  -10.8913 H   0  0  0  0  0  0  0  0  0  0  0  0
    0.1820    2.2853   -8.4703 H   0  0  0  0  0  0  0  0  0  0  0  0
   -4.0931   -3.1735   -1.9193 H   0  0  0  0  0  0  0  0  0  0  0  0
   -5.4382   -1.7195   -0.4541 H   0  0  0  0  0  0  0  0  0  0  0  0
   -4.3352   -0.0544    1.0061 H   0  0  0  0  0  0  0  0  0  0  0  0
   -1.8631    0.1562    0.9978 H   0  0  0  0  0  0  0  0  0  0  0  0
   -0.4987   -1.3082   -0.4340 H   0  0  0  0  0  0  0  0  0  0  0  0
   -1.0312   -4.7361   -4.3873 H   0  0  0  0  0  0  0  0  0  0  0  0
   -1.7198   -7.0547   -4.7477 H   0  0  0  0  0  0  0  0  0  0  0  0
   -2.8298   -8.3337   -2.9439 H   0  0  0  0  0  0  0  0  0  0  0  0
   -3.2765   -7.2593   -0.7601 H   0  0  0  0  0  0  0  0  0  0  0  0
   -2.6478   -4.9209   -0.3744 H   0  0  0  0  0  0  0  0  0  0  0  0
   -0.7184   -3.9210    0.8345 H   0  0  0  0  0  0  0  0  0  0  0  0
   -1.9391   -5.1545    2.5803 H   0  0  0  0  0  0  0  0  0  0  0  0
   -1.6529   -9.5263    2.0586 H   0  0  0  0  0  0  0  0  0  0  0  0
   -3.1802   -9.4193    3.0096 H   0  0  0  0  0  0  0  0  0  0  0  0
   -2.8409   -8.2016    1.7215 H   0  0  0  0  0  0  0  0  0  0  0  0
    0.8720   -8.3943    2.2706 H   0  0  0  0  0  0  0  0  0  0  0  0
    2.0776   -7.1874    0.5012 H   0  0  0  0  0  0  0  0  0  0  0  0
    3.8165   -4.4830   -1.7820 H   0  0  0  0  0  0  0  0  0  0  0  0
    4.6654   -5.6676   -3.7593 H   0  0  0  0  0  0  0  0  0  0  0  0
    3.1837   -6.6770   -7.5809 H   0  0  0  0  0  0  0  0  0  0  0  0
    3.1717   -5.4763   -6.2336 H   0  0  0  0  0  0  0  0  0  0  0  0
    1.7275   -6.5332   -6.5174 H   0  0  0  0  0  0  0  0  0  0  0  0
    1.1004   -8.0761   -3.8591 H   0  0  0  0  0  0  0  0  0  0  0  0
    0.2479   -6.8966   -1.8741 H   0  0  0  0  0  0  0  0  0  0  0  0
    3.8083    2.8788   -0.0464 H   0  0  0  0  0  0  0  0  0  0  0  0
    5.3712    3.3319   -1.8945 H   0  0  0  0  0  0  0  0  0  0  0  0
    9.5551    2.6633   -2.7609 H   0  0  0  0  0  0  0  0  0  0  0  0
    9.0943    1.4460   -1.5077 H   0  0  0  0  0  0  0  0  0  0  0  0
    8.3694    3.1045   -1.4766 H   0  0  0  0  0  0  0  0  0  0  0  0
    6.9591   -0.6481   -1.5418 H   0  0  0  0  0  0  0  0  0  0  0  0
    5.4577   -1.0868    0.3537 H   0  0  0  0  0  0  0  0  0  0  0  0
    5.5398    1.6038    2.9033 H   0  0  0  0  0  0  0  0  0  0  0  0
    5.3460    3.4613    4.5079 H   0  0  0  0  0  0  0  0  0  0  0  0
    1.6770    3.6540    6.6229 H   0  0  0  0  0  0  0  0  0  0  0  0
    3.4407    3.2653    6.8602 H   0  0  0  0  0  0  0  0  0  0  0  0
    2.7073    4.6977    7.6751 H   0  0  0  0  0  0  0  0  0  0  0  0
    1.1352    3.7409    3.6631 H   0  0  0  0  0  0  0  0  0  0  0  0
    1.3230    1.8675    2.0686 H   0  0  0  0  0  0  0  0  0  0  0  0
    0.0633   -0.9013    2.9461 H   0  0  0  0  0  0  0  0  0  0  0  0
   -1.0635    0.1439    4.8535 H   0  0  0  0  0  0  0  0  0  0  0  0
    4.7395    0.4821    7.0730 H   0  0  0  0  0  0  0  0  0  0  0  0
    3.9793   -0.8294    8.0738 H   0  0  0  0  0  0  0  0  0  0  0  0
    4.1492    0.8455    8.7367 H   0  0  0  0  0  0  0  0  0  0  0  0
    3.8518   -0.6362    5.0318 H   0  0  0  0  0  0  0  0  0  0  0  0
   -3.7119    3.8027    9.6713 H   0  0  0  0  0  0  0  0  0  0  0  0
   -4.8689    2.4755    9.2498 H   0  0  0  0  0  0  0  0  0  0  0  0
   -3.6030    2.1930   10.4954 H   0  0  0  0  0  0  0  0  0  0  0  0
   -5.1148    3.0689    6.9194 H   0  0  0  0  0  0  0  0  0  0  0  0
   -2.6927    3.4075    3.3573 H   0  0  0  0  0  0  0  0  0  0  0  0
   -0.7122    2.6401    4.6231 H   0  0  0  0  0  0  0  0  0  0  0  0
   -5.2758    4.6038    3.8752 H   0  0  0  0  0  0  0  0  0  0  0  0
   -5.7572   -2.5412    5.2762 H   0  0  0  0  0  0  0  0  0  0  0  0
   -6.9300   -1.1681    5.3517 H   0  0  0  0  0  0  0  0  0  0  0  0
   -7.4908   -2.8041    4.8201 H   0  0  0  0  0  0  0  0  0  0  0  0
   -7.9196   -2.2061    1.3655 H   0  0  0  0  0  0  0  0  0  0  0  0
   -9.1246   -0.4812    0.0590 H   0  0  0  0  0  0  0  0  0  0  0  0
   -8.9030    1.9037    0.6236 H   0  0  0  0  0  0  0  0  0  0  0  0
  1  2  2  3
  2  3  1  0
  3  4  2  0
  3  5  1  0
  5  6  2  0
  6  7  1  0
  7  8  2  0
  8  9  1  0
  9 10  2  0
 10 11  1  0
 11 12  2  3
 12 13  1  0
 13 14  3  0
 12 15  1  0
 15 16  3  0
  8 17  1  0
 17 18  1  0
 18 19  1  0
 19 20  2  0
 20 21  1  0
 21 22  1  0
 21 23  1  0
  1 24  1  0
 24 25  2  0
 25 26  1  0
 26 27  1  0
 27 28  2  0
 28 29  1  0
 29 30  2  0
 30 31  1  0
 31 32  2  0
 26 33  1  0
 33 34  2  0
 34 35  1  0
 35 36  2  0
 36 37  1  0
 37 38  2  0
 25 39  1  0
 39 40  1  0
 40 41  1  0
 41 42  2  0
 42 43  1  0
 43 44  1  0
 44 45  2  0
 45 46  1  0
 46 47  2  0
 47 48  1  0
 48 49  2  0
 43 50  1  0
 50 51  2  0
 51 52  1  0
 52 53  2  0
 53 54  1  0
 54 55  2  0
 42 56  1  0
 56 57  1  0
 41 58  1  0
 58 59  2  0
 59 60  1  0
 60 61  1  0
 61 62  2  0
 62 63  1  0
 63 64  2  0
 64 65  1  0
 65 66  1  0
 64 67  1  0
 67 68  2  0
 60 69  1  0
 69 70  2  0
 70 71  1  0
 71 72  2  0
 72 73  1  0
 73 74  1  0
 72 75  1  0
 75 76  2  0
 59 77  1  0
 77 78  1  0
 78 79  1  0
 79 80  2  0
 80 81  1  0
 81 82  1  0
 82 83  2  0
 83 84  1  0
 84 85  2  0
 85 86  1  0
 86 87  1  0
 85 88  1  0
 88 89  2  0
 81 90  1  0
 90 91  2  0
 91 92  1  0
 92 93  2  0
 93 94  1  0
 94 95  1  0
 93 96  1  0
 96 97  2  0
 80 98  1  0
 98 99  1  0
 79100  1  0
100101  2  0
101102  1  0
102103  2  0
103104  1  0
104105  1  0
105106  2  0
105107  1  0
107108  1  0
107109  1  0
109110  2  0
104111  2  3
111112  1  0
112113  2  0
112114  1  0
114115  1  0
114116  1  0
116117  2  0
117118  1  0
118119  2  0
119120  1  0
120121  2  0
118122  1  0
122123  2  3
123124  1  0
124125  2  0
124126  1  0
126127  2  0
127128  1  0
128129  1  0
127130  1  0
130131  2  0
131132  1  0
132133  2  0
133134  1  0
134135  2  3
135136  1  0
136137  3  0
135138  1  0
138139  3  0
 11  2  1  0
 23 17  1  0
 57 24  1  0
 99 58  1  0
110100  1  0
121111  1  0
134123  1  0
 10  5  1  0
 22 18  1  0
 32 27  1  0
 38 33  1  0
 56 39  2  0
 68 61  1  0
 76 69  1  0
 98 77  2  0
109103  1  0
121116  1  0
133126  1  0
 23  7  1  0
 49 44  1  0
 55 50  1  0
 89 82  1  0
 97 90  1  0
  1140  1  0
  6141  1  0
  9142  1  0
 17143  1  0
 18144  1  0
 19145  1  0
 20146  1  0
 21147  1  0
 22148  1  0
 22149  1  0
 23150  1  0
 28151  1  0
 29152  1  0
 30153  1  0
 31154  1  0
 32155  1  0
 34156  1  0
 35157  1  0
 36158  1  0
 37159  1  0
 38160  1  0
 45161  1  0
 46162  1  0
 47163  1  0
 48164  1  0
 49165  1  0
 51166  1  0
 52167  1  0
 53168  1  0
 54169  1  0
 55170  1  0
 62171  1  0
 63172  1  0
 66173  1  0
 66174  1  0
 66175  1  0
 67176  1  0
 68177  1  0
 70178  1  0
 71179  1  0
 74180  1  0
 74181  1  0
 74182  1  0
 75183  1  0
 76184  1  0
 83185  1  0
 84186  1  0
 87187  1  0
 87188  1  0
 87189  1  0
 88190  1  0
 89191  1  0
 91192  1  0
 92193  1  0
 95194  1  0
 95195  1  0
 95196  1  0
 96197  1  0
 97198  1  0
101199  1  0
102200  1  0
108201  1  0
108202  1  0
108203  1  0
110204  1  0
115205  1  0
115206  1  0
115207  1  0
117208  1  0
119209  1  0
120210  1  0
122211  1  0
129212  1  0
129213  1  0
129214  1  0
130215  1  0
131216  1  0
132217  1  0
M  END

