
     RDKit          3D

233257  0  0  0  0  0  0  0  0999 V2000
   -6.7208    5.2172    0.7848 C   0  0  0  0  0  0  0  0  0  0  0  0
   -6.3323    5.0914   -0.5057 C   0  0  0  0  0  0  0  0  0  0  0  0
   -5.2210    4.2377   -0.9558 C   0  0  0  0  0  0  0  0  0  0  0  0
   -4.9218    3.1039   -0.4923 O   0  0  0  0  0  0  0  0  0  0  0  0
   -4.5142    4.9150   -2.0194 C   0  0  0  0  0  0  0  0  0  0  0  0
   -3.2115    4.6235   -2.4830 C   0  0  0  0  0  0  0  0  0  0  0  0
   -2.6783    5.6086   -3.2949 C   0  0  0  0  0  0  0  0  0  0  0  0
   -3.3756    6.8146   -3.6283 C   0  0  0  0  0  0  0  0  0  0  0  0
   -4.6530    7.1010   -3.1775 C   0  0  0  0  0  0  0  0  0  0  0  0
   -5.2294    6.0916   -2.3585 C   0  0  0  0  0  0  0  0  0  0  0  0
   -6.4724    6.1474   -1.5421 C   0  0  0  0  0  0  0  0  0  0  0  0
   -7.5827    6.8695   -1.8115 C   0  0  0  0  0  0  0  0  0  0  0  0
   -8.7991    6.7002   -1.0569 C   0  0  0  0  0  0  0  0  0  0  0  0
   -9.7949    6.5623   -0.4731 N   0  0  0  0  0  0  0  0  0  0  0  0
   -7.6858    7.6931   -2.9904 C   0  0  0  0  0  0  0  0  0  0  0  0
   -7.7866    8.3383   -3.9469 N   0  0  0  0  0  0  0  0  0  0  0  0
   -2.1811    7.3181   -4.3790 C   0  0  0  0  0  0  0  0  0  0  0  0
   -2.2650    7.2847   -5.9299 C   0  0  0  0  0  0  0  0  0  0  0  0
   -0.8449    7.4532   -6.4242 C   0  0  0  0  0  0  0  0  0  0  0  0
   -0.2030    6.3175   -6.1270 C   0  0  0  0  0  0  0  0  0  0  0  0
   -1.2040    5.4242   -5.4385 C   0  0  0  0  0  0  0  0  0  0  0  0
   -2.4460    5.8046   -6.2290 C   0  0  0  0  0  0  0  0  0  0  0  0
   -1.4705    6.0776   -4.0471 C   0  0  0  0  0  0  0  0  0  0  0  0
   -5.9067    4.6247    1.8622 C   0  0  0  0  0  0  0  0  0  0  0  0
   -4.5285    4.8828    1.9653 C   0  0  0  0  0  0  0  0  0  0  0  0
   -3.9397    6.1573    1.6026 N   0  0  0  0  0  0  0  0  0  0  0  0
   -2.5311    6.3203    1.3775 C   0  0  0  0  0  0  0  0  0  0  0  0
   -2.0564    6.6550    0.0999 C   0  0  0  0  0  0  0  0  0  0  0  0
   -0.6954    6.8976   -0.1067 C   0  0  0  0  0  0  0  0  0  0  0  0
    0.2042    6.8093    0.9604 C   0  0  0  0  0  0  0  0  0  0  0  0
   -0.2647    6.4915    2.2420 C   0  0  0  0  0  0  0  0  0  0  0  0
   -1.6314    6.2752    2.4552 C   0  0  0  0  0  0  0  0  0  0  0  0
   -4.7058    7.3564    1.8438 C   0  0  0  0  0  0  0  0  0  0  0  0
   -4.8824    8.3132    0.8275 C   0  0  0  0  0  0  0  0  0  0  0  0
   -5.6313    9.4668    1.0718 C   0  0  0  0  0  0  0  0  0  0  0  0
   -6.2124    9.6738    2.3274 C   0  0  0  0  0  0  0  0  0  0  0  0
   -6.0459    8.7262    3.3412 C   0  0  0  0  0  0  0  0  0  0  0  0
   -5.2982    7.5720    3.1016 C   0  0  0  0  0  0  0  0  0  0  0  0
   -3.8535    3.7785    2.4949 C   0  0  0  0  0  0  0  0  0  0  0  0
   -2.2941    3.1983    2.3233 S   0  0  0  0  0  0  0  0  0  0  0  0
   -2.6354    1.6726    2.9785 C   0  0  0  0  0  0  0  0  0  0  0  0
   -3.9888    1.6078    3.3694 C   0  0  0  0  0  0  0  0  0  0  0  0
   -4.4861    0.6991    4.3907 N   0  0  0  0  0  0  0  0  0  0  0  0
   -5.8829    0.6898    4.7286 C   0  0  0  0  0  0  0  0  0  0  0  0
   -6.4154    1.7033    5.5463 C   0  0  0  0  0  0  0  0  0  0  0  0
   -7.7766    1.7121    5.8677 C   0  0  0  0  0  0  0  0  0  0  0  0
   -8.6091    0.6860    5.4085 C   0  0  0  0  0  0  0  0  0  0  0  0
   -8.0835   -0.3379    4.6146 C   0  0  0  0  0  0  0  0  0  0  0  0
   -6.7268   -0.3310    4.2677 C   0  0  0  0  0  0  0  0  0  0  0  0
   -3.5748    0.2001    5.3979 C   0  0  0  0  0  0  0  0  0  0  0  0
   -3.5855   -1.1580    5.7704 C   0  0  0  0  0  0  0  0  0  0  0  0
   -2.6349   -1.6489    6.6741 C   0  0  0  0  0  0  0  0  0  0  0  0
   -1.7013   -0.7819    7.2486 C   0  0  0  0  0  0  0  0  0  0  0  0
   -1.7212    0.5776    6.9336 C   0  0  0  0  0  0  0  0  0  0  0  0
   -2.6582    1.0692    6.0232 C   0  0  0  0  0  0  0  0  0  0  0  0
   -4.6496    2.7836    2.9817 C   0  0  0  0  0  0  0  0  0  0  0  0
   -6.2510    3.1149    2.5768 S   0  0  0  0  0  0  0  0  0  0  0  0
   -1.6994    0.5503    2.8643 C   0  0  0  0  0  0  0  0  0  0  0  0
   -1.7098   -0.4065    1.8305 C   0  0  0  0  0  0  0  0  0  0  0  0
   -2.7929   -0.6583    0.9185 N   0  0  0  0  0  0  0  0  0  0  0  0
   -2.8602    0.0019   -0.3716 C   0  0  0  0  0  0  0  0  0  0  0  0
   -4.0284   -0.1080   -1.1509 C   0  0  0  0  0  0  0  0  0  0  0  0
   -4.0100    0.2053   -2.5100 C   0  0  0  0  0  0  0  0  0  0  0  0
   -2.8407    0.6893   -3.1006 C   0  0  0  0  0  0  0  0  0  0  0  0
   -2.7352    0.7852   -4.8915 S   0  0  0  0  0  0  0  0  0  0  0  0
   -3.5832    2.3856   -5.0226 C   0  0  0  0  0  0  0  0  0  0  0  0
   -1.7203    0.9571   -2.3058 C   0  0  0  0  0  0  0  0  0  0  0  0
   -1.7271    0.6229   -0.9451 C   0  0  0  0  0  0  0  0  0  0  0  0
   -3.4739   -1.9175    1.1041 C   0  0  0  0  0  0  0  0  0  0  0  0
   -4.0989   -2.1931    2.3229 C   0  0  0  0  0  0  0  0  0  0  0  0
   -4.7847   -3.3919    2.5234 C   0  0  0  0  0  0  0  0  0  0  0  0
   -4.8389   -4.3457    1.5065 C   0  0  0  0  0  0  0  0  0  0  0  0
   -5.7965   -5.8448    1.7418 S   0  0  0  0  0  0  0  0  0  0  0  0
   -4.4450   -6.7412    2.5634 C   0  0  0  0  0  0  0  0  0  0  0  0
   -4.1818   -4.1047    0.2930 C   0  0  0  0  0  0  0  0  0  0  0  0
   -3.4887   -2.9040    0.1000 C   0  0  0  0  0  0  0  0  0  0  0  0
   -0.4943   -1.0660    1.7399 C   0  0  0  0  0  0  0  0  0  0  0  0
    0.1828   -1.9971    0.5373 S   0  0  0  0  0  0  0  0  0  0  0  0
    1.7506   -1.9682    1.1970 C   0  0  0  0  0  0  0  0  0  0  0  0
    1.7372   -1.1850    2.3747 C   0  0  0  0  0  0  0  0  0  0  0  0
    2.8018   -1.1186    3.3464 N   0  0  0  0  0  0  0  0  0  0  0  0
    2.4879   -1.4080    4.7248 C   0  0  0  0  0  0  0  0  0  0  0  0
    1.7001   -2.5269    5.0530 C   0  0  0  0  0  0  0  0  0  0  0  0
    1.4459   -2.8464    6.3885 C   0  0  0  0  0  0  0  0  0  0  0  0
    1.9674   -2.0464    7.4105 C   0  0  0  0  0  0  0  0  0  0  0  0
    1.6599   -2.4715    9.1239 S   0  0  0  0  0  0  0  0  0  0  0  0
    3.2124   -3.4185    9.2906 C   0  0  0  0  0  0  0  0  0  0  0  0
    2.7286   -0.9158    7.0922 C   0  0  0  0  0  0  0  0  0  0  0  0
    2.9994   -0.6044    5.7574 C   0  0  0  0  0  0  0  0  0  0  0  0
    4.1805   -0.9604    2.9549 C   0  0  0  0  0  0  0  0  0  0  0  0
    5.1729   -1.7773    3.5262 C   0  0  0  0  0  0  0  0  0  0  0  0
    6.5124   -1.6319    3.1544 C   0  0  0  0  0  0  0  0  0  0  0  0
    6.8722   -0.6952    2.1830 C   0  0  0  0  0  0  0  0  0  0  0  0
    8.5910   -0.5367    1.6924 S   0  0  0  0  0  0  0  0  0  0  0  0
    8.5930   -2.0635    0.6982 C   0  0  0  0  0  0  0  0  0  0  0  0
    5.8961    0.1410    1.6270 C   0  0  0  0  0  0  0  0  0  0  0  0
    4.5604    0.0243    2.0309 C   0  0  0  0  0  0  0  0  0  0  0  0
    0.4540   -0.6933    2.6264 C   0  0  0  0  0  0  0  0  0  0  0  0
   -0.1504    0.5430    3.5900 S   0  0  0  0  0  0  0  0  0  0  0  0
    2.9052   -2.1935    0.3282 C   0  0  0  0  0  0  0  0  0  0  0  0
    3.4604   -3.4332   -0.0414 C   0  0  0  0  0  0  0  0  0  0  0  0
    3.0678   -4.7066    0.4957 N   0  0  0  0  0  0  0  0  0  0  0  0
    1.6813   -5.0948    0.4061 C   0  0  0  0  0  0  0  0  0  0  0  0
    1.0355   -5.6706    1.5126 C   0  0  0  0  0  0  0  0  0  0  0  0
   -0.3141   -6.0316    1.4272 C   0  0  0  0  0  0  0  0  0  0  0  0
   -1.0189   -5.8211    0.2399 C   0  0  0  0  0  0  0  0  0  0  0  0
   -0.3869   -5.2427   -0.8661 C   0  0  0  0  0  0  0  0  0  0  0  0
    0.9637   -4.8947   -0.7888 C   0  0  0  0  0  0  0  0  0  0  0  0
    4.0863   -5.6611    0.8716 C   0  0  0  0  0  0  0  0  0  0  0  0
    5.2756   -5.2244    1.4879 C   0  0  0  0  0  0  0  0  0  0  0  0
    6.2964   -6.1364    1.7845 C   0  0  0  0  0  0  0  0  0  0  0  0
    6.1345   -7.4928    1.4870 C   0  0  0  0  0  0  0  0  0  0  0  0
    4.9540   -7.9404    0.8923 C   0  0  0  0  0  0  0  0  0  0  0  0
    3.9299   -7.0346    0.5913 C   0  0  0  0  0  0  0  0  0  0  0  0
    4.2950   -3.2992   -1.1533 C   0  0  0  0  0  0  0  0  0  0  0  0
    5.1383   -4.3589   -2.1440 S   0  0  0  0  0  0  0  0  0  0  0  0
    5.5769   -3.1565   -3.2816 C   0  0  0  0  0  0  0  0  0  0  0  0
    5.0752   -1.9174   -2.8504 C   0  0  0  0  0  0  0  0  0  0  0  0
    5.2837   -0.6560   -3.5121 N   0  0  0  0  0  0  0  0  0  0  0  0
    6.6174   -0.1126   -3.4914 C   0  0  0  0  0  0  0  0  0  0  0  0
    7.3370   -0.0432   -2.2874 C   0  0  0  0  0  0  0  0  0  0  0  0
    8.6355    0.4739   -2.2677 C   0  0  0  0  0  0  0  0  0  0  0  0
    9.2181    0.9335   -3.4506 C   0  0  0  0  0  0  0  0  0  0  0  0
    8.5064    0.8717   -4.6525 C   0  0  0  0  0  0  0  0  0  0  0  0
    7.2096    0.3519   -4.6758 C   0  0  0  0  0  0  0  0  0  0  0  0
    4.1491    0.1547   -3.9231 C   0  0  0  0  0  0  0  0  0  0  0  0
    4.2528    1.5574   -4.0210 C   0  0  0  0  0  0  0  0  0  0  0  0
    3.1504    2.3329   -4.3912 C   0  0  0  0  0  0  0  0  0  0  0  0
    1.9214    1.7236   -4.6569 C   0  0  0  0  0  0  0  0  0  0  0  0
    1.7993    0.3365   -4.5588 C   0  0  0  0  0  0  0  0  0  0  0  0
    2.9001   -0.4428   -4.1989 C   0  0  0  0  0  0  0  0  0  0  0  0
    4.3597   -2.0482   -1.6702 C   0  0  0  0  0  0  0  0  0  0  0  0
    3.4057   -1.0050   -0.7840 S   0  0  0  0  0  0  0  0  0  0  0  0
    6.4276   -3.3503   -4.4706 C   0  0  0  0  0  0  0  0  0  0  0  0
    6.5826   -4.4878   -5.1747 C   0  0  0  0  0  0  0  0  0  0  0  0
    7.7429   -4.7198   -6.0378 C   0  0  0  0  0  0  0  0  0  0  0  0
    8.5479   -3.8371   -6.4359 O   0  0  0  0  0  0  0  0  0  0  0  0
    7.8524   -6.1452   -6.2902 C   0  0  0  0  0  0  0  0  0  0  0  0
    8.8438   -6.8472   -6.9845 C   0  0  0  0  0  0  0  0  0  0  0  0
   10.1763   -6.0373   -7.7899 Cl  0  0  0  0  0  0  0  0  0  0  0  0
    8.7618   -8.2475   -7.0217 C   0  0  0  0  0  0  0  0  0  0  0  0
    7.7231   -8.9137   -6.3467 C   0  0  0  0  0  0  0  0  0  0  0  0
    6.7374   -8.1915   -5.6593 C   0  0  0  0  0  0  0  0  0  0  0  0
    6.7941   -6.7903   -5.6709 C   0  0  0  0  0  0  0  0  0  0  0  0
    5.8582   -5.7886   -5.0877 C   0  0  0  0  0  0  0  0  0  0  0  0
    4.5130   -5.9467   -4.9993 C   0  0  0  0  0  0  0  0  0  0  0  0
    3.6189   -4.8160   -4.9710 C   0  0  0  0  0  0  0  0  0  0  0  0
    2.8920   -3.9164   -4.9560 N   0  0  0  0  0  0  0  0  0  0  0  0
    3.8751   -7.2236   -5.1851 C   0  0  0  0  0  0  0  0  0  0  0  0
    3.3594   -8.2456   -5.3414 N   0  0  0  0  0  0  0  0  0  0  0  0
   -7.4254    5.9833    1.0708 H   0  0  0  0  0  0  0  0  0  0  0  0
   -2.6448    3.7551   -2.1647 H   0  0  0  0  0  0  0  0  0  0  0  0
   -5.1151    8.0561   -3.3643 H   0  0  0  0  0  0  0  0  0  0  0  0
   -1.7344    8.2371   -3.9362 H   0  0  0  0  0  0  0  0  0  0  0  0
   -3.0080    7.9696   -6.3913 H   0  0  0  0  0  0  0  0  0  0  0  0
   -0.4394    8.2846   -6.9952 H   0  0  0  0  0  0  0  0  0  0  0  0
    0.8160    6.0687   -6.4076 H   0  0  0  0  0  0  0  0  0  0  0  0
   -0.9437    4.3475   -5.4272 H   0  0  0  0  0  0  0  0  0  0  0  0
   -3.3950    5.3707   -5.8412 H   0  0  0  0  0  0  0  0  0  0  0  0
   -2.3735    5.5713   -7.3190 H   0  0  0  0  0  0  0  0  0  0  0  0
   -0.5765    6.2263   -3.3989 H   0  0  0  0  0  0  0  0  0  0  0  0
   -2.7415    6.7508   -0.7258 H   0  0  0  0  0  0  0  0  0  0  0  0
   -0.3377    7.1652   -1.0952 H   0  0  0  0  0  0  0  0  0  0  0  0
    1.2553    6.9966    0.7986 H   0  0  0  0  0  0  0  0  0  0  0  0
    0.4320    6.4314    3.0715 H   0  0  0  0  0  0  0  0  0  0  0  0
   -1.9885    6.0640    3.4570 H   0  0  0  0  0  0  0  0  0  0  0  0
   -4.4709    8.1575   -0.1594 H   0  0  0  0  0  0  0  0  0  0  0  0
   -5.7789   10.1943    0.2830 H   0  0  0  0  0  0  0  0  0  0  0  0
   -6.8045   10.5607    2.5130 H   0  0  0  0  0  0  0  0  0  0  0  0
   -6.5043    8.8789    4.3100 H   0  0  0  0  0  0  0  0  0  0  0  0
   -5.1794    6.8438    3.8933 H   0  0  0  0  0  0  0  0  0  0  0  0
   -5.7755    2.5027    5.9046 H   0  0  0  0  0  0  0  0  0  0  0  0
   -8.1865    2.5073    6.4769 H   0  0  0  0  0  0  0  0  0  0  0  0
   -9.6586    0.6808    5.6690 H   0  0  0  0  0  0  0  0  0  0  0  0
   -8.7261   -1.1411    4.2736 H   0  0  0  0  0  0  0  0  0  0  0  0
   -6.3396   -1.1226    3.6414 H   0  0  0  0  0  0  0  0  0  0  0  0
   -4.3134   -1.8412    5.3540 H   0  0  0  0  0  0  0  0  0  0  0  0
   -2.6265   -2.6989    6.9369 H   0  0  0  0  0  0  0  0  0  0  0  0
   -0.9746   -1.1608    7.9592 H   0  0  0  0  0  0  0  0  0  0  0  0
   -1.0082    1.2512    7.3916 H   0  0  0  0  0  0  0  0  0  0  0  0
   -2.6570    2.1266    5.7885 H   0  0  0  0  0  0  0  0  0  0  0  0
   -4.9330   -0.5347   -0.7274 H   0  0  0  0  0  0  0  0  0  0  0  0
   -4.8853    0.0117   -3.1171 H   0  0  0  0  0  0  0  0  0  0  0  0
   -2.8835    3.1764   -4.7021 H   0  0  0  0  0  0  0  0  0  0  0  0
   -4.5001    2.4000   -4.3934 H   0  0  0  0  0  0  0  0  0  0  0  0
   -3.8701    2.5527   -6.0829 H   0  0  0  0  0  0  0  0  0  0  0  0
   -0.8145    1.3479   -2.7531 H   0  0  0  0  0  0  0  0  0  0  0  0
   -0.8194    0.7774   -0.3729 H   0  0  0  0  0  0  0  0  0  0  0  0
   -4.0610   -1.4610    3.1030 H   0  0  0  0  0  0  0  0  0  0  0  0
   -5.2829   -3.5678    3.4678 H   0  0  0  0  0  0  0  0  0  0  0  0
   -4.1661   -6.2340    3.5107 H   0  0  0  0  0  0  0  0  0  0  0  0
   -4.7812   -7.7759    2.7953 H   0  0  0  0  0  0  0  0  0  0  0  0
   -3.5589   -6.7941    1.9002 H   0  0  0  0  0  0  0  0  0  0  0  0
   -4.2154   -4.8397   -0.5015 H   0  0  0  0  0  0  0  0  0  0  0  0
   -2.9689   -2.7400   -0.8372 H   0  0  0  0  0  0  0  0  0  0  0  0
    1.3064   -3.1670    4.2715 H   0  0  0  0  0  0  0  0  0  0  0  0
    0.8571   -3.7260    6.6269 H   0  0  0  0  0  0  0  0  0  0  0  0
    4.0808   -2.8042    8.9629 H   0  0  0  0  0  0  0  0  0  0  0  0
    3.1545   -4.3458    8.6822 H   0  0  0  0  0  0  0  0  0  0  0  0
    3.3543   -3.6909   10.3532 H   0  0  0  0  0  0  0  0  0  0  0  0
    3.1256   -0.2873    7.8836 H   0  0  0  0  0  0  0  0  0  0  0  0
    3.6098    0.2603    5.5202 H   0  0  0  0  0  0  0  0  0  0  0  0
    4.9109   -2.5319    4.2561 H   0  0  0  0  0  0  0  0  0  0  0  0
    7.2644   -2.2666    3.6097 H   0  0  0  0  0  0  0  0  0  0  0  0
    8.5279   -2.9520    1.3696 H   0  0  0  0  0  0  0  0  0  0  0  0
    7.7400   -2.0748   -0.0044 H   0  0  0  0  0  0  0  0  0  0  0  0
    9.5402   -2.1255    0.1245 H   0  0  0  0  0  0  0  0  0  0  0  0
    6.1727    0.8928    0.8959 H   0  0  0  0  0  0  0  0  0  0  0  0
    3.8160    0.6929    1.6084 H   0  0  0  0  0  0  0  0  0  0  0  0
    1.5771   -5.8386    2.4354 H   0  0  0  0  0  0  0  0  0  0  0  0
   -0.8037   -6.4992    2.2766 H   0  0  0  0  0  0  0  0  0  0  0  0
   -2.0576   -6.1105    0.1696 H   0  0  0  0  0  0  0  0  0  0  0  0
   -0.9410   -5.0788   -1.7806 H   0  0  0  0  0  0  0  0  0  0  0  0
    1.4467   -4.4560   -1.6551 H   0  0  0  0  0  0  0  0  0  0  0  0
    5.4247   -4.1791    1.7241 H   0  0  0  0  0  0  0  0  0  0  0  0
    7.2112   -5.7898    2.2520 H   0  0  0  0  0  0  0  0  0  0  0  0
    6.9286   -8.1941    1.7116 H   0  0  0  0  0  0  0  0  0  0  0  0
    4.8254   -8.9924    0.6590 H   0  0  0  0  0  0  0  0  0  0  0  0
    3.0359   -7.4062    0.1101 H   0  0  0  0  0  0  0  0  0  0  0  0
    6.8798   -0.3785   -1.3666 H   0  0  0  0  0  0  0  0  0  0  0  0
    9.1818    0.5241   -1.3356 H   0  0  0  0  0  0  0  0  0  0  0  0
   10.2250    1.3332   -3.4350 H   0  0  0  0  0  0  0  0  0  0  0  0
    8.9614    1.2306   -5.5677 H   0  0  0  0  0  0  0  0  0  0  0  0
    6.6693    0.3036   -5.6153 H   0  0  0  0  0  0  0  0  0  0  0  0
    5.1847    2.0659   -3.8069 H   0  0  0  0  0  0  0  0  0  0  0  0
    3.2469    3.4117   -4.4618 H   0  0  0  0  0  0  0  0  0  0  0  0
    1.0649    2.3261   -4.9396 H   0  0  0  0  0  0  0  0  0  0  0  0
    0.8424   -0.1351   -4.7576 H   0  0  0  0  0  0  0  0  0  0  0  0
    2.7721   -1.5109   -4.1322 H   0  0  0  0  0  0  0  0  0  0  0  0
    7.0614   -2.5131   -4.7372 H   0  0  0  0  0  0  0  0  0  0  0  0
    9.5187   -8.8164   -7.5464 H   0  0  0  0  0  0  0  0  0  0  0  0
    7.6800   -9.9962   -6.3649 H   0  0  0  0  0  0  0  0  0  0  0  0
    5.9768   -8.7291   -5.1216 H   0  0  0  0  0  0  0  0  0  0  0  0
  1  2  2  3
  2  3  1  0
  3  4  2  0
  3  5  1  0
  5  6  2  0
  6  7  1  0
  7  8  2  0
  8  9  1  0
  9 10  2  0
 10 11  1  0
 11 12  2  3
 12 13  1  0
 13 14  3  0
 12 15  1  0
 15 16  3  0
  8 17  1  0
 17 18  1  0
 18 19  1  0
 19 20  2  0
 20 21  1  0
 21 22  1  0
 21 23  1  0
  1 24  1  0
 24 25  2  0
 25 26  1  0
 26 27  1  0
 27 28  2  0
 28 29  1  0
 29 30  2  0
 30 31  1  0
 31 32  2  0
 26 33  1  0
 33 34  2  0
 34 35  1  0
 35 36  2  0
 36 37  1  0
 37 38  2  0
 25 39  1  0
 39 40  1  0
 40 41  1  0
 41 42  2  0
 42 43  1  0
 43 44  1  0
 44 45  2  0
 45 46  1  0
 46 47  2  0
 47 48  1  0
 48 49  2  0
 43 50  1  0
 50 51  2  0
 51 52  1  0
 52 53  2  0
 53 54  1  0
 54 55  2  0
 42 56  1  0
 56 57  1  0
 41 58  1  0
 58 59  2  0
 59 60  1  0
 60 61  1  0
 61 62  2  0
 62 63  1  0
 63 64  2  0
 64 65  1  0
 65 66  1  0
 64 67  1  0
 67 68  2  0
 60 69  1  0
 69 70  2  0
 70 71  1  0
 71 72  2  0
 72 73  1  0
 73 74  1  0
 72 75  1  0
 75 76  2  0
 59 77  1  0
 77 78  1  0
 78 79  1  0
 79 80  2  0
 80 81  1  0
 81 82  1  0
 82 83  2  0
 83 84  1  0
 84 85  2  0
 85 86  1  0
 86 87  1  0
 85 88  1  0
 88 89  2  0
 81 90  1  0
 90 91  2  0
 91 92  1  0
 92 93  2  0
 93 94  1  0
 94 95  1  0
 93 96  1  0
 96 97  2  0
 80 98  1  0
 98 99  1  0
 79100  1  0
100101  2  0
101102  1  0
102103  1  0
103104  2  0
104105  1  0
105106  2  0
106107  1  0
107108  2  0
102109  1  0
109110  2  0
110111  1  0
111112  2  0
112113  1  0
113114  2  0
101115  1  0
115116  1  0
116117  1  0
117118  2  0
118119  1  0
119120  1  0
120121  2  0
121122  1  0
122123  2  0
123124  1  0
124125  2  0
119126  1  0
126127  2  0
127128  1  0
128129  2  0
129130  1  0
130131  2  0
118132  1  0
132133  1  0
117134  1  0
134135  2  3
135136  1  0
136137  2  0
136138  1  0
138139  2  0
139140  1  0
139141  1  0
141142  2  0
142143  1  0
143144  2  0
144145  1  0
145146  2  3
146147  1  0
147148  3  0
146149  1  0
149150  3  0
 11  2  1  0
 23 17  1  0
 57 24  1  0
 99 58  1  0
133100  1  0
145135  1  0
 10  5  1  0
 22 18  1  0
 32 27  1  0
 38 33  1  0
 56 39  2  0
 68 61  1  0
 76 69  1  0
 98 77  2  0
108103  1  0
114109  1  0
132115  2  0
144138  1  0
 23  7  1  0
 49 44  1  0
 55 50  1  0
 89 82  1  0
 97 90  1  0
125120  1  0
131126  1  0
  1151  1  0
  6152  1  0
  9153  1  0
 17154  1  0
 18155  1  0
 19156  1  0
 20157  1  0
 21158  1  0
 22159  1  0
 22160  1  0
 23161  1  0
 28162  1  0
 29163  1  0
 30164  1  0
 31165  1  0
 32166  1  0
 34167  1  0
 35168  1  0
 36169  1  0
 37170  1  0
 38171  1  0
 45172  1  0
 46173  1  0
 47174  1  0
 48175  1  0
 49176  1  0
 51177  1  0
 52178  1  0
 53179  1  0
 54180  1  0
 55181  1  0
 62182  1  0
 63183  1  0
 66184  1  0
 66185  1  0
 66186  1  0
 67187  1  0
 68188  1  0
 70189  1  0
 71190  1  0
 74191  1  0
 74192  1  0
 74193  1  0
 75194  1  0
 76195  1  0
 83196  1  0
 84197  1  0
 87198  1  0
 87199  1  0
 87200  1  0
 88201  1  0
 89202  1  0
 91203  1  0
 92204  1  0
 95205  1  0
 95206  1  0
 95207  1  0
 96208  1  0
 97209  1  0
104210  1  0
105211  1  0
106212  1  0
107213  1  0
108214  1  0
110215  1  0
111216  1  0
112217  1  0
113218  1  0
114219  1  0
121220  1  0
122221  1  0
123222  1  0
124223  1  0
125224  1  0
127225  1  0
128226  1  0
129227  1  0
130228  1  0
131229  1  0
134230  1  0
141231  1  0
142232  1  0
143233  1  0
M  END

