
     RDKit          3D

139153  0  0  0  0  0  0  0  0999 V2000
    1.7668   -4.6816    5.3560 C   0  0  0  0  0  0  0  0  0  0  0  0
    1.3012   -3.8175    6.2736 C   0  0  0  0  0  0  0  0  0  0  0  0
    0.2383   -2.8475    5.9897 C   0  0  0  0  0  0  0  0  0  0  0  0
   -0.7518   -3.0306    5.2341 O   0  0  0  0  0  0  0  0  0  0  0  0
    0.5781   -1.6003    6.6169 C   0  0  0  0  0  0  0  0  0  0  0  0
    0.0487   -0.3358    6.2782 C   0  0  0  0  0  0  0  0  0  0  0  0
    0.7489    0.7202    6.8190 C   0  0  0  0  0  0  0  0  0  0  0  0
    1.8999    0.5616    7.6549 C   0  0  0  0  0  0  0  0  0  0  0  0
    2.4347   -0.6794    7.9794 C   0  0  0  0  0  0  0  0  0  0  0  0
    1.7315   -1.7881    7.4244 C   0  0  0  0  0  0  0  0  0  0  0  0
    2.1251   -3.2255    7.3630 C   0  0  0  0  0  0  0  0  0  0  0  0
    2.9721   -3.8884    8.1851 C   0  0  0  0  0  0  0  0  0  0  0  0
    3.1441   -5.3137    8.1103 C   0  0  0  0  0  0  0  0  0  0  0  0
    3.2993   -6.4627    8.0854 N   0  0  0  0  0  0  0  0  0  0  0  0
    3.6610   -3.2339    9.2644 C   0  0  0  0  0  0  0  0  0  0  0  0
    4.2279   -2.7152   10.1337 N   0  0  0  0  0  0  0  0  0  0  0  0
    2.0399    2.0557    7.7660 C   0  0  0  0  0  0  0  0  0  0  0  0
    1.5847    2.7059    9.1038 C   0  0  0  0  0  0  0  0  0  0  0  0
    1.4427    4.1844    8.8137 C   0  0  0  0  0  0  0  0  0  0  0  0
    0.3682    4.3174    8.0267 C   0  0  0  0  0  0  0  0  0  0  0  0
   -0.1760    2.9250    7.8088 C   0  0  0  0  0  0  0  0  0  0  0  0
    0.1106    2.3403    9.1828 C   0  0  0  0  0  0  0  0  0  0  0  0
    0.8637    2.2085    6.8999 C   0  0  0  0  0  0  0  0  0  0  0  0
    1.3565   -4.5425    3.9515 C   0  0  0  0  0  0  0  0  0  0  0  0
    0.3696   -5.2752    3.3111 C   0  0  0  0  0  0  0  0  0  0  0  0
   -0.0786   -4.6797    2.1200 C   0  0  0  0  0  0  0  0  0  0  0  0
   -1.2021   -5.5087    1.0653 Cl  0  0  0  0  0  0  0  0  0  0  0  0
    0.5199   -3.4420    1.8528 C   0  0  0  0  0  0  0  0  0  0  0  0
    1.6501   -3.1518    3.0532 S   0  0  0  0  0  0  0  0  0  0  0  0
    0.3072   -2.5169    0.7257 C   0  0  0  0  0  0  0  0  0  0  0  0
   -0.8867   -2.2099    0.0415 C   0  0  0  0  0  0  0  0  0  0  0  0
   -2.2053   -2.6249    0.4375 N   0  0  0  0  0  0  0  0  0  0  0  0
   -2.6849   -2.3264    1.7693 C   0  0  0  0  0  0  0  0  0  0  0  0
   -2.3951   -1.0895    2.3807 C   0  0  0  0  0  0  0  0  0  0  0  0
   -2.9411   -0.7679    3.6241 C   0  0  0  0  0  0  0  0  0  0  0  0
   -3.7873   -1.6714    4.2794 C   0  0  0  0  0  0  0  0  0  0  0  0
   -4.6088   -1.2018    5.8064 S   0  0  0  0  0  0  0  0  0  0  0  0
   -3.4183   -2.0441    6.8932 C   0  0  0  0  0  0  0  0  0  0  0  0
   -4.0762   -2.9048    3.6806 C   0  0  0  0  0  0  0  0  0  0  0  0
   -3.5312   -3.2308    2.4379 C   0  0  0  0  0  0  0  0  0  0  0  0
   -3.1124   -3.0995   -0.5824 C   0  0  0  0  0  0  0  0  0  0  0  0
   -4.4590   -2.6938   -0.6046 C   0  0  0  0  0  0  0  0  0  0  0  0
   -5.3050   -3.1053   -1.6409 C   0  0  0  0  0  0  0  0  0  0  0  0
   -4.8103   -3.9093   -2.6741 C   0  0  0  0  0  0  0  0  0  0  0  0
   -5.8818   -4.4136   -4.0182 S   0  0  0  0  0  0  0  0  0  0  0  0
   -5.5567   -2.9189   -5.0048 C   0  0  0  0  0  0  0  0  0  0  0  0
   -3.4777   -4.3264   -2.6553 C   0  0  0  0  0  0  0  0  0  0  0  0
   -2.6373   -3.9296   -1.6147 C   0  0  0  0  0  0  0  0  0  0  0  0
   -0.6523   -1.3002   -0.9929 C   0  0  0  0  0  0  0  0  0  0  0  0
   -1.5979   -0.5612   -2.1728 S   0  0  0  0  0  0  0  0  0  0  0  0
   -0.2962    0.3216   -2.8285 C   0  0  0  0  0  0  0  0  0  0  0  0
    0.8653    0.0619   -2.0968 C   0  0  0  0  0  0  0  0  0  0  0  0
    2.1394    0.6768   -2.3416 N   0  0  0  0  0  0  0  0  0  0  0  0
    2.7526    1.4241   -1.2714 C   0  0  0  0  0  0  0  0  0  0  0  0
    1.9739    2.2748   -0.4663 C   0  0  0  0  0  0  0  0  0  0  0  0
    2.5488    2.9658    0.6012 C   0  0  0  0  0  0  0  0  0  0  0  0
    3.9055    2.8014    0.8931 C   0  0  0  0  0  0  0  0  0  0  0  0
    4.6369    3.6916    2.2700 S   0  0  0  0  0  0  0  0  0  0  0  0
    4.2329    2.4002    3.4887 C   0  0  0  0  0  0  0  0  0  0  0  0
    4.6895    1.9510    0.1039 C   0  0  0  0  0  0  0  0  0  0  0  0
    4.1162    1.2628   -0.9719 C   0  0  0  0  0  0  0  0  0  0  0  0
    2.7799    0.5033   -3.6265 C   0  0  0  0  0  0  0  0  0  0  0  0
    3.5953    1.5148   -4.1683 C   0  0  0  0  0  0  0  0  0  0  0  0
    4.1879    1.3495   -5.4241 C   0  0  0  0  0  0  0  0  0  0  0  0
    3.9642    0.1792   -6.1596 C   0  0  0  0  0  0  0  0  0  0  0  0
    4.7092   -0.0231   -7.7828 S   0  0  0  0  0  0  0  0  0  0  0  0
    6.1270   -0.9746   -7.1498 C   0  0  0  0  0  0  0  0  0  0  0  0
    3.1452   -0.8242   -5.6369 C   0  0  0  0  0  0  0  0  0  0  0  0
    2.5628   -0.6685   -4.3779 C   0  0  0  0  0  0  0  0  0  0  0  0
    0.6265   -0.8618   -1.0912 C   0  0  0  0  0  0  0  0  0  0  0  0
    1.5844   -1.5947    0.0619 S   0  0  0  0  0  0  0  0  0  0  0  0
   -0.4126    1.3254   -3.8879 C   0  0  0  0  0  0  0  0  0  0  0  0
   -0.2882    2.6966   -3.7007 C   0  0  0  0  0  0  0  0  0  0  0  0
   -0.2697    3.4109   -4.9020 C   0  0  0  0  0  0  0  0  0  0  0  0
   -0.1018    5.1610   -4.9510 Cl  0  0  0  0  0  0  0  0  0  0  0  0
   -0.3929    2.6073   -6.0334 C   0  0  0  0  0  0  0  0  0  0  0  0
   -0.4648    0.9963   -5.5343 S   0  0  0  0  0  0  0  0  0  0  0  0
   -0.2369    3.0820   -7.4206 C   0  0  0  0  0  0  0  0  0  0  0  0
   -0.9645    2.6599   -8.4763 C   0  0  0  0  0  0  0  0  0  0  0  0
   -2.2312    1.9173   -8.4075 C   0  0  0  0  0  0  0  0  0  0  0  0
   -2.7086    1.3214   -7.4066 O   0  0  0  0  0  0  0  0  0  0  0  0
   -2.9148    2.0721   -9.6745 C   0  0  0  0  0  0  0  0  0  0  0  0
   -4.2040    1.6556  -10.0031 C   0  0  0  0  0  0  0  0  0  0  0  0
   -4.7334    2.0348  -11.2420 C   0  0  0  0  0  0  0  0  0  0  0  0
   -3.9694    2.8223  -12.1236 C   0  0  0  0  0  0  0  0  0  0  0  0
   -2.6791    3.2493  -11.7649 C   0  0  0  0  0  0  0  0  0  0  0  0
   -2.1429    2.8371  -10.5330 C   0  0  0  0  0  0  0  0  0  0  0  0
   -0.8450    3.1670   -9.8784 C   0  0  0  0  0  0  0  0  0  0  0  0
    0.2670    3.6558  -10.4789 C   0  0  0  0  0  0  0  0  0  0  0  0
    0.3112    3.9865  -11.8796 C   0  0  0  0  0  0  0  0  0  0  0  0
    0.3624    4.2476  -13.0074 N   0  0  0  0  0  0  0  0  0  0  0  0
    1.5414    3.6993   -9.8090 C   0  0  0  0  0  0  0  0  0  0  0  0
    2.5697    3.7353   -9.2774 N   0  0  0  0  0  0  0  0  0  0  0  0
    2.6773   -5.2349    5.5354 H   0  0  0  0  0  0  0  0  0  0  0  0
   -0.7768   -0.1974    5.5937 H   0  0  0  0  0  0  0  0  0  0  0  0
    3.3514   -0.7582    8.5401 H   0  0  0  0  0  0  0  0  0  0  0  0
    2.9875    2.4511    7.3301 H   0  0  0  0  0  0  0  0  0  0  0  0
    2.1988    2.4514    9.9940 H   0  0  0  0  0  0  0  0  0  0  0  0
    2.0266    4.9968    9.2283 H   0  0  0  0  0  0  0  0  0  0  0  0
   -0.0643    5.2517    7.6856 H   0  0  0  0  0  0  0  0  0  0  0  0
   -1.2329    2.8776    7.4638 H   0  0  0  0  0  0  0  0  0  0  0  0
   -0.4297    2.8634   10.0064 H   0  0  0  0  0  0  0  0  0  0  0  0
   -0.0875    1.2439    9.2625 H   0  0  0  0  0  0  0  0  0  0  0  0
    1.0691    2.6915    5.9161 H   0  0  0  0  0  0  0  0  0  0  0  0
   -0.0431   -6.1884    3.7114 H   0  0  0  0  0  0  0  0  0  0  0  0
   -1.7782   -0.3581    1.8691 H   0  0  0  0  0  0  0  0  0  0  0  0
   -2.7481    0.2068    4.0566 H   0  0  0  0  0  0  0  0  0  0  0  0
   -3.3180   -3.1109    6.6014 H   0  0  0  0  0  0  0  0  0  0  0  0
   -3.7818   -1.9918    7.9408 H   0  0  0  0  0  0  0  0  0  0  0  0
   -2.4352   -1.5376    6.8355 H   0  0  0  0  0  0  0  0  0  0  0  0
   -4.7530   -3.5946    4.1671 H   0  0  0  0  0  0  0  0  0  0  0  0
   -3.7858   -4.1776    1.9806 H   0  0  0  0  0  0  0  0  0  0  0  0
   -4.8472   -2.0235    0.1488 H   0  0  0  0  0  0  0  0  0  0  0  0
   -6.3394   -2.7808   -1.6488 H   0  0  0  0  0  0  0  0  0  0  0  0
   -6.0318   -3.0307   -6.0006 H   0  0  0  0  0  0  0  0  0  0  0  0
   -4.4615   -2.7682   -5.1420 H   0  0  0  0  0  0  0  0  0  0  0  0
   -5.9964   -2.0349   -4.4991 H   0  0  0  0  0  0  0  0  0  0  0  0
   -3.0869   -4.9439   -3.4545 H   0  0  0  0  0  0  0  0  0  0  0  0
   -1.5978   -4.2427   -1.6332 H   0  0  0  0  0  0  0  0  0  0  0  0
    0.9162    2.4077   -0.6684 H   0  0  0  0  0  0  0  0  0  0  0  0
    1.9361    3.6245    1.2065 H   0  0  0  0  0  0  0  0  0  0  0  0
    4.7224    1.4463    3.2077 H   0  0  0  0  0  0  0  0  0  0  0  0
    4.6013    2.7167    4.4848 H   0  0  0  0  0  0  0  0  0  0  0  0
    3.1333    2.2560    3.5441 H   0  0  0  0  0  0  0  0  0  0  0  0
    5.7369    1.8145    0.3310 H   0  0  0  0  0  0  0  0  0  0  0  0
    4.7312    0.5942   -1.5587 H   0  0  0  0  0  0  0  0  0  0  0  0
    3.7608    2.4373   -3.6248 H   0  0  0  0  0  0  0  0  0  0  0  0
    4.8179    2.1335   -5.8268 H   0  0  0  0  0  0  0  0  0  0  0  0
    6.7995   -1.2286   -7.9941 H   0  0  0  0  0  0  0  0  0  0  0  0
    5.7740   -1.9156   -6.6780 H   0  0  0  0  0  0  0  0  0  0  0  0
    6.6926   -0.3718   -6.4073 H   0  0  0  0  0  0  0  0  0  0  0  0
    2.9732   -1.7309   -6.2009 H   0  0  0  0  0  0  0  0  0  0  0  0
    1.9473   -1.4698   -3.9901 H   0  0  0  0  0  0  0  0  0  0  0  0
   -0.1953    3.1624   -2.7274 H   0  0  0  0  0  0  0  0  0  0  0  0
    0.4514    3.8994   -7.5521 H   0  0  0  0  0  0  0  0  0  0  0  0
   -4.7978    1.0735   -9.3078 H   0  0  0  0  0  0  0  0  0  0  0  0
   -5.7377    1.7310  -11.5175 H   0  0  0  0  0  0  0  0  0  0  0  0
   -4.3900    3.1204  -13.0780 H   0  0  0  0  0  0  0  0  0  0  0  0
   -2.1586    3.9174  -12.4293 H   0  0  0  0  0  0  0  0  0  0  0  0
  1  2  2  3
  2  3  1  0
  3  4  2  0
  3  5  1  0
  5  6  2  0
  6  7  1  0
  7  8  2  0
  8  9  1  0
  9 10  2  0
 10 11  1  0
 11 12  2  3
 12 13  1  0
 13 14  3  0
 12 15  1  0
 15 16  3  0
  8 17  1  0
 17 18  1  0
 18 19  1  0
 19 20  2  0
 20 21  1  0
 21 22  1  0
 21 23  1  0
  1 24  1  0
 24 25  2  0
 25 26  1  0
 26 27  1  0
 26 28  2  0
 28 29  1  0
 28 30  1  0
 30 31  2  0
 31 32  1  0
 32 33  1  0
 33 34  2  0
 34 35  1  0
 35 36  2  0
 36 37  1  0
 37 38  1  0
 36 39  1  0
 39 40  2  0
 32 41  1  0
 41 42  2  0
 42 43  1  0
 43 44  2  0
 44 45  1  0
 45 46  1  0
 44 47  1  0
 47 48  2  0
 31 49  1  0
 49 50  1  0
 50 51  1  0
 51 52  2  0
 52 53  1  0
 53 54  1  0
 54 55  2  0
 55 56  1  0
 56 57  2  0
 57 58  1  0
 58 59  1  0
 57 60  1  0
 60 61  2  0
 53 62  1  0
 62 63  2  0
 63 64  1  0
 64 65  2  0
 65 66  1  0
 66 67  1  0
 65 68  1  0
 68 69  2  0
 52 70  1  0
 70 71  1  0
 51 72  1  0
 72 73  2  0
 73 74  1  0
 74 75  1  0
 74 76  2  0
 76 77  1  0
 76 78  1  0
 78 79  2  3
 79 80  1  0
 80 81  2  0
 80 82  1  0
 82 83  2  0
 83 84  1  0
 84 85  2  0
 85 86  1  0
 86 87  2  0
 87 88  1  0
 88 89  2  3
 89 90  1  0
 90 91  3  0
 89 92  1  0
 92 93  3  0
 11  2  1  0
 23 17  1  0
 29 24  1  0
 71 30  1  0
 77 72  1  0
 88 79  1  0
 10  5  1  0
 22 18  1  0
 40 33  1  0
 48 41  1  0
 70 49  2  0
 87 82  1  0
 23  7  1  0
 61 54  1  0
 69 62  1  0
  1 94  1  0
  6 95  1  0
  9 96  1  0
 17 97  1  0
 18 98  1  0
 19 99  1  0
 20100  1  0
 21101  1  0
 22102  1  0
 22103  1  0
 23104  1  0
 25105  1  0
 34106  1  0
 35107  1  0
 38108  1  0
 38109  1  0
 38110  1  0
 39111  1  0
 40112  1  0
 42113  1  0
 43114  1  0
 46115  1  0
 46116  1  0
 46117  1  0
 47118  1  0
 48119  1  0
 55120  1  0
 56121  1  0
 59122  1  0
 59123  1  0
 59124  1  0
 60125  1  0
 61126  1  0
 63127  1  0
 64128  1  0
 67129  1  0
 67130  1  0
 67131  1  0
 68132  1  0
 69133  1  0
 73134  1  0
 78135  1  0
 83136  1  0
 84137  1  0
 85138  1  0
 86139  1  0
M  END

