
     RDKit          3D

190210  0  0  0  0  0  0  0  0999 V2000
   -3.7490   -3.8876   -7.9899 C   0  0  0  0  0  0  0  0  0  0  0  0
   -4.1167   -5.0011   -7.3159 C   0  0  0  0  0  0  0  0  0  0  0  0
   -3.4656   -5.5552   -6.1170 C   0  0  0  0  0  0  0  0  0  0  0  0
   -2.2818   -5.3543   -5.7323 O   0  0  0  0  0  0  0  0  0  0  0  0
   -4.4077   -6.3850   -5.4050 C   0  0  0  0  0  0  0  0  0  0  0  0
   -4.1861   -7.0201   -4.1676 C   0  0  0  0  0  0  0  0  0  0  0  0
   -5.3110   -7.6327   -3.6520 C   0  0  0  0  0  0  0  0  0  0  0  0
   -6.5871   -7.6028   -4.2998 C   0  0  0  0  0  0  0  0  0  0  0  0
   -6.7966   -7.0011   -5.5369 C   0  0  0  0  0  0  0  0  0  0  0  0
   -5.6362   -6.4031   -6.1064 C   0  0  0  0  0  0  0  0  0  0  0  0
   -5.4603   -5.6641   -7.3964 C   0  0  0  0  0  0  0  0  0  0  0  0
   -6.2637   -5.7550   -8.4898 C   0  0  0  0  0  0  0  0  0  0  0  0
   -5.8763   -5.2185   -9.7670 C   0  0  0  0  0  0  0  0  0  0  0  0
   -5.5533   -4.7941  -10.7895 N   0  0  0  0  0  0  0  0  0  0  0  0
   -7.4716   -6.5412   -8.5014 C   0  0  0  0  0  0  0  0  0  0  0  0
   -8.4418   -7.1749   -8.5268 N   0  0  0  0  0  0  0  0  0  0  0  0
   -7.2030   -8.3435   -3.1411 C   0  0  0  0  0  0  0  0  0  0  0  0
   -8.0534   -7.5018   -2.1391 C   0  0  0  0  0  0  0  0  0  0  0  0
   -8.2188   -8.3600   -0.9108 C   0  0  0  0  0  0  0  0  0  0  0  0
   -7.0164   -8.4242   -0.3247 C   0  0  0  0  0  0  0  0  0  0  0  0
   -6.0860   -7.5938   -1.1787 C   0  0  0  0  0  0  0  0  0  0  0  0
   -7.0562   -6.4958   -1.5900 C   0  0  0  0  0  0  0  0  0  0  0  0
   -5.8852   -8.3920   -2.5015 C   0  0  0  0  0  0  0  0  0  0  0  0
   -2.6400   -3.0054   -7.5784 C   0  0  0  0  0  0  0  0  0  0  0  0
   -1.3112   -3.4787   -7.4590 C   0  0  0  0  0  0  0  0  0  0  0  0
   -0.3907   -2.6860   -6.7582 C   0  0  0  0  0  0  0  0  0  0  0  0
    0.8028   -3.0702   -6.2268 N   0  0  0  0  0  0  0  0  0  0  0  0
    1.4975   -4.3429   -6.4282 C   0  0  0  0  0  0  0  0  0  0  0  0
    2.4534   -4.2350   -7.6089 C   0  0  0  0  0  0  0  0  0  0  0  0
    1.1956   -2.0270   -5.4426 C   0  0  0  0  0  0  0  0  0  0  0  0
    0.2781   -0.9919   -5.5147 C   0  0  0  0  0  0  0  0  0  0  0  0
   -0.7376   -1.4200   -6.3297 C   0  0  0  0  0  0  0  0  0  0  0  0
   -1.9934   -0.8784   -6.5606 C   0  0  0  0  0  0  0  0  0  0  0  0
   -2.9532   -1.6839   -7.1849 C   0  0  0  0  0  0  0  0  0  0  0  0
    0.3683    0.1399   -4.7172 C   0  0  0  0  0  0  0  0  0  0  0  0
    1.4114    0.2059   -3.7940 C   0  0  0  0  0  0  0  0  0  0  0  0
    2.3200   -0.8665   -3.6452 C   0  0  0  0  0  0  0  0  0  0  0  0
    2.2300   -1.9918   -4.4922 C   0  0  0  0  0  0  0  0  0  0  0  0
    3.0958   -0.9115   -2.3821 C   0  0  0  0  0  0  0  0  0  0  0  0
    4.2496   -0.1358   -2.2295 C   0  0  0  0  0  0  0  0  0  0  0  0
    4.8855    0.3703   -3.3228 F   0  0  0  0  0  0  0  0  0  0  0  0
    4.6779    0.2416   -0.9535 C   0  0  0  0  0  0  0  0  0  0  0  0
    5.7080    1.1180   -0.8448 F   0  0  0  0  0  0  0  0  0  0  0  0
    3.9281   -0.0939    0.1945 C   0  0  0  0  0  0  0  0  0  0  0  0
    2.8628   -1.0063    0.0531 C   0  0  0  0  0  0  0  0  0  0  0  0
    2.1240   -1.4032    1.1258 N   0  0  0  0  0  0  0  0  0  0  0  0
    1.0419   -2.2292    0.9974 C   0  0  0  0  0  0  0  0  0  0  0  0
    0.2971   -2.6403    2.2405 C   0  0  0  0  0  0  0  0  0  0  0  0
   -0.7129   -1.5667    2.6412 C   0  0  0  0  0  0  0  0  0  0  0  0
    0.6264   -2.6170   -0.2945 C   0  0  0  0  0  0  0  0  0  0  0  0
    1.3512   -2.2058   -1.3597 N   0  0  0  0  0  0  0  0  0  0  0  0
    2.4553   -1.4224   -1.2342 C   0  0  0  0  0  0  0  0  0  0  0  0
   -0.5496   -3.5254   -0.5548 C   0  0  0  0  0  0  0  0  0  0  0  0
   -0.1151   -4.9849   -0.5704 C   0  0  0  0  0  0  0  0  0  0  0  0
    3.8585    0.9239    1.2601 C   0  0  0  0  0  0  0  0  0  0  0  0
    3.8276    0.7933    2.6668 C   0  0  0  0  0  0  0  0  0  0  0  0
    4.4324   -0.2916    3.4018 N   0  0  0  0  0  0  0  0  0  0  0  0
    5.8131   -0.1301    3.7923 C   0  0  0  0  0  0  0  0  0  0  0  0
    6.2018   -0.3365    5.1285 C   0  0  0  0  0  0  0  0  0  0  0  0
    7.5185   -0.0911    5.5360 C   0  0  0  0  0  0  0  0  0  0  0  0
    8.4549    0.3820    4.6141 C   0  0  0  0  0  0  0  0  0  0  0  0
   10.1115    0.8122    5.1623 S   0  0  0  0  0  0  0  0  0  0  0  0
   10.8284   -0.7975    4.7329 C   0  0  0  0  0  0  0  0  0  0  0  0
    8.0816    0.5842    3.2831 C   0  0  0  0  0  0  0  0  0  0  0  0
    6.7741    0.3264    2.8704 C   0  0  0  0  0  0  0  0  0  0  0  0
    3.6229   -1.3064    4.0365 C   0  0  0  0  0  0  0  0  0  0  0  0
    2.3769   -0.9874    4.6094 C   0  0  0  0  0  0  0  0  0  0  0  0
    1.6983   -1.9184    5.3999 C   0  0  0  0  0  0  0  0  0  0  0  0
    2.2151   -3.2080    5.5666 C   0  0  0  0  0  0  0  0  0  0  0  0
    1.2969   -4.4269    6.5106 S   0  0  0  0  0  0  0  0  0  0  0  0
    2.0791   -3.9727    8.0839 C   0  0  0  0  0  0  0  0  0  0  0  0
    3.4228   -3.5537    4.9515 C   0  0  0  0  0  0  0  0  0  0  0  0
    4.1229   -2.6113    4.1919 C   0  0  0  0  0  0  0  0  0  0  0  0
    3.4579    2.0090    3.2675 C   0  0  0  0  0  0  0  0  0  0  0  0
    3.0041    2.4623    4.8189 S   0  0  0  0  0  0  0  0  0  0  0  0
    2.4381    4.0061    4.3492 C   0  0  0  0  0  0  0  0  0  0  0  0
    2.6655    4.1929    2.9712 C   0  0  0  0  0  0  0  0  0  0  0  0
    2.3454    5.3912    2.2210 N   0  0  0  0  0  0  0  0  0  0  0  0
    2.7950    5.5391    0.8692 C   0  0  0  0  0  0  0  0  0  0  0  0
    4.1682    5.6560    0.5881 C   0  0  0  0  0  0  0  0  0  0  0  0
    4.6110    5.8210   -0.7265 C   0  0  0  0  0  0  0  0  0  0  0  0
    3.6753    5.8790   -1.7668 C   0  0  0  0  0  0  0  0  0  0  0  0
    4.2326    6.1360   -3.4545 S   0  0  0  0  0  0  0  0  0  0  0  0
    4.0718    7.9473   -3.3373 C   0  0  0  0  0  0  0  0  0  0  0  0
    2.3067    5.7662   -1.4950 C   0  0  0  0  0  0  0  0  0  0  0  0
    1.8659    5.5970   -0.1795 C   0  0  0  0  0  0  0  0  0  0  0  0
    2.0329    6.6257    2.8779 C   0  0  0  0  0  0  0  0  0  0  0  0
    0.7548    7.1894    2.7589 C   0  0  0  0  0  0  0  0  0  0  0  0
    0.4647    8.4095    3.3748 C   0  0  0  0  0  0  0  0  0  0  0  0
    1.4688    9.1149    4.0534 C   0  0  0  0  0  0  0  0  0  0  0  0
    1.0841   10.6531    4.8837 S   0  0  0  0  0  0  0  0  0  0  0  0
    1.0625    9.9049    6.5439 C   0  0  0  0  0  0  0  0  0  0  0  0
    2.7568    8.5769    4.1375 C   0  0  0  0  0  0  0  0  0  0  0  0
    3.0400    7.3223    3.5760 C   0  0  0  0  0  0  0  0  0  0  0  0
    3.1975    3.0328    2.4105 C   0  0  0  0  0  0  0  0  0  0  0  0
    3.3911    2.5006    0.8476 S   0  0  0  0  0  0  0  0  0  0  0  0
    1.4736    4.7770    5.1553 C   0  0  0  0  0  0  0  0  0  0  0  0
    0.1477    4.7290    4.9057 C   0  0  0  0  0  0  0  0  0  0  0  0
   -0.5211    3.8640    3.9265 C   0  0  0  0  0  0  0  0  0  0  0  0
   -0.0490    2.8060    3.4320 O   0  0  0  0  0  0  0  0  0  0  0  0
   -1.8525    4.3671    3.6783 C   0  0  0  0  0  0  0  0  0  0  0  0
   -2.8780    3.7336    2.9359 C   0  0  0  0  0  0  0  0  0  0  0  0
   -4.1077    4.3531    3.0347 C   0  0  0  0  0  0  0  0  0  0  0  0
   -4.3191    5.5683    3.7538 C   0  0  0  0  0  0  0  0  0  0  0  0
   -3.3145    6.2063    4.4537 C   0  0  0  0  0  0  0  0  0  0  0  0
   -2.0514    5.5371    4.4538 C   0  0  0  0  0  0  0  0  0  0  0  0
   -0.8642    5.7379    5.3408 C   0  0  0  0  0  0  0  0  0  0  0  0
   -0.7914    6.5074    6.4478 C   0  0  0  0  0  0  0  0  0  0  0  0
   -1.7794    7.4889    6.7938 C   0  0  0  0  0  0  0  0  0  0  0  0
   -2.5531    8.3089    7.0615 N   0  0  0  0  0  0  0  0  0  0  0  0
    0.0744    6.1346    7.5374 C   0  0  0  0  0  0  0  0  0  0  0  0
    0.6811    5.7842    8.4663 N   0  0  0  0  0  0  0  0  0  0  0  0
   -5.7813    5.5339    3.4381 C   0  0  0  0  0  0  0  0  0  0  0  0
   -6.3378    6.4970    2.3398 C   0  0  0  0  0  0  0  0  0  0  0  0
   -5.2776    6.7604    1.2954 C   0  0  0  0  0  0  0  0  0  0  0  0
   -5.1073    5.6100    0.6404 C   0  0  0  0  0  0  0  0  0  0  0  0
   -6.0466    4.6088    1.2631 C   0  0  0  0  0  0  0  0  0  0  0  0
   -7.2095    5.5324    1.5675 C   0  0  0  0  0  0  0  0  0  0  0  0
   -5.5677    4.2791    2.7111 C   0  0  0  0  0  0  0  0  0  0  0  0
   -4.4499   -3.4395   -8.6881 H   0  0  0  0  0  0  0  0  0  0  0  0
   -3.2381   -7.0112   -3.6476 H   0  0  0  0  0  0  0  0  0  0  0  0
   -7.7842   -6.9750   -5.9810 H   0  0  0  0  0  0  0  0  0  0  0  0
   -7.6137   -9.3416   -3.4130 H   0  0  0  0  0  0  0  0  0  0  0  0
   -8.9996   -7.0823   -2.5518 H   0  0  0  0  0  0  0  0  0  0  0  0
   -9.1386   -8.7810   -0.5183 H   0  0  0  0  0  0  0  0  0  0  0  0
   -6.7886   -8.8995    0.6233 H   0  0  0  0  0  0  0  0  0  0  0  0
   -5.1466   -7.2649   -0.6776 H   0  0  0  0  0  0  0  0  0  0  0  0
   -7.4445   -5.9081   -0.7171 H   0  0  0  0  0  0  0  0  0  0  0  0
   -6.6550   -5.7838   -2.3515 H   0  0  0  0  0  0  0  0  0  0  0  0
   -5.4630   -9.4211   -2.3829 H   0  0  0  0  0  0  0  0  0  0  0  0
   -1.0614   -4.4757   -7.7863 H   0  0  0  0  0  0  0  0  0  0  0  0
    2.0629   -4.6244   -5.5127 H   0  0  0  0  0  0  0  0  0  0  0  0
    0.7683   -5.1558   -6.6085 H   0  0  0  0  0  0  0  0  0  0  0  0
    1.8943   -3.9214   -8.5222 H   0  0  0  0  0  0  0  0  0  0  0  0
    2.9196   -5.2251   -7.8017 H   0  0  0  0  0  0  0  0  0  0  0  0
    3.2474   -3.4902   -7.3966 H   0  0  0  0  0  0  0  0  0  0  0  0
   -2.2643    0.1052   -6.1854 H   0  0  0  0  0  0  0  0  0  0  0  0
   -3.9682   -1.3122   -7.2856 H   0  0  0  0  0  0  0  0  0  0  0  0
   -0.3935    0.9069   -4.7448 H   0  0  0  0  0  0  0  0  0  0  0  0
    1.4479    1.0550   -3.1128 H   0  0  0  0  0  0  0  0  0  0  0  0
    2.8823   -2.8365   -4.3349 H   0  0  0  0  0  0  0  0  0  0  0  0
   -0.2001   -3.6168    2.1245 H   0  0  0  0  0  0  0  0  0  0  0  0
    1.0349   -2.7826    3.0448 H   0  0  0  0  0  0  0  0  0  0  0  0
   -0.2000   -0.5923    2.8095 H   0  0  0  0  0  0  0  0  0  0  0  0
   -1.4807   -1.4406    1.8506 H   0  0  0  0  0  0  0  0  0  0  0  0
   -1.2191   -1.8607    3.5823 H   0  0  0  0  0  0  0  0  0  0  0  0
   -1.3513   -3.3734    0.1961 H   0  0  0  0  0  0  0  0  0  0  0  0
   -1.0000   -3.2691   -1.5440 H   0  0  0  0  0  0  0  0  0  0  0  0
   -1.0106   -5.6318   -0.6156 H   0  0  0  0  0  0  0  0  0  0  0  0
    0.4586   -5.2267    0.3471 H   0  0  0  0  0  0  0  0  0  0  0  0
    0.5170   -5.1816   -1.4584 H   0  0  0  0  0  0  0  0  0  0  0  0
    5.4800   -0.6474    5.8735 H   0  0  0  0  0  0  0  0  0  0  0  0
    7.7931   -0.2423    6.5745 H   0  0  0  0  0  0  0  0  0  0  0  0
   10.6536   -1.0147    3.6563 H   0  0  0  0  0  0  0  0  0  0  0  0
   11.9239   -0.7765    4.9241 H   0  0  0  0  0  0  0  0  0  0  0  0
   10.3647   -1.5902    5.3564 H   0  0  0  0  0  0  0  0  0  0  0  0
    8.8057    0.9593    2.5735 H   0  0  0  0  0  0  0  0  0  0  0  0
    6.5131    0.4996    1.8375 H   0  0  0  0  0  0  0  0  0  0  0  0
    1.9334   -0.0244    4.4642 H   0  0  0  0  0  0  0  0  0  0  0  0
    0.7512   -1.6509    5.8389 H   0  0  0  0  0  0  0  0  0  0  0  0
    1.6119   -4.5438    8.9121 H   0  0  0  0  0  0  0  0  0  0  0  0
    3.1624   -4.2132    8.0551 H   0  0  0  0  0  0  0  0  0  0  0  0
    1.9480   -2.8886    8.2877 H   0  0  0  0  0  0  0  0  0  0  0  0
    3.8219   -4.5552    5.0562 H   0  0  0  0  0  0  0  0  0  0  0  0
    5.0717   -2.8858    3.7519 H   0  0  0  0  0  0  0  0  0  0  0  0
    4.8930    5.6054    1.3899 H   0  0  0  0  0  0  0  0  0  0  0  0
    5.6665    5.9124   -0.9286 H   0  0  0  0  0  0  0  0  0  0  0  0
    2.9996    8.2395   -3.3318 H   0  0  0  0  0  0  0  0  0  0  0  0
    4.5608    8.4121   -4.2187 H   0  0  0  0  0  0  0  0  0  0  0  0
    4.5635    8.3266   -2.4148 H   0  0  0  0  0  0  0  0  0  0  0  0
    1.5838    5.8285   -2.2891 H   0  0  0  0  0  0  0  0  0  0  0  0
    0.8075    5.5102    0.0311 H   0  0  0  0  0  0  0  0  0  0  0  0
   -0.0069    6.6761    2.1912 H   0  0  0  0  0  0  0  0  0  0  0  0
   -0.5298    8.8244    3.2928 H   0  0  0  0  0  0  0  0  0  0  0  0
    0.6277    8.8852    6.5258 H   0  0  0  0  0  0  0  0  0  0  0  0
    0.4585   10.5404    7.2240 H   0  0  0  0  0  0  0  0  0  0  0  0
    2.1013    9.8489    6.9334 H   0  0  0  0  0  0  0  0  0  0  0  0
    3.5389    9.1107    4.6663 H   0  0  0  0  0  0  0  0  0  0  0  0
    4.0369    6.9143    3.6548 H   0  0  0  0  0  0  0  0  0  0  0  0
    1.8829    5.5023    5.8431 H   0  0  0  0  0  0  0  0  0  0  0  0
   -2.7290    2.8061    2.4136 H   0  0  0  0  0  0  0  0  0  0  0  0
   -3.5314    7.1077    5.0059 H   0  0  0  0  0  0  0  0  0  0  0  0
   -6.4189    5.4326    4.3405 H   0  0  0  0  0  0  0  0  0  0  0  0
   -6.8586    7.4078    2.7228 H   0  0  0  0  0  0  0  0  0  0  0  0
   -4.8307    7.7037    1.0335 H   0  0  0  0  0  0  0  0  0  0  0  0
   -4.4932    5.4593   -0.2366 H   0  0  0  0  0  0  0  0  0  0  0  0
   -6.2780    3.7308    0.6339 H   0  0  0  0  0  0  0  0  0  0  0  0
   -7.6745    5.9791    0.6577 H   0  0  0  0  0  0  0  0  0  0  0  0
   -8.0049    5.0451    2.1878 H   0  0  0  0  0  0  0  0  0  0  0  0
   -6.0878    3.4166    3.1818 H   0  0  0  0  0  0  0  0  0  0  0  0
  1  2  2  3
  2  3  1  0
  3  4  2  0
  3  5  1  0
  5  6  2  0
  6  7  1  0
  7  8  2  0
  8  9  1  0
  9 10  2  0
 10 11  1  0
 11 12  2  3
 12 13  1  0
 13 14  3  0
 12 15  1  0
 15 16  3  0
  8 17  1  0
 17 18  1  0
 18 19  1  0
 19 20  2  0
 20 21  1  0
 21 22  1  0
 21 23  1  0
  1 24  1  0
 24 25  2  0
 25 26  1  0
 26 27  1  0
 27 28  1  0
 28 29  1  0
 27 30  1  0
 30 31  2  0
 31 32  1  0
 32 33  1  0
 33 34  2  0
 31 35  1  0
 35 36  2  0
 36 37  1  0
 37 38  2  0
 37 39  1  0
 39 40  2  0
 40 41  1  0
 40 42  1  0
 42 43  1  0
 42 44  2  0
 44 45  1  0
 45 46  2  0
 46 47  1  0
 47 48  1  0
 48 49  1  0
 47 50  2  0
 50 51  1  0
 51 52  2  0
 50 53  1  0
 53 54  1  0
 44 55  1  0
 55 56  2  0
 56 57  1  0
 57 58  1  0
 58 59  2  0
 59 60  1  0
 60 61  2  0
 61 62  1  0
 62 63  1  0
 61 64  1  0
 64 65  2  0
 57 66  1  0
 66 67  2  0
 67 68  1  0
 68 69  2  0
 69 70  1  0
 70 71  1  0
 69 72  1  0
 72 73  2  0
 56 74  1  0
 74 75  1  0
 75 76  1  0
 76 77  2  0
 77 78  1  0
 78 79  1  0
 79 80  2  0
 80 81  1  0
 81 82  2  0
 82 83  1  0
 83 84  1  0
 82 85  1  0
 85 86  2  0
 78 87  1  0
 87 88  2  0
 88 89  1  0
 89 90  2  0
 90 91  1  0
 91 92  1  0
 90 93  1  0
 93 94  2  0
 77 95  1  0
 95 96  1  0
 76 97  1  0
 97 98  2  3
 98 99  1  0
 99100  2  0
 99101  1  0
101102  2  0
102103  1  0
103104  2  0
104105  1  0
105106  2  0
106107  1  0
107108  2  3
108109  1  0
109110  3  0
108111  1  0
111112  3  0
104113  1  0
113114  1  0
114115  1  0
115116  2  0
116117  1  0
117118  1  0
117119  1  0
 11  2  1  0
 23 17  1  0
 34 24  1  0
 52 39  1  0
 96 55  1  0
107 98  1  0
119113  1  0
 10  5  1  0
 22 18  1  0
 32 26  2  0
 52 45  1  0
 65 58  1  0
 73 66  1  0
 95 74  2  0
106101  1  0
118114  1  0
 23  7  1  0
 38 30  1  0
 86 79  1  0
 94 87  1  0
119103  1  0
  1120  1  0
  6121  1  0
  9122  1  0
 17123  1  0
 18124  1  0
 19125  1  0
 20126  1  0
 21127  1  0
 22128  1  0
 22129  1  0
 23130  1  0
 25131  1  0
 28132  1  0
 28133  1  0
 29134  1  0
 29135  1  0
 29136  1  0
 33137  1  0
 34138  1  0
 35139  1  0
 36140  1  0
 38141  1  0
 48142  1  0
 48143  1  0
 49144  1  0
 49145  1  0
 49146  1  0
 53147  1  0
 53148  1  0
 54149  1  0
 54150  1  0
 54151  1  0
 59152  1  0
 60153  1  0
 63154  1  0
 63155  1  0
 63156  1  0
 64157  1  0
 65158  1  0
 67159  1  0
 68160  1  0
 71161  1  0
 71162  1  0
 71163  1  0
 72164  1  0
 73165  1  0
 80166  1  0
 81167  1  0
 84168  1  0
 84169  1  0
 84170  1  0
 85171  1  0
 86172  1  0
 88173  1  0
 89174  1  0
 92175  1  0
 92176  1  0
 92177  1  0
 93178  1  0
 94179  1  0
 97180  1  0
102181  1  0
105182  1  0
113183  1  0
114184  1  0
115185  1  0
116186  1  0
117187  1  0
118188  1  0
118189  1  0
119190  1  0
M  END

