
     RDKit          3D

199220  0  0  0  0  0  0  0  0999 V2000
   -1.2924   -6.6495   -3.0645 C   0  0  0  0  0  0  0  0  0  0  0  0
   -1.3780   -7.5751   -4.0430 C   0  0  0  0  0  0  0  0  0  0  0  0
   -2.6181   -7.9683   -4.7270 C   0  0  0  0  0  0  0  0  0  0  0  0
   -3.7785   -7.5504   -4.4643 O   0  0  0  0  0  0  0  0  0  0  0  0
   -2.3234   -9.0218   -5.6699 C   0  0  0  0  0  0  0  0  0  0  0  0
   -3.2286   -9.6298   -6.5712 C   0  0  0  0  0  0  0  0  0  0  0  0
   -2.6458  -10.5540   -7.4174 C   0  0  0  0  0  0  0  0  0  0  0  0
   -1.2499  -10.8617   -7.3871 C   0  0  0  0  0  0  0  0  0  0  0  0
   -0.3603  -10.2754   -6.5058 C   0  0  0  0  0  0  0  0  0  0  0  0
   -0.9432   -9.3443   -5.5970 C   0  0  0  0  0  0  0  0  0  0  0  0
   -0.2951   -8.4969   -4.5462 C   0  0  0  0  0  0  0  0  0  0  0  0
    1.0131   -8.5463   -4.1652 C   0  0  0  0  0  0  0  0  0  0  0  0
    1.9154   -9.5818   -4.5997 C   0  0  0  0  0  0  0  0  0  0  0  0
    2.6528  -10.4040   -4.9343 N   0  0  0  0  0  0  0  0  0  0  0  0
    1.6220   -7.5852   -3.2856 C   0  0  0  0  0  0  0  0  0  0  0  0
    2.1295   -6.8266   -2.5749 N   0  0  0  0  0  0  0  0  0  0  0  0
   -1.4100  -11.8038   -8.5412 C   0  0  0  0  0  0  0  0  0  0  0  0
   -0.9177  -11.3315   -9.9441 C   0  0  0  0  0  0  0  0  0  0  0  0
   -1.0624   -9.8325  -10.0705 C   0  0  0  0  0  0  0  0  0  0  0  0
   -2.3741   -9.5762  -10.0972 C   0  0  0  0  0  0  0  0  0  0  0  0
   -3.0730  -10.9088   -9.9838 C   0  0  0  0  0  0  0  0  0  0  0  0
   -2.1035  -11.7588  -10.7878 C   0  0  0  0  0  0  0  0  0  0  0  0
   -2.8476  -11.5086   -8.5615 C   0  0  0  0  0  0  0  0  0  0  0  0
   -2.3048   -5.6038   -2.7792 C   0  0  0  0  0  0  0  0  0  0  0  0
   -2.4725   -5.1798   -1.4420 C   0  0  0  0  0  0  0  0  0  0  0  0
   -3.2694   -4.0600   -1.1891 C   0  0  0  0  0  0  0  0  0  0  0  0
   -3.4339   -3.4054   -0.0090 N   0  0  0  0  0  0  0  0  0  0  0  0
   -2.8421   -3.7501    1.2899 C   0  0  0  0  0  0  0  0  0  0  0  0
   -3.8134   -4.5977    2.1014 C   0  0  0  0  0  0  0  0  0  0  0  0
   -4.1829   -2.3107   -0.3124 C   0  0  0  0  0  0  0  0  0  0  0  0
   -4.4731   -2.2682   -1.6575 C   0  0  0  0  0  0  0  0  0  0  0  0
   -3.8931   -3.3836   -2.2180 C   0  0  0  0  0  0  0  0  0  0  0  0
   -3.7500   -3.7696   -3.5480 C   0  0  0  0  0  0  0  0  0  0  0  0
   -2.9322   -4.8797   -3.8277 C   0  0  0  0  0  0  0  0  0  0  0  0
   -5.0987   -1.1733   -2.2391 C   0  0  0  0  0  0  0  0  0  0  0  0
   -5.3737   -0.0600   -1.4268 C   0  0  0  0  0  0  0  0  0  0  0  0
   -5.0388   -0.0517   -0.0419 C   0  0  0  0  0  0  0  0  0  0  0  0
   -4.4948   -1.2357    0.5241 C   0  0  0  0  0  0  0  0  0  0  0  0
   -4.9863    1.2187    0.7571 C   0  0  0  0  0  0  0  0  0  0  0  0
   -4.8497    2.5170    0.2070 C   0  0  0  0  0  0  0  0  0  0  0  0
   -5.6157    3.0219   -0.9066 N   0  0  0  0  0  0  0  0  0  0  0  0
   -4.9799    3.8876   -1.8680 C   0  0  0  0  0  0  0  0  0  0  0  0
   -5.4853    5.1783   -2.0996 C   0  0  0  0  0  0  0  0  0  0  0  0
   -4.8310    6.0434   -2.9823 C   0  0  0  0  0  0  0  0  0  0  0  0
   -3.6772    5.6206   -3.6504 C   0  0  0  0  0  0  0  0  0  0  0  0
   -2.8245    6.7441   -4.7577 S   0  0  0  0  0  0  0  0  0  0  0  0
   -3.8595    6.3120   -6.1911 C   0  0  0  0  0  0  0  0  0  0  0  0
   -3.1724    4.3348   -3.4280 C   0  0  0  0  0  0  0  0  0  0  0  0
   -3.8208    3.4709   -2.5400 C   0  0  0  0  0  0  0  0  0  0  0  0
   -7.0553    2.8584   -0.9248 C   0  0  0  0  0  0  0  0  0  0  0  0
   -7.7857    2.7356    0.2728 C   0  0  0  0  0  0  0  0  0  0  0  0
   -9.1638    2.5211    0.2448 C   0  0  0  0  0  0  0  0  0  0  0  0
   -9.8360    2.4319   -0.9760 C   0  0  0  0  0  0  0  0  0  0  0  0
  -11.5997    2.1089   -1.0096 S   0  0  0  0  0  0  0  0  0  0  0  0
  -11.3827    0.3070   -1.1602 C   0  0  0  0  0  0  0  0  0  0  0  0
   -9.1290    2.5821   -2.1722 C   0  0  0  0  0  0  0  0  0  0  0  0
   -7.7472    2.7895   -2.1494 C   0  0  0  0  0  0  0  0  0  0  0  0
   -4.0815    3.3568    1.0239 C   0  0  0  0  0  0  0  0  0  0  0  0
   -2.9442    4.5114    0.5846 S   0  0  0  0  0  0  0  0  0  0  0  0
   -1.9641    4.3432    1.9624 C   0  0  0  0  0  0  0  0  0  0  0  0
   -2.5448    3.3635    2.7797 C   0  0  0  0  0  0  0  0  0  0  0  0
   -1.9152    2.8216    3.9528 N   0  0  0  0  0  0  0  0  0  0  0  0
   -2.5174    3.1559    5.2176 C   0  0  0  0  0  0  0  0  0  0  0  0
   -2.7482    4.5014    5.5552 C   0  0  0  0  0  0  0  0  0  0  0  0
   -3.4139    4.8276    6.7414 C   0  0  0  0  0  0  0  0  0  0  0  0
   -3.8566    3.8121    7.5971 C   0  0  0  0  0  0  0  0  0  0  0  0
   -4.7772    4.2181    9.0836 S   0  0  0  0  0  0  0  0  0  0  0  0
   -3.3094    4.2129   10.1580 C   0  0  0  0  0  0  0  0  0  0  0  0
   -3.6211    2.4724    7.2704 C   0  0  0  0  0  0  0  0  0  0  0  0
   -2.9513    2.1453    6.0890 C   0  0  0  0  0  0  0  0  0  0  0  0
   -0.8944    1.7959    3.8647 C   0  0  0  0  0  0  0  0  0  0  0  0
   -0.8318    0.9238    2.7608 C   0  0  0  0  0  0  0  0  0  0  0  0
    0.0978   -0.1156    2.7278 C   0  0  0  0  0  0  0  0  0  0  0  0
    0.9910   -0.2946    3.7878 C   0  0  0  0  0  0  0  0  0  0  0  0
    2.1520   -1.6635    3.7540 S   0  0  0  0  0  0  0  0  0  0  0  0
    1.0081   -2.8161    4.5734 C   0  0  0  0  0  0  0  0  0  0  0  0
    0.9763    0.5964    4.8659 C   0  0  0  0  0  0  0  0  0  0  0  0
    0.0401    1.6332    4.9073 C   0  0  0  0  0  0  0  0  0  0  0  0
   -3.7060    2.8271    2.2219 C   0  0  0  0  0  0  0  0  0  0  0  0
   -4.2779    1.2643    2.3093 S   0  0  0  0  0  0  0  0  0  0  0  0
   -0.5134    4.5010    1.8704 C   0  0  0  0  0  0  0  0  0  0  0  0
    0.2854    5.3952    2.5737 C   0  0  0  0  0  0  0  0  0  0  0  0
    1.6615    5.1571    2.3679 C   0  0  0  0  0  0  0  0  0  0  0  0
    2.7362    5.9059    2.8896 C   0  0  0  0  0  0  0  0  0  0  0  0
    2.5123    7.0580    3.7811 C   0  0  0  0  0  0  0  0  0  0  0  0
    2.8213    8.6571    3.3701 S   0  0  0  0  0  0  0  0  0  0  0  0
    2.1602    9.3356    4.7612 C   0  0  0  0  0  0  0  0  0  0  0  0
    1.9609   10.8041    4.9731 C   0  0  0  0  0  0  0  0  0  0  0  0
    0.6536   11.2605    4.3326 C   0  0  0  0  0  0  0  0  0  0  0  0
    1.6622    8.3071    5.5631 C   0  0  0  0  0  0  0  0  0  0  0  0
    0.8128    8.5792    7.0802 Cl  0  0  0  0  0  0  0  0  0  0  0  0
    1.8668    7.0313    5.0165 C   0  0  0  0  0  0  0  0  0  0  0  0
    1.3376    5.5476    5.8050 Cl  0  0  0  0  0  0  0  0  0  0  0  0
    4.0323    5.5092    2.5123 C   0  0  0  0  0  0  0  0  0  0  0  0
    4.2703    4.3774    1.7256 C   0  0  0  0  0  0  0  0  0  0  0  0
    3.1983    3.6223    1.2168 C   0  0  0  0  0  0  0  0  0  0  0  0
    3.4012    2.3736    0.4647 C   0  0  0  0  0  0  0  0  0  0  0  0
    2.9678    0.8540    1.0296 S   0  0  0  0  0  0  0  0  0  0  0  0
    3.4323    0.0053   -0.3443 C   0  0  0  0  0  0  0  0  0  0  0  0
    3.2413   -1.4686   -0.5351 C   0  0  0  0  0  0  0  0  0  0  0  0
    1.8522   -1.7620   -1.0902 C   0  0  0  0  0  0  0  0  0  0  0  0
    3.9191    0.9164   -1.2835 C   0  0  0  0  0  0  0  0  0  0  0  0
    3.9108    2.2439   -0.8246 C   0  0  0  0  0  0  0  0  0  0  0  0
    4.4349    3.6134   -1.7964 Cl  0  0  0  0  0  0  0  0  0  0  0  0
    4.4624    0.4568   -2.8906 Cl  0  0  0  0  0  0  0  0  0  0  0  0
    1.9068    4.0639    1.5338 C   0  0  0  0  0  0  0  0  0  0  0  0
    0.4543    3.4234    1.0108 S   0  0  0  0  0  0  0  0  0  0  0  0
    5.6320    4.1137    1.5219 C   0  0  0  0  0  0  0  0  0  0  0  0
    6.4590    5.0577    2.1258 C   0  0  0  0  0  0  0  0  0  0  0  0
    5.5102    6.2144    2.9115 S   0  0  0  0  0  0  0  0  0  0  0  0
    7.9182    5.1077    1.9626 C   0  0  0  0  0  0  0  0  0  0  0  0
    8.7158    4.0555    2.2139 C   0  0  0  0  0  0  0  0  0  0  0  0
    8.3958    2.9331    3.1041 C   0  0  0  0  0  0  0  0  0  0  0  0
    7.2745    2.6965    3.6332 O   0  0  0  0  0  0  0  0  0  0  0  0
    9.6337    2.2577    3.4397 C   0  0  0  0  0  0  0  0  0  0  0  0
    9.8312    1.2563    4.3928 C   0  0  0  0  0  0  0  0  0  0  0  0
   11.1487    0.8518    4.6816 C   0  0  0  0  0  0  0  0  0  0  0  0
   11.3928   -0.1429    5.6395 C   0  0  0  0  0  0  0  0  0  0  0  0
   12.7048   -0.5112    5.9481 C   0  0  0  0  0  0  0  0  0  0  0  0
   12.9329   -1.4696    6.8807 F   0  0  0  0  0  0  0  0  0  0  0  0
   13.7828    0.1237    5.3234 C   0  0  0  0  0  0  0  0  0  0  0  0
   15.0535   -0.2095    5.6611 F   0  0  0  0  0  0  0  0  0  0  0  0
   13.5569    1.1151    4.3622 C   0  0  0  0  0  0  0  0  0  0  0  0
   12.2446    1.4830    4.0269 C   0  0  0  0  0  0  0  0  0  0  0  0
   12.0092    2.4932    3.0722 C   0  0  0  0  0  0  0  0  0  0  0  0
   10.6871    2.8598    2.7761 C   0  0  0  0  0  0  0  0  0  0  0  0
   10.1688    3.9392    1.8930 C   0  0  0  0  0  0  0  0  0  0  0  0
   10.7872    4.4537    0.7977 C   0  0  0  0  0  0  0  0  0  0  0  0
   10.0815    5.2556   -0.1666 C   0  0  0  0  0  0  0  0  0  0  0  0
    9.5118    5.8886   -0.9524 N   0  0  0  0  0  0  0  0  0  0  0  0
   12.1369    4.1073    0.4327 C   0  0  0  0  0  0  0  0  0  0  0  0
   13.2190    3.8318    0.1211 N   0  0  0  0  0  0  0  0  0  0  0  0
   -0.4346   -6.6153   -2.4228 H   0  0  0  0  0  0  0  0  0  0  0  0
   -4.2762   -9.3702   -6.6215 H   0  0  0  0  0  0  0  0  0  0  0  0
    0.6834  -10.5189   -6.5619 H   0  0  0  0  0  0  0  0  0  0  0  0
   -1.1730  -12.8616   -8.2938 H   0  0  0  0  0  0  0  0  0  0  0  0
    0.0667  -11.7366  -10.2651 H   0  0  0  0  0  0  0  0  0  0  0  0
   -0.2753   -9.0987  -10.1950 H   0  0  0  0  0  0  0  0  0  0  0  0
   -2.8278   -8.6035  -10.2481 H   0  0  0  0  0  0  0  0  0  0  0  0
   -4.1227  -10.9182  -10.3449 H   0  0  0  0  0  0  0  0  0  0  0  0
   -2.3198  -12.8501  -10.7299 H   0  0  0  0  0  0  0  0  0  0  0  0
   -2.0215  -11.4489  -11.8575 H   0  0  0  0  0  0  0  0  0  0  0  0
   -3.4880  -12.3843   -8.3171 H   0  0  0  0  0  0  0  0  0  0  0  0
   -1.9588   -5.6890   -0.6400 H   0  0  0  0  0  0  0  0  0  0  0  0
   -2.5792   -2.8328    1.8548 H   0  0  0  0  0  0  0  0  0  0  0  0
   -1.8926   -4.3100    1.1496 H   0  0  0  0  0  0  0  0  0  0  0  0
   -3.3460   -4.8838    3.0671 H   0  0  0  0  0  0  0  0  0  0  0  0
   -4.0752   -5.5205    1.5397 H   0  0  0  0  0  0  0  0  0  0  0  0
   -4.7424   -4.0228    2.3109 H   0  0  0  0  0  0  0  0  0  0  0  0
   -4.1985   -3.1965   -4.3509 H   0  0  0  0  0  0  0  0  0  0  0  0
   -2.7469   -5.1387   -4.8626 H   0  0  0  0  0  0  0  0  0  0  0  0
   -5.2991   -1.1445   -3.3003 H   0  0  0  0  0  0  0  0  0  0  0  0
   -5.7721    0.8045   -1.9192 H   0  0  0  0  0  0  0  0  0  0  0  0
   -4.2137   -1.2829    1.5662 H   0  0  0  0  0  0  0  0  0  0  0  0
   -6.3699    5.5219   -1.5788 H   0  0  0  0  0  0  0  0  0  0  0  0
   -5.2219    7.0395   -3.1435 H   0  0  0  0  0  0  0  0  0  0  0  0
   -4.9298    6.4932   -5.9602 H   0  0  0  0  0  0  0  0  0  0  0  0
   -3.7158    5.2443   -6.4585 H   0  0  0  0  0  0  0  0  0  0  0  0
   -3.5666    6.9449   -7.0537 H   0  0  0  0  0  0  0  0  0  0  0  0
   -2.2703    4.0098   -3.9290 H   0  0  0  0  0  0  0  0  0  0  0  0
   -3.4203    2.4791   -2.3689 H   0  0  0  0  0  0  0  0  0  0  0  0
   -7.2891    2.8047    1.2311 H   0  0  0  0  0  0  0  0  0  0  0  0
   -9.7061    2.4133    1.1731 H   0  0  0  0  0  0  0  0  0  0  0  0
  -10.7798   -0.0803   -0.3131 H   0  0  0  0  0  0  0  0  0  0  0  0
  -12.3781   -0.1806   -1.1416 H   0  0  0  0  0  0  0  0  0  0  0  0
  -10.8785    0.0601   -2.1189 H   0  0  0  0  0  0  0  0  0  0  0  0
   -9.6437    2.5175   -3.1224 H   0  0  0  0  0  0  0  0  0  0  0  0
   -7.2126    2.8729   -3.0882 H   0  0  0  0  0  0  0  0  0  0  0  0
   -2.4290    5.2930    4.8914 H   0  0  0  0  0  0  0  0  0  0  0  0
   -3.6067    5.8658    6.9794 H   0  0  0  0  0  0  0  0  0  0  0  0
   -2.7589    3.2562   10.0459 H   0  0  0  0  0  0  0  0  0  0  0  0
   -2.6437    5.0623    9.8980 H   0  0  0  0  0  0  0  0  0  0  0  0
   -3.6352    4.3148   11.2140 H   0  0  0  0  0  0  0  0  0  0  0  0
   -3.9755    1.6831    7.9209 H   0  0  0  0  0  0  0  0  0  0  0  0
   -2.7996    1.1053    5.8346 H   0  0  0  0  0  0  0  0  0  0  0  0
   -1.5059    1.0317    1.9250 H   0  0  0  0  0  0  0  0  0  0  0  0
    0.1195   -0.7869    1.8783 H   0  0  0  0  0  0  0  0  0  0  0  0
    0.0375   -2.8522    4.0363 H   0  0  0  0  0  0  0  0  0  0  0  0
    1.4544   -3.8311    4.5692 H   0  0  0  0  0  0  0  0  0  0  0  0
    0.8426   -2.4921    5.6214 H   0  0  0  0  0  0  0  0  0  0  0  0
    1.6808    0.4765    5.6803 H   0  0  0  0  0  0  0  0  0  0  0  0
    0.0338    2.2992    5.7591 H   0  0  0  0  0  0  0  0  0  0  0  0
   -0.1203    6.1717    3.2083 H   0  0  0  0  0  0  0  0  0  0  0  0
    1.9475   11.0366    6.0591 H   0  0  0  0  0  0  0  0  0  0  0  0
    2.8063   11.3619    4.5158 H   0  0  0  0  0  0  0  0  0  0  0  0
   -0.2048   10.7191    4.7872 H   0  0  0  0  0  0  0  0  0  0  0  0
    0.6715   11.0660    3.2394 H   0  0  0  0  0  0  0  0  0  0  0  0
    0.5153   12.3495    4.4993 H   0  0  0  0  0  0  0  0  0  0  0  0
    4.0124   -1.8709   -1.2266 H   0  0  0  0  0  0  0  0  0  0  0  0
    3.3608   -1.9825    0.4429 H   0  0  0  0  0  0  0  0  0  0  0  0
    1.0722   -1.4341   -0.3710 H   0  0  0  0  0  0  0  0  0  0  0  0
    1.7427   -2.8554   -1.2536 H   0  0  0  0  0  0  0  0  0  0  0  0
    1.7035   -1.2395   -2.0592 H   0  0  0  0  0  0  0  0  0  0  0  0
    6.0106    3.2957    0.9265 H   0  0  0  0  0  0  0  0  0  0  0  0
    8.3399    6.0308    1.5956 H   0  0  0  0  0  0  0  0  0  0  0  0
    8.9857    0.8212    4.9097 H   0  0  0  0  0  0  0  0  0  0  0  0
   10.5697   -0.6288    6.1504 H   0  0  0  0  0  0  0  0  0  0  0  0
   14.4049    1.6086    3.9038 H   0  0  0  0  0  0  0  0  0  0  0  0
   12.8427    3.0149    2.6324 H   0  0  0  0  0  0  0  0  0  0  0  0
  1  2  2  3
  2  3  1  0
  3  4  2  0
  3  5  1  0
  5  6  2  0
  6  7  1  0
  7  8  2  0
  8  9  1  0
  9 10  2  0
 10 11  1  0
 11 12  2  3
 12 13  1  0
 13 14  3  0
 12 15  1  0
 15 16  3  0
  8 17  1  0
 17 18  1  0
 18 19  1  0
 19 20  2  0
 20 21  1  0
 21 22  1  0
 21 23  1  0
  1 24  1  0
 24 25  2  0
 25 26  1  0
 26 27  1  0
 27 28  1  0
 28 29  1  0
 27 30  1  0
 30 31  2  0
 31 32  1  0
 32 33  1  0
 33 34  2  0
 31 35  1  0
 35 36  2  0
 36 37  1  0
 37 38  2  0
 37 39  1  0
 39 40  2  0
 40 41  1  0
 41 42  1  0
 42 43  2  0
 43 44  1  0
 44 45  2  0
 45 46  1  0
 46 47  1  0
 45 48  1  0
 48 49  2  0
 41 50  1  0
 50 51  2  0
 51 52  1  0
 52 53  2  0
 53 54  1  0
 54 55  1  0
 53 56  1  0
 56 57  2  0
 40 58  1  0
 58 59  1  0
 59 60  1  0
 60 61  2  0
 61 62  1  0
 62 63  1  0
 63 64  2  0
 64 65  1  0
 65 66  2  0
 66 67  1  0
 67 68  1  0
 66 69  1  0
 69 70  2  0
 62 71  1  0
 71 72  2  0
 72 73  1  0
 73 74  2  0
 74 75  1  0
 75 76  1  0
 74 77  1  0
 77 78  2  0
 61 79  1  0
 79 80  1  0
 60 81  1  0
 81 82  2  0
 82 83  1  0
 83 84  2  0
 84 85  1  0
 85 86  1  0
 86 87  1  0
 87 88  1  0
 88 89  1  0
 87 90  2  0
 90 91  1  0
 90 92  1  0
 92 93  1  0
 84 94  1  0
 94 95  2  0
 95 96  1  0
 96 97  1  0
 97 98  1  0
 98 99  1  0
 99100  1  0
100101  1  0
 99102  2  0
102103  1  0
103104  1  0
102105  1  0
 96106  2  0
106107  1  0
 95108  1  0
108109  2  0
109110  1  0
109111  1  0
111112  2  3
112113  1  0
113114  2  0
113115  1  0
115116  2  0
116117  1  0
117118  2  0
118119  1  0
119120  1  0
119121  2  0
121122  1  0
121123  1  0
123124  2  0
124125  1  0
125126  2  0
126127  1  0
127128  2  3
128129  1  0
129130  3  0
128131  1  0
131132  3  0
 11  2  1  0
 23 17  1  0
 34 24  1  0
 80 39  1  0
107 81  1  0
127112  1  0
 10  5  1  0
 22 18  1  0
 32 26  2  0
 49 42  1  0
 57 50  1  0
 79 58  2  0
106 83  1  0
126115  1  0
 23  7  1  0
 38 30  1  0
 70 63  1  0
 78 71  1  0
 92 85  2  0
110 94  1  0
124117  1  0
103 97  2  0
  1133  1  0
  6134  1  0
  9135  1  0
 17136  1  0
 18137  1  0
 19138  1  0
 20139  1  0
 21140  1  0
 22141  1  0
 22142  1  0
 23143  1  0
 25144  1  0
 28145  1  0
 28146  1  0
 29147  1  0
 29148  1  0
 29149  1  0
 33150  1  0
 34151  1  0
 35152  1  0
 36153  1  0
 38154  1  0
 43155  1  0
 44156  1  0
 47157  1  0
 47158  1  0
 47159  1  0
 48160  1  0
 49161  1  0
 51162  1  0
 52163  1  0
 55164  1  0
 55165  1  0
 55166  1  0
 56167  1  0
 57168  1  0
 64169  1  0
 65170  1  0
 68171  1  0
 68172  1  0
 68173  1  0
 69174  1  0
 70175  1  0
 72176  1  0
 73177  1  0
 76178  1  0
 76179  1  0
 76180  1  0
 77181  1  0
 78182  1  0
 82183  1  0
 88184  1  0
 88185  1  0
 89186  1  0
 89187  1  0
 89188  1  0
100189  1  0
100190  1  0
101191  1  0
101192  1  0
101193  1  0
108194  1  0
111195  1  0
116196  1  0
118197  1  0
123198  1  0
125199  1  0
M  END

