
     RDKit          3D

134147  0  0  0  0  0  0  0  0999 V2000
    7.2575   -0.7283   -0.6666 C   0  0  0  0  0  0  0  0  0  0  0  0
    6.9183   -1.6570    0.2512 C   0  0  0  0  0  0  0  0  0  0  0  0
    5.5620   -2.1614    0.5031 C   0  0  0  0  0  0  0  0  0  0  0  0
    4.4840   -1.5380    0.3078 O   0  0  0  0  0  0  0  0  0  0  0  0
    5.6686   -3.4397    1.1686 C   0  0  0  0  0  0  0  0  0  0  0  0
    4.6217   -4.3569    1.4185 C   0  0  0  0  0  0  0  0  0  0  0  0
    5.0433   -5.5469    1.9798 C   0  0  0  0  0  0  0  0  0  0  0  0
    6.4163   -5.8207    2.2930 C   0  0  0  0  0  0  0  0  0  0  0  0
    7.4467   -4.9284    2.0477 C   0  0  0  0  0  0  0  0  0  0  0  0
    7.0322   -3.6946    1.4713 C   0  0  0  0  0  0  0  0  0  0  0  0
    7.8505   -2.5295    1.0303 C   0  0  0  0  0  0  0  0  0  0  0  0
    9.0861   -2.1889    1.4822 C   0  0  0  0  0  0  0  0  0  0  0  0
    9.8555   -3.0427    2.3530 C   0  0  0  0  0  0  0  0  0  0  0  0
   10.4804   -3.7232    3.0498 N   0  0  0  0  0  0  0  0  0  0  0  0
    9.6477   -0.8827    1.2566 C   0  0  0  0  0  0  0  0  0  0  0  0
   10.0869    0.1766    1.0820 N   0  0  0  0  0  0  0  0  0  0  0  0
    6.0444   -7.1797    2.8071 C   0  0  0  0  0  0  0  0  0  0  0  0
    6.0129   -7.3938    4.3517 C   0  0  0  0  0  0  0  0  0  0  0  0
    5.6376   -6.1015    5.0460 C   0  0  0  0  0  0  0  0  0  0  0  0
    4.3601   -5.8611    4.7437 C   0  0  0  0  0  0  0  0  0  0  0  0
    3.9107   -6.9928    3.8476 C   0  0  0  0  0  0  0  0  0  0  0  0
    4.6909   -8.1281    4.4850 C   0  0  0  0  0  0  0  0  0  0  0  0
    4.6402   -6.9050    2.4731 C   0  0  0  0  0  0  0  0  0  0  0  0
    6.2774    0.0147   -1.4832 C   0  0  0  0  0  0  0  0  0  0  0  0
    5.3269   -0.6660   -2.2786 C   0  0  0  0  0  0  0  0  0  0  0  0
    4.3260    0.0844   -2.9061 C   0  0  0  0  0  0  0  0  0  0  0  0
    3.1920   -0.3715   -3.5052 N   0  0  0  0  0  0  0  0  0  0  0  0
    2.7396   -1.7608   -3.6164 C   0  0  0  0  0  0  0  0  0  0  0  0
    2.9212   -2.2704   -5.0374 C   0  0  0  0  0  0  0  0  0  0  0  0
    2.4527    0.7430   -3.7570 C   0  0  0  0  0  0  0  0  0  0  0  0
    3.1148    1.8791   -3.3410 C   0  0  0  0  0  0  0  0  0  0  0  0
    4.3117    1.4619   -2.8051 C   0  0  0  0  0  0  0  0  0  0  0  0
    5.2759    2.1657   -2.0852 C   0  0  0  0  0  0  0  0  0  0  0  0
    6.2738    1.4286   -1.4287 C   0  0  0  0  0  0  0  0  0  0  0  0
    2.4898    3.1178   -3.2807 C   0  0  0  0  0  0  0  0  0  0  0  0
    1.1232    3.1770   -3.5877 C   0  0  0  0  0  0  0  0  0  0  0  0
    0.4013    2.0135   -3.9753 C   0  0  0  0  0  0  0  0  0  0  0  0
    1.1077    0.7976   -4.1434 C   0  0  0  0  0  0  0  0  0  0  0  0
   -1.0938    2.0424   -3.9260 C   0  0  0  0  0  0  0  0  0  0  0  0
   -1.7865    3.1935   -4.3626 C   0  0  0  0  0  0  0  0  0  0  0  0
   -1.1718    4.1024   -5.1608 F   0  0  0  0  0  0  0  0  0  0  0  0
   -3.0701    3.4780   -3.8812 C   0  0  0  0  0  0  0  0  0  0  0  0
   -3.6354    4.6811   -4.1580 F   0  0  0  0  0  0  0  0  0  0  0  0
   -3.7124    2.5843   -3.0162 C   0  0  0  0  0  0  0  0  0  0  0  0
   -3.1269    1.3358   -2.7621 C   0  0  0  0  0  0  0  0  0  0  0  0
   -3.7768    0.4151   -2.0011 N   0  0  0  0  0  0  0  0  0  0  0  0
   -3.2121   -0.7695   -1.6438 C   0  0  0  0  0  0  0  0  0  0  0  0
   -4.0147   -1.7680   -0.8385 C   0  0  0  0  0  0  0  0  0  0  0  0
   -5.3776   -1.2310   -0.3896 C   0  0  0  0  0  0  0  0  0  0  0  0
   -1.8875   -1.0359   -2.0608 C   0  0  0  0  0  0  0  0  0  0  0  0
   -1.2351   -0.0978   -2.7986 N   0  0  0  0  0  0  0  0  0  0  0  0
   -1.8141    1.0675   -3.1923 C   0  0  0  0  0  0  0  0  0  0  0  0
   -1.1374   -2.2832   -1.6688 C   0  0  0  0  0  0  0  0  0  0  0  0
   -0.2784   -2.0285   -0.4342 C   0  0  0  0  0  0  0  0  0  0  0  0
   -4.6884    3.0949   -2.0441 C   0  0  0  0  0  0  0  0  0  0  0  0
   -4.2415    3.5100   -0.4651 S   0  0  0  0  0  0  0  0  0  0  0  0
   -5.7906    3.6109    0.2001 C   0  0  0  0  0  0  0  0  0  0  0  0
   -6.6584    3.3582   -0.8482 C   0  0  0  0  0  0  0  0  0  0  0  0
   -8.3242    3.2758   -0.9537 S   0  0  0  0  0  0  0  0  0  0  0  0
   -8.3280    2.8359   -2.5999 C   0  0  0  0  0  0  0  0  0  0  0  0
   -9.5637    2.6314   -3.3732 C   0  0  0  0  0  0  0  0  0  0  0  0
  -10.6713    2.5966   -2.7700 O   0  0  0  0  0  0  0  0  0  0  0  0
   -9.5188    2.5113   -4.7659 O   0  0  0  0  0  0  0  0  0  0  0  0
  -10.6958    2.3620   -5.5555 C   0  0  0  0  0  0  0  0  0  0  0  0
  -10.3229    2.3420   -7.0283 C   0  0  0  0  0  0  0  0  0  0  0  0
   -7.0032    2.7449   -3.0717 C   0  0  0  0  0  0  0  0  0  0  0  0
   -6.0803    3.0482   -2.0648 C   0  0  0  0  0  0  0  0  0  0  0  0
   -6.5425    2.3141   -4.7126 Cl  0  0  0  0  0  0  0  0  0  0  0  0
   -6.1281    4.0212    1.5726 C   0  0  0  0  0  0  0  0  0  0  0  0
   -5.4635    3.5832    2.6634 C   0  0  0  0  0  0  0  0  0  0  0  0
   -4.4188    2.5497    2.6841 C   0  0  0  0  0  0  0  0  0  0  0  0
   -4.2590    1.6285    1.8398 O   0  0  0  0  0  0  0  0  0  0  0  0
   -3.6502    2.7037    3.8992 C   0  0  0  0  0  0  0  0  0  0  0  0
   -2.4699    2.0565    4.2513 C   0  0  0  0  0  0  0  0  0  0  0  0
   -1.7968    2.4648    5.4219 C   0  0  0  0  0  0  0  0  0  0  0  0
   -0.5928    1.8686    5.8310 O   0  0  0  0  0  0  0  0  0  0  0  0
    0.0365    0.7785    5.1663 C   0  0  0  0  0  0  0  0  0  0  0  0
   -2.3220    3.5184    6.2021 C   0  0  0  0  0  0  0  0  0  0  0  0
   -1.6071    3.9136    7.3436 O   0  0  0  0  0  0  0  0  0  0  0  0
   -1.9760    4.9936    8.1935 C   0  0  0  0  0  0  0  0  0  0  0  0
   -3.5303    4.1485    5.8190 C   0  0  0  0  0  0  0  0  0  0  0  0
   -4.2048    3.7043    4.6731 C   0  0  0  0  0  0  0  0  0  0  0  0
   -5.4509    4.2055    4.0242 C   0  0  0  0  0  0  0  0  0  0  0  0
   -6.4564    4.8944    4.6184 C   0  0  0  0  0  0  0  0  0  0  0  0
   -7.7282    5.1127    3.9785 C   0  0  0  0  0  0  0  0  0  0  0  0
   -8.7543    5.2946    3.4730 N   0  0  0  0  0  0  0  0  0  0  0  0
   -6.3861    5.3284    5.9891 C   0  0  0  0  0  0  0  0  0  0  0  0
   -6.3426    5.6847    7.0914 N   0  0  0  0  0  0  0  0  0  0  0  0
    8.2931   -0.4902   -0.8439 H   0  0  0  0  0  0  0  0  0  0  0  0
    3.5883   -4.1669    1.1574 H   0  0  0  0  0  0  0  0  0  0  0  0
    8.4716   -5.2021    2.2358 H   0  0  0  0  0  0  0  0  0  0  0  0
    6.4816   -8.0221    2.2248 H   0  0  0  0  0  0  0  0  0  0  0  0
    6.8978   -7.9114    4.7758 H   0  0  0  0  0  0  0  0  0  0  0  0
    6.2497   -5.5215    5.7290 H   0  0  0  0  0  0  0  0  0  0  0  0
    3.7579   -5.0490    5.1344 H   0  0  0  0  0  0  0  0  0  0  0  0
    2.8110   -7.1422    3.7914 H   0  0  0  0  0  0  0  0  0  0  0  0
    4.3959   -8.3276    5.5433 H   0  0  0  0  0  0  0  0  0  0  0  0
    4.6516   -9.0797    3.9031 H   0  0  0  0  0  0  0  0  0  0  0  0
    4.2288   -7.5698    1.6801 H   0  0  0  0  0  0  0  0  0  0  0  0
    5.3412   -1.7447   -2.3407 H   0  0  0  0  0  0  0  0  0  0  0  0
    1.6690   -1.8328   -3.3309 H   0  0  0  0  0  0  0  0  0  0  0  0
    3.2882   -2.4200   -2.9138 H   0  0  0  0  0  0  0  0  0  0  0  0
    4.0031   -2.3733   -5.2649 H   0  0  0  0  0  0  0  0  0  0  0  0
    2.4572   -1.5690   -5.7649 H   0  0  0  0  0  0  0  0  0  0  0  0
    2.4382   -3.2635   -5.1389 H   0  0  0  0  0  0  0  0  0  0  0  0
    5.2294    3.2432   -1.9916 H   0  0  0  0  0  0  0  0  0  0  0  0
    7.0077    1.9526   -0.8290 H   0  0  0  0  0  0  0  0  0  0  0  0
    3.0077    3.9949   -2.9080 H   0  0  0  0  0  0  0  0  0  0  0  0
    0.6085    4.1152   -3.4180 H   0  0  0  0  0  0  0  0  0  0  0  0
    0.5978   -0.1002   -4.4609 H   0  0  0  0  0  0  0  0  0  0  0  0
   -3.4349   -2.0646    0.0637 H   0  0  0  0  0  0  0  0  0  0  0  0
   -4.1865   -2.6723   -1.4640 H   0  0  0  0  0  0  0  0  0  0  0  0
   -5.9103   -2.0170    0.1898 H   0  0  0  0  0  0  0  0  0  0  0  0
   -5.9959   -0.9628   -1.2755 H   0  0  0  0  0  0  0  0  0  0  0  0
   -5.2424   -0.3408    0.2581 H   0  0  0  0  0  0  0  0  0  0  0  0
   -1.8253   -3.1302   -1.4770 H   0  0  0  0  0  0  0  0  0  0  0  0
   -0.4812   -2.5899   -2.5081 H   0  0  0  0  0  0  0  0  0  0  0  0
    0.4873   -1.2558   -0.6573 H   0  0  0  0  0  0  0  0  0  0  0  0
    0.2403   -2.9664   -0.1452 H   0  0  0  0  0  0  0  0  0  0  0  0
   -0.9096   -1.6910    0.4155 H   0  0  0  0  0  0  0  0  0  0  0  0
  -11.2057    1.4116   -5.2918 H   0  0  0  0  0  0  0  0  0  0  0  0
  -11.3860    3.2123   -5.3666 H   0  0  0  0  0  0  0  0  0  0  0  0
  -11.2402    2.2250   -7.6415 H   0  0  0  0  0  0  0  0  0  0  0  0
   -9.8188    3.2924   -7.3084 H   0  0  0  0  0  0  0  0  0  0  0  0
   -9.6405    1.4914   -7.2359 H   0  0  0  0  0  0  0  0  0  0  0  0
   -6.8575    4.8102    1.6506 H   0  0  0  0  0  0  0  0  0  0  0  0
   -2.0721    1.2840    3.6059 H   0  0  0  0  0  0  0  0  0  0  0  0
   -0.6252   -0.1111    5.1866 H   0  0  0  0  0  0  0  0  0  0  0  0
    0.9806    0.5313    5.6896 H   0  0  0  0  0  0  0  0  0  0  0  0
    0.2727    1.0515    4.1174 H   0  0  0  0  0  0  0  0  0  0  0  0
   -1.9841    5.9446    7.6179 H   0  0  0  0  0  0  0  0  0  0  0  0
   -2.9752    4.8051    8.6401 H   0  0  0  0  0  0  0  0  0  0  0  0
   -1.2318    5.0790    9.0148 H   0  0  0  0  0  0  0  0  0  0  0  0
   -3.8944    4.9880    6.3778 H   0  0  0  0  0  0  0  0  0  0  0  0
  1  2  2  3
  2  3  1  0
  3  4  2  0
  3  5  1  0
  5  6  2  0
  6  7  1  0
  7  8  2  0
  8  9  1  0
  9 10  2  0
 10 11  1  0
 11 12  2  3
 12 13  1  0
 13 14  3  0
 12 15  1  0
 15 16  3  0
  8 17  1  0
 17 18  1  0
 18 19  1  0
 19 20  2  0
 20 21  1  0
 21 22  1  0
 21 23  1  0
  1 24  1  0
 24 25  2  0
 25 26  1  0
 26 27  1  0
 27 28  1  0
 28 29  1  0
 27 30  1  0
 30 31  2  0
 31 32  1  0
 32 33  1  0
 33 34  2  0
 31 35  1  0
 35 36  2  0
 36 37  1  0
 37 38  2  0
 37 39  1  0
 39 40  2  0
 40 41  1  0
 40 42  1  0
 42 43  1  0
 42 44  2  0
 44 45  1  0
 45 46  2  0
 46 47  1  0
 47 48  1  0
 48 49  1  0
 47 50  2  0
 50 51  1  0
 51 52  2  0
 50 53  1  0
 53 54  1  0
 44 55  1  0
 55 56  1  0
 56 57  1  0
 57 58  2  0
 58 59  1  0
 59 60  1  0
 60 61  1  0
 61 62  2  0
 61 63  1  0
 63 64  1  0
 64 65  1  0
 60 66  2  0
 66 67  1  0
 66 68  1  0
 57 69  1  0
 69 70  2  3
 70 71  1  0
 71 72  2  0
 71 73  1  0
 73 74  2  0
 74 75  1  0
 75 76  1  0
 76 77  1  0
 75 78  2  0
 78 79  1  0
 79 80  1  0
 78 81  1  0
 81 82  2  0
 82 83  1  0
 83 84  2  3
 84 85  1  0
 85 86  3  0
 84 87  1  0
 87 88  3  0
 11  2  1  0
 23 17  1  0
 34 24  1  0
 52 39  1  0
 67 55  2  0
 83 70  1  0
 10  5  1  0
 22 18  1  0
 32 26  2  0
 52 45  1  0
 67 58  1  0
 82 73  1  0
 23  7  1  0
 38 30  1  0
  1 89  1  0
  6 90  1  0
  9 91  1  0
 17 92  1  0
 18 93  1  0
 19 94  1  0
 20 95  1  0
 21 96  1  0
 22 97  1  0
 22 98  1  0
 23 99  1  0
 25100  1  0
 28101  1  0
 28102  1  0
 29103  1  0
 29104  1  0
 29105  1  0
 33106  1  0
 34107  1  0
 35108  1  0
 36109  1  0
 38110  1  0
 48111  1  0
 48112  1  0
 49113  1  0
 49114  1  0
 49115  1  0
 53116  1  0
 53117  1  0
 54118  1  0
 54119  1  0
 54120  1  0
 64121  1  0
 64122  1  0
 65123  1  0
 65124  1  0
 65125  1  0
 69126  1  0
 74127  1  0
 77128  1  0
 77129  1  0
 77130  1  0
 80131  1  0
 80132  1  0
 80133  1  0
 81134  1  0
M  END

