
     RDKit          3D

152169  0  0  0  0  0  0  0  0999 V2000
    0.4516   -0.5614    7.1935 C   0  0  0  0  0  0  0  0  0  0  0  0
    1.1639    0.5368    6.8801 C   0  0  0  0  0  0  0  0  0  0  0  0
    0.6821    1.6197    6.0150 C   0  0  0  0  0  0  0  0  0  0  0  0
   -0.3892    1.6306    5.3601 O   0  0  0  0  0  0  0  0  0  0  0  0
    1.5483    2.7574    6.1652 C   0  0  0  0  0  0  0  0  0  0  0  0
    1.3662    4.0322    5.5810 C   0  0  0  0  0  0  0  0  0  0  0  0
    2.3121    4.9636    5.9580 C   0  0  0  0  0  0  0  0  0  0  0  0
    3.3958    4.6599    6.8463 C   0  0  0  0  0  0  0  0  0  0  0  0
    3.5674    3.4160    7.4355 C   0  0  0  0  0  0  0  0  0  0  0  0
    2.5899    2.4418    7.0735 C   0  0  0  0  0  0  0  0  0  0  0  0
    2.4220    1.0264    7.5267 C   0  0  0  0  0  0  0  0  0  0  0  0
    3.3204    0.2701    8.2113 C   0  0  0  0  0  0  0  0  0  0  0  0
    4.5484    0.7966    8.7423 C   0  0  0  0  0  0  0  0  0  0  0  0
    5.5423    1.1917    9.1831 N   0  0  0  0  0  0  0  0  0  0  0  0
    3.1695   -1.1530    8.3669 C   0  0  0  0  0  0  0  0  0  0  0  0
    3.0557   -2.2987    8.4977 N   0  0  0  0  0  0  0  0  0  0  0  0
    3.9182    6.0593    6.7127 C   0  0  0  0  0  0  0  0  0  0  0  0
    5.1653    6.2557    5.7967 C   0  0  0  0  0  0  0  0  0  0  0  0
    5.2469    7.7406    5.5282 C   0  0  0  0  0  0  0  0  0  0  0  0
    4.2170    8.0375    4.7261 C   0  0  0  0  0  0  0  0  0  0  0  0
    3.4808    6.7456    4.4750 C   0  0  0  0  0  0  0  0  0  0  0  0
    4.6694    5.8009    4.4316 C   0  0  0  0  0  0  0  0  0  0  0  0
    2.7909    6.3788    5.8220 C   0  0  0  0  0  0  0  0  0  0  0  0
   -0.6518   -1.0503    6.3506 C   0  0  0  0  0  0  0  0  0  0  0  0
   -1.9440   -1.3501    6.7644 C   0  0  0  0  0  0  0  0  0  0  0  0
   -2.7975   -1.6702    5.6955 C   0  0  0  0  0  0  0  0  0  0  0  0
   -4.4920   -2.0507    5.9323 Cl  0  0  0  0  0  0  0  0  0  0  0  0
   -2.1611   -1.6741    4.4562 C   0  0  0  0  0  0  0  0  0  0  0  0
   -0.5573   -1.2660    4.6868 S   0  0  0  0  0  0  0  0  0  0  0  0
   -2.7635   -1.7364    3.1209 C   0  0  0  0  0  0  0  0  0  0  0  0
   -3.5385   -0.7068    2.5535 C   0  0  0  0  0  0  0  0  0  0  0  0
   -4.3498    0.2104    3.3013 N   0  0  0  0  0  0  0  0  0  0  0  0
   -3.7474    1.3334    3.9730 C   0  0  0  0  0  0  0  0  0  0  0  0
   -4.1414    1.6607    5.2800 C   0  0  0  0  0  0  0  0  0  0  0  0
   -3.6466    2.8123    5.9003 C   0  0  0  0  0  0  0  0  0  0  0  0
   -2.7556    3.6478    5.2203 C   0  0  0  0  0  0  0  0  0  0  0  0
   -2.1495    5.1390    6.0138 S   0  0  0  0  0  0  0  0  0  0  0  0
   -3.5095    6.1730    5.3845 C   0  0  0  0  0  0  0  0  0  0  0  0
   -2.3458    3.3222    3.9188 C   0  0  0  0  0  0  0  0  0  0  0  0
   -2.8257    2.1594    3.3067 C   0  0  0  0  0  0  0  0  0  0  0  0
   -5.7873    0.0336    3.2776 C   0  0  0  0  0  0  0  0  0  0  0  0
   -6.6546    1.1404    3.3372 C   0  0  0  0  0  0  0  0  0  0  0  0
   -8.0453    0.9594    3.3343 C   0  0  0  0  0  0  0  0  0  0  0  0
   -8.5858   -0.3301    3.2535 C   0  0  0  0  0  0  0  0  0  0  0  0
  -10.3669   -0.5675    3.2625 S   0  0  0  0  0  0  0  0  0  0  0  0
  -10.5057   -0.5224    1.4479 C   0  0  0  0  0  0  0  0  0  0  0  0
   -7.7344   -1.4366    3.1747 C   0  0  0  0  0  0  0  0  0  0  0  0
   -6.3481   -1.2566    3.1795 C   0  0  0  0  0  0  0  0  0  0  0  0
   -3.5094   -0.7445    1.1647 C   0  0  0  0  0  0  0  0  0  0  0  0
   -3.9352    0.3654   -0.0108 S   0  0  0  0  0  0  0  0  0  0  0  0
   -3.1359   -0.4604   -1.2644 C   0  0  0  0  0  0  0  0  0  0  0  0
   -2.5705   -1.6567   -0.7613 C   0  0  0  0  0  0  0  0  0  0  0  0
   -1.9297   -2.6744   -1.5730 N   0  0  0  0  0  0  0  0  0  0  0  0
   -2.3009   -2.8752   -2.9587 C   0  0  0  0  0  0  0  0  0  0  0  0
   -3.6443   -2.7732   -3.3661 C   0  0  0  0  0  0  0  0  0  0  0  0
   -3.9686   -2.7816   -4.7283 C   0  0  0  0  0  0  0  0  0  0  0  0
   -2.9629   -2.9198   -5.6909 C   0  0  0  0  0  0  0  0  0  0  0  0
   -3.3625   -2.8292   -7.4370 S   0  0  0  0  0  0  0  0  0  0  0  0
   -3.0784   -1.0319   -7.5182 C   0  0  0  0  0  0  0  0  0  0  0  0
   -1.6344   -3.0959   -5.2888 C   0  0  0  0  0  0  0  0  0  0  0  0
   -1.3057   -3.0860   -3.9328 C   0  0  0  0  0  0  0  0  0  0  0  0
   -0.9016   -3.5146   -1.0259 C   0  0  0  0  0  0  0  0  0  0  0  0
    0.3201   -2.9606   -0.6164 C   0  0  0  0  0  0  0  0  0  0  0  0
    1.3734   -3.7946   -0.2327 C   0  0  0  0  0  0  0  0  0  0  0  0
    1.2084   -5.1854   -0.2535 C   0  0  0  0  0  0  0  0  0  0  0  0
    2.5864   -6.2559    0.1718 S   0  0  0  0  0  0  0  0  0  0  0  0
    3.1265   -6.4180   -1.5644 C   0  0  0  0  0  0  0  0  0  0  0  0
   -0.0186   -5.7405   -0.6265 C   0  0  0  0  0  0  0  0  0  0  0  0
   -1.0673   -4.9085   -1.0249 C   0  0  0  0  0  0  0  0  0  0  0  0
   -2.7685   -1.7462    0.6182 C   0  0  0  0  0  0  0  0  0  0  0  0
   -2.0682   -2.6442    1.8535 S   0  0  0  0  0  0  0  0  0  0  0  0
   -2.7250    0.1977   -2.5113 C   0  0  0  0  0  0  0  0  0  0  0  0
   -3.4791    1.0360   -3.3206 C   0  0  0  0  0  0  0  0  0  0  0  0
   -2.7662    1.5079   -4.4382 C   0  0  0  0  0  0  0  0  0  0  0  0
   -3.5135    2.5429   -5.6468 Cl  0  0  0  0  0  0  0  0  0  0  0  0
   -1.4376    1.0711   -4.5014 C   0  0  0  0  0  0  0  0  0  0  0  0
   -1.1769    0.1252   -3.1441 S   0  0  0  0  0  0  0  0  0  0  0  0
   -0.5021    1.3226   -5.6276 C   0  0  0  0  0  0  0  0  0  0  0  0
    0.6384    0.6423   -5.9129 C   0  0  0  0  0  0  0  0  0  0  0  0
    1.2311   -0.4816   -5.1745 C   0  0  0  0  0  0  0  0  0  0  0  0
    1.4087   -0.5490   -3.9302 O   0  0  0  0  0  0  0  0  0  0  0  0
    1.8693   -1.3692   -6.1216 C   0  0  0  0  0  0  0  0  0  0  0  0
    2.3804   -2.6623   -5.8673 C   0  0  0  0  0  0  0  0  0  0  0  0
    2.8699   -3.2965   -6.9947 C   0  0  0  0  0  0  0  0  0  0  0  0
    2.8703   -2.6946   -8.2981 C   0  0  0  0  0  0  0  0  0  0  0  0
    2.3737   -1.4251   -8.5487 C   0  0  0  0  0  0  0  0  0  0  0  0
    1.8741   -0.7538   -7.3992 C   0  0  0  0  0  0  0  0  0  0  0  0
    1.2507    0.5924   -7.2723 C   0  0  0  0  0  0  0  0  0  0  0  0
    1.4178    1.6451   -8.1126 C   0  0  0  0  0  0  0  0  0  0  0  0
    2.1301    1.5335   -9.3576 C   0  0  0  0  0  0  0  0  0  0  0  0
    2.7091    1.4653  -10.3599 N   0  0  0  0  0  0  0  0  0  0  0  0
    1.0649    2.9884   -7.7213 C   0  0  0  0  0  0  0  0  0  0  0  0
    0.8025    4.0681   -7.3988 N   0  0  0  0  0  0  0  0  0  0  0  0
    3.5015   -3.9220   -8.8815 C   0  0  0  0  0  0  0  0  0  0  0  0
    5.0167   -3.8215   -9.2264 C   0  0  0  0  0  0  0  0  0  0  0  0
    5.4902   -5.2443   -9.4180 C   0  0  0  0  0  0  0  0  0  0  0  0
    5.4834   -5.8114   -8.2059 C   0  0  0  0  0  0  0  0  0  0  0  0
    5.0063   -4.7553   -7.2372 C   0  0  0  0  0  0  0  0  0  0  0  0
    5.6634   -3.5422   -7.8789 C   0  0  0  0  0  0  0  0  0  0  0  0
    3.4974   -4.5391   -7.5501 C   0  0  0  0  0  0  0  0  0  0  0  0
    0.6510   -1.1004    8.1014 H   0  0  0  0  0  0  0  0  0  0  0  0
    0.5583    4.2698    4.9028 H   0  0  0  0  0  0  0  0  0  0  0  0
    4.3792    3.2536    8.1259 H   0  0  0  0  0  0  0  0  0  0  0  0
    3.9224    6.6288    7.6734 H   0  0  0  0  0  0  0  0  0  0  0  0
    6.1056    5.7839    6.1536 H   0  0  0  0  0  0  0  0  0  0  0  0
    6.0272    8.4294    5.8358 H   0  0  0  0  0  0  0  0  0  0  0  0
    4.0163    9.0045    4.2737 H   0  0  0  0  0  0  0  0  0  0  0  0
    2.8188    6.7417    3.5795 H   0  0  0  0  0  0  0  0  0  0  0  0
    5.3803    6.0338    3.5945 H   0  0  0  0  0  0  0  0  0  0  0  0
    4.3969    4.7225    4.3831 H   0  0  0  0  0  0  0  0  0  0  0  0
    2.0798    7.1339    6.2255 H   0  0  0  0  0  0  0  0  0  0  0  0
   -2.2739   -1.2888    7.7946 H   0  0  0  0  0  0  0  0  0  0  0  0
   -4.8491    1.0355    5.8129 H   0  0  0  0  0  0  0  0  0  0  0  0
   -3.9696    3.0598    6.9062 H   0  0  0  0  0  0  0  0  0  0  0  0
   -4.4893    5.7286    5.6527 H   0  0  0  0  0  0  0  0  0  0  0  0
   -3.4299    6.2611    4.2825 H   0  0  0  0  0  0  0  0  0  0  0  0
   -3.4321    7.1830    5.8381 H   0  0  0  0  0  0  0  0  0  0  0  0
   -1.6551    3.9626    3.3882 H   0  0  0  0  0  0  0  0  0  0  0  0
   -2.5146    1.9293    2.2999 H   0  0  0  0  0  0  0  0  0  0  0  0
   -6.2634    2.1485    3.3799 H   0  0  0  0  0  0  0  0  0  0  0  0
   -8.6988    1.8187    3.3924 H   0  0  0  0  0  0  0  0  0  0  0  0
  -10.0768    0.4222    1.0545 H   0  0  0  0  0  0  0  0  0  0  0  0
   -9.9756   -1.3886    1.0032 H   0  0  0  0  0  0  0  0  0  0  0  0
  -11.5787   -0.5767    1.1646 H   0  0  0  0  0  0  0  0  0  0  0  0
   -8.1443   -2.4389    3.1125 H   0  0  0  0  0  0  0  0  0  0  0  0
   -5.7116   -2.1304    3.1231 H   0  0  0  0  0  0  0  0  0  0  0  0
   -4.4312   -2.6320   -2.6365 H   0  0  0  0  0  0  0  0  0  0  0  0
   -5.0001   -2.6536   -5.0322 H   0  0  0  0  0  0  0  0  0  0  0  0
   -3.8578   -0.5024   -6.9326 H   0  0  0  0  0  0  0  0  0  0  0  0
   -3.1437   -0.7036   -8.5791 H   0  0  0  0  0  0  0  0  0  0  0  0
   -2.0747   -0.7771   -7.1234 H   0  0  0  0  0  0  0  0  0  0  0  0
   -0.8489   -3.2007   -6.0262 H   0  0  0  0  0  0  0  0  0  0  0  0
   -0.2636   -3.1678   -3.6489 H   0  0  0  0  0  0  0  0  0  0  0  0
    0.4613   -1.8867   -0.6405 H   0  0  0  0  0  0  0  0  0  0  0  0
    2.3185   -3.3597    0.0626 H   0  0  0  0  0  0  0  0  0  0  0  0
    4.0795   -6.9854   -1.6006 H   0  0  0  0  0  0  0  0  0  0  0  0
    2.3570   -6.9689   -2.1462 H   0  0  0  0  0  0  0  0  0  0  0  0
    3.2832   -5.4165   -2.0163 H   0  0  0  0  0  0  0  0  0  0  0  0
   -0.1523   -6.8151   -0.6365 H   0  0  0  0  0  0  0  0  0  0  0  0
   -1.9996   -5.3532   -1.3554 H   0  0  0  0  0  0  0  0  0  0  0  0
   -4.5196    1.2743   -3.1322 H   0  0  0  0  0  0  0  0  0  0  0  0
   -0.8833    1.9962   -6.3820 H   0  0  0  0  0  0  0  0  0  0  0  0
    2.3726   -3.1259   -4.8920 H   0  0  0  0  0  0  0  0  0  0  0  0
    2.3424   -1.0320   -9.5504 H   0  0  0  0  0  0  0  0  0  0  0  0
    2.8655   -4.4322   -9.6381 H   0  0  0  0  0  0  0  0  0  0  0  0
    5.2778   -3.1247  -10.0492 H   0  0  0  0  0  0  0  0  0  0  0  0
    5.8657   -5.6937  -10.3294 H   0  0  0  0  0  0  0  0  0  0  0  0
    5.8578   -6.8018   -7.9681 H   0  0  0  0  0  0  0  0  0  0  0  0
    5.2592   -4.9382   -6.1709 H   0  0  0  0  0  0  0  0  0  0  0  0
    5.3697   -2.5727   -7.4190 H   0  0  0  0  0  0  0  0  0  0  0  0
    6.7779   -3.6038   -7.9027 H   0  0  0  0  0  0  0  0  0  0  0  0
    2.8501   -5.4420   -7.4690 H   0  0  0  0  0  0  0  0  0  0  0  0
  1  2  2  3
  2  3  1  0
  3  4  2  0
  3  5  1  0
  5  6  2  0
  6  7  1  0
  7  8  2  0
  8  9  1  0
  9 10  2  0
 10 11  1  0
 11 12  2  3
 12 13  1  0
 13 14  3  0
 12 15  1  0
 15 16  3  0
  8 17  1  0
 17 18  1  0
 18 19  1  0
 19 20  2  0
 20 21  1  0
 21 22  1  0
 21 23  1  0
  1 24  1  0
 24 25  2  0
 25 26  1  0
 26 27  1  0
 26 28  2  0
 28 29  1  0
 28 30  1  0
 30 31  2  0
 31 32  1  0
 32 33  1  0
 33 34  2  0
 34 35  1  0
 35 36  2  0
 36 37  1  0
 37 38  1  0
 36 39  1  0
 39 40  2  0
 32 41  1  0
 41 42  2  0
 42 43  1  0
 43 44  2  0
 44 45  1  0
 45 46  1  0
 44 47  1  0
 47 48  2  0
 31 49  1  0
 49 50  1  0
 50 51  1  0
 51 52  2  0
 52 53  1  0
 53 54  1  0
 54 55  2  0
 55 56  1  0
 56 57  2  0
 57 58  1  0
 58 59  1  0
 57 60  1  0
 60 61  2  0
 53 62  1  0
 62 63  2  0
 63 64  1  0
 64 65  2  0
 65 66  1  0
 66 67  1  0
 65 68  1  0
 68 69  2  0
 52 70  1  0
 70 71  1  0
 51 72  1  0
 72 73  2  0
 73 74  1  0
 74 75  1  0
 74 76  2  0
 76 77  1  0
 76 78  1  0
 78 79  2  3
 79 80  1  0
 80 81  2  0
 80 82  1  0
 82 83  2  0
 83 84  1  0
 84 85  2  0
 85 86  1  0
 86 87  2  0
 87 88  1  0
 88 89  2  3
 89 90  1  0
 90 91  3  0
 89 92  1  0
 92 93  3  0
 85 94  1  0
 94 95  1  0
 95 96  1  0
 96 97  2  0
 97 98  1  0
 98 99  1  0
 98100  1  0
 11  2  1  0
 23 17  1  0
 29 24  1  0
 71 30  1  0
 77 72  1  0
 88 79  1  0
100 94  1  0
 10  5  1  0
 22 18  1  0
 40 33  1  0
 48 41  1  0
 70 49  2  0
 87 82  1  0
 99 95  1  0
 23  7  1  0
 61 54  1  0
 69 62  1  0
100 84  1  0
  1101  1  0
  6102  1  0
  9103  1  0
 17104  1  0
 18105  1  0
 19106  1  0
 20107  1  0
 21108  1  0
 22109  1  0
 22110  1  0
 23111  1  0
 25112  1  0
 34113  1  0
 35114  1  0
 38115  1  0
 38116  1  0
 38117  1  0
 39118  1  0
 40119  1  0
 42120  1  0
 43121  1  0
 46122  1  0
 46123  1  0
 46124  1  0
 47125  1  0
 48126  1  0
 55127  1  0
 56128  1  0
 59129  1  0
 59130  1  0
 59131  1  0
 60132  1  0
 61133  1  0
 63134  1  0
 64135  1  0
 67136  1  0
 67137  1  0
 67138  1  0
 68139  1  0
 69140  1  0
 73141  1  0
 78142  1  0
 83143  1  0
 86144  1  0
 94145  1  0
 95146  1  0
 96147  1  0
 97148  1  0
 98149  1  0
 99150  1  0
 99151  1  0
100152  1  0
M  END

