
     RDKit          3D

180200  0  0  0  0  0  0  0  0999 V2000
   11.5371   -1.5137    0.1442 C   0  0  0  0  0  0  0  0  0  0  0  0
   10.9716   -2.0655   -0.9027 C   0  0  0  0  0  0  0  0  0  0  0  0
   11.3013   -2.7068   -2.1644 C   0  0  0  0  0  0  0  0  0  0  0  0
   12.5359   -2.6639   -2.5494 O   0  0  0  0  0  0  0  0  0  0  0  0
   10.1843   -3.3200   -2.8194 C   0  0  0  0  0  0  0  0  0  0  0  0
   10.0188   -3.9729   -4.0373 C   0  0  0  0  0  0  0  0  0  0  0  0
    8.8063   -4.4373   -4.4990 C   0  0  0  0  0  0  0  0  0  0  0  0
    7.6710   -4.2167   -3.6691 C   0  0  0  0  0  0  0  0  0  0  0  0
    7.8714   -3.5910   -2.5000 C   0  0  0  0  0  0  0  0  0  0  0  0
    9.0498   -3.1262   -2.0130 C   0  0  0  0  0  0  0  0  0  0  0  0
    9.4859   -2.3826   -0.7877 C   0  0  0  0  0  0  0  0  0  0  0  0
    8.9218   -3.0517    0.3306 C   0  0  0  0  0  0  0  0  0  0  0  0
    9.8906   -3.5079    1.3226 C   0  0  0  0  0  0  0  0  0  0  0  0
   10.7098   -3.9132    2.1589 N   0  0  0  0  0  0  0  0  0  0  0  0
    7.6197   -3.2066    0.5512 C   0  0  0  0  0  0  0  0  0  0  0  0
    6.4058   -3.3396    0.7449 N   0  0  0  0  0  0  0  0  0  0  0  0
    6.6936   -4.7739   -4.6293 C   0  0  0  0  0  0  0  0  0  0  0  0
    6.0701   -6.0853   -4.2118 C   0  0  0  0  0  0  0  0  0  0  0  0
    6.9558   -6.6611   -3.1850 C   0  0  0  0  0  0  0  0  0  0  0  0
    8.1247   -6.8916   -3.7752 C   0  0  0  0  0  0  0  0  0  0  0  0
    7.9721   -6.6651   -5.2335 C   0  0  0  0  0  0  0  0  0  0  0  0
    6.4751   -6.9519   -5.4042 C   0  0  0  0  0  0  0  0  0  0  0  0
    7.9174   -5.1480   -5.4324 C   0  0  0  0  0  0  0  0  0  0  0  0
   10.6061   -0.9211    1.1611 C   0  0  0  0  0  0  0  0  0  0  0  0
    9.4216   -0.4071    0.5869 C   0  0  0  0  0  0  0  0  0  0  0  0
    8.3289   -0.0683    1.3097 C   0  0  0  0  0  0  0  0  0  0  0  0
    7.0667    0.1575    0.8717 N   0  0  0  0  0  0  0  0  0  0  0  0
    6.6508    0.4251   -0.5167 C   0  0  0  0  0  0  0  0  0  0  0  0
    6.6935    1.9521   -0.7329 C   0  0  0  0  0  0  0  0  0  0  0  0
    6.2792    0.1445    1.9670 C   0  0  0  0  0  0  0  0  0  0  0  0
    7.0310   -0.0765    3.1000 C   0  0  0  0  0  0  0  0  0  0  0  0
    8.3554   -0.2118    2.6565 C   0  0  0  0  0  0  0  0  0  0  0  0
    9.4847   -0.6772    3.2893 C   0  0  0  0  0  0  0  0  0  0  0  0
   10.6240   -1.0325    2.4979 C   0  0  0  0  0  0  0  0  0  0  0  0
    6.3994   -0.2651    4.2952 C   0  0  0  0  0  0  0  0  0  0  0  0
    4.9814   -0.2555    4.3608 C   0  0  0  0  0  0  0  0  0  0  0  0
    4.2554   -0.0655    3.2505 C   0  0  0  0  0  0  0  0  0  0  0  0
    4.8906    0.1404    2.0674 C   0  0  0  0  0  0  0  0  0  0  0  0
    2.7766   -0.2015    3.2350 C   0  0  0  0  0  0  0  0  0  0  0  0
    1.9033   -0.6645    1.6266 Se  0  0  0  0  0  2  0  0  0  0  0  0
    0.1721   -0.8299    2.6216 C   0  0  0  0  0  0  0  0  0  0  0  0
    0.5237   -0.5396    3.9163 C   0  0  0  0  0  0  0  0  0  0  0  0
   -0.2532   -0.5523    5.0593 C   0  0  0  0  0  0  0  0  0  0  0  0
    0.2931   -0.2631    6.2543 C   0  0  0  0  0  0  0  0  0  0  0  0
   -0.3528   -0.2352    7.6282 C   0  0  0  0  0  0  0  0  0  0  0  0
   -0.1265   -1.6287    8.1918 C   0  0  0  0  0  0  0  0  0  0  0  0
    1.9024    0.0353    5.8602 S   0  0  0  0  0  0  0  0  0  0  0  0
    1.8593   -0.2246    4.1288 C   0  0  0  0  0  0  0  0  0  0  0  0
   -1.0197   -0.7877    1.7307 C   0  0  0  0  0  0  0  0  0  0  0  0
   -1.9858    0.1530    1.6582 C   0  0  0  0  0  0  0  0  0  0  0  0
   -2.3601    1.0079    2.7959 N   0  0  0  0  0  0  0  0  0  0  0  0
   -3.4594    0.5115    3.5935 C   0  0  0  0  0  0  0  0  0  0  0  0
   -3.5715    0.5570    4.9414 C   0  0  0  0  0  0  0  0  0  0  0  0
   -4.6695    0.0252    5.6285 C   0  0  0  0  0  0  0  0  0  0  0  0
   -5.6929   -0.5727    4.9490 C   0  0  0  0  0  0  0  0  0  0  0  0
   -7.1551   -1.2776    5.7555 S   0  0  0  0  0  0  0  0  0  0  0  0
   -8.2489   -1.9913    4.4924 C   0  0  0  0  0  0  0  0  0  0  0  0
   -5.6128   -0.6342    3.5855 C   0  0  0  0  0  0  0  0  0  0  0  0
   -4.5279   -0.1133    2.9316 C   0  0  0  0  0  0  0  0  0  0  0  0
   -1.8008    2.2306    3.0568 C   0  0  0  0  0  0  0  0  0  0  0  0
   -2.6631    3.2947    3.4645 C   0  0  0  0  0  0  0  0  0  0  0  0
   -2.1583    4.5251    3.7698 C   0  0  0  0  0  0  0  0  0  0  0  0
   -0.8206    4.8396    3.7133 C   0  0  0  0  0  0  0  0  0  0  0  0
   -0.1451    6.4347    4.1424 S   0  0  0  0  0  0  0  0  0  0  0  0
    0.2583    6.3679    5.9156 C   0  0  0  0  0  0  0  0  0  0  0  0
    0.0240    3.8247    3.3146 C   0  0  0  0  0  0  0  0  0  0  0  0
   -0.4774    2.5653    2.9981 C   0  0  0  0  0  0  0  0  0  0  0  0
   -2.7063    0.1819    0.4896 C   0  0  0  0  0  0  0  0  0  0  0  0
   -3.9447    1.2200   -0.1581 S   0  0  0  0  0  0  0  0  0  0  0  0
   -4.1199    0.4846   -1.7070 C   0  0  0  0  0  0  0  0  0  0  0  0
   -3.1889   -0.5430   -1.6453 C   0  0  0  0  0  0  0  0  0  0  0  0
   -3.1087   -1.2973   -2.9315 N   0  0  0  0  0  0  0  0  0  0  0  0
   -4.1899   -2.1582   -3.1933 C   0  0  0  0  0  0  0  0  0  0  0  0
   -4.7574   -2.9698   -2.2612 C   0  0  0  0  0  0  0  0  0  0  0  0
   -5.8281   -3.7913   -2.4829 C   0  0  0  0  0  0  0  0  0  0  0  0
   -6.4012   -3.8287   -3.7483 C   0  0  0  0  0  0  0  0  0  0  0  0
   -7.8515   -4.8185   -4.1602 S   0  0  0  0  0  0  0  0  0  0  0  0
   -9.2605   -3.6434   -4.1554 C   0  0  0  0  0  0  0  0  0  0  0  0
   -5.8548   -3.0311   -4.7136 C   0  0  0  0  0  0  0  0  0  0  0  0
   -4.7638   -2.2008   -4.4648 C   0  0  0  0  0  0  0  0  0  0  0  0
   -1.9905   -1.0778   -3.7370 C   0  0  0  0  0  0  0  0  0  0  0  0
   -0.6976   -1.1355   -3.1868 C   0  0  0  0  0  0  0  0  0  0  0  0
    0.4538   -0.8439   -3.8641 C   0  0  0  0  0  0  0  0  0  0  0  0
    0.3890   -0.4630   -5.1758 C   0  0  0  0  0  0  0  0  0  0  0  0
    1.8948   -0.0605   -6.0343 S   0  0  0  0  0  0  0  0  0  0  0  0
    1.5679    0.4123   -7.7474 C   0  0  0  0  0  0  0  0  0  0  0  0
   -0.8426   -0.3952   -5.7537 C   0  0  0  0  0  0  0  0  0  0  0  0
   -2.0104   -0.6985   -5.0467 C   0  0  0  0  0  0  0  0  0  0  0  0
   -2.5034   -0.6550   -0.5034 C   0  0  0  0  0  0  0  0  0  0  0  0
   -1.2021   -1.5580    0.2265 S   0  0  0  0  0  0  0  0  0  0  0  0
   -5.2064    0.8719   -2.6191 C   0  0  0  0  0  0  0  0  0  0  0  0
   -5.7409    2.1160   -2.4613 C   0  0  0  0  0  0  0  0  0  0  0  0
   -5.3208    3.1057   -1.5222 C   0  0  0  0  0  0  0  0  0  0  0  0
   -4.1738    3.3105   -0.9937 O   0  0  0  0  0  0  0  0  0  0  0  0
   -6.4537    3.9592   -1.2062 C   0  0  0  0  0  0  0  0  0  0  0  0
   -6.5216    5.0287   -0.3244 C   0  0  0  0  0  0  0  0  0  0  0  0
   -7.7155    5.6889   -0.1556 C   0  0  0  0  0  0  0  0  0  0  0  0
   -8.8168    5.2974   -0.8466 C   0  0  0  0  0  0  0  0  0  0  0  0
   -8.7151    4.2215   -1.7292 C   0  0  0  0  0  0  0  0  0  0  0  0
   -7.5672    3.5325   -1.9344 C   0  0  0  0  0  0  0  0  0  0  0  0
   -7.1797    2.3610   -2.7761 C   0  0  0  0  0  0  0  0  0  0  0  0
   -7.8219    1.9419   -3.8427 C   0  0  0  0  0  0  0  0  0  0  0  0
   -7.1690    1.2417   -4.8223 C   0  0  0  0  0  0  0  0  0  0  0  0
   -6.5659    0.5758   -5.7260 N   0  0  0  0  0  0  0  0  0  0  0  0
   -9.2203    2.1595   -3.9789 C   0  0  0  0  0  0  0  0  0  0  0  0
  -10.4230    2.3543   -4.0843 N   0  0  0  0  0  0  0  0  0  0  0  0
   -9.7013    6.3316   -0.2094 C   0  0  0  0  0  0  0  0  0  0  0  0
  -10.5834    5.8036    0.9073 C   0  0  0  0  0  0  0  0  0  0  0  0
  -10.9602    6.9676    1.7249 C   0  0  0  0  0  0  0  0  0  0  0  0
   -9.8222    7.3860    2.3552 C   0  0  0  0  0  0  0  0  0  0  0  0
   -8.7448    6.5092    1.9436 C   0  0  0  0  0  0  0  0  0  0  0  0
   -9.4993    5.1914    1.7927 C   0  0  0  0  0  0  0  0  0  0  0  0
   -8.4348    6.7793    0.5143 C   0  0  0  0  0  0  0  0  0  0  0  0
   12.5763   -1.4738    0.2798 H   0  0  0  0  0  0  0  0  0  0  0  0
   10.9217   -4.1259   -4.6535 H   0  0  0  0  0  0  0  0  0  0  0  0
    6.9834   -3.3906   -1.8384 H   0  0  0  0  0  0  0  0  0  0  0  0
    5.9969   -4.0422   -5.0993 H   0  0  0  0  0  0  0  0  0  0  0  0
    5.0122   -6.0679   -3.9933 H   0  0  0  0  0  0  0  0  0  0  0  0
    6.7448   -6.8471   -2.1519 H   0  0  0  0  0  0  0  0  0  0  0  0
    9.0313   -7.2178   -3.2835 H   0  0  0  0  0  0  0  0  0  0  0  0
    8.6140   -7.1807   -5.8860 H   0  0  0  0  0  0  0  0  0  0  0  0
    6.2344   -8.0301   -5.2255 H   0  0  0  0  0  0  0  0  0  0  0  0
    6.0689   -6.5691   -6.3473 H   0  0  0  0  0  0  0  0  0  0  0  0
    7.9426   -4.7958   -6.4740 H   0  0  0  0  0  0  0  0  0  0  0  0
    9.4198   -0.2174   -0.5004 H   0  0  0  0  0  0  0  0  0  0  0  0
    5.6164    0.0897   -0.6693 H   0  0  0  0  0  0  0  0  0  0  0  0
    7.3658   -0.0021   -1.1903 H   0  0  0  0  0  0  0  0  0  0  0  0
    7.7308    2.3348   -0.8119 H   0  0  0  0  0  0  0  0  0  0  0  0
    6.1178    2.1718   -1.6581 H   0  0  0  0  0  0  0  0  0  0  0  0
    6.2082    2.4869    0.0916 H   0  0  0  0  0  0  0  0  0  0  0  0
    9.4862   -0.7712    4.3385 H   0  0  0  0  0  0  0  0  0  0  0  0
   11.5063   -1.4019    2.9985 H   0  0  0  0  0  0  0  0  0  0  0  0
    7.0046   -0.4202    5.1562 H   0  0  0  0  0  0  0  0  0  0  0  0
    4.4774   -0.4001    5.2894 H   0  0  0  0  0  0  0  0  0  0  0  0
    4.3421    0.3159    1.1563 H   0  0  0  0  0  0  0  0  0  0  0  0
   -1.3406   -0.8360    5.0520 H   0  0  0  0  0  0  0  0  0  0  0  0
   -1.4125   -0.0896    7.4754 H   0  0  0  0  0  0  0  0  0  0  0  0
    0.1147    0.5329    8.2333 H   0  0  0  0  0  0  0  0  0  0  0  0
   -0.0669   -2.3421    7.3245 H   0  0  0  0  0  0  0  0  0  0  0  0
   -1.0484   -1.9222    8.7637 H   0  0  0  0  0  0  0  0  0  0  0  0
    0.8009   -1.6763    8.7503 H   0  0  0  0  0  0  0  0  0  0  0  0
   -2.7821    1.0224    5.4982 H   0  0  0  0  0  0  0  0  0  0  0  0
   -4.7018    0.0839    6.7001 H   0  0  0  0  0  0  0  0  0  0  0  0
   -8.4371   -1.2960    3.6408 H   0  0  0  0  0  0  0  0  0  0  0  0
   -7.8992   -2.9357    4.0914 H   0  0  0  0  0  0  0  0  0  0  0  0
   -9.2529   -2.1273    4.9484 H   0  0  0  0  0  0  0  0  0  0  0  0
   -6.4130   -1.1053    3.0476 H   0  0  0  0  0  0  0  0  0  0  0  0
   -4.5313   -0.2294    1.8985 H   0  0  0  0  0  0  0  0  0  0  0  0
   -3.7221    3.0632    3.5135 H   0  0  0  0  0  0  0  0  0  0  0  0
   -2.8054    5.3381    4.0869 H   0  0  0  0  0  0  0  0  0  0  0  0
    0.6621    5.3963    6.2083 H   0  0  0  0  0  0  0  0  0  0  0  0
   -0.6997    6.5921    6.4657 H   0  0  0  0  0  0  0  0  0  0  0  0
    1.0367    7.1361    6.1750 H   0  0  0  0  0  0  0  0  0  0  0  0
    1.0783    4.0072    3.2537 H   0  0  0  0  0  0  0  0  0  0  0  0
    0.2799    1.8513    2.6569 H   0  0  0  0  0  0  0  0  0  0  0  0
   -4.3549   -2.9864   -1.2366 H   0  0  0  0  0  0  0  0  0  0  0  0
   -6.2522   -4.4378   -1.6948 H   0  0  0  0  0  0  0  0  0  0  0  0
  -10.1925   -4.1883   -3.9800 H   0  0  0  0  0  0  0  0  0  0  0  0
   -9.0823   -2.8587   -3.3811 H   0  0  0  0  0  0  0  0  0  0  0  0
   -9.2957   -3.0839   -5.1284 H   0  0  0  0  0  0  0  0  0  0  0  0
   -6.2399   -3.0154   -5.7261 H   0  0  0  0  0  0  0  0  0  0  0  0
   -4.4133   -1.5891   -5.2593 H   0  0  0  0  0  0  0  0  0  0  0  0
   -0.6659   -1.4671   -2.1631 H   0  0  0  0  0  0  0  0  0  0  0  0
    1.3979   -0.9231   -3.3129 H   0  0  0  0  0  0  0  0  0  0  0  0
    1.9382   -0.4173   -8.4108 H   0  0  0  0  0  0  0  0  0  0  0  0
    2.1940    1.3249   -7.9952 H   0  0  0  0  0  0  0  0  0  0  0  0
    0.4988    0.6192   -7.9631 H   0  0  0  0  0  0  0  0  0  0  0  0
   -0.9742   -0.1138   -6.7774 H   0  0  0  0  0  0  0  0  0  0  0  0
   -2.9325   -0.5737   -5.5873 H   0  0  0  0  0  0  0  0  0  0  0  0
   -5.5437    0.2106   -3.3421 H   0  0  0  0  0  0  0  0  0  0  0  0
   -5.6359    5.3584    0.2440 H   0  0  0  0  0  0  0  0  0  0  0  0
   -9.6231    3.9573   -2.2503 H   0  0  0  0  0  0  0  0  0  0  0  0
  -10.1090    7.0658   -0.8790 H   0  0  0  0  0  0  0  0  0  0  0  0
  -11.3643    5.1237    0.6242 H   0  0  0  0  0  0  0  0  0  0  0  0
  -11.9324    7.3890    1.8119 H   0  0  0  0  0  0  0  0  0  0  0  0
   -9.7211    8.2238    3.0233 H   0  0  0  0  0  0  0  0  0  0  0  0
   -7.8763    6.4686    2.6052 H   0  0  0  0  0  0  0  0  0  0  0  0
   -9.9271    4.8357    2.7385 H   0  0  0  0  0  0  0  0  0  0  0  0
   -8.9280    4.4404    1.2585 H   0  0  0  0  0  0  0  0  0  0  0  0
   -8.0807    7.7788    0.2244 H   0  0  0  0  0  0  0  0  0  0  0  0
  1  2  2  3
  2  3  1  0
  3  4  2  0
  3  5  1  0
  5  6  2  0
  6  7  1  0
  7  8  2  0
  8  9  1  0
  9 10  2  0
 10 11  1  0
 11 12  2  3
 12 13  1  0
 13 14  3  0
 12 15  1  0
 15 16  3  0
  8 17  1  0
 17 18  1  0
 18 19  1  0
 19 20  2  0
 20 21  1  0
 21 22  1  0
 21 23  1  0
  1 24  1  0
 24 25  2  0
 25 26  1  0
 26 27  1  0
 27 28  1  0
 28 29  1  0
 27 30  1  0
 30 31  2  0
 31 32  1  0
 32 33  1  0
 33 34  2  0
 31 35  1  0
 35 36  2  0
 36 37  1  0
 37 38  2  0
 37 39  1  0
 39 40  1  0
 40 41  1  0
 41 42  2  0
 42 43  1  0
 43 44  2  0
 44 45  1  0
 45 46  1  0
 44 47  1  0
 47 48  1  0
 41 49  1  0
 49 50  2  0
 50 51  1  0
 51 52  1  0
 52 53  2  0
 53 54  1  0
 54 55  2  0
 55 56  1  0
 56 57  1  0
 55 58  1  0
 58 59  2  0
 51 60  1  0
 60 61  2  0
 61 62  1  0
 62 63  2  0
 63 64  1  0
 64 65  1  0
 63 66  1  0
 66 67  2  0
 50 68  1  0
 68 69  1  0
 69 70  1  0
 70 71  2  0
 71 72  1  0
 72 73  1  0
 73 74  2  0
 74 75  1  0
 75 76  2  0
 76 77  1  0
 77 78  1  0
 76 79  1  0
 79 80  2  0
 72 81  1  0
 81 82  2  0
 82 83  1  0
 83 84  2  0
 84 85  1  0
 85 86  1  0
 84 87  1  0
 87 88  2  0
 71 89  1  0
 89 90  1  0
 70 91  1  0
 91 92  2  3
 92 93  1  0
 93 94  2  0
 93 95  1  0
 95 96  2  0
 96 97  1  0
 97 98  2  0
 98 99  1  0
 99100  2  0
100101  1  0
101102  2  3
102103  1  0
103104  3  0
102105  1  0
105106  3  0
 98107  1  0
107108  1  0
108109  1  0
109110  2  0
110111  1  0
111112  1  0
111113  1  0
 11  2  1  0
 23 17  1  0
 34 24  1  0
 48 39  2  0
 90 49  1  0
101 92  1  0
113107  1  0
 10  5  1  0
 22 18  1  0
 32 26  2  0
 48 42  1  0
 59 52  1  0
 67 60  1  0
 89 68  2  0
100 95  1  0
112108  1  0
 23  7  1  0
 38 30  1  0
 80 73  1  0
 88 81  1  0
113 97  1  0
  1114  1  0
  6115  1  0
  9116  1  0
 17117  1  0
 18118  1  0
 19119  1  0
 20120  1  0
 21121  1  0
 22122  1  0
 22123  1  0
 23124  1  0
 25125  1  0
 28126  1  0
 28127  1  0
 29128  1  0
 29129  1  0
 29130  1  0
 33131  1  0
 34132  1  0
 35133  1  0
 36134  1  0
 38135  1  0
 43136  1  0
 45137  1  0
 45138  1  0
 46139  1  0
 46140  1  0
 46141  1  0
 53142  1  0
 54143  1  0
 57144  1  0
 57145  1  0
 57146  1  0
 58147  1  0
 59148  1  0
 61149  1  0
 62150  1  0
 65151  1  0
 65152  1  0
 65153  1  0
 66154  1  0
 67155  1  0
 74156  1  0
 75157  1  0
 78158  1  0
 78159  1  0
 78160  1  0
 79161  1  0
 80162  1  0
 82163  1  0
 83164  1  0
 86165  1  0
 86166  1  0
 86167  1  0
 87168  1  0
 88169  1  0
 91170  1  0
 96171  1  0
 99172  1  0
107173  1  0
108174  1  0
109175  1  0
110176  1  0
111177  1  0
112178  1  0
112179  1  0
113180  1  0
M  END

