
     RDKit          3D

159175  0  0  0  0  0  0  0  0999 V2000
   -4.5264    4.7260    3.9286 C   0  0  0  0  0  0  0  0  0  0  0  0
   -4.6444    3.7095    4.8189 C   0  0  0  0  0  0  0  0  0  0  0  0
   -4.1756    3.8159    6.2017 C   0  0  0  0  0  0  0  0  0  0  0  0
   -4.1448    4.8703    6.9011 O   0  0  0  0  0  0  0  0  0  0  0  0
   -3.6442    2.5176    6.6041 C   0  0  0  0  0  0  0  0  0  0  0  0
   -2.7928    2.2473    7.7012 C   0  0  0  0  0  0  0  0  0  0  0  0
   -2.1936    0.9939    7.6438 C   0  0  0  0  0  0  0  0  0  0  0  0
   -2.4532    0.0438    6.6001 C   0  0  0  0  0  0  0  0  0  0  0  0
   -3.3088    0.2980    5.5431 C   0  0  0  0  0  0  0  0  0  0  0  0
   -3.9152    1.5795    5.5750 C   0  0  0  0  0  0  0  0  0  0  0  0
   -4.6868    2.2546    4.5148 C   0  0  0  0  0  0  0  0  0  0  0  0
   -5.5322    1.6712    3.6346 C   0  0  0  0  0  0  0  0  0  0  0  0
   -6.4488    2.4477    2.8232 C   0  0  0  0  0  0  0  0  0  0  0  0
   -7.1783    3.0735    2.1749 N   0  0  0  0  0  0  0  0  0  0  0  0
   -5.6614    0.2465    3.5435 C   0  0  0  0  0  0  0  0  0  0  0  0
   -5.7516   -0.9057    3.4716 N   0  0  0  0  0  0  0  0  0  0  0  0
   -1.4473   -0.9087    7.1909 C   0  0  0  0  0  0  0  0  0  0  0  0
   -1.9814   -2.1480    7.9789 C   0  0  0  0  0  0  0  0  0  0  0  0
   -3.2900   -1.8205    8.6561 C   0  0  0  0  0  0  0  0  0  0  0  0
   -3.0083   -0.9350    9.6094 C   0  0  0  0  0  0  0  0  0  0  0  0
   -1.5256   -0.6935    9.5559 C   0  0  0  0  0  0  0  0  0  0  0  0
   -1.0653   -2.0898    9.1778 C   0  0  0  0  0  0  0  0  0  0  0  0
   -1.1678    0.0672    8.2466 C   0  0  0  0  0  0  0  0  0  0  0  0
   -4.0735    4.5232    2.5227 C   0  0  0  0  0  0  0  0  0  0  0  0
   -3.9413    5.5150    1.5467 C   0  0  0  0  0  0  0  0  0  0  0  0
   -3.1372    5.1359    0.4379 C   0  0  0  0  0  0  0  0  0  0  0  0
   -2.7803    6.0956   -0.6467 C   0  0  0  0  0  0  0  0  0  0  0  0
   -3.6964    7.0976   -1.0341 C   0  0  0  0  0  0  0  0  0  0  0  0
   -3.3506    8.0333   -2.0114 C   0  0  0  0  0  0  0  0  0  0  0  0
   -2.0954    7.9767   -2.6188 C   0  0  0  0  0  0  0  0  0  0  0  0
   -1.1802    6.9906   -2.2493 C   0  0  0  0  0  0  0  0  0  0  0  0
   -1.5180    6.0574   -1.2665 C   0  0  0  0  0  0  0  0  0  0  0  0
   -2.6681    3.8122    0.5529 C   0  0  0  0  0  0  0  0  0  0  0  0
   -3.1988    3.2001    1.9958 S   0  0  0  0  0  0  0  0  0  0  0  0
   -1.6898    3.0626   -0.2510 C   0  0  0  0  0  0  0  0  0  0  0  0
   -1.8223    2.5724   -1.5692 C   0  0  0  0  0  0  0  0  0  0  0  0
   -2.7961    3.0233   -2.5441 N   0  0  0  0  0  0  0  0  0  0  0  0
   -2.4412    2.9756   -3.9415 C   0  0  0  0  0  0  0  0  0  0  0  0
   -3.0987    2.0887   -4.8163 C   0  0  0  0  0  0  0  0  0  0  0  0
   -2.6476    1.9233   -6.1313 C   0  0  0  0  0  0  0  0  0  0  0  0
   -1.5732    2.6827   -6.6042 C   0  0  0  0  0  0  0  0  0  0  0  0
   -0.9413    2.4051   -8.2697 S   0  0  0  0  0  0  0  0  0  0  0  0
    0.4332    1.3194   -7.7186 C   0  0  0  0  0  0  0  0  0  0  0  0
   -0.9751    3.6357   -5.7597 C   0  0  0  0  0  0  0  0  0  0  0  0
   -1.3747    3.7378   -4.4282 C   0  0  0  0  0  0  0  0  0  0  0  0
   -4.1845    3.2000   -2.2067 C   0  0  0  0  0  0  0  0  0  0  0  0
   -4.8843    2.1914   -1.5422 C   0  0  0  0  0  0  0  0  0  0  0  0
   -6.2847    2.2309   -1.4692 C   0  0  0  0  0  0  0  0  0  0  0  0
   -6.9836    3.3246   -1.9998 C   0  0  0  0  0  0  0  0  0  0  0  0
   -8.7780    3.3250   -2.1026 S   0  0  0  0  0  0  0  0  0  0  0  0
   -9.0582    3.7107   -0.3398 C   0  0  0  0  0  0  0  0  0  0  0  0
   -6.2733    4.3636   -2.6041 C   0  0  0  0  0  0  0  0  0  0  0  0
   -4.8913    4.2983   -2.7164 C   0  0  0  0  0  0  0  0  0  0  0  0
   -0.8835    1.5624   -1.8152 C   0  0  0  0  0  0  0  0  0  0  0  0
   -0.7347    0.3717   -2.9945 S   0  0  0  0  0  0  0  0  0  0  0  0
    0.4230   -0.5388   -2.1373 C   0  0  0  0  0  0  0  0  0  0  0  0
    0.6990    0.1035   -0.9094 C   0  0  0  0  0  0  0  0  0  0  0  0
    1.5245   -0.4197    0.1559 N   0  0  0  0  0  0  0  0  0  0  0  0
    1.3836   -1.7797    0.6109 C   0  0  0  0  0  0  0  0  0  0  0  0
    0.1262   -2.4007    0.6466 C   0  0  0  0  0  0  0  0  0  0  0  0
    0.0122   -3.7363    1.0293 C   0  0  0  0  0  0  0  0  0  0  0  0
    1.1461   -4.4669    1.3841 C   0  0  0  0  0  0  0  0  0  0  0  0
    1.0028   -6.1946    1.8701 S   0  0  0  0  0  0  0  0  0  0  0  0
    1.1745   -5.8540    3.6530 C   0  0  0  0  0  0  0  0  0  0  0  0
    2.4053   -3.8565    1.3458 C   0  0  0  0  0  0  0  0  0  0  0  0
    2.5268   -2.5132    0.9769 C   0  0  0  0  0  0  0  0  0  0  0  0
    2.4115    0.4845    0.8533 C   0  0  0  0  0  0  0  0  0  0  0  0
    2.5337    0.4177    2.2477 C   0  0  0  0  0  0  0  0  0  0  0  0
    3.3936    1.2824    2.9293 C   0  0  0  0  0  0  0  0  0  0  0  0
    4.1287    2.2390    2.2066 C   0  0  0  0  0  0  0  0  0  0  0  0
    5.2619    3.3123    3.0738 S   0  0  0  0  0  0  0  0  0  0  0  0
    4.0086    4.5518    3.5164 C   0  0  0  0  0  0  0  0  0  0  0  0
    3.9941    2.3249    0.8125 C   0  0  0  0  0  0  0  0  0  0  0  0
    3.1453    1.4495    0.1472 C   0  0  0  0  0  0  0  0  0  0  0  0
   -0.0554    1.2622   -0.7758 C   0  0  0  0  0  0  0  0  0  0  0  0
   -0.4360    2.2168    0.5300 S   0  0  0  0  0  0  0  0  0  0  0  0
    0.9394   -1.8491   -2.5743 C   0  0  0  0  0  0  0  0  0  0  0  0
    0.2104   -2.8071   -3.2665 C   0  0  0  0  0  0  0  0  0  0  0  0
    0.8929   -4.0301   -3.4345 C   0  0  0  0  0  0  0  0  0  0  0  0
    0.2748   -5.2009   -4.1017 C   0  0  0  0  0  0  0  0  0  0  0  0
    0.3790   -6.4975   -3.5562 C   0  0  0  0  0  0  0  0  0  0  0  0
   -0.2092   -7.5829   -4.2103 C   0  0  0  0  0  0  0  0  0  0  0  0
   -0.9117   -7.3934   -5.4023 C   0  0  0  0  0  0  0  0  0  0  0  0
   -1.0533   -6.1068   -5.9329 C   0  0  0  0  0  0  0  0  0  0  0  0
   -0.4737   -5.0085   -5.2813 C   0  0  0  0  0  0  0  0  0  0  0  0
    2.1865   -4.0016   -2.9016 C   0  0  0  0  0  0  0  0  0  0  0  0
    2.4463   -2.4847   -2.2427 S   0  0  0  0  0  0  0  0  0  0  0  0
    3.1528   -5.1206   -2.8380 C   0  0  0  0  0  0  0  0  0  0  0  0
    4.1165   -5.2908   -3.7594 C   0  0  0  0  0  0  0  0  0  0  0  0
    4.4637   -6.6093   -4.2830 C   0  0  0  0  0  0  0  0  0  0  0  0
    4.3339   -7.7016   -3.6624 O   0  0  0  0  0  0  0  0  0  0  0  0
    4.8094   -6.4712   -5.6924 C   0  0  0  0  0  0  0  0  0  0  0  0
    5.0174   -7.4611   -6.6727 C   0  0  0  0  0  0  0  0  0  0  0  0
    5.0250   -9.1656   -6.2629 Cl  0  0  0  0  0  0  0  0  0  0  0  0
    5.2044   -7.0500   -8.0066 C   0  0  0  0  0  0  0  0  0  0  0  0
    5.1275   -5.6901   -8.3473 C   0  0  0  0  0  0  0  0  0  0  0  0
    4.9130   -4.7178   -7.3589 C   0  0  0  0  0  0  0  0  0  0  0  0
    4.7782   -5.1243   -6.0241 C   0  0  0  0  0  0  0  0  0  0  0  0
    4.5320   -4.3176   -4.8028 C   0  0  0  0  0  0  0  0  0  0  0  0
    5.1192   -3.1292   -4.5345 C   0  0  0  0  0  0  0  0  0  0  0  0
    5.6453   -2.2776   -5.5725 C   0  0  0  0  0  0  0  0  0  0  0  0
    6.0628   -1.5939   -6.4137 N   0  0  0  0  0  0  0  0  0  0  0  0
    5.4397   -2.7519   -3.1736 C   0  0  0  0  0  0  0  0  0  0  0  0
    5.6925   -2.4640   -2.0813 N   0  0  0  0  0  0  0  0  0  0  0  0
   -4.4641    5.7381    4.3036 H   0  0  0  0  0  0  0  0  0  0  0  0
   -2.5475    2.9783    8.4600 H   0  0  0  0  0  0  0  0  0  0  0  0
   -3.4088   -0.3933    4.7184 H   0  0  0  0  0  0  0  0  0  0  0  0
   -0.5792   -1.1248    6.5437 H   0  0  0  0  0  0  0  0  0  0  0  0
   -1.9780   -3.1093    7.4231 H   0  0  0  0  0  0  0  0  0  0  0  0
   -4.2606   -2.2474    8.4347 H   0  0  0  0  0  0  0  0  0  0  0  0
   -3.7174   -0.5153   10.3165 H   0  0  0  0  0  0  0  0  0  0  0  0
   -1.0906   -0.2740   10.4817 H   0  0  0  0  0  0  0  0  0  0  0  0
   -1.2949   -2.8615    9.9558 H   0  0  0  0  0  0  0  0  0  0  0  0
    0.0269   -2.1414    8.9344 H   0  0  0  0  0  0  0  0  0  0  0  0
   -0.1359    0.4729    8.1959 H   0  0  0  0  0  0  0  0  0  0  0  0
   -4.3158    6.5264    1.6822 H   0  0  0  0  0  0  0  0  0  0  0  0
   -4.6821    7.1339   -0.5912 H   0  0  0  0  0  0  0  0  0  0  0  0
   -4.0553    8.7844   -2.3122 H   0  0  0  0  0  0  0  0  0  0  0  0
   -1.8274    8.7028   -3.3663 H   0  0  0  0  0  0  0  0  0  0  0  0
   -0.2073    6.9425   -2.7333 H   0  0  0  0  0  0  0  0  0  0  0  0
   -0.7589    5.3499   -0.9812 H   0  0  0  0  0  0  0  0  0  0  0  0
   -3.9313    1.4973   -4.4677 H   0  0  0  0  0  0  0  0  0  0  0  0
   -3.1355    1.1884   -6.7640 H   0  0  0  0  0  0  0  0  0  0  0  0
    0.0684    0.2876   -7.4850 H   0  0  0  0  0  0  0  0  0  0  0  0
    1.2114    1.2741   -8.5204 H   0  0  0  0  0  0  0  0  0  0  0  0
    0.9181    1.7609   -6.8131 H   0  0  0  0  0  0  0  0  0  0  0  0
   -0.1294    4.2225   -6.0957 H   0  0  0  0  0  0  0  0  0  0  0  0
   -0.8718    4.4467   -3.7784 H   0  0  0  0  0  0  0  0  0  0  0  0
   -4.3616    1.3164   -1.1918 H   0  0  0  0  0  0  0  0  0  0  0  0
   -6.8133    1.3919   -1.0458 H   0  0  0  0  0  0  0  0  0  0  0  0
  -10.0987    4.0804   -0.2149 H   0  0  0  0  0  0  0  0  0  0  0  0
   -8.3591    4.4843    0.0586 H   0  0  0  0  0  0  0  0  0  0  0  0
   -8.9361    2.7744    0.2522 H   0  0  0  0  0  0  0  0  0  0  0  0
   -6.8119    5.2139   -3.0216 H   0  0  0  0  0  0  0  0  0  0  0  0
   -4.3654    5.0881   -3.2432 H   0  0  0  0  0  0  0  0  0  0  0  0
   -0.7599   -1.8454    0.3757 H   0  0  0  0  0  0  0  0  0  0  0  0
   -0.9728   -4.2082    1.0505 H   0  0  0  0  0  0  0  0  0  0  0  0
    1.4380   -6.7933    4.1844 H   0  0  0  0  0  0  0  0  0  0  0  0
    1.9966   -5.1386    3.8340 H   0  0  0  0  0  0  0  0  0  0  0  0
    0.2254   -5.4645    4.0716 H   0  0  0  0  0  0  0  0  0  0  0  0
    3.2974   -4.4126    1.6250 H   0  0  0  0  0  0  0  0  0  0  0  0
    3.5061   -2.0749    0.9221 H   0  0  0  0  0  0  0  0  0  0  0  0
    1.9527   -0.3008    2.8177 H   0  0  0  0  0  0  0  0  0  0  0  0
    3.4838    1.2387    3.9996 H   0  0  0  0  0  0  0  0  0  0  0  0
    3.6705    5.0890    2.6091 H   0  0  0  0  0  0  0  0  0  0  0  0
    3.1378    4.0720    4.0064 H   0  0  0  0  0  0  0  0  0  0  0  0
    4.4564    5.2731    4.2316 H   0  0  0  0  0  0  0  0  0  0  0  0
    4.5356    3.0694    0.2614 H   0  0  0  0  0  0  0  0  0  0  0  0
    3.0434    1.5310   -0.9318 H   0  0  0  0  0  0  0  0  0  0  0  0
   -0.8087   -2.6433   -3.6016 H   0  0  0  0  0  0  0  0  0  0  0  0
    0.8793   -6.6878   -2.6151 H   0  0  0  0  0  0  0  0  0  0  0  0
   -0.1295   -8.5747   -3.7880 H   0  0  0  0  0  0  0  0  0  0  0  0
   -1.3442   -8.2414   -5.9118 H   0  0  0  0  0  0  0  0  0  0  0  0
   -1.5742   -5.9689   -6.8669 H   0  0  0  0  0  0  0  0  0  0  0  0
   -0.5713   -4.0366   -5.7326 H   0  0  0  0  0  0  0  0  0  0  0  0
    2.8984   -5.9502   -2.1939 H   0  0  0  0  0  0  0  0  0  0  0  0
    5.3662   -7.7963   -8.7799 H   0  0  0  0  0  0  0  0  0  0  0  0
    5.2133   -5.3839   -9.3844 H   0  0  0  0  0  0  0  0  0  0  0  0
    4.7968   -3.6823   -7.6519 H   0  0  0  0  0  0  0  0  0  0  0  0
  1  2  2  3
  2  3  1  0
  3  4  2  0
  3  5  1  0
  5  6  2  0
  6  7  1  0
  7  8  2  0
  8  9  1  0
  9 10  2  0
 10 11  1  0
 11 12  2  3
 12 13  1  0
 13 14  3  0
 12 15  1  0
 15 16  3  0
  8 17  1  0
 17 18  1  0
 18 19  1  0
 19 20  2  0
 20 21  1  0
 21 22  1  0
 21 23  1  0
  1 24  1  0
 24 25  2  0
 25 26  1  0
 26 27  1  0
 27 28  2  0
 28 29  1  0
 29 30  2  0
 30 31  1  0
 31 32  2  0
 26 33  2  0
 33 34  1  0
 33 35  1  0
 35 36  2  0
 36 37  1  0
 37 38  1  0
 38 39  2  0
 39 40  1  0
 40 41  2  0
 41 42  1  0
 42 43  1  0
 41 44  1  0
 44 45  2  0
 37 46  1  0
 46 47  2  0
 47 48  1  0
 48 49  2  0
 49 50  1  0
 50 51  1  0
 49 52  1  0
 52 53  2  0
 36 54  1  0
 54 55  1  0
 55 56  1  0
 56 57  2  0
 57 58  1  0
 58 59  1  0
 59 60  2  0
 60 61  1  0
 61 62  2  0
 62 63  1  0
 63 64  1  0
 62 65  1  0
 65 66  2  0
 58 67  1  0
 67 68  2  0
 68 69  1  0
 69 70  2  0
 70 71  1  0
 71 72  1  0
 70 73  1  0
 73 74  2  0
 57 75  1  0
 75 76  1  0
 56 77  1  0
 77 78  2  0
 78 79  1  0
 79 80  1  0
 80 81  2  0
 81 82  1  0
 82 83  2  0
 83 84  1  0
 84 85  2  0
 79 86  2  0
 86 87  1  0
 86 88  1  0
 88 89  2  3
 89 90  1  0
 90 91  2  0
 90 92  1  0
 92 93  2  0
 93 94  1  0
 93 95  1  0
 95 96  2  0
 96 97  1  0
 97 98  2  0
 98 99  1  0
 99100  2  3
100101  1  0
101102  3  0
100103  1  0
103104  3  0
 11  2  1  0
 23 17  1  0
 34 24  1  0
 76 35  1  0
 87 77  1  0
 99 89  1  0
 10  5  1  0
 22 18  1  0
 32 27  1  0
 45 38  1  0
 53 46  1  0
 75 54  2  0
 85 80  1  0
 98 92  1  0
 23  7  1  0
 66 59  1  0
 74 67  1  0
  1105  1  0
  6106  1  0
  9107  1  0
 17108  1  0
 18109  1  0
 19110  1  0
 20111  1  0
 21112  1  0
 22113  1  0
 22114  1  0
 23115  1  0
 25116  1  0
 28117  1  0
 29118  1  0
 30119  1  0
 31120  1  0
 32121  1  0
 39122  1  0
 40123  1  0
 43124  1  0
 43125  1  0
 43126  1  0
 44127  1  0
 45128  1  0
 47129  1  0
 48130  1  0
 51131  1  0
 51132  1  0
 51133  1  0
 52134  1  0
 53135  1  0
 60136  1  0
 61137  1  0
 64138  1  0
 64139  1  0
 64140  1  0
 65141  1  0
 66142  1  0
 68143  1  0
 69144  1  0
 72145  1  0
 72146  1  0
 72147  1  0
 73148  1  0
 74149  1  0
 78150  1  0
 81151  1  0
 82152  1  0
 83153  1  0
 84154  1  0
 85155  1  0
 88156  1  0
 95157  1  0
 96158  1  0
 97159  1  0
M  END

