
     RDKit          3D

184203  0  0  0  0  0  0  0  0999 V2000
   -7.2354    5.9636    0.8658 C   0  0  0  0  0  0  0  0  0  0  0  0
   -6.5187    7.1095    0.8810 C   0  0  0  0  0  0  0  0  0  0  0  0
   -5.1338    7.2727    1.3440 C   0  0  0  0  0  0  0  0  0  0  0  0
   -4.1984    6.4373    1.2257 O   0  0  0  0  0  0  0  0  0  0  0  0
   -4.9800    8.6180    1.8494 C   0  0  0  0  0  0  0  0  0  0  0  0
   -3.9470    9.0985    2.6890 C   0  0  0  0  0  0  0  0  0  0  0  0
   -4.1777   10.3695    3.1848 C   0  0  0  0  0  0  0  0  0  0  0  0
   -5.3449   11.1364    2.8642 C   0  0  0  0  0  0  0  0  0  0  0  0
   -6.3625   10.6660    2.0485 C   0  0  0  0  0  0  0  0  0  0  0  0
   -6.1475    9.3582    1.5352 C   0  0  0  0  0  0  0  0  0  0  0  0
   -7.0757    8.4857    0.7671 C   0  0  0  0  0  0  0  0  0  0  0  0
   -8.0469    8.8925   -0.0847 C   0  0  0  0  0  0  0  0  0  0  0  0
   -8.7104    7.9772   -0.9778 C   0  0  0  0  0  0  0  0  0  0  0  0
   -9.2426    7.2431   -1.6966 N   0  0  0  0  0  0  0  0  0  0  0  0
   -8.3489   10.2874   -0.2898 C   0  0  0  0  0  0  0  0  0  0  0  0
   -8.5963   11.4022   -0.4696 N   0  0  0  0  0  0  0  0  0  0  0  0
   -4.8681   12.2567    3.7408 C   0  0  0  0  0  0  0  0  0  0  0  0
   -4.2665   13.5223    3.0549 C   0  0  0  0  0  0  0  0  0  0  0  0
   -3.5914   13.1416    1.7560 C   0  0  0  0  0  0  0  0  0  0  0  0
   -2.5134   12.4231    2.0828 C   0  0  0  0  0  0  0  0  0  0  0  0
   -2.4960   12.3395    3.5905 C   0  0  0  0  0  0  0  0  0  0  0  0
   -3.0341   13.7201    3.9174 C   0  0  0  0  0  0  0  0  0  0  0  0
   -3.6839   11.4641    4.0856 C   0  0  0  0  0  0  0  0  0  0  0  0
   -6.7240    4.6327    1.2707 C   0  0  0  0  0  0  0  0  0  0  0  0
   -5.8495    4.4697    2.3700 C   0  0  0  0  0  0  0  0  0  0  0  0
   -5.2711    3.2196    2.5839 C   0  0  0  0  0  0  0  0  0  0  0  0
   -4.1736    2.9390    3.3364 N   0  0  0  0  0  0  0  0  0  0  0  0
   -3.3598    3.9022    4.0889 C   0  0  0  0  0  0  0  0  0  0  0  0
   -3.8908    4.0505    5.5105 C   0  0  0  0  0  0  0  0  0  0  0  0
   -3.8876    1.6366    3.0700 C   0  0  0  0  0  0  0  0  0  0  0  0
   -4.8008    1.1041    2.1761 C   0  0  0  0  0  0  0  0  0  0  0  0
   -5.6655    2.1220    1.8472 C   0  0  0  0  0  0  0  0  0  0  0  0
   -6.6077    2.2203    0.8265 C   0  0  0  0  0  0  0  0  0  0  0  0
   -7.1332    3.4924    0.5359 C   0  0  0  0  0  0  0  0  0  0  0  0
   -4.6508   -0.1640    1.6296 C   0  0  0  0  0  0  0  0  0  0  0  0
   -3.4808   -0.8730    1.9373 C   0  0  0  0  0  0  0  0  0  0  0  0
   -2.4683   -0.2845    2.7325 C   0  0  0  0  0  0  0  0  0  0  0  0
   -2.7110    0.9440    3.3813 C   0  0  0  0  0  0  0  0  0  0  0  0
   -1.0820   -0.7619    2.6111 C   0  0  0  0  0  0  0  0  0  0  0  0
   -0.4211   -0.9548    1.3892 C   0  0  0  0  0  0  0  0  0  0  0  0
   -1.0279   -0.8875    0.0885 N   0  0  0  0  0  0  0  0  0  0  0  0
   -1.5737   -2.0785   -0.5265 C   0  0  0  0  0  0  0  0  0  0  0  0
   -1.1242   -3.3610   -0.1510 C   0  0  0  0  0  0  0  0  0  0  0  0
   -1.6555   -4.4998   -0.7578 C   0  0  0  0  0  0  0  0  0  0  0  0
   -2.6599   -4.3822   -1.7253 C   0  0  0  0  0  0  0  0  0  0  0  0
   -3.3317   -5.8543   -2.5004 S   0  0  0  0  0  0  0  0  0  0  0  0
   -4.6219   -6.0752   -1.2392 C   0  0  0  0  0  0  0  0  0  0  0  0
   -3.1278   -3.1162   -2.0918 C   0  0  0  0  0  0  0  0  0  0  0  0
   -2.5922   -1.9728   -1.4942 C   0  0  0  0  0  0  0  0  0  0  0  0
   -0.8924    0.3300   -0.6698 C   0  0  0  0  0  0  0  0  0  0  0  0
   -0.3369    0.2986   -1.9612 C   0  0  0  0  0  0  0  0  0  0  0  0
   -0.2773    1.4606   -2.7339 C   0  0  0  0  0  0  0  0  0  0  0  0
   -0.7749    2.6651   -2.2262 C   0  0  0  0  0  0  0  0  0  0  0  0
   -0.7703    4.1386   -3.2481 S   0  0  0  0  0  0  0  0  0  0  0  0
   -2.4513    3.8444   -3.8865 C   0  0  0  0  0  0  0  0  0  0  0  0
   -1.2910    2.7131   -0.9257 C   0  0  0  0  0  0  0  0  0  0  0  0
   -1.3486    1.5526   -0.1494 C   0  0  0  0  0  0  0  0  0  0  0  0
    0.9320   -1.1657    1.5743 C   0  0  0  0  0  0  0  0  0  0  0  0
    2.1624   -1.5259    0.5217 S   0  0  0  0  0  0  0  0  0  0  0  0
    3.3278   -1.7053    1.7489 C   0  0  0  0  0  0  0  0  0  0  0  0
    2.7379   -1.4700    3.0187 C   0  0  0  0  0  0  0  0  0  0  0  0
    3.4185   -1.5197    4.2940 N   0  0  0  0  0  0  0  0  0  0  0  0
    2.9149   -0.7978    5.4234 C   0  0  0  0  0  0  0  0  0  0  0  0
    2.3097   -1.4837    6.4847 C   0  0  0  0  0  0  0  0  0  0  0  0
    1.8733   -0.7851    7.6154 C   0  0  0  0  0  0  0  0  0  0  0  0
    2.0653    0.6013    7.7004 C   0  0  0  0  0  0  0  0  0  0  0  0
    1.5932    1.4865    9.1914 S   0  0  0  0  0  0  0  0  0  0  0  0
   -0.0454    1.9602    8.5513 C   0  0  0  0  0  0  0  0  0  0  0  0
    2.6721    1.2863    6.6430 C   0  0  0  0  0  0  0  0  0  0  0  0
    3.0872    0.5925    5.5017 C   0  0  0  0  0  0  0  0  0  0  0  0
    4.7095   -2.1227    4.4351 C   0  0  0  0  0  0  0  0  0  0  0  0
    4.8160   -3.4565    4.8501 C   0  0  0  0  0  0  0  0  0  0  0  0
    6.0762   -4.0396    5.0177 C   0  0  0  0  0  0  0  0  0  0  0  0
    7.2351   -3.2844    4.7912 C   0  0  0  0  0  0  0  0  0  0  0  0
    8.8476   -4.0352    4.9994 S   0  0  0  0  0  0  0  0  0  0  0  0
    8.9968   -4.4469    3.2373 C   0  0  0  0  0  0  0  0  0  0  0  0
    7.1299   -1.9426    4.3995 C   0  0  0  0  0  0  0  0  0  0  0  0
    5.8700   -1.3642    4.2197 C   0  0  0  0  0  0  0  0  0  0  0  0
    1.3747   -1.1648    2.8585 C   0  0  0  0  0  0  0  0  0  0  0  0
    0.0656   -0.8477    3.8782 S   0  0  0  0  0  0  0  0  0  0  0  0
    4.6304   -2.2871    1.4143 C   0  0  0  0  0  0  0  0  0  0  0  0
    5.4797   -1.7176    0.0715 S   0  0  0  0  0  0  0  0  0  0  0  0
    6.1206   -3.1935   -0.3836 C   0  0  0  0  0  0  0  0  0  0  0  0
    6.1964   -3.7392   -1.7171 C   0  0  0  0  0  0  0  0  0  0  0  0
    5.7661   -5.0452   -1.6897 C   0  0  0  0  0  0  0  0  0  0  0  0
    5.5480   -5.5252   -0.2579 C   0  0  0  0  0  0  0  0  0  0  0  0
    4.1403   -6.1801   -0.0568 C   0  0  0  0  0  0  0  0  0  0  0  0
    4.0334   -7.6544   -0.4753 C   0  0  0  0  0  0  0  0  0  0  0  0
    6.7002   -6.4594    0.2202 C   0  0  0  0  0  0  0  0  0  0  0  0
    8.1120   -5.8875    0.0285 C   0  0  0  0  0  0  0  0  0  0  0  0
    5.6367   -4.1728    0.4555 C   0  0  0  0  0  0  0  0  0  0  0  0
    4.8289   -3.6697    1.4923 C   0  0  0  0  0  0  0  0  0  0  0  0
    5.1374   -5.4471   -2.8800 C   0  0  0  0  0  0  0  0  0  0  0  0
    5.1039   -4.4371   -3.8469 C   0  0  0  0  0  0  0  0  0  0  0  0
    5.7455   -3.0286   -3.1669 S   0  0  0  0  0  0  0  0  0  0  0  0
    4.2068   -4.4093   -5.0151 C   0  0  0  0  0  0  0  0  0  0  0  0
    3.9146   -5.4664   -5.7950 C   0  0  0  0  0  0  0  0  0  0  0  0
    4.4923   -6.8106   -5.6956 C   0  0  0  0  0  0  0  0  0  0  0  0
    5.6168   -7.1081   -5.2116 O   0  0  0  0  0  0  0  0  0  0  0  0
    3.5806   -7.7444   -6.3193 C   0  0  0  0  0  0  0  0  0  0  0  0
    3.6346   -9.1375   -6.3176 C   0  0  0  0  0  0  0  0  0  0  0  0
    2.5528   -9.8523   -6.8643 C   0  0  0  0  0  0  0  0  0  0  0  0
    2.5609  -11.2561   -6.8752 C   0  0  0  0  0  0  0  0  0  0  0  0
    1.4663  -11.9593   -7.3863 C   0  0  0  0  0  0  0  0  0  0  0  0
    1.4752  -13.3164   -7.3768 F   0  0  0  0  0  0  0  0  0  0  0  0
    0.3625  -11.2712   -7.8988 C   0  0  0  0  0  0  0  0  0  0  0  0
   -0.7017  -11.9617   -8.3838 F   0  0  0  0  0  0  0  0  0  0  0  0
    0.3420   -9.8737   -7.9013 C   0  0  0  0  0  0  0  0  0  0  0  0
    1.4325   -9.1496   -7.3924 C   0  0  0  0  0  0  0  0  0  0  0  0
    1.4162   -7.7404   -7.3882 C   0  0  0  0  0  0  0  0  0  0  0  0
    2.5243   -7.0471   -6.8784 C   0  0  0  0  0  0  0  0  0  0  0  0
    2.7515   -5.5862   -6.7255 C   0  0  0  0  0  0  0  0  0  0  0  0
    2.1867   -4.6044   -7.4720 C   0  0  0  0  0  0  0  0  0  0  0  0
    2.6497   -3.2446   -7.4263 C   0  0  0  0  0  0  0  0  0  0  0  0
    3.0289   -2.1511   -7.4171 N   0  0  0  0  0  0  0  0  0  0  0  0
    1.2367   -4.8854   -8.5177 C   0  0  0  0  0  0  0  0  0  0  0  0
    0.4808   -5.1015   -9.3663 N   0  0  0  0  0  0  0  0  0  0  0  0
   -8.2776    5.9929    0.5819 H   0  0  0  0  0  0  0  0  0  0  0  0
   -3.0877    8.5045    2.9737 H   0  0  0  0  0  0  0  0  0  0  0  0
   -7.2686   11.2321    1.8985 H   0  0  0  0  0  0  0  0  0  0  0  0
   -5.5325   12.4645    4.6101 H   0  0  0  0  0  0  0  0  0  0  0  0
   -4.9491   14.3951    2.9908 H   0  0  0  0  0  0  0  0  0  0  0  0
   -3.8691   13.4539    0.7545 H   0  0  0  0  0  0  0  0  0  0  0  0
   -1.7628   12.0503    1.3948 H   0  0  0  0  0  0  0  0  0  0  0  0
   -1.5080   12.0938    4.0375 H   0  0  0  0  0  0  0  0  0  0  0  0
   -2.3750   14.5493    3.5647 H   0  0  0  0  0  0  0  0  0  0  0  0
   -3.2683   13.8653    4.9994 H   0  0  0  0  0  0  0  0  0  0  0  0
   -3.6396   11.1765    5.1614 H   0  0  0  0  0  0  0  0  0  0  0  0
   -5.5901    5.3028    3.0055 H   0  0  0  0  0  0  0  0  0  0  0  0
   -2.2976    3.5875    4.1216 H   0  0  0  0  0  0  0  0  0  0  0  0
   -3.3723    4.8945    3.5844 H   0  0  0  0  0  0  0  0  0  0  0  0
   -3.2726    4.7939    6.0551 H   0  0  0  0  0  0  0  0  0  0  0  0
   -4.9429    4.4008    5.4909 H   0  0  0  0  0  0  0  0  0  0  0  0
   -3.8313    3.0747    6.0381 H   0  0  0  0  0  0  0  0  0  0  0  0
   -6.8734    1.3614    0.2213 H   0  0  0  0  0  0  0  0  0  0  0  0
   -7.8229    3.5974   -0.2913 H   0  0  0  0  0  0  0  0  0  0  0  0
   -5.3686   -0.5645    0.9252 H   0  0  0  0  0  0  0  0  0  0  0  0
   -3.3199   -1.8358    1.4743 H   0  0  0  0  0  0  0  0  0  0  0  0
   -1.9328    1.4055    3.9738 H   0  0  0  0  0  0  0  0  0  0  0  0
   -0.3507   -3.4863    0.5948 H   0  0  0  0  0  0  0  0  0  0  0  0
   -1.2889   -5.4805   -0.4753 H   0  0  0  0  0  0  0  0  0  0  0  0
   -4.1599   -6.2315   -0.2422 H   0  0  0  0  0  0  0  0  0  0  0  0
   -5.2806   -5.1826   -1.2124 H   0  0  0  0  0  0  0  0  0  0  0  0
   -5.2304   -6.9661   -1.4990 H   0  0  0  0  0  0  0  0  0  0  0  0
   -3.9075   -3.0187   -2.8368 H   0  0  0  0  0  0  0  0  0  0  0  0
   -2.9776   -1.0036   -1.7835 H   0  0  0  0  0  0  0  0  0  0  0  0
    0.0461   -0.6296   -2.3661 H   0  0  0  0  0  0  0  0  0  0  0  0
    0.1378    1.4202   -3.7349 H   0  0  0  0  0  0  0  0  0  0  0  0
   -2.7119    4.6461   -4.6085 H   0  0  0  0  0  0  0  0  0  0  0  0
   -3.1834    3.8612   -3.0513 H   0  0  0  0  0  0  0  0  0  0  0  0
   -2.5023    2.8661   -4.4062 H   0  0  0  0  0  0  0  0  0  0  0  0
   -1.6737    3.6449   -0.5237 H   0  0  0  0  0  0  0  0  0  0  0  0
   -1.7690    1.6054    0.8420 H   0  0  0  0  0  0  0  0  0  0  0  0
    2.1685   -2.5558    6.4288 H   0  0  0  0  0  0  0  0  0  0  0  0
    1.4102   -1.3273    8.4298 H   0  0  0  0  0  0  0  0  0  0  0  0
   -0.6286    1.0572    8.2746 H   0  0  0  0  0  0  0  0  0  0  0  0
    0.0665    2.6228    7.6649 H   0  0  0  0  0  0  0  0  0  0  0  0
   -0.5929    2.5148    9.3436 H   0  0  0  0  0  0  0  0  0  0  0  0
    2.8359    2.3546    6.7079 H   0  0  0  0  0  0  0  0  0  0  0  0
    3.5650    1.1257    4.6920 H   0  0  0  0  0  0  0  0  0  0  0  0
    3.9248   -4.0435    5.0212 H   0  0  0  0  0  0  0  0  0  0  0  0
    6.1501   -5.0768    5.3200 H   0  0  0  0  0  0  0  0  0  0  0  0
    9.0661   -3.5150    2.6406 H   0  0  0  0  0  0  0  0  0  0  0  0
    9.9124   -5.0474    3.0737 H   0  0  0  0  0  0  0  0  0  0  0  0
    8.1195   -5.0369    2.9112 H   0  0  0  0  0  0  0  0  0  0  0  0
    8.0201   -1.3496    4.2360 H   0  0  0  0  0  0  0  0  0  0  0  0
    5.7928   -0.3261    3.9214 H   0  0  0  0  0  0  0  0  0  0  0  0
    3.3735   -5.5895   -0.6041 H   0  0  0  0  0  0  0  0  0  0  0  0
    3.8610   -6.1626    1.0161 H   0  0  0  0  0  0  0  0  0  0  0  0
    4.4697   -8.3053    0.3103 H   0  0  0  0  0  0  0  0  0  0  0  0
    2.9654   -7.9277   -0.5896 H   0  0  0  0  0  0  0  0  0  0  0  0
    4.5564   -7.8683   -1.4240 H   0  0  0  0  0  0  0  0  0  0  0  0
    6.5550   -6.6978    1.2985 H   0  0  0  0  0  0  0  0  0  0  0  0
    6.6705   -7.4183   -0.3429 H   0  0  0  0  0  0  0  0  0  0  0  0
    8.3438   -5.7714   -1.0501 H   0  0  0  0  0  0  0  0  0  0  0  0
    8.8542   -6.5805    0.4760 H   0  0  0  0  0  0  0  0  0  0  0  0
    8.2163   -4.9020    0.5273 H   0  0  0  0  0  0  0  0  0  0  0  0
    4.2129   -4.2948    2.1210 H   0  0  0  0  0  0  0  0  0  0  0  0
    4.5562   -6.3470   -2.9716 H   0  0  0  0  0  0  0  0  0  0  0  0
    3.6662   -3.4860   -5.1460 H   0  0  0  0  0  0  0  0  0  0  0  0
    4.4797   -9.6454   -5.8717 H   0  0  0  0  0  0  0  0  0  0  0  0
    3.4074  -11.8044   -6.4779 H   0  0  0  0  0  0  0  0  0  0  0  0
   -0.5261   -9.3575   -8.2963 H   0  0  0  0  0  0  0  0  0  0  0  0
    0.5348   -7.2189   -7.7261 H   0  0  0  0  0  0  0  0  0  0  0  0
  1  2  2  3
  2  3  1  0
  3  4  2  0
  3  5  1  0
  5  6  2  0
  6  7  1  0
  7  8  2  0
  8  9  1  0
  9 10  2  0
 10 11  1  0
 11 12  2  3
 12 13  1  0
 13 14  3  0
 12 15  1  0
 15 16  3  0
  8 17  1  0
 17 18  1  0
 18 19  1  0
 19 20  2  0
 20 21  1  0
 21 22  1  0
 21 23  1  0
  1 24  1  0
 24 25  2  0
 25 26  1  0
 26 27  1  0
 27 28  1  0
 28 29  1  0
 27 30  1  0
 30 31  2  0
 31 32  1  0
 32 33  1  0
 33 34  2  0
 31 35  1  0
 35 36  2  0
 36 37  1  0
 37 38  2  0
 37 39  1  0
 39 40  2  0
 40 41  1  0
 41 42  1  0
 42 43  2  0
 43 44  1  0
 44 45  2  0
 45 46  1  0
 46 47  1  0
 45 48  1  0
 48 49  2  0
 41 50  1  0
 50 51  2  0
 51 52  1  0
 52 53  2  0
 53 54  1  0
 54 55  1  0
 53 56  1  0
 56 57  2  0
 40 58  1  0
 58 59  1  0
 59 60  1  0
 60 61  2  0
 61 62  1  0
 62 63  1  0
 63 64  2  0
 64 65  1  0
 65 66  2  0
 66 67  1  0
 67 68  1  0
 66 69  1  0
 69 70  2  0
 62 71  1  0
 71 72  2  0
 72 73  1  0
 73 74  2  0
 74 75  1  0
 75 76  1  0
 74 77  1  0
 77 78  2  0
 61 79  1  0
 79 80  1  0
 60 81  1  0
 81 82  1  0
 82 83  1  0
 83 84  1  0
 84 85  2  0
 85 86  1  0
 86 87  1  0
 87 88  1  0
 86 89  1  0
 89 90  1  0
 86 91  1  0
 91 92  1  0
 85 93  1  0
 93 94  2  0
 94 95  1  0
 94 96  1  0
 96 97  2  3
 97 98  1  0
 98 99  2  0
 98100  1  0
100101  2  0
101102  1  0
102103  2  0
103104  1  0
104105  1  0
104106  2  0
106107  1  0
106108  1  0
108109  2  0
109110  1  0
110111  2  0
111112  1  0
112113  2  3
113114  1  0
114115  3  0
113116  1  0
116117  3  0
 11  2  1  0
 23 17  1  0
 34 24  1  0
 80 39  1  0
 92 81  2  0
112 97  1  0
 10  5  1  0
 22 18  1  0
 32 26  2  0
 49 42  1  0
 57 50  1  0
 79 58  2  0
 91 83  2  0
111100  1  0
 23  7  1  0
 38 30  1  0
 70 63  1  0
 78 71  1  0
 95 84  1  0
109102  1  0
  1118  1  0
  6119  1  0
  9120  1  0
 17121  1  0
 18122  1  0
 19123  1  0
 20124  1  0
 21125  1  0
 22126  1  0
 22127  1  0
 23128  1  0
 25129  1  0
 28130  1  0
 28131  1  0
 29132  1  0
 29133  1  0
 29134  1  0
 33135  1  0
 34136  1  0
 35137  1  0
 36138  1  0
 38139  1  0
 43140  1  0
 44141  1  0
 47142  1  0
 47143  1  0
 47144  1  0
 48145  1  0
 49146  1  0
 51147  1  0
 52148  1  0
 55149  1  0
 55150  1  0
 55151  1  0
 56152  1  0
 57153  1  0
 64154  1  0
 65155  1  0
 68156  1  0
 68157  1  0
 68158  1  0
 69159  1  0
 70160  1  0
 72161  1  0
 73162  1  0
 76163  1  0
 76164  1  0
 76165  1  0
 77166  1  0
 78167  1  0
 87168  1  0
 87169  1  0
 88170  1  0
 88171  1  0
 88172  1  0
 89173  1  0
 89174  1  0
 90175  1  0
 90176  1  0
 90177  1  0
 92178  1  0
 93179  1  0
 96180  1  0
101181  1  0
103182  1  0
108183  1  0
110184  1  0
M  END

