
     RDKit          3D

183201  0  0  0  0  0  0  0  0999 V2000
   -5.7737   -2.9137    4.6188 C   0  0  0  0  0  0  0  0  0  0  0  0
   -6.0291   -2.7077    3.3114 C   0  0  0  0  0  0  0  0  0  0  0  0
   -5.0560   -2.3118    2.2810 C   0  0  0  0  0  0  0  0  0  0  0  0
   -3.8714   -1.9307    2.4799 O   0  0  0  0  0  0  0  0  0  0  0  0
   -5.6908   -2.4125    0.9807 C   0  0  0  0  0  0  0  0  0  0  0  0
   -5.1659   -1.9597   -0.2553 C   0  0  0  0  0  0  0  0  0  0  0  0
   -6.0877   -1.9398   -1.2828 C   0  0  0  0  0  0  0  0  0  0  0  0
   -7.4469   -2.3624   -1.1216 C   0  0  0  0  0  0  0  0  0  0  0  0
   -7.9608   -2.8379    0.0720 C   0  0  0  0  0  0  0  0  0  0  0  0
   -7.0310   -2.8616    1.1513 C   0  0  0  0  0  0  0  0  0  0  0  0
   -7.2919   -3.0470    2.6060 C   0  0  0  0  0  0  0  0  0  0  0  0
   -8.4999   -3.2438    3.1790 C   0  0  0  0  0  0  0  0  0  0  0  0
   -8.8740   -2.4716    4.3433 C   0  0  0  0  0  0  0  0  0  0  0  0
   -9.2058   -1.7803    5.2212 N   0  0  0  0  0  0  0  0  0  0  0  0
   -9.5679   -3.9099    2.4968 C   0  0  0  0  0  0  0  0  0  0  0  0
  -10.4189   -4.4740    1.9429 N   0  0  0  0  0  0  0  0  0  0  0  0
   -7.7656   -1.9405   -2.5269 C   0  0  0  0  0  0  0  0  0  0  0  0
   -8.5561   -0.6057   -2.6831 C   0  0  0  0  0  0  0  0  0  0  0  0
   -8.4224   -0.2117   -4.1304 C   0  0  0  0  0  0  0  0  0  0  0  0
   -7.1437    0.1516   -4.3057 C   0  0  0  0  0  0  0  0  0  0  0  0
   -6.4674   -0.0006   -2.9650 C   0  0  0  0  0  0  0  0  0  0  0  0
   -7.6205    0.4241   -2.0763 C   0  0  0  0  0  0  0  0  0  0  0  0
   -6.3682   -1.5346   -2.7002 C   0  0  0  0  0  0  0  0  0  0  0  0
   -4.4704   -2.5924    5.2166 C   0  0  0  0  0  0  0  0  0  0  0  0
   -4.2273   -1.2856    5.6809 C   0  0  0  0  0  0  0  0  0  0  0  0
   -2.9116   -0.9316    6.0120 C   0  0  0  0  0  0  0  0  0  0  0  0
   -2.4237    0.3216    6.2052 N   0  0  0  0  0  0  0  0  0  0  0  0
   -3.1990    1.5607    6.3382 C   0  0  0  0  0  0  0  0  0  0  0  0
   -3.4442    1.8611    7.8103 C   0  0  0  0  0  0  0  0  0  0  0  0
   -1.0739    0.1884    6.1852 C   0  0  0  0  0  0  0  0  0  0  0  0
   -0.7135   -1.1379    6.0341 C   0  0  0  0  0  0  0  0  0  0  0  0
   -1.8853   -1.8549    5.9174 C   0  0  0  0  0  0  0  0  0  0  0  0
   -2.1079   -3.1707    5.5136 C   0  0  0  0  0  0  0  0  0  0  0  0
   -3.4213   -3.5420    5.1696 C   0  0  0  0  0  0  0  0  0  0  0  0
    0.5940   -1.5173    5.7484 C   0  0  0  0  0  0  0  0  0  0  0  0
    1.5314   -0.5042    5.4820 C   0  0  0  0  0  0  0  0  0  0  0  0
    1.1504    0.8615    5.5010 C   0  0  0  0  0  0  0  0  0  0  0  0
   -0.1339    1.2066    5.9810 C   0  0  0  0  0  0  0  0  0  0  0  0
    1.7989    1.8003    4.5522 C   0  0  0  0  0  0  0  0  0  0  0  0
    3.1362    1.7599    4.0885 C   0  0  0  0  0  0  0  0  0  0  0  0
    4.2865    1.5668    4.9331 N   0  0  0  0  0  0  0  0  0  0  0  0
    4.8714    0.2618    5.1096 C   0  0  0  0  0  0  0  0  0  0  0  0
    4.9319   -0.6562    4.0423 C   0  0  0  0  0  0  0  0  0  0  0  0
    5.4577   -1.9348    4.2378 C   0  0  0  0  0  0  0  0  0  0  0  0
    5.9146   -2.3168    5.5034 C   0  0  0  0  0  0  0  0  0  0  0  0
    6.5257   -3.9789    5.7702 S   0  0  0  0  0  0  0  0  0  0  0  0
    4.8814   -4.6465    6.1760 C   0  0  0  0  0  0  0  0  0  0  0  0
    5.8731   -1.4080    6.5644 C   0  0  0  0  0  0  0  0  0  0  0  0
    5.3537   -0.1233    6.3682 C   0  0  0  0  0  0  0  0  0  0  0  0
    4.9986    2.7551    5.3507 C   0  0  0  0  0  0  0  0  0  0  0  0
    4.2931    3.8888    5.8047 C   0  0  0  0  0  0  0  0  0  0  0  0
    4.9667    5.0712    6.1131 C   0  0  0  0  0  0  0  0  0  0  0  0
    6.3502    5.1573    5.9521 C   0  0  0  0  0  0  0  0  0  0  0  0
    7.2002    6.6936    6.3304 S   0  0  0  0  0  0  0  0  0  0  0  0
    7.0235    7.3790    4.6538 C   0  0  0  0  0  0  0  0  0  0  0  0
    7.0678    4.0333    5.5046 C   0  0  0  0  0  0  0  0  0  0  0  0
    6.3970    2.8428    5.2056 C   0  0  0  0  0  0  0  0  0  0  0  0
    3.2445    2.3035    2.8084 C   0  0  0  0  0  0  0  0  0  0  0  0
    4.3804    2.1281    1.5929 S   0  0  0  0  0  0  0  0  0  0  0  0
    3.3416    2.6768    0.3480 C   0  0  0  0  0  0  0  0  0  0  0  0
    2.0924    3.0051    0.9054 C   0  0  0  0  0  0  0  0  0  0  0  0
    0.8972    3.2933    0.1618 N   0  0  0  0  0  0  0  0  0  0  0  0
    0.2759    2.2305   -0.5778 C   0  0  0  0  0  0  0  0  0  0  0  0
    0.1210    2.3349   -1.9708 C   0  0  0  0  0  0  0  0  0  0  0  0
   -0.6082    1.3642   -2.6670 C   0  0  0  0  0  0  0  0  0  0  0  0
   -1.2069    0.3024   -1.9730 C   0  0  0  0  0  0  0  0  0  0  0  0
   -2.1879   -0.9244   -2.8380 S   0  0  0  0  0  0  0  0  0  0  0  0
   -0.7744   -2.0524   -3.0125 C   0  0  0  0  0  0  0  0  0  0  0  0
   -1.0524    0.2013   -0.5921 C   0  0  0  0  0  0  0  0  0  0  0  0
   -0.2877    1.1411    0.1018 C   0  0  0  0  0  0  0  0  0  0  0  0
    0.1439    4.4765    0.4965 C   0  0  0  0  0  0  0  0  0  0  0  0
   -1.2683    4.4552    0.5445 C   0  0  0  0  0  0  0  0  0  0  0  0
   -1.9805    5.5856    0.9588 C   0  0  0  0  0  0  0  0  0  0  0  0
   -1.3023    6.7546    1.3125 C   0  0  0  0  0  0  0  0  0  0  0  0
   -2.2163    8.2089    1.8389 S   0  0  0  0  0  0  0  0  0  0  0  0
   -2.1775    7.7469    3.6007 C   0  0  0  0  0  0  0  0  0  0  0  0
    0.0943    6.7898    1.2543 C   0  0  0  0  0  0  0  0  0  0  0  0
    0.8119    5.6618    0.8475 C   0  0  0  0  0  0  0  0  0  0  0  0
    2.0855    2.7804    2.2794 C   0  0  0  0  0  0  0  0  0  0  0  0
    0.8398    2.5494    3.3652 S   0  0  0  0  0  0  0  0  0  0  0  0
    3.5693    2.4286   -1.0829 C   0  0  0  0  0  0  0  0  0  0  0  0
    3.8513    1.1126   -1.5025 C   0  0  0  0  0  0  0  0  0  0  0  0
    3.9050    0.8543   -2.8749 C   0  0  0  0  0  0  0  0  0  0  0  0
    4.0566   -0.3424   -3.4887 N   0  0  0  0  0  0  0  0  0  0  0  0
    4.1819   -1.6699   -2.8716 C   0  0  0  0  0  0  0  0  0  0  0  0
    2.8306   -2.3659   -2.8330 C   0  0  0  0  0  0  0  0  0  0  0  0
    3.9337   -0.0710   -4.8116 C   0  0  0  0  0  0  0  0  0  0  0  0
    3.7410    1.2745   -5.0367 C   0  0  0  0  0  0  0  0  0  0  0  0
    3.7229    1.8700   -3.7959 C   0  0  0  0  0  0  0  0  0  0  0  0
    3.4699    3.1827   -3.4113 C   0  0  0  0  0  0  0  0  0  0  0  0
    3.3859    3.4603   -2.0359 C   0  0  0  0  0  0  0  0  0  0  0  0
    3.5141    1.7806   -6.3194 C   0  0  0  0  0  0  0  0  0  0  0  0
    3.4616    0.8622   -7.3907 C   0  0  0  0  0  0  0  0  0  0  0  0
    3.6317   -0.5213   -7.1542 C   0  0  0  0  0  0  0  0  0  0  0  0
    3.8963   -0.9882   -5.8555 C   0  0  0  0  0  0  0  0  0  0  0  0
    3.4585   -1.5205   -8.2144 C   0  0  0  0  0  0  0  0  0  0  0  0
    2.4760   -2.4316   -8.1140 C   0  0  0  0  0  0  0  0  0  0  0  0
    1.0669   -2.2486   -7.2227 S   0  0  0  0  0  0  0  0  0  0  0  0
    0.5786   -3.8587   -7.3985 C   0  0  0  0  0  0  0  0  0  0  0  0
   -0.6380   -4.3025   -6.9935 C   0  0  0  0  0  0  0  0  0  0  0  0
   -1.1755   -5.5883   -7.3337 C   0  0  0  0  0  0  0  0  0  0  0  0
   -1.6348   -6.6161   -7.6132 N   0  0  0  0  0  0  0  0  0  0  0  0
   -1.5263   -3.4354   -6.2691 C   0  0  0  0  0  0  0  0  0  0  0  0
   -2.2285   -2.7388   -5.6768 N   0  0  0  0  0  0  0  0  0  0  0  0
    1.5380   -4.5750   -8.0686 N   0  0  0  0  0  0  0  0  0  0  0  0
    1.7955   -6.0198   -7.8664 C   0  0  0  0  0  0  0  0  0  0  0  0
    2.2483   -6.2617   -6.4487 C   0  0  0  0  0  0  0  0  0  0  0  0
    3.4754   -5.7336   -6.0033 C   0  0  0  0  0  0  0  0  0  0  0  0
    3.8579   -5.8633   -4.6667 C   0  0  0  0  0  0  0  0  0  0  0  0
    3.0348   -6.5459   -3.7633 C   0  0  0  0  0  0  0  0  0  0  0  0
    1.8310   -7.1018   -4.2025 C   0  0  0  0  0  0  0  0  0  0  0  0
    1.4457   -6.9788   -5.5451 C   0  0  0  0  0  0  0  0  0  0  0  0
    2.5567   -3.7639   -8.5134 C   0  0  0  0  0  0  0  0  0  0  0  0
    3.5466   -4.2236   -9.1490 O   0  0  0  0  0  0  0  0  0  0  0  0
   -6.5403   -3.3116    5.2667 H   0  0  0  0  0  0  0  0  0  0  0  0
   -4.1628   -1.5703   -0.3695 H   0  0  0  0  0  0  0  0  0  0  0  0
   -9.0078   -3.0830    0.1530 H   0  0  0  0  0  0  0  0  0  0  0  0
   -8.1001   -2.7784   -3.1762 H   0  0  0  0  0  0  0  0  0  0  0  0
   -9.5896   -0.6037   -2.2861 H   0  0  0  0  0  0  0  0  0  0  0  0
   -9.2125   -0.1345   -4.8633 H   0  0  0  0  0  0  0  0  0  0  0  0
   -6.7196    0.5784   -5.2123 H   0  0  0  0  0  0  0  0  0  0  0  0
   -5.5244    0.5736   -2.8415 H   0  0  0  0  0  0  0  0  0  0  0  0
   -7.9390    1.4750   -2.2437 H   0  0  0  0  0  0  0  0  0  0  0  0
   -7.4314    0.2878   -0.9824 H   0  0  0  0  0  0  0  0  0  0  0  0
   -5.8071   -2.1203   -3.4595 H   0  0  0  0  0  0  0  0  0  0  0  0
   -5.0268   -0.5605    5.6749 H   0  0  0  0  0  0  0  0  0  0  0  0
   -2.6729    2.4155    5.8612 H   0  0  0  0  0  0  0  0  0  0  0  0
   -4.1718    1.4780    5.8111 H   0  0  0  0  0  0  0  0  0  0  0  0
   -4.0937    2.7608    7.9047 H   0  0  0  0  0  0  0  0  0  0  0  0
   -2.4909    2.0534    8.3287 H   0  0  0  0  0  0  0  0  0  0  0  0
   -3.9588    1.0074    8.2880 H   0  0  0  0  0  0  0  0  0  0  0  0
   -1.2926   -3.8650    5.3906 H   0  0  0  0  0  0  0  0  0  0  0  0
   -3.6023   -4.5432    4.7966 H   0  0  0  0  0  0  0  0  0  0  0  0
    0.8522   -2.5575    5.5941 H   0  0  0  0  0  0  0  0  0  0  0  0
    2.4834   -0.8123    5.0918 H   0  0  0  0  0  0  0  0  0  0  0  0
   -0.4435    2.2407    5.9752 H   0  0  0  0  0  0  0  0  0  0  0  0
    4.5540   -0.3877    3.0645 H   0  0  0  0  0  0  0  0  0  0  0  0
    5.4824   -2.6323    3.4142 H   0  0  0  0  0  0  0  0  0  0  0  0
    4.4237   -4.0696    7.0041 H   0  0  0  0  0  0  0  0  0  0  0  0
    4.2234   -4.6035    5.2850 H   0  0  0  0  0  0  0  0  0  0  0  0
    4.9827   -5.7011    6.4933 H   0  0  0  0  0  0  0  0  0  0  0  0
    6.2270   -1.6964    7.5448 H   0  0  0  0  0  0  0  0  0  0  0  0
    5.3015    0.5592    7.2018 H   0  0  0  0  0  0  0  0  0  0  0  0
    3.2164    3.8582    5.9187 H   0  0  0  0  0  0  0  0  0  0  0  0
    4.4037    5.9341    6.4605 H   0  0  0  0  0  0  0  0  0  0  0  0
    7.7790    6.9212    3.9847 H   0  0  0  0  0  0  0  0  0  0  0  0
    6.0092    7.1891    4.2532 H   0  0  0  0  0  0  0  0  0  0  0  0
    7.1912    8.4752    4.6916 H   0  0  0  0  0  0  0  0  0  0  0  0
    8.1398    4.0863    5.3730 H   0  0  0  0  0  0  0  0  0  0  0  0
    6.9625    2.0047    4.8377 H   0  0  0  0  0  0  0  0  0  0  0  0
    0.5503    3.1729   -2.5063 H   0  0  0  0  0  0  0  0  0  0  0  0
   -0.7117    1.4405   -3.7434 H   0  0  0  0  0  0  0  0  0  0  0  0
   -0.0677   -1.6474   -3.7604 H   0  0  0  0  0  0  0  0  0  0  0  0
   -1.1327   -3.0428   -3.3450 H   0  0  0  0  0  0  0  0  0  0  0  0
   -0.2633   -2.1935   -2.0418 H   0  0  0  0  0  0  0  0  0  0  0  0
   -1.5312   -0.6035   -0.0436 H   0  0  0  0  0  0  0  0  0  0  0  0
   -0.1920    1.0487    1.1736 H   0  0  0  0  0  0  0  0  0  0  0  0
   -1.8210    3.5603    0.2911 H   0  0  0  0  0  0  0  0  0  0  0  0
   -3.0616    5.5472    1.0000 H   0  0  0  0  0  0  0  0  0  0  0  0
   -1.1358    7.5565    3.9295 H   0  0  0  0  0  0  0  0  0  0  0  0
   -2.7994    6.8451    3.7713 H   0  0  0  0  0  0  0  0  0  0  0  0
   -2.5910    8.5851    4.2014 H   0  0  0  0  0  0  0  0  0  0  0  0
    0.6289    7.6905    1.5295 H   0  0  0  0  0  0  0  0  0  0  0  0
    1.8906    5.7075    0.8091 H   0  0  0  0  0  0  0  0  0  0  0  0
    3.9524    0.3136   -0.7800 H   0  0  0  0  0  0  0  0  0  0  0  0
    4.5927   -1.5964   -1.8444 H   0  0  0  0  0  0  0  0  0  0  0  0
    4.8923   -2.2811   -3.4641 H   0  0  0  0  0  0  0  0  0  0  0  0
    2.9440   -3.3740   -2.3821 H   0  0  0  0  0  0  0  0  0  0  0  0
    2.4246   -2.4871   -3.8627 H   0  0  0  0  0  0  0  0  0  0  0  0
    2.1171   -1.7865   -2.2230 H   0  0  0  0  0  0  0  0  0  0  0  0
    3.3117    3.9557   -4.1459 H   0  0  0  0  0  0  0  0  0  0  0  0
    3.1581    4.4673   -1.7081 H   0  0  0  0  0  0  0  0  0  0  0  0
    3.3503    2.8342   -6.4782 H   0  0  0  0  0  0  0  0  0  0  0  0
    3.2445    1.2274   -8.3885 H   0  0  0  0  0  0  0  0  0  0  0  0
    4.0131   -2.0498   -5.6587 H   0  0  0  0  0  0  0  0  0  0  0  0
    4.3245   -1.7273   -8.8355 H   0  0  0  0  0  0  0  0  0  0  0  0
    2.5858   -6.3828   -8.5656 H   0  0  0  0  0  0  0  0  0  0  0  0
    0.9129   -6.6323   -8.1338 H   0  0  0  0  0  0  0  0  0  0  0  0
    4.1224   -5.1924   -6.6802 H   0  0  0  0  0  0  0  0  0  0  0  0
    4.7900   -5.4310   -4.3342 H   0  0  0  0  0  0  0  0  0  0  0  0
    3.3295   -6.6428   -2.7277 H   0  0  0  0  0  0  0  0  0  0  0  0
    1.2030   -7.6381   -3.5009 H   0  0  0  0  0  0  0  0  0  0  0  0
    0.5068   -7.4135   -5.8674 H   0  0  0  0  0  0  0  0  0  0  0  0
  1  2  2  3
  2  3  1  0
  3  4  2  0
  3  5  1  0
  5  6  2  0
  6  7  1  0
  7  8  2  0
  8  9  1  0
  9 10  2  0
 10 11  1  0
 11 12  2  3
 12 13  1  0
 13 14  3  0
 12 15  1  0
 15 16  3  0
  8 17  1  0
 17 18  1  0
 18 19  1  0
 19 20  2  0
 20 21  1  0
 21 22  1  0
 21 23  1  0
  1 24  1  0
 24 25  2  0
 25 26  1  0
 26 27  1  0
 27 28  1  0
 28 29  1  0
 27 30  1  0
 30 31  2  0
 31 32  1  0
 32 33  1  0
 33 34  2  0
 31 35  1  0
 35 36  2  0
 36 37  1  0
 37 38  2  0
 37 39  1  0
 39 40  2  0
 40 41  1  0
 41 42  1  0
 42 43  2  0
 43 44  1  0
 44 45  2  0
 45 46  1  0
 46 47  1  0
 45 48  1  0
 48 49  2  0
 41 50  1  0
 50 51  2  0
 51 52  1  0
 52 53  2  0
 53 54  1  0
 54 55  1  0
 53 56  1  0
 56 57  2  0
 40 58  1  0
 58 59  1  0
 59 60  1  0
 60 61  2  0
 61 62  1  0
 62 63  1  0
 63 64  2  0
 64 65  1  0
 65 66  2  0
 66 67  1  0
 67 68  1  0
 66 69  1  0
 69 70  2  0
 62 71  1  0
 71 72  2  0
 72 73  1  0
 73 74  2  0
 74 75  1  0
 75 76  1  0
 74 77  1  0
 77 78  2  0
 61 79  1  0
 79 80  1  0
 60 81  1  0
 81 82  2  0
 82 83  1  0
 83 84  1  0
 84 85  1  0
 85 86  1  0
 84 87  1  0
 87 88  2  0
 88 89  1  0
 89 90  1  0
 90 91  2  0
 88 92  1  0
 92 93  2  0
 93 94  1  0
 94 95  2  0
 94 96  1  0
 96 97  2  3
 97 98  1  0
 98 99  1  0
 99100  2  3
100101  1  0
101102  3  0
100103  1  0
103104  3  0
 99105  1  0
105106  1  0
106107  1  0
107108  2  0
108109  1  0
109110  2  0
110111  1  0
111112  2  0
105113  1  0
113114  2  0
 11  2  1  0
 23 17  1  0
 34 24  1  0
 80 39  1  0
 91 81  1  0
113 97  1  0
 10  5  1  0
 22 18  1  0
 32 26  2  0
 49 42  1  0
 57 50  1  0
 79 58  2  0
 89 83  2  0
112107  1  0
 23  7  1  0
 38 30  1  0
 70 63  1  0
 78 71  1  0
 95 87  1  0
  1115  1  0
  6116  1  0
  9117  1  0
 17118  1  0
 18119  1  0
 19120  1  0
 20121  1  0
 21122  1  0
 22123  1  0
 22124  1  0
 23125  1  0
 25126  1  0
 28127  1  0
 28128  1  0
 29129  1  0
 29130  1  0
 29131  1  0
 33132  1  0
 34133  1  0
 35134  1  0
 36135  1  0
 38136  1  0
 43137  1  0
 44138  1  0
 47139  1  0
 47140  1  0
 47141  1  0
 48142  1  0
 49143  1  0
 51144  1  0
 52145  1  0
 55146  1  0
 55147  1  0
 55148  1  0
 56149  1  0
 57150  1  0
 64151  1  0
 65152  1  0
 68153  1  0
 68154  1  0
 68155  1  0
 69156  1  0
 70157  1  0
 72158  1  0
 73159  1  0
 76160  1  0
 76161  1  0
 76162  1  0
 77163  1  0
 78164  1  0
 82165  1  0
 85166  1  0
 85167  1  0
 86168  1  0
 86169  1  0
 86170  1  0
 90171  1  0
 91172  1  0
 92173  1  0
 93174  1  0
 95175  1  0
 96176  1  0
106177  1  0
106178  1  0
108179  1  0
109180  1  0
110181  1  0
111182  1  0
112183  1  0
M  END

