
     RDKit          3D

193213  0  0  0  0  0  0  0  0999 V2000
   -6.4977    0.8399    6.3728 C   0  0  0  0  0  0  0  0  0  0  0  0
   -5.7898   -0.2075    5.9029 C   0  0  0  0  0  0  0  0  0  0  0  0
   -6.1393   -1.0633    4.7487 C   0  0  0  0  0  0  0  0  0  0  0  0
   -6.9456   -0.7531    3.8093 O   0  0  0  0  0  0  0  0  0  0  0  0
   -5.7092   -2.4094    4.9500 C   0  0  0  0  0  0  0  0  0  0  0  0
   -5.9900   -3.5331    4.1398 C   0  0  0  0  0  0  0  0  0  0  0  0
   -5.3800   -4.6953    4.5445 C   0  0  0  0  0  0  0  0  0  0  0  0
   -4.5717   -4.7779    5.7263 C   0  0  0  0  0  0  0  0  0  0  0  0
   -4.3408   -3.7027    6.5720 C   0  0  0  0  0  0  0  0  0  0  0  0
   -4.9257   -2.4609    6.1514 C   0  0  0  0  0  0  0  0  0  0  0  0
   -4.9301   -1.0946    6.7794 C   0  0  0  0  0  0  0  0  0  0  0  0
   -4.1122   -0.6977    7.8050 C   0  0  0  0  0  0  0  0  0  0  0  0
   -3.3393   -1.6250    8.6816 C   0  0  0  0  0  0  0  0  0  0  0  0
   -2.7388   -2.3541    9.3965 N   0  0  0  0  0  0  0  0  0  0  0  0
   -3.8765    0.7108    8.1039 C   0  0  0  0  0  0  0  0  0  0  0  0
   -3.5785    1.7663    8.4587 N   0  0  0  0  0  0  0  0  0  0  0  0
   -4.1399   -6.1621    5.3366 C   0  0  0  0  0  0  0  0  0  0  0  0
   -2.7501   -6.2824    4.6200 C   0  0  0  0  0  0  0  0  0  0  0  0
   -2.7306   -7.6793    4.0257 C   0  0  0  0  0  0  0  0  0  0  0  0
   -3.6130   -7.6779    3.0162 C   0  0  0  0  0  0  0  0  0  0  0  0
   -4.1652   -6.2661    2.9314 C   0  0  0  0  0  0  0  0  0  0  0  0
   -2.9040   -5.4889    3.3146 C   0  0  0  0  0  0  0  0  0  0  0  0
   -5.0697   -6.1207    4.1970 C   0  0  0  0  0  0  0  0  0  0  0  0
   -6.7413    2.0470    5.5504 C   0  0  0  0  0  0  0  0  0  0  0  0
   -7.6502    2.0338    4.4982 C   0  0  0  0  0  0  0  0  0  0  0  0
   -7.5558    3.0330    3.5334 C   0  0  0  0  0  0  0  0  0  0  0  0
   -7.6498    2.7747    2.2061 N   0  0  0  0  0  0  0  0  0  0  0  0
   -8.4298    1.6818    1.5839 C   0  0  0  0  0  0  0  0  0  0  0  0
   -9.7438    2.1908    0.9833 C   0  0  0  0  0  0  0  0  0  0  0  0
   -6.7248    3.5594    1.5911 C   0  0  0  0  0  0  0  0  0  0  0  0
   -6.2581    4.5215    2.4869 C   0  0  0  0  0  0  0  0  0  0  0  0
   -6.7532    4.1470    3.7518 C   0  0  0  0  0  0  0  0  0  0  0  0
   -6.0646    4.3069    4.9604 C   0  0  0  0  0  0  0  0  0  0  0  0
   -5.9784    3.2069    5.8062 C   0  0  0  0  0  0  0  0  0  0  0  0
   -5.1016    5.2438    2.2592 C   0  0  0  0  0  0  0  0  0  0  0  0
   -4.3008    4.8725    1.1883 C   0  0  0  0  0  0  0  0  0  0  0  0
   -4.6164    3.7561    0.3705 C   0  0  0  0  0  0  0  0  0  0  0  0
   -5.8821    3.1377    0.5140 C   0  0  0  0  0  0  0  0  0  0  0  0
   -3.4926    3.0281   -0.2825 C   0  0  0  0  0  0  0  0  0  0  0  0
   -3.3865    2.3833   -1.5297 C   0  0  0  0  0  0  0  0  0  0  0  0
   -4.4491    2.3654   -2.5596 N   0  0  0  0  0  0  0  0  0  0  0  0
   -4.4500    1.3863   -3.6078 C   0  0  0  0  0  0  0  0  0  0  0  0
   -3.5162    1.4346   -4.6441 C   0  0  0  0  0  0  0  0  0  0  0  0
   -3.5417    0.5298   -5.6921 C   0  0  0  0  0  0  0  0  0  0  0  0
   -4.5739   -0.4143   -5.7524 C   0  0  0  0  0  0  0  0  0  0  0  0
   -4.7122   -1.4980   -7.1875 S   0  0  0  0  0  0  0  0  0  0  0  0
   -3.2430   -2.5461   -6.8743 C   0  0  0  0  0  0  0  0  0  0  0  0
   -5.5133   -0.4933   -4.7029 C   0  0  0  0  0  0  0  0  0  0  0  0
   -5.4268    0.3894   -3.6388 C   0  0  0  0  0  0  0  0  0  0  0  0
   -5.2049    3.5544   -2.8726 C   0  0  0  0  0  0  0  0  0  0  0  0
   -6.5612    3.6546   -2.5017 C   0  0  0  0  0  0  0  0  0  0  0  0
   -7.3547    4.6900   -2.9826 C   0  0  0  0  0  0  0  0  0  0  0  0
   -6.9001    5.4660   -4.0607 C   0  0  0  0  0  0  0  0  0  0  0  0
   -8.0556    6.5577   -4.9393 S   0  0  0  0  0  0  0  0  0  0  0  0
   -7.8665    7.9768   -3.7992 C   0  0  0  0  0  0  0  0  0  0  0  0
   -5.5971    5.2877   -4.5689 C   0  0  0  0  0  0  0  0  0  0  0  0
   -4.7312    4.4288   -3.8779 C   0  0  0  0  0  0  0  0  0  0  0  0
   -2.1301    1.7098   -1.6532 C   0  0  0  0  0  0  0  0  0  0  0  0
   -1.2399    0.7473   -2.7350 S   0  0  0  0  0  0  0  0  0  0  0  0
    0.2498    0.7165   -1.8845 C   0  0  0  0  0  0  0  0  0  0  0  0
    0.0146    1.4449   -0.7248 C   0  0  0  0  0  0  0  0  0  0  0  0
    1.0506    1.9709    0.1288 N   0  0  0  0  0  0  0  0  0  0  0  0
    1.1397    1.3015    1.4121 C   0  0  0  0  0  0  0  0  0  0  0  0
    1.1738   -0.1042    1.4504 C   0  0  0  0  0  0  0  0  0  0  0  0
    0.9306   -0.8039    2.6289 C   0  0  0  0  0  0  0  0  0  0  0  0
    0.6923   -0.0957    3.8073 C   0  0  0  0  0  0  0  0  0  0  0  0
    0.3253   -1.0067    5.3340 S   0  0  0  0  0  0  0  0  0  0  0  0
   -1.4788   -0.7753    5.2698 C   0  0  0  0  0  0  0  0  0  0  0  0
    0.7130    1.3049    3.8111 C   0  0  0  0  0  0  0  0  0  0  0  0
    0.9042    2.0002    2.6227 C   0  0  0  0  0  0  0  0  0  0  0  0
    1.5697    3.2913   -0.2166 C   0  0  0  0  0  0  0  0  0  0  0  0
    2.4771    3.9955    0.6038 C   0  0  0  0  0  0  0  0  0  0  0  0
    2.9713    5.2636    0.2449 C   0  0  0  0  0  0  0  0  0  0  0  0
    2.6159    5.8484   -0.9806 C   0  0  0  0  0  0  0  0  0  0  0  0
    3.4490    7.3842   -1.4624 S   0  0  0  0  0  0  0  0  0  0  0  0
    2.7761    7.6794   -3.1687 C   0  0  0  0  0  0  0  0  0  0  0  0
    1.6944    5.1696   -1.8267 C   0  0  0  0  0  0  0  0  0  0  0  0
    1.1981    3.9338   -1.4371 C   0  0  0  0  0  0  0  0  0  0  0  0
   -1.2853    1.9110   -0.5927 C   0  0  0  0  0  0  0  0  0  0  0  0
   -2.0084    2.8690    0.5394 S   0  0  0  0  0  0  0  0  0  0  0  0
    1.5235    0.0065   -2.2328 C   0  0  0  0  0  0  0  0  0  0  0  0
    2.8295    0.4857   -2.1054 C   0  0  0  0  0  0  0  0  0  0  0  0
    3.8252   -0.5127   -2.2523 C   0  0  0  0  0  0  0  0  0  0  0  0
    5.2476   -0.3678   -2.0730 C   0  0  0  0  0  0  0  0  0  0  0  0
    5.9235    0.9275   -1.6723 C   0  0  0  0  0  0  0  0  0  0  0  0
    7.5072    1.3715   -2.1524 S   0  0  0  0  0  0  0  0  0  0  0  0
    7.7246    2.6447   -1.0644 C   0  0  0  0  0  0  0  0  0  0  0  0
    8.9784    3.4467   -0.8975 C   0  0  0  0  0  0  0  0  0  0  0  0
    9.0121    4.5667   -1.9165 C   0  0  0  0  0  0  0  0  0  0  0  0
    6.5103    2.8352   -0.3749 C   0  0  0  0  0  0  0  0  0  0  0  0
    6.2091    4.1968    0.7387 Cl  0  0  0  0  0  0  0  0  0  0  0  0
    5.6060    1.7845   -0.6185 C   0  0  0  0  0  0  0  0  0  0  0  0
    4.3598    1.3852    0.5873 Cl  0  0  0  0  0  0  0  0  0  0  0  0
    6.0431   -1.5391   -2.2684 C   0  0  0  0  0  0  0  0  0  0  0  0
    5.5319   -2.7565   -2.6976 C   0  0  0  0  0  0  0  0  0  0  0  0
    4.1088   -2.9554   -2.6995 C   0  0  0  0  0  0  0  0  0  0  0  0
    3.5487   -4.3284   -2.5335 C   0  0  0  0  0  0  0  0  0  0  0  0
    2.3017   -4.8514   -2.9065 C   0  0  0  0  0  0  0  0  0  0  0  0
    2.1032   -6.1796   -2.5135 C   0  0  0  0  0  0  0  0  0  0  0  0
    3.2055   -6.7249   -1.8589 C   0  0  0  0  0  0  0  0  0  0  0  0
    3.3573   -8.1213   -1.3263 C   0  0  0  0  0  0  0  0  0  0  0  0
    3.4714   -8.1017    0.2009 C   0  0  0  0  0  0  0  0  0  0  0  0
    4.3756   -5.5402   -1.7186 S   0  0  0  0  0  0  0  0  0  0  0  0
    3.2933   -1.8014   -2.5321 C   0  0  0  0  0  0  0  0  0  0  0  0
    1.6326   -1.6251   -2.5475 S   0  0  0  0  0  0  0  0  0  0  0  0
    6.5274   -3.7249   -3.0257 C   0  0  0  0  0  0  0  0  0  0  0  0
    7.8149   -3.2627   -2.8038 C   0  0  0  0  0  0  0  0  0  0  0  0
    7.6953   -1.7143   -2.1328 S   0  0  0  0  0  0  0  0  0  0  0  0
    9.1009   -3.8747   -3.1845 C   0  0  0  0  0  0  0  0  0  0  0  0
   10.0349   -3.1620   -3.8315 C   0  0  0  0  0  0  0  0  0  0  0  0
    9.7395   -1.9880   -4.6730 C   0  0  0  0  0  0  0  0  0  0  0  0
    8.6119   -1.7313   -5.1666 O   0  0  0  0  0  0  0  0  0  0  0  0
   10.9556   -1.2763   -4.9616 C   0  0  0  0  0  0  0  0  0  0  0  0
   11.0767    0.0084   -5.5253 C   0  0  0  0  0  0  0  0  0  0  0  0
   12.3401    0.6079   -5.5925 C   0  0  0  0  0  0  0  0  0  0  0  0
   13.4490   -0.1027   -5.0960 C   0  0  0  0  0  0  0  0  0  0  0  0
   15.0384    0.6550   -5.1315 Cl  0  0  0  0  0  0  0  0  0  0  0  0
   13.3087   -1.3803   -4.5108 C   0  0  0  0  0  0  0  0  0  0  0  0
   12.0329   -1.9819   -4.4386 C   0  0  0  0  0  0  0  0  0  0  0  0
   11.5486   -3.2142   -3.7365 C   0  0  0  0  0  0  0  0  0  0  0  0
   12.3230   -4.0437   -2.9797 C   0  0  0  0  0  0  0  0  0  0  0  0
   13.7745   -3.9761   -2.9818 C   0  0  0  0  0  0  0  0  0  0  0  0
   14.9280   -3.9907   -2.9688 N   0  0  0  0  0  0  0  0  0  0  0  0
   11.7689   -4.8775   -1.9469 C   0  0  0  0  0  0  0  0  0  0  0  0
   11.2798   -5.2374   -0.9311 N   0  0  0  0  0  0  0  0  0  0  0  0
   -6.3857    1.0835    7.4123 H   0  0  0  0  0  0  0  0  0  0  0  0
   -6.4705   -3.4352    3.1734 H   0  0  0  0  0  0  0  0  0  0  0  0
   -3.6623   -3.8181    7.4107 H   0  0  0  0  0  0  0  0  0  0  0  0
   -4.3712   -6.9475    6.0816 H   0  0  0  0  0  0  0  0  0  0  0  0
   -1.8524   -6.0096    5.2129 H   0  0  0  0  0  0  0  0  0  0  0  0
   -2.0244   -8.4768    4.2606 H   0  0  0  0  0  0  0  0  0  0  0  0
   -3.7316   -8.4952    2.3153 H   0  0  0  0  0  0  0  0  0  0  0  0
   -4.6504   -6.0303    1.9410 H   0  0  0  0  0  0  0  0  0  0  0  0
   -2.9987   -4.3750    3.4104 H   0  0  0  0  0  0  0  0  0  0  0  0
   -2.0657   -5.6493    2.5677 H   0  0  0  0  0  0  0  0  0  0  0  0
   -5.9263   -6.8314    4.2826 H   0  0  0  0  0  0  0  0  0  0  0  0
   -8.2310    1.1467    4.3148 H   0  0  0  0  0  0  0  0  0  0  0  0
   -7.8457    1.1582    0.7866 H   0  0  0  0  0  0  0  0  0  0  0  0
   -8.6825    0.8614    2.2834 H   0  0  0  0  0  0  0  0  0  0  0  0
   -9.5372    2.5912   -0.0429 H   0  0  0  0  0  0  0  0  0  0  0  0
  -10.5047    1.3582    0.9052 H   0  0  0  0  0  0  0  0  0  0  0  0
  -10.1810    2.9989    1.6167 H   0  0  0  0  0  0  0  0  0  0  0  0
   -5.4644    5.2052    5.1465 H   0  0  0  0  0  0  0  0  0  0  0  0
   -5.3610    3.2721    6.6925 H   0  0  0  0  0  0  0  0  0  0  0  0
   -4.7698    6.0051    2.9744 H   0  0  0  0  0  0  0  0  0  0  0  0
   -3.3390    5.3347    1.1024 H   0  0  0  0  0  0  0  0  0  0  0  0
   -6.0939    2.1844    0.0248 H   0  0  0  0  0  0  0  0  0  0  0  0
   -2.7620    2.2194   -4.6535 H   0  0  0  0  0  0  0  0  0  0  0  0
   -2.8274    0.6226   -6.5118 H   0  0  0  0  0  0  0  0  0  0  0  0
   -2.4264   -1.9358   -6.4343 H   0  0  0  0  0  0  0  0  0  0  0  0
   -2.8702   -2.9200   -7.8439 H   0  0  0  0  0  0  0  0  0  0  0  0
   -3.4977   -3.3920   -6.2129 H   0  0  0  0  0  0  0  0  0  0  0  0
   -6.3716   -1.1536   -4.8016 H   0  0  0  0  0  0  0  0  0  0  0  0
   -6.2334    0.4210   -2.9044 H   0  0  0  0  0  0  0  0  0  0  0  0
   -7.0221    2.9125   -1.8824 H   0  0  0  0  0  0  0  0  0  0  0  0
   -8.3775    4.7993   -2.6358 H   0  0  0  0  0  0  0  0  0  0  0  0
   -6.9941    8.5781   -4.1126 H   0  0  0  0  0  0  0  0  0  0  0  0
   -7.7707    7.6307   -2.7547 H   0  0  0  0  0  0  0  0  0  0  0  0
   -8.7816    8.6011   -3.8920 H   0  0  0  0  0  0  0  0  0  0  0  0
   -5.2960    5.8051   -5.4870 H   0  0  0  0  0  0  0  0  0  0  0  0
   -3.7509    4.2928   -4.3126 H   0  0  0  0  0  0  0  0  0  0  0  0
    1.2956   -0.6770    0.5476 H   0  0  0  0  0  0  0  0  0  0  0  0
    0.9106   -1.9007    2.6308 H   0  0  0  0  0  0  0  0  0  0  0  0
   -1.7375    0.1943    5.7288 H   0  0  0  0  0  0  0  0  0  0  0  0
   -1.8564   -0.8348    4.2378 H   0  0  0  0  0  0  0  0  0  0  0  0
   -1.9693   -1.5694    5.8820 H   0  0  0  0  0  0  0  0  0  0  0  0
    0.5472    1.8622    4.7348 H   0  0  0  0  0  0  0  0  0  0  0  0
    0.7744    3.0514    2.6185 H   0  0  0  0  0  0  0  0  0  0  0  0
    2.8433    3.5696    1.5290 H   0  0  0  0  0  0  0  0  0  0  0  0
    3.6845    5.7762    0.8839 H   0  0  0  0  0  0  0  0  0  0  0  0
    2.8834    6.7702   -3.8016 H   0  0  0  0  0  0  0  0  0  0  0  0
    1.7004    7.9754   -3.1074 H   0  0  0  0  0  0  0  0  0  0  0  0
    3.3438    8.4924   -3.6869 H   0  0  0  0  0  0  0  0  0  0  0  0
    1.3485    5.5581   -2.7755 H   0  0  0  0  0  0  0  0  0  0  0  0
    0.4980    3.4712   -2.1234 H   0  0  0  0  0  0  0  0  0  0  0  0
    3.0615    1.5174   -1.8602 H   0  0  0  0  0  0  0  0  0  0  0  0
    9.8470    2.7908   -1.0583 H   0  0  0  0  0  0  0  0  0  0  0  0
    9.0782    3.8717    0.1380 H   0  0  0  0  0  0  0  0  0  0  0  0
   10.0534    4.9677   -2.0121 H   0  0  0  0  0  0  0  0  0  0  0  0
    8.3423    5.3924   -1.5733 H   0  0  0  0  0  0  0  0  0  0  0  0
    8.6893    4.1957   -2.9099 H   0  0  0  0  0  0  0  0  0  0  0  0
    1.5562   -4.2550   -3.4192 H   0  0  0  0  0  0  0  0  0  0  0  0
    1.1448   -6.6975   -2.6359 H   0  0  0  0  0  0  0  0  0  0  0  0
    4.2688   -8.5626   -1.7522 H   0  0  0  0  0  0  0  0  0  0  0  0
    2.5043   -8.7436   -1.6520 H   0  0  0  0  0  0  0  0  0  0  0  0
    4.4141   -7.5900    0.5054 H   0  0  0  0  0  0  0  0  0  0  0  0
    3.4979   -9.1364    0.5833 H   0  0  0  0  0  0  0  0  0  0  0  0
    2.6080   -7.5583    0.6603 H   0  0  0  0  0  0  0  0  0  0  0  0
    6.3081   -4.7543   -3.4569 H   0  0  0  0  0  0  0  0  0  0  0  0
    9.3201   -4.8208   -2.7249 H   0  0  0  0  0  0  0  0  0  0  0  0
   10.2164    0.5474   -5.8868 H   0  0  0  0  0  0  0  0  0  0  0  0
   12.4527    1.5924   -6.0350 H   0  0  0  0  0  0  0  0  0  0  0  0
   14.2127   -1.8530   -4.1441 H   0  0  0  0  0  0  0  0  0  0  0  0
  1  2  2  3
  2  3  1  0
  3  4  2  0
  3  5  1  0
  5  6  2  0
  6  7  1  0
  7  8  2  0
  8  9  1  0
  9 10  2  0
 10 11  1  0
 11 12  2  3
 12 13  1  0
 13 14  3  0
 12 15  1  0
 15 16  3  0
  8 17  1  0
 17 18  1  0
 18 19  1  0
 19 20  2  0
 20 21  1  0
 21 22  1  0
 21 23  1  0
  1 24  1  0
 24 25  2  0
 25 26  1  0
 26 27  1  0
 27 28  1  0
 28 29  1  0
 27 30  1  0
 30 31  2  0
 31 32  1  0
 32 33  1  0
 33 34  2  0
 31 35  1  0
 35 36  2  0
 36 37  1  0
 37 38  2  0
 37 39  1  0
 39 40  2  0
 40 41  1  0
 41 42  1  0
 42 43  2  0
 43 44  1  0
 44 45  2  0
 45 46  1  0
 46 47  1  0
 45 48  1  0
 48 49  2  0
 41 50  1  0
 50 51  2  0
 51 52  1  0
 52 53  2  0
 53 54  1  0
 54 55  1  0
 53 56  1  0
 56 57  2  0
 40 58  1  0
 58 59  1  0
 59 60  1  0
 60 61  2  0
 61 62  1  0
 62 63  1  0
 63 64  2  0
 64 65  1  0
 65 66  2  0
 66 67  1  0
 67 68  1  0
 66 69  1  0
 69 70  2  0
 62 71  1  0
 71 72  2  0
 72 73  1  0
 73 74  2  0
 74 75  1  0
 75 76  1  0
 74 77  1  0
 77 78  2  0
 61 79  1  0
 79 80  1  0
 60 81  1  0
 81 82  2  0
 82 83  1  0
 83 84  2  0
 84 85  1  0
 85 86  1  0
 86 87  1  0
 87 88  1  0
 88 89  1  0
 87 90  2  0
 90 91  1  0
 90 92  1  0
 92 93  1  0
 84 94  1  0
 94 95  2  0
 95 96  1  0
 96 97  1  0
 97 98  2  0
 98 99  1  0
 99100  2  0
100101  1  0
101102  1  0
100103  1  0
 96104  2  0
104105  1  0
 95106  1  0
106107  2  0
107108  1  0
107109  1  0
109110  2  3
110111  1  0
111112  2  0
111113  1  0
113114  2  0
114115  1  0
115116  2  0
116117  1  0
116118  1  0
118119  2  0
119120  1  0
120121  2  3
121122  1  0
122123  3  0
121124  1  0
124125  3  0
 11  2  1  0
 23 17  1  0
 34 24  1  0
 80 39  1  0
105 81  1  0
120110  1  0
 10  5  1  0
 22 18  1  0
 32 26  2  0
 49 42  1  0
 57 50  1  0
 79 58  2  0
104 83  1  0
119113  1  0
 23  7  1  0
 38 30  1  0
 70 63  1  0
 78 71  1  0
 92 85  2  0
108 94  1  0
103 97  1  0
  1126  1  0
  6127  1  0
  9128  1  0
 17129  1  0
 18130  1  0
 19131  1  0
 20132  1  0
 21133  1  0
 22134  1  0
 22135  1  0
 23136  1  0
 25137  1  0
 28138  1  0
 28139  1  0
 29140  1  0
 29141  1  0
 29142  1  0
 33143  1  0
 34144  1  0
 35145  1  0
 36146  1  0
 38147  1  0
 43148  1  0
 44149  1  0
 47150  1  0
 47151  1  0
 47152  1  0
 48153  1  0
 49154  1  0
 51155  1  0
 52156  1  0
 55157  1  0
 55158  1  0
 55159  1  0
 56160  1  0
 57161  1  0
 64162  1  0
 65163  1  0
 68164  1  0
 68165  1  0
 68166  1  0
 69167  1  0
 70168  1  0
 72169  1  0
 73170  1  0
 76171  1  0
 76172  1  0
 76173  1  0
 77174  1  0
 78175  1  0
 82176  1  0
 88177  1  0
 88178  1  0
 89179  1  0
 89180  1  0
 89181  1  0
 98182  1  0
 99183  1  0
101184  1  0
101185  1  0
102186  1  0
102187  1  0
102188  1  0
106189  1  0
109190  1  0
114191  1  0
115192  1  0
118193  1  0
M  END

