
     RDKit          3D

174193  0  0  0  0  0  0  0  0999 V2000
    6.2759    1.7298   -4.0269 C   0  0  0  0  0  0  0  0  0  0  0  0
    5.6690    1.8621   -5.2231 C   0  0  0  0  0  0  0  0  0  0  0  0
    4.2925    1.4436   -5.5205 C   0  0  0  0  0  0  0  0  0  0  0  0
    3.3898    1.1937   -4.6776 O   0  0  0  0  0  0  0  0  0  0  0  0
    4.1528    1.2777   -6.9483 C   0  0  0  0  0  0  0  0  0  0  0  0
    3.0576    0.6938   -7.6269 C   0  0  0  0  0  0  0  0  0  0  0  0
    3.2945    0.4655   -8.9690 C   0  0  0  0  0  0  0  0  0  0  0  0
    4.5294    0.7963   -9.6129 C   0  0  0  0  0  0  0  0  0  0  0  0
    5.6000    1.3855   -8.9579 C   0  0  0  0  0  0  0  0  0  0  0  0
    5.3735    1.6383   -7.5748 C   0  0  0  0  0  0  0  0  0  0  0  0
    6.3256    2.1346   -6.5394 C   0  0  0  0  0  0  0  0  0  0  0  0
    7.4516    2.8610   -6.7555 C   0  0  0  0  0  0  0  0  0  0  0  0
    7.9103    3.1973   -8.0751 C   0  0  0  0  0  0  0  0  0  0  0  0
    8.2853    3.4757   -9.1348 N   0  0  0  0  0  0  0  0  0  0  0  0
    8.1980    3.4635   -5.6786 C   0  0  0  0  0  0  0  0  0  0  0  0
    8.8055    3.9537   -4.8223 N   0  0  0  0  0  0  0  0  0  0  0  0
    4.0418    0.1893  -10.8947 C   0  0  0  0  0  0  0  0  0  0  0  0
    4.6390   -1.1999  -11.2622 C   0  0  0  0  0  0  0  0  0  0  0  0
    3.7405   -1.7630  -12.3352 C   0  0  0  0  0  0  0  0  0  0  0  0
    2.5834   -2.0668  -11.7413 C   0  0  0  0  0  0  0  0  0  0  0  0
    2.7357   -1.6989  -10.2847 C   0  0  0  0  0  0  0  0  0  0  0  0
    4.1953   -2.0826  -10.1061 C   0  0  0  0  0  0  0  0  0  0  0  0
    2.7753   -0.1433  -10.2365 C   0  0  0  0  0  0  0  0  0  0  0  0
    5.5676    1.1942   -2.8549 C   0  0  0  0  0  0  0  0  0  0  0  0
    4.7547    1.9978   -2.0526 C   0  0  0  0  0  0  0  0  0  0  0  0
    4.5188    3.3193   -2.1319 N   0  0  0  0  0  0  0  0  0  0  0  0
    3.6511    3.5667   -1.1530 N   0  0  0  0  0  0  0  0  0  0  0  0
    3.1710    4.9008   -0.8212 C   0  0  0  0  0  0  0  0  0  0  0  0
    4.1485    5.5858    0.1269 C   0  0  0  0  0  0  0  0  0  0  0  0
    3.3264    2.4812   -0.4540 N   0  0  0  0  0  0  0  0  0  0  0  0
    4.0181    1.4861   -1.0285 C   0  0  0  0  0  0  0  0  0  0  0  0
    4.0122    0.1265   -0.7270 C   0  0  0  0  0  0  0  0  0  0  0  0
    4.8475   -0.7124   -1.4967 C   0  0  0  0  0  0  0  0  0  0  0  0
    5.6237   -0.1804   -2.5493 C   0  0  0  0  0  0  0  0  0  0  0  0
    4.8943   -2.0473   -1.2438 F   0  0  0  0  0  0  0  0  0  0  0  0
    3.1115   -0.4235    0.2882 C   0  0  0  0  0  0  0  0  0  0  0  0
    1.8373   -0.9495    0.0398 C   0  0  0  0  0  0  0  0  0  0  0  0
    1.1336   -0.8417   -1.2093 N   0  0  0  0  0  0  0  0  0  0  0  0
    0.6226   -2.0428   -1.8239 C   0  0  0  0  0  0  0  0  0  0  0  0
    1.3975   -3.2179   -1.8269 C   0  0  0  0  0  0  0  0  0  0  0  0
    0.8835   -4.4036   -2.3572 C   0  0  0  0  0  0  0  0  0  0  0  0
   -0.4165   -4.4352   -2.8759 C   0  0  0  0  0  0  0  0  0  0  0  0
   -1.0936   -5.9717   -3.4956 S   0  0  0  0  0  0  0  0  0  0  0  0
   -1.7673   -6.4686   -1.8758 C   0  0  0  0  0  0  0  0  0  0  0  0
   -1.1902   -3.2687   -2.8921 C   0  0  0  0  0  0  0  0  0  0  0  0
   -0.6769   -2.0798   -2.3666 C   0  0  0  0  0  0  0  0  0  0  0  0
    0.7474    0.4652   -1.6870 C   0  0  0  0  0  0  0  0  0  0  0  0
    0.3910    1.4840   -0.7815 C   0  0  0  0  0  0  0  0  0  0  0  0
    0.0321    2.7527   -1.2452 C   0  0  0  0  0  0  0  0  0  0  0  0
    0.0080    3.0164   -2.6165 C   0  0  0  0  0  0  0  0  0  0  0  0
   -0.4535    4.6473   -3.2054 S   0  0  0  0  0  0  0  0  0  0  0  0
   -2.2409    4.3145   -3.1151 C   0  0  0  0  0  0  0  0  0  0  0  0
    0.3524    2.0112   -3.5276 C   0  0  0  0  0  0  0  0  0  0  0  0
    0.7230    0.7440   -3.0661 C   0  0  0  0  0  0  0  0  0  0  0  0
    1.2424   -1.3889    1.2115 C   0  0  0  0  0  0  0  0  0  0  0  0
   -0.2936   -1.9296    1.5951 S   0  0  0  0  0  0  0  0  0  0  0  0
   -0.0097   -1.9470    3.2829 C   0  0  0  0  0  0  0  0  0  0  0  0
    1.3049   -1.4996    3.5288 C   0  0  0  0  0  0  0  0  0  0  0  0
    1.8680   -1.2796    4.8305 N   0  0  0  0  0  0  0  0  0  0  0  0
    1.8830   -2.3603    5.7860 C   0  0  0  0  0  0  0  0  0  0  0  0
    2.1170   -3.6817    5.3645 C   0  0  0  0  0  0  0  0  0  0  0  0
    2.1456   -4.7315    6.2888 C   0  0  0  0  0  0  0  0  0  0  0  0
    1.9370   -4.4696    7.6483 C   0  0  0  0  0  0  0  0  0  0  0  0
    2.0261   -5.8039    8.8441 S   0  0  0  0  0  0  0  0  0  0  0  0
    0.2409   -6.1486    8.7806 C   0  0  0  0  0  0  0  0  0  0  0  0
    1.6867   -3.1620    8.0773 C   0  0  0  0  0  0  0  0  0  0  0  0
    1.6583   -2.1127    7.1548 C   0  0  0  0  0  0  0  0  0  0  0  0
    2.4187    0.0196    5.1495 C   0  0  0  0  0  0  0  0  0  0  0  0
    1.7884    1.1905    4.6883 C   0  0  0  0  0  0  0  0  0  0  0  0
    2.3428    2.4443    4.9523 C   0  0  0  0  0  0  0  0  0  0  0  0
    3.5498    2.5413    5.6542 C   0  0  0  0  0  0  0  0  0  0  0  0
    4.2885    4.1504    5.9240 S   0  0  0  0  0  0  0  0  0  0  0  0
    5.0923    4.1802    4.2886 C   0  0  0  0  0  0  0  0  0  0  0  0
    4.1821    1.3834    6.1247 C   0  0  0  0  0  0  0  0  0  0  0  0
    3.6163    0.1272    5.8781 C   0  0  0  0  0  0  0  0  0  0  0  0
    1.9700   -1.2063    2.3383 C   0  0  0  0  0  0  0  0  0  0  0  0
    3.4501   -0.5008    1.9555 S   0  0  0  0  0  0  0  0  0  0  0  0
   -1.1071   -2.0596    4.2638 C   0  0  0  0  0  0  0  0  0  0  0  0
   -2.1807   -2.9331    4.0555 C   0  0  0  0  0  0  0  0  0  0  0  0
   -2.3263   -3.8638    3.1007 N   0  0  0  0  0  0  0  0  0  0  0  0
   -3.5765   -4.2958    3.2248 N   0  0  0  0  0  0  0  0  0  0  0  0
   -4.1930   -5.2089    2.2722 C   0  0  0  0  0  0  0  0  0  0  0  0
   -4.4960   -4.4701    0.9692 C   0  0  0  0  0  0  0  0  0  0  0  0
   -4.2532   -3.6643    4.1827 N   0  0  0  0  0  0  0  0  0  0  0  0
   -3.3676   -2.8084    4.7211 C   0  0  0  0  0  0  0  0  0  0  0  0
   -3.5881   -1.7805    5.6434 C   0  0  0  0  0  0  0  0  0  0  0  0
   -2.4846   -0.9628    5.9728 C   0  0  0  0  0  0  0  0  0  0  0  0
   -1.2615   -1.0995    5.2883 C   0  0  0  0  0  0  0  0  0  0  0  0
   -2.6379    0.0635    6.8489 F   0  0  0  0  0  0  0  0  0  0  0  0
   -4.9329   -1.3526    6.0764 C   0  0  0  0  0  0  0  0  0  0  0  0
   -5.6557   -0.5323    5.2858 C   0  0  0  0  0  0  0  0  0  0  0  0
   -5.4582   -0.4235    3.8337 C   0  0  0  0  0  0  0  0  0  0  0  0
   -5.3359   -1.3898    3.0275 O   0  0  0  0  0  0  0  0  0  0  0  0
   -5.4831    0.9620    3.4442 C   0  0  0  0  0  0  0  0  0  0  0  0
   -5.1212    1.4896    2.1849 C   0  0  0  0  0  0  0  0  0  0  0  0
   -5.0528    2.8678    2.1614 C   0  0  0  0  0  0  0  0  0  0  0  0
   -5.3367    3.6901    3.3009 C   0  0  0  0  0  0  0  0  0  0  0  0
   -5.7063    3.1741    4.5379 C   0  0  0  0  0  0  0  0  0  0  0  0
   -5.7964    1.7510    4.5800 C   0  0  0  0  0  0  0  0  0  0  0  0
   -6.0715    0.8357    5.7268 C   0  0  0  0  0  0  0  0  0  0  0  0
   -6.6860    1.1445    6.8926 C   0  0  0  0  0  0  0  0  0  0  0  0
   -7.1153    0.1160    7.8095 C   0  0  0  0  0  0  0  0  0  0  0  0
   -7.4607   -0.7077    8.5454 N   0  0  0  0  0  0  0  0  0  0  0  0
   -7.0257    2.4990    7.2574 C   0  0  0  0  0  0  0  0  0  0  0  0
   -7.2998    3.5829    7.5626 N   0  0  0  0  0  0  0  0  0  0  0  0
   -5.0181    4.9247    2.5074 C   0  0  0  0  0  0  0  0  0  0  0  0
   -6.2042    5.8158    2.0278 C   0  0  0  0  0  0  0  0  0  0  0  0
   -7.4335    4.9650    1.8058 C   0  0  0  0  0  0  0  0  0  0  0  0
   -7.1726    4.1904    0.7498 C   0  0  0  0  0  0  0  0  0  0  0  0
   -5.7776    4.5456    0.2841 C   0  0  0  0  0  0  0  0  0  0  0  0
   -5.7991    6.0354    0.5827 C   0  0  0  0  0  0  0  0  0  0  0  0
   -4.7309    4.0804    1.3416 C   0  0  0  0  0  0  0  0  0  0  0  0
    7.3445    1.8420   -3.9373 H   0  0  0  0  0  0  0  0  0  0  0  0
    2.1499    0.3738   -7.1279 H   0  0  0  0  0  0  0  0  0  0  0  0
    6.5370    1.5410   -9.4667 H   0  0  0  0  0  0  0  0  0  0  0  0
    3.9523    0.9156  -11.7320 H   0  0  0  0  0  0  0  0  0  0  0  0
    5.7251   -1.2153  -11.4954 H   0  0  0  0  0  0  0  0  0  0  0  0
    4.0056   -1.9821  -13.3651 H   0  0  0  0  0  0  0  0  0  0  0  0
    1.7432   -2.5760  -12.2038 H   0  0  0  0  0  0  0  0  0  0  0  0
    2.0183   -2.1897   -9.5936 H   0  0  0  0  0  0  0  0  0  0  0  0
    4.6247   -1.7947   -9.1219 H   0  0  0  0  0  0  0  0  0  0  0  0
    4.3937   -3.1658  -10.2748 H   0  0  0  0  0  0  0  0  0  0  0  0
    1.8804    0.3768  -10.6518 H   0  0  0  0  0  0  0  0  0  0  0  0
    3.0667    5.5033   -1.7509 H   0  0  0  0  0  0  0  0  0  0  0  0
    2.1734    4.8339   -0.3391 H   0  0  0  0  0  0  0  0  0  0  0  0
    3.7626    6.5887    0.4018 H   0  0  0  0  0  0  0  0  0  0  0  0
    5.1394    5.7025   -0.3615 H   0  0  0  0  0  0  0  0  0  0  0  0
    4.2669    4.9799    1.0498 H   0  0  0  0  0  0  0  0  0  0  0  0
    6.2377   -0.8444   -3.1439 H   0  0  0  0  0  0  0  0  0  0  0  0
    2.3991   -3.2112   -1.4157 H   0  0  0  0  0  0  0  0  0  0  0  0
    1.4924   -5.2996   -2.3493 H   0  0  0  0  0  0  0  0  0  0  0  0
   -2.2492   -7.4615   -1.9708 H   0  0  0  0  0  0  0  0  0  0  0  0
   -2.5222   -5.7312   -1.5348 H   0  0  0  0  0  0  0  0  0  0  0  0
   -0.9486   -6.5372   -1.1283 H   0  0  0  0  0  0  0  0  0  0  0  0
   -2.1966   -3.2862   -3.2936 H   0  0  0  0  0  0  0  0  0  0  0  0
   -1.3042   -1.1995   -2.3578 H   0  0  0  0  0  0  0  0  0  0  0  0
    0.3870    1.2987    0.2861 H   0  0  0  0  0  0  0  0  0  0  0  0
   -0.2340    3.5270   -0.5360 H   0  0  0  0  0  0  0  0  0  0  0  0
   -2.5461    4.1830   -2.0577 H   0  0  0  0  0  0  0  0  0  0  0  0
   -2.7906    5.1756   -3.5450 H   0  0  0  0  0  0  0  0  0  0  0  0
   -2.4955    3.4031   -3.6954 H   0  0  0  0  0  0  0  0  0  0  0  0
    0.3425    2.2131   -4.5945 H   0  0  0  0  0  0  0  0  0  0  0  0
    0.9991   -0.0215   -3.7808 H   0  0  0  0  0  0  0  0  0  0  0  0
    2.2902   -3.9034    4.3178 H   0  0  0  0  0  0  0  0  0  0  0  0
    2.3399   -5.7421    5.9510 H   0  0  0  0  0  0  0  0  0  0  0  0
    0.0050   -6.9563    9.5080 H   0  0  0  0  0  0  0  0  0  0  0  0
   -0.3363   -5.2383    9.0576 H   0  0  0  0  0  0  0  0  0  0  0  0
   -0.0477   -6.4848    7.7615 H   0  0  0  0  0  0  0  0  0  0  0  0
    1.5174   -2.9565    9.1311 H   0  0  0  0  0  0  0  0  0  0  0  0
    1.4494   -1.1084    7.5030 H   0  0  0  0  0  0  0  0  0  0  0  0
    0.8666    1.1328    4.1204 H   0  0  0  0  0  0  0  0  0  0  0  0
    1.8570    3.3373    4.5727 H   0  0  0  0  0  0  0  0  0  0  0  0
    4.3497    4.0082    3.4841 H   0  0  0  0  0  0  0  0  0  0  0  0
    5.5628    5.1705    4.1314 H   0  0  0  0  0  0  0  0  0  0  0  0
    5.8759    3.3921    4.2441 H   0  0  0  0  0  0  0  0  0  0  0  0
    5.1157    1.4540    6.6723 H   0  0  0  0  0  0  0  0  0  0  0  0
    4.1294   -0.7630    6.2278 H   0  0  0  0  0  0  0  0  0  0  0  0
   -5.1385   -5.6191    2.6923 H   0  0  0  0  0  0  0  0  0  0  0  0
   -3.5023   -6.0551    2.0684 H   0  0  0  0  0  0  0  0  0  0  0  0
   -5.1534   -3.5989    1.1717 H   0  0  0  0  0  0  0  0  0  0  0  0
   -5.0085   -5.1494    0.2586 H   0  0  0  0  0  0  0  0  0  0  0  0
   -3.5521   -4.1102    0.5071 H   0  0  0  0  0  0  0  0  0  0  0  0
   -0.4857   -0.3730    5.4872 H   0  0  0  0  0  0  0  0  0  0  0  0
   -5.0179   -1.2300    7.1459 H   0  0  0  0  0  0  0  0  0  0  0  0
   -4.8761    0.8710    1.3281 H   0  0  0  0  0  0  0  0  0  0  0  0
   -5.8470    3.8280    5.3825 H   0  0  0  0  0  0  0  0  0  0  0  0
   -4.1267    5.4864    2.8737 H   0  0  0  0  0  0  0  0  0  0  0  0
   -6.3784    6.7340    2.6212 H   0  0  0  0  0  0  0  0  0  0  0  0
   -8.3687    5.0030    2.3554 H   0  0  0  0  0  0  0  0  0  0  0  0
   -7.8619    3.4907    0.2921 H   0  0  0  0  0  0  0  0  0  0  0  0
   -5.5488    4.2693   -0.7686 H   0  0  0  0  0  0  0  0  0  0  0  0
   -6.5576    6.5861   -0.0231 H   0  0  0  0  0  0  0  0  0  0  0  0
   -4.8052    6.5271    0.4750 H   0  0  0  0  0  0  0  0  0  0  0  0
   -3.6715    4.1274    1.0017 H   0  0  0  0  0  0  0  0  0  0  0  0
  1  2  2  3
  2  3  1  0
  3  4  2  0
  3  5  1  0
  5  6  2  0
  6  7  1  0
  7  8  2  0
  8  9  1  0
  9 10  2  0
 10 11  1  0
 11 12  2  3
 12 13  1  0
 13 14  3  0
 12 15  1  0
 15 16  3  0
  8 17  1  0
 17 18  1  0
 18 19  1  0
 19 20  2  0
 20 21  1  0
 21 22  1  0
 21 23  1  0
  1 24  1  0
 24 25  1  0
 25 26  2  0
 26 27  1  0
 27 28  1  0
 28 29  1  0
 27 30  1  0
 30 31  2  0
 31 32  1  0
 32 33  2  0
 33 34  1  0
 33 35  1  0
 32 36  1  0
 36 37  2  0
 37 38  1  0
 38 39  1  0
 39 40  2  0
 40 41  1  0
 41 42  2  0
 42 43  1  0
 43 44  1  0
 42 45  1  0
 45 46  2  0
 38 47  1  0
 47 48  2  0
 48 49  1  0
 49 50  2  0
 50 51  1  0
 51 52  1  0
 50 53  1  0
 53 54  2  0
 37 55  1  0
 55 56  1  0
 56 57  1  0
 57 58  2  0
 58 59  1  0
 59 60  1  0
 60 61  2  0
 61 62  1  0
 62 63  2  0
 63 64  1  0
 64 65  1  0
 63 66  1  0
 66 67  2  0
 59 68  1  0
 68 69  2  0
 69 70  1  0
 70 71  2  0
 71 72  1  0
 72 73  1  0
 71 74  1  0
 74 75  2  0
 58 76  1  0
 76 77  1  0
 57 78  1  0
 78 79  1  0
 79 80  2  0
 80 81  1  0
 81 82  1  0
 82 83  1  0
 81 84  1  0
 84 85  2  0
 85 86  1  0
 86 87  2  0
 87 88  1  0
 87 89  1  0
 86 90  1  0
 90 91  2  3
 91 92  1  0
 92 93  2  0
 92 94  1  0
 94 95  2  0
 95 96  1  0
 96 97  2  0
 97 98  1  0
 98 99  2  0
 99100  1  0
100101  2  3
101102  1  0
102103  3  0
101104  1  0
104105  3  0
 97106  1  0
106107  1  0
107108  1  0
108109  2  0
109110  1  0
110111  1  0
110112  1  0
 11  2  1  0
 23 17  1  0
 34 24  2  0
 77 36  1  0
 88 78  2  0
100 91  1  0
112106  1  0
 10  5  1  0
 22 18  1  0
 31 25  1  0
 46 39  1  0
 54 47  1  0
 76 55  2  0
 85 79  1  0
 99 94  1  0
111107  1  0
 23  7  1  0
 67 60  1  0
 75 68  1  0
112 96  1  0
  1113  1  0
  6114  1  0
  9115  1  0
 17116  1  0
 18117  1  0
 19118  1  0
 20119  1  0
 21120  1  0
 22121  1  0
 22122  1  0
 23123  1  0
 28124  1  0
 28125  1  0
 29126  1  0
 29127  1  0
 29128  1  0
 34129  1  0
 40130  1  0
 41131  1  0
 44132  1  0
 44133  1  0
 44134  1  0
 45135  1  0
 46136  1  0
 48137  1  0
 49138  1  0
 52139  1  0
 52140  1  0
 52141  1  0
 53142  1  0
 54143  1  0
 61144  1  0
 62145  1  0
 65146  1  0
 65147  1  0
 65148  1  0
 66149  1  0
 67150  1  0
 69151  1  0
 70152  1  0
 73153  1  0
 73154  1  0
 73155  1  0
 74156  1  0
 75157  1  0
 82158  1  0
 82159  1  0
 83160  1  0
 83161  1  0
 83162  1  0
 88163  1  0
 90164  1  0
 95165  1  0
 98166  1  0
106167  1  0
107168  1  0
108169  1  0
109170  1  0
110171  1  0
111172  1  0
111173  1  0
112174  1  0
M  END

