
     RDKit          3D

162182  0  0  0  0  0  0  0  0999 V2000
    6.3744    6.0465    4.5802 C   0  0  0  0  0  0  0  0  0  0  0  0
    5.4049    6.3061    3.6751 C   0  0  0  0  0  0  0  0  0  0  0  0
    4.2585    5.4310    3.3939 C   0  0  0  0  0  0  0  0  0  0  0  0
    3.8149    4.5128    4.1336 O   0  0  0  0  0  0  0  0  0  0  0  0
    3.6588    5.8289    2.1455 C   0  0  0  0  0  0  0  0  0  0  0  0
    2.5902    5.1885    1.4765 C   0  0  0  0  0  0  0  0  0  0  0  0
    2.2233    5.8031    0.2963 C   0  0  0  0  0  0  0  0  0  0  0  0
    2.8675    6.9774   -0.2080 C   0  0  0  0  0  0  0  0  0  0  0  0
    3.9269    7.5971    0.4331 C   0  0  0  0  0  0  0  0  0  0  0  0
    4.3168    6.9910    1.6632 C   0  0  0  0  0  0  0  0  0  0  0  0
    5.3744    7.3948    2.6433 C   0  0  0  0  0  0  0  0  0  0  0  0
    6.0098    8.5945    2.7094 C   0  0  0  0  0  0  0  0  0  0  0  0
    5.8602    9.6125    1.7058 C   0  0  0  0  0  0  0  0  0  0  0  0
    5.7534   10.4503    0.9114 N   0  0  0  0  0  0  0  0  0  0  0  0
    6.7946    8.9892    3.8495 C   0  0  0  0  0  0  0  0  0  0  0  0
    7.4232    9.3217    4.7654 N   0  0  0  0  0  0  0  0  0  0  0  0
    1.9236    7.0132   -1.3743 C   0  0  0  0  0  0  0  0  0  0  0  0
    0.7889    8.0818   -1.3198 C   0  0  0  0  0  0  0  0  0  0  0  0
   -0.2229    7.6675   -2.3616 C   0  0  0  0  0  0  0  0  0  0  0  0
   -0.8102    6.5573   -1.8995 C   0  0  0  0  0  0  0  0  0  0  0  0
   -0.1809    6.2660   -0.5591 C   0  0  0  0  0  0  0  0  0  0  0  0
    0.0085    7.6933   -0.0733 C   0  0  0  0  0  0  0  0  0  0  0  0
    1.2731    5.8018   -0.8630 C   0  0  0  0  0  0  0  0  0  0  0  0
    6.3202    4.8839    5.4795 C   0  0  0  0  0  0  0  0  0  0  0  0
    6.4437    3.5825    4.9480 C   0  0  0  0  0  0  0  0  0  0  0  0
    6.0817    2.4990    5.7541 C   0  0  0  0  0  0  0  0  0  0  0  0
    5.8435    1.2255    5.3539 N   0  0  0  0  0  0  0  0  0  0  0  0
    6.0428    0.6728    4.0078 C   0  0  0  0  0  0  0  0  0  0  0  0
    7.4601    0.1304    3.8689 C   0  0  0  0  0  0  0  0  0  0  0  0
    5.2557    0.6231    6.4202 C   0  0  0  0  0  0  0  0  0  0  0  0
    5.1462    1.4965    7.4846 C   0  0  0  0  0  0  0  0  0  0  0  0
    5.6765    2.6945    7.0592 C   0  0  0  0  0  0  0  0  0  0  0  0
    5.6297    3.9627    7.6383 C   0  0  0  0  0  0  0  0  0  0  0  0
    5.9630    5.0668    6.8335 C   0  0  0  0  0  0  0  0  0  0  0  0
    4.3794    1.1987    8.6102 C   0  0  0  0  0  0  0  0  0  0  0  0
    3.6447    0.0017    8.6102 C   0  0  0  0  0  0  0  0  0  0  0  0
    3.7049   -0.8787    7.5041 C   0  0  0  0  0  0  0  0  0  0  0  0
    4.5762   -0.5975    6.4291 C   0  0  0  0  0  0  0  0  0  0  0  0
    2.6040   -1.8248    7.2651 C   0  0  0  0  0  0  0  0  0  0  0  0
    2.7476   -3.0160    6.5466 C   0  0  0  0  0  0  0  0  0  0  0  0
    1.6166   -3.3413    5.7745 C   0  0  0  0  0  0  0  0  0  0  0  0
    1.5471   -4.3475    4.7880 C   0  0  0  0  0  0  0  0  0  0  0  0
    2.6173   -5.3366    4.5879 C   0  0  0  0  0  0  0  0  0  0  0  0
    3.9263   -5.0713    4.1952 C   0  0  0  0  0  0  0  0  0  0  0  0
    4.7055   -6.2291    4.0658 C   0  0  0  0  0  0  0  0  0  0  0  0
    6.3949   -6.1725    3.6013 Cl  0  0  0  0  0  0  0  0  0  0  0  0
    4.0072   -7.4024    4.3410 C   0  0  0  0  0  0  0  0  0  0  0  0
    4.5376   -8.8025    4.3161 C   0  0  0  0  0  0  0  0  0  0  0  0
    4.0595   -9.5520    3.0731 C   0  0  0  0  0  0  0  0  0  0  0  0
    2.4206   -6.9962    4.7425 S   0  0  0  0  0  0  0  0  0  0  0  0
    0.4538   -4.2970    3.9069 C   0  0  0  0  0  0  0  0  0  0  0  0
   -0.5640   -3.3432    4.0213 C   0  0  0  0  0  0  0  0  0  0  0  0
   -0.5519   -2.4068    5.0750 C   0  0  0  0  0  0  0  0  0  0  0  0
   -1.5263   -1.3015    5.1261 C   0  0  0  0  0  0  0  0  0  0  0  0
   -2.9019   -1.4386    5.2815 C   0  0  0  0  0  0  0  0  0  0  0  0
   -3.5926   -0.2254    5.1631 C   0  0  0  0  0  0  0  0  0  0  0  0
   -2.7602    0.8542    4.8751 C   0  0  0  0  0  0  0  0  0  0  0  0
   -3.1940    2.2710    4.6613 C   0  0  0  0  0  0  0  0  0  0  0  0
   -3.0144    3.0931    5.9318 C   0  0  0  0  0  0  0  0  0  0  0  0
   -1.1706    0.3133    4.8000 S   0  0  0  0  0  0  0  0  0  0  0  0
    0.5673   -2.4284    5.9234 C   0  0  0  0  0  0  0  0  0  0  0  0
    1.0440   -1.2375    7.0043 S   0  0  0  0  0  0  0  0  0  0  0  0
   -1.3934   -3.2818    2.8899 C   0  0  0  0  0  0  0  0  0  0  0  0
   -1.0005   -4.1479    1.8685 C   0  0  0  0  0  0  0  0  0  0  0  0
    0.3391   -5.0313    2.3996 S   0  0  0  0  0  0  0  0  0  0  0  0
   -1.3835   -3.9680    0.4506 C   0  0  0  0  0  0  0  0  0  0  0  0
   -2.6750   -3.4978    0.1154 C   0  0  0  0  0  0  0  0  0  0  0  0
   -2.9164   -3.0918   -1.2017 C   0  0  0  0  0  0  0  0  0  0  0  0
   -4.0436   -2.5264   -1.7093 N   0  0  0  0  0  0  0  0  0  0  0  0
   -5.3327   -2.3605   -1.0366 C   0  0  0  0  0  0  0  0  0  0  0  0
   -6.1647   -3.6265   -1.1828 C   0  0  0  0  0  0  0  0  0  0  0  0
   -3.7411   -2.2408   -3.0018 C   0  0  0  0  0  0  0  0  0  0  0  0
   -2.4455   -2.6084   -3.2998 C   0  0  0  0  0  0  0  0  0  0  0  0
   -1.9223   -3.1591   -2.1555 C   0  0  0  0  0  0  0  0  0  0  0  0
   -0.6595   -3.6634   -1.8769 C   0  0  0  0  0  0  0  0  0  0  0  0
   -0.3964   -4.0803   -0.5646 C   0  0  0  0  0  0  0  0  0  0  0  0
   -1.8686   -2.3582   -4.5402 C   0  0  0  0  0  0  0  0  0  0  0  0
   -2.6558   -1.7175   -5.5097 C   0  0  0  0  0  0  0  0  0  0  0  0
   -4.0075   -1.3804   -5.2423 C   0  0  0  0  0  0  0  0  0  0  0  0
   -4.5507   -1.6264   -3.9620 C   0  0  0  0  0  0  0  0  0  0  0  0
   -4.8207   -0.6575   -6.2435 C   0  0  0  0  0  0  0  0  0  0  0  0
   -4.8960   -0.9882   -7.5489 C   0  0  0  0  0  0  0  0  0  0  0  0
   -4.5232   -2.2932   -8.1188 C   0  0  0  0  0  0  0  0  0  0  0  0
   -3.9779   -3.2524   -7.5132 O   0  0  0  0  0  0  0  0  0  0  0  0
   -5.0266   -2.3681   -9.4728 C   0  0  0  0  0  0  0  0  0  0  0  0
   -4.9079   -3.4631  -10.3608 C   0  0  0  0  0  0  0  0  0  0  0  0
   -5.5010   -3.2529  -11.5895 C   0  0  0  0  0  0  0  0  0  0  0  0
   -6.1912   -2.0470  -11.9253 C   0  0  0  0  0  0  0  0  0  0  0  0
   -6.3332   -0.9817  -11.0558 C   0  0  0  0  0  0  0  0  0  0  0  0
   -5.7111   -1.1652   -9.7869 C   0  0  0  0  0  0  0  0  0  0  0  0
   -5.6062   -0.2291   -8.6273 C   0  0  0  0  0  0  0  0  0  0  0  0
   -5.9050    1.0986   -8.6156 C   0  0  0  0  0  0  0  0  0  0  0  0
   -5.4091    1.9867   -7.5968 C   0  0  0  0  0  0  0  0  0  0  0  0
   -5.0011    2.7108   -6.7924 N   0  0  0  0  0  0  0  0  0  0  0  0
   -6.6288    1.7473   -9.6777 C   0  0  0  0  0  0  0  0  0  0  0  0
   -7.2266    2.2819  -10.5118 N   0  0  0  0  0  0  0  0  0  0  0  0
   -6.5256   -2.5976  -13.2796 C   0  0  0  0  0  0  0  0  0  0  0  0
   -7.9902   -3.0664  -13.5307 C   0  0  0  0  0  0  0  0  0  0  0  0
   -8.6001   -3.5658  -12.2383 C   0  0  0  0  0  0  0  0  0  0  0  0
   -7.9588   -4.6908  -11.9258 C   0  0  0  0  0  0  0  0  0  0  0  0
   -6.9326   -4.9210  -13.0124 C   0  0  0  0  0  0  0  0  0  0  0  0
   -7.7241   -4.4025  -14.1997 C   0  0  0  0  0  0  0  0  0  0  0  0
   -5.8216   -3.8324  -12.9351 C   0  0  0  0  0  0  0  0  0  0  0  0
    7.2498    6.6691    4.6603 H   0  0  0  0  0  0  0  0  0  0  0  0
    2.0976    4.3023    1.8534 H   0  0  0  0  0  0  0  0  0  0  0  0
    4.3924    8.4611   -0.0087 H   0  0  0  0  0  0  0  0  0  0  0  0
    2.4249    6.8881   -2.3595 H   0  0  0  0  0  0  0  0  0  0  0  0
    1.1231    9.1395   -1.3765 H   0  0  0  0  0  0  0  0  0  0  0  0
   -0.5014    8.2058   -3.2610 H   0  0  0  0  0  0  0  0  0  0  0  0
   -1.6488    6.0436   -2.3598 H   0  0  0  0  0  0  0  0  0  0  0  0
   -0.7672    5.5987    0.1092 H   0  0  0  0  0  0  0  0  0  0  0  0
    0.5907    7.7823    0.8714 H   0  0  0  0  0  0  0  0  0  0  0  0
   -0.9541    8.2505    0.0408 H   0  0  0  0  0  0  0  0  0  0  0  0
    1.3706    4.9081   -1.5198 H   0  0  0  0  0  0  0  0  0  0  0  0
    6.6996    3.4484    3.9066 H   0  0  0  0  0  0  0  0  0  0  0  0
    5.3178   -0.1355    3.7936 H   0  0  0  0  0  0  0  0  0  0  0  0
    5.8694    1.4526    3.2351 H   0  0  0  0  0  0  0  0  0  0  0  0
    8.2000    0.9321    4.0744 H   0  0  0  0  0  0  0  0  0  0  0  0
    7.6192   -0.7021    4.5868 H   0  0  0  0  0  0  0  0  0  0  0  0
    7.6160   -0.2466    2.8401 H   0  0  0  0  0  0  0  0  0  0  0  0
    5.2748    4.1077    8.6488 H   0  0  0  0  0  0  0  0  0  0  0  0
    5.8601    6.0649    7.2386 H   0  0  0  0  0  0  0  0  0  0  0  0
    4.2592    1.9125    9.4130 H   0  0  0  0  0  0  0  0  0  0  0  0
    2.9484   -0.1905    9.4180 H   0  0  0  0  0  0  0  0  0  0  0  0
    4.5766   -1.2321    5.5549 H   0  0  0  0  0  0  0  0  0  0  0  0
    3.6996   -3.5235    6.4550 H   0  0  0  0  0  0  0  0  0  0  0  0
    4.3028   -4.0745    4.0208 H   0  0  0  0  0  0  0  0  0  0  0  0
    5.6505   -8.8060    4.3406 H   0  0  0  0  0  0  0  0  0  0  0  0
    4.1803   -9.3417    5.2252 H   0  0  0  0  0  0  0  0  0  0  0  0
    4.3655  -10.6141    3.1452 H   0  0  0  0  0  0  0  0  0  0  0  0
    2.9490   -9.5126    2.9971 H   0  0  0  0  0  0  0  0  0  0  0  0
    4.5144   -9.1100    2.1624 H   0  0  0  0  0  0  0  0  0  0  0  0
   -3.3901   -2.3827    5.4692 H   0  0  0  0  0  0  0  0  0  0  0  0
   -4.6659   -0.1415    5.2554 H   0  0  0  0  0  0  0  0  0  0  0  0
   -2.5806    2.7184    3.8481 H   0  0  0  0  0  0  0  0  0  0  0  0
   -4.2573    2.2946    4.3478 H   0  0  0  0  0  0  0  0  0  0  0  0
   -3.6657    2.7016    6.7401 H   0  0  0  0  0  0  0  0  0  0  0  0
   -1.9531    3.0645    6.2694 H   0  0  0  0  0  0  0  0  0  0  0  0
   -3.2928    4.1495    5.7309 H   0  0  0  0  0  0  0  0  0  0  0  0
   -2.1510   -2.5215    2.7531 H   0  0  0  0  0  0  0  0  0  0  0  0
   -3.4389   -3.3996    0.8752 H   0  0  0  0  0  0  0  0  0  0  0  0
   -5.8859   -1.4978   -1.4613 H   0  0  0  0  0  0  0  0  0  0  0  0
   -5.1783   -2.1413    0.0417 H   0  0  0  0  0  0  0  0  0  0  0  0
   -5.6178   -4.4956   -0.7589 H   0  0  0  0  0  0  0  0  0  0  0  0
   -7.1246   -3.5109   -0.6393 H   0  0  0  0  0  0  0  0  0  0  0  0
   -6.3794   -3.8184   -2.2537 H   0  0  0  0  0  0  0  0  0  0  0  0
    0.1111   -3.7037   -2.6349 H   0  0  0  0  0  0  0  0  0  0  0  0
    0.6053   -4.4178   -0.3267 H   0  0  0  0  0  0  0  0  0  0  0  0
   -0.8397   -2.6232   -4.7479 H   0  0  0  0  0  0  0  0  0  0  0  0
   -2.2121   -1.4778   -6.4671 H   0  0  0  0  0  0  0  0  0  0  0  0
   -5.5675   -1.3426   -3.7324 H   0  0  0  0  0  0  0  0  0  0  0  0
   -5.4040    0.1691   -5.8699 H   0  0  0  0  0  0  0  0  0  0  0  0
   -4.4062   -4.3858  -10.1041 H   0  0  0  0  0  0  0  0  0  0  0  0
   -6.9006   -0.1181  -11.3520 H   0  0  0  0  0  0  0  0  0  0  0  0
   -6.0618   -2.0379  -14.1235 H   0  0  0  0  0  0  0  0  0  0  0  0
   -8.6165   -2.3553  -14.1086 H   0  0  0  0  0  0  0  0  0  0  0  0
   -9.4376   -3.1401  -11.6989 H   0  0  0  0  0  0  0  0  0  0  0  0
   -8.1825   -5.3367  -11.0869 H   0  0  0  0  0  0  0  0  0  0  0  0
   -6.5657   -5.9657  -13.0995 H   0  0  0  0  0  0  0  0  0  0  0  0
   -8.6538   -4.9892  -14.4043 H   0  0  0  0  0  0  0  0  0  0  0  0
   -7.1208   -4.3190  -15.1333 H   0  0  0  0  0  0  0  0  0  0  0  0
   -4.9249   -4.0294  -13.5649 H   0  0  0  0  0  0  0  0  0  0  0  0
  1  2  2  3
  2  3  1  0
  3  4  2  0
  3  5  1  0
  5  6  2  0
  6  7  1  0
  7  8  2  0
  8  9  1  0
  9 10  2  0
 10 11  1  0
 11 12  2  3
 12 13  1  0
 13 14  3  0
 12 15  1  0
 15 16  3  0
  8 17  1  0
 17 18  1  0
 18 19  1  0
 19 20  2  0
 20 21  1  0
 21 22  1  0
 21 23  1  0
  1 24  1  0
 24 25  2  0
 25 26  1  0
 26 27  1  0
 27 28  1  0
 28 29  1  0
 27 30  1  0
 30 31  2  0
 31 32  1  0
 32 33  1  0
 33 34  2  0
 31 35  1  0
 35 36  2  0
 36 37  1  0
 37 38  2  0
 37 39  1  0
 39 40  2  0
 40 41  1  0
 41 42  2  0
 42 43  1  0
 43 44  2  0
 44 45  1  0
 45 46  1  0
 45 47  2  0
 47 48  1  0
 48 49  1  0
 47 50  1  0
 42 51  1  0
 51 52  2  0
 52 53  1  0
 53 54  1  0
 54 55  2  0
 55 56  1  0
 56 57  2  0
 57 58  1  0
 58 59  1  0
 57 60  1  0
 53 61  2  0
 61 62  1  0
 52 63  1  0
 63 64  2  0
 64 65  1  0
 64 66  1  0
 66 67  2  0
 67 68  1  0
 68 69  1  0
 69 70  1  0
 70 71  1  0
 69 72  1  0
 72 73  2  0
 73 74  1  0
 74 75  1  0
 75 76  2  0
 73 77  1  0
 77 78  2  0
 78 79  1  0
 79 80  2  0
 79 81  1  0
 81 82  2  3
 82 83  1  0
 83 84  2  0
 83 85  1  0
 85 86  2  0
 86 87  1  0
 87 88  2  0
 88 89  1  0
 89 90  2  0
 90 91  1  0
 91 92  2  3
 92 93  1  0
 93 94  3  0
 92 95  1  0
 95 96  3  0
 88 97  1  0
 97 98  1  0
 98 99  1  0
 99100  2  0
100101  1  0
101102  1  0
101103  1  0
 11  2  1  0
 23 17  1  0
 34 24  1  0
 62 39  1  0
 76 66  1  0
 91 82  1  0
103 97  1  0
 10  5  1  0
 22 18  1  0
 32 26  2  0
 61 41  1  0
 74 68  2  0
 90 85  1  0
102 98  1  0
 23  7  1  0
 38 30  1  0
 50 43  1  0
 65 51  1  0
 80 72  1  0
103 87  1  0
 60 54  1  0
  1104  1  0
  6105  1  0
  9106  1  0
 17107  1  0
 18108  1  0
 19109  1  0
 20110  1  0
 21111  1  0
 22112  1  0
 22113  1  0
 23114  1  0
 25115  1  0
 28116  1  0
 28117  1  0
 29118  1  0
 29119  1  0
 29120  1  0
 33121  1  0
 34122  1  0
 35123  1  0
 36124  1  0
 38125  1  0
 40126  1  0
 44127  1  0
 48128  1  0
 48129  1  0
 49130  1  0
 49131  1  0
 49132  1  0
 55133  1  0
 56134  1  0
 58135  1  0
 58136  1  0
 59137  1  0
 59138  1  0
 59139  1  0
 63140  1  0
 67141  1  0
 70142  1  0
 70143  1  0
 71144  1  0
 71145  1  0
 71146  1  0
 75147  1  0
 76148  1  0
 77149  1  0
 78150  1  0
 80151  1  0
 81152  1  0
 86153  1  0
 89154  1  0
 97155  1  0
 98156  1  0
 99157  1  0
100158  1  0
101159  1  0
102160  1  0
102161  1  0
103162  1  0
M  END

