
     RDKit          3D

210232  0  0  0  0  0  0  0  0999 V2000
   -1.5427    6.0697   -5.8576 C   0  0  0  0  0  0  0  0  0  0  0  0
   -2.6448    6.4094   -5.1577 C   0  0  0  0  0  0  0  0  0  0  0  0
   -3.5917    5.4427   -4.5847 C   0  0  0  0  0  0  0  0  0  0  0  0
   -3.9005    4.3396   -5.1064 O   0  0  0  0  0  0  0  0  0  0  0  0
   -4.0779    5.9335   -3.3094 C   0  0  0  0  0  0  0  0  0  0  0  0
   -4.8247    5.2163   -2.3449 C   0  0  0  0  0  0  0  0  0  0  0  0
   -4.9371    5.8691   -1.1294 C   0  0  0  0  0  0  0  0  0  0  0  0
   -4.3491    7.1462   -0.8723 C   0  0  0  0  0  0  0  0  0  0  0  0
   -3.6240    7.8602   -1.8169 C   0  0  0  0  0  0  0  0  0  0  0  0
   -3.5192    7.2130   -3.0888 C   0  0  0  0  0  0  0  0  0  0  0  0
   -2.7587    7.6305   -4.3077 C   0  0  0  0  0  0  0  0  0  0  0  0
   -2.3655    8.8917   -4.6294 C   0  0  0  0  0  0  0  0  0  0  0  0
   -1.8269    9.1958   -5.9219 C   0  0  0  0  0  0  0  0  0  0  0  0
   -1.3882    9.4492   -6.9646 N   0  0  0  0  0  0  0  0  0  0  0  0
   -2.5671   10.0106   -3.7474 C   0  0  0  0  0  0  0  0  0  0  0  0
   -2.6997   10.9271   -3.0501 N   0  0  0  0  0  0  0  0  0  0  0  0
   -4.8420    7.1046    0.5401 C   0  0  0  0  0  0  0  0  0  0  0  0
   -3.8159    6.7994    1.6741 C   0  0  0  0  0  0  0  0  0  0  0  0
   -2.7418    5.8661    1.1560 C   0  0  0  0  0  0  0  0  0  0  0  0
   -3.3236    4.6884    0.9469 C   0  0  0  0  0  0  0  0  0  0  0  0
   -4.7808    4.8550    1.2997 C   0  0  0  0  0  0  0  0  0  0  0  0
   -4.6243    5.7956    2.4825 C   0  0  0  0  0  0  0  0  0  0  0  0
   -5.4672    5.8098    0.2786 C   0  0  0  0  0  0  0  0  0  0  0  0
   -1.0103    4.6945   -5.8179 C   0  0  0  0  0  0  0  0  0  0  0  0
   -0.8797    4.0800   -4.5543 C   0  0  0  0  0  0  0  0  0  0  0  0
   -0.5279    2.7466   -4.4954 C   0  0  0  0  0  0  0  0  0  0  0  0
   -0.5974    1.9520   -3.4041 N   0  0  0  0  0  0  0  0  0  0  0  0
   -1.1962    2.2966   -2.1045 C   0  0  0  0  0  0  0  0  0  0  0  0
   -2.7099    2.1203   -2.1725 C   0  0  0  0  0  0  0  0  0  0  0  0
   -0.3719    0.7032   -3.8783 C   0  0  0  0  0  0  0  0  0  0  0  0
   -0.1475    0.7007   -5.2398 C   0  0  0  0  0  0  0  0  0  0  0  0
   -0.2505    2.0258   -5.6384 C   0  0  0  0  0  0  0  0  0  0  0  0
   -0.2733    2.6207   -6.9015 C   0  0  0  0  0  0  0  0  0  0  0  0
   -0.6544    3.9835   -6.9862 C   0  0  0  0  0  0  0  0  0  0  0  0
   -0.0645   -0.4894   -5.9693 C   0  0  0  0  0  0  0  0  0  0  0  0
   -0.1932   -1.7014   -5.2640 C   0  0  0  0  0  0  0  0  0  0  0  0
   -0.4268   -1.7018   -3.8626 C   0  0  0  0  0  0  0  0  0  0  0  0
   -0.5034   -0.4754   -3.1757 C   0  0  0  0  0  0  0  0  0  0  0  0
   -0.4631   -2.9356   -3.0470 C   0  0  0  0  0  0  0  0  0  0  0  0
    0.6862   -3.7146   -2.8144 C   0  0  0  0  0  0  0  0  0  0  0  0
    1.7267   -3.9172   -3.7848 N   0  0  0  0  0  0  0  0  0  0  0  0
    1.4971   -4.8487   -4.8659 C   0  0  0  0  0  0  0  0  0  0  0  0
    2.0145   -4.5870   -6.1495 C   0  0  0  0  0  0  0  0  0  0  0  0
    1.7700   -5.4719   -7.2042 C   0  0  0  0  0  0  0  0  0  0  0  0
    1.0118   -6.6294   -6.9895 C   0  0  0  0  0  0  0  0  0  0  0  0
    0.7068   -7.7647   -8.3491 S   0  0  0  0  0  0  0  0  0  0  0  0
   -0.8599   -6.9734   -8.8193 C   0  0  0  0  0  0  0  0  0  0  0  0
    0.5153   -6.9078   -5.7122 C   0  0  0  0  0  0  0  0  0  0  0  0
    0.7460   -6.0201   -4.6583 C   0  0  0  0  0  0  0  0  0  0  0  0
    2.9944   -3.2398   -3.6726 C   0  0  0  0  0  0  0  0  0  0  0  0
    4.1848   -3.9840   -3.6816 C   0  0  0  0  0  0  0  0  0  0  0  0
    5.4253   -3.3362   -3.7125 C   0  0  0  0  0  0  0  0  0  0  0  0
    5.4792   -1.9349   -3.7532 C   0  0  0  0  0  0  0  0  0  0  0  0
    7.0595   -1.0957   -3.8572 S   0  0  0  0  0  0  0  0  0  0  0  0
    7.2650   -0.9682   -2.0607 C   0  0  0  0  0  0  0  0  0  0  0  0
    4.2994   -1.1856   -3.7462 C   0  0  0  0  0  0  0  0  0  0  0  0
    3.0636   -1.8345   -3.6756 C   0  0  0  0  0  0  0  0  0  0  0  0
    0.7519   -4.1788   -1.4934 C   0  0  0  0  0  0  0  0  0  0  0  0
    2.0638   -4.5256   -0.5301 S   0  0  0  0  0  0  0  0  0  0  0  0
    1.3602   -4.0627    0.9737 C   0  0  0  0  0  0  0  0  0  0  0  0
    0.0322   -3.6340    0.6669 C   0  0  0  0  0  0  0  0  0  0  0  0
   -0.8084   -2.7936    1.4764 N   0  0  0  0  0  0  0  0  0  0  0  0
   -2.1380   -3.3056    1.7233 C   0  0  0  0  0  0  0  0  0  0  0  0
   -2.3046   -4.6073    2.2242 C   0  0  0  0  0  0  0  0  0  0  0  0
   -3.5849   -5.1519    2.3799 C   0  0  0  0  0  0  0  0  0  0  0  0
   -4.7107   -4.4128    2.0088 C   0  0  0  0  0  0  0  0  0  0  0  0
   -6.3448   -5.1266    2.1888 S   0  0  0  0  0  0  0  0  0  0  0  0
   -6.4184   -5.7184    0.4690 C   0  0  0  0  0  0  0  0  0  0  0  0
   -4.5578   -3.1216    1.4827 C   0  0  0  0  0  0  0  0  0  0  0  0
   -3.2801   -2.5842    1.3187 C   0  0  0  0  0  0  0  0  0  0  0  0
   -0.5075   -1.3720    1.6194 C   0  0  0  0  0  0  0  0  0  0  0  0
    0.5437   -0.7609    0.9020 C   0  0  0  0  0  0  0  0  0  0  0  0
    0.8096    0.6025    1.0516 C   0  0  0  0  0  0  0  0  0  0  0  0
    0.0596    1.3786    1.9303 C   0  0  0  0  0  0  0  0  0  0  0  0
    0.4221    3.1253    2.1181 S   0  0  0  0  0  0  0  0  0  0  0  0
    1.6014    2.8649    3.4817 C   0  0  0  0  0  0  0  0  0  0  0  0
   -0.9814    0.7928    2.6579 C   0  0  0  0  0  0  0  0  0  0  0  0
   -1.2557   -0.5659    2.5068 C   0  0  0  0  0  0  0  0  0  0  0  0
   -0.2695   -3.7846   -0.6923 C   0  0  0  0  0  0  0  0  0  0  0  0
   -1.3802   -2.9421   -1.6129 S   0  0  0  0  0  0  0  0  0  0  0  0
    2.2370   -3.7534    2.1646 C   0  0  0  0  0  0  0  0  0  0  0  0
    3.6298   -3.9690    2.0088 C   0  0  0  0  0  0  0  0  0  0  0  0
    4.5529   -3.1142    2.6127 C   0  0  0  0  0  0  0  0  0  0  0  0
    4.0879   -2.0512    3.3893 C   0  0  0  0  0  0  0  0  0  0  0  0
    2.7830   -2.1234    3.8847 C   0  0  0  0  0  0  0  0  0  0  0  0
    2.4192   -1.3871    4.9590 N   0  0  0  0  0  0  0  0  0  0  0  0
    1.1888   -1.4898    5.5283 C   0  0  0  0  0  0  0  0  0  0  0  0
    0.9741   -0.7867    6.8203 C   0  0  0  0  0  0  0  0  0  0  0  0
    0.3612   -1.4395    7.9017 C   0  0  0  0  0  0  0  0  0  0  0  0
    0.1982   -0.7793    9.1233 C   0  0  0  0  0  0  0  0  0  0  0  0
    0.6794    0.5276    9.2972 C   0  0  0  0  0  0  0  0  0  0  0  0
    0.4665    1.2499   10.6014 C   0  0  0  0  0  0  0  0  0  0  0  0
   -0.7482    2.1776   10.5247 C   0  0  0  0  0  0  0  0  0  0  0  0
    1.3191    1.1733    8.2187 C   0  0  0  0  0  0  0  0  0  0  0  0
    1.4743    0.5139    6.9962 C   0  0  0  0  0  0  0  0  0  0  0  0
    0.2237   -2.3293    4.9134 C   0  0  0  0  0  0  0  0  0  0  0  0
    0.5929   -3.0573    3.8150 N   0  0  0  0  0  0  0  0  0  0  0  0
    1.8407   -2.9878    3.2853 C   0  0  0  0  0  0  0  0  0  0  0  0
   -1.1972   -2.3789    5.3501 C   0  0  0  0  0  0  0  0  0  0  0  0
   -1.8809   -1.2038    5.7202 C   0  0  0  0  0  0  0  0  0  0  0  0
   -3.2421   -1.2435    6.0172 C   0  0  0  0  0  0  0  0  0  0  0  0
   -3.9441   -2.4567    5.9637 C   0  0  0  0  0  0  0  0  0  0  0  0
   -5.4290   -2.4792    6.1979 C   0  0  0  0  0  0  0  0  0  0  0  0
   -6.1739   -1.9724    4.9610 C   0  0  0  0  0  0  0  0  0  0  0  0
   -3.2665   -3.6307    5.5990 C   0  0  0  0  0  0  0  0  0  0  0  0
   -1.9023   -3.5918    5.3035 C   0  0  0  0  0  0  0  0  0  0  0  0
    4.8486   -0.7914    3.4948 C   0  0  0  0  0  0  0  0  0  0  0  0
    5.0682   -0.0012    2.4199 C   0  0  0  0  0  0  0  0  0  0  0  0
    4.7185   -0.3148    1.0245 C   0  0  0  0  0  0  0  0  0  0  0  0
    4.6460   -1.4548    0.4929 O   0  0  0  0  0  0  0  0  0  0  0  0
    4.4446    0.9102    0.3208 C   0  0  0  0  0  0  0  0  0  0  0  0
    3.8094    1.0232   -0.9312 C   0  0  0  0  0  0  0  0  0  0  0  0
    3.3904    2.3041   -1.2314 C   0  0  0  0  0  0  0  0  0  0  0  0
    3.5886    3.4190   -0.3607 C   0  0  0  0  0  0  0  0  0  0  0  0
    4.2303    3.3160    0.8712 C   0  0  0  0  0  0  0  0  0  0  0  0
    4.6890    2.0045    1.1829 C   0  0  0  0  0  0  0  0  0  0  0  0
    5.2531    1.4813    2.4577 C   0  0  0  0  0  0  0  0  0  0  0  0
    5.9895    2.1805    3.3528 C   0  0  0  0  0  0  0  0  0  0  0  0
    6.6645    1.5415    4.4520 C   0  0  0  0  0  0  0  0  0  0  0  0
    7.2134    1.0234    5.3291 N   0  0  0  0  0  0  0  0  0  0  0  0
    6.2855    3.5834    3.1631 C   0  0  0  0  0  0  0  0  0  0  0  0
    6.5416    4.6984    3.0043 N   0  0  0  0  0  0  0  0  0  0  0  0
    2.8183    4.3053   -1.2997 C   0  0  0  0  0  0  0  0  0  0  0  0
    3.6438    5.2881   -2.1797 C   0  0  0  0  0  0  0  0  0  0  0  0
    2.7107    5.7449   -3.2784 C   0  0  0  0  0  0  0  0  0  0  0  0
    2.5301    4.6905   -4.0852 C   0  0  0  0  0  0  0  0  0  0  0  0
    3.3371    3.5596   -3.5010 C   0  0  0  0  0  0  0  0  0  0  0  0
    4.5267    4.3594   -2.9980 C   0  0  0  0  0  0  0  0  0  0  0  0
    2.6155    3.1542   -2.1809 C   0  0  0  0  0  0  0  0  0  0  0  0
   -0.8705    6.8266   -6.2125 H   0  0  0  0  0  0  0  0  0  0  0  0
   -5.2226    4.2265   -2.5185 H   0  0  0  0  0  0  0  0  0  0  0  0
   -3.1544    8.7934   -1.5515 H   0  0  0  0  0  0  0  0  0  0  0  0
   -5.5676    7.9101    0.7813 H   0  0  0  0  0  0  0  0  0  0  0  0
   -3.4473    7.6817    2.2426 H   0  0  0  0  0  0  0  0  0  0  0  0
   -1.6768    6.0687    1.0959 H   0  0  0  0  0  0  0  0  0  0  0  0
   -2.8085    3.7691    0.6792 H   0  0  0  0  0  0  0  0  0  0  0  0
   -5.3297    3.9216    1.5092 H   0  0  0  0  0  0  0  0  0  0  0  0
   -5.5985    6.2012    2.8505 H   0  0  0  0  0  0  0  0  0  0  0  0
   -4.0659    5.3433    3.3345 H   0  0  0  0  0  0  0  0  0  0  0  0
   -6.5768    5.8459    0.3318 H   0  0  0  0  0  0  0  0  0  0  0  0
   -1.1268    4.6210   -3.6504 H   0  0  0  0  0  0  0  0  0  0  0  0
   -0.7736    1.6640   -1.3005 H   0  0  0  0  0  0  0  0  0  0  0  0
   -0.9600    3.3448   -1.8258 H   0  0  0  0  0  0  0  0  0  0  0  0
   -3.1351    2.7545   -2.9835 H   0  0  0  0  0  0  0  0  0  0  0  0
   -2.9628    1.0533   -2.3767 H   0  0  0  0  0  0  0  0  0  0  0  0
   -3.1801    2.4141   -1.2042 H   0  0  0  0  0  0  0  0  0  0  0  0
   -0.0696    2.0503   -7.7985 H   0  0  0  0  0  0  0  0  0  0  0  0
   -0.7153    4.4623   -7.9557 H   0  0  0  0  0  0  0  0  0  0  0  0
    0.0507   -0.4809   -7.0438 H   0  0  0  0  0  0  0  0  0  0  0  0
   -0.1514   -2.6370   -5.8026 H   0  0  0  0  0  0  0  0  0  0  0  0
   -0.6641   -0.4329   -2.1083 H   0  0  0  0  0  0  0  0  0  0  0  0
    2.5861   -3.6850   -6.3399 H   0  0  0  0  0  0  0  0  0  0  0  0
    2.1548   -5.2443   -8.1934 H   0  0  0  0  0  0  0  0  0  0  0  0
   -1.2916   -7.5216   -9.6810 H   0  0  0  0  0  0  0  0  0  0  0  0
   -0.6804   -5.9202   -9.1180 H   0  0  0  0  0  0  0  0  0  0  0  0
   -1.5817   -7.0061   -7.9773 H   0  0  0  0  0  0  0  0  0  0  0  0
   -0.0635   -7.8027   -5.5449 H   0  0  0  0  0  0  0  0  0  0  0  0
    0.3491   -6.2570   -3.6766 H   0  0  0  0  0  0  0  0  0  0  0  0
    4.1477   -5.0648   -3.6849 H   0  0  0  0  0  0  0  0  0  0  0  0
    6.3357   -3.9223   -3.7335 H   0  0  0  0  0  0  0  0  0  0  0  0
    8.1956   -0.4084   -1.8440 H   0  0  0  0  0  0  0  0  0  0  0  0
    6.4057   -0.4217   -1.6208 H   0  0  0  0  0  0  0  0  0  0  0  0
    7.3338   -1.9820   -1.6177 H   0  0  0  0  0  0  0  0  0  0  0  0
    4.3325   -0.1042   -3.8010 H   0  0  0  0  0  0  0  0  0  0  0  0
    2.1651   -1.2386   -3.6719 H   0  0  0  0  0  0  0  0  0  0  0  0
   -1.4396   -5.1953    2.5100 H   0  0  0  0  0  0  0  0  0  0  0  0
   -3.6860   -6.1478    2.7959 H   0  0  0  0  0  0  0  0  0  0  0  0
   -7.2976   -6.3858    0.3455 H   0  0  0  0  0  0  0  0  0  0  0  0
   -6.5276   -4.8507   -0.2181 H   0  0  0  0  0  0  0  0  0  0  0  0
   -5.4948   -6.2837    0.2029 H   0  0  0  0  0  0  0  0  0  0  0  0
   -5.4228   -2.5479    1.1863 H   0  0  0  0  0  0  0  0  0  0  0  0
   -3.1799   -1.6053    0.8635 H   0  0  0  0  0  0  0  0  0  0  0  0
    1.1509   -1.3225    0.2061 H   0  0  0  0  0  0  0  0  0  0  0  0
    1.5966    1.0625    0.4794 H   0  0  0  0  0  0  0  0  0  0  0  0
    2.3883    2.1451    3.1808 H   0  0  0  0  0  0  0  0  0  0  0  0
    2.0767    3.8356    3.7465 H   0  0  0  0  0  0  0  0  0  0  0  0
    1.0567    2.4783    4.3710 H   0  0  0  0  0  0  0  0  0  0  0  0
   -1.5766    1.3860    3.3458 H   0  0  0  0  0  0  0  0  0  0  0  0
   -2.0736   -0.9874    3.0739 H   0  0  0  0  0  0  0  0  0  0  0  0
    4.0137   -4.6781    1.2775 H   0  0  0  0  0  0  0  0  0  0  0  0
    5.5883   -3.1632    2.3112 H   0  0  0  0  0  0  0  0  0  0  0  0
    0.0127   -2.4623    7.8138 H   0  0  0  0  0  0  0  0  0  0  0  0
   -0.2966   -1.2887    9.9370 H   0  0  0  0  0  0  0  0  0  0  0  0
    0.3130    0.5104   11.4182 H   0  0  0  0  0  0  0  0  0  0  0  0
    1.3770    1.8356   10.8614 H   0  0  0  0  0  0  0  0  0  0  0  0
   -1.2709    2.1989   11.5118 H   0  0  0  0  0  0  0  0  0  0  0  0
   -1.4750    1.8355    9.7477 H   0  0  0  0  0  0  0  0  0  0  0  0
   -0.4195    3.2175   10.2832 H   0  0  0  0  0  0  0  0  0  0  0  0
    1.6897    2.1847    8.3239 H   0  0  0  0  0  0  0  0  0  0  0  0
    1.9728    1.0243    6.1768 H   0  0  0  0  0  0  0  0  0  0  0  0
   -1.3861   -0.2384    5.7151 H   0  0  0  0  0  0  0  0  0  0  0  0
   -3.7572   -0.3273    6.2738 H   0  0  0  0  0  0  0  0  0  0  0  0
   -5.7730   -3.5125    6.4326 H   0  0  0  0  0  0  0  0  0  0  0  0
   -5.6761   -1.8324    7.0712 H   0  0  0  0  0  0  0  0  0  0  0  0
   -7.2658   -2.0192    5.1454 H   0  0  0  0  0  0  0  0  0  0  0  0
   -5.8842   -0.9146    4.7571 H   0  0  0  0  0  0  0  0  0  0  0  0
   -5.9168   -2.5942    4.0727 H   0  0  0  0  0  0  0  0  0  0  0  0
   -3.7987   -4.5714    5.5027 H   0  0  0  0  0  0  0  0  0  0  0  0
   -1.3969   -4.5063    5.0099 H   0  0  0  0  0  0  0  0  0  0  0  0
    4.9237   -0.3614    4.4880 H   0  0  0  0  0  0  0  0  0  0  0  0
    3.5551    0.1671   -1.5295 H   0  0  0  0  0  0  0  0  0  0  0  0
    4.2761    4.1464    1.5517 H   0  0  0  0  0  0  0  0  0  0  0  0
    1.8825    4.7123   -0.8604 H   0  0  0  0  0  0  0  0  0  0  0  0
    4.1712    6.1026   -1.6314 H   0  0  0  0  0  0  0  0  0  0  0  0
    2.3383    6.7456   -3.4516 H   0  0  0  0  0  0  0  0  0  0  0  0
    1.9927    4.6957   -5.0263 H   0  0  0  0  0  0  0  0  0  0  0  0
    3.5710    2.7246   -4.2010 H   0  0  0  0  0  0  0  0  0  0  0  0
    5.2549    3.7712   -2.3978 H   0  0  0  0  0  0  0  0  0  0  0  0
    5.0857    4.8837   -3.8107 H   0  0  0  0  0  0  0  0  0  0  0  0
    1.5599    2.8413   -2.2890 H   0  0  0  0  0  0  0  0  0  0  0  0
  1  2  2  3
  2  3  1  0
  3  4  2  0
  3  5  1  0
  5  6  2  0
  6  7  1  0
  7  8  2  0
  8  9  1  0
  9 10  2  0
 10 11  1  0
 11 12  2  3
 12 13  1  0
 13 14  3  0
 12 15  1  0
 15 16  3  0
  8 17  1  0
 17 18  1  0
 18 19  1  0
 19 20  2  0
 20 21  1  0
 21 22  1  0
 21 23  1  0
  1 24  1  0
 24 25  2  0
 25 26  1  0
 26 27  1  0
 27 28  1  0
 28 29  1  0
 27 30  1  0
 30 31  2  0
 31 32  1  0
 32 33  1  0
 33 34  2  0
 31 35  1  0
 35 36  2  0
 36 37  1  0
 37 38  2  0
 37 39  1  0
 39 40  2  0
 40 41  1  0
 41 42  1  0
 42 43  2  0
 43 44  1  0
 44 45  2  0
 45 46  1  0
 46 47  1  0
 45 48  1  0
 48 49  2  0
 41 50  1  0
 50 51  2  0
 51 52  1  0
 52 53  2  0
 53 54  1  0
 54 55  1  0
 53 56  1  0
 56 57  2  0
 40 58  1  0
 58 59  1  0
 59 60  1  0
 60 61  2  0
 61 62  1  0
 62 63  1  0
 63 64  2  0
 64 65  1  0
 65 66  2  0
 66 67  1  0
 67 68  1  0
 66 69  1  0
 69 70  2  0
 62 71  1  0
 71 72  2  0
 72 73  1  0
 73 74  2  0
 74 75  1  0
 75 76  1  0
 74 77  1  0
 77 78  2  0
 61 79  1  0
 79 80  1  0
 60 81  1  0
 81 82  2  0
 82 83  1  0
 83 84  2  0
 84 85  1  0
 85 86  2  0
 86 87  1  0
 87 88  1  0
 88 89  2  0
 89 90  1  0
 90 91  2  0
 91 92  1  0
 92 93  1  0
 91 94  1  0
 94 95  2  0
 87 96  2  0
 96 97  1  0
 97 98  2  0
 96 99  1  0
 99100  2  0
100101  1  0
101102  2  0
102103  1  0
103104  1  0
102105  1  0
105106  2  0
 84107  1  0
107108  2  3
108109  1  0
109110  2  0
109111  1  0
111112  2  0
112113  1  0
113114  2  0
114115  1  0
115116  2  0
116117  1  0
117118  2  3
118119  1  0
119120  3  0
118121  1  0
121122  3  0
114123  1  0
123124  1  0
124125  1  0
125126  2  0
126127  1  0
127128  1  0
127129  1  0
 11  2  1  0
 23 17  1  0
 34 24  1  0
 80 39  1  0
 98 81  1  0
106 99  1  0
117108  1  0
129123  1  0
 10  5  1  0
 22 18  1  0
 32 26  2  0
 49 42  1  0
 57 50  1  0
 79 58  2  0
 98 85  1  0
116111  1  0
128124  1  0
 23  7  1  0
 38 30  1  0
 70 63  1  0
 78 71  1  0
 95 88  1  0
129113  1  0
  1130  1  0
  6131  1  0
  9132  1  0
 17133  1  0
 18134  1  0
 19135  1  0
 20136  1  0
 21137  1  0
 22138  1  0
 22139  1  0
 23140  1  0
 25141  1  0
 28142  1  0
 28143  1  0
 29144  1  0
 29145  1  0
 29146  1  0
 33147  1  0
 34148  1  0
 35149  1  0
 36150  1  0
 38151  1  0
 43152  1  0
 44153  1  0
 47154  1  0
 47155  1  0
 47156  1  0
 48157  1  0
 49158  1  0
 51159  1  0
 52160  1  0
 55161  1  0
 55162  1  0
 55163  1  0
 56164  1  0
 57165  1  0
 64166  1  0
 65167  1  0
 68168  1  0
 68169  1  0
 68170  1  0
 69171  1  0
 70172  1  0
 72173  1  0
 73174  1  0
 76175  1  0
 76176  1  0
 76177  1  0
 77178  1  0
 78179  1  0
 82180  1  0
 83181  1  0
 89182  1  0
 90183  1  0
 92184  1  0
 92185  1  0
 93186  1  0
 93187  1  0
 93188  1  0
 94189  1  0
 95190  1  0
100191  1  0
101192  1  0
103193  1  0
103194  1  0
104195  1  0
104196  1  0
104197  1  0
105198  1  0
106199  1  0
107200  1  0
112201  1  0
115202  1  0
123203  1  0
124204  1  0
125205  1  0
126206  1  0
127207  1  0
128208  1  0
128209  1  0
129210  1  0
M  END

