
     RDKit          3D

233256  0  0  0  0  0  0  0  0999 V2000
   -1.8137   -7.6532    4.2974 C   0  0  0  0  0  0  0  0  0  0  0  0
   -3.0555   -7.1274    4.2844 C   0  0  0  0  0  0  0  0  0  0  0  0
   -4.0784   -7.6444    3.3625 C   0  0  0  0  0  0  0  0  0  0  0  0
   -4.1966   -8.8425    2.9893 O   0  0  0  0  0  0  0  0  0  0  0  0
   -4.8469   -6.5218    2.8469 C   0  0  0  0  0  0  0  0  0  0  0  0
   -5.8154   -6.5178    1.8113 C   0  0  0  0  0  0  0  0  0  0  0  0
   -6.2821   -5.2487    1.4799 C   0  0  0  0  0  0  0  0  0  0  0  0
   -5.7971   -4.0547    2.1086 C   0  0  0  0  0  0  0  0  0  0  0  0
   -4.8354   -4.0561    3.1046 C   0  0  0  0  0  0  0  0  0  0  0  0
   -4.3981   -5.3449    3.4958 C   0  0  0  0  0  0  0  0  0  0  0  0
   -3.4121   -5.7090    4.5311 C   0  0  0  0  0  0  0  0  0  0  0  0
   -3.2581   -5.0668    5.7164 C   0  0  0  0  0  0  0  0  0  0  0  0
   -3.8645   -3.7848    5.9802 C   0  0  0  0  0  0  0  0  0  0  0  0
   -4.3320   -2.7544    6.2095 N   0  0  0  0  0  0  0  0  0  0  0  0
   -2.5651   -5.6791    6.8269 C   0  0  0  0  0  0  0  0  0  0  0  0
   -1.9768   -6.1367    7.7100 N   0  0  0  0  0  0  0  0  0  0  0  0
   -6.6677   -3.2124    1.2289 C   0  0  0  0  0  0  0  0  0  0  0  0
   -5.9623   -2.4633    0.0696 C   0  0  0  0  0  0  0  0  0  0  0  0
   -7.0694   -2.0082   -0.8611 C   0  0  0  0  0  0  0  0  0  0  0  0
   -7.5551   -3.1170   -1.4374 C   0  0  0  0  0  0  0  0  0  0  0  0
   -6.7510   -4.2765   -0.8901 C   0  0  0  0  0  0  0  0  0  0  0  0
   -5.4049   -3.5948   -0.7789 C   0  0  0  0  0  0  0  0  0  0  0  0
   -7.1874   -4.4347    0.6016 C   0  0  0  0  0  0  0  0  0  0  0  0
   -0.6282   -6.8116    4.0189 C   0  0  0  0  0  0  0  0  0  0  0  0
    0.0606   -6.8571    2.7953 C   0  0  0  0  0  0  0  0  0  0  0  0
    0.0639   -7.9782    1.8972 N   0  0  0  0  0  0  0  0  0  0  0  0
   -1.0609   -8.2144    1.0287 C   0  0  0  0  0  0  0  0  0  0  0  0
   -1.5554   -7.1867    0.2019 C   0  0  0  0  0  0  0  0  0  0  0  0
   -2.5923   -7.4640   -0.6995 C   0  0  0  0  0  0  0  0  0  0  0  0
   -3.1491   -8.7408   -0.7682 C   0  0  0  0  0  0  0  0  0  0  0  0
   -2.6675   -9.7593    0.0537 C   0  0  0  0  0  0  0  0  0  0  0  0
   -1.6221   -9.4995    0.9450 C   0  0  0  0  0  0  0  0  0  0  0  0
    1.2059   -8.8696    1.8900 C   0  0  0  0  0  0  0  0  0  0  0  0
    1.6320   -9.4889    0.6939 C   0  0  0  0  0  0  0  0  0  0  0  0
    2.7268  -10.3614    0.6945 C   0  0  0  0  0  0  0  0  0  0  0  0
    3.4042  -10.6293    1.8869 C   0  0  0  0  0  0  0  0  0  0  0  0
    3.0014  -10.0161    3.0753 C   0  0  0  0  0  0  0  0  0  0  0  0
    1.9180   -9.1342    3.0810 C   0  0  0  0  0  0  0  0  0  0  0  0
    0.8965   -5.7598    2.6515 C   0  0  0  0  0  0  0  0  0  0  0  0
    1.6193   -5.0758    1.3078 S   0  0  0  0  0  0  0  0  0  0  0  0
    2.0197   -3.6324    2.1202 C   0  0  0  0  0  0  0  0  0  0  0  0
    1.5852   -3.6962    3.4495 C   0  0  0  0  0  0  0  0  0  0  0  0
    1.9169   -2.7300    4.4604 N   0  0  0  0  0  0  0  0  0  0  0  0
    0.9030   -1.8005    4.8784 C   0  0  0  0  0  0  0  0  0  0  0  0
    0.0715   -2.1050    5.9636 C   0  0  0  0  0  0  0  0  0  0  0  0
   -0.8496   -1.1593    6.4320 C   0  0  0  0  0  0  0  0  0  0  0  0
   -0.9293    0.0989    5.8269 C   0  0  0  0  0  0  0  0  0  0  0  0
   -0.0858    0.4132    4.7561 C   0  0  0  0  0  0  0  0  0  0  0  0
    0.8297   -0.5342    4.2799 C   0  0  0  0  0  0  0  0  0  0  0  0
    3.2193   -2.7619    5.1007 C   0  0  0  0  0  0  0  0  0  0  0  0
    3.5239   -1.8862    6.1641 C   0  0  0  0  0  0  0  0  0  0  0  0
    4.7731   -1.9277    6.7918 C   0  0  0  0  0  0  0  0  0  0  0  0
    5.7387   -2.8332    6.3615 C   0  0  0  0  0  0  0  0  0  0  0  0
    5.4656   -3.7016    5.3095 C   0  0  0  0  0  0  0  0  0  0  0  0
    4.2154   -3.6726    4.6786 C   0  0  0  0  0  0  0  0  0  0  0  0
    0.9358   -4.9016    3.6927 C   0  0  0  0  0  0  0  0  0  0  0  0
   -0.1237   -5.4286    4.8764 S   0  0  0  0  0  0  0  0  0  0  0  0
    2.3011   -2.3931    1.4011 C   0  0  0  0  0  0  0  0  0  0  0  0
    1.4816   -1.8714    0.3945 C   0  0  0  0  0  0  0  0  0  0  0  0
    0.1049   -2.2461    0.1769 N   0  0  0  0  0  0  0  0  0  0  0  0
   -0.8864   -1.5856    0.9787 C   0  0  0  0  0  0  0  0  0  0  0  0
   -1.2966   -2.1395    2.2010 C   0  0  0  0  0  0  0  0  0  0  0  0
   -2.2028   -1.4568    3.0134 C   0  0  0  0  0  0  0  0  0  0  0  0
   -2.7466   -0.2302    2.5942 C   0  0  0  0  0  0  0  0  0  0  0  0
   -3.7535    0.7367    3.7244 S   0  0  0  0  0  0  0  0  0  0  0  0
   -5.3403    0.0089    3.2215 C   0  0  0  0  0  0  0  0  0  0  0  0
   -2.3918    0.2847    1.3498 C   0  0  0  0  0  0  0  0  0  0  0  0
   -1.4685   -0.3854    0.5419 C   0  0  0  0  0  0  0  0  0  0  0  0
   -0.2908   -3.0096   -0.9918 C   0  0  0  0  0  0  0  0  0  0  0  0
    0.6362   -3.3323   -2.0035 C   0  0  0  0  0  0  0  0  0  0  0  0
    0.2416   -4.0820   -3.1135 C   0  0  0  0  0  0  0  0  0  0  0  0
   -1.0848   -4.5152   -3.2375 C   0  0  0  0  0  0  0  0  0  0  0  0
   -1.5767   -5.5160   -4.6453 S   0  0  0  0  0  0  0  0  0  0  0  0
   -2.3679   -4.1293   -5.5226 C   0  0  0  0  0  0  0  0  0  0  0  0
   -2.0089   -4.1982   -2.2473 C   0  0  0  0  0  0  0  0  0  0  0  0
   -1.6166   -3.4593   -1.1253 C   0  0  0  0  0  0  0  0  0  0  0  0
    2.0738   -0.7766   -0.1962 C   0  0  0  0  0  0  0  0  0  0  0  0
    1.6045    0.2346   -1.4355 S   0  0  0  0  0  0  0  0  0  0  0  0
    2.9700    1.2406   -1.2897 C   0  0  0  0  0  0  0  0  0  0  0  0
    3.7889    0.7890   -0.2351 C   0  0  0  0  0  0  0  0  0  0  0  0
    4.8389    1.5680    0.3522 N   0  0  0  0  0  0  0  0  0  0  0  0
    4.5124    2.5582    1.3412 C   0  0  0  0  0  0  0  0  0  0  0  0
    4.8735    3.9015    1.1539 C   0  0  0  0  0  0  0  0  0  0  0  0
    4.4828    4.8740    2.0804 C   0  0  0  0  0  0  0  0  0  0  0  0
    3.7417    4.5124    3.2119 C   0  0  0  0  0  0  0  0  0  0  0  0
    3.2084    5.7563    4.3755 S   0  0  0  0  0  0  0  0  0  0  0  0
    1.6064    6.0246    3.5487 C   0  0  0  0  0  0  0  0  0  0  0  0
    3.4044    3.1696    3.4198 C   0  0  0  0  0  0  0  0  0  0  0  0
    3.7770    2.2030    2.4916 C   0  0  0  0  0  0  0  0  0  0  0  0
    6.2023    1.2951    0.0330 C   0  0  0  0  0  0  0  0  0  0  0  0
    6.8619    2.0464   -0.9507 C   0  0  0  0  0  0  0  0  0  0  0  0
    8.2113    1.8116   -1.2241 C   0  0  0  0  0  0  0  0  0  0  0  0
    8.9066    0.8184   -0.5268 C   0  0  0  0  0  0  0  0  0  0  0  0
   10.6423    0.5092   -0.8970 S   0  0  0  0  0  0  0  0  0  0  0  0
   11.2330    1.4491    0.5453 C   0  0  0  0  0  0  0  0  0  0  0  0
    8.2454    0.0433    0.4386 C   0  0  0  0  0  0  0  0  0  0  0  0
    6.9006    0.2950    0.7295 C   0  0  0  0  0  0  0  0  0  0  0  0
    3.2637   -0.3863    0.3201 C   0  0  0  0  0  0  0  0  0  0  0  0
    3.7055   -1.4359    1.5686 S   0  0  0  0  0  0  0  0  0  0  0  0
    3.1311    2.4116   -2.1506 C   0  0  0  0  0  0  0  0  0  0  0  0
    2.7052    2.3403   -3.4798 C   0  0  0  0  0  0  0  0  0  0  0  0
    2.0474    3.4947   -3.9223 C   0  0  0  0  0  0  0  0  0  0  0  0
    1.2353    3.5827   -5.0756 C   0  0  0  0  0  0  0  0  0  0  0  0
    1.0934    2.4619   -6.0333 C   0  0  0  0  0  0  0  0  0  0  0  0
    0.7269    1.1650   -5.7197 C   0  0  0  0  0  0  0  0  0  0  0  0
    0.7070    0.2992   -6.8265 C   0  0  0  0  0  0  0  0  0  0  0  0
    0.4172   -1.1696   -6.6811 C   0  0  0  0  0  0  0  0  0  0  0  0
    1.5513   -1.8800   -5.9483 C   0  0  0  0  0  0  0  0  0  0  0  0
    1.0278    0.9450   -8.0226 C   0  0  0  0  0  0  0  0  0  0  0  0
    1.1113    0.3369   -9.4002 C   0  0  0  0  0  0  0  0  0  0  0  0
    2.4367   -0.3942   -9.5910 C   0  0  0  0  0  0  0  0  0  0  0  0
    1.3571    2.5663   -7.6898 S   0  0  0  0  0  0  0  0  0  0  0  0
    0.4096    4.7164   -5.1783 C   0  0  0  0  0  0  0  0  0  0  0  0
    0.4513    5.7599   -4.2423 C   0  0  0  0  0  0  0  0  0  0  0  0
    1.3644    5.7308   -3.1667 C   0  0  0  0  0  0  0  0  0  0  0  0
    1.5512    6.9006   -2.2845 C   0  0  0  0  0  0  0  0  0  0  0  0
    1.7308    8.1993   -2.7363 C   0  0  0  0  0  0  0  0  0  0  0  0
    1.9536    9.1371   -1.7117 C   0  0  0  0  0  0  0  0  0  0  0  0
    2.1282   10.6235   -1.9323 C   0  0  0  0  0  0  0  0  0  0  0  0
    2.4389   11.0181   -3.3792 C   0  0  0  0  0  0  0  0  0  0  0  0
    1.9345    8.5508   -0.4378 C   0  0  0  0  0  0  0  0  0  0  0  0
    1.6350    6.9009   -0.6031 S   0  0  0  0  0  0  0  0  0  0  0  0
    1.9997    9.2569    0.8848 C   0  0  0  0  0  0  0  0  0  0  0  0
    0.6098    9.6786    1.3419 C   0  0  0  0  0  0  0  0  0  0  0  0
    2.0904    4.5396   -2.9948 C   0  0  0  0  0  0  0  0  0  0  0  0
    2.8448    3.9761   -1.5953 S   0  0  0  0  0  0  0  0  0  0  0  0
   -0.6317    6.6469   -4.3591 C   0  0  0  0  0  0  0  0  0  0  0  0
   -1.5248    6.2728   -5.3599 C   0  0  0  0  0  0  0  0  0  0  0  0
   -0.9616    4.8850   -6.1308 S   0  0  0  0  0  0  0  0  0  0  0  0
   -2.9161    6.7300   -5.4634 C   0  0  0  0  0  0  0  0  0  0  0  0
   -3.8593    6.4315   -4.5438 C   0  0  0  0  0  0  0  0  0  0  0  0
   -3.6449    5.6035   -3.3363 C   0  0  0  0  0  0  0  0  0  0  0  0
   -2.5658    5.1125   -2.9228 O   0  0  0  0  0  0  0  0  0  0  0  0
   -4.9251    5.3958   -2.7016 C   0  0  0  0  0  0  0  0  0  0  0  0
   -5.9085    6.0445   -3.4058 C   0  0  0  0  0  0  0  0  0  0  0  0
   -7.2020    5.7941   -2.9319 C   0  0  0  0  0  0  0  0  0  0  0  0
   -7.0301    4.7490   -1.6058 S   0  0  0  0  0  0  0  0  0  0  0  0
   -5.3461    4.6267   -1.6269 C   0  0  0  0  0  0  0  0  0  0  0  0
   -4.5042    3.7413   -0.7776 C   0  0  0  0  0  0  0  0  0  0  0  0
   -5.3362    6.7470   -4.5831 C   0  0  0  0  0  0  0  0  0  0  0  0
   -6.0236    7.5364   -5.4431 C   0  0  0  0  0  0  0  0  0  0  0  0
   -5.4136    8.1899   -6.5651 C   0  0  0  0  0  0  0  0  0  0  0  0
   -4.9411    8.7149   -7.4803 N   0  0  0  0  0  0  0  0  0  0  0  0
   -7.4342    7.7904   -5.2735 C   0  0  0  0  0  0  0  0  0  0  0  0
   -8.5631    8.0064   -5.1509 N   0  0  0  0  0  0  0  0  0  0  0  0
   -1.7076   -8.6922    3.9973 H   0  0  0  0  0  0  0  0  0  0  0  0
   -6.1510   -7.4178    1.3088 H   0  0  0  0  0  0  0  0  0  0  0  0
   -4.4569   -3.1427    3.5200 H   0  0  0  0  0  0  0  0  0  0  0  0
   -7.4185   -2.6161    1.7941 H   0  0  0  0  0  0  0  0  0  0  0  0
   -5.2368   -1.6734    0.3626 H   0  0  0  0  0  0  0  0  0  0  0  0
   -7.3621   -0.9932   -1.0838 H   0  0  0  0  0  0  0  0  0  0  0  0
   -8.3223   -3.1490   -2.2048 H   0  0  0  0  0  0  0  0  0  0  0  0
   -6.7830   -5.2002   -1.4994 H   0  0  0  0  0  0  0  0  0  0  0  0
   -5.0084   -3.2490   -1.7674 H   0  0  0  0  0  0  0  0  0  0  0  0
   -4.6236   -4.1981   -0.2688 H   0  0  0  0  0  0  0  0  0  0  0  0
   -8.2700   -4.6173    0.7636 H   0  0  0  0  0  0  0  0  0  0  0  0
   -1.1243   -6.2000    0.2293 H   0  0  0  0  0  0  0  0  0  0  0  0
   -2.9540   -6.6887   -1.3603 H   0  0  0  0  0  0  0  0  0  0  0  0
   -3.9455   -8.9439   -1.4771 H   0  0  0  0  0  0  0  0  0  0  0  0
   -3.0963  -10.7526   -0.0005 H   0  0  0  0  0  0  0  0  0  0  0  0
   -1.2451  -10.3000    1.5694 H   0  0  0  0  0  0  0  0  0  0  0  0
    1.1148   -9.2935   -0.2385 H   0  0  0  0  0  0  0  0  0  0  0  0
    3.0510  -10.8225   -0.2287 H   0  0  0  0  0  0  0  0  0  0  0  0
    4.2508  -11.3044    1.8885 H   0  0  0  0  0  0  0  0  0  0  0  0
    3.5238  -10.2351    3.9999 H   0  0  0  0  0  0  0  0  0  0  0  0
    1.6155   -8.6769    4.0155 H   0  0  0  0  0  0  0  0  0  0  0  0
    0.1443   -3.0613    6.4584 H   0  0  0  0  0  0  0  0  0  0  0  0
   -1.4966   -1.4015    7.2615 H   0  0  0  0  0  0  0  0  0  0  0  0
   -1.6334    0.8326    6.1923 H   0  0  0  0  0  0  0  0  0  0  0  0
   -0.1472    1.3892    4.2898 H   0  0  0  0  0  0  0  0  0  0  0  0
    1.4783   -0.2773    3.4540 H   0  0  0  0  0  0  0  0  0  0  0  0
    2.8017   -1.1651    6.5216 H   0  0  0  0  0  0  0  0  0  0  0  0
    4.9848   -1.2588    7.6123 H   0  0  0  0  0  0  0  0  0  0  0  0
    6.7091   -2.8685    6.8496 H   0  0  0  0  0  0  0  0  0  0  0  0
    6.2116   -4.4183    4.9819 H   0  0  0  0  0  0  0  0  0  0  0  0
    4.0351   -4.3778    3.8793 H   0  0  0  0  0  0  0  0  0  0  0  0
   -0.8913   -3.0838    2.5346 H   0  0  0  0  0  0  0  0  0  0  0  0
   -2.4556   -1.8523    3.9912 H   0  0  0  0  0  0  0  0  0  0  0  0
   -5.5158    0.1507    2.1347 H   0  0  0  0  0  0  0  0  0  0  0  0
   -6.1551    0.5060    3.7894 H   0  0  0  0  0  0  0  0  0  0  0  0
   -5.3506   -1.0647    3.4722 H   0  0  0  0  0  0  0  0  0  0  0  0
   -2.8057    1.2264    1.0141 H   0  0  0  0  0  0  0  0  0  0  0  0
   -1.1824    0.0395   -0.4105 H   0  0  0  0  0  0  0  0  0  0  0  0
    1.6666   -3.0149   -1.9423 H   0  0  0  0  0  0  0  0  0  0  0  0
    0.9702   -4.3451   -3.8641 H   0  0  0  0  0  0  0  0  0  0  0  0
   -1.6708   -3.2681   -5.6019 H   0  0  0  0  0  0  0  0  0  0  0  0
   -3.2838   -3.8089   -4.9803 H   0  0  0  0  0  0  0  0  0  0  0  0
   -2.6499   -4.4576   -6.5438 H   0  0  0  0  0  0  0  0  0  0  0  0
   -3.0326   -4.5480   -2.3348 H   0  0  0  0  0  0  0  0  0  0  0  0
   -2.3551   -3.2631   -0.3610 H   0  0  0  0  0  0  0  0  0  0  0  0
    5.4198    4.1981    0.2670 H   0  0  0  0  0  0  0  0  0  0  0  0
    4.7488    5.9078    1.9061 H   0  0  0  0  0  0  0  0  0  0  0  0
    1.0703    5.0604    3.4235 H   0  0  0  0  0  0  0  0  0  0  0  0
    1.7749    6.4829    2.5550 H   0  0  0  0  0  0  0  0  0  0  0  0
    0.9860    6.7115    4.1653 H   0  0  0  0  0  0  0  0  0  0  0  0
    2.8404    2.8783    4.2982 H   0  0  0  0  0  0  0  0  0  0  0  0
    3.4971    1.1716    2.6677 H   0  0  0  0  0  0  0  0  0  0  0  0
    6.3310    2.8111   -1.4948 H   0  0  0  0  0  0  0  0  0  0  0  0
    8.7170    2.4081   -1.9710 H   0  0  0  0  0  0  0  0  0  0  0  0
   10.8541    2.4888    0.5067 H   0  0  0  0  0  0  0  0  0  0  0  0
   10.8943    0.9577    1.4843 H   0  0  0  0  0  0  0  0  0  0  0  0
   12.3414    1.4625    0.5238 H   0  0  0  0  0  0  0  0  0  0  0  0
    8.7819   -0.7197    0.9870 H   0  0  0  0  0  0  0  0  0  0  0  0
    6.4148   -0.2778    1.5086 H   0  0  0  0  0  0  0  0  0  0  0  0
    2.6995    1.4036   -4.0125 H   0  0  0  0  0  0  0  0  0  0  0  0
    0.4869    0.8412   -4.7150 H   0  0  0  0  0  0  0  0  0  0  0  0
   -0.5201   -1.3002   -6.1040 H   0  0  0  0  0  0  0  0  0  0  0  0
    0.2687   -1.6598   -7.6662 H   0  0  0  0  0  0  0  0  0  0  0  0
    1.6671   -1.4813   -4.9174 H   0  0  0  0  0  0  0  0  0  0  0  0
    1.3286   -2.9699   -5.8888 H   0  0  0  0  0  0  0  0  0  0  0  0
    2.5102   -1.7455   -6.4952 H   0  0  0  0  0  0  0  0  0  0  0  0
    0.2657   -0.3593   -9.5540 H   0  0  0  0  0  0  0  0  0  0  0  0
    1.0318    1.1424  -10.1570 H   0  0  0  0  0  0  0  0  0  0  0  0
    2.5315   -1.2337   -8.8718 H   0  0  0  0  0  0  0  0  0  0  0  0
    3.2862    0.3067   -9.4570 H   0  0  0  0  0  0  0  0  0  0  0  0
    2.4803   -0.8082  -10.6190 H   0  0  0  0  0  0  0  0  0  0  0  0
    1.7020    8.4529   -3.7893 H   0  0  0  0  0  0  0  0  0  0  0  0
    2.9620   10.9968   -1.2993 H   0  0  0  0  0  0  0  0  0  0  0  0
    1.2038   11.1456   -1.6180 H   0  0  0  0  0  0  0  0  0  0  0  0
    2.6369   12.1116   -3.4342 H   0  0  0  0  0  0  0  0  0  0  0  0
    1.5785   10.7959   -4.0384 H   0  0  0  0  0  0  0  0  0  0  0  0
    3.3468   10.4850   -3.7433 H   0  0  0  0  0  0  0  0  0  0  0  0
    2.4511    8.5777    1.6430 H   0  0  0  0  0  0  0  0  0  0  0  0
    2.6586   10.1467    0.8194 H   0  0  0  0  0  0  0  0  0  0  0  0
    0.1544   10.3558    0.5926 H   0  0  0  0  0  0  0  0  0  0  0  0
    0.6789   10.2130    2.3138 H   0  0  0  0  0  0  0  0  0  0  0  0
   -0.0369    8.7858    1.4735 H   0  0  0  0  0  0  0  0  0  0  0  0
   -0.8464    7.4336   -3.6517 H   0  0  0  0  0  0  0  0  0  0  0  0
   -3.1627    7.2186   -6.3827 H   0  0  0  0  0  0  0  0  0  0  0  0
   -8.1334    6.1080   -3.3596 H   0  0  0  0  0  0  0  0  0  0  0  0
   -3.9854    2.9903   -1.4083 H   0  0  0  0  0  0  0  0  0  0  0  0
   -3.7493    4.3438   -0.2326 H   0  0  0  0  0  0  0  0  0  0  0  0
   -5.1444    3.2119   -0.0391 H   0  0  0  0  0  0  0  0  0  0  0  0
  1  2  2  3
  2  3  1  0
  3  4  2  0
  3  5  1  0
  5  6  2  0
  6  7  1  0
  7  8  2  0
  8  9  1  0
  9 10  2  0
 10 11  1  0
 11 12  2  3
 12 13  1  0
 13 14  3  0
 12 15  1  0
 15 16  3  0
  8 17  1  0
 17 18  1  0
 18 19  1  0
 19 20  2  0
 20 21  1  0
 21 22  1  0
 21 23  1  0
  1 24  1  0
 24 25  2  0
 25 26  1  0
 26 27  1  0
 27 28  2  0
 28 29  1  0
 29 30  2  0
 30 31  1  0
 31 32  2  0
 26 33  1  0
 33 34  2  0
 34 35  1  0
 35 36  2  0
 36 37  1  0
 37 38  2  0
 25 39  1  0
 39 40  1  0
 40 41  1  0
 41 42  2  0
 42 43  1  0
 43 44  1  0
 44 45  2  0
 45 46  1  0
 46 47  2  0
 47 48  1  0
 48 49  2  0
 43 50  1  0
 50 51  2  0
 51 52  1  0
 52 53  2  0
 53 54  1  0
 54 55  2  0
 42 56  1  0
 56 57  1  0
 41 58  1  0
 58 59  2  0
 59 60  1  0
 60 61  1  0
 61 62  2  0
 62 63  1  0
 63 64  2  0
 64 65  1  0
 65 66  1  0
 64 67  1  0
 67 68  2  0
 60 69  1  0
 69 70  2  0
 70 71  1  0
 71 72  2  0
 72 73  1  0
 73 74  1  0
 72 75  1  0
 75 76  2  0
 59 77  1  0
 77 78  1  0
 78 79  1  0
 79 80  2  0
 80 81  1  0
 81 82  1  0
 82 83  2  0
 83 84  1  0
 84 85  2  0
 85 86  1  0
 86 87  1  0
 85 88  1  0
 88 89  2  0
 81 90  1  0
 90 91  2  0
 91 92  1  0
 92 93  2  0
 93 94  1  0
 94 95  1  0
 93 96  1  0
 96 97  2  0
 80 98  1  0
 98 99  1  0
 79100  1  0
100101  2  0
101102  1  0
102103  2  0
103104  1  0
104105  2  0
105106  1  0
106107  1  0
107108  1  0
106109  2  0
109110  1  0
110111  1  0
109112  1  0
103113  1  0
113114  2  0
114115  1  0
115116  1  0
116117  2  0
117118  1  0
118119  1  0
119120  1  0
118121  2  0
121122  1  0
121123  1  0
123124  1  0
115125  2  0
125126  1  0
114127  1  0
127128  2  0
128129  1  0
128130  1  0
130131  2  3
131132  1  0
132133  2  0
132134  1  0
134135  1  0
135136  2  0
136137  1  0
137138  1  0
138139  1  0
135140  1  0
140141  2  3
141142  1  0
142143  3  0
141144  1  0
144145  3  0
 11  2  1  0
 23 17  1  0
 57 24  1  0
 99 58  1  0
126100  1  0
140131  1  0
 10  5  1  0
 22 18  1  0
 32 27  1  0
 38 33  1  0
 56 39  2  0
 68 61  1  0
 76 69  1  0
 98 77  2  0
125102  1  0
138134  2  0
 23  7  1  0
 49 44  1  0
 55 50  1  0
 89 82  1  0
 97 90  1  0
112104  1  0
129113  1  0
122116  1  0
  1146  1  0
  6147  1  0
  9148  1  0
 17149  1  0
 18150  1  0
 19151  1  0
 20152  1  0
 21153  1  0
 22154  1  0
 22155  1  0
 23156  1  0
 28157  1  0
 29158  1  0
 30159  1  0
 31160  1  0
 32161  1  0
 34162  1  0
 35163  1  0
 36164  1  0
 37165  1  0
 38166  1  0
 45167  1  0
 46168  1  0
 47169  1  0
 48170  1  0
 49171  1  0
 51172  1  0
 52173  1  0
 53174  1  0
 54175  1  0
 55176  1  0
 62177  1  0
 63178  1  0
 66179  1  0
 66180  1  0
 66181  1  0
 67182  1  0
 68183  1  0
 70184  1  0
 71185  1  0
 74186  1  0
 74187  1  0
 74188  1  0
 75189  1  0
 76190  1  0
 83191  1  0
 84192  1  0
 87193  1  0
 87194  1  0
 87195  1  0
 88196  1  0
 89197  1  0
 91198  1  0
 92199  1  0
 95200  1  0
 95201  1  0
 95202  1  0
 96203  1  0
 97204  1  0
101205  1  0
105206  1  0
107207  1  0
107208  1  0
108209  1  0
108210  1  0
108211  1  0
110212  1  0
110213  1  0
111214  1  0
111215  1  0
111216  1  0
117217  1  0
119218  1  0
119219  1  0
120220  1  0
120221  1  0
120222  1  0
123223  1  0
123224  1  0
124225  1  0
124226  1  0
124227  1  0
127228  1  0
130229  1  0
136230  1  0
139231  1  0
139232  1  0
139233  1  0
M  END

